0:0:0
     RDKit          3D

 89 97  0  0  1  0  0  0  0  0999 V2000
  -29.4900  -20.9790   20.4500 C   0  0  0  0  0  0  0  0  0  0  0  0
  -28.7730  -22.1230   20.0660 N   0  0  0  0  0  0  0  0  0  0  0  0
  -30.4740  -21.1370   21.1730 O   0  0  0  0  0  0  0  0  0  0  0  0
  -27.9680  -21.9570   19.4760 H   0  0  0  0  0  0  0  0  0  0  0  0
  -30.6560  -14.9430   19.9960 C   0  0  0  0  0  0  0  0  0  0  0  0
  -30.4140  -12.6490   18.9980 C   0  0  0  0  0  2  0  0  0  0  0  0
  -29.4130  -12.6750   17.8230 C   0  0  0  0  0  2  0  0  0  0  0  0
  -27.9750  -12.4730   18.3370 C   0  0  0  0  0  2  0  0  0  0  0  0
  -27.6500  -13.3590   19.5690 C   0  0  0  0  0  3  0  0  0  0  0  0
  -28.7710  -13.3280   20.6270 C   0  0  0  0  0  2  0  0  0  0  0  0
  -30.0090  -13.7200   19.9450 N   0  0  0  0  0  0  0  0  0  0  0  0
  -31.8430  -14.9740   19.6530 O   0  0  0  0  0  0  0  0  0  0  0  0
  -30.2650  -18.6870   19.1860 C   0  0  0  0  0  2  0  0  0  0  0  0
  -28.8710  -18.3660   21.1590 C   0  0  0  0  0  2  0  0  0  0  0  0
  -30.0200  -17.1340   18.8760 C   0  0  0  0  0  2  0  0  0  0  0  0
  -29.6920  -16.9750   21.2560 C   0  0  0  0  0  2  0  0  0  0  0  0
  -29.1630  -19.4330   20.0170 C   0  0  0  0  0  3  0  0  0  0  0  0
  -29.9220  -16.1580   20.0190 N   0  0  0  0  0  0  0  0  0  0  0  0
  -25.3180  -13.9070   20.4720 C   0  0  0  0  0  0  0  0  0  0  0  0
  -24.2770  -13.1170   20.8740 C   0  0  0  0  0  0  0  0  0  0  0  0
  -24.7400  -11.7690   20.7690 C   0  0  0  0  0  0  0  0  0  0  0  0
  -26.3450  -13.0420   20.1380 N   0  0  0  0  0  0  0  0  0  0  0  0
  -26.0110  -11.7480   20.3820 N   0  0  0  0  0  0  0  0  0  0  0  0
  -24.0270  -10.4980   20.9570 C   0  0  0  0  0  0  0  0  0  0  0  0
  -24.4730   -9.5290   21.8840 C   0  0  0  0  0  3  0  0  0  0  0  0
  -23.7570   -8.3260   22.0620 C   0  0  0  0  0  3  0  0  0  0  0  0
  -22.5830   -8.0810   21.3110 C   0  0  0  0  0  0  0  0  0  0  0  0
  -22.1570   -9.0370   20.3730 C   0  0  0  0  0  3  0  0  0  0  0  0
  -22.8720  -10.2330   20.1940 C   0  0  0  0  0  3  0  0  0  0  0  0
  -21.8390   -6.9280   21.3970 O   0  0  0  0  0  0  0  0  0  0  0  0
  -21.7340   -6.2260   22.5710 C   0  0  0  0  0  0  0  0  0  0  0  0
  -21.1900   -6.8030   23.7390 C   0  0  0  0  0  3  0  0  0  0  0  0
  -21.0360   -6.0240   24.9030 C   0  0  0  0  0  3  0  0  0  0  0  0
  -21.4170   -4.6690   24.9000 C   0  0  0  0  0  0  0  0  0  0  0  0
  -21.9530   -4.0910   23.7360 C   0  0  0  0  0  3  0  0  0  0  0  0
  -22.1080   -4.8660   22.5740 C   0  0  0  0  0  0  0  0  0  0  0  0
  -22.6060   -4.3000   21.4490 F   0  0  0  0  0  0  0  0  0  0  0  0
  -21.2620   -3.9180   26.0160 F   0  0  0  0  0  0  0  0  0  0  0  0
  -22.8980  -13.5810   21.2430 C   0  0  0  0  0  0  0  0  0  0  0  0
  -22.2260  -12.8590   22.1340 N   0  0  0  0  0  0  0  0  0  0  0  0
  -22.4260  -14.6160   20.7760 O   0  0  0  0  0  0  0  0  0  0  0  0
  -22.6240  -12.0220   22.5330 H   0  0  0  0  0  0  0  0  0  0  0  0
  -21.3040  -13.1510   22.4230 H   0  0  0  0  0  0  0  0  0  0  0  0
  -25.4710  -15.2840   20.3360 N   0  0  0  0  0  0  0  0  0  0  0  0
  -24.7170  -15.9350   20.5260 H   0  0  0  0  0  0  0  0  0  0  0  0
  -26.3110  -15.7380   19.9980 H   0  0  0  0  0  0  0  0  0  0  0  0
  -29.0750  -23.6230   20.3730 C   0  0  0  0  0  3  0  0  0  0  0  0
  -28.0460  -24.8580   19.9890 C   0  0  0  0  0  3  0  0  0  0  0  0
  -28.2930  -26.3440   20.2840 O   0  0  0  0  0  0  0  0  0  0  0  0
  -24.6410  -31.9300   23.2860 C   0  0  0  0  0  0  0  0  0  0  0  0
  -27.2250  -27.2920   20.2120 C   0  0  0  0  0  0  0  0  0  0  0  0
  -23.4420  -30.5520   21.6300 C   0  0  0  0  0  3  0  0  0  0  0  0
  -24.8910  -28.9990   20.1930 C   0  0  0  0  0  0  0  0  0  0  0  0
  -25.9920  -30.8320   21.4690 C   0  0  0  0  0  2  0  0  0  0  0  0
  -26.0660  -29.4500   20.8060 C   0  0  0  0  0  0  0  0  0  0  0  0
  -27.2360  -28.6110   20.8020 C   0  0  0  0  0  3  0  0  0  0  0  0
  -26.0250  -26.9290   19.5590 C   0  0  0  0  0  3  0  0  0  0  0  0
  -24.8790  -27.7500   19.5550 C   0  0  0  0  0  3  0  0  0  0  0  0
  -23.6610  -29.8890   20.2450 C   0  0  0  0  0  2  0  0  0  0  0  0
  -24.7110  -31.1240   22.1850 N   0  0  0  0  0  0  0  0  0  0  0  0
  -23.5560  -32.2110   23.8150 O   0  0  0  0  0  0  0  0  0  0  0  0
  -22.7640  -29.5330   22.5810 C   0  0  0  0  0  0  0  0  0  0  0  0
  -21.4370  -29.3590   22.4420 N   0  0  0  0  0  0  0  0  0  0  0  0
  -23.4330  -28.9010   23.4020 O   0  0  0  0  0  0  0  0  0  0  0  0
  -20.9560  -29.9200   21.7530 H   0  0  0  0  0  0  0  0  0  0  0  0
  -18.0510  -28.1760   22.9330 C   0  0  0  0  0  0  0  0  0  0  0  0
  -20.6120  -28.4170   23.2020 C   0  0  0  0  0  3  0  0  0  0  0  0
  -20.7040  -26.9920   22.6090 C   0  0  0  0  0  2  0  0  0  0  0  0
  -19.5990  -26.6890   21.5910 C   0  0  0  0  0  2  0  0  0  0  0  0
  -18.2190  -26.8350   22.2380 C   0  0  0  0  0  2  0  0  0  0  0  0
  -19.1740  -28.9260   23.3700 C   0  0  0  0  0  0  0  0  0  0  0  0
  -18.9630  -30.1820   23.9800 C   0  0  0  0  0  3  0  0  0  0  0  0
  -17.6610  -30.6870   24.1550 C   0  0  0  0  0  3  0  0  0  0  0  0
  -16.5520  -29.9340   23.7310 C   0  0  0  0  0  3  0  0  0  0  0  0
  -16.7490  -28.6800   23.1260 C   0  0  0  0  0  3  0  0  0  0  0  0
  -25.9210  -32.5560   23.9210 C   0  0  0  0  0  3  0  0  0  0  0  0
  -25.6210  -33.9600   24.2390 N   0  0  0  0  0  0  0  0  0  0  0  0
  -25.9330  -35.0030   23.4590 C   0  0  0  0  0  0  0  0  0  0  0  0
  -26.5720  -34.8840   22.4100 O   0  0  0  0  0  0  0  0  0  0  0  0
  -25.0500  -34.1260   25.0550 H   0  0  0  0  0  0  0  0  0  0  0  0
  -24.1840  -36.7860   23.1530 C   0  0  0  0  0  1  0  0  0  0  0  0
  -25.4620  -36.3990   23.9130 C   0  0  0  0  0  3  0  0  0  0  0  0
  -27.6230  -37.3140   24.6380 C   0  0  0  0  0  1  0  0  0  0  0  0
  -26.4850  -37.4530   23.7330 N   0  0  0  0  0  0  0  0  0  0  0  0
  -26.0810  -38.3750   23.8700 H   0  0  0  0  0  0  0  0  0  0  0  0
  -26.4090  -31.7900   25.2110 C   0  0  1  0  0  0  0  0  0  0  0  0
  -25.2960  -31.5680   26.2620 C   0  0  0  0  0  1  0  0  0  0  0  0
  -26.9900  -30.4050   24.8410 C   0  0  0  0  0  1  0  0  0  0  0  0
  -27.5550  -32.5810   25.8870 C   0  0  0  0  0  1  0  0  0  0  0  0
  1  3  2  0
  2 47  1  0
  2  1  1  0
  4  2  1  0
  5 18  1  0
  6 11  1  0
  7  8  1  0
  7  6  1  0
  9  8  1  0
  9 22  1  0
  9 10  1  0
 11  5  1  0
 11 10  1  0
 12  5  2  0
 13 17  1  0
 14 16  1  0
 15 13  1  0
 15 18  1  0
 17  1  1  0
 17 14  1  0
 18 16  1  0
 19 20  2  0
 20 39  1  0
 21 20  1  0
 21 24  1  0
 22 23  1  0
 22 19  1  0
 23 21  2  0
 24 25  1  0
 25 26  2  0
 27 30  1  0
 27 26  1  0
 28 27  2  0
 29 28  1  0
 29 24  2  0
 30 31  1  0
 31 36  2  0
 31 32  1  0
 32 33  2  0
 34 33  1  0
 34 38  1  0
 35 34  2  0
 36 35  1  0
 37 36  1  0
 39 40  1  0
 40 43  1  0
 40 42  1  0
 41 39  2  0
 44 19  1  0
 44 45  1  0
 46 44  1  0
 48 49  1  0
 48 47  2  0
 50 61  2  0
 51 49  1  0
 51 56  1  0
 52 60  1  0
 52 62  1  0
 53 59  1  0
 53 55  1  0
 54 60  1  0
 55 54  1  0
 56 55  2  0
 57 51  2  0
 58 57  1  0
 58 53  2  0
 59 52  1  0
 60 50  1  0
 62 64  2  0
 63 62  1  0
 65 63  1  0
 66 75  2  0
 66 71  1  0
 67 63  1  0
 67 71  1  0
 68 67  1  0
 69 70  1  0
 69 68  1  0
 70 66  1  0
 71 72  2  0
 72 73  1  0
 74 73  2  0
 75 74  1  0
 76 50  1  0
 76 77  1  0
 76 86  1  0
 77 80  1  0
 78 82  1  0
 78 77  1  0
 79 78  2  0
 82 81  1  0
 84 85  1  0
 84 82  1  0
 84 83  1  0
 86 89  1  1
 86 87  1  0
 88 86  1  0
M  ISO  4   5 100  18 100  48 101  49 101
M  END
>  <TORSDO>  (1) 
F 18

>  <SCORE>  (1) 
-14.132

>  <name>  (1) 
0

>  <ligand_id>  (1) 
0

>  <original_smiles>  (1) 
[H]c1c([H])c([H])c2c(c1[H])C([H])([H])C([H])([H])C([H])([H])C2([H])N([H])C(=O)C1([H])N(C(=O)C([H])(N([H])C(=O)C([H])(N([H])C([H])([H])[H])C([H])([H])[H])C(C([H])([H])[H])(C([H])([H])[H])C([H])([H])[H])C([H])([H])c2c([H])c(OC([H])([H])C([H])([H])N([H])C(=O)C3([H])C([H])([H])C([H])([H])N(C(=O)N4C([H])([H])C([H])([H])C([H])([H])C([H])(n5nc(-c6c([H])c([H])c(Oc7c([H])c([H])c(F)c([H])c7F)c([H])c6[H])c(C(=O)N([H])[H])c5N([H])[H])C4([H])[H])C([H])([H])C3([H])[H])c([H])c([H])c2C1([H])[H]

>  <smiles>  (1) 
[H]c1c([H])c([H])c2c(c1[H])C([H])([H])C([H])([H])C([H])([H])C2([H])N([H])C(=O)C1([H])N(C(=O)C([H])(N([H])C(=O)C([H])(N([H])C([H])([H])[H])C([H])([H])[H])C(C([H])([H])[H])(C([H])([H])[H])C([H])([H])[H])C([H])([H])c2c([H])c(OC([H])([H])C([H])([H])N([H])C(=O)C3([H])C([H])([H])C([H])([H])N(C(=O)N4C([H])([H])C([H])([H])C([H])([H])C([H])(n5nc(-c6c([H])c([H])c(Oc7c([H])c([H])c(F)c([H])c7F)c([H])c6[H])c(C(=O)N([H])[H])c5N([H])[H])C4([H])[H])C([H])([H])C3([H])[H])c([H])c([H])c2C1([H])[H]

$$$$
1:0:0
     RDKit          3D

104111  0  0  1  0  0  0  0  0999 V2000
  -28.1670  -19.9800   20.3040 C   0  0  0  0  0  3  0  0  0  0  0  0
  -29.1900  -18.8900   20.6850 C   0  0  0  0  0  0  0  0  0  0  0  0
  -29.8300  -18.2560   19.6930 N   0  0  0  0  0  0  0  0  0  0  0  0
  -29.3950  -18.6320   21.8730 O   0  0  0  0  0  0  0  0  0  0  0  0
  -29.6090  -18.5320   18.7450 H   0  0  0  0  0  0  0  0  0  0  0  0
  -30.8390  -17.2140   19.8630 C   0  0  0  0  0  2  0  0  0  0  0  0
  -30.2620  -15.9410   20.5220 C   0  0  0  0  0  2  0  0  0  0  0  0
  -31.4620  -14.0420   19.5670 C   0  0  0  0  0  0  0  0  0  0  0  0
  -30.8740  -11.8920   18.5160 C   0  0  0  0  0  2  0  0  0  0  0  0
  -29.8500  -12.0520   17.3800 C   0  0  0  0  0  2  0  0  0  0  0  0
  -28.4120  -12.0390   17.9280 C   0  0  0  0  0  2  0  0  0  0  0  0
  -28.2280  -13.0050   19.1270 C   0  0  0  0  0  3  0  0  0  0  0  0
  -29.3470  -12.7980   20.1720 C   0  0  0  0  0  2  0  0  0  0  0  0
  -30.6490  -12.9570   19.5010 N   0  0  0  0  0  0  0  0  0  0  0  0
  -32.4410  -14.2070   18.8390 O   0  0  0  0  0  0  0  0  0  0  0  0
  -31.2520  -14.8700   20.5950 N   0  0  0  0  0  0  0  0  0  0  0  0
  -32.1190  -15.2040   20.9910 H   0  0  0  0  0  0  0  0  0  0  0  0
  -25.9590  -13.8500   20.0110 C   0  0  0  0  0  0  0  0  0  0  0  0
  -24.8630  -13.1880   20.4970 C   0  0  0  0  0  0  0  0  0  0  0  0
  -25.1980  -11.8010   20.4680 C   0  0  0  0  0  0  0  0  0  0  0  0
  -26.9000  -12.8710   19.7230 N   0  0  0  0  0  0  0  0  0  0  0  0
  -26.4460  -11.6360   20.0490 N   0  0  0  0  0  0  0  0  0  0  0  0
  -24.3840  -10.6120   20.7550 C   0  0  0  0  0  0  0  0  0  0  0  0
  -24.7540   -9.6870   21.7550 C   0  0  0  0  0  3  0  0  0  0  0  0
  -23.9450   -8.5600   22.0230 C   0  0  0  0  0  3  0  0  0  0  0  0
  -22.7520   -8.3540   21.2910 C   0  0  0  0  0  0  0  0  0  0  0  0
  -22.4000   -9.2660   20.2800 C   0  0  0  0  0  3  0  0  0  0  0  0
  -23.2090  -10.3820   20.0110 C   0  0  0  0  0  3  0  0  0  0  0  0
  -21.9170   -7.2760   21.4680 O   0  0  0  0  0  0  0  0  0  0  0  0
  -21.7030   -6.7240   22.7060 C   0  0  0  0  0  0  0  0  0  0  0  0
  -21.2250   -7.4890   23.7910 C   0  0  0  0  0  3  0  0  0  0  0  0
  -20.9540   -6.8660   25.0270 C   0  0  0  0  0  3  0  0  0  0  0  0
  -21.1510   -5.4810   25.1750 C   0  0  0  0  0  0  0  0  0  0  0  0
  -21.6240   -4.7160   24.0940 C   0  0  0  0  0  3  0  0  0  0  0  0
  -21.8950   -5.3360   22.8610 C   0  0  0  0  0  0  0  0  0  0  0  0
  -22.3290   -4.5920   21.8160 F   0  0  0  0  0  0  0  0  0  0  0  0
  -20.8850   -4.8810   26.3580 F   0  0  0  0  0  0  0  0  0  0  0  0
  -23.5430  -13.7990   20.8710 C   0  0  0  0  0  0  0  0  0  0  0  0
  -22.8470  -13.2090   21.8380 N   0  0  0  0  0  0  0  0  0  0  0  0
  -23.1460  -14.8370   20.3440 O   0  0  0  0  0  0  0  0  0  0  0  0
  -23.1850  -12.3690   22.2840 H   0  0  0  0  0  0  0  0  0  0  0  0
  -21.9590  -13.5930   22.1280 H   0  0  0  0  0  0  0  0  0  0  0  0
  -26.2300  -15.1920   19.7670 N   0  0  0  0  0  0  0  0  0  0  0  0
  -25.5320  -15.9200   19.8700 H   0  0  0  0  0  0  0  0  0  0  0  0
  -27.0620  -15.5250   19.2970 H   0  0  0  0  0  0  0  0  0  0  0  0
  -26.2450  -18.5490   19.5950 C   0  0  0  0  0  0  0  0  0  0  0  0
  -26.8270  -19.4070   20.4410 N   0  0  0  0  0  0  0  0  0  0  0  0
  -26.7760  -18.1990   18.5360 O   0  0  0  0  0  0  0  0  0  0  0  0
  -26.3490  -19.5960   21.3110 H   0  0  0  0  0  0  0  0  0  0  0  0
  -24.8800  -17.9880   20.0200 C   0  0  0  0  0  2  0  0  0  0  0  0
  -23.4280  -17.7680   18.0170 C   0  0  0  0  0  0  0  0  0  0  0  0
  -22.8440  -16.8190   16.9790 C   0  0  0  0  0  1  0  0  0  0  0  0
  -24.2060  -17.2330   18.9610 N   0  0  0  0  0  0  0  0  0  0  0  0
  -23.1710  -18.9710   17.9660 O   0  0  0  0  0  0  0  0  0  0  0  0
  -24.3730  -16.2350   18.9290 H   0  0  0  0  0  0  0  0  0  0  0  0
  -28.3110  -21.1300   21.3350 C   0  0  0  0  0  2  0  0  0  0  0  0
  -27.5860  -22.4410   20.9600 C   0  0  0  0  0  2  0  0  0  0  0  0
  -28.1720  -23.1020   19.7050 C   0  0  0  0  0  0  0  0  0  0  0  0
  -29.0780  -24.0840   19.7960 N   0  0  0  0  0  0  0  0  0  0  0  0
  -27.7940  -22.7240   18.5990 O   0  0  0  0  0  0  0  0  0  0  0  0
  -29.3680  -24.4970   18.9200 H   0  0  0  0  0  0  0  0  0  0  0  0
  -29.7530  -24.6430   20.9710 C   0  0  0  0  0  2  0  0  0  0  0  0
  -29.8870  -26.1800   20.8780 C   0  0  0  0  0  2  0  0  0  0  0  0
  -29.3680  -26.6720   19.6430 O   0  0  0  0  0  0  0  0  0  0  0  0
  -24.9130  -31.1380   22.9730 C   0  0  0  0  0  0  0  0  0  0  0  0
  -28.1280  -27.2510   19.7150 C   0  0  0  0  0  0  0  0  0  0  0  0
  -23.9130  -29.6970   21.2290 C   0  0  0  0  0  3  0  0  0  0  0  0
  -25.5640  -28.4210   19.7620 C   0  0  0  0  0  0  0  0  0  0  0  0
  -26.3730  -30.3690   21.1100 C   0  0  0  0  0  2  0  0  0  0  0  0
  -26.6330  -29.0550   20.4060 C   0  0  0  0  0  0  0  0  0  0  0  0
  -27.9190  -28.4780   20.3830 C   0  0  0  0  0  3  0  0  0  0  0  0
  -27.0480  -26.6280   19.0590 C   0  0  0  0  0  3  0  0  0  0  0  0
  -25.7630  -27.2040   19.0850 C   0  0  0  0  0  3  0  0  0  0  0  0
  -24.2250  -29.1190   19.8210 C   0  0  0  0  0  2  0  0  0  0  0  0
  -25.0820  -30.4130   21.8310 N   0  0  0  0  0  0  0  0  0  0  0  0
  -23.7970  -31.2530   23.4980 O   0  0  0  0  0  0  0  0  0  0  0  0
  -23.3680  -28.5560   22.1160 C   0  0  0  0  0  0  0  0  0  0  0  0
  -22.0870  -28.2090   21.9220 N   0  0  0  0  0  0  0  0  0  0  0  0
  -24.0990  -27.9880   22.9350 O   0  0  0  0  0  0  0  0  0  0  0  0
  -21.5570  -28.7290   21.2370 H   0  0  0  0  0  0  0  0  0  0  0  0
  -18.8740  -26.5850   22.2260 C   0  0  0  0  0  0  0  0  0  0  0  0
  -21.3690  -27.1390   22.6120 C   0  0  0  0  0  3  0  0  0  0  0  0
  -21.6660  -25.7620   21.9740 C   0  0  0  0  0  2  0  0  0  0  0  0
  -20.6490  -25.3570   20.9020 C   0  0  0  0  0  2  0  0  0  0  0  0
  -19.2400  -25.3020   21.4980 C   0  0  0  0  0  2  0  0  0  0  0  0
  -19.8730  -27.4560   22.7350 C   0  0  0  0  0  0  0  0  0  0  0  0
  -19.4800  -28.6540   23.3720 C   0  0  0  0  0  3  0  0  0  0  0  0
  -18.1190  -28.9820   23.5100 C   0  0  0  0  0  3  0  0  0  0  0  0
  -17.1330  -28.1070   23.0180 C   0  0  0  0  0  3  0  0  0  0  0  0
  -17.5110  -26.9100   22.3830 C   0  0  0  0  0  3  0  0  0  0  0  0
  -26.1050  -31.8750   23.6590 C   0  0  0  0  0  3  0  0  0  0  0  0
  -25.6350  -33.2150   24.0370 N   0  0  0  0  0  0  0  0  0  0  0  0
  -25.8670  -34.3300   23.3310 C   0  0  0  0  0  0  0  0  0  0  0  0
  -26.5720  -34.3440   22.3170 O   0  0  0  0  0  0  0  0  0  0  0  0
  -25.0060  -33.2680   24.8250 H   0  0  0  0  0  0  0  0  0  0  0  0
  -23.9540  -35.9270   23.0000 C   0  0  0  0  0  1  0  0  0  0  0  0
  -25.2160  -35.6340   23.8280 C   0  0  0  0  0  3  0  0  0  0  0  0
  -27.2240  -36.7180   24.7380 C   0  0  0  0  0  1  0  0  0  0  0  0
  -26.1250  -36.8020   23.7800 N   0  0  0  0  0  0  0  0  0  0  0  0
  -25.6140  -37.6630   23.9550 H   0  0  0  0  0  0  0  0  0  0  0  0
  -26.6730  -31.1040   24.9120 C   0  0  1  0  0  0  0  0  0  0  0  0
  -25.5850  -30.6720   25.9230 C   0  0  0  0  0  1  0  0  0  0  0  0
  -27.4370  -29.8360   24.4680 C   0  0  0  0  0  1  0  0  0  0  0  0
  -27.6910  -31.9990   25.6580 C   0  0  0  0  0  1  0  0  0  0  0  0
  1 47  1  0
  1  2  1  0
  1 56  1  0
  2  4  2  0
  3  6  1  0
  3  2  1  0
  5  3  1  0
  6  7  1  0
  7 16  1  0
  8 16  1  0
  9 14  1  0
 10 11  1  0
 10  9  1  0
 12 11  1  0
 12 21  1  0
 12 13  1  0
 14  8  1  0
 14 13  1  0
 15  8  2  0
 16 17  1  0
 18 19  2  0
 19 38  1  0
 20 19  1  0
 20 23  1  0
 21 18  1  0
 21 22  1  0
 22 20  2  0
 23 24  1  0
 24 25  2  0
 26 29  1  0
 26 25  1  0
 27 26  2  0
 28 27  1  0
 28 23  2  0
 29 30  1  0
 30 35  2  0
 30 31  1  0
 31 32  2  0
 32 33  1  0
 33 37  1  0
 34 33  2  0
 35 34  1  0
 36 35  1  0
 38 39  1  0
 39 42  1  0
 39 41  1  0
 40 38  2  0
 43 44  1  0
 43 18  1  0
 45 43  1  0
 46 50  1  0
 46 47  1  0
 47 49  1  0
 48 46  2  0
 51 53  1  0
 52 51  1  0
 53 50  1  0
 54 51  2  0
 55 53  1  0
 57 56  1  0
 58 59  1  0
 58 57  1  0
 59 62  1  0
 60 58  2  0
 61 59  1  0
 63 62  1  0
 64 66  1  0
 64 63  1  0
 65 76  2  0
 66 71  1  0
 67 75  1  0
 67 77  1  0
 68 74  1  0
 68 70  1  0
 69 75  1  0
 70 69  1  0
 71 70  2  0
 72 73  1  0
 72 66  2  0
 73 68  2  0
 74 67  1  0
 75 65  1  0
 77 79  2  0
 78 77  1  0
 80 78  1  0
 81 90  2  0
 81 86  1  0
 82 78  1  0
 82 86  1  0
 83 82  1  0
 84 85  1  0
 84 83  1  0
 85 81  1  0
 86 87  2  0
 87 88  1  0
 89 88  2  0
 90 89  1  0
 91 65  1  0
 91 92  1  0
 91101  1  0
 92 95  1  0
 93 97  1  0
 93 92  1  0
 94 93  2  0
 97 96  1  0
 99 97  1  0
 99100  1  0
 99 98  1  0
101104  1  1
101102  1  0
103101  1  0
M  ISO  4   8 100  16 100  63 101  64 101
M  END
>  <TORSDO>  (2) 
F 27

>  <SCORE>  (2) 
3.184

>  <name>  (2) 
1

>  <ligand_id>  (2) 
1

>  <original_smiles>  (2) 
[H]c1c([H])c([H])c2c(c1[H])C([H])([H])C([H])([H])C([H])([H])C2([H])N([H])C(=O)C1([H])N(C(=O)C([H])(N([H])C(=O)C([H])(N([H])C([H])([H])[H])C([H])([H])[H])C(C([H])([H])[H])(C([H])([H])[H])C([H])([H])[H])C([H])([H])c2c([H])c(OC([H])([H])C([H])([H])N([H])C(=O)C([H])([H])C([H])([H])C([H])(C(=O)N([H])C([H])([H])C([H])([H])N([H])C(=O)N3C([H])([H])C([H])([H])C([H])([H])C([H])(n4nc(-c5c([H])c([H])c(Oc6c([H])c([H])c(F)c([H])c6F)c([H])c5[H])c(C(=O)N([H])[H])c4N([H])[H])C3([H])[H])N([H])C(=O)C([H])([H])N([H])C(=O)C([H])([H])[H])c([H])c([H])c2C1([H])[H]

>  <smiles>  (2) 
[H]c1c([H])c([H])c2c(c1[H])C([H])([H])C([H])([H])C([H])([H])C2([H])N([H])C(=O)C1([H])N(C(=O)C([H])(N([H])C(=O)C([H])(N([H])C([H])([H])[H])C([H])([H])[H])C(C([H])([H])[H])(C([H])([H])[H])C([H])([H])[H])C([H])([H])c2c([H])c(OC([H])([H])C([H])([H])N([H])C(=O)C([H])([H])C([H])([H])C([H])(C(=O)N([H])C([H])([H])C([H])([H])N([H])C(=O)N3C([H])([H])C([H])([H])C([H])([H])C([H])(n4nc(-c5c([H])c([H])c(Oc6c([H])c([H])c(F)c([H])c6F)c([H])c5[H])c(C(=O)N([H])[H])c4N([H])[H])C3([H])[H])N([H])C(=O)C([H])([H])N([H])C(=O)C([H])([H])[H])c([H])c([H])c2C1([H])[H]

$$$$
2:0:0
     RDKit          3D

 96103  0  0  1  0  0  0  0  0999 V2000
  -30.4940  -25.9910   16.5460 C   0  0  0  0  0  0  0  0  0  0  0  0
  -30.8630  -27.4320   15.9160 C   0  0  0  0  0  0  0  0  0  0  0  0
  -31.7820  -28.3190   16.4000 N   0  0  0  0  0  0  0  0  0  0  0  0
  -30.1770  -27.8020   14.9510 O   0  0  0  0  0  0  0  0  0  0  0  0
  -32.3700  -28.0350   17.1790 H   0  0  0  0  0  0  0  0  0  0  0  0
  -32.1050  -29.6550   15.7300 C   0  0  0  0  0  3  0  0  0  0  0  0
  -32.9000  -30.7680   16.5500 C   0  0  0  0  0  3  0  0  0  0  0  0
  -33.4230  -31.9750   15.8500 O   0  0  0  0  0  0  0  0  0  0  0  0
  -38.7020  -36.1200   18.4070 C   0  0  0  0  0  0  0  0  0  0  0  0
  -34.7910  -32.2140   15.9520 C   0  0  0  0  0  0  0  0  0  0  0  0
  -39.2510  -34.6690   16.4920 C   0  0  0  0  0  3  0  0  0  0  0  0
  -37.5720  -32.8090   15.9430 C   0  0  0  0  0  0  0  0  0  0  0  0
  -37.4630  -33.9420   18.1660 C   0  0  0  0  0  2  0  0  0  0  0  0
  -36.7850  -33.1810   17.0370 C   0  0  0  0  0  0  0  0  0  0  0  0
  -35.4020  -32.8570   17.0650 C   0  0  0  0  0  3  0  0  0  0  0  0
  -35.6220  -31.8100   14.8870 C   0  0  0  0  0  3  0  0  0  0  0  0
  -37.0010  -32.0860   14.8750 C   0  0  0  0  0  3  0  0  0  0  0  0
  -39.0310  -33.2200   15.9840 C   0  0  0  0  0  2  0  0  0  0  0  0
  -38.4560  -34.9620   17.7260 N   0  0  0  0  0  0  0  0  0  0  0  0
  -39.5960  -36.9030   18.0590 O   0  0  0  0  0  0  0  0  0  0  0  0
  -38.9990  -35.6660   15.3460 C   0  0  0  0  0  0  0  0  0  0  0  0
  -40.0990  -36.2230   14.8140 N   0  0  0  0  0  0  0  0  0  0  0  0
  -37.8510  -35.8990   14.9440 O   0  0  0  0  0  0  0  0  0  0  0  0
  -40.9860  -36.0030   15.2590 H   0  0  0  0  0  0  0  0  0  0  0  0
  -41.8080  -39.0040   13.1490 C   0  0  0  0  0  0  0  0  0  0  0  0
  -40.1380  -37.0550   13.6070 C   0  0  0  0  0  0  0  0  0  0  0  0
  -40.8540  -36.2360   12.5210 C   0  0  0  0  0  3  0  0  0  0  0  0
  -41.9760  -36.8480   11.7120 C   0  0  0  0  0  3  0  0  0  0  0  0
  -42.5220  -38.2330   12.0690 C   0  0  0  0  0  3  0  0  0  0  0  0
  -40.7290  -38.4520   13.8950 C   0  0  0  0  0  0  0  0  0  0  0  0
  -40.1370  -39.2290   14.9190 C   0  0  0  0  0  3  0  0  0  0  0  0
  -40.6100  -40.5340   15.1840 C   0  0  0  0  0  3  0  0  0  0  0  0
  -41.6600  -41.0800   14.4230 C   0  0  0  0  0  3  0  0  0  0  0  0
  -42.2570  -40.3140   13.4100 C   0  0  0  0  0  3  0  0  0  0  0  0
  -37.8890  -36.5010   19.6860 C   0  0  0  0  0  3  0  0  0  0  0  0
  -36.6930  -37.4780   19.3800 C   0  0  1  0  0  0  0  0  0  0  0  0
  -37.0190  -38.5480   18.3130 C   0  0  0  0  0  1  0  0  0  0  0  0
  -35.4470  -36.6940   18.9060 C   0  0  0  0  0  1  0  0  0  0  0  0
  -36.2760  -38.2150   20.6780 C   0  0  0  0  0  1  0  0  0  0  0  0
  -38.8180  -37.1000   20.6460 N   0  0  0  0  0  0  0  0  0  0  0  0
  -39.1050  -36.5930   21.8550 C   0  0  0  0  0  0  0  0  0  0  0  0
  -38.5360  -35.5960   22.3120 O   0  0  0  0  0  0  0  0  0  0  0  0
  -39.3540  -37.8870   20.3130 H   0  0  0  0  0  0  0  0  0  0  0  0
  -41.4530  -36.4500   22.7340 C   0  0  0  0  0  1  0  0  0  0  0  0
  -40.1780  -37.3090   22.6840 C   0  0  0  0  0  3  0  0  0  0  0  0
  -38.8210  -38.7490   24.1360 C   0  0  0  0  0  1  0  0  0  0  0  0
  -39.7460  -37.6210   24.0620 N   0  0  0  0  0  0  0  0  0  0  0  0
  -40.5450  -37.8320   24.6550 H   0  0  0  0  0  0  0  0  0  0  0  0
  -32.1240  -23.9140   17.0700 C   0  0  0  0  0  0  0  0  0  0  0  0
  -31.2900  -24.9610   17.3250 N   0  0  0  0  0  4  0  0  0  0  0  0
  -32.9480  -23.9580   16.1680 O   0  0  0  0  0  0  0  0  0  0  0  0
  -30.7870  -24.7590   18.1780 H   0  0  0  0  0  0  0  0  0  0  0  0
  -31.9080  -22.8340   19.3750 C   0  0  0  0  0  1  0  0  0  0  0  0
  -31.8630  -22.5750   17.8790 C   0  0  0  0  0  3  0  0  0  0  0  0
  -33.9440  -21.0780   17.6090 C   0  0  0  0  0  0  0  0  0  0  0  0
  -36.0460  -21.0100   16.2550 C   0  0  0  0  0  2  0  0  0  0  0  0
  -36.3520  -22.3640   15.5740 C   0  0  0  0  0  2  0  0  0  0  0  0
  -35.6510  -22.4470   14.2040 C   0  0  0  0  0  2  0  0  0  0  0  0
  -34.1540  -22.0540   14.3030 C   0  0  0  0  0  3  0  0  0  0  0  0
  -33.9430  -20.7330   15.0880 C   0  0  0  0  0  2  0  0  0  0  0  0
  -34.5810  -20.8650   16.4080 N   0  0  0  0  0  0  0  0  0  0  0  0
  -34.5990  -21.1720   18.6510 O   0  0  0  0  0  0  0  0  0  0  0  0
  -32.5740  -21.2550   17.6260 N   0  0  0  0  0  0  0  0  0  0  0  0
  -32.0940  -20.4920   18.0930 H   0  0  0  0  0  0  0  0  0  0  0  0
  -32.9960  -20.9440   12.2890 C   0  0  0  0  0  0  0  0  0  0  0  0
  -32.4250  -21.4630   11.1720 C   0  0  0  0  0  0  0  0  0  0  0  0
  -32.5810  -22.8820   11.2780 C   0  0  0  0  0  0  0  0  0  0  0  0
  -33.4860  -22.0260   13.0090 N   0  0  0  0  0  0  0  0  0  0  0  0
  -33.2870  -23.1930   12.3560 N   0  0  0  0  0  0  0  0  0  0  0  0
  -32.0370  -23.9660   10.4500 C   0  0  0  0  0  0  0  0  0  0  0  0
  -32.2660  -24.0260    9.0550 C   0  0  0  0  0  3  0  0  0  0  0  0
  -31.7120  -25.0670    8.2840 C   0  0  0  0  0  3  0  0  0  0  0  0
  -30.9130  -26.0550    8.8970 C   0  0  0  0  0  0  0  0  0  0  0  0
  -30.7040  -26.0090   10.2850 C   0  0  0  0  0  3  0  0  0  0  0  0
  -31.2610  -24.9780   11.0560 C   0  0  0  0  0  3  0  0  0  0  0  0
  -30.3500  -27.1130    8.2280 O   0  0  0  0  0  0  0  0  0  0  0  0
  -29.1560  -26.9870    7.5660 C   0  0  0  0  0  0  0  0  0  0  0  0
  -28.0580  -27.8270    7.8480 C   0  0  0  0  0  3  0  0  0  0  0  0
  -26.8710  -27.7080    7.0950 C   0  0  0  0  0  3  0  0  0  0  0  0
  -26.7840  -26.7550    6.0630 C   0  0  0  0  0  0  0  0  0  0  0  0
  -27.8770  -25.9160    5.7850 C   0  0  0  0  0  3  0  0  0  0  0  0
  -29.0610  -26.0330    6.5340 C   0  0  0  0  0  0  0  0  0  0  0  0
  -30.1190  -25.2360    6.2500 F   0  0  0  0  0  0  0  0  0  0  0  0
  -25.6490  -26.6470    5.3340 F   0  0  0  0  0  0  0  0  0  0  0  0
  -31.6720  -20.7090   10.1140 C   0  0  0  0  0  0  0  0  0  0  0  0
  -31.6810  -21.1820    8.8810 N   0  0  0  0  0  0  0  0  0  0  0  0
  -31.0900  -19.6550   10.3840 O   0  0  0  0  0  0  0  0  0  0  0  0
  -32.1610  -22.0400    8.6480 H   0  0  0  0  0  0  0  0  0  0  0  0
  -31.2000  -20.6740    8.1530 H   0  0  0  0  0  0  0  0  0  0  0  0
  -33.1020  -19.6390   12.7680 N   0  0  0  0  0  0  0  0  0  0  0  0
  -32.6010  -18.8670   12.3370 H   0  0  0  0  0  0  0  0  0  0  0  0
  -33.3690  -19.4740   13.7250 H   0  0  0  0  0  0  0  0  0  0  0  0
  -29.1740  -25.3260   16.0270 C   0  0  0  0  0  2  0  0  0  0  0  0
  -29.9910  -23.6840   14.3040 C   0  0  0  0  0  1  0  0  0  0  0  0
  -27.5890  -23.4760   15.0350 C   0  0  0  0  0  1  0  0  0  0  0  0
  -29.0050  -23.8860   15.4900 C   0  0  0  0  0  3  0  0  0  0  0  0
  1 50  2  3
  2  3  1  0
  2  1  1  0
  3  5  1  0
  4  2  2  0
  6  3  1  0
  6  7  2  0
  8 10  1  0
  8  7  1  0
 10 15  1  0
 11 21  1  0
 11 19  1  0
 12 18  1  0
 12 14  1  0
 14 15  2  0
 14 13  1  0
 16 10  2  0
 17 16  1  0
 17 12  2  0
 18 11  1  0
 19 13  1  0
 19  9  1  0
 20  9  2  0
 22 24  1  0
 22 21  1  0
 23 21  2  0
 25 34  2  0
 25 30  1  0
 26 30  1  0
 26 22  1  0
 27 26  2  0
 28 29  2  0
 28 27  1  0
 29 25  1  0
 30 31  2  0
 31 32  1  0
 33 32  2  0
 34 33  1  0
 35  9  1  0
 35 40  1  0
 36 35  1  0
 36 39  1  1
 37 36  1  0
 38 36  1  0
 40 41  1  0
 41 42  2  0
 41 45  1  0
 43 40  1  0
 45 44  1  0
 45 47  1  0
 47 46  1  0
 47 48  1  0
 49 50  1  0
 49 54  1  0
 50 52  1  0
 51 49  2  0
 54 53  1  0
 55 63  1  0
 55 62  2  0
 56 61  1  0
 57 56  1  0
 58 59  1  0
 58 57  1  0
 59 68  1  0
 59 60  1  0
 60 61  1  0
 61 55  1  0
 63 54  1  0
 63 64  1  0
 65 90  1  0
 65 68  1  0
 66 67  1  0
 66 65  2  0
 67 69  2  0
 69 68  1  0
 70 75  1  0
 70 67  1  0
 71 70  2  0
 72 73  2  0
 72 71  1  0
 73 74  1  0
 74 75  2  0
 76 73  1  0
 77 78  1  0
 77 76  1  0
 79 78  2  0
 80 79  1  0
 81 80  2  0
 81 82  1  0
 82 77  2  0
 83 82  1  0
 84 80  1  0
 85 87  2  0
 85 66  1  0
 86 85  1  0
 88 86  1  0
 89 86  1  0
 90 92  1  0
 91 90  1  0
 93  1  1  0
 94 96  1  0
 95 96  1  0
 96 93  1  0
M  ISO  4   7 101   8 101  55 100  63 100
M  END
>  <TORSDO>  (3) 
F 23

>  <SCORE>  (3) 
1.811

>  <name>  (3) 
2

>  <ligand_id>  (3) 
2

>  <original_smiles>  (3) 
[H]c1c([H])c([H])c2c(c1[H])C([H])([H])C([H])([H])C([H])([H])C2([H])N([H])C(=O)C1([H])N(C(=O)C([H])(N([H])C(=O)C([H])(N([H])C([H])([H])[H])C([H])([H])[H])C(C([H])([H])[H])(C([H])([H])[H])C([H])([H])[H])C([H])([H])c2c([H])c(OC([H])([H])C([H])([H])N([H])C(=O)C([H])(N([H])C(=O)C([H])(N([H])C(=O)N3C([H])([H])C([H])([H])C([H])([H])C([H])(n4nc(-c5c([H])c([H])c(Oc6c([H])c([H])c(F)c([H])c6F)c([H])c5[H])c(C(=O)N([H])[H])c4N([H])[H])C3([H])[H])C([H])([H])[H])C([H])([H])C([H])(C([H])([H])[H])C([H])([H])[H])c([H])c([H])c2C1([H])[H]

>  <smiles>  (3) 
[H]c1c([H])c([H])c2c(c1[H])C([H])([H])C([H])([H])C([H])([H])C2([H])N([H])C(=O)C1([H])N(C(=O)C([H])(N([H])C(=O)C([H])(N([H])C([H])([H])[H])C([H])([H])[H])C(C([H])([H])[H])(C([H])([H])[H])C([H])([H])[H])C([H])([H])c2c([H])c(OC([H])([H])C([H])([H])N([H])C(=O)C([H])(N([H])C(=O)C([H])(N([H])C(=O)N3C([H])([H])C([H])([H])C([H])([H])C([H])(n4nc(-c5c([H])c([H])c(Oc6c([H])c([H])c(F)c([H])c6F)c([H])c5[H])c(C(=O)N([H])[H])c4N([H])[H])C3([H])[H])C([H])([H])[H])C([H])([H])C([H])(C([H])([H])[H])C([H])([H])[H])c([H])c([H])c2C1([H])[H]

$$$$
3:0:0
     RDKit          3D

107112  0  0  1  0  0  0  0  0999 V2000
  -27.6650  -20.9350   17.8670 C   0  0  0  0  0  3  0  0  0  0  0  0
  -26.6090  -19.2830   19.4460 C   0  0  0  0  0  0  0  0  0  0  0  0
  -27.2460  -19.6130   18.3200 N   0  0  0  0  0  0  0  0  0  0  0  0
  -26.3950  -20.0810   20.3620 O   0  0  0  0  0  0  0  0  0  0  0  0
  -27.3160  -18.8860   17.6120 H   0  0  0  0  0  0  0  0  0  0  0  0
  -24.7450  -15.5110   20.7800 C   0  0  0  0  0  1  0  0  0  0  0  0
  -26.2810  -15.5900   20.7150 C   0  0  0  0  0  1  0  0  0  0  0  0
  -24.0850  -16.3270   19.6570 C   0  0  0  0  0  1  0  0  0  0  0  0
  -26.7730  -17.0490   20.6930 C   0  0  0  0  0  1  0  0  0  0  0  0
  -24.5920  -17.7790   19.6510 C   0  0  0  0  0  2  0  0  0  0  0  0
  -26.1260  -17.8280   19.5300 C   0  0  0  0  0  3  0  0  0  0  0  0
  -27.7010  -20.9070   16.3180 C   0  0  0  0  0  2  0  0  0  0  0  0
  -28.2510  -18.4920   16.0340 C   0  0  0  0  0  0  0  0  0  0  0  0
  -28.4950  -19.7870   15.8060 N   0  0  0  0  0  0  0  0  0  0  0  0
  -27.1900  -18.0880   16.5130 O   0  0  0  0  0  0  0  0  0  0  0  0
  -29.3860  -20.0220   15.3890 H   0  0  0  0  0  0  0  0  0  0  0  0
  -29.3990  -17.5210   15.7730 C   0  0  0  0  0  2  0  0  0  0  0  0
  -30.3470  -17.3990   16.9870 C   0  0  0  0  0  2  0  0  0  0  0  0
  -29.7070  -16.8040   18.2570 C   0  0  0  0  0  2  0  0  0  0  0  0
  -30.6630  -16.8360   19.4630 C   0  0  0  0  0  2  0  0  0  0  0  0
  -29.9870  -16.5760   20.8300 C   0  0  0  0  0  2  0  0  0  0  0  0
  -30.6700  -14.1700   20.8090 C   0  0  0  0  0  0  0  0  0  0  0  0
  -30.7290  -11.8090   20.1280 C   0  0  0  0  0  2  0  0  0  0  0  0
  -29.8780  -11.6260   18.8540 C   0  0  0  0  0  2  0  0  0  0  0  0
  -28.3980  -11.3870   19.2120 C   0  0  0  0  0  2  0  0  0  0  0  0
  -27.8540  -12.4220   20.2320 C   0  0  0  0  0  3  0  0  0  0  0  0
  -28.8210  -12.5730   21.4290 C   0  0  0  0  0  2  0  0  0  0  0  0
  -30.1520  -12.9180   20.8970 N   0  0  0  0  0  0  0  0  0  0  0  0
  -31.7880  -14.4130   20.3460 O   0  0  0  0  0  0  0  0  0  0  0  0
  -29.8160  -15.1530   21.1240 N   0  0  0  0  0  0  0  0  0  0  0  0
  -28.9230  -14.8670   21.5010 H   0  0  0  0  0  0  0  0  0  0  0  0
  -25.4130  -12.9130   20.8890 C   0  0  0  0  0  0  0  0  0  0  0  0
  -24.3730  -12.0850   21.2160 C   0  0  0  0  0  0  0  0  0  0  0  0
  -24.8950  -10.7560   21.1680 C   0  0  0  0  0  0  0  0  0  0  0  0
  -26.5020  -12.0830   20.6680 N   0  0  0  0  0  0  0  0  0  0  0  0
  -26.1920  -10.7820   20.8920 N   0  0  0  0  0  0  0  0  0  0  0  0
  -24.2250   -9.4590   21.3150 C   0  0  0  0  0  0  0  0  0  0  0  0
  -24.6550   -8.5090   22.2670 C   0  0  0  0  0  3  0  0  0  0  0  0
  -23.9850   -7.2740   22.4000 C   0  0  0  0  0  3  0  0  0  0  0  0
  -22.8710   -6.9800   21.5790 C   0  0  0  0  0  0  0  0  0  0  0  0
  -22.4620   -7.9190   20.6150 C   0  0  0  0  0  3  0  0  0  0  0  0
  -23.1320   -9.1450   20.4810 C   0  0  0  0  0  3  0  0  0  0  0  0
  -22.1730   -5.7970   21.6190 O   0  0  0  0  0  0  0  0  0  0  0  0
  -21.8850   -5.1720   22.8070 C   0  0  0  0  0  0  0  0  0  0  0  0
  -21.2730   -5.8580   23.8790 C   0  0  0  0  0  3  0  0  0  0  0  0
  -20.9300   -5.1620   25.0560 C   0  0  0  0  0  3  0  0  0  0  0  0
  -21.1890   -3.7820   25.1590 C   0  0  0  0  0  0  0  0  0  0  0  0
  -21.7930   -3.0970   24.0910 C   0  0  0  0  0  3  0  0  0  0  0  0
  -22.1370   -3.7910   22.9170 C   0  0  0  0  0  0  0  0  0  0  0  0
  -22.7000   -3.1210   21.8820 F   0  0  0  0  0  0  0  0  0  0  0  0
  -20.8540   -3.1100   26.2850 F   0  0  0  0  0  0  0  0  0  0  0  0
  -22.9490  -12.4930   21.4660 C   0  0  0  0  0  0  0  0  0  0  0  0
  -22.2830  -11.8390   22.4090 N   0  0  0  0  0  0  0  0  0  0  0  0
  -22.4340  -13.4280   20.8540 O   0  0  0  0  0  0  0  0  0  0  0  0
  -22.7150  -11.0850   22.9240 H   0  0  0  0  0  0  0  0  0  0  0  0
  -21.3290  -12.0970   22.6230 H   0  0  0  0  0  0  0  0  0  0  0  0
  -25.5210  -14.2910   20.7400 N   0  0  0  0  0  1  0  0  0  0  0  0
  -24.7110  -14.8970   20.8070 H   0  0  0  0  0  0  0  0  0  0  0  0
  -26.3390  -14.7640   20.3820 H   0  0  0  0  0  0  0  0  0  0  0  0
  -29.0200  -21.3900   18.4790 C   0  0  0  0  0  2  0  0  0  0  0  0
  -29.1120  -21.4570   20.0130 C   0  0  0  0  0  2  0  0  0  0  0  0
  -29.1720  -23.8480   20.7090 C   0  0  0  0  0  0  0  0  0  0  0  0
  -28.5400  -22.6800   20.5600 N   0  0  0  0  0  0  0  0  0  0  0  0
  -30.3110  -24.0510   20.2780 O   0  0  0  0  0  0  0  0  0  0  0  0
  -27.5840  -22.6080   20.8970 H   0  0  0  0  0  0  0  0  0  0  0  0
  -28.4200  -24.9310   21.4860 C   0  0  0  0  0  2  0  0  0  0  0  0
  -28.5690  -26.1960   20.8360 O   0  0  0  0  0  0  0  0  0  0  0  0
  -24.8280  -31.6850   23.3210 C   0  0  0  0  0  0  0  0  0  0  0  0
  -27.4160  -26.9280   20.7440 C   0  0  0  0  0  0  0  0  0  0  0  0
  -23.6150  -30.1590   21.7940 C   0  0  0  0  0  3  0  0  0  0  0  0
  -25.0550  -28.4560   20.5600 C   0  0  0  0  0  0  0  0  0  0  0  0
  -26.1500  -30.4450   21.6150 C   0  0  0  0  0  2  0  0  0  0  0  0
  -26.2120  -29.0180   21.1140 C   0  0  0  0  0  0  0  0  0  0  0  0
  -27.3990  -28.2610   21.2000 C   0  0  0  0  0  3  0  0  0  0  0  0
  -26.2460  -26.3690   20.1850 C   0  0  0  0  0  3  0  0  0  0  0  0
  -25.0640  -27.1290   20.0940 C   0  0  0  0  0  3  0  0  0  0  0  0
  -23.8320  -29.3410   20.4940 C   0  0  0  0  0  2  0  0  0  0  0  0
  -24.8810  -30.7810   22.3010 N   0  0  0  0  0  0  0  0  0  0  0  0
  -23.7440  -32.0350   23.8070 O   0  0  0  0  0  0  0  0  0  0  0  0
  -22.9190  -29.2530   22.8340 C   0  0  0  0  0  0  0  0  0  0  0  0
  -21.6320  -28.9510   22.5960 N   0  0  0  0  0  0  0  0  0  0  0  0
  -23.5370  -28.8180   23.8090 O   0  0  0  0  0  0  0  0  0  0  0  0
  -21.1950  -29.3560   21.7800 H   0  0  0  0  0  0  0  0  0  0  0  0
  -18.3230  -27.5310   22.8670 C   0  0  0  0  0  0  0  0  0  0  0  0
  -20.7870  -28.0860   23.4160 C   0  0  0  0  0  3  0  0  0  0  0  0
  -21.0780  -26.5930   23.1360 C   0  0  0  0  0  2  0  0  0  0  0  0
  -20.1630  -25.9910   22.0650 C   0  0  0  0  0  2  0  0  0  0  0  0
  -18.6950  -26.1090   22.4840 C   0  0  0  0  0  2  0  0  0  0  0  0
  -19.3070  -28.4640   23.2890 C   0  0  0  0  0  0  0  0  0  0  0  0
  -18.9120  -29.7840   23.5970 C   0  0  0  0  0  3  0  0  0  0  0  0
  -17.5640  -30.1750   23.4950 C   0  0  0  0  0  3  0  0  0  0  0  0
  -16.5920  -29.2430   23.0930 C   0  0  0  0  0  3  0  0  0  0  0  0
  -16.9720  -27.9240   22.7830 C   0  0  0  0  0  3  0  0  0  0  0  0
  -26.1190  -32.3370   23.9060 C   0  0  0  0  0  3  0  0  0  0  0  0
  -25.7850  -33.7180   24.2790 N   0  0  0  0  0  0  0  0  0  0  0  0
  -26.0540  -34.7950   23.5260 C   0  0  0  0  0  0  0  0  0  0  0  0
  -26.6830  -34.7310   22.4650 O   0  0  0  0  0  0  0  0  0  0  0  0
  -25.2230  -33.8420   25.1070 H   0  0  0  0  0  0  0  0  0  0  0  0
  -24.2530  -36.5320   23.2890 C   0  0  0  0  0  1  0  0  0  0  0  0
  -25.5450  -36.1570   24.0310 C   0  0  0  0  0  3  0  0  0  0  0  0
  -27.6930  -37.0960   24.7660 C   0  0  0  0  0  1  0  0  0  0  0  0
  -26.5360  -37.2470   23.8850 N   0  0  0  0  0  0  0  0  0  0  0  0
  -26.1090  -38.1490   24.0770 H   0  0  0  0  0  0  0  0  0  0  0  0
  -26.7090  -31.5530   25.1410 C   0  0  1  0  0  0  0  0  0  0  0  0
  -25.6520  -31.1820   26.2060 C   0  0  0  0  0  1  0  0  0  0  0  0
  -27.3940  -30.2450   24.6790 C   0  0  0  0  0  1  0  0  0  0  0  0
  -27.8020  -32.4040   25.8300 C   0  0  0  0  0  1  0  0  0  0  0  0
  1 12  1  0
  1  3  1  0
  1 60  1  0
  2 11  1  0
  2  4  2  0
  3  2  1  0
  5  3  1  0
  6 58  1  0
 10  8  1  0
 11 10  1  0
 11  9  1  0
 13 15  2  0
 14 13  1  0
 14 12  1  0
 16 14  1  0
 17 13  1  0
 17 18  1  0
 18 19  1  0
 19 20  1  0
 20 21  1  0
 21 30  1  0
 22 28  1  0
 22 30  1  0
 23 28  1  0
 24 25  1  0
 24 23  1  0
 26 25  1  0
 26 35  1  0
 26 27  1  0
 28 27  1  0
 29 22  2  0
 30 31  1  0
 32 33  2  0
 33 52  1  0
 34 33  1  0
 34 37  1  0
 35 32  1  0
 35 36  1  0
 36 34  2  0
 37 38  1  0
 38 39  2  0
 40 43  1  0
 40 39  1  0
 41 40  2  0
 42 41  1  0
 42 37  2  0
 43 44  1  0
 44 49  2  0
 44 45  1  0
 45 46  2  0
 46 47  1  0
 47 51  1  0
 48 47  2  0
 49 48  1  0
 50 49  1  0
 52 53  1  0
 53 56  1  0
 53 55  1  0
 54 52  2  0
 57 32  1  0
 59  7  1  0
 60 61  1  0
 61 63  1  0
 62 66  1  0
 63 62  1  0
 63 65  1  0
 64 62  2  0
 67 66  1  0
 68 79  2  0
 69 67  1  0
 69 74  1  0
 70 78  1  0
 70 80  1  0
 71 73  1  0
 72 78  1  0
 73 74  2  0
 73 72  1  0
 75 69  2  0
 76 75  1  0
 76 71  2  0
 77 71  1  0
 77 70  1  0
 78 68  1  0
 80 82  2  0
 81 80  1  0
 83 81  1  0
 84 89  1  0
 85 81  1  0
 86 85  1  0
 87 88  1  0
 87 86  1  0
 88 84  1  0
 89 85  1  0
 89 90  2  0
 91 90  1  0
 92 91  2  0
 93 84  2  0
 93 92  1  0
 94 68  1  0
 94 95  1  0
 94104  1  0
 95 98  1  0
 96100  1  0
 96 95  1  0
 97 96  2  0
100 99  1  0
102100  1  0
102103  1  0
102101  1  0
104107  1  1
104105  1  0
106104  1  0
M  ISO  4  22 100  30 100  66 101  67 101
M  END
>  <TORSDO>  (4) 
F 29

>  <SCORE>  (4) 
-1.305

>  <name>  (4) 
3

>  <ligand_id>  (4) 
3

>  <original_smiles>  (4) 
[H]c1c([H])c([H])c2c(c1[H])C([H])([H])C([H])([H])C([H])([H])C2([H])N([H])C(=O)C1([H])N(C(=O)C([H])(N([H])C(=O)C([H])(N([H])C([H])([H])[H])C([H])([H])[H])C(C([H])([H])[H])(C([H])([H])[H])C([H])([H])[H])C([H])([H])c2c([H])c(OC([H])([H])C(=O)N([H])C([H])([H])C([H])([H])C([H])(N([H])C(=O)C3([H])C([H])([H])C([H])([H])C([H])([H])C([H])([H])C3([H])[H])C([H])([H])N([H])C(=O)C([H])([H])C([H])([H])C([H])([H])C([H])([H])C([H])([H])N([H])C(=O)N3C([H])([H])C([H])([H])C([H])([H])C([H])(n4nc(-c5c([H])c([H])c(Oc6c([H])c([H])c(F)c([H])c6F)c([H])c5[H])c(C(=O)N([H])[H])c4N([H])[H])C3([H])[H])c([H])c([H])c2C1([H])[H]

>  <smiles>  (4) 
[H]c1c([H])c([H])c2c(c1[H])C([H])([H])C([H])([H])C([H])([H])C2([H])N([H])C(=O)C1([H])N(C(=O)C([H])(N([H])C(=O)C([H])(N([H])C([H])([H])[H])C([H])([H])[H])C(C([H])([H])[H])(C([H])([H])[H])C([H])([H])[H])C([H])([H])c2c([H])c(OC([H])([H])C(=O)N([H])C([H])([H])C([H])([H])C([H])(N([H])C(=O)C3([H])C([H])([H])C([H])([H])C([H])([H])C([H])([H])C3([H])[H])C([H])([H])N([H])C(=O)C([H])([H])C([H])([H])C([H])([H])C([H])([H])C([H])([H])N([H])C(=O)N3C([H])([H])C([H])([H])C([H])([H])C([H])(n4nc(-c5c([H])c([H])c(Oc6c([H])c([H])c(F)c([H])c6F)c([H])c5[H])c(C(=O)N([H])[H])c4N([H])[H])C3([H])[H])c([H])c([H])c2C1([H])[H]

$$$$
4:0:0
     RDKit          3D

112119  0  0  1  0  0  0  0  0999 V2000
  -31.0780  -18.4850   20.1660 C   0  0  0  0  0  2  0  0  0  0  0  0
  -30.4740  -18.1610   21.4810 N   0  0  0  0  0  4  0  0  0  0  0  0
  -29.9140  -17.3320   21.3720 H   0  0  0  0  0  0  0  0  0  0  0  0
  -29.8550  -18.9210   21.7170 H   0  0  0  0  0  0  0  0  0  0  0  0
  -31.4410  -17.9800   22.5960 C   0  0  0  0  0  3  0  0  0  0  0  0
  -32.4010  -16.7890   22.3470 C   0  0  0  0  0  2  0  0  0  0  0  0
  -32.0600  -14.9070   20.7210 C   0  0  0  0  0  0  0  0  0  0  0  0
  -31.5820  -12.8290   19.4780 C   0  0  0  0  0  2  0  0  0  0  0  0
  -30.6090  -13.0550   18.3080 C   0  0  0  0  0  2  0  0  0  0  0  0
  -29.1460  -12.9850   18.7830 C   0  0  0  0  0  2  0  0  0  0  0  0
  -28.8850  -13.8670   20.0300 C   0  0  0  0  0  3  0  0  0  0  0  0
  -29.9480  -13.5930   21.1150 C   0  0  0  0  0  2  0  0  0  0  0  0
  -31.2850  -13.8110   20.5280 N   0  0  0  0  0  0  0  0  0  0  0  0
  -33.0430  -15.1880   20.0320 O   0  0  0  0  0  0  0  0  0  0  0  0
  -31.7040  -15.6350   21.7860 N   0  0  0  0  0  0  0  0  0  0  0  0
  -30.9350  -15.2600   22.3220 H   0  0  0  0  0  0  0  0  0  0  0  0
  -26.6150  -14.6230   20.9880 C   0  0  0  0  0  0  0  0  0  0  0  0
  -25.4790  -13.9260   21.3010 C   0  0  0  0  0  0  0  0  0  0  0  0
  -25.7660  -12.5560   21.0170 C   0  0  0  0  0  0  0  0  0  0  0  0
  -27.5310  -13.6800   20.5460 N   0  0  0  0  0  0  0  0  0  0  0  0
  -27.0240  -12.4220   20.6150 N   0  0  0  0  0  0  0  0  0  0  0  0
  -24.9000  -11.3710   21.0490 C   0  0  0  0  0  0  0  0  0  0  0  0
  -25.2490  -10.2220   21.7930 C   0  0  0  0  0  3  0  0  0  0  0  0
  -24.3920   -9.1010   21.8230 C   0  0  0  0  0  3  0  0  0  0  0  0
  -23.1700   -9.1230   21.1090 C   0  0  0  0  0  0  0  0  0  0  0  0
  -22.8390  -10.2610   20.3520 C   0  0  0  0  0  3  0  0  0  0  0  0
  -23.6950  -11.3740   20.3190 C   0  0  0  0  0  3  0  0  0  0  0  0
  -22.2870   -8.0710   21.0580 O   0  0  0  0  0  0  0  0  0  0  0  0
  -22.1630   -7.1860   22.0990 C   0  0  0  0  0  0  0  0  0  0  0  0
  -21.8360   -7.6140   23.4050 C   0  0  0  0  0  3  0  0  0  0  0  0
  -21.6490   -6.6640   24.4300 C   0  0  0  0  0  3  0  0  0  0  0  0
  -21.7780   -5.2900   24.1500 C   0  0  0  0  0  0  0  0  0  0  0  0
  -22.0970   -4.8630   22.8490 C   0  0  0  0  0  3  0  0  0  0  0  0
  -22.2860   -5.8090   21.8260 C   0  0  0  0  0  0  0  0  0  0  0  0
  -22.5730   -5.3920   20.5690 F   0  0  0  0  0  0  0  0  0  0  0  0
  -21.5900   -4.3780   25.1310 F   0  0  0  0  0  0  0  0  0  0  0  0
  -24.1670  -14.5060   21.7440 C   0  0  0  0  0  0  0  0  0  0  0  0
  -23.4250  -13.7810   22.5730 N   0  0  0  0  0  0  0  0  0  0  0  0
  -23.8160  -15.6320   21.3950 O   0  0  0  0  0  0  0  0  0  0  0  0
  -23.7220  -12.8650   22.8750 H   0  0  0  0  0  0  0  0  0  0  0  0
  -22.5440  -14.1450   22.9080 H   0  0  0  0  0  0  0  0  0  0  0  0
  -26.9390  -15.9760   21.0260 N   0  0  0  0  0  0  0  0  0  0  0  0
  -26.2370  -16.6790   21.2290 H   0  0  0  0  0  0  0  0  0  0  0  0
  -27.7850  -16.3650   20.6330 H   0  0  0  0  0  0  0  0  0  0  0  0
  -30.7140  -17.8180   23.9590 C   0  0  0  0  0  2  0  0  0  0  0  0
  -30.5650  -19.1220   24.7700 C   0  0  0  0  0  2  0  0  0  0  0  0
  -30.0160  -18.9060   26.1930 C   0  0  0  0  0  2  0  0  0  0  0  0
  -27.8990  -18.0810   27.2430 C   0  0  0  0  0  0  0  0  0  0  0  0
  -26.5870  -17.8960   27.1470 N   0  0  0  0  0  4  0  0  0  0  0  0
  -28.5230  -17.7370   28.3680 N   0  0  0  0  0  0  0  0  0  0  0  0
  -28.5740  -18.6120   26.2130 N   0  0  0  0  0  0  0  0  0  0  0  0
  -26.0410  -17.5040   27.8990 H   0  0  0  0  0  0  0  0  0  0  0  0
  -26.0810  -18.1580   26.3140 H   0  0  0  0  0  0  0  0  0  0  0  0
  -28.0370  -17.3350   29.1550 H   0  0  0  0  0  0  0  0  0  0  0  0
  -29.5180  -17.8690   28.4670 H   0  0  0  0  0  0  0  0  0  0  0  0
  -28.0570  -18.8890   25.3910 H   0  0  0  0  0  0  0  0  0  0  0  0
  -30.0610  -19.0560   19.1480 C   0  0  0  0  0  3  0  0  0  0  0  0
  -28.3480  -17.2590   18.9460 C   0  0  0  0  0  0  0  0  0  0  0  0
  -26.8810  -16.8920   19.1210 C   0  0  0  0  0  1  0  0  0  0  0  0
  -28.7180  -18.4900   19.3190 N   0  0  0  0  0  0  0  0  0  0  0  0
  -29.1400  -16.4340   18.4920 O   0  0  0  0  0  0  0  0  0  0  0  0
  -27.9900  -19.1120   19.6430 H   0  0  0  0  0  0  0  0  0  0  0  0
  -29.9960  -20.5970   19.1970 C   0  0  0  0  0  2  0  0  0  0  0  0
  -29.4450  -21.2440   17.9120 C   0  0  0  0  0  2  0  0  0  0  0  0
  -29.1640  -22.7420   18.1090 C   0  0  0  0  0  2  0  0  0  0  0  0
  -28.8500  -23.5010   16.8030 C   0  0  0  0  0  2  0  0  0  0  0  0
  -27.9750  -24.6810   17.0030 N   0  0  0  0  0  4  0  0  0  0  0  0
  -27.0920  -24.3900   17.3940 H   0  0  0  0  0  0  0  0  0  0  0  0
  -27.7630  -25.0160   16.0760 H   0  0  0  0  0  0  0  0  0  0  0  0
  -28.5340  -25.8430   17.7440 C   0  0  0  0  0  2  0  0  0  0  0  0
  -28.5500  -25.6820   19.2850 C   0  0  0  0  0  2  0  0  0  0  0  0
  -28.4170  -26.9350   19.9590 O   0  0  0  0  0  0  0  0  0  0  0  0
  -24.4700  -31.8930   23.1800 C   0  0  0  0  0  0  0  0  0  0  0  0
  -27.1880  -27.5630   20.0040 C   0  0  0  0  0  0  0  0  0  0  0  0
  -23.2730  -30.4750   21.5460 C   0  0  0  0  0  3  0  0  0  0  0  0
  -24.7430  -28.9850   20.0920 C   0  0  0  0  0  0  0  0  0  0  0  0
  -25.7870  -30.8970   21.3190 C   0  0  0  0  0  2  0  0  0  0  0  0
  -25.8950  -29.5360   20.6670 C   0  0  0  0  0  0  0  0  0  0  0  0
  -27.1150  -28.8290   20.6260 C   0  0  0  0  0  3  0  0  0  0  0  0
  -26.0070  -27.0110   19.4500 C   0  0  0  0  0  3  0  0  0  0  0  0
  -24.7930  -27.7190   19.4910 C   0  0  0  0  0  3  0  0  0  0  0  0
  -23.4780  -29.8110   20.1590 C   0  0  0  0  0  2  0  0  0  0  0  0
  -24.5270  -31.1040   22.0710 N   0  0  0  0  0  0  0  0  0  0  0  0
  -23.3910  -32.1350   23.7400 O   0  0  0  0  0  0  0  0  0  0  0  0
  -22.6650  -29.4270   22.5060 C   0  0  0  0  0  0  0  0  0  0  0  0
  -21.3530  -29.1760   22.3620 N   0  0  0  0  0  0  0  0  0  0  0  0
  -23.3700  -28.8420   23.3330 O   0  0  0  0  0  0  0  0  0  0  0  0
  -20.8450  -29.7020   21.6650 H   0  0  0  0  0  0  0  0  0  0  0  0
  -18.0450  -27.8000   22.8030 C   0  0  0  0  0  0  0  0  0  0  0  0
  -20.5760  -28.2070   23.1310 C   0  0  0  0  0  3  0  0  0  0  0  0
  -20.7740  -26.7740   22.5820 C   0  0  0  0  0  2  0  0  0  0  0  0
  -19.7160  -26.3730   21.5490 C   0  0  0  0  0  2  0  0  0  0  0  0
  -18.3120  -26.4520   22.1550 C   0  0  0  0  0  2  0  0  0  0  0  0
  -19.1070  -28.6310   23.2460 C   0  0  0  0  0  0  0  0  0  0  0  0
  -18.8050  -29.8910   23.8060 C   0  0  0  0  0  3  0  0  0  0  0  0
  -17.4710  -30.3250   23.9260 C   0  0  0  0  0  3  0  0  0  0  0  0
  -16.4220  -29.4920   23.5000 C   0  0  0  0  0  3  0  0  0  0  0  0
  -16.7090  -28.2310   22.9470 C   0  0  0  0  0  3  0  0  0  0  0  0
  -25.7520  -32.5480   23.7840 C   0  0  0  0  0  3  0  0  0  0  0  0
  -25.4280  -33.9460   24.0900 N   0  0  0  0  0  0  0  0  0  0  0  0
  -25.7640  -34.9910   23.3190 C   0  0  0  0  0  0  0  0  0  0  0  0
  -26.4520  -34.8760   22.3020 O   0  0  0  0  0  0  0  0  0  0  0  0
  -24.8160  -34.1090   24.8740 H   0  0  0  0  0  0  0  0  0  0  0  0
  -24.0370  -36.7690   22.8940 C   0  0  0  0  0  1  0  0  0  0  0  0
  -25.2540  -36.3790   23.7480 C   0  0  0  0  0  3  0  0  0  0  0  0
  -27.3630  -37.2800   24.6270 C   0  0  0  0  0  1  0  0  0  0  0  0
  -26.2840  -37.4370   23.6560 N   0  0  0  0  0  0  0  0  0  0  0  0
  -25.8690  -38.3570   23.7860 H   0  0  0  0  0  0  0  0  0  0  0  0
  -26.2880  -31.8040   25.0690 C   0  0  1  0  0  0  0  0  0  0  0  0
  -25.1990  -31.5530   26.1380 C   0  0  0  0  0  1  0  0  0  0  0  0
  -26.9110  -30.4370   24.6970 C   0  0  0  0  0  1  0  0  0  0  0  0
  -27.4130  -32.6380   25.7260 C   0  0  0  0  0  1  0  0  0  0  0  0
  1  2  1  0
  2  4  1  0
  2  5  1  0
  3  2  1  0
  5  6  1  0
  5 45  1  0
  7 15  1  0
  8 13  1  0
  9 10  1  0
  9  8  1  0
 11 10  1  0
 11 20  1  0
 11 12  1  0
 13  7  1  0
 13 12  1  0
 14  7  2  0
 15 16  1  0
 15  6  1  0
 17 42  1  0
 17 18  2  0
 18 37  1  0
 19 22  1  0
 19 18  1  0
 20 21  1  0
 20 17  1  0
 21 19  2  0
 22 23  1  0
 23 24  2  0
 25 24  1  0
 26 25  2  0
 27 26  1  0
 27 22  2  0
 28 25  1  0
 28 29  1  0
 29 30  1  0
 30 31  2  0
 32 31  1  0
 32 36  1  0
 33 32  2  0
 34 29  2  0
 34 33  1  0
 35 34  1  0
 37 38  1  0
 38 40  1  0
 38 41  1  0
 39 37  2  0
 42 43  1  0
 44 42  1  0
 45 46  1  0
 46 47  1  0
 47 51  1  0
 48 50  1  0
 49 48  2  0
 49 52  1  0
 50 55  1  0
 50 54  1  0
 51 48  1  0
 53 49  1  0
 56 51  1  0
 57 63  1  0
 57 60  1  0
 57  1  1  0
 58 59  1  0
 58 60  1  0
 60 62  1  0
 61 58  2  0
 64 65  1  0
 64 63  1  0
 66 67  1  0
 66 65  1  0
 67 68  1  0
 67 70  1  0
 69 67  1  0
 70 71  1  0
 71 72  1  0
 72 74  1  0
 73 84  2  0
 74 79  1  0
 75 83  1  0
 75 85  1  0
 76 82  1  0
 76 78  1  0
 77 83  1  0
 78 77  1  0
 79 78  2  0
 80 81  1  0
 80 74  2  0
 81 76  2  0
 82 75  1  0
 83 73  1  0
 85 87  2  0
 86 85  1  0
 88 86  1  0
 89 98  2  0
 89 94  1  0
 90 86  1  0
 90 94  1  0
 91 90  1  0
 92 93  1  0
 92 91  1  0
 93 89  1  0
 94 95  2  0
 95 96  1  0
 97 96  2  0
 98 97  1  0
 99 73  1  0
 99100  1  0
 99109  1  0
100103  1  0
101105  1  0
101100  1  0
102101  2  0
105104  1  0
107105  1  0
107108  1  0
107106  1  0
109112  1  1
109110  1  0
111109  1  0
M  ISO  4   7 100  15 100  71 101  72 101
M  END
>  <TORSDO>  (5) 
F 32

>  <SCORE>  (5) 
5.997

>  <name>  (5) 
4

>  <ligand_id>  (5) 
4

>  <original_smiles>  (5) 
[H]c1c([H])c([H])c2c(c1[H])C([H])([H])C([H])([H])C([H])([H])C2([H])N([H])C(=O)C1([H])N(C(=O)C([H])(N([H])C(=O)C([H])(N([H])C([H])([H])[H])C([H])([H])[H])C(C([H])([H])[H])(C([H])([H])[H])C([H])([H])[H])C([H])([H])c2c([H])c(OC([H])([H])C([H])([H])[N+]([H])([H])C([H])([H])C([H])([H])C([H])([H])C([H])([H])C([H])(N([H])C(=O)C([H])([H])[H])C([H])([H])[N+]([H])([H])C([H])(C([H])([H])N([H])C(=O)N3C([H])([H])C([H])([H])C([H])([H])C([H])(n4nc(-c5c([H])c([H])c(Oc6c([H])c([H])c(F)c([H])c6F)c([H])c5[H])c(C(=O)N([H])[H])c4N([H])[H])C3([H])[H])C([H])([H])C([H])([H])C([H])([H])N([H])C(N([H])[H])=[N+]([H])[H])c([H])c([H])c2C1([H])[H]

>  <smiles>  (5) 
[H]c1c([H])c([H])c2c(c1[H])C([H])([H])C([H])([H])C([H])([H])C2([H])N([H])C(=O)C1([H])N(C(=O)C([H])(N([H])C(=O)C([H])(N([H])C([H])([H])[H])C([H])([H])[H])C(C([H])([H])[H])(C([H])([H])[H])C([H])([H])[H])C([H])([H])c2c([H])c(OC([H])([H])C([H])([H])[N+]([H])([H])C([H])([H])C([H])([H])C([H])([H])C([H])([H])C([H])(N([H])C(=O)C([H])([H])[H])C([H])([H])[N+]([H])([H])C([H])(C([H])([H])N([H])C(=O)N3C([H])([H])C([H])([H])C([H])([H])C([H])(n4nc(-c5c([H])c([H])c(Oc6c([H])c([H])c(F)c([H])c6F)c([H])c5[H])c(C(=O)N([H])[H])c4N([H])[H])C3([H])[H])C([H])([H])C([H])([H])C([H])([H])N([H])C(N([H])[H])=[N+]([H])[H])c([H])c([H])c2C1([H])[H]

$$$$
5:0:0
     RDKit          3D

 87 94  0  0  1  0  0  0  0  0999 V2000
  -29.5180  -20.6770   20.4400 C   0  0  0  0  0  0  0  0  0  0  0  0
  -28.6900  -21.8310   20.3180 N   0  0  0  0  0  0  0  0  0  0  0  0
  -30.7210  -20.8720   20.6110 O   0  0  0  0  0  0  0  0  0  0  0  0
  -27.7090  -21.6290   20.1700 H   0  0  0  0  0  0  0  0  0  0  0  0
  -29.0570  -19.0770   20.3940 C   0  0  0  0  0  3  0  0  0  0  0  0
  -30.1170  -17.7490   20.4550 C   0  0  0  0  0  3  0  0  0  0  0  0
  -30.4940  -15.0150   20.3560 C   0  0  0  0  0  0  0  0  0  0  0  0
  -30.3730  -12.6720   19.3940 C   0  0  0  0  0  2  0  0  0  0  0  0
  -29.4420  -12.6350   18.1600 C   0  0  0  0  0  2  0  0  0  0  0  0
  -27.9790  -12.4180   18.5910 C   0  0  0  0  0  2  0  0  0  0  0  0
  -27.5680  -13.3310   19.7770 C   0  0  0  0  0  3  0  0  0  0  0  0
  -28.6240  -13.3390   20.9020 C   0  0  0  0  0  2  0  0  0  0  0  0
  -29.8920  -13.7590   20.2940 N   0  0  0  0  0  0  0  0  0  0  0  0
  -31.6980  -15.0750   20.0830 O   0  0  0  0  0  0  0  0  0  0  0  0
  -29.7290  -16.2080   20.5140 N   0  0  0  0  0  0  0  0  0  0  0  0
  -28.7500  -16.0310   20.6840 H   0  0  0  0  0  0  0  0  0  0  0  0
  -25.1840  -13.8910   20.5140 C   0  0  0  0  0  0  0  0  0  0  0  0
  -24.1240  -13.1070   20.8790 C   0  0  0  0  0  0  0  0  0  0  0  0
  -24.5970  -11.7600   20.8440 C   0  0  0  0  0  0  0  0  0  0  0  0
  -26.2330  -13.0200   20.2720 N   0  0  0  0  0  0  0  0  0  0  0  0
  -25.8900  -11.7330   20.5380 N   0  0  0  0  0  0  0  0  0  0  0  0
  -23.8780  -10.4910   21.0270 C   0  0  0  0  0  0  0  0  0  0  0  0
  -24.2990   -9.5320   21.9740 C   0  0  0  0  0  3  0  0  0  0  0  0
  -23.5780   -8.3300   22.1440 C   0  0  0  0  0  3  0  0  0  0  0  0
  -22.4220   -8.0800   21.3690 C   0  0  0  0  0  0  0  0  0  0  0  0
  -22.0200   -9.0290   20.4110 C   0  0  0  0  0  3  0  0  0  0  0  0
  -22.7420  -10.2210   20.2390 C   0  0  0  0  0  3  0  0  0  0  0  0
  -21.6730   -6.9300   21.4480 O   0  0  0  0  0  0  0  0  0  0  0  0
  -21.5920   -6.2040   22.6090 C   0  0  0  0  0  0  0  0  0  0  0  0
  -21.0880   -6.7620   23.8030 C   0  0  0  0  0  3  0  0  0  0  0  0
  -20.9560   -5.9600   24.9540 C   0  0  0  0  0  3  0  0  0  0  0  0
  -21.3170   -4.6010   24.9110 C   0  0  0  0  0  0  0  0  0  0  0  0
  -21.8140   -4.0410   23.7200 C   0  0  0  0  0  3  0  0  0  0  0  0
  -21.9470   -4.8400   22.5720 C   0  0  0  0  0  0  0  0  0  0  0  0
  -22.4060   -4.2910   21.4220 F   0  0  0  0  0  0  0  0  0  0  0  0
  -21.1840   -3.8280   26.0150 F   0  0  0  0  0  0  0  0  0  0  0  0
  -22.7220  -13.5750   21.1440 C   0  0  0  0  0  0  0  0  0  0  0  0
  -21.9960  -12.8730   22.0070 N   0  0  0  0  0  0  0  0  0  0  0  0
  -22.2810  -14.5970   20.6220 O   0  0  0  0  0  0  0  0  0  0  0  0
  -22.3660  -12.0460   22.4510 H   0  0  0  0  0  0  0  0  0  0  0  0
  -21.0550  -13.1690   22.2280 H   0  0  0  0  0  0  0  0  0  0  0  0
  -25.3370  -15.2630   20.3400 N   0  0  0  0  0  0  0  0  0  0  0  0
  -24.5600  -15.9060   20.4450 H   0  0  0  0  0  0  0  0  0  0  0  0
  -26.1690  -15.7080   19.9750 H   0  0  0  0  0  0  0  0  0  0  0  0
  -29.0290  -23.3820   20.4160 C   0  0  0  0  0  3  0  0  0  0  0  0
  -27.9630  -24.6690   20.1410 C   0  0  0  0  0  3  0  0  0  0  0  0
  -28.2330  -26.2020   20.3050 O   0  0  0  0  0  0  0  0  0  0  0  0
  -24.6270  -31.9210   23.2680 C   0  0  0  0  0  0  0  0  0  0  0  0
  -27.1820  -27.1920   20.2370 C   0  0  0  0  0  0  0  0  0  0  0  0
  -23.4220  -30.5340   21.6260 C   0  0  0  0  0  3  0  0  0  0  0  0
  -24.8630  -28.9530   20.2010 C   0  0  0  0  0  0  0  0  0  0  0  0
  -25.9780  -30.7850   21.4650 C   0  0  0  0  0  2  0  0  0  0  0  0
  -26.0440  -29.3920   20.8100 C   0  0  0  0  0  0  0  0  0  0  0  0
  -27.2050  -28.5280   20.8090 C   0  0  0  0  0  3  0  0  0  0  0  0
  -25.9720  -26.8550   19.5890 C   0  0  0  0  0  3  0  0  0  0  0  0
  -24.8400  -27.6980   19.5740 C   0  0  0  0  0  3  0  0  0  0  0  0
  -23.6410  -29.8570   20.2470 C   0  0  0  0  0  2  0  0  0  0  0  0
  -24.6960  -31.1010   22.1750 N   0  0  0  0  0  0  0  0  0  0  0  0
  -23.5410  -32.2110   23.7940 O   0  0  0  0  0  0  0  0  0  0  0  0
  -22.7350  -29.5300   22.5850 C   0  0  0  0  0  0  0  0  0  0  0  0
  -21.4070  -29.3610   22.4510 N   0  0  0  0  0  0  0  0  0  0  0  0
  -23.4000  -28.9050   23.4160 O   0  0  0  0  0  0  0  0  0  0  0  0
  -20.9280  -29.9160   21.7570 H   0  0  0  0  0  0  0  0  0  0  0  0
  -18.0210  -28.1710   22.9390 C   0  0  0  0  0  0  0  0  0  0  0  0
  -20.5790  -28.4270   23.2190 C   0  0  0  0  0  3  0  0  0  0  0  0
  -20.6800  -26.9940   22.6470 C   0  0  0  0  0  2  0  0  0  0  0  0
  -19.5820  -26.6720   21.6280 C   0  0  0  0  0  2  0  0  0  0  0  0
  -18.1970  -26.8200   22.2650 C   0  0  0  0  0  2  0  0  0  0  0  0
  -19.1380  -28.9320   23.3730 C   0  0  0  0  0  0  0  0  0  0  0  0
  -18.9180  -30.1940   23.9650 C   0  0  0  0  0  3  0  0  0  0  0  0
  -17.6120  -30.6960   24.1260 C   0  0  0  0  0  3  0  0  0  0  0  0
  -16.5100  -29.9340   23.7070 C   0  0  0  0  0  3  0  0  0  0  0  0
  -16.7140  -28.6720   23.1200 C   0  0  0  0  0  3  0  0  0  0  0  0
  -25.9060  -32.5490   23.8980 C   0  0  0  0  0  3  0  0  0  0  0  0
  -26.4050  -31.7810   25.1850 C   0  0  1  0  0  0  0  0  0  0  0  0
  -25.3000  -31.5580   26.2440 C   0  0  0  0  0  1  0  0  0  0  0  0
  -26.9810  -30.3970   24.8110 C   0  0  0  0  0  1  0  0  0  0  0  0
  -27.5540  -32.5710   25.8530 C   0  0  0  0  0  1  0  0  0  0  0  0
  -25.6030  -33.9510   24.2250 N   0  0  0  0  0  0  0  0  0  0  0  0
  -25.9210  -35.0010   23.4550 C   0  0  0  0  0  0  0  0  0  0  0  0
  -26.5650  -34.8910   22.4090 O   0  0  0  0  0  0  0  0  0  0  0  0
  -25.0270  -34.1110   25.0380 H   0  0  0  0  0  0  0  0  0  0  0  0
  -24.1770  -36.7920   23.1520 C   0  0  0  0  0  1  0  0  0  0  0  0
  -25.4500  -36.3950   23.9180 C   0  0  0  0  0  3  0  0  0  0  0  0
  -27.6090  -37.2980   24.6640 C   0  0  0  0  0  1  0  0  0  0  0  0
  -26.4750  -37.4480   23.7550 N   0  0  0  0  0  0  0  0  0  0  0  0
  -26.0720  -38.3700   23.9000 H   0  0  0  0  0  0  0  0  0  0  0  0
  1  3  2  0
  2 45  1  0
  2  1  1  0
  4  2  1  0
  5  1  1  0
  5  6  2  0
  6 15  1  0
  7 15  1  0
  8 13  1  0
  9 10  1  0
  9  8  1  0
 11 10  1  0
 11 20  1  0
 11 12  1  0
 13  7  1  0
 13 12  1  0
 14  7  2  0
 15 16  1  0
 17 18  2  0
 18 37  1  0
 19 18  1  0
 19 22  1  0
 20 17  1  0
 20 21  1  0
 21 19  2  0
 22 23  1  0
 23 24  2  0
 25 28  1  0
 25 24  1  0
 26 25  2  0
 27 26  1  0
 27 22  2  0
 28 29  1  0
 29 30  1  0
 30 31  2  0
 32 31  1  0
 32 36  1  0
 33 32  2  0
 34 29  2  0
 34 33  1  0
 35 34  1  0
 37 38  1  0
 38 41  1  0
 38 40  1  0
 39 37  2  0
 42 43  1  0
 42 17  1  0
 44 42  1  0
 46 47  1  0
 46 45  2  0
 48 59  2  0
 49 47  1  0
 49 54  1  0
 50 58  1  0
 50 60  1  0
 51 57  1  0
 51 53  1  0
 52 58  1  0
 53 52  1  0
 54 53  2  0
 55 49  2  0
 56 55  1  0
 56 51  2  0
 57 50  1  0
 58 48  1  0
 60 62  2  0
 61 60  1  0
 63 61  1  0
 64 73  2  0
 64 69  1  0
 65 61  1  0
 65 69  1  0
 66 65  1  0
 67 68  1  0
 67 66  1  0
 68 64  1  0
 69 70  2  0
 70 71  1  0
 72 71  2  0
 73 72  1  0
 74 48  1  0
 74 79  1  0
 74 75  1  0
 75 78  1  1
 75 76  1  0
 77 75  1  0
 79 82  1  0
 80 84  1  0
 80 79  1  0
 81 80  2  0
 84 83  1  0
 86 87  1  0
 86 84  1  0
 86 85  1  0
M  ISO  4   7 100  15 100  46 101  47 101
M  END
>  <TORSDO>  (6) 
F 20

>  <SCORE>  (6) 
-14.390

>  <name>  (6) 
5

>  <ligand_id>  (6) 
5

>  <original_smiles>  (6) 
[H]c1c([H])c([H])c2c(c1[H])C([H])([H])C([H])([H])C([H])([H])C2([H])N([H])C(=O)C1([H])N(C(=O)C([H])(N([H])C(=O)C([H])(N([H])C([H])([H])[H])C([H])([H])[H])C(C([H])([H])[H])(C([H])([H])[H])C([H])([H])[H])C([H])([H])c2c([H])c(OC([H])([H])C([H])([H])N([H])C(=O)C([H])([H])C([H])([H])N([H])C(=O)N3C([H])([H])C([H])([H])C([H])([H])C([H])(n4nc(-c5c([H])c([H])c(Oc6c([H])c([H])c(F)c([H])c6F)c([H])c5[H])c(C(=O)N([H])[H])c4N([H])[H])C3([H])[H])c([H])c([H])c2C1([H])[H]

>  <smiles>  (6) 
[H]c1c([H])c([H])c2c(c1[H])C([H])([H])C([H])([H])C([H])([H])C2([H])N([H])C(=O)C1([H])N(C(=O)C([H])(N([H])C(=O)C([H])(N([H])C([H])([H])[H])C([H])([H])[H])C(C([H])([H])[H])(C([H])([H])[H])C([H])([H])[H])C([H])([H])c2c([H])c(OC([H])([H])C([H])([H])N([H])C(=O)C([H])([H])C([H])([H])N([H])C(=O)N3C([H])([H])C([H])([H])C([H])([H])C([H])(n4nc(-c5c([H])c([H])c(Oc6c([H])c([H])c(F)c([H])c6F)c([H])c5[H])c(C(=O)N([H])[H])c4N([H])[H])C3([H])[H])c([H])c([H])c2C1([H])[H]

$$$$
6:0:0
     RDKit          3D

 92 99  0  0  1  0  0  0  0  0999 V2000
  -28.4940  -21.7960   20.1920 C   0  0  0  0  0  0  0  0  0  0  0  0
  -28.6980  -22.8720   19.3960 N   0  0  0  0  0  0  0  0  0  0  0  0
  -27.9000  -21.8850   21.2680 O   0  0  0  0  0  0  0  0  0  0  0  0
  -29.2540  -22.6940   18.5690 H   0  0  0  0  0  0  0  0  0  0  0  0
  -28.9410  -20.3980   19.6730 C   0  0  0  0  0  2  0  0  0  0  0  0
  -29.2670  -19.3870   20.7310 N   0  0  0  0  0  4  0  0  0  0  0  0
  -30.2640  -19.3790   20.8970 H   0  0  0  0  0  0  0  0  0  0  0  0
  -28.8270  -19.7000   21.5820 H   0  0  0  0  0  0  0  0  0  0  0  0
  -28.8760  -17.9590   20.4790 C   0  0  0  0  0  2  0  0  0  0  0  0
  -30.6160  -14.5740   20.4200 C   0  0  0  0  0  0  0  0  0  0  0  0
  -30.3740  -12.3650   19.3370 C   0  0  0  0  0  2  0  0  0  0  0  0
  -29.4310  -12.5250   18.1270 C   0  0  0  0  0  2  0  0  0  0  0  0
  -27.9570  -12.3730   18.5550 C   0  0  0  0  0  2  0  0  0  0  0  0
  -27.6050  -13.2310   19.8000 C   0  0  0  0  0  3  0  0  0  0  0  0
  -28.6620  -13.0570   20.9140 C   0  0  0  0  0  2  0  0  0  0  0  0
  -29.9760  -13.3720   20.3350 N   0  0  0  0  0  0  0  0  0  0  0  0
  -31.7980  -14.6980   20.0840 O   0  0  0  0  0  0  0  0  0  0  0  0
  -30.0630  -16.9740   20.6360 C   0  0  0  0  0  0  0  0  0  0  0  0
  -29.7910  -15.6360   20.6410 N   0  0  0  0  0  0  0  0  0  0  0  0
  -31.1980  -17.4530   20.7300 O   0  0  0  0  0  0  0  0  0  0  0  0
  -28.8190  -15.3910   20.7240 H   0  0  0  0  0  0  0  0  0  0  0  0
  -25.2100  -13.8450   20.5090 C   0  0  0  0  0  0  0  0  0  0  0  0
  -24.1430  -13.0760   20.8840 C   0  0  0  0  0  0  0  0  0  0  0  0
  -24.6020  -11.7230   20.8630 C   0  0  0  0  0  0  0  0  0  0  0  0
  -26.2540  -12.9590   20.2830 N   0  0  0  0  0  0  0  0  0  0  0  0
  -25.8930  -11.6810   20.5560 N   0  0  0  0  0  0  0  0  0  0  0  0
  -23.8740  -10.4640   21.0580 C   0  0  0  0  0  0  0  0  0  0  0  0
  -24.3170   -9.4930   21.9840 C   0  0  0  0  0  3  0  0  0  0  0  0
  -23.5910   -8.2960   22.1680 C   0  0  0  0  0  3  0  0  0  0  0  0
  -22.4090   -8.0630   21.4260 C   0  0  0  0  0  0  0  0  0  0  0  0
  -21.9850   -9.0220   20.4910 C   0  0  0  0  0  3  0  0  0  0  0  0
  -22.7110  -10.2100   20.3040 C   0  0  0  0  0  3  0  0  0  0  0  0
  -21.6550   -6.9180   21.5200 O   0  0  0  0  0  0  0  0  0  0  0  0
  -21.6310   -6.1630   22.6640 C   0  0  0  0  0  0  0  0  0  0  0  0
  -21.2490   -6.7080   23.9090 C   0  0  0  0  0  3  0  0  0  0  0  0
  -21.1730   -5.8790   25.0470 C   0  0  0  0  0  3  0  0  0  0  0  0
  -21.4690   -4.5080   24.9410 C   0  0  0  0  0  0  0  0  0  0  0  0
  -21.8450   -3.9620   23.7000 C   0  0  0  0  0  3  0  0  0  0  0  0
  -21.9230   -4.7880   22.5660 C   0  0  0  0  0  0  0  0  0  0  0  0
  -22.2650   -4.2530   21.3680 F   0  0  0  0  0  0  0  0  0  0  0  0
  -21.3880   -3.7100   26.0310 F   0  0  0  0  0  0  0  0  0  0  0  0
  -22.7450  -13.5560   21.1500 C   0  0  0  0  0  0  0  0  0  0  0  0
  -22.0160  -12.8660   22.0180 N   0  0  0  0  0  0  0  0  0  0  0  0
  -22.3090  -14.5790   20.6220 O   0  0  0  0  0  0  0  0  0  0  0  0
  -22.3820  -12.0360   22.4630 H   0  0  0  0  0  0  0  0  0  0  0  0
  -21.0790  -13.1710   22.2430 H   0  0  0  0  0  0  0  0  0  0  0  0
  -25.3770  -15.2130   20.3110 N   0  0  0  0  0  0  0  0  0  0  0  0
  -24.5900  -15.8490   20.3630 H   0  0  0  0  0  0  0  0  0  0  0  0
  -26.1740  -15.6130   19.8350 H   0  0  0  0  0  0  0  0  0  0  0  0
  -28.0190  -24.1970   19.3890 C   0  0  0  0  0  2  0  0  0  0  0  0
  -28.3750  -25.2340   20.5040 C   0  0  0  0  0  2  0  0  0  0  0  0
  -28.3900  -26.6440   20.1280 O   0  0  0  0  0  0  0  0  0  0  0  0
  -24.6030  -31.8790   23.2440 C   0  0  0  0  0  0  0  0  0  0  0  0
  -27.2170  -27.3860   20.1620 C   0  0  0  0  0  0  0  0  0  0  0  0
  -23.3890  -30.4800   21.6070 C   0  0  0  0  0  3  0  0  0  0  0  0
  -24.8340  -28.9320   20.1790 C   0  0  0  0  0  0  0  0  0  0  0  0
  -25.9190  -30.8220   21.4020 C   0  0  0  0  0  2  0  0  0  0  0  0
  -25.9990  -29.4450   20.7610 C   0  0  0  0  0  0  0  0  0  0  0  0
  -27.1950  -28.6830   20.7390 C   0  0  0  0  0  3  0  0  0  0  0  0
  -26.0310  -26.9000   19.5750 C   0  0  0  0  0  3  0  0  0  0  0  0
  -24.8460  -27.6610   19.5810 C   0  0  0  0  0  3  0  0  0  0  0  0
  -23.5940  -29.7990   20.2270 C   0  0  0  0  0  2  0  0  0  0  0  0
  -24.6560  -31.0760   22.1420 N   0  0  0  0  0  0  0  0  0  0  0  0
  -23.5240  -32.1520   23.7880 O   0  0  0  0  0  0  0  0  0  0  0  0
  -22.7380  -29.4600   22.5700 C   0  0  0  0  0  0  0  0  0  0  0  0
  -21.4120  -29.2790   22.4470 N   0  0  0  0  0  0  0  0  0  0  0  0
  -23.4230  -28.8340   23.3840 O   0  0  0  0  0  0  0  0  0  0  0  0
  -20.9210  -29.8340   21.7620 H   0  0  0  0  0  0  0  0  0  0  0  0
  -18.0410  -28.0740   22.9450 C   0  0  0  0  0  0  0  0  0  0  0  0
  -20.5980  -28.3400   23.2190 C   0  0  0  0  0  3  0  0  0  0  0  0
  -20.7050  -26.9070   22.6460 C   0  0  0  0  0  2  0  0  0  0  0  0
  -19.6050  -26.5790   21.6320 C   0  0  0  0  0  2  0  0  0  0  0  0
  -18.2220  -26.7240   22.2740 C   0  0  0  0  0  2  0  0  0  0  0  0
  -19.1570  -28.8400   23.3750 C   0  0  0  0  0  0  0  0  0  0  0  0
  -18.9360  -30.1040   23.9620 C   0  0  0  0  0  3  0  0  0  0  0  0
  -17.6290  -30.6040   24.1250 C   0  0  0  0  0  3  0  0  0  0  0  0
  -16.5270  -29.8350   23.7120 C   0  0  0  0  0  3  0  0  0  0  0  0
  -16.7340  -28.5720   23.1280 C   0  0  0  0  0  3  0  0  0  0  0  0
  -25.8910  -32.5090   23.8590 C   0  0  0  0  0  3  0  0  0  0  0  0
  -25.5860  -33.9060   24.1930 N   0  0  0  0  0  0  0  0  0  0  0  0
  -25.9120  -34.9590   23.4320 C   0  0  0  0  0  0  0  0  0  0  0  0
  -26.5750  -34.8570   22.3960 O   0  0  0  0  0  0  0  0  0  0  0  0
  -25.0040  -34.0620   25.0030 H   0  0  0  0  0  0  0  0  0  0  0  0
  -24.1790  -36.7490   23.0930 C   0  0  0  0  0  1  0  0  0  0  0  0
  -25.4280  -36.3470   23.8930 C   0  0  0  0  0  3  0  0  0  0  0  0
  -27.5700  -37.2310   24.7050 C   0  0  0  0  0  1  0  0  0  0  0  0
  -26.4590  -37.4010   23.7730 N   0  0  0  0  0  0  0  0  0  0  0  0
  -26.0540  -38.3200   23.9290 H   0  0  0  0  0  0  0  0  0  0  0  0
  -26.4150  -31.7350   25.1310 C   0  0  1  0  0  0  0  0  0  0  0  0
  -25.3290  -31.4990   26.2060 C   0  0  0  0  0  1  0  0  0  0  0  0
  -26.9920  -30.3580   24.7310 C   0  0  0  0  0  1  0  0  0  0  0  0
  -27.5720  -32.5270   25.7870 C   0  0  0  0  0  1  0  0  0  0  0  0
  1  3  2  0
  2  1  1  0
  4  2  1  0
  5  1  1  0
  5  6  1  0
  6  7  1  0
  6  8  1  0
  9 18  1  0
  9  6  1  0
 10 19  1  0
 11 16  1  0
 12 13  1  0
 12 11  1  0
 14 13  1  0
 14 25  1  0
 14 15  1  0
 16 10  1  0
 16 15  1  0
 17 10  2  0
 18 19  1  0
 18 20  2  0
 19 21  1  0
 22 23  2  0
 23 42  1  0
 24 23  1  0
 24 27  1  0
 25 22  1  0
 25 26  1  0
 26 24  2  0
 27 28  1  0
 28 29  2  0
 30 33  1  0
 30 29  1  0
 31 30  2  0
 32 31  1  0
 32 27  2  0
 33 34  1  0
 34 35  1  0
 35 36  2  0
 37 36  1  0
 37 41  1  0
 38 37  2  0
 39 34  2  0
 39 38  1  0
 40 39  1  0
 42 43  1  0
 43 46  1  0
 43 45  1  0
 44 42  2  0
 47 48  1  0
 47 22  1  0
 49 47  1  0
 50  2  1  0
 50 51  1  0
 52 54  1  0
 52 51  1  0
 53 64  2  0
 54 59  1  0
 55 63  1  0
 55 65  1  0
 56 62  1  0
 56 58  1  0
 57 63  1  0
 58 57  1  0
 59 58  2  0
 60 61  1  0
 60 54  2  0
 61 56  2  0
 62 55  1  0
 63 53  1  0
 65 67  2  0
 66 65  1  0
 68 66  1  0
 69 78  2  0
 69 74  1  0
 70 66  1  0
 70 74  1  0
 71 70  1  0
 72 73  1  0
 72 71  1  0
 73 69  1  0
 74 75  2  0
 75 76  1  0
 77 76  2  0
 78 77  1  0
 79 53  1  0
 79 80  1  0
 79 89  1  0
 80 83  1  0
 81 85  1  0
 81 80  1  0
 82 81  2  0
 85 84  1  0
 87 85  1  0
 87 88  1  0
 87 86  1  0
 89 92  1  1
 89 90  1  0
 91 89  1  0
M  ISO  4  10 100  19 100  51 101  52 101
M  END
>  <TORSDO>  (7) 
F 21

>  <SCORE>  (7) 
-13.588

>  <name>  (7) 
6

>  <ligand_id>  (7) 
6

>  <original_smiles>  (7) 
[H]c1c([H])c([H])c2c(c1[H])C([H])([H])C([H])([H])C([H])([H])C2([H])N([H])C(=O)C1([H])N(C(=O)C([H])(N([H])C(=O)C([H])(N([H])C([H])([H])[H])C([H])([H])[H])C(C([H])([H])[H])(C([H])([H])[H])C([H])([H])[H])C([H])([H])c2c([H])c(OC([H])([H])C([H])([H])N([H])C(=O)C([H])([H])[N+]([H])([H])C([H])([H])C(=O)N([H])C(=O)N3C([H])([H])C([H])([H])C([H])([H])C([H])(n4nc(-c5c([H])c([H])c(Oc6c([H])c([H])c(F)c([H])c6F)c([H])c5[H])c(C(=O)N([H])[H])c4N([H])[H])C3([H])[H])c([H])c([H])c2C1([H])[H]

>  <smiles>  (7) 
[H]c1c([H])c([H])c2c(c1[H])C([H])([H])C([H])([H])C([H])([H])C2([H])N([H])C(=O)C1([H])N(C(=O)C([H])(N([H])C(=O)C([H])(N([H])C([H])([H])[H])C([H])([H])[H])C(C([H])([H])[H])(C([H])([H])[H])C([H])([H])[H])C([H])([H])c2c([H])c(OC([H])([H])C([H])([H])N([H])C(=O)C([H])([H])[N+]([H])([H])C([H])([H])C(=O)N([H])C(=O)N3C([H])([H])C([H])([H])C([H])([H])C([H])(n4nc(-c5c([H])c([H])c(Oc6c([H])c([H])c(F)c([H])c6F)c([H])c5[H])c(C(=O)N([H])[H])c4N([H])[H])C3([H])[H])c([H])c([H])c2C1([H])[H]

$$$$
7:0:0
     RDKit          3D

 96103  0  0  1  0  0  0  0  0999 V2000
  -29.7800  -21.7620   20.5180 C   0  0  0  0  0  3  0  0  0  0  0  0
  -29.0350  -20.3910   20.5610 C   0  0  0  0  0  0  0  0  0  0  0  0
  -29.7480  -19.2470   20.4760 N   0  0  0  0  0  0  0  0  0  0  0  0
  -27.8050  -20.3850   20.6690 O   0  0  0  0  0  0  0  0  0  0  0  0
  -30.7500  -19.3380   20.3710 H   0  0  0  0  0  0  0  0  0  0  0  0
  -29.2160  -17.8720   20.5160 C   0  0  0  0  0  2  0  0  0  0  0  0
  -30.2530  -16.8490   21.0580 C   0  0  0  0  0  2  0  0  0  0  0  0
  -30.5120  -14.4560   20.2870 C   0  0  0  0  0  0  0  0  0  0  0  0
  -30.1920  -12.3260   19.0800 C   0  0  0  0  0  2  0  0  0  0  0  0
  -29.1860  -12.5460   17.9320 C   0  0  0  0  0  2  0  0  0  0  0  0
  -27.7380  -12.3670   18.4330 C   0  0  0  0  0  2  0  0  0  0  0  0
  -27.4530  -13.1590   19.7370 C   0  0  0  0  0  3  0  0  0  0  0  0
  -28.5670  -12.9240   20.7820 C   0  0  0  0  0  2  0  0  0  0  0  0
  -29.8540  -13.2720   20.1550 N   0  0  0  0  0  0  0  0  0  0  0  0
  -31.6090  -14.6710   19.7630 O   0  0  0  0  0  0  0  0  0  0  0  0
  -29.8300  -15.4420   20.9030 N   0  0  0  0  0  0  0  0  0  0  0  0
  -28.9290  -15.1900   21.2830 H   0  0  0  0  0  0  0  0  0  0  0  0
  -25.0720  -13.6970   20.5480 C   0  0  0  0  0  0  0  0  0  0  0  0
  -24.0430  -12.8950   20.9650 C   0  0  0  0  0  0  0  0  0  0  0  0
  -24.5420  -11.5570   20.9160 C   0  0  0  0  0  0  0  0  0  0  0  0
  -26.1310  -12.8460   20.2750 N   0  0  0  0  0  0  0  0  0  0  0  0
  -25.8180  -11.5550   20.5520 N   0  0  0  0  0  0  0  0  0  0  0  0
  -23.8610  -10.2750   21.1400 C   0  0  0  0  0  0  0  0  0  0  0  0
  -24.3280   -9.3490   22.0970 C   0  0  0  0  0  3  0  0  0  0  0  0
  -23.6470   -8.1300   22.3060 C   0  0  0  0  0  3  0  0  0  0  0  0
  -22.4850   -7.8290   21.5570 C   0  0  0  0  0  0  0  0  0  0  0  0
  -22.0370   -8.7460   20.5880 C   0  0  0  0  0  3  0  0  0  0  0  0
  -22.7190   -9.9550   20.3780 C   0  0  0  0  0  3  0  0  0  0  0  0
  -21.7730   -6.6600   21.6740 O   0  0  0  0  0  0  0  0  0  0  0  0
  -21.7160   -5.9680   22.8570 C   0  0  0  0  0  0  0  0  0  0  0  0
  -21.1840   -6.5440   24.0320 C   0  0  0  0  0  3  0  0  0  0  0  0
  -21.0800   -5.7730   25.2070 C   0  0  0  0  0  3  0  0  0  0  0  0
  -21.4970   -4.4300   25.2080 C   0  0  0  0  0  0  0  0  0  0  0  0
  -22.0220   -3.8530   24.0390 C   0  0  0  0  0  3  0  0  0  0  0  0
  -22.1280   -4.6200   22.8650 C   0  0  0  0  0  0  0  0  0  0  0  0
  -22.6150   -4.0550   21.7350 F   0  0  0  0  0  0  0  0  0  0  0  0
  -21.3900   -3.6870   26.3360 F   0  0  0  0  0  0  0  0  0  0  0  0
  -22.6450  -13.3330   21.2960 C   0  0  0  0  0  0  0  0  0  0  0  0
  -21.9720  -12.6100   22.1860 N   0  0  0  0  0  0  0  0  0  0  0  0
  -22.1600  -14.3500   20.8040 O   0  0  0  0  0  0  0  0  0  0  0  0
  -22.3780  -11.7880   22.6060 H   0  0  0  0  0  0  0  0  0  0  0  0
  -21.0360  -12.8860   22.4500 H   0  0  0  0  0  0  0  0  0  0  0  0
  -25.1880  -15.0710   20.3620 N   0  0  0  0  0  0  0  0  0  0  0  0
  -24.4060  -15.7010   20.4980 H   0  0  0  0  0  0  0  0  0  0  0  0
  -26.0060  -15.5320   19.9830 H   0  0  0  0  0  0  0  0  0  0  0  0
  -28.8130  -22.8640   20.7970 N   0  0  0  0  0  4  0  0  0  0  0  0
  -27.9220  -22.4750   20.5160 H   0  0  0  0  0  0  0  0  0  0  0  0
  -28.7720  -22.9610   21.7980 H   0  0  0  0  0  0  0  0  0  0  0  0
  -29.0130  -24.1990   20.1350 C   0  0  0  0  0  2  0  0  0  0  0  0
  -28.7480  -25.5850   22.2750 C   0  0  0  0  0  1  0  0  0  0  0  0
  -28.2390  -25.3530   20.8440 C   0  0  0  0  0  3  0  0  0  0  0  0
  -28.3600  -26.6230   20.1550 O   0  0  0  0  0  0  0  0  0  0  0  0
  -24.5510  -31.8180   23.2560 C   0  0  0  0  0  0  0  0  0  0  0  0
  -27.2150  -27.3990   20.1460 C   0  0  0  0  0  0  0  0  0  0  0  0
  -23.3590  -30.4380   21.5880 C   0  0  0  0  0  3  0  0  0  0  0  0
  -24.8260  -28.9210   20.1520 C   0  0  0  0  0  0  0  0  0  0  0  0
  -25.8890  -30.7960   21.4160 C   0  0  0  0  0  2  0  0  0  0  0  0
  -25.9810  -29.4330   20.7560 C   0  0  0  0  0  0  0  0  0  0  0  0
  -27.1830  -28.6820   20.7470 C   0  0  0  0  0  3  0  0  0  0  0  0
  -26.0460  -26.9120   19.5230 C   0  0  0  0  0  3  0  0  0  0  0  0
  -24.8540  -27.6610   19.5300 C   0  0  0  0  0  3  0  0  0  0  0  0
  -23.5810  -29.7780   20.2010 C   0  0  0  0  0  2  0  0  0  0  0  0
  -24.6170  -31.0310   22.1460 N   0  0  0  0  0  0  0  0  0  0  0  0
  -23.4650  -32.0840   23.7910 O   0  0  0  0  0  0  0  0  0  0  0  0
  -22.7010  -29.4030   22.5290 C   0  0  0  0  0  0  0  0  0  0  0  0
  -21.3830  -29.2010   22.3700 N   0  0  0  0  0  0  0  0  0  0  0  0
  -23.3750  -28.7850   23.3580 O   0  0  0  0  0  0  0  0  0  0  0  0
  -20.9010  -29.7520   21.6730 H   0  0  0  0  0  0  0  0  0  0  0  0
  -18.0170  -27.9490   22.7770 C   0  0  0  0  0  0  0  0  0  0  0  0
  -20.5620  -28.2480   23.1180 C   0  0  0  0  0  3  0  0  0  0  0  0
  -20.7050  -26.8200   22.5430 C   0  0  0  0  0  2  0  0  0  0  0  0
  -19.6360  -26.4810   21.5000 C   0  0  0  0  0  2  0  0  0  0  0  0
  -18.2340  -26.6020   22.1060 C   0  0  0  0  0  2  0  0  0  0  0  0
  -19.1110  -28.7280   23.2380 C   0  0  0  0  0  0  0  0  0  0  0  0
  -18.8560  -29.9870   23.8240 C   0  0  0  0  0  3  0  0  0  0  0  0
  -17.5390  -30.4680   23.9540 C   0  0  0  0  0  3  0  0  0  0  0  0
  -16.4590  -29.6840   23.5110 C   0  0  0  0  0  3  0  0  0  0  0  0
  -16.6990  -28.4270   22.9290 C   0  0  0  0  0  3  0  0  0  0  0  0
  -25.8320  -32.4420   23.8940 C   0  0  0  0  0  3  0  0  0  0  0  0
  -25.5310  -33.8460   24.2050 N   0  0  0  0  0  0  0  0  0  0  0  0
  -25.8900  -34.8870   23.4410 C   0  0  0  0  0  0  0  0  0  0  0  0
  -26.5790  -34.7660   22.4240 O   0  0  0  0  0  0  0  0  0  0  0  0
  -24.9210  -34.0150   24.9900 H   0  0  0  0  0  0  0  0  0  0  0  0
  -24.1960  -36.6990   23.0250 C   0  0  0  0  0  1  0  0  0  0  0  0
  -25.4080  -36.2850   23.8740 C   0  0  0  0  0  3  0  0  0  0  0  0
  -27.5230  -37.1540   24.7680 C   0  0  0  0  0  1  0  0  0  0  0  0
  -26.4580  -37.3230   23.7830 N   0  0  0  0  0  0  0  0  0  0  0  0
  -26.0590  -38.2500   23.9050 H   0  0  0  0  0  0  0  0  0  0  0  0
  -26.3200  -31.6760   25.1840 C   0  0  1  0  0  0  0  0  0  0  0  0
  -25.2050  -31.4540   26.2330 C   0  0  0  0  0  1  0  0  0  0  0  0
  -26.9010  -30.2920   24.8120 C   0  0  0  0  0  1  0  0  0  0  0  0
  -27.4640  -32.4670   25.8620 C   0  0  0  0  0  1  0  0  0  0  0  0
  -30.5650  -22.0570   22.9790 C   0  0  0  0  0  1  0  0  0  0  0  0
  -30.9900  -21.7960   21.5160 C   0  0  0  0  0  3  0  0  0  0  0  0
  -32.7490  -22.4960   19.7450 C   0  0  0  0  0  1  0  0  0  0  0  0
  -32.1340  -22.7630   21.1280 C   0  0  0  0  0  2  0  0  0  0  0  0
  1  2  1  0
  1 46  1  0
  1 94  1  0
  2  4  2  0
  3  6  1  0
  3  2  1  0
  5  3  1  0
  6  7  1  0
  8 16  1  0
  9 14  1  0
 10 11  1  0
 10  9  1  0
 12 11  1  0
 12 21  1  0
 12 13  1  0
 14  8  1  0
 14 13  1  0
 15  8  2  0
 16  7  1  0
 16 17  1  0
 18 19  2  0
 19 38  1  0
 20 19  1  0
 20 23  1  0
 21 18  1  0
 21 22  1  0
 22 20  2  0
 23 24  1  0
 24 25  2  0
 26 29  1  0
 26 25  1  0
 27 26  2  0
 28 27  1  0
 28 23  2  0
 29 30  1  0
 30 35  2  0
 30 31  1  0
 31 32  2  0
 32 33  1  0
 33 37  1  0
 34 33  2  0
 35 34  1  0
 36 35  1  0
 38 39  1  0
 39 42  1  0
 39 41  1  0
 40 38  2  0
 43 44  1  0
 43 18  1  0
 45 43  1  0
 46 48  1  0
 47 46  1  0
 49 46  1  0
 49 51  1  0
 51 50  1  0
 52 51  1  0
 53 64  2  0
 54 52  1  0
 54 59  1  0
 55 63  1  0
 55 65  1  0
 56 62  1  0
 56 58  1  0
 57 63  1  0
 58 57  1  0
 59 58  2  0
 60 61  1  0
 60 54  2  0
 61 56  2  0
 62 55  1  0
 63 53  1  0
 65 67  2  0
 66 65  1  0
 68 66  1  0
 69 78  2  0
 69 74  1  0
 70 66  1  0
 70 74  1  0
 71 70  1  0
 72 73  1  0
 72 71  1  0
 73 69  1  0
 74 75  2  0
 75 76  1  0
 77 76  2  0
 78 77  1  0
 79 53  1  0
 79 80  1  0
 79 89  1  0
 80 83  1  0
 81 85  1  0
 81 80  1  0
 82 81  2  0
 85 84  1  0
 87 85  1  0
 87 88  1  0
 87 86  1  0
 89 92  1  1
 89 90  1  0
 91 89  1  0
 94 93  1  0
 95 96  1  0
 96 94  1  0
M  ISO  4   8 100  16 100  51 101  52 101
M  END
>  <TORSDO>  (8) 
F 24

>  <SCORE>  (8) 
-12.268

>  <name>  (8) 
7

>  <ligand_id>  (8) 
7

>  <original_smiles>  (8) 
[H]c1c([H])c([H])c2c(c1[H])C([H])([H])C([H])([H])C([H])([H])C2([H])N([H])C(=O)C1([H])N(C(=O)C([H])(N([H])C(=O)C([H])(N([H])C([H])([H])[H])C([H])([H])[H])C(C([H])([H])[H])(C([H])([H])[H])C([H])([H])[H])C([H])([H])c2c([H])c(OC([H])(C([H])([H])[H])C([H])([H])[N+]([H])([H])C([H])(C(=O)N([H])C([H])([H])C([H])([H])N([H])C(=O)N3C([H])([H])C([H])([H])C([H])([H])C([H])(n4nc(-c5c([H])c([H])c(Oc6c([H])c([H])c(F)c([H])c6F)c([H])c5[H])c(C(=O)N([H])[H])c4N([H])[H])C3([H])[H])C([H])(C([H])([H])[H])C([H])([H])C([H])([H])[H])c([H])c([H])c2C1([H])[H]

>  <smiles>  (8) 
[H]c1c([H])c([H])c2c(c1[H])C([H])([H])C([H])([H])C([H])([H])C2([H])N([H])C(=O)C1([H])N(C(=O)C([H])(N([H])C(=O)C([H])(N([H])C([H])([H])[H])C([H])([H])[H])C(C([H])([H])[H])(C([H])([H])[H])C([H])([H])[H])C([H])([H])c2c([H])c(OC([H])(C([H])([H])[H])C([H])([H])[N+]([H])([H])C([H])(C(=O)N([H])C([H])([H])C([H])([H])N([H])C(=O)N3C([H])([H])C([H])([H])C([H])([H])C([H])(n4nc(-c5c([H])c([H])c(Oc6c([H])c([H])c(F)c([H])c6F)c([H])c5[H])c(C(=O)N([H])[H])c4N([H])[H])C3([H])[H])C([H])(C([H])([H])[H])C([H])([H])C([H])([H])[H])c([H])c([H])c2C1([H])[H]

$$$$
9:0:0
     RDKit          3D

 97104  0  0  1  0  0  0  0  0999 V2000
  -26.2050  -21.0110   21.1560 C   0  0  0  0  0  0  0  0  0  0  0  0
  -26.9780  -20.0760   21.7130 N   0  0  0  0  0  0  0  0  0  0  0  0
  -25.2960  -20.7410   20.3680 O   0  0  0  0  0  0  0  0  0  0  0  0
  -27.7070  -20.3780   22.3450 H   0  0  0  0  0  0  0  0  0  0  0  0
  -26.5150  -22.4580   21.5230 C   0  0  0  0  0  2  0  0  0  0  0  0
  -26.4280  -23.3940   20.3080 C   0  0  0  0  0  2  0  0  0  0  0  0
  -26.8930  -24.8150   20.6380 C   0  0  0  0  0  2  0  0  0  0  0  0
  -26.5160  -25.8210   19.5450 C   0  0  0  0  0  2  0  0  0  0  0  0
  -27.1680  -27.1940   19.7720 C   0  0  0  0  0  2  0  0  0  0  0  0
  -26.2110  -28.2300   19.6000 O   0  0  0  0  0  0  0  0  0  0  0  0
  -28.2160  -32.9650   24.5120 C   0  0  0  0  0  0  0  0  0  0  0  0
  -25.9010  -28.8950   20.7590 C   0  0  0  0  0  0  0  0  0  0  0  0
  -26.1650  -31.6770   25.0260 C   0  0  0  0  0  3  0  0  0  0  0  0
  -25.2140  -30.2970   23.1030 C   0  0  0  0  0  0  0  0  0  0  0  0
  -26.8560  -32.1180   22.6070 C   0  0  0  0  0  2  0  0  0  0  0  0
  -26.1970  -30.8060   22.2450 C   0  0  0  0  0  0  0  0  0  0  0  0
  -26.5470  -30.1080   21.0710 C   0  0  0  0  0  3  0  0  0  0  0  0
  -24.9150  -28.3850   21.6280 C   0  0  0  0  0  3  0  0  0  0  0  0
  -24.5690  -29.0840   22.8020 C   0  0  0  0  0  3  0  0  0  0  0  0
  -24.8910  -31.1170   24.3320 C   0  0  0  0  0  2  0  0  0  0  0  0
  -27.1430  -32.2620   24.0520 N   0  0  0  0  0  0  0  0  0  0  0  0
  -28.3800  -33.1650   25.7240 O   0  0  0  0  0  0  0  0  0  0  0  0
  -26.7730  -30.5660   25.9100 C   0  0  0  0  0  0  0  0  0  0  0  0
  -26.4510  -30.5950   27.2120 N   0  0  0  0  0  0  0  0  0  0  0  0
  -27.4930  -29.6920   25.4200 O   0  0  0  0  0  0  0  0  0  0  0  0
  -25.8640  -31.3510   27.5360 H   0  0  0  0  0  0  0  0  0  0  0  0
  -26.5520  -29.9610   30.7680 C   0  0  0  0  0  0  0  0  0  0  0  0
  -26.8750  -29.6290   28.2250 C   0  0  0  0  0  3  0  0  0  0  0  0
  -25.8580  -28.4730   28.3510 C   0  0  0  0  0  2  0  0  0  0  0  0
  -24.8020  -28.7100   29.4350 C   0  0  0  0  0  2  0  0  0  0  0  0
  -25.4680  -28.8950   30.8010 C   0  0  0  0  0  2  0  0  0  0  0  0
  -27.2000  -30.3170   29.5560 C   0  0  0  0  0  0  0  0  0  0  0  0
  -28.1760  -31.3370   29.5760 C   0  0  0  0  0  3  0  0  0  0  0  0
  -28.5070  -31.9940   30.7760 C   0  0  0  0  0  3  0  0  0  0  0  0
  -27.8700  -31.6300   31.9740 C   0  0  0  0  0  3  0  0  0  0  0  0
  -26.8990  -30.6120   31.9690 C   0  0  0  0  0  3  0  0  0  0  0  0
  -29.2780  -33.5690   23.5370 C   0  0  0  0  0  3  0  0  0  0  0  0
  -29.6330  -34.9030   24.0390 N   0  0  0  0  0  0  0  0  0  0  0  0
  -29.1210  -36.0500   23.5710 C   0  0  0  0  0  0  0  0  0  0  0  0
  -28.3470  -36.0970   22.6110 O   0  0  0  0  0  0  0  0  0  0  0  0
  -30.2200  -34.9380   24.8590 H   0  0  0  0  0  0  0  0  0  0  0  0
  -28.4110  -37.7890   25.2440 C   0  0  0  0  0  1  0  0  0  0  0  0
  -29.5290  -37.3530   24.2840 C   0  0  0  0  0  3  0  0  0  0  0  0
  -31.0710  -38.2340   22.5860 C   0  0  0  0  0  1  0  0  0  0  0  0
  -29.8470  -38.4570   23.3510 N   0  0  0  0  0  0  0  0  0  0  0  0
  -29.9420  -39.3350   23.8540 H   0  0  0  0  0  0  0  0  0  0  0  0
  -30.5660  -32.6690   23.3870 C   0  0  1  0  0  0  0  0  0  0  0  0
  -31.2200  -32.2890   24.7350 C   0  0  0  0  0  1  0  0  0  0  0  0
  -30.2330  -31.3570   22.6380 C   0  0  0  0  0  1  0  0  0  0  0  0
  -31.6260  -33.4060   22.5360 C   0  0  0  0  0  1  0  0  0  0  0  0
  -26.9270  -18.6610   21.3810 C   0  0  0  0  0  2  0  0  0  0  0  0
  -28.3020  -18.1440   20.9220 C   0  0  0  0  0  2  0  0  0  0  0  0
  -28.9380  -18.9940   19.8060 C   0  0  0  0  0  2  0  0  0  0  0  0
  -29.2620  -18.1860   18.5310 C   0  0  0  0  0  2  0  0  0  0  0  0
  -27.5370  -19.0460   16.9530 C   0  0  0  0  0  0  0  0  0  0  0  0
  -28.0880  -18.0650   17.6730 N   0  0  0  0  0  0  0  0  0  0  0  0
  -28.0240  -20.1720   16.8530 O   0  0  0  0  0  0  0  0  0  0  0  0
  -27.6180  -17.1710   17.6670 H   0  0  0  0  0  0  0  0  0  0  0  0
  -26.2040  -18.7270   16.2910 C   0  0  0  0  0  2  0  0  0  0  0  0
  -23.8500  -19.1610   16.9000 C   0  0  0  0  0  0  0  0  0  0  0  0
  -21.9550  -17.6490   16.4680 C   0  0  0  0  0  2  0  0  0  0  0  0
  -21.0900  -17.4160   17.7190 C   0  0  0  0  0  2  0  0  0  0  0  0
  -21.6380  -16.2430   18.5460 C   0  0  0  0  0  2  0  0  0  0  0  0
  -23.1550  -16.3790   18.8240 C   0  0  0  0  0  3  0  0  0  0  0  0
  -23.9350  -16.7090   17.5340 C   0  0  0  0  0  2  0  0  0  0  0  0
  -23.3420  -17.9000   16.8890 N   0  0  0  0  0  0  0  0  0  0  0  0
  -23.1740  -20.1710   16.7050 O   0  0  0  0  0  0  0  0  0  0  0  0
  -25.1560  -19.2920   17.1360 N   0  0  0  0  0  0  0  0  0  0  0  0
  -25.4060  -20.2110   17.4690 H   0  0  0  0  0  0  0  0  0  0  0  0
  -24.8910  -15.0060   20.1380 C   0  0  0  0  0  0  0  0  0  0  0  0
  -24.8770  -13.7250   20.6210 C   0  0  0  0  0  0  0  0  0  0  0  0
  -23.6110  -13.1810   20.2450 C   0  0  0  0  0  0  0  0  0  0  0  0
  -23.6860  -15.1840   19.4790 N   0  0  0  0  0  0  0  0  0  0  0  0
  -22.9340  -14.0520   19.5070 N   0  0  0  0  0  0  0  0  0  0  0  0
  -22.9810  -11.9000   20.5920 C   0  0  0  0  0  0  0  0  0  0  0  0
  -22.9160  -10.8350   19.6680 C   0  0  0  0  0  3  0  0  0  0  0  0
  -22.3200   -9.6070   20.0290 C   0  0  0  0  0  3  0  0  0  0  0  0
  -21.7830   -9.4330   21.3270 C   0  0  0  0  0  0  0  0  0  0  0  0
  -21.8330  -10.5040   22.2370 C   0  0  0  0  0  3  0  0  0  0  0  0
  -22.4220  -11.7280   21.8730 C   0  0  0  0  0  3  0  0  0  0  0  0
  -21.1630   -8.2860   21.7600 O   0  0  0  0  0  0  0  0  0  0  0  0
  -21.6980   -7.0460   21.5220 C   0  0  0  0  0  0  0  0  0  0  0  0
  -23.0900   -6.8160   21.5550 C   0  0  0  0  0  3  0  0  0  0  0  0
  -23.5940   -5.5140   21.3680 C   0  0  0  0  0  3  0  0  0  0  0  0
  -22.7100   -4.4370   21.1660 C   0  0  0  0  0  0  0  0  0  0  0  0
  -21.3230   -4.6620   21.1450 C   0  0  0  0  0  3  0  0  0  0  0  0
  -20.8170   -5.9620   21.3230 C   0  0  0  0  0  0  0  0  0  0  0  0
  -19.4780   -6.1690   21.3180 F   0  0  0  0  0  0  0  0  0  0  0  0
  -23.1950   -3.1840   20.9960 F   0  0  0  0  0  0  0  0  0  0  0  0
  -25.9320  -13.0760   21.4720 C   0  0  0  0  0  0  0  0  0  0  0  0
  -26.1570  -11.7800   21.2830 N   0  0  0  0  0  0  0  0  0  0  0  0
  -26.5930  -13.7270   22.2780 O   0  0  0  0  0  0  0  0  0  0  0  0
  -25.6190  -11.2440   20.6170 H   0  0  0  0  0  0  0  0  0  0  0  0
  -26.8670  -11.3110   21.8250 H   0  0  0  0  0  0  0  0  0  0  0  0
  -25.8140  -16.0410   20.2240 N   0  0  0  0  0  0  0  0  0  0  0  0
  -26.6170  -15.9670   20.8350 H   0  0  0  0  0  0  0  0  0  0  0  0
  -25.6160  -16.9900   19.9350 H   0  0  0  0  0  0  0  0  0  0  0  0
  1  5  1  0
  1  2  1  0
  2  4  1  0
  3  1  2  0
  6  7  1  0
  6  5  1  0
  8  9  1  0
  8  7  1  0
 10  9  1  0
 10 12  1  0
 11 22  2  0
 12 17  2  0
 12 18  1  0
 13 23  1  0
 14 20  1  0
 15 21  1  0
 16 15  1  0
 16 14  2  0
 17 16  1  0
 18 19  2  0
 19 14  1  0
 20 13  1  0
 21 11  1  0
 21 13  1  0
 23 24  1  0
 24 26  1  0
 25 23  2  0
 27 31  1  0
 27 36  1  0
 28 24  1  0
 28 29  1  0
 28 32  1  0
 29 30  1  0
 30 31  1  0
 32 33  1  0
 32 27  2  0
 33 34  2  0
 34 35  1  0
 36 35  2  0
 37 38  1  0
 37 11  1  0
 38 41  1  0
 39 38  1  0
 39 43  1  0
 40 39  2  0
 43 42  1  0
 44 45  1  0
 45 46  1  0
 45 43  1  0
 47 37  1  0
 47 48  1  1
 49 47  1  0
 50 47  1  0
 51  2  1  0
 52 51  1  0
 53 52  1  0
 54 53  1  0
 55 56  1  0
 56 54  1  0
 57 55  2  0
 58 56  1  0
 59 55  1  0
 59 68  1  0
 60 68  1  0
 61 66  1  0
 61 62  1  0
 62 63  1  0
 63 64  1  0
 64 65  1  0
 64 73  1  0
 66 60  1  0
 66 65  1  0
 67 60  2  0
 68 69  1  0
 70 95  1  0
 70 71  2  0
 71 90  1  0
 72 75  1  0
 72 71  1  0
 73 74  1  0
 73 70  1  0
 74 72  2  0
 75 80  1  0
 76 77  1  0
 76 75  2  0
 77 78  2  0
 78 81  1  0
 78 79  1  0
 80 79  2  0
 82 83  1  0
 82 81  1  0
 84 83  2  0
 85 84  1  0
 86 85  2  0
 86 87  1  0
 87 82  2  0
 88 87  1  0
 89 85  1  0
 90 92  2  0
 91 90  1  0
 91 94  1  0
 93 91  1  0
 95 96  1  0
 97 95  1  0
M  ISO  4   9 101  10 101  60 100  68 100
M  END
>  <TORSDO>  (9) 
F 27

>  <SCORE>  (9) 
35.789

>  <name>  (9) 
9

>  <ligand_id>  (9) 
9

>  <original_smiles>  (9) 
[H]c1c([H])c([H])c2c(c1[H])C([H])([H])C([H])([H])C([H])([H])C2([H])N([H])C(=O)C1([H])N(C(=O)C([H])(N([H])C(=O)C([H])(N([H])C([H])([H])[H])C([H])([H])[H])C(C([H])([H])[H])(C([H])([H])[H])C([H])([H])[H])C([H])([H])c2c([H])c(OC([H])([H])C([H])([H])C([H])([H])C([H])([H])C([H])([H])C(=O)N([H])C([H])([H])C([H])([H])C([H])([H])C([H])([H])N([H])C(=O)C([H])([H])N([H])C(=O)N3C([H])([H])C([H])([H])C([H])([H])C([H])(n4nc(-c5c([H])c([H])c(Oc6c([H])c([H])c(F)c([H])c6F)c([H])c5[H])c(C(=O)N([H])[H])c4N([H])[H])C3([H])[H])c([H])c([H])c2C1([H])[H]

>  <smiles>  (9) 
[H]c1c([H])c([H])c2c(c1[H])C([H])([H])C([H])([H])C([H])([H])C2([H])N([H])C(=O)C1([H])N(C(=O)C([H])(N([H])C(=O)C([H])(N([H])C([H])([H])[H])C([H])([H])[H])C(C([H])([H])[H])(C([H])([H])[H])C([H])([H])[H])C([H])([H])c2c([H])c(OC([H])([H])C([H])([H])C([H])([H])C([H])([H])C([H])([H])C(=O)N([H])C([H])([H])C([H])([H])C([H])([H])C([H])([H])N([H])C(=O)C([H])([H])N([H])C(=O)N3C([H])([H])C([H])([H])C([H])([H])C([H])(n4nc(-c5c([H])c([H])c(Oc6c([H])c([H])c(F)c([H])c6F)c([H])c5[H])c(C(=O)N([H])[H])c4N([H])[H])C3([H])[H])c([H])c([H])c2C1([H])[H]

$$$$
10:0:0
     RDKit          3D

 91 98  0  0  1  0  0  0  0  0999 V2000
  -28.7010  -22.7850   19.9190 C   0  0  0  0  0  0  0  0  0  0  0  0
  -28.7580  -21.3780   20.4200 N   0  0  0  0  0  0  0  0  0  0  0  0
  -29.2020  -22.9500   18.8050 O   0  0  0  0  0  0  0  0  0  0  0  0
  -28.4010  -21.3450   21.3680 H   0  0  0  0  0  0  0  0  0  0  0  0
  -27.9690  -24.2520   20.5870 C   0  0  0  0  0  2  0  0  0  0  0  0
  -28.2140  -25.8640   20.2570 O   0  0  0  0  0  0  0  0  0  0  0  0
  -24.6250  -31.8770   23.2280 C   0  0  0  0  0  0  0  0  0  0  0  0
  -27.1980  -26.9660   20.2570 C   0  0  0  0  0  0  0  0  0  0  0  0
  -23.4420  -30.4700   21.5940 C   0  0  0  0  0  3  0  0  0  0  0  0
  -24.8980  -28.8560   20.1900 C   0  0  0  0  0  0  0  0  0  0  0  0
  -26.0100  -30.6820   21.4540 C   0  0  0  0  0  2  0  0  0  0  0  0
  -26.0860  -29.2640   20.8110 C   0  0  0  0  0  0  0  0  0  0  0  0
  -27.2330  -28.3430   20.8110 C   0  0  0  0  0  3  0  0  0  0  0  0
  -25.9760  -26.7140   19.5940 C   0  0  0  0  0  3  0  0  0  0  0  0
  -24.8700  -27.6020   19.5610 C   0  0  0  0  0  3  0  0  0  0  0  0
  -23.6790  -29.7780   20.2240 C   0  0  0  0  0  2  0  0  0  0  0  0
  -24.7150  -31.0370   22.1460 N   0  0  0  0  0  0  0  0  0  0  0  0
  -23.5340  -32.1690   23.7430 O   0  0  0  0  0  0  0  0  0  0  0  0
  -22.7440  -29.4790   22.5630 C   0  0  0  0  0  0  0  0  0  0  0  0
  -21.4130  -29.3170   22.4390 N   0  0  0  0  0  0  0  0  0  0  0  0
  -23.4080  -28.8550   23.3950 O   0  0  0  0  0  0  0  0  0  0  0  0
  -20.9310  -29.8720   21.7450 H   0  0  0  0  0  0  0  0  0  0  0  0
  -18.0280  -28.1130   22.9520 C   0  0  0  0  0  0  0  0  0  0  0  0
  -20.5890  -28.3810   23.2130 C   0  0  0  0  0  3  0  0  0  0  0  0
  -20.6910  -26.9480   22.6430 C   0  0  0  0  0  2  0  0  0  0  0  0
  -19.5880  -26.6220   21.6310 C   0  0  0  0  0  2  0  0  0  0  0  0
  -18.2060  -26.7640   22.2750 C   0  0  0  0  0  2  0  0  0  0  0  0
  -19.1470  -28.8790   23.3780 C   0  0  0  0  0  0  0  0  0  0  0  0
  -18.9240  -30.1380   23.9760 C   0  0  0  0  0  3  0  0  0  0  0  0
  -17.6180  -30.6340   24.1480 C   0  0  0  0  0  3  0  0  0  0  0  0
  -16.5150  -29.8660   23.7370 C   0  0  0  0  0  3  0  0  0  0  0  0
  -16.7210  -28.6070   23.1440 C   0  0  0  0  0  3  0  0  0  0  0  0
  -25.8920  -32.5280   23.8640 C   0  0  0  0  0  3  0  0  0  0  0  0
  -26.3830  -31.7800   25.1650 C   0  0  1  0  0  0  0  0  0  0  0  0
  -25.2720  -31.5680   26.2210 C   0  0  0  0  0  1  0  0  0  0  0  0
  -26.9670  -30.3930   24.8170 C   0  0  0  0  0  1  0  0  0  0  0  0
  -27.5270  -32.5820   25.8300 C   0  0  0  0  0  1  0  0  0  0  0  0
  -25.5720  -33.9320   24.1800 N   0  0  0  0  0  0  0  0  0  0  0  0
  -25.9120  -34.9850   23.4250 C   0  0  0  0  0  0  0  0  0  0  0  0
  -26.5880  -34.8780   22.3990 O   0  0  0  0  0  0  0  0  0  0  0  0
  -24.9710  -34.0890   24.9750 H   0  0  0  0  0  0  0  0  0  0  0  0
  -24.1910  -36.7880   23.0590 C   0  0  0  0  0  1  0  0  0  0  0  0
  -25.4270  -36.3790   23.8760 C   0  0  0  0  0  3  0  0  0  0  0  0
  -27.5580  -37.2650   24.7160 C   0  0  0  0  0  1  0  0  0  0  0  0
  -26.4630  -37.4300   23.7640 N   0  0  0  0  0  0  0  0  0  0  0  0
  -26.0570  -38.3520   23.9030 H   0  0  0  0  0  0  0  0  0  0  0  0
  -28.9820  -19.8080   19.8210 C   0  0  0  0  0  2  0  0  0  0  0  0
  -29.8480  -18.3070   20.3870 C   0  0  0  0  0  0  0  0  0  0  0  0
  -30.3650  -15.3770   20.0160 C   0  0  0  0  0  0  0  0  0  0  0  0
  -30.3230  -12.9380   19.0970 C   0  0  0  0  0  2  0  0  0  0  0  0
  -29.3530  -12.6970   17.9130 C   0  0  0  0  0  2  0  0  0  0  0  0
  -27.9310  -12.4020   18.4230 C   0  0  0  0  0  2  0  0  0  0  0  0
  -27.5130  -13.3630   19.5630 C   0  0  0  0  0  3  0  0  0  0  0  0
  -28.6100  -13.5350   20.6360 C   0  0  0  0  0  2  0  0  0  0  0  0
  -29.7910  -14.0720   19.9400 N   0  0  0  0  0  0  0  0  0  0  0  0
  -31.5900  -15.3500   19.8250 O   0  0  0  0  0  0  0  0  0  0  0  0
  -29.6070  -16.6650   20.0790 N   0  0  0  0  0  4  0  0  0  0  0  0
  -28.6190  -16.4670   20.0490 H   0  0  0  0  0  0  0  0  0  0  0  0
  -25.1760  -13.8950   20.4250 C   0  0  0  0  0  0  0  0  0  0  0  0
  -24.1360  -13.1070   20.8310 C   0  0  0  0  0  0  0  0  0  0  0  0
  -24.6120  -11.7610   20.7690 C   0  0  0  0  0  0  0  0  0  0  0  0
  -26.2140  -13.0300   20.1300 N   0  0  0  0  0  0  0  0  0  0  0  0
  -25.8910  -11.7400   20.4070 N   0  0  0  0  0  0  0  0  0  0  0  0
  -23.9030  -10.4910   20.9750 C   0  0  0  0  0  0  0  0  0  0  0  0
  -24.3660   -9.5250   21.8930 C   0  0  0  0  0  3  0  0  0  0  0  0
  -23.6530   -8.3230   22.0890 C   0  0  0  0  0  3  0  0  0  0  0  0
  -22.4610   -8.0770   21.3650 C   0  0  0  0  0  0  0  0  0  0  0  0
  -22.0160   -9.0330   20.4340 C   0  0  0  0  0  3  0  0  0  0  0  0
  -22.7310  -10.2270   20.2370 C   0  0  0  0  0  3  0  0  0  0  0  0
  -21.7170   -6.9270   21.4710 O   0  0  0  0  0  0  0  0  0  0  0  0
  -21.6980   -6.1860   22.6250 C   0  0  0  0  0  0  0  0  0  0  0  0
  -21.2820   -6.7370   23.8580 C   0  0  0  0  0  3  0  0  0  0  0  0
  -21.2120   -5.9210   25.0040 C   0  0  0  0  0  3  0  0  0  0  0  0
  -21.5480   -4.5560   24.9200 C   0  0  0  0  0  0  0  0  0  0  0  0
  -21.9570   -4.0050   23.6930 C   0  0  0  0  0  3  0  0  0  0  0  0
  -22.0290   -4.8180   22.5490 C   0  0  0  0  0  0  0  0  0  0  0  0
  -22.4040   -4.2780   21.3640 F   0  0  0  0  0  0  0  0  0  0  0  0
  -21.4730   -3.7700   26.0200 F   0  0  0  0  0  0  0  0  0  0  0  0
  -22.7470  -13.5710   21.1540 C   0  0  0  0  0  0  0  0  0  0  0  0
  -22.0560  -12.8620   22.0390 N   0  0  0  0  0  0  0  0  0  0  0  0
  -22.2850  -14.5980   20.6580 O   0  0  0  0  0  0  0  0  0  0  0  0
  -22.4450  -12.0320   22.4600 H   0  0  0  0  0  0  0  0  0  0  0  0
  -21.1240  -13.1540   22.3000 H   0  0  0  0  0  0  0  0  0  0  0  0
  -25.3190  -15.2690   20.2500 N   0  0  0  0  0  0  0  0  0  0  0  0
  -24.5480  -15.9140   20.3890 H   0  0  0  0  0  0  0  0  0  0  0  0
  -26.1360  -15.7110   19.8500 H   0  0  0  0  0  0  0  0  0  0  0  0
  -31.3610  -18.5420   20.4220 C   0  0  0  0  0  0  0  0  0  0  0  0
  -32.0160  -18.1700   21.5160 N   0  0  0  0  0  0  0  0  0  0  0  0
  -31.9490  -19.0170   19.4530 O   0  0  0  0  0  0  0  0  0  0  0  0
  -31.5200  -17.7630   22.2950 H   0  0  0  0  0  0  0  0  0  0  0  0
  -33.0190  -18.2780   21.5710 H   0  0  0  0  0  0  0  0  0  0  0  0
  1  2  1  0
  1  5  1  0
  2  4  1  0
  3  1  2  0
  6  5  1  0
  7 18  2  0
  8  6  1  0
  8 13  1  0
  9 17  1  0
  9 19  1  0
 10 16  1  0
 10 12  1  0
 11 17  1  0
 12 13  2  0
 12 11  1  0
 14  8  2  0
 15 14  1  0
 15 10  2  0
 16  9  1  0
 17  7  1  0
 19 21  2  0
 20 19  1  0
 22 20  1  0
 23 32  2  0
 23 28  1  0
 24 20  1  0
 24 28  1  0
 25 24  1  0
 26 27  1  0
 26 25  1  0
 27 23  1  0
 28 29  2  0
 29 30  1  0
 31 30  2  0
 32 31  1  0
 33  7  1  0
 33 38  1  0
 33 34  1  0
 34 37  1  1
 34 35  1  0
 36 34  1  0
 38 41  1  0
 39 43  1  0
 39 38  1  0
 40 39  2  0
 43 42  1  0
 45 43  1  0
 45 46  1  0
 45 44  1  0
 47 48  1  0
 47  2  1  0
 48 87  1  0
 49 57  1  0
 50 55  1  0
 51 52  1  0
 51 50  1  0
 53 52  1  0
 53 62  1  0
 53 54  1  0
 55 49  1  0
 55 54  1  0
 56 49  2  0
 57 48  2  0
 58 57  1  0
 59 60  2  0
 60 79  1  0
 61 60  1  0
 61 64  1  0
 62 63  1  0
 62 59  1  0
 63 61  2  0
 64 65  1  0
 65 66  2  0
 67 70  1  0
 67 66  1  0
 68 67  2  0
 69 68  1  0
 69 64  2  0
 70 71  1  0
 71 72  1  0
 72 73  2  0
 74 73  1  0
 74 78  1  0
 75 74  2  0
 76 71  2  0
 76 75  1  0
 77 76  1  0
 79 80  1  0
 80 83  1  0
 80 82  1  0
 81 79  2  0
 84 85  1  0
 84 59  1  0
 86 84  1  0
 87 88  1  0
 88 91  1  0
 88 90  1  0
 89 87  2  0
M  ISO  4   5 101   6 101  49 100  57 100
M  END
>  <TORSDO>  (10) 
F 20

>  <SCORE>  (10) 
-16.313

>  <name>  (10) 
10

>  <ligand_id>  (10) 
10

>  <original_smiles>  (10) 
[H]c1c([H])c([H])c2c(c1[H])C([H])([H])C([H])([H])C([H])([H])C2([H])N([H])C(=O)C1([H])N(C(=O)C([H])(N([H])C(=O)C([H])(N([H])C([H])([H])[H])C([H])([H])[H])C(C([H])([H])[H])(C([H])([H])[H])C([H])([H])[H])C([H])([H])c2c([H])c(OC([H])([H])C(=O)N([H])C([H])([H])C([H])(C(=O)N([H])[H])N([H])C(=O)N3C([H])([H])C([H])([H])C([H])([H])C([H])(n4nc(-c5c([H])c([H])c(Oc6c([H])c([H])c(F)c([H])c6F)c([H])c5[H])c(C(=O)N([H])[H])c4N([H])[H])C3([H])[H])c([H])c([H])c2C1([H])[H]

>  <smiles>  (10) 
[H]c1c([H])c([H])c2c(c1[H])C([H])([H])C([H])([H])C([H])([H])C2([H])N([H])C(=O)C1([H])N(C(=O)C([H])(N([H])C(=O)C([H])(N([H])C([H])([H])[H])C([H])([H])[H])C(C([H])([H])[H])(C([H])([H])[H])C([H])([H])[H])C([H])([H])c2c([H])c(OC([H])([H])C(=O)N([H])C([H])([H])C([H])(C(=O)N([H])[H])N([H])C(=O)N3C([H])([H])C([H])([H])C([H])([H])C([H])(n4nc(-c5c([H])c([H])c(Oc6c([H])c([H])c(F)c([H])c6F)c([H])c5[H])c(C(=O)N([H])[H])c4N([H])[H])C3([H])[H])c([H])c([H])c2C1([H])[H]

$$$$
11:0:0
     RDKit          3D

 87 95  0  0  1  0  0  0  0  0999 V2000
  -28.6840  -20.4880   18.9990 C   0  0  0  0  0  0  0  0  0  0  0  0
  -28.9130  -18.9090   18.8840 C   0  0  0  0  0  2  0  0  0  0  0  0
  -29.4070  -19.7330   20.9780 C   0  0  0  0  0  2  0  0  0  0  0  0
  -29.7740  -18.3210   20.0610 C   0  0  0  0  0  3  0  0  0  0  0  0
  -28.9240  -21.0660   20.2030 N   0  0  0  0  0  0  0  0  0  0  0  0
  -28.2990  -21.1340   18.0220 O   0  0  0  0  0  0  0  0  0  0  0  0
  -30.4290  -15.3880   20.2180 C   0  0  0  0  0  0  0  0  0  0  0  0
  -30.4270  -12.9260   19.3670 C   0  0  0  0  0  2  0  0  0  0  0  0
  -29.5010  -12.6970   18.1430 C   0  0  0  0  0  2  0  0  0  0  0  0
  -28.0570  -12.4140   18.5940 C   0  0  0  0  0  2  0  0  0  0  0  0
  -27.6080  -13.3730   19.7240 C   0  0  0  0  0  3  0  0  0  0  0  0
  -28.6620  -13.5480   20.8380 C   0  0  0  0  0  2  0  0  0  0  0  0
  -29.8810  -14.0680   20.1970 N   0  0  0  0  0  0  0  0  0  0  0  0
  -31.6330  -15.3960   19.9260 O   0  0  0  0  0  0  0  0  0  0  0  0
  -29.6540  -16.6570   20.3710 N   0  0  0  0  0  0  0  0  0  0  0  0
  -28.7130  -16.4230   20.6540 H   0  0  0  0  0  0  0  0  0  0  0  0
  -25.2480  -13.9110   20.5180 C   0  0  0  0  0  0  0  0  0  0  0  0
  -24.1930  -13.1260   20.8940 C   0  0  0  0  0  0  0  0  0  0  0  0
  -24.6650  -11.7780   20.8430 C   0  0  0  0  0  0  0  0  0  0  0  0
  -26.2890  -13.0430   20.2470 N   0  0  0  0  0  0  0  0  0  0  0  0
  -25.9520  -11.7520   20.5100 N   0  0  0  0  0  0  0  0  0  0  0  0
  -23.9430  -10.5120   21.0290 C   0  0  0  0  0  0  0  0  0  0  0  0
  -24.3750   -9.5430   21.9610 C   0  0  0  0  0  3  0  0  0  0  0  0
  -23.6500   -8.3430   22.1360 C   0  0  0  0  0  3  0  0  0  0  0  0
  -22.4780   -8.1060   21.3820 C   0  0  0  0  0  0  0  0  0  0  0  0
  -22.0640   -9.0630   20.4390 C   0  0  0  0  0  3  0  0  0  0  0  0
  -22.7900  -10.2540   20.2610 C   0  0  0  0  0  3  0  0  0  0  0  0
  -21.7240   -6.9600   21.4690 O   0  0  0  0  0  0  0  0  0  0  0  0
  -21.6600   -6.2260   22.6260 C   0  0  0  0  0  0  0  0  0  0  0  0
  -21.1730   -6.7770   23.8330 C   0  0  0  0  0  3  0  0  0  0  0  0
  -21.0560   -5.9660   24.9800 C   0  0  0  0  0  3  0  0  0  0  0  0
  -21.4180   -4.6070   24.9220 C   0  0  0  0  0  0  0  0  0  0  0  0
  -21.9000   -4.0560   23.7210 C   0  0  0  0  0  3  0  0  0  0  0  0
  -22.0170   -4.8630   22.5760 C   0  0  0  0  0  0  0  0  0  0  0  0
  -22.4590   -4.3210   21.4160 F   0  0  0  0  0  0  0  0  0  0  0  0
  -21.3010   -3.8270   26.0210 F   0  0  0  0  0  0  0  0  0  0  0  0
  -22.7990  -13.5970   21.1830 C   0  0  0  0  0  0  0  0  0  0  0  0
  -22.0780  -12.8920   22.0460 N   0  0  0  0  0  0  0  0  0  0  0  0
  -22.3550  -14.6270   20.6760 O   0  0  0  0  0  0  0  0  0  0  0  0
  -22.4490  -12.0570   22.4770 H   0  0  0  0  0  0  0  0  0  0  0  0
  -21.1410  -13.1900   22.2790 H   0  0  0  0  0  0  0  0  0  0  0  0
  -25.4020  -15.2830   20.3520 N   0  0  0  0  0  0  0  0  0  0  0  0
  -24.6290  -15.9290   20.4800 H   0  0  0  0  0  0  0  0  0  0  0  0
  -26.2300  -15.7260   19.9740 H   0  0  0  0  0  0  0  0  0  0  0  0
  -28.8950  -22.7120   20.6080 C   0  0  0  0  0  3  0  0  0  0  0  0
  -28.0690  -24.2220   20.0120 C   0  0  0  0  0  3  0  0  0  0  0  0
  -28.2050  -25.8550   20.3340 O   0  0  0  0  0  0  0  0  0  0  0  0
  -24.6440  -31.8660   23.2490 C   0  0  0  0  0  0  0  0  0  0  0  0
  -27.1970  -26.9630   20.2380 C   0  0  0  0  0  0  0  0  0  0  0  0
  -23.4510  -30.4690   21.6090 C   0  0  0  0  0  3  0  0  0  0  0  0
  -24.8980  -28.8600   20.1820 C   0  0  0  0  0  0  0  0  0  0  0  0
  -26.0160  -30.6730   21.4660 C   0  0  0  0  0  2  0  0  0  0  0  0
  -26.0850  -29.2610   20.8090 C   0  0  0  0  0  0  0  0  0  0  0  0
  -27.2250  -28.3320   20.8120 C   0  0  0  0  0  3  0  0  0  0  0  0
  -25.9820  -26.7210   19.5590 C   0  0  0  0  0  3  0  0  0  0  0  0
  -24.8730  -27.6100   19.5370 C   0  0  0  0  0  3  0  0  0  0  0  0
  -23.6810  -29.7850   20.2320 C   0  0  0  0  0  2  0  0  0  0  0  0
  -24.7250  -31.0310   22.1610 N   0  0  0  0  0  0  0  0  0  0  0  0
  -23.5540  -32.1570   23.7690 O   0  0  0  0  0  0  0  0  0  0  0  0
  -22.7550  -29.4760   22.5760 C   0  0  0  0  0  0  0  0  0  0  0  0
  -21.4260  -29.3060   22.4450 N   0  0  0  0  0  0  0  0  0  0  0  0
  -23.4180  -28.8580   23.4120 O   0  0  0  0  0  0  0  0  0  0  0  0
  -20.9450  -29.8550   21.7480 H   0  0  0  0  0  0  0  0  0  0  0  0
  -18.0470  -28.0770   22.9390 C   0  0  0  0  0  0  0  0  0  0  0  0
  -20.6030  -28.3650   23.2140 C   0  0  0  0  0  3  0  0  0  0  0  0
  -20.7210  -26.9320   22.6450 C   0  0  0  0  0  2  0  0  0  0  0  0
  -19.6250  -26.5930   21.6280 C   0  0  0  0  0  2  0  0  0  0  0  0
  -18.2400  -26.7280   22.2650 C   0  0  0  0  0  2  0  0  0  0  0  0
  -19.1560  -28.8520   23.3710 C   0  0  0  0  0  0  0  0  0  0  0  0
  -18.9210  -30.1110   23.9650 C   0  0  0  0  0  3  0  0  0  0  0  0
  -17.6110  -30.5950   24.1320 C   0  0  0  0  0  3  0  0  0  0  0  0
  -16.5160  -29.8190   23.7140 C   0  0  0  0  0  3  0  0  0  0  0  0
  -16.7350  -28.5620   23.1240 C   0  0  0  0  0  3  0  0  0  0  0  0
  -25.9130  -32.5100   23.8830 C   0  0  0  0  0  3  0  0  0  0  0  0
  -25.6000  -33.9170   24.1980 N   0  0  0  0  0  0  0  0  0  0  0  0
  -25.9350  -34.9690   23.4390 C   0  0  0  0  0  0  0  0  0  0  0  0
  -26.6010  -34.8570   22.4060 O   0  0  0  0  0  0  0  0  0  0  0  0
  -25.0080  -34.0760   24.9990 H   0  0  0  0  0  0  0  0  0  0  0  0
  -24.2140  -36.7750   23.0900 C   0  0  0  0  0  1  0  0  0  0  0  0
  -25.4590  -36.3640   23.8930 C   0  0  0  0  0  3  0  0  0  0  0  0
  -27.5980  -37.2500   24.7130 C   0  0  0  0  0  1  0  0  0  0  0  0
  -26.4970  -37.4110   23.7680 N   0  0  0  0  0  0  0  0  0  0  0  0
  -26.0960  -38.3360   23.9040 H   0  0  0  0  0  0  0  0  0  0  0  0
  -26.4010  -31.7620   25.1850 C   0  0  1  0  0  0  0  0  0  0  0  0
  -25.2890  -31.5510   26.2390 C   0  0  0  0  0  1  0  0  0  0  0  0
  -26.9830  -30.3740   24.8360 C   0  0  0  0  0  1  0  0  0  0  0  0
  -27.5470  -32.5610   25.8500 C   0  0  0  0  0  1  0  0  0  0  0  0
  1  5  1  0
  2  1  1  0
  2  4  1  0
  4 15  1  0
  4  3  1  0
  5 45  1  0
  5  3  1  0
  6  1  2  0
  7 15  1  0
  8 13  1  0
  9 10  1  0
  9  8  1  0
 11 10  1  0
 11 20  1  0
 11 12  1  0
 13  7  1  0
 13 12  1  0
 14  7  2  0
 15 16  1  0
 17 18  2  0
 18 37  1  0
 19 18  1  0
 19 22  1  0
 20 21  1  0
 20 17  1  0
 21 19  2  0
 22 23  1  0
 23 24  2  0
 25 28  1  0
 25 24  1  0
 26 25  2  0
 27 26  1  0
 27 22  2  0
 28 29  1  0
 29 30  1  0
 30 31  2  0
 32 31  1  0
 32 36  1  0
 33 32  2  0
 34 29  2  0
 34 33  1  0
 35 34  1  0
 37 38  1  0
 38 41  1  0
 38 40  1  0
 39 37  2  0
 42 43  1  0
 42 17  1  0
 44 42  1  0
 46 47  1  0
 46 45  2  0
 48 59  2  0
 49 47  1  0
 49 54  1  0
 50 58  1  0
 50 60  1  0
 51 57  1  0
 51 53  1  0
 52 58  1  0
 53 54  2  0
 53 52  1  0
 55 49  2  0
 56 55  1  0
 56 51  2  0
 57 50  1  0
 58 48  1  0
 60 62  2  0
 61 60  1  0
 63 61  1  0
 64 73  2  0
 64 69  1  0
 65 61  1  0
 65 69  1  0
 66 65  1  0
 67 68  1  0
 67 66  1  0
 68 64  1  0
 69 70  2  0
 70 71  1  0
 72 71  2  0
 73 72  1  0
 74 48  1  0
 74 75  1  0
 74 84  1  0
 75 78  1  0
 76 80  1  0
 76 75  1  0
 77 76  2  0
 80 79  1  0
 82 80  1  0
 82 83  1  0
 82 81  1  0
 84 87  1  1
 84 85  1  0
 86 84  1  0
M  ISO  4   7 100  15 100  46 101  47 101
M  END
>  <TORSDO>  (11) 
F 18

>  <SCORE>  (11) 
-16.557

>  <name>  (11) 
11

>  <ligand_id>  (11) 
11

>  <original_smiles>  (11) 
[H]c1c([H])c([H])c2c(c1[H])C([H])([H])C([H])([H])C([H])([H])C2([H])N([H])C(=O)C1([H])N(C(=O)C([H])(N([H])C(=O)C([H])(N([H])C([H])([H])[H])C([H])([H])[H])C(C([H])([H])[H])(C([H])([H])[H])C([H])([H])[H])C([H])([H])c2c([H])c(OC([H])([H])C([H])([H])N3C(=O)C([H])([H])C([H])(N([H])C(=O)N4C([H])([H])C([H])([H])C([H])([H])C([H])(n5nc(-c6c([H])c([H])c(Oc7c([H])c([H])c(F)c([H])c7F)c([H])c6[H])c(C(=O)N([H])[H])c5N([H])[H])C4([H])[H])C3([H])[H])c([H])c([H])c2C1([H])[H]

>  <smiles>  (11) 
[H]c1c([H])c([H])c2c(c1[H])C([H])([H])C([H])([H])C([H])([H])C2([H])N([H])C(=O)C1([H])N(C(=O)C([H])(N([H])C(=O)C([H])(N([H])C([H])([H])[H])C([H])([H])[H])C(C([H])([H])[H])(C([H])([H])[H])C([H])([H])[H])C([H])([H])c2c([H])c(OC([H])([H])C([H])([H])N3C(=O)C([H])([H])C([H])(N([H])C(=O)N4C([H])([H])C([H])([H])C([H])([H])C([H])(n5nc(-c6c([H])c([H])c(Oc7c([H])c([H])c(F)c([H])c7F)c([H])c6[H])c(C(=O)N([H])[H])c5N([H])[H])C4([H])[H])C3([H])[H])c([H])c([H])c2C1([H])[H]

$$$$
12:0:0
     RDKit          3D

 96103  0  0  1  0  0  0  0  0999 V2000
  -29.9210  -18.5670   20.9970 C   0  0  0  0  0  0  0  0  0  0  0  0
  -29.8400  -19.8250   20.4360 N   0  0  0  0  0  0  0  0  0  0  0  0
  -29.7090  -18.3930   22.1960 O   0  0  0  0  0  0  0  0  0  0  0  0
  -30.0280  -19.8560   19.4440 H   0  0  0  0  0  0  0  0  0  0  0  0
  -29.6370  -21.1740   21.1010 C   0  0  0  0  0  3  0  0  0  0  0  0
  -29.0620  -22.3900   20.2210 C   0  0  0  0  0  3  0  0  0  0  0  0
  -29.1120  -23.9000   20.7850 C   0  0  0  0  0  3  0  0  0  0  0  0
  -28.2360  -25.0280   20.0520 C   0  0  0  0  0  3  0  0  0  0  0  0
  -28.3860  -26.4820   20.3670 O   0  0  0  0  0  0  0  0  0  0  0  0
  -24.6240  -31.9340   23.2470 C   0  0  0  0  0  0  0  0  0  0  0  0
  -27.2750  -27.3450   20.2570 C   0  0  0  0  0  0  0  0  0  0  0  0
  -23.4400  -30.5180   21.6090 C   0  0  0  0  0  3  0  0  0  0  0  0
  -24.9080  -28.9670   20.2010 C   0  0  0  0  0  0  0  0  0  0  0  0
  -25.9790  -30.8410   21.4460 C   0  0  0  0  0  2  0  0  0  0  0  0
  -26.0680  -29.4580   20.8110 C   0  0  0  0  0  0  0  0  0  0  0  0
  -27.2520  -28.6570   20.8360 C   0  0  0  0  0  3  0  0  0  0  0  0
  -26.0990  -26.9300   19.5910 C   0  0  0  0  0  3  0  0  0  0  0  0
  -24.9270  -27.7100   19.5800 C   0  0  0  0  0  3  0  0  0  0  0  0
  -23.6650  -29.8360   20.2330 C   0  0  0  0  0  2  0  0  0  0  0  0
  -24.6990  -31.1160   22.1570 N   0  0  0  0  0  0  0  0  0  0  0  0
  -23.5350  -32.2090   23.7720 O   0  0  0  0  0  0  0  0  0  0  0  0
  -22.7740  -29.5060   22.5720 C   0  0  0  0  0  0  0  0  0  0  0  0
  -21.4490  -29.3270   22.4400 N   0  0  0  0  0  0  0  0  0  0  0  0
  -23.4500  -28.8880   23.3990 O   0  0  0  0  0  0  0  0  0  0  0  0
  -20.9630  -29.8760   21.7450 H   0  0  0  0  0  0  0  0  0  0  0  0
  -18.0660  -28.1490   22.9500 C   0  0  0  0  0  0  0  0  0  0  0  0
  -20.6260  -28.3930   23.2140 C   0  0  0  0  0  3  0  0  0  0  0  0
  -20.7200  -26.9610   22.6400 C   0  0  0  0  0  2  0  0  0  0  0  0
  -19.6130  -26.6440   21.6290 C   0  0  0  0  0  2  0  0  0  0  0  0
  -18.2340  -26.7990   22.2750 C   0  0  0  0  0  2  0  0  0  0  0  0
  -19.1900  -28.9050   23.3780 C   0  0  0  0  0  0  0  0  0  0  0  0
  -18.9790  -30.1700   23.9680 C   0  0  0  0  0  3  0  0  0  0  0  0
  -17.6780  -30.6770   24.1380 C   0  0  0  0  0  3  0  0  0  0  0  0
  -16.5670  -29.9180   23.7280 C   0  0  0  0  0  3  0  0  0  0  0  0
  -16.7630  -28.6560   23.1380 C   0  0  0  0  0  3  0  0  0  0  0  0
  -25.8980  -32.5770   23.8730 C   0  0  0  0  0  3  0  0  0  0  0  0
  -26.4120  -31.8170   25.1580 C   0  0  1  0  0  0  0  0  0  0  0  0
  -25.3090  -31.5690   26.2140 C   0  0  0  0  0  1  0  0  0  0  0  0
  -27.0190  -30.4480   24.7780 C   0  0  0  0  0  1  0  0  0  0  0  0
  -27.5460  -32.6300   25.8280 C   0  0  0  0  0  1  0  0  0  0  0  0
  -25.5790  -33.9770   24.1940 N   0  0  0  0  0  0  0  0  0  0  0  0
  -25.9100  -35.0270   23.4300 C   0  0  0  0  0  0  0  0  0  0  0  0
  -26.5880  -34.9220   22.4050 O   0  0  0  0  0  0  0  0  0  0  0  0
  -24.9820  -34.1340   24.9920 H   0  0  0  0  0  0  0  0  0  0  0  0
  -24.1760  -36.8090   23.0610 C   0  0  0  0  0  1  0  0  0  0  0  0
  -25.4160  -36.4150   23.8790 C   0  0  0  0  0  3  0  0  0  0  0  0
  -27.5420  -37.3180   24.7130 C   0  0  0  0  0  1  0  0  0  0  0  0
  -26.4440  -37.4730   23.7620 N   0  0  0  0  0  0  0  0  0  0  0  0
  -26.0320  -38.3920   23.9030 H   0  0  0  0  0  0  0  0  0  0  0  0
  -30.2940  -17.3000   20.1090 C   0  0  0  0  0  3  0  0  0  0  0  0
  -30.8290  -14.7690   20.3510 C   0  0  0  0  0  0  0  0  0  0  0  0
  -30.5620  -12.5410   19.2790 C   0  0  0  0  0  2  0  0  0  0  0  0
  -29.6180  -12.6940   18.0630 C   0  0  0  0  0  2  0  0  0  0  0  0
  -28.1490  -12.5440   18.4980 C   0  0  0  0  0  2  0  0  0  0  0  0
  -27.8080  -13.3920   19.7530 C   0  0  0  0  0  3  0  0  0  0  0  0
  -28.8710  -13.2320   20.8620 C   0  0  0  0  0  2  0  0  0  0  0  0
  -30.1780  -13.5620   20.2780 N   0  0  0  0  0  0  0  0  0  0  0  0
  -31.9910  -14.8770   19.9490 O   0  0  0  0  0  0  0  0  0  0  0  0
  -30.0840  -15.8920   20.6390 N   0  0  0  0  0  0  0  0  0  0  0  0
  -29.1770  -15.7210   21.0470 H   0  0  0  0  0  0  0  0  0  0  0  0
  -25.4290  -14.0030   20.4930 C   0  0  0  0  0  0  0  0  0  0  0  0
  -24.3540  -13.2380   20.8570 C   0  0  0  0  0  0  0  0  0  0  0  0
  -24.8020  -11.8830   20.8050 C   0  0  0  0  0  0  0  0  0  0  0  0
  -26.4610  -13.1160   20.2420 N   0  0  0  0  0  0  0  0  0  0  0  0
  -26.0910  -11.8340   20.4890 N   0  0  0  0  0  0  0  0  0  0  0  0
  -24.0620  -10.6270   20.9800 C   0  0  0  0  0  0  0  0  0  0  0  0
  -24.4880   -9.6390   21.8960 C   0  0  0  0  0  3  0  0  0  0  0  0
  -23.7480   -8.4480   22.0590 C   0  0  0  0  0  3  0  0  0  0  0  0
  -22.5680   -8.2360   21.3070 C   0  0  0  0  0  0  0  0  0  0  0  0
  -22.1620   -9.2110   20.3780 C   0  0  0  0  0  3  0  0  0  0  0  0
  -22.9030  -10.3950   20.2140 C   0  0  0  0  0  3  0  0  0  0  0  0
  -21.8000   -7.1010   21.3820 O   0  0  0  0  0  0  0  0  0  0  0  0
  -21.7530   -6.3370   22.5210 C   0  0  0  0  0  0  0  0  0  0  0  0
  -21.3540   -6.8740   23.7640 C   0  0  0  0  0  3  0  0  0  0  0  0
  -21.2560   -6.0370   24.8940 C   0  0  0  0  0  3  0  0  0  0  0  0
  -21.5440   -4.6640   24.7800 C   0  0  0  0  0  0  0  0  0  0  0  0
  -21.9360   -4.1270   23.5420 C   0  0  0  0  0  3  0  0  0  0  0  0
  -22.0380   -4.9600   22.4150 C   0  0  0  0  0  0  0  0  0  0  0  0
  -22.3950   -4.4330   21.2190 F   0  0  0  0  0  0  0  0  0  0  0  0
  -21.4420   -3.8590   25.8630 F   0  0  0  0  0  0  0  0  0  0  0  0
  -22.9650  -13.7280   21.1420 C   0  0  0  0  0  0  0  0  0  0  0  0
  -22.2370  -13.0350   22.0100 N   0  0  0  0  0  0  0  0  0  0  0  0
  -22.5350  -14.7620   20.6310 O   0  0  0  0  0  0  0  0  0  0  0  0
  -22.5960  -12.1960   22.4410 H   0  0  0  0  0  0  0  0  0  0  0  0
  -21.3050  -13.3460   22.2460 H   0  0  0  0  0  0  0  0  0  0  0  0
  -25.6070  -15.3740   20.3370 N   0  0  0  0  0  0  0  0  0  0  0  0
  -24.8520  -16.0320   20.4890 H   0  0  0  0  0  0  0  0  0  0  0  0
  -26.4720  -15.8010   20.0410 H   0  0  0  0  0  0  0  0  0  0  0  0
  -29.6980  -17.3910   18.6820 C   0  0  0  0  0  2  0  0  0  0  0  0
  -28.2550  -17.9420   18.6250 C   0  0  0  0  0  2  0  0  0  0  0  0
  -28.1110  -19.1410   17.6700 C   0  0  0  0  0  2  0  0  0  0  0  0
  -26.7590  -19.8700   17.7890 C   0  0  0  0  0  2  0  0  0  0  0  0
  -26.7010  -20.7690   18.9560 N   0  0  0  0  0  4  0  0  0  0  0  0
  -26.9010  -20.2820   19.8110 H   0  0  0  0  0  0  0  0  0  0  0  0
  -25.7810  -21.1670   19.0300 H   0  0  0  0  0  0  0  0  0  0  0  0
  -27.3540  -21.5260   18.8520 H   0  0  0  0  0  0  0  0  0  0  0  0
  1  3  2  0
  2  1  1  0
  2  5  1  0
  4  2  1  0
  6  7  1  0
  6  5  2  0
  8  9  1  0
  8  7  2  0
 10 21  2  0
 11  9  1  0
 11 16  1  0
 12 20  1  0
 12 22  1  0
 13 19  1  0
 13 15  1  0
 14 20  1  0
 15 16  2  0
 15 14  1  0
 17 11  2  0
 18 17  1  0
 18 13  2  0
 19 12  1  0
 20 10  1  0
 22 24  2  0
 23 22  1  0
 25 23  1  0
 26 35  2  0
 26 31  1  0
 27 23  1  0
 27 31  1  0
 28 27  1  0
 29 30  1  0
 29 28  1  0
 30 26  1  0
 31 32  2  0
 32 33  1  0
 34 33  2  0
 35 34  1  0
 36 10  1  0
 36 41  1  0
 36 37  1  0
 37 40  1  1
 37 38  1  0
 39 37  1  0
 41 44  1  0
 42 46  1  0
 42 41  1  0
 43 42  2  0
 46 45  1  0
 48 46  1  0
 48 49  1  0
 48 47  1  0
 50 89  1  0
 50 59  1  0
 50  1  1  0
 51 59  1  0
 52 57  1  0
 53 54  1  0
 53 52  1  0
 55 54  1  0
 55 64  1  0
 55 56  1  0
 57 51  1  0
 57 56  1  0
 58 51  2  0
 59 60  1  0
 61 62  2  0
 62 81  1  0
 63 62  1  0
 63 66  1  0
 64 65  1  0
 64 61  1  0
 65 63  2  0
 66 67  1  0
 67 68  2  0
 69 72  1  0
 69 68  1  0
 70 69  2  0
 71 70  1  0
 71 66  2  0
 72 73  1  0
 73 74  1  0
 74 75  2  0
 76 75  1  0
 76 80  1  0
 77 76  2  0
 78 73  2  0
 78 77  1  0
 79 78  1  0
 81 82  1  0
 82 85  1  0
 82 84  1  0
 83 81  2  0
 86 87  1  0
 86 61  1  0
 88 86  1  0
 90 89  1  0
 91 92  1  0
 91 90  1  0
 92 93  1  0
 93 95  1  0
 93 94  1  0
 96 93  1  0
M  ISO  4   8 101   9 101  51 100  59 100
M  END
>  <TORSDO>  (12) 
F 26

>  <SCORE>  (12) 
-11.709

>  <name>  (12) 
12

>  <ligand_id>  (12) 
12

>  <original_smiles>  (12) 
[H]c1c([H])c([H])c2c(c1[H])C([H])([H])C([H])([H])C([H])([H])C2([H])N([H])C(=O)C1([H])N(C(=O)C([H])(N([H])C(=O)C([H])(N([H])C([H])([H])[H])C([H])([H])[H])C(C([H])([H])[H])(C([H])([H])[H])C([H])([H])[H])C([H])([H])c2c([H])c(OC([H])([H])C([H])([H])C([H])([H])C([H])([H])N([H])C(=O)C([H])(N([H])C(=O)N3C([H])([H])C([H])([H])C([H])([H])C([H])(n4nc(-c5c([H])c([H])c(Oc6c([H])c([H])c(F)c([H])c6F)c([H])c5[H])c(C(=O)N([H])[H])c4N([H])[H])C3([H])[H])C([H])([H])C([H])([H])C([H])([H])C([H])([H])[N+]([H])([H])[H])c([H])c([H])c2C1([H])[H]

>  <smiles>  (12) 
[H]c1c([H])c([H])c2c(c1[H])C([H])([H])C([H])([H])C([H])([H])C2([H])N([H])C(=O)C1([H])N(C(=O)C([H])(N([H])C(=O)C([H])(N([H])C([H])([H])[H])C([H])([H])[H])C(C([H])([H])[H])(C([H])([H])[H])C([H])([H])[H])C([H])([H])c2c([H])c(OC([H])([H])C([H])([H])C([H])([H])C([H])([H])N([H])C(=O)C([H])(N([H])C(=O)N3C([H])([H])C([H])([H])C([H])([H])C([H])(n4nc(-c5c([H])c([H])c(Oc6c([H])c([H])c(F)c([H])c6F)c([H])c5[H])c(C(=O)N([H])[H])c4N([H])[H])C3([H])[H])C([H])([H])C([H])([H])C([H])([H])C([H])([H])[N+]([H])([H])[H])c([H])c([H])c2C1([H])[H]

$$$$
13:0:0
     RDKit          3D

 92100  0  0  1  0  0  0  0  0999 V2000
  -29.7460  -17.6580   20.4100 C   0  0  0  0  0  0  0  0  0  0  0  0
  -29.4880  -19.8620   19.2910 C   0  0  0  0  0  2  0  0  0  0  0  0
  -30.9480  -19.7070   21.2440 C   0  0  0  0  0  2  0  0  0  0  0  0
  -28.8350  -21.1430   19.8610 C   0  0  0  0  0  2  0  0  0  0  0  0
  -30.3010  -20.9850   21.8260 C   0  0  0  0  0  2  0  0  0  0  0  0
  -30.0200  -18.9910   20.3540 N   0  0  0  0  0  0  0  0  0  0  0  0
  -29.7440  -21.8830   20.7760 N   0  0  2  0  0  4  0  0  0  0  0  0
  -28.9500  -17.1230   19.6310 O   0  0  0  0  0  0  0  0  0  0  0  0
  -30.5350  -22.1870   20.2280 H   0  0  0  0  0  0  0  0  0  0  0  0
  -30.4330  -16.7670   21.4700 C   0  0  0  0  0  2  0  0  0  0  0  0
  -30.6810  -14.4420   20.5660 C   0  0  0  0  0  0  0  0  0  0  0  0
  -30.3610  -12.3390   19.3150 C   0  0  0  0  0  2  0  0  0  0  0  0
  -29.4170  -12.5850   18.1210 C   0  0  0  0  0  2  0  0  0  0  0  0
  -27.9430  -12.4500   18.5460 C   0  0  0  0  0  2  0  0  0  0  0  0
  -27.6150  -13.2550   19.8310 C   0  0  0  0  0  3  0  0  0  0  0  0
  -28.6630  -12.9740   20.9310 C   0  0  0  0  0  2  0  0  0  0  0  0
  -29.9970  -13.2820   20.3820 N   0  0  0  0  0  0  0  0  0  0  0  0
  -31.7530  -14.6930   20.0080 O   0  0  0  0  0  0  0  0  0  0  0  0
  -30.0700  -15.3470   21.3440 N   0  0  0  0  0  0  0  0  0  0  0  0
  -29.1850  -15.0710   21.7400 H   0  0  0  0  0  0  0  0  0  0  0  0
  -25.2110  -13.8720   20.5160 C   0  0  0  0  0  0  0  0  0  0  0  0
  -24.1390  -13.1030   20.8820 C   0  0  0  0  0  0  0  0  0  0  0  0
  -24.5970  -11.7510   20.8610 C   0  0  0  0  0  0  0  0  0  0  0  0
  -26.2560  -12.9880   20.2990 N   0  0  0  0  0  0  0  0  0  0  0  0
  -25.8890  -11.7070   20.5600 N   0  0  0  0  0  0  0  0  0  0  0  0
  -23.8680  -10.4890   21.0540 C   0  0  0  0  0  0  0  0  0  0  0  0
  -24.3040   -9.5190   21.9830 C   0  0  0  0  0  3  0  0  0  0  0  0
  -23.5770   -8.3240   22.1630 C   0  0  0  0  0  3  0  0  0  0  0  0
  -22.4000   -8.0890   21.4130 C   0  0  0  0  0  0  0  0  0  0  0  0
  -21.9840   -9.0470   20.4730 C   0  0  0  0  0  3  0  0  0  0  0  0
  -22.7120  -10.2350   20.2910 C   0  0  0  0  0  3  0  0  0  0  0  0
  -21.6440   -6.9440   21.5020 O   0  0  0  0  0  0  0  0  0  0  0  0
  -21.6080   -6.1930   22.6490 C   0  0  0  0  0  0  0  0  0  0  0  0
  -21.2120   -6.7420   23.8880 C   0  0  0  0  0  3  0  0  0  0  0  0
  -21.1230   -5.9180   25.0270 C   0  0  0  0  0  3  0  0  0  0  0  0
  -21.4190   -4.5450   24.9290 C   0  0  0  0  0  0  0  0  0  0  0  0
  -21.8080   -3.9950   23.6950 C   0  0  0  0  0  3  0  0  0  0  0  0
  -21.8990   -4.8170   22.5580 C   0  0  0  0  0  0  0  0  0  0  0  0
  -22.2540   -4.2780   21.3660 F   0  0  0  0  0  0  0  0  0  0  0  0
  -21.3260   -3.7500   26.0210 F   0  0  0  0  0  0  0  0  0  0  0  0
  -22.7400  -13.5830   21.1460 C   0  0  0  0  0  0  0  0  0  0  0  0
  -22.0070  -12.8910   22.0120 N   0  0  0  0  0  0  0  0  0  0  0  0
  -22.3050  -14.6070   20.6200 O   0  0  0  0  0  0  0  0  0  0  0  0
  -22.3710  -12.0640   22.4600 H   0  0  0  0  0  0  0  0  0  0  0  0
  -21.0690  -13.1950   22.2310 H   0  0  0  0  0  0  0  0  0  0  0  0
  -25.3800  -15.2420   20.3330 N   0  0  0  0  0  0  0  0  0  0  0  0
  -24.6150  -15.9000   20.4310 H   0  0  0  0  0  0  0  0  0  0  0  0
  -26.2390  -15.6740   20.0130 H   0  0  0  0  0  0  0  0  0  0  0  0
  -29.1340  -23.1190   21.3560 C   0  0  0  0  0  2  0  0  0  0  0  0
  -29.0680  -24.3330   20.3920 C   0  0  0  0  0  2  0  0  0  0  0  0
  -28.4450  -25.5790   21.0650 C   0  0  0  0  0  2  0  0  0  0  0  0
  -28.4820  -26.7380   20.2200 O   0  0  0  0  0  0  0  0  0  0  0  0
  -24.6160  -31.9010   23.2470 C   0  0  0  0  0  0  0  0  0  0  0  0
  -27.3190  -27.4710   20.2170 C   0  0  0  0  0  0  0  0  0  0  0  0
  -23.4350  -30.4860   21.5970 C   0  0  0  0  0  3  0  0  0  0  0  0
  -24.9130  -28.9490   20.1960 C   0  0  0  0  0  0  0  0  0  0  0  0
  -25.9590  -30.8630   21.4210 C   0  0  0  0  0  2  0  0  0  0  0  0
  -26.0610  -29.4890   20.7910 C   0  0  0  0  0  0  0  0  0  0  0  0
  -27.2700  -28.7580   20.7970 C   0  0  0  0  0  3  0  0  0  0  0  0
  -26.1580  -26.9390   19.6190 C   0  0  0  0  0  3  0  0  0  0  0  0
  -24.9550  -27.6720   19.6070 C   0  0  0  0  0  3  0  0  0  0  0  0
  -23.6620  -29.7990   20.2240 C   0  0  0  0  0  2  0  0  0  0  0  0
  -24.6870  -31.0990   22.1470 N   0  0  0  0  0  0  0  0  0  0  0  0
  -23.5290  -32.1700   23.7740 O   0  0  0  0  0  0  0  0  0  0  0  0
  -22.7790  -29.4670   22.5560 C   0  0  0  0  0  0  0  0  0  0  0  0
  -21.4560  -29.2780   22.4140 N   0  0  0  0  0  0  0  0  0  0  0  0
  -23.4560  -28.8470   23.3810 O   0  0  0  0  0  0  0  0  0  0  0  0
  -20.9710  -29.8290   21.7210 H   0  0  0  0  0  0  0  0  0  0  0  0
  -18.0830  -28.0680   22.8730 C   0  0  0  0  0  0  0  0  0  0  0  0
  -20.6350  -28.3400   23.1790 C   0  0  0  0  0  3  0  0  0  0  0  0
  -20.7530  -26.9070   22.6120 C   0  0  0  0  0  2  0  0  0  0  0  0
  -19.6670  -26.5730   21.5840 C   0  0  0  0  0  2  0  0  0  0  0  0
  -18.2760  -26.7160   22.2080 C   0  0  0  0  0  2  0  0  0  0  0  0
  -19.1920  -28.8380   23.3150 C   0  0  0  0  0  0  0  0  0  0  0  0
  -18.9590  -30.1040   23.8940 C   0  0  0  0  0  3  0  0  0  0  0  0
  -17.6500  -30.6000   24.0380 C   0  0  0  0  0  3  0  0  0  0  0  0
  -16.5550  -29.8280   23.6130 C   0  0  0  0  0  3  0  0  0  0  0  0
  -16.7730  -28.5630   23.0370 C   0  0  0  0  0  3  0  0  0  0  0  0
  -25.8930  -32.5410   23.8780 C   0  0  0  0  0  3  0  0  0  0  0  0
  -26.4030  -31.7750   25.1600 C   0  0  1  0  0  0  0  0  0  0  0  0
  -25.3040  -31.5370   26.2200 C   0  0  0  0  0  1  0  0  0  0  0  0
  -26.9940  -30.3990   24.7740 C   0  0  0  0  0  1  0  0  0  0  0  0
  -27.5460  -32.5750   25.8280 C   0  0  0  0  0  1  0  0  0  0  0  0
  -25.5760  -33.9380   24.1980 N   0  0  0  0  0  0  0  0  0  0  0  0
  -25.9130  -34.9880   23.4350 C   0  0  0  0  0  0  0  0  0  0  0  0
  -26.5940  -34.8810   22.4130 O   0  0  0  0  0  0  0  0  0  0  0  0
  -24.9730  -34.0950   24.9920 H   0  0  0  0  0  0  0  0  0  0  0  0
  -24.1790  -36.7690   23.0520 C   0  0  0  0  0  1  0  0  0  0  0  0
  -25.4140  -36.3760   23.8800 C   0  0  0  0  0  3  0  0  0  0  0  0
  -27.5390  -37.2730   24.7240 C   0  0  0  0  0  1  0  0  0  0  0  0
  -26.4420  -37.4340   23.7720 N   0  0  0  0  0  0  0  0  0  0  0  0
  -26.0300  -38.3520   23.9160 H   0  0  0  0  0  0  0  0  0  0  0  0
  1 10  1  0
  2  4  1  0
  2  6  1  0
  3  5  1  0
  4  7  1  0
  6  1  1  0
  6  3  1  0
  7 49  1  0
  7  5  1  0
  8  1  2  0
  7  9  1  6
 11 19  1  0
 12 17  1  0
 13 14  1  0
 13 12  1  0
 15 14  1  0
 15 24  1  0
 15 16  1  0
 17 11  1  0
 17 16  1  0
 18 11  2  0
 19 10  1  0
 19 20  1  0
 21 22  2  0
 22 41  1  0
 23 22  1  0
 23 26  1  0
 24 21  1  0
 24 25  1  0
 25 23  2  0
 26 27  1  0
 27 28  2  0
 29 32  1  0
 29 28  1  0
 30 29  2  0
 31 30  1  0
 31 26  2  0
 32 33  1  0
 33 34  1  0
 34 35  2  0
 36 35  1  0
 36 40  1  0
 37 36  2  0
 38 33  2  0
 38 37  1  0
 39 38  1  0
 41 42  1  0
 42 45  1  0
 42 44  1  0
 43 41  2  0
 46 47  1  0
 46 21  1  0
 48 46  1  0
 50 51  1  0
 50 49  1  0
 52 51  1  0
 53 64  2  0
 54 52  1  0
 54 59  1  0
 55 63  1  0
 55 65  1  0
 56 62  1  0
 56 58  1  0
 57 63  1  0
 58 59  2  0
 58 57  1  0
 60 54  2  0
 61 60  1  0
 61 56  2  0
 62 55  1  0
 63 53  1  0
 65 67  2  0
 66 65  1  0
 68 66  1  0
 69 78  2  0
 69 74  1  0
 70 66  1  0
 70 74  1  0
 71 70  1  0
 72 73  1  0
 72 71  1  0
 73 69  1  0
 74 75  2  0
 75 76  1  0
 77 76  2  0
 78 77  1  0
 79 53  1  0
 79 84  1  0
 79 80  1  0
 80 83  1  1
 80 81  1  0
 82 80  1  0
 84 87  1  0
 85 89  1  0
 85 84  1  0
 86 85  2  0
 89 88  1  0
 91 89  1  0
 91 92  1  0
 91 90  1  0
M  ISO  4  11 100  19 100  51 101  52 101
M  END
>  <TORSDO>  (13) 
F 20

>  <SCORE>  (13) 
-14.142

>  <name>  (13) 
13

>  <ligand_id>  (13) 
13

>  <original_smiles>  (13) 
[H]c1c([H])c([H])c2c(c1[H])C([H])([H])C([H])([H])C([H])([H])C2([H])N([H])C(=O)C1([H])N(C(=O)C([H])(N([H])C(=O)C([H])(N([H])C([H])([H])[H])C([H])([H])[H])C(C([H])([H])[H])(C([H])([H])[H])C([H])([H])[H])C([H])([H])c2c([H])c(OC([H])([H])C([H])([H])C([H])([H])[N+]3([H])C([H])([H])C([H])([H])N(C(=O)C([H])([H])N([H])C(=O)N4C([H])([H])C([H])([H])C([H])([H])C([H])(n5nc(-c6c([H])c([H])c(Oc7c([H])c([H])c(F)c([H])c7F)c([H])c6[H])c(C(=O)N([H])[H])c5N([H])[H])C4([H])[H])C([H])([H])C3([H])[H])c([H])c([H])c2C1([H])[H]

>  <smiles>  (13) 
[H]c1c([H])c([H])c2c(c1[H])C([H])([H])C([H])([H])C([H])([H])C2([H])N([H])C(=O)C1([H])N(C(=O)C([H])(N([H])C(=O)C([H])(N([H])C([H])([H])[H])C([H])([H])[H])C(C([H])([H])[H])(C([H])([H])[H])C([H])([H])[H])C([H])([H])c2c([H])c(OC([H])([H])C([H])([H])C([H])([H])[N+]3([H])C([H])([H])C([H])([H])N(C(=O)C([H])([H])N([H])C(=O)N4C([H])([H])C([H])([H])C([H])([H])C([H])(n5nc(-c6c([H])c([H])c(Oc7c([H])c([H])c(F)c([H])c7F)c([H])c6[H])c(C(=O)N([H])[H])c5N([H])[H])C4([H])[H])C([H])([H])C3([H])[H])c([H])c([H])c2C1([H])[H]

$$$$
14:0:0
     RDKit          3D

 92 99  0  0  1  0  0  0  0  0999 V2000
  -28.9770  -19.9380   21.1220 C   0  0  0  0  0  2  0  0  0  0  0  0
  -29.5020  -19.0450   22.2590 C   0  0  0  0  0  2  0  0  0  0  0  0
  -29.7070  -17.6060   21.8010 C   0  0  0  0  0  0  0  0  0  0  0  0
  -30.9440  -17.2730   21.4150 N   0  0  0  0  0  0  0  0  0  0  0  0
  -28.7620  -16.8160   21.8050 O   0  0  0  0  0  0  0  0  0  0  0  0
  -31.6720  -17.9750   21.4630 H   0  0  0  0  0  0  0  0  0  0  0  0
  -31.2990  -15.9640   20.8930 C   0  0  0  0  0  2  0  0  0  0  0  0
  -32.8060  -15.8770   20.5710 C   0  0  0  0  0  2  0  0  0  0  0  0
  -33.4580  -14.1220   18.8870 C   0  0  0  0  0  0  0  0  0  0  0  0
  -33.0200  -11.6900   18.8390 C   0  0  0  0  0  2  0  0  0  0  0  0
  -31.9710  -11.3280   17.7630 C   0  0  0  0  0  2  0  0  0  0  0  0
  -30.5310  -11.5110   18.2820 C   0  0  0  0  0  2  0  0  0  0  0  0
  -30.3270  -12.8710   18.9970 C   0  0  0  0  0  3  0  0  0  0  0  0
  -31.4490  -13.0610   20.0310 C   0  0  0  0  0  2  0  0  0  0  0  0
  -32.7410  -13.0510   19.3250 N   0  0  0  0  0  0  0  0  0  0  0  0
  -34.4070  -14.0110   18.1020 O   0  0  0  0  0  0  0  0  0  0  0  0
  -33.0240  -15.3500   19.2200 N   0  0  0  0  0  0  0  0  0  0  0  0
  -33.4030  -16.0500   18.6010 H   0  0  0  0  0  0  0  0  0  0  0  0
  -28.2890  -14.0830   20.0080 C   0  0  0  0  0  0  0  0  0  0  0  0
  -27.0920  -13.6140   20.4840 C   0  0  0  0  0  0  0  0  0  0  0  0
  -27.1410  -12.1940   20.3450 C   0  0  0  0  0  0  0  0  0  0  0  0
  -29.0080  -12.9600   19.6220 N   0  0  0  0  0  0  0  0  0  0  0  0
  -28.3230  -11.8170   19.8780 N   0  0  0  0  0  0  0  0  0  0  0  0
  -26.1130  -11.1720   20.5760 C   0  0  0  0  0  0  0  0  0  0  0  0
  -26.2690  -10.1860   21.5730 C   0  0  0  0  0  3  0  0  0  0  0  0
  -25.2600   -9.2250   21.7970 C   0  0  0  0  0  3  0  0  0  0  0  0
  -24.0770   -9.2470   21.0180 C   0  0  0  0  0  0  0  0  0  0  0  0
  -23.9340  -10.2190   20.0120 C   0  0  0  0  0  3  0  0  0  0  0  0
  -24.9430  -11.1690   19.7900 C   0  0  0  0  0  3  0  0  0  0  0  0
  -23.0570   -8.3330   21.1390 O   0  0  0  0  0  0  0  0  0  0  0  0
  -22.6380   -7.8800   22.3620 C   0  0  0  0  0  0  0  0  0  0  0  0
  -22.1900   -8.7640   23.3680 C   0  0  0  0  0  3  0  0  0  0  0  0
  -21.7030   -8.2540   24.5900 C   0  0  0  0  0  3  0  0  0  0  0  0
  -21.6500   -6.8630   24.8020 C   0  0  0  0  0  0  0  0  0  0  0  0
  -22.0900   -5.9820   23.7970 C   0  0  0  0  0  3  0  0  0  0  0  0
  -22.5810   -6.4890   22.5800 C   0  0  0  0  0  0  0  0  0  0  0  0
  -22.9860   -5.6330   21.6120 F   0  0  0  0  0  0  0  0  0  0  0  0
  -21.1780   -6.3720   25.9710 F   0  0  0  0  0  0  0  0  0  0  0  0
  -25.9240  -14.4400   20.9440 C   0  0  0  0  0  0  0  0  0  0  0  0
  -25.1550  -13.9310   21.8980 N   0  0  0  0  0  0  0  0  0  0  0  0
  -25.7100  -15.5630   20.4870 O   0  0  0  0  0  0  0  0  0  0  0  0
  -25.3440  -13.0210   22.2910 H   0  0  0  0  0  0  0  0  0  0  0  0
  -24.3730  -14.4650   22.2470 H   0  0  0  0  0  0  0  0  0  0  0  0
  -28.8120  -15.3620   19.8500 N   0  0  0  0  0  0  0  0  0  0  0  0
  -28.2920  -16.1910   20.1110 H   0  0  0  0  0  0  0  0  0  0  0  0
  -29.7130  -15.5740   19.4420 H   0  0  0  0  0  0  0  0  0  0  0  0
  -29.0720  -21.4260   21.4910 C   0  0  0  0  0  2  0  0  0  0  0  0
  -28.8660  -22.3640   20.2970 C   0  0  0  0  0  2  0  0  0  0  0  0
  -29.0240  -23.8340   20.7100 C   0  0  0  0  0  2  0  0  0  0  0  0
  -28.8000  -24.8090   19.5470 C   0  0  0  0  0  2  0  0  0  0  0  0
  -28.9550  -26.2730   19.9790 C   0  0  0  0  0  2  0  0  0  0  0  0
  -28.5340  -27.1170   18.9150 O   0  0  0  0  0  0  0  0  0  0  0  0
  -24.5510  -31.4030   22.9450 C   0  0  0  0  0  0  0  0  0  0  0  0
  -27.3070  -27.6840   19.1290 C   0  0  0  0  0  0  0  0  0  0  0  0
  -23.3300  -30.0710   21.2510 C   0  0  0  0  0  3  0  0  0  0  0  0
  -24.7840  -28.8680   19.5340 C   0  0  0  0  0  0  0  0  0  0  0  0
  -25.7690  -30.7280   20.8840 C   0  0  0  0  0  2  0  0  0  0  0  0
  -25.9290  -29.4520   20.0900 C   0  0  0  0  0  0  0  0  0  0  0  0
  -27.1940  -28.8610   19.8950 C   0  0  0  0  0  3  0  0  0  0  0  0
  -26.1540  -27.1000   18.5720 C   0  0  0  0  0  3  0  0  0  0  0  0
  -24.8890  -27.6870   18.7770 C   0  0  0  0  0  3  0  0  0  0  0  0
  -23.4690  -29.5740   19.7870 C   0  0  0  0  0  2  0  0  0  0  0  0
  -24.5720  -30.7430   21.7520 N   0  0  0  0  0  0  0  0  0  0  0  0
  -23.5070  -31.4970   23.6060 O   0  0  0  0  0  0  0  0  0  0  0  0
  -22.8780  -28.8860   22.1330 C   0  0  0  0  0  0  0  0  0  0  0  0
  -21.6060  -28.4830   21.9820 N   0  0  0  0  0  0  0  0  0  0  0  0
  -23.6670  -28.3330   22.9040 O   0  0  0  0  0  0  0  0  0  0  0  0
  -21.0210  -28.9960   21.3350 H   0  0  0  0  0  0  0  0  0  0  0  0
  -18.5370  -26.6040   22.2610 C   0  0  0  0  0  0  0  0  0  0  0  0
  -20.9700  -27.3670   22.6770 C   0  0  0  0  0  3  0  0  0  0  0  0
  -21.3940  -26.0150   22.0560 C   0  0  0  0  0  2  0  0  0  0  0  0
  -20.4290  -25.5200   20.9740 C   0  0  0  0  0  2  0  0  0  0  0  0
  -19.0190  -25.3490   21.5490 C   0  0  0  0  0  2  0  0  0  0  0  0
  -19.4530  -27.5580   22.7760 C   0  0  0  0  0  0  0  0  0  0  0  0
  -18.9530  -28.7230   23.3950 C   0  0  0  0  0  3  0  0  0  0  0  0
  -17.5670  -28.9400   23.5090 C   0  0  0  0  0  3  0  0  0  0  0  0
  -16.6640  -27.9850   23.0100 C   0  0  0  0  0  3  0  0  0  0  0  0
  -17.1490  -26.8190   22.3920 C   0  0  0  0  0  3  0  0  0  0  0  0
  -25.8280  -32.0890   23.5230 C   0  0  0  0  0  3  0  0  0  0  0  0
  -26.5040  -31.2650   24.6870 C   0  0  1  0  0  0  0  0  0  0  0  0
  -25.5120  -30.8160   25.7850 C   0  0  0  0  0  1  0  0  0  0  0  0
  -27.1950  -29.9990   24.1270 C   0  0  0  0  0  1  0  0  0  0  0  0
  -27.6060  -32.1130   25.3630 C   0  0  0  0  0  1  0  0  0  0  0  0
  -25.4380  -33.4250   23.9910 N   0  0  0  0  0  0  0  0  0  0  0  0
  -25.6860  -34.5630   23.3280 C   0  0  0  0  0  0  0  0  0  0  0  0
  -26.3410  -34.6000   22.2820 O   0  0  0  0  0  0  0  0  0  0  0  0
  -24.8500  -33.4650   24.8110 H   0  0  0  0  0  0  0  0  0  0  0  0
  -23.8580  -36.2790   23.1350 C   0  0  0  0  0  1  0  0  0  0  0  0
  -25.1160  -35.8660   23.9170 C   0  0  0  0  0  3  0  0  0  0  0  0
  -27.1940  -36.7780   24.8540 C   0  0  0  0  0  1  0  0  0  0  0  0
  -26.0860  -36.9830   23.9260 N   0  0  0  0  0  0  0  0  0  0  0  0
  -25.6270  -37.8570   24.1660 H   0  0  0  0  0  0  0  0  0  0  0  0
  1 47  1  0
  1  2  1  0
  3  5  2  0
  3  2  1  0
  4  6  1  0
  4  3  1  0
  7  4  1  0
  8  7  1  0
  9 17  1  0
  9 15  1  0
 10 15  1  0
 11 12  1  0
 11 10  1  0
 13 12  1  0
 13 22  1  0
 13 14  1  0
 15 14  1  0
 16  9  2  0
 17  8  1  0
 18 17  1  0
 19 20  2  0
 20 39  1  0
 21 20  1  0
 21 24  1  0
 22 23  1  0
 22 19  1  0
 23 21  2  0
 24 25  1  0
 25 26  2  0
 27 30  1  0
 27 26  1  0
 28 27  2  0
 29 28  1  0
 29 24  2  0
 30 31  1  0
 31 36  2  0
 31 32  1  0
 32 33  2  0
 33 34  1  0
 34 38  1  0
 35 34  2  0
 36 35  1  0
 37 36  1  0
 39 40  1  0
 40 43  1  0
 40 42  1  0
 41 39  2  0
 44 19  1  0
 44 45  1  0
 46 44  1  0
 48 49  1  0
 48 47  1  0
 50 51  1  0
 50 49  1  0
 52 54  1  0
 52 51  1  0
 53 64  2  0
 54 59  1  0
 55 63  1  0
 55 65  1  0
 56 62  1  0
 56 58  1  0
 57 63  1  0
 58 57  1  0
 59 58  2  0
 60 61  1  0
 60 54  2  0
 61 56  2  0
 62 55  1  0
 63 53  1  0
 65 67  2  0
 66 65  1  0
 68 66  1  0
 69 78  2  0
 69 74  1  0
 70 66  1  0
 70 74  1  0
 71 70  1  0
 72 73  1  0
 72 71  1  0
 73 69  1  0
 74 75  2  0
 75 76  1  0
 77 76  2  0
 78 77  1  0
 79 53  1  0
 79 84  1  0
 79 80  1  0
 80 83  1  1
 80 81  1  0
 82 80  1  0
 84 87  1  0
 85 89  1  0
 85 84  1  0
 86 85  2  0
 89 88  1  0
 89 91  1  0
 91 92  1  0
 91 90  1  0
M  ISO  4   9 100  17 100  51 101  52 101
M  END
>  <TORSDO>  (14) 
F 25

>  <SCORE>  (14) 
-4.442

>  <name>  (14) 
14

>  <ligand_id>  (14) 
14

>  <original_smiles>  (14) 
[H]c1c([H])c([H])c2c(c1[H])C([H])([H])C([H])([H])C([H])([H])C2([H])N([H])C(=O)C1([H])N(C(=O)C([H])(N([H])C(=O)C([H])(N([H])C([H])([H])[H])C([H])([H])[H])C(C([H])([H])[H])(C([H])([H])[H])C([H])([H])[H])C([H])([H])c2c([H])c(OC([H])([H])C([H])([H])C([H])([H])C([H])([H])C([H])([H])C([H])([H])C([H])([H])C(=O)N([H])C([H])([H])C([H])([H])N([H])C(=O)N3C([H])([H])C([H])([H])C([H])([H])C([H])(n4nc(-c5c([H])c([H])c(Oc6c([H])c([H])c(F)c([H])c6F)c([H])c5[H])c(C(=O)N([H])[H])c4N([H])[H])C3([H])[H])c([H])c([H])c2C1([H])[H]

>  <smiles>  (14) 
[H]c1c([H])c([H])c2c(c1[H])C([H])([H])C([H])([H])C([H])([H])C2([H])N([H])C(=O)C1([H])N(C(=O)C([H])(N([H])C(=O)C([H])(N([H])C([H])([H])[H])C([H])([H])[H])C(C([H])([H])[H])(C([H])([H])[H])C([H])([H])[H])C([H])([H])c2c([H])c(OC([H])([H])C([H])([H])C([H])([H])C([H])([H])C([H])([H])C([H])([H])C([H])([H])C(=O)N([H])C([H])([H])C([H])([H])N([H])C(=O)N3C([H])([H])C([H])([H])C([H])([H])C([H])(n4nc(-c5c([H])c([H])c(Oc6c([H])c([H])c(F)c([H])c6F)c([H])c5[H])c(C(=O)N([H])[H])c4N([H])[H])C3([H])[H])c([H])c([H])c2C1([H])[H]

$$$$
15:0:0
     RDKit          3D

 87 94  0  0  1  0  0  0  0  0999 V2000
  -28.5360  -21.7890   20.2570 C   0  0  0  0  0  0  0  0  0  0  0  0
  -29.3510  -20.6330   20.4470 N   0  0  0  0  0  0  0  0  0  0  0  0
  -27.3550  -21.5930   19.9680 O   0  0  0  0  0  0  0  0  0  0  0  0
  -30.3170  -20.8380   20.6750 H   0  0  0  0  0  0  0  0  0  0  0  0
  -28.9820  -23.3870   20.3930 C   0  0  0  0  0  3  0  0  0  0  0  0
  -27.9680  -24.7180   20.1040 C   0  0  0  0  0  3  0  0  0  0  0  0
  -28.2450  -26.2490   20.2930 O   0  0  0  0  0  0  0  0  0  0  0  0
  -24.6260  -31.9510   23.2800 C   0  0  0  0  0  0  0  0  0  0  0  0
  -27.1910  -27.2390   20.2290 C   0  0  0  0  0  0  0  0  0  0  0  0
  -23.4220  -30.5630   21.6390 C   0  0  0  0  0  3  0  0  0  0  0  0
  -24.8660  -28.9920   20.2050 C   0  0  0  0  0  0  0  0  0  0  0  0
  -25.9760  -30.8240   21.4710 C   0  0  0  0  0  2  0  0  0  0  0  0
  -26.0480  -29.4350   20.8130 C   0  0  0  0  0  0  0  0  0  0  0  0
  -27.2120  -28.5740   20.8060 C   0  0  0  0  0  3  0  0  0  0  0  0
  -25.9820  -26.9010   19.5820 C   0  0  0  0  0  3  0  0  0  0  0  0
  -24.8460  -27.7400   19.5730 C   0  0  0  0  0  3  0  0  0  0  0  0
  -23.6410  -29.8910   20.2560 C   0  0  0  0  0  2  0  0  0  0  0  0
  -24.6950  -31.1340   22.1850 N   0  0  0  0  0  0  0  0  0  0  0  0
  -23.5400  -32.2350   23.8110 O   0  0  0  0  0  0  0  0  0  0  0  0
  -22.7440  -29.5530   22.5980 C   0  0  0  0  0  0  0  0  0  0  0  0
  -21.4170  -29.3740   22.4640 N   0  0  0  0  0  0  0  0  0  0  0  0
  -23.4130  -28.9330   23.4280 O   0  0  0  0  0  0  0  0  0  0  0  0
  -20.9320  -29.9260   21.7690 H   0  0  0  0  0  0  0  0  0  0  0  0
  -18.0360  -28.1720   22.9650 C   0  0  0  0  0  0  0  0  0  0  0  0
  -20.5950  -28.4350   23.2320 C   0  0  0  0  0  3  0  0  0  0  0  0
  -20.6970  -27.0040   22.6520 C   0  0  0  0  0  2  0  0  0  0  0  0
  -19.5950  -26.6840   21.6370 C   0  0  0  0  0  2  0  0  0  0  0  0
  -18.2140  -26.8260   22.2820 C   0  0  0  0  0  2  0  0  0  0  0  0
  -19.1540  -28.9340   23.3960 C   0  0  0  0  0  0  0  0  0  0  0  0
  -18.9330  -30.1930   23.9960 C   0  0  0  0  0  3  0  0  0  0  0  0
  -17.6280  -30.6890   24.1670 C   0  0  0  0  0  3  0  0  0  0  0  0
  -16.5240  -29.9250   23.7500 C   0  0  0  0  0  3  0  0  0  0  0  0
  -16.7290  -28.6670   23.1550 C   0  0  0  0  0  3  0  0  0  0  0  0
  -25.9060  -32.5840   23.9080 C   0  0  0  0  0  3  0  0  0  0  0  0
  -26.4080  -31.8180   25.1940 C   0  0  1  0  0  0  0  0  0  0  0  0
  -25.3040  -31.5850   26.2510 C   0  0  0  0  0  1  0  0  0  0  0  0
  -26.9960  -30.4390   24.8180 C   0  0  0  0  0  1  0  0  0  0  0  0
  -27.5510  -32.6160   25.8640 C   0  0  0  0  0  1  0  0  0  0  0  0
  -25.5990  -33.9850   24.2350 N   0  0  0  0  0  0  0  0  0  0  0  0
  -25.9050  -35.0350   23.4620 C   0  0  0  0  0  0  0  0  0  0  0  0
  -26.5440  -34.9260   22.4120 O   0  0  0  0  0  0  0  0  0  0  0  0
  -25.0270  -34.1430   25.0520 H   0  0  0  0  0  0  0  0  0  0  0  0
  -24.1580  -36.8220   23.1620 C   0  0  0  0  0  1  0  0  0  0  0  0
  -25.4320  -36.4280   23.9270 C   0  0  0  0  0  3  0  0  0  0  0  0
  -27.5850  -37.3400   24.6780 C   0  0  0  0  0  1  0  0  0  0  0  0
  -26.4550  -37.4830   23.7630 N   0  0  0  0  0  0  0  0  0  0  0  0
  -26.0480  -38.4040   23.9030 H   0  0  0  0  0  0  0  0  0  0  0  0
  -29.0040  -19.0830   20.4080 C   0  0  0  0  0  3  0  0  0  0  0  0
  -30.1100  -17.8050   20.4950 C   0  0  0  0  0  3  0  0  0  0  0  0
  -30.5060  -15.0730   20.3590 C   0  0  0  0  0  0  0  0  0  0  0  0
  -30.3760  -12.7400   19.3720 C   0  0  0  0  0  2  0  0  0  0  0  0
  -29.4320  -12.7170   18.1480 C   0  0  0  0  0  2  0  0  0  0  0  0
  -27.9730  -12.4950   18.5910 C   0  0  0  0  0  2  0  0  0  0  0  0
  -27.5760  -13.3950   19.7900 C   0  0  0  0  0  3  0  0  0  0  0  0
  -28.6420  -13.3900   20.9060 C   0  0  0  0  0  2  0  0  0  0  0  0
  -29.9040  -13.8170   20.2900 N   0  0  0  0  0  0  0  0  0  0  0  0
  -31.7060  -15.1380   20.0720 O   0  0  0  0  0  0  0  0  0  0  0  0
  -29.7400  -16.2610   20.5410 N   0  0  0  0  0  0  0  0  0  0  0  0
  -28.7640  -16.0790   20.7210 H   0  0  0  0  0  0  0  0  0  0  0  0
  -25.2000  -13.9500   20.5610 C   0  0  0  0  0  0  0  0  0  0  0  0
  -24.1420  -13.1630   20.9260 C   0  0  0  0  0  0  0  0  0  0  0  0
  -24.6120  -11.8150   20.8670 C   0  0  0  0  0  0  0  0  0  0  0  0
  -26.2440  -13.0810   20.2960 N   0  0  0  0  0  0  0  0  0  0  0  0
  -25.9020  -11.7900   20.5470 N   0  0  0  0  0  0  0  0  0  0  0  0
  -23.8930  -10.5460   21.0400 C   0  0  0  0  0  0  0  0  0  0  0  0
  -24.3110   -9.5810   21.9810 C   0  0  0  0  0  3  0  0  0  0  0  0
  -23.5890   -8.3780   22.1420 C   0  0  0  0  0  3  0  0  0  0  0  0
  -22.4350   -8.1330   21.3600 C   0  0  0  0  0  0  0  0  0  0  0  0
  -22.0360   -9.0880   20.4090 C   0  0  0  0  0  3  0  0  0  0  0  0
  -22.7580  -10.2810   20.2470 C   0  0  0  0  0  3  0  0  0  0  0  0
  -21.6860   -6.9830   21.4310 O   0  0  0  0  0  0  0  0  0  0  0  0
  -21.5870   -6.2580   22.5910 C   0  0  0  0  0  0  0  0  0  0  0  0
  -21.0250   -6.8050   23.7650 C   0  0  0  0  0  3  0  0  0  0  0  0
  -20.8780   -6.0030   24.9150 C   0  0  0  0  0  3  0  0  0  0  0  0
  -21.2830   -4.6560   24.8910 C   0  0  0  0  0  0  0  0  0  0  0  0
  -21.8380   -4.1080   23.7210 C   0  0  0  0  0  3  0  0  0  0  0  0
  -21.9860   -4.9060   22.5730 C   0  0  0  0  0  0  0  0  0  0  0  0
  -22.5020   -4.3680   21.4420 F   0  0  0  0  0  0  0  0  0  0  0  0
  -21.1360   -3.8820   25.9930 F   0  0  0  0  0  0  0  0  0  0  0  0
  -22.7450  -13.6300   21.2140 C   0  0  0  0  0  0  0  0  0  0  0  0
  -22.0250  -12.9160   22.0720 N   0  0  0  0  0  0  0  0  0  0  0  0
  -22.3020  -14.6620   20.7140 O   0  0  0  0  0  0  0  0  0  0  0  0
  -22.3980  -12.0800   22.4990 H   0  0  0  0  0  0  0  0  0  0  0  0
  -21.0880  -13.2090   22.3070 H   0  0  0  0  0  0  0  0  0  0  0  0
  -25.3530  -15.3230   20.4050 N   0  0  0  0  0  0  0  0  0  0  0  0
  -24.5780  -15.9660   20.5260 H   0  0  0  0  0  0  0  0  0  0  0  0
  -26.1810  -15.7710   20.0330 H   0  0  0  0  0  0  0  0  0  0  0  0
  1  5  1  0
  1  2  1  0
  2  4  1  0
  3  1  2  0
  6  7  1  0
  6  5  2  0
  8 19  2  0
  9  7  1  0
  9 14  1  0
 10 18  1  0
 10 20  1  0
 11 17  1  0
 11 13  1  0
 12 18  1  0
 13 12  1  0
 14 13  2  0
 15  9  2  0
 16 15  1  0
 16 11  2  0
 17 10  1  0
 18  8  1  0
 20 22  2  0
 21 20  1  0
 23 21  1  0
 24 33  2  0
 24 29  1  0
 25 21  1  0
 25 29  1  0
 26 25  1  0
 27 28  1  0
 27 26  1  0
 28 24  1  0
 29 30  2  0
 30 31  1  0
 32 31  2  0
 33 32  1  0
 34  8  1  0
 34 39  1  0
 34 35  1  0
 35 38  1  1
 35 36  1  0
 37 35  1  0
 39 42  1  0
 40 44  1  0
 40 39  1  0
 41 40  2  0
 44 43  1  0
 46 47  1  0
 46 44  1  0
 46 45  1  0
 48  2  1  0
 48 49  2  0
 49 58  1  0
 50 58  1  0
 51 56  1  0
 52 53  1  0
 52 51  1  0
 54 53  1  0
 54 63  1  0
 54 55  1  0
 56 50  1  0
 56 55  1  0
 57 50  2  0
 58 59  1  0
 60 61  2  0
 61 80  1  0
 62 61  1  0
 62 65  1  0
 63 64  1  0
 63 60  1  0
 64 62  2  0
 65 66  1  0
 66 67  2  0
 68 71  1  0
 68 67  1  0
 69 68  2  0
 70 69  1  0
 70 65  2  0
 71 72  1  0
 72 73  1  0
 73 74  2  0
 75 74  1  0
 75 79  1  0
 76 75  2  0
 77 72  2  0
 77 76  1  0
 78 77  1  0
 80 81  1  0
 81 84  1  0
 81 83  1  0
 82 80  2  0
 85 86  1  0
 85 60  1  0
 87 85  1  0
M  ISO  4   6 101   7 101  50 100  58 100
M  END
>  <TORSDO>  (15) 
F 20

>  <SCORE>  (15) 
-14.337

>  <name>  (15) 
15

>  <ligand_id>  (15) 
15

>  <original_smiles>  (15) 
[H]c1c([H])c([H])c2c(c1[H])C([H])([H])C([H])([H])C([H])([H])C2([H])N([H])C(=O)C1([H])N(C(=O)C([H])(N([H])C(=O)C([H])(N([H])C([H])([H])[H])C([H])([H])[H])C(C([H])([H])[H])(C([H])([H])[H])C([H])([H])[H])C([H])([H])c2c([H])c(OC([H])([H])C([H])([H])C(=O)N([H])C([H])([H])C([H])([H])N([H])C(=O)N3C([H])([H])C([H])([H])C([H])([H])C([H])(n4nc(-c5c([H])c([H])c(Oc6c([H])c([H])c(F)c([H])c6F)c([H])c5[H])c(C(=O)N([H])[H])c4N([H])[H])C3([H])[H])c([H])c([H])c2C1([H])[H]

>  <smiles>  (15) 
[H]c1c([H])c([H])c2c(c1[H])C([H])([H])C([H])([H])C([H])([H])C2([H])N([H])C(=O)C1([H])N(C(=O)C([H])(N([H])C(=O)C([H])(N([H])C([H])([H])[H])C([H])([H])[H])C(C([H])([H])[H])(C([H])([H])[H])C([H])([H])[H])C([H])([H])c2c([H])c(OC([H])([H])C([H])([H])C(=O)N([H])C([H])([H])C([H])([H])N([H])C(=O)N3C([H])([H])C([H])([H])C([H])([H])C([H])(n4nc(-c5c([H])c([H])c(Oc6c([H])c([H])c(F)c([H])c6F)c([H])c5[H])c(C(=O)N([H])[H])c4N([H])[H])C3([H])[H])c([H])c([H])c2C1([H])[H]

$$$$
16:0:0
     RDKit          3D

106113  0  0  1  0  0  0  0  0999 V2000
  -26.7010  -22.7600   20.3420 C   0  0  0  0  0  3  0  0  0  0  0  0
  -26.8050  -21.3480   19.7130 C   0  0  0  0  0  0  0  0  0  0  0  0
  -27.9070  -20.6120   19.9320 N   0  0  0  0  0  0  0  0  0  0  0  0
  -25.8750  -20.9110   19.0300 O   0  0  0  0  0  0  0  0  0  0  0  0
  -28.6360  -21.0170   20.5020 H   0  0  0  0  0  0  0  0  0  0  0  0
  -28.0600  -19.2270   19.4590 C   0  0  0  0  0  2  0  0  0  0  0  0
  -29.5310  -18.7790   19.3020 C   0  0  0  0  0  2  0  0  0  0  0  0
  -30.2290  -18.2950   20.5980 C   0  0  0  0  0  2  0  0  0  0  0  0
  -29.9590  -16.8180   21.0020 C   0  0  0  0  0  2  0  0  0  0  0  0
  -31.1270  -14.8360   20.0140 C   0  0  0  0  0  0  0  0  0  0  0  0
  -30.8640  -12.5420   19.1830 C   0  0  0  0  0  2  0  0  0  0  0  0
  -29.9030  -12.5730   17.9750 C   0  0  0  0  0  2  0  0  0  0  0  0
  -28.4360  -12.4640   18.4410 C   0  0  0  0  0  2  0  0  0  0  0  0
  -28.0950  -13.4500   19.5930 C   0  0  0  0  0  3  0  0  0  0  0  0
  -29.1740  -13.4120   20.7010 C   0  0  0  0  0  2  0  0  0  0  0  0
  -30.4780  -13.6460   20.0690 N   0  0  0  0  0  0  0  0  0  0  0  0
  -32.2800  -14.9570   19.5980 O   0  0  0  0  0  0  0  0  0  0  0  0
  -30.3180  -15.9010   19.9170 N   0  0  0  0  0  0  0  0  0  0  0  0
  -30.5720  -16.4330   19.1000 H   0  0  0  0  0  0  0  0  0  0  0  0
  -25.7740  -14.1230   20.4820 C   0  0  0  0  0  0  0  0  0  0  0  0
  -24.6830  -13.3840   20.8500 C   0  0  0  0  0  0  0  0  0  0  0  0
  -25.0700  -12.0160   20.7020 C   0  0  0  0  0  0  0  0  0  0  0  0
  -26.7560  -13.2090   20.1290 N   0  0  0  0  0  0  0  0  0  0  0  0
  -26.3370  -11.9320   20.3190 N   0  0  0  0  0  0  0  0  0  0  0  0
  -24.2870  -10.7820   20.8420 C   0  0  0  0  0  0  0  0  0  0  0  0
  -24.6630   -9.7670   21.7490 C   0  0  0  0  0  3  0  0  0  0  0  0
  -23.8830   -8.5970   21.8810 C   0  0  0  0  0  3  0  0  0  0  0  0
  -22.7100   -8.4350   21.1050 C   0  0  0  0  0  0  0  0  0  0  0  0
  -22.3480   -9.4380   20.1880 C   0  0  0  0  0  3  0  0  0  0  0  0
  -23.1290  -10.6000   20.0550 C   0  0  0  0  0  3  0  0  0  0  0  0
  -21.9080   -7.3200   21.1450 O   0  0  0  0  0  0  0  0  0  0  0  0
  -21.7360   -6.5990   22.3000 C   0  0  0  0  0  0  0  0  0  0  0  0
  -21.2150   -7.1850   23.4730 C   0  0  0  0  0  3  0  0  0  0  0  0
  -20.9910   -6.3910   24.6170 C   0  0  0  0  0  3  0  0  0  0  0  0
  -21.2750   -5.0130   24.5840 C   0  0  0  0  0  0  0  0  0  0  0  0
  -21.7880   -4.4260   23.4130 C   0  0  0  0  0  3  0  0  0  0  0  0
  -22.0150   -5.2170   22.2750 C   0  0  0  0  0  0  0  0  0  0  0  0
  -22.4900   -4.6430   21.1430 F   0  0  0  0  0  0  0  0  0  0  0  0
  -21.0550   -4.2490   25.6800 F   0  0  0  0  0  0  0  0  0  0  0  0
  -23.3300  -13.9130   21.2330 C   0  0  0  0  0  0  0  0  0  0  0  0
  -22.6190  -13.2030   22.1030 N   0  0  0  0  0  0  0  0  0  0  0  0
  -22.9150  -14.9860   20.8000 O   0  0  0  0  0  0  0  0  0  0  0  0
  -22.9680  -12.3340   22.4750 H   0  0  0  0  0  0  0  0  0  0  0  0
  -21.7130  -13.5340   22.3980 H   0  0  0  0  0  0  0  0  0  0  0  0
  -26.0090  -15.4920   20.3980 N   0  0  0  0  0  0  0  0  0  0  0  0
  -25.2930  -16.1840   20.5930 H   0  0  0  0  0  0  0  0  0  0  0  0
  -26.8760  -15.8940   20.0650 H   0  0  0  0  0  0  0  0  0  0  0  0
  -28.2520  -24.6730   20.7440 C   0  0  0  0  0  0  0  0  0  0  0  0
  -27.7780  -23.6840   19.9650 N   0  0  0  0  0  0  0  0  0  0  0  0
  -28.0030  -24.7400   21.9510 O   0  0  0  0  0  0  0  0  0  0  0  0
  -28.0680  -23.6680   18.9990 H   0  0  0  0  0  0  0  0  0  0  0  0
  -29.0790  -25.7780   20.0550 C   0  0  0  0  0  2  0  0  0  0  0  0
  -28.9040  -27.0520   20.7020 O   0  0  0  0  0  0  0  0  0  0  0  0
  -24.7540  -32.0670   23.5540 C   0  0  0  0  0  0  0  0  0  0  0  0
  -27.6920  -27.7130   20.6160 C   0  0  0  0  0  0  0  0  0  0  0  0
  -23.6770  -30.6350   21.8460 C   0  0  0  0  0  3  0  0  0  0  0  0
  -25.2510  -29.1450   20.5050 C   0  0  0  0  0  0  0  0  0  0  0  0
  -26.2000  -31.0680   21.7910 C   0  0  0  0  0  2  0  0  0  0  0  0
  -26.3590  -29.7020   21.1560 C   0  0  0  0  0  0  0  0  0  0  0  0
  -27.5800  -28.9900   21.2110 C   0  0  0  0  0  3  0  0  0  0  0  0
  -26.5620  -27.1760   19.9590 C   0  0  0  0  0  3  0  0  0  0  0  0
  -25.3460  -27.8780   19.9100 C   0  0  0  0  0  3  0  0  0  0  0  0
  -23.9840  -29.9680   20.4800 C   0  0  0  0  0  2  0  0  0  0  0  0
  -24.8910  -31.2730   22.4540 N   0  0  0  0  0  0  0  0  0  0  0  0
  -23.6380  -32.3050   24.0360 O   0  0  0  0  0  0  0  0  0  0  0  0
  -23.0050  -29.5910   22.7680 C   0  0  0  0  0  0  0  0  0  0  0  0
  -21.7040  -29.3460   22.5460 N   0  0  0  0  0  0  0  0  0  0  0  0
  -23.6550  -29.0060   23.6380 O   0  0  0  0  0  0  0  0  0  0  0  0
  -21.2420  -29.8700   21.8160 H   0  0  0  0  0  0  0  0  0  0  0  0
  -18.3680  -27.9870   22.7760 C   0  0  0  0  0  0  0  0  0  0  0  0
  -20.8740  -28.3780   23.2610 C   0  0  0  0  0  3  0  0  0  0  0  0
  -21.0970  -26.9470   22.7180 C   0  0  0  0  0  2  0  0  0  0  0  0
  -20.1040  -26.5570   21.6200 C   0  0  0  0  0  2  0  0  0  0  0  0
  -18.6690  -26.6370   22.1460 C   0  0  0  0  0  2  0  0  0  0  0  0
  -19.4040  -28.8120   23.2840 C   0  0  0  0  0  0  0  0  0  0  0  0
  -19.0730  -30.0730   23.8270 C   0  0  0  0  0  3  0  0  0  0  0  0
  -17.7350  -30.5100   23.8670 C   0  0  0  0  0  3  0  0  0  0  0  0
  -16.7100  -29.6810   23.3770 C   0  0  0  0  0  3  0  0  0  0  0  0
  -17.0260  -28.4220   22.8370 C   0  0  0  0  0  3  0  0  0  0  0  0
  -25.9870  -32.7310   24.2420 C   0  0  0  0  0  3  0  0  0  0  0  0
  -25.6760  -34.1550   24.4240 N   0  0  0  0  0  0  0  0  0  0  0  0
  -26.0860  -35.1350   23.6070 C   0  0  0  0  0  0  0  0  0  0  0  0
  -26.8360  -34.9370   22.6480 O   0  0  0  0  0  0  0  0  0  0  0  0
  -25.0220  -34.3810   25.1590 H   0  0  0  0  0  0  0  0  0  0  0  0
  -24.4150  -36.8990   22.9670 C   0  0  0  0  0  1  0  0  0  0  0  0
  -25.5850  -36.5620   23.9030 C   0  0  0  0  0  3  0  0  0  0  0  0
  -27.6640  -37.5040   24.8090 C   0  0  0  0  0  1  0  0  0  0  0  0
  -26.6370  -37.5920   23.7720 N   0  0  0  0  0  0  0  0  0  0  0  0
  -26.2340  -38.5250   23.8020 H   0  0  0  0  0  0  0  0  0  0  0  0
  -26.3660  -32.0630   25.6210 C   0  0  1  0  0  0  0  0  0  0  0  0
  -25.1640  -31.8810   26.5770 C   0  0  0  0  0  1  0  0  0  0  0  0
  -27.0030  -30.6710   25.3950 C   0  0  0  0  0  1  0  0  0  0  0  0
  -27.4240  -32.9220   26.3510 C   0  0  0  0  0  1  0  0  0  0  0  0
  -25.3230  -23.4620   20.1800 C   0  0  0  0  0  2  0  0  0  0  0  0
  -25.0340  -23.9810   18.7510 C   0  0  0  0  0  2  0  0  0  0  0  0
  -23.5390  -24.0100   18.3960 C   0  0  0  0  0  2  0  0  0  0  0  0
  -23.2960  -24.2130   16.8890 C   0  0  0  0  0  2  0  0  0  0  0  0
  -20.8100  -24.4300   16.5370 C   0  0  0  0  0  0  0  0  0  0  0  0
  -19.6840  -23.8320   16.1680 N   0  0  0  0  0  4  0  0  0  0  0  0
  -20.7790  -25.6970   16.9420 N   0  0  0  0  0  0  0  0  0  0  0  0
  -21.9590  -23.7460   16.4970 N   0  0  0  0  0  0  0  0  0  0  0  0
  -18.7890  -24.2970   16.1930 H   0  0  0  0  0  0  0  0  0  0  0  0
  -19.6810  -22.8690   15.8550 H   0  0  0  0  0  0  0  0  0  0  0  0
  -19.9270  -26.2360   16.9530 H   0  0  0  0  0  0  0  0  0  0  0  0
  -21.6290  -26.1690   17.2100 H   0  0  0  0  0  0  0  0  0  0  0  0
  -21.9330  -22.7790   16.2010 H   0  0  0  0  0  0  0  0  0  0  0  0
  1 94  1  0
  2  3  1  0
  2  1  1  0
  3  5  1  0
  4  2  2  0
  6  3  1  0
  7  6  1  0
  7  8  1  0
  8  9  1  0
 10 16  1  0
 11 16  1  0
 12 13  1  0
 12 11  1  0
 14 13  1  0
 14 23  1  0
 14 15  1  0
 16 15  1  0
 17 10  2  0
 18 10  1  0
 18  9  1  0
 19 18  1  0
 20 21  2  0
 21 40  1  0
 22 25  1  0
 22 21  1  0
 23 24  1  0
 23 20  1  0
 24 22  2  0
 25 26  1  0
 26 27  2  0
 28 31  1  0
 28 27  1  0
 29 28  2  0
 30 29  1  0
 30 25  2  0
 31 32  1  0
 32 33  1  0
 33 34  2  0
 35 34  1  0
 35 39  1  0
 36 35  2  0
 37 32  2  0
 37 36  1  0
 38 37  1  0
 40 41  1  0
 41 44  1  0
 41 43  1  0
 42 40  2  0
 45 20  1  0
 45 46  1  0
 47 45  1  0
 48 50  2  0
 49  1  1  0
 49 48  1  0
 51 49  1  0
 52 53  1  0
 52 48  1  0
 54 65  2  0
 55 53  1  0
 55 60  1  0
 56 64  1  0
 56 66  1  0
 57 59  1  0
 58 64  1  0
 59 60  2  0
 59 58  1  0
 61 55  2  0
 62 61  1  0
 62 57  2  0
 63 57  1  0
 63 56  1  0
 64 54  1  0
 66 68  2  0
 67 66  1  0
 69 67  1  0
 70 79  2  0
 70 75  1  0
 71 67  1  0
 71 75  1  0
 72 71  1  0
 73 74  1  0
 73 72  1  0
 74 70  1  0
 75 76  2  0
 76 77  1  0
 78 77  2  0
 79 78  1  0
 80 54  1  0
 80 81  1  0
 80 90  1  0
 81 84  1  0
 82 86  1  0
 82 81  1  0
 83 82  2  0
 86 85  1  0
 88 89  1  0
 88 86  1  0
 88 87  1  0
 90 93  1  1
 90 91  1  0
 92 90  1  0
 95 94  1  0
 96 95  1  0
 97 96  1  0
 98100  1  0
 99102  1  0
 99 98  2  0
100104  1  0
100105  1  0
101 98  1  0
101 97  1  0
103 99  1  0
106101  1  0
M  ISO  4  10 100  18 100  52 101  53 101
M  END
>  <TORSDO>  (16) 
F 28

>  <SCORE>  (16) 
-10.686

>  <name>  (16) 
16

>  <ligand_id>  (16) 
16

>  <original_smiles>  (16) 
[H]c1c([H])c([H])c2c(c1[H])C([H])([H])C([H])([H])C([H])([H])C2([H])N([H])C(=O)C1([H])N(C(=O)C([H])(N([H])C(=O)C([H])(N([H])C([H])([H])[H])C([H])([H])[H])C(C([H])([H])[H])(C([H])([H])[H])C([H])([H])[H])C([H])([H])c2c([H])c(OC([H])([H])C(=O)N([H])C([H])(C(=O)N([H])C([H])([H])C([H])([H])C([H])([H])C([H])([H])N([H])C(=O)N3C([H])([H])C([H])([H])C([H])([H])C([H])(n4nc(-c5c([H])c([H])c(Oc6c([H])c([H])c(F)c([H])c6F)c([H])c5[H])c(C(=O)N([H])[H])c4N([H])[H])C3([H])[H])C([H])([H])C([H])([H])C([H])([H])C([H])([H])N([H])C(N([H])[H])=[N+]([H])[H])c([H])c([H])c2C1([H])[H]

>  <smiles>  (16) 
[H]c1c([H])c([H])c2c(c1[H])C([H])([H])C([H])([H])C([H])([H])C2([H])N([H])C(=O)C1([H])N(C(=O)C([H])(N([H])C(=O)C([H])(N([H])C([H])([H])[H])C([H])([H])[H])C(C([H])([H])[H])(C([H])([H])[H])C([H])([H])[H])C([H])([H])c2c([H])c(OC([H])([H])C(=O)N([H])C([H])(C(=O)N([H])C([H])([H])C([H])([H])C([H])([H])C([H])([H])N([H])C(=O)N3C([H])([H])C([H])([H])C([H])([H])C([H])(n4nc(-c5c([H])c([H])c(Oc6c([H])c([H])c(F)c([H])c6F)c([H])c5[H])c(C(=O)N([H])[H])c4N([H])[H])C3([H])[H])C([H])([H])C([H])([H])C([H])([H])C([H])([H])N([H])C(N([H])[H])=[N+]([H])[H])c([H])c([H])c2C1([H])[H]

$$$$
17:0:0
     RDKit          3D

 89 96  0  0  1  0  0  0  0  0999 V2000
  -29.4380  -20.6520   20.4460 C   0  0  0  0  0  0  0  0  0  0  0  0
  -28.7500  -21.8480   20.0910 N   0  0  0  0  0  0  0  0  0  0  0  0
  -30.3720  -20.7490   21.2420 O   0  0  0  0  0  0  0  0  0  0  0  0
  -27.9820  -21.7070   19.4450 H   0  0  0  0  0  0  0  0  0  0  0  0
  -29.2660  -19.2680   18.3280 C   0  0  0  0  0  1  0  0  0  0  0  0
  -27.6260  -18.8560   20.1520 C   0  0  0  0  0  1  0  0  0  0  0  0
  -29.1210  -19.1180   19.8700 C   0  0  2  0  0  0  0  0  0  0  0  0
  -30.0220  -17.7320   20.3600 C   0  0  0  0  0  2  0  0  0  0  0  0
  -30.4930  -14.9800   20.3010 C   0  0  0  0  0  0  0  0  0  0  0  0
  -30.3630  -12.6280   19.3670 C   0  0  0  0  0  2  0  0  0  0  0  0
  -29.4270  -12.6020   18.1360 C   0  0  0  0  0  2  0  0  0  0  0  0
  -27.9620  -12.4010   18.5670 C   0  0  0  0  0  2  0  0  0  0  0  0
  -27.5640  -13.3150   19.7540 C   0  0  0  0  0  3  0  0  0  0  0  0
  -28.6240  -13.3130   20.8770 C   0  0  0  0  0  2  0  0  0  0  0  0
  -29.8930  -13.7230   20.2600 N   0  0  0  0  0  0  0  0  0  0  0  0
  -31.7030  -15.0360   20.0480 O   0  0  0  0  0  0  0  0  0  0  0  0
  -29.7080  -16.1670   20.4090 N   0  0  0  0  0  0  0  0  0  0  0  0
  -28.7300  -15.9660   20.5580 H   0  0  0  0  0  0  0  0  0  0  0  0
  -25.1890  -13.9020   20.4980 C   0  0  0  0  0  0  0  0  0  0  0  0
  -24.1240  -13.1310   20.8730 C   0  0  0  0  0  0  0  0  0  0  0  0
  -24.5830  -11.7770   20.8420 C   0  0  0  0  0  0  0  0  0  0  0  0
  -26.2280  -13.0200   20.2570 N   0  0  0  0  0  0  0  0  0  0  0  0
  -25.8740  -11.7370   20.5290 N   0  0  0  0  0  0  0  0  0  0  0  0
  -23.8530  -10.5180   21.0320 C   0  0  0  0  0  0  0  0  0  0  0  0
  -24.2830   -9.5470   21.9630 C   0  0  0  0  0  3  0  0  0  0  0  0
  -23.5520   -8.3550   22.1450 C   0  0  0  0  0  3  0  0  0  0  0  0
  -22.3740   -8.1230   21.3940 C   0  0  0  0  0  0  0  0  0  0  0  0
  -21.9630   -9.0810   20.4520 C   0  0  0  0  0  3  0  0  0  0  0  0
  -22.6960  -10.2670   20.2680 C   0  0  0  0  0  3  0  0  0  0  0  0
  -21.6160   -6.9800   21.4810 O   0  0  0  0  0  0  0  0  0  0  0  0
  -21.5670   -6.2350   22.6310 C   0  0  0  0  0  0  0  0  0  0  0  0
  -21.1380   -6.7870   23.8580 C   0  0  0  0  0  3  0  0  0  0  0  0
  -21.0370   -5.9700   25.0020 C   0  0  0  0  0  3  0  0  0  0  0  0
  -21.3550   -4.6000   24.9190 C   0  0  0  0  0  0  0  0  0  0  0  0
  -21.7740   -4.0470   23.6960 C   0  0  0  0  0  3  0  0  0  0  0  0
  -21.8790   -4.8620   22.5550 C   0  0  0  0  0  0  0  0  0  0  0  0
  -22.2650   -4.3200   21.3760 F   0  0  0  0  0  0  0  0  0  0  0  0
  -21.2500   -3.8130   26.0150 F   0  0  0  0  0  0  0  0  0  0  0  0
  -22.7280  -13.6120   21.1400 C   0  0  0  0  0  0  0  0  0  0  0  0
  -21.9940  -12.9220   22.0060 N   0  0  0  0  0  0  0  0  0  0  0  0
  -22.2930  -14.6370   20.6140 O   0  0  0  0  0  0  0  0  0  0  0  0
  -22.3530  -12.0940   22.4580 H   0  0  0  0  0  0  0  0  0  0  0  0
  -21.0560  -13.2290   22.2230 H   0  0  0  0  0  0  0  0  0  0  0  0
  -25.3570  -15.2720   20.3130 N   0  0  0  0  0  0  0  0  0  0  0  0
  -24.5930  -15.9300   20.4170 H   0  0  0  0  0  0  0  0  0  0  0  0
  -26.1890  -15.6950   19.9220 H   0  0  0  0  0  0  0  0  0  0  0  0
  -29.0260  -23.3730   20.4230 C   0  0  0  0  0  3  0  0  0  0  0  0
  -27.9630  -24.6520   20.1410 C   0  0  0  0  0  3  0  0  0  0  0  0
  -28.2390  -26.1780   20.3140 O   0  0  0  0  0  0  0  0  0  0  0  0
  -24.6210  -31.8980   23.2430 C   0  0  0  0  0  0  0  0  0  0  0  0
  -27.1900  -27.1650   20.2410 C   0  0  0  0  0  0  0  0  0  0  0  0
  -23.4230  -30.5030   21.6030 C   0  0  0  0  0  3  0  0  0  0  0  0
  -24.8700  -28.9180   20.1910 C   0  0  0  0  0  0  0  0  0  0  0  0
  -25.9790  -30.7600   21.4460 C   0  0  0  0  0  2  0  0  0  0  0  0
  -26.0510  -29.3630   20.8020 C   0  0  0  0  0  0  0  0  0  0  0  0
  -27.2110  -28.5030   20.8110 C   0  0  0  0  0  3  0  0  0  0  0  0
  -25.9850  -26.8230   19.5890 C   0  0  0  0  0  3  0  0  0  0  0  0
  -24.8510  -27.6620   19.5690 C   0  0  0  0  0  3  0  0  0  0  0  0
  -23.6480  -29.8220   20.2260 C   0  0  0  0  0  2  0  0  0  0  0  0
  -24.6960  -31.0730   22.1530 N   0  0  0  0  0  0  0  0  0  0  0  0
  -23.5340  -32.1880   23.7650 O   0  0  0  0  0  0  0  0  0  0  0  0
  -22.7350  -29.5000   22.5640 C   0  0  0  0  0  0  0  0  0  0  0  0
  -21.4060  -29.3410   22.4370 N   0  0  0  0  0  0  0  0  0  0  0  0
  -23.4000  -28.8700   23.3910 O   0  0  0  0  0  0  0  0  0  0  0  0
  -20.9260  -29.9020   21.7460 H   0  0  0  0  0  0  0  0  0  0  0  0
  -18.0120  -28.1840   22.9430 C   0  0  0  0  0  0  0  0  0  0  0  0
  -20.5750  -28.4120   23.2070 C   0  0  0  0  0  3  0  0  0  0  0  0
  -20.6560  -26.9800   22.6260 C   0  0  0  0  0  2  0  0  0  0  0  0
  -19.5470  -26.6740   21.6150 C   0  0  0  0  0  2  0  0  0  0  0  0
  -18.1690  -26.8350   22.2630 C   0  0  0  0  0  2  0  0  0  0  0  0
  -19.1410  -28.9310   23.3730 C   0  0  0  0  0  0  0  0  0  0  0  0
  -18.9370  -30.1930   23.9730 C   0  0  0  0  0  3  0  0  0  0  0  0
  -17.6380  -30.7070   24.1450 C   0  0  0  0  0  3  0  0  0  0  0  0
  -16.5230  -29.9570   23.7310 C   0  0  0  0  0  3  0  0  0  0  0  0
  -16.7120  -28.6970   23.1340 C   0  0  0  0  0  3  0  0  0  0  0  0
  -25.8980  -32.5280   23.8770 C   0  0  0  0  0  3  0  0  0  0  0  0
  -26.3940  -31.7580   25.1640 C   0  0  1  0  0  0  0  0  0  0  0  0
  -25.2880  -31.5310   26.2200 C   0  0  0  0  0  1  0  0  0  0  0  0
  -26.9700  -30.3750   24.7850 C   0  0  0  0  0  1  0  0  0  0  0  0
  -27.5460  -32.5450   25.8300 C   0  0  0  0  0  1  0  0  0  0  0  0
  -25.5900  -33.9280   24.2030 N   0  0  0  0  0  0  0  0  0  0  0  0
  -25.9220  -34.9800   23.4440 C   0  0  0  0  0  0  0  0  0  0  0  0
  -26.5840  -34.8740   22.4090 O   0  0  0  0  0  0  0  0  0  0  0  0
  -24.9960  -34.0840   25.0050 H   0  0  0  0  0  0  0  0  0  0  0  0
  -24.1950  -36.7800   23.1050 C   0  0  0  0  0  1  0  0  0  0  0  0
  -25.4450  -36.3720   23.9030 C   0  0  0  0  0  3  0  0  0  0  0  0
  -27.5890  -37.2590   24.7080 C   0  0  0  0  0  1  0  0  0  0  0  0
  -26.4790  -37.4220   23.7730 N   0  0  0  0  0  0  0  0  0  0  0  0
  -26.0760  -38.3440   23.9160 H   0  0  0  0  0  0  0  0  0  0  0  0
  1  3  2  0
  2 47  1  0
  2  1  1  0
  4  2  1  0
  7  5  1  6
  7  6  1  0
  7  8  1  0
  7  1  1  0
  8 17  1  0
  9 17  1  0
 10 15  1  0
 11 12  1  0
 11 10  1  0
 13 12  1  0
 13 22  1  0
 13 14  1  0
 15  9  1  0
 15 14  1  0
 16  9  2  0
 17 18  1  0
 19 20  2  0
 20 39  1  0
 21 20  1  0
 21 24  1  0
 22 19  1  0
 22 23  1  0
 23 21  2  0
 24 25  1  0
 25 26  2  0
 27 30  1  0
 27 26  1  0
 28 27  2  0
 29 28  1  0
 29 24  2  0
 30 31  1  0
 31 32  1  0
 32 33  2  0
 34 33  1  0
 34 38  1  0
 35 34  2  0
 36 31  2  0
 36 35  1  0
 37 36  1  0
 39 40  1  0
 40 43  1  0
 40 42  1  0
 41 39  2  0
 44 45  1  0
 44 19  1  0
 46 44  1  0
 48 49  1  0
 48 47  2  0
 50 61  2  0
 51 49  1  0
 51 56  1  0
 52 60  1  0
 52 62  1  0
 53 59  1  0
 53 55  1  0
 54 60  1  0
 55 56  2  0
 55 54  1  0
 57 51  2  0
 58 57  1  0
 58 53  2  0
 59 52  1  0
 60 50  1  0
 62 64  2  0
 63 62  1  0
 65 63  1  0
 66 75  2  0
 66 71  1  0
 67 63  1  0
 67 71  1  0
 68 67  1  0
 69 70  1  0
 69 68  1  0
 70 66  1  0
 71 72  2  0
 72 73  1  0
 74 73  2  0
 75 74  1  0
 76 50  1  0
 76 81  1  0
 76 77  1  0
 77 80  1  1
 77 78  1  0
 79 77  1  0
 81 84  1  0
 82 86  1  0
 82 81  1  0
 83 82  2  0
 86 85  1  0
 88 86  1  0
 88 89  1  0
 88 87  1  0
M  ISO  4   9 100  17 100  48 101  49 101
M  END
>  <TORSDO>  (17) 
F 20

>  <SCORE>  (17) 
-14.352

>  <name>  (17) 
17

>  <ligand_id>  (17) 
17

>  <original_smiles>  (17) 
[H]c1c([H])c([H])c2c(c1[H])C([H])([H])C([H])([H])C([H])([H])C2([H])N([H])C(=O)C1([H])N(C(=O)C([H])(N([H])C(=O)C([H])(N([H])C([H])([H])[H])C([H])([H])[H])C(C([H])([H])[H])(C([H])([H])[H])C([H])([H])[H])C([H])([H])c2c([H])c(OC([H])([H])C([H])([H])N([H])C(=O)C(C([H])([H])[H])(C([H])([H])[H])C([H])([H])N([H])C(=O)N3C([H])([H])C([H])([H])C([H])([H])C([H])(n4nc(-c5c([H])c([H])c(Oc6c([H])c([H])c(F)c([H])c6F)c([H])c5[H])c(C(=O)N([H])[H])c4N([H])[H])C3([H])[H])c([H])c([H])c2C1([H])[H]

>  <smiles>  (17) 
[H]c1c([H])c([H])c2c(c1[H])C([H])([H])C([H])([H])C([H])([H])C2([H])N([H])C(=O)C1([H])N(C(=O)C([H])(N([H])C(=O)C([H])(N([H])C([H])([H])[H])C([H])([H])[H])C(C([H])([H])[H])(C([H])([H])[H])C([H])([H])[H])C([H])([H])c2c([H])c(OC([H])([H])C([H])([H])N([H])C(=O)C(C([H])([H])[H])(C([H])([H])[H])C([H])([H])N([H])C(=O)N3C([H])([H])C([H])([H])C([H])([H])C([H])(n4nc(-c5c([H])c([H])c(Oc6c([H])c([H])c(F)c([H])c6F)c([H])c5[H])c(C(=O)N([H])[H])c4N([H])[H])C3([H])[H])c([H])c([H])c2C1([H])[H]

$$$$
18:0:0
     RDKit          3D

 93100  0  0  1  0  0  0  0  0999 V2000
  -30.0720  -23.4950   20.2060 C   0  0  0  0  0  0  0  0  0  0  0  0
  -30.1690  -24.6420   20.8940 N   0  0  0  0  0  0  0  0  0  0  0  0
  -30.4000  -23.3970   19.0210 O   0  0  0  0  0  0  0  0  0  0  0  0
  -29.8820  -24.6270   21.8650 H   0  0  0  0  0  0  0  0  0  0  0  0
  -29.5150  -22.2880   20.9730 C   0  0  0  0  0  2  0  0  0  0  0  0
  -29.4930  -20.9660   20.1680 C   0  0  0  0  0  2  0  0  0  0  0  0
  -28.8040  -19.7950   20.9040 C   0  0  0  0  0  2  0  0  0  0  0  0
  -29.7020  -17.4550   20.8010 C   0  0  0  0  0  0  0  0  0  0  0  0
  -29.7400  -18.7180   21.2500 N   0  0  0  0  0  0  0  0  0  0  0  0
  -28.8600  -17.0560   19.9910 O   0  0  0  0  0  0  0  0  0  0  0  0
  -30.4520  -18.9400   21.9360 H   0  0  0  0  0  0  0  0  0  0  0  0
  -30.7640  -16.4940   21.3510 C   0  0  0  0  0  2  0  0  0  0  0  0
  -30.8340  -14.2870   20.1850 C   0  0  0  0  0  0  0  0  0  0  0  0
  -30.4310  -12.1930   18.9370 C   0  0  0  0  0  2  0  0  0  0  0  0
  -29.4330  -12.4190   17.7810 C   0  0  0  0  0  2  0  0  0  0  0  0
  -27.9730  -12.3390   18.2690 C   0  0  0  0  0  2  0  0  0  0  0  0
  -27.7160  -13.1520   19.5650 C   0  0  0  0  0  3  0  0  0  0  0  0
  -28.8070  -12.8530   20.6220 C   0  0  0  0  0  2  0  0  0  0  0  0
  -30.1200  -13.1440   20.0160 N   0  0  0  0  0  0  0  0  0  0  0  0
  -31.8270  -14.5760   19.5090 O   0  0  0  0  0  0  0  0  0  0  0  0
  -30.3820  -15.0940   21.1500 N   0  0  0  0  0  0  0  0  0  0  0  0
  -29.5990  -14.7580   21.6910 H   0  0  0  0  0  0  0  0  0  0  0  0
  -25.3500  -13.8280   20.3280 C   0  0  0  0  0  0  0  0  0  0  0  0
  -24.2690  -13.0850   20.7340 C   0  0  0  0  0  0  0  0  0  0  0  0
  -24.6910  -11.7190   20.6980 C   0  0  0  0  0  0  0  0  0  0  0  0
  -26.3650  -12.9170   20.0800 N   0  0  0  0  0  0  0  0  0  0  0  0
  -25.9720  -11.6440   20.3560 N   0  0  0  0  0  0  0  0  0  0  0  0
  -23.9380  -10.4770   20.9240 C   0  0  0  0  0  0  0  0  0  0  0  0
  -24.3720   -9.5110   21.8600 C   0  0  0  0  0  3  0  0  0  0  0  0
  -23.6240   -8.3330   22.0720 C   0  0  0  0  0  3  0  0  0  0  0  0
  -22.4310   -8.1090   21.3450 C   0  0  0  0  0  0  0  0  0  0  0  0
  -22.0160   -9.0640   20.3990 C   0  0  0  0  0  3  0  0  0  0  0  0
  -22.7610  -10.2350   20.1850 C   0  0  0  0  0  3  0  0  0  0  0  0
  -21.6580   -6.9780   21.4620 O   0  0  0  0  0  0  0  0  0  0  0  0
  -21.6080   -6.2580   22.6270 C   0  0  0  0  0  0  0  0  0  0  0  0
  -21.2210   -6.8480   23.8500 C   0  0  0  0  0  3  0  0  0  0  0  0
  -21.1150   -6.0550   25.0100 C   0  0  0  0  0  3  0  0  0  0  0  0
  -21.3890   -4.6760   24.9480 C   0  0  0  0  0  0  0  0  0  0  0  0
  -21.7710   -4.0860   23.7320 C   0  0  0  0  0  3  0  0  0  0  0  0
  -21.8770   -4.8750   22.5720 C   0  0  0  0  0  0  0  0  0  0  0  0
  -22.2220   -4.2990   21.3960 F   0  0  0  0  0  0  0  0  0  0  0  0
  -21.2830   -3.9110   26.0600 F   0  0  0  0  0  0  0  0  0  0  0  0
  -22.8960  -13.6010   21.0500 C   0  0  0  0  0  0  0  0  0  0  0  0
  -22.1810  -12.9250   21.9440 N   0  0  0  0  0  0  0  0  0  0  0  0
  -22.4610  -14.6320   20.5400 O   0  0  0  0  0  0  0  0  0  0  0  0
  -22.5490  -12.0870   22.3700 H   0  0  0  0  0  0  0  0  0  0  0  0
  -21.2620  -13.2510   22.2040 H   0  0  0  0  0  0  0  0  0  0  0  0
  -25.5540  -15.1900   20.1320 N   0  0  0  0  0  0  0  0  0  0  0  0
  -24.8320  -15.8880   20.2680 H   0  0  0  0  0  0  0  0  0  0  0  0
  -26.4320  -15.5870   19.8150 H   0  0  0  0  0  0  0  0  0  0  0  0
  -30.5770  -25.9410   20.3530 C   0  0  0  0  0  2  0  0  0  0  0  0
  -29.5770  -27.0390   20.7620 C   0  0  0  0  0  2  0  0  0  0  0  0
  -28.3530  -26.6610   20.1510 O   0  0  0  0  0  0  0  0  0  0  0  0
  -24.5590  -31.8950   23.2690 C   0  0  0  0  0  0  0  0  0  0  0  0
  -27.2430  -27.4660   20.2260 C   0  0  0  0  0  0  0  0  0  0  0  0
  -23.3630  -30.4810   21.6250 C   0  0  0  0  0  3  0  0  0  0  0  0
  -24.8320  -28.9400   20.2240 C   0  0  0  0  0  0  0  0  0  0  0  0
  -25.8880  -30.8500   21.4470 C   0  0  0  0  0  2  0  0  0  0  0  0
  -25.9850  -29.4780   20.8150 C   0  0  0  0  0  0  0  0  0  0  0  0
  -27.1970  -28.7500   20.8180 C   0  0  0  0  0  3  0  0  0  0  0  0
  -26.0760  -26.9370   19.6420 C   0  0  0  0  0  3  0  0  0  0  0  0
  -24.8720  -27.6650   19.6370 C   0  0  0  0  0  3  0  0  0  0  0  0
  -23.5800  -29.7830   20.2560 C   0  0  0  0  0  2  0  0  0  0  0  0
  -24.6190  -31.0880   22.1710 N   0  0  0  0  0  0  0  0  0  0  0  0
  -23.4740  -32.1730   23.7980 O   0  0  0  0  0  0  0  0  0  0  0  0
  -22.7020  -29.4710   22.5890 C   0  0  0  0  0  0  0  0  0  0  0  0
  -21.3770  -29.3030   22.4570 N   0  0  0  0  0  0  0  0  0  0  0  0
  -23.3780  -28.8410   23.4060 O   0  0  0  0  0  0  0  0  0  0  0  0
  -20.8950  -29.8600   21.7660 H   0  0  0  0  0  0  0  0  0  0  0  0
  -17.9880  -28.1600   22.9520 C   0  0  0  0  0  0  0  0  0  0  0  0
  -20.5480  -28.3730   23.2230 C   0  0  0  0  0  3  0  0  0  0  0  0
  -20.6280  -26.9440   22.6400 C   0  0  0  0  0  2  0  0  0  0  0  0
  -19.5200  -26.6430   21.6250 C   0  0  0  0  0  2  0  0  0  0  0  0
  -18.1410  -26.8110   22.2690 C   0  0  0  0  0  2  0  0  0  0  0  0
  -19.1190  -28.9010   23.3850 C   0  0  0  0  0  0  0  0  0  0  0  0
  -18.9230  -30.1680   23.9760 C   0  0  0  0  0  3  0  0  0  0  0  0
  -17.6280  -30.6910   24.1440 C   0  0  0  0  0  3  0  0  0  0  0  0
  -16.5110  -29.9450   23.7340 C   0  0  0  0  0  3  0  0  0  0  0  0
  -16.6910  -28.6810   23.1430 C   0  0  0  0  0  3  0  0  0  0  0  0
  -25.8440  -32.5230   23.8960 C   0  0  0  0  0  3  0  0  0  0  0  0
  -25.5380  -33.9230   24.2170 N   0  0  0  0  0  0  0  0  0  0  0  0
  -25.8910  -34.9710   23.4610 C   0  0  0  0  0  0  0  0  0  0  0  0
  -26.5780  -34.8600   22.4420 O   0  0  0  0  0  0  0  0  0  0  0  0
  -24.9280  -34.0810   25.0050 H   0  0  0  0  0  0  0  0  0  0  0  0
  -24.1780  -36.7700   23.0710 C   0  0  0  0  0  1  0  0  0  0  0  0
  -25.4030  -36.3630   23.9070 C   0  0  0  0  0  3  0  0  0  0  0  0
  -27.5270  -37.2330   24.7750 C   0  0  0  0  0  1  0  0  0  0  0  0
  -26.4430  -37.4100   23.8110 N   0  0  0  0  0  0  0  0  0  0  0  0
  -26.0410  -38.3310   23.9510 H   0  0  0  0  0  0  0  0  0  0  0  0
  -26.3490  -31.7570   25.1790 C   0  0  1  0  0  0  0  0  0  0  0  0
  -25.2440  -31.5270   26.2370 C   0  0  0  0  0  1  0  0  0  0  0  0
  -26.9370  -30.3790   24.7970 C   0  0  0  0  0  1  0  0  0  0  0  0
  -27.4920  -32.5540   25.8500 C   0  0  0  0  0  1  0  0  0  0  0  0
  1  2  1  0
  1  5  1  0
  2  4  1  0
  3  1  2  0
  6  7  1  0
  6  5  1  0
  7  9  1  0
  8  9  1  0
  8 12  1  0
  9 11  1  0
 10  8  2  0
 13 21  1  0
 14 19  1  0
 15 16  1  0
 15 14  1  0
 17 16  1  0
 17 26  1  0
 17 18  1  0
 19 13  1  0
 19 18  1  0
 20 13  2  0
 21 12  1  0
 21 22  1  0
 23 24  2  0
 24 43  1  0
 25 24  1  0
 25 28  1  0
 26 23  1  0
 26 27  1  0
 27 25  2  0
 28 29  1  0
 29 30  2  0
 31 34  1  0
 31 30  1  0
 32 31  2  0
 33 32  1  0
 33 28  2  0
 34 35  1  0
 35 36  1  0
 36 37  2  0
 38 37  1  0
 38 42  1  0
 39 38  2  0
 40 35  2  0
 40 39  1  0
 41 40  1  0
 43 44  1  0
 44 47  1  0
 44 46  1  0
 45 43  2  0
 48 49  1  0
 48 23  1  0
 50 48  1  0
 51 52  1  0
 51  2  1  0
 53 55  1  0
 53 52  1  0
 54 65  2  0
 55 60  1  0
 56 64  1  0
 56 66  1  0
 57 63  1  0
 57 59  1  0
 58 64  1  0
 59 60  2  0
 59 58  1  0
 61 55  2  0
 62 61  1  0
 62 57  2  0
 63 56  1  0
 64 54  1  0
 66 68  2  0
 67 66  1  0
 69 67  1  0
 70 79  2  0
 70 75  1  0
 71 67  1  0
 71 75  1  0
 72 71  1  0
 73 74  1  0
 73 72  1  0
 74 70  1  0
 75 76  2  0
 76 77  1  0
 78 77  2  0
 79 78  1  0
 80 54  1  0
 80 81  1  0
 80 90  1  0
 81 84  1  0
 82 86  1  0
 82 81  1  0
 83 82  2  0
 86 85  1  0
 88 86  1  0
 88 89  1  0
 88 87  1  0
 90 93  1  1
 90 91  1  0
 92 90  1  0
M  ISO  4  13 100  21 100  52 101  53 101
M  END
>  <TORSDO>  (18) 
F 23

>  <SCORE>  (18) 
-12.778

>  <name>  (18) 
18

>  <ligand_id>  (18) 
18

>  <original_smiles>  (18) 
[H]c1c([H])c([H])c2c(c1[H])C([H])([H])C([H])([H])C([H])([H])C2([H])N([H])C(=O)C1([H])N(C(=O)C([H])(N([H])C(=O)C([H])(N([H])C([H])([H])[H])C([H])([H])[H])C(C([H])([H])[H])(C([H])([H])[H])C([H])([H])[H])C([H])([H])c2c([H])c(OC([H])([H])C([H])([H])N([H])C(=O)C([H])([H])C([H])([H])C([H])([H])N([H])C(=O)C([H])([H])N([H])C(=O)N3C([H])([H])C([H])([H])C([H])([H])C([H])(n4nc(-c5c([H])c([H])c(Oc6c([H])c([H])c(F)c([H])c6F)c([H])c5[H])c(C(=O)N([H])[H])c4N([H])[H])C3([H])[H])c([H])c([H])c2C1([H])[H]

>  <smiles>  (18) 
[H]c1c([H])c([H])c2c(c1[H])C([H])([H])C([H])([H])C([H])([H])C2([H])N([H])C(=O)C1([H])N(C(=O)C([H])(N([H])C(=O)C([H])(N([H])C([H])([H])[H])C([H])([H])[H])C(C([H])([H])[H])(C([H])([H])[H])C([H])([H])[H])C([H])([H])c2c([H])c(OC([H])([H])C([H])([H])N([H])C(=O)C([H])([H])C([H])([H])C([H])([H])N([H])C(=O)C([H])([H])N([H])C(=O)N3C([H])([H])C([H])([H])C([H])([H])C([H])(n4nc(-c5c([H])c([H])c(Oc6c([H])c([H])c(F)c([H])c6F)c([H])c5[H])c(C(=O)N([H])[H])c4N([H])[H])C3([H])[H])c([H])c([H])c2C1([H])[H]

$$$$
19:0:0
     RDKit          3D

 98105  0  0  1  0  0  0  0  0999 V2000
  -29.0050  -20.8720   19.5600 C   0  0  0  0  0  0  0  0  0  0  0  0
  -29.7740  -18.4790   20.5860 C   0  0  0  0  0  0  0  0  0  0  0  0
  -29.8790  -19.6450   19.8480 N   0  0  0  0  0  4  0  0  0  0  0  0
  -28.9830  -18.3530   21.5170 O   0  0  0  0  0  0  0  0  0  0  0  0
  -30.6670  -19.6060   19.2140 H   0  0  0  0  0  0  0  0  0  0  0  0
  -30.7310  -17.2510   20.2860 C   0  0  0  0  0  2  0  0  0  0  0  0
  -30.9990  -14.6850   20.2540 C   0  0  0  0  0  0  0  0  0  0  0  0
  -30.6950  -12.4720   19.1500 C   0  0  0  0  0  2  0  0  0  0  0  0
  -29.7110  -12.6080   17.9680 C   0  0  0  0  0  2  0  0  0  0  0  0
  -28.2530  -12.4700   18.4490 C   0  0  0  0  0  2  0  0  0  0  0  0
  -27.9500  -13.3120   19.7170 C   0  0  0  0  0  3  0  0  0  0  0  0
  -29.0500  -13.1410   20.7890 C   0  0  0  0  0  2  0  0  0  0  0  0
  -30.3310  -13.4890   20.1630 N   0  0  0  0  0  0  0  0  0  0  0  0
  -32.1660  -14.7780   19.8620 O   0  0  0  0  0  0  0  0  0  0  0  0
  -30.2870  -15.8220   20.5580 N   0  0  0  0  0  0  0  0  0  0  0  0
  -29.3430  -15.6970   20.8880 H   0  0  0  0  0  0  0  0  0  0  0  0
  -25.5940  -13.9160   20.5430 C   0  0  0  0  0  0  0  0  0  0  0  0
  -24.5290  -13.1470   20.9210 C   0  0  0  0  0  0  0  0  0  0  0  0
  -24.9660  -11.7900   20.8280 C   0  0  0  0  0  0  0  0  0  0  0  0
  -26.6170  -13.0300   20.2450 N   0  0  0  0  0  0  0  0  0  0  0  0
  -26.2460  -11.7440   20.4760 N   0  0  0  0  0  0  0  0  0  0  0  0
  -24.2250  -10.5350   21.0020 C   0  0  0  0  0  0  0  0  0  0  0  0
  -24.6390   -9.5560   21.9320 C   0  0  0  0  0  3  0  0  0  0  0  0
  -23.9010   -8.3640   22.0930 C   0  0  0  0  0  3  0  0  0  0  0  0
  -22.7330   -8.1430   21.3250 C   0  0  0  0  0  0  0  0  0  0  0  0
  -22.3370   -9.1100   20.3840 C   0  0  0  0  0  3  0  0  0  0  0  0
  -23.0750  -10.2930   20.2210 C   0  0  0  0  0  3  0  0  0  0  0  0
  -21.9650   -7.0040   21.3980 O   0  0  0  0  0  0  0  0  0  0  0  0
  -21.8410   -6.2920   22.5640 C   0  0  0  0  0  0  0  0  0  0  0  0
  -21.3170   -6.8750   23.7390 C   0  0  0  0  0  3  0  0  0  0  0  0
  -21.1420   -6.0900   24.8970 C   0  0  0  0  0  3  0  0  0  0  0  0
  -21.4770   -4.7220   24.8770 C   0  0  0  0  0  0  0  0  0  0  0  0
  -21.9940   -4.1400   23.7070 C   0  0  0  0  0  3  0  0  0  0  0  0
  -22.1720   -4.9230   22.5530 C   0  0  0  0  0  0  0  0  0  0  0  0
  -22.6490   -4.3520   21.4220 F   0  0  0  0  0  0  0  0  0  0  0  0
  -21.3020   -3.9650   25.9860 F   0  0  0  0  0  0  0  0  0  0  0  0
  -23.1480  -13.6370   21.2530 C   0  0  0  0  0  0  0  0  0  0  0  0
  -22.4420  -12.9400   22.1350 N   0  0  0  0  0  0  0  0  0  0  0  0
  -22.7070  -14.6740   20.7600 O   0  0  0  0  0  0  0  0  0  0  0  0
  -22.8080  -12.1020   22.5610 H   0  0  0  0  0  0  0  0  0  0  0  0
  -21.5120  -13.2490   22.3840 H   0  0  0  0  0  0  0  0  0  0  0  0
  -25.7680  -15.2900   20.3970 N   0  0  0  0  0  0  0  0  0  0  0  0
  -24.9800  -15.9230   20.4700 H   0  0  0  0  0  0  0  0  0  0  0  0
  -26.5920  -15.7220   20.0020 H   0  0  0  0  0  0  0  0  0  0  0  0
  -27.5850  -20.5350   19.0070 C   0  0  0  0  0  3  0  0  0  0  0  0
  -26.8680  -19.3200   19.6260 C   0  0  0  0  0  3  0  0  0  0  0  0
  -25.4180  -19.1180   19.1690 C   0  0  0  0  0  2  0  0  0  0  0  0
  -24.8420  -17.8250   19.7780 C   0  0  0  0  0  2  0  0  0  0  0  0
  -23.4820  -17.5270   19.3010 N   0  0  0  0  0  4  0  0  0  0  0  0
  -22.8260  -18.2080   19.6380 H   0  0  0  0  0  0  0  0  0  0  0  0
  -23.1970  -16.6260   19.6430 H   0  0  0  0  0  0  0  0  0  0  0  0
  -23.4450  -17.5060   18.2990 H   0  0  0  0  0  0  0  0  0  0  0  0
  -29.0640  -22.2360   20.4420 C   0  0  0  0  0  3  0  0  0  0  0  0
  -28.1790  -22.0560   21.5270 O   0  0  0  0  0  0  0  0  0  0  0  0
  -27.4130  -21.6060   21.1900 H   0  0  0  0  0  0  0  0  0  0  0  0
  -28.6900  -23.6630   19.7440 C   0  0  0  0  0  3  0  0  0  0  0  0
  -28.4930  -25.0000   20.6340 C   0  0  0  0  0  3  0  0  0  0  0  0
  -28.5050  -26.3860   20.0700 O   0  0  0  0  0  0  0  0  0  0  0  0
  -24.6250  -31.7460   23.0650 C   0  0  0  0  0  0  0  0  0  0  0  0
  -27.3460  -27.1830   20.1010 C   0  0  0  0  0  0  0  0  0  0  0  0
  -23.4450  -30.2630   21.4810 C   0  0  0  0  0  3  0  0  0  0  0  0
  -24.9300  -28.7220   20.0710 C   0  0  0  0  0  0  0  0  0  0  0  0
  -25.9650  -30.6630   21.2450 C   0  0  0  0  0  2  0  0  0  0  0  0
  -26.0860  -29.2640   20.6460 C   0  0  0  0  0  0  0  0  0  0  0  0
  -27.2970  -28.5060   20.6520 C   0  0  0  0  0  3  0  0  0  0  0  0
  -26.1690  -26.6940   19.5040 C   0  0  0  0  0  3  0  0  0  0  0  0
  -24.9740  -27.4450   19.4850 C   0  0  0  0  0  3  0  0  0  0  0  0
  -23.6640  -29.5590   20.1130 C   0  0  0  0  0  2  0  0  0  0  0  0
  -24.6990  -30.9110   21.9870 N   0  0  0  0  0  0  0  0  0  0  0  0
  -23.5430  -32.0000   23.6120 O   0  0  0  0  0  0  0  0  0  0  0  0
  -22.8320  -29.2520   22.4780 C   0  0  0  0  0  0  0  0  0  0  0  0
  -21.5350  -28.9380   22.3050 N   0  0  0  0  0  0  0  0  0  0  0  0
  -23.5230  -28.7480   23.3660 O   0  0  0  0  0  0  0  0  0  0  0  0
  -21.0330  -29.3980   21.5590 H   0  0  0  0  0  0  0  0  0  0  0  0
  -18.2970  -27.3660   22.6540 C   0  0  0  0  0  0  0  0  0  0  0  0
  -20.7700  -27.9770   23.1010 C   0  0  0  0  0  3  0  0  0  0  0  0
  -21.0990  -26.5250   22.6840 C   0  0  0  0  0  2  0  0  0  0  0  0
  -20.1420  -25.9730   21.6220 C   0  0  0  0  0  2  0  0  0  0  0  0
  -18.6990  -25.9960   22.1340 C   0  0  0  0  0  2  0  0  0  0  0  0
  -19.2720  -28.3020   23.0920 C   0  0  0  0  0  0  0  0  0  0  0  0
  -18.8470  -29.5760   23.5330 C   0  0  0  0  0  3  0  0  0  0  0  0
  -17.4820  -29.9170   23.5390 C   0  0  0  0  0  3  0  0  0  0  0  0
  -16.5210  -28.9820   23.1180 C   0  0  0  0  0  3  0  0  0  0  0  0
  -16.9300  -27.7080   22.6810 C   0  0  0  0  0  3  0  0  0  0  0  0
  -25.8970  -32.4390   23.6500 C   0  0  0  0  0  3  0  0  0  0  0  0
  -25.5260  -33.8090   24.0320 N   0  0  0  0  0  0  0  0  0  0  0  0
  -25.7670  -34.8980   23.2900 C   0  0  0  0  0  0  0  0  0  0  0  0
  -26.3960  -34.8580   22.2300 O   0  0  0  0  0  0  0  0  0  0  0  0
  -24.9690  -33.9090   24.8680 H   0  0  0  0  0  0  0  0  0  0  0  0
  -23.9400  -36.6060   23.0380 C   0  0  0  0  0  1  0  0  0  0  0  0
  -25.2220  -36.2440   23.8040 C   0  0  0  0  0  3  0  0  0  0  0  0
  -27.3270  -37.2150   24.6120 C   0  0  0  0  0  1  0  0  0  0  0  0
  -26.1950  -37.3530   23.7000 N   0  0  0  0  0  0  0  0  0  0  0  0
  -25.7460  -38.2460   23.8840 H   0  0  0  0  0  0  0  0  0  0  0  0
  -26.5110  -31.6670   24.8820 C   0  0  1  0  0  0  0  0  0  0  0  0
  -25.4750  -31.3230   25.9770 C   0  0  0  0  0  1  0  0  0  0  0  0
  -27.1670  -30.3410   24.4250 C   0  0  0  0  0  1  0  0  0  0  0  0
  -27.6310  -32.5130   25.5290 C   0  0  0  0  0  1  0  0  0  0  0  0
  1  3  2  3
  1 53  1  0
  2  4  2  0
  3  2  1  0
  5  3  1  0
  6 15  1  0
  6  2  1  0
  7 15  1  0
  8 13  1  0
  9 10  1  0
  9  8  1  0
 11 10  1  0
 11 20  1  0
 11 12  1  0
 13  7  1  0
 13 12  1  0
 14  7  2  0
 15 16  1  0
 17 18  2  0
 18 37  1  0
 19 18  1  0
 19 22  1  0
 20 21  1  0
 20 17  1  0
 21 19  2  0
 22 23  1  0
 23 24  2  0
 25 28  1  0
 25 24  1  0
 26 25  2  0
 27 26  1  0
 27 22  2  0
 28 29  1  0
 29 30  1  0
 30 31  2  0
 32 31  1  0
 32 36  1  0
 33 32  2  0
 34 29  2  0
 34 33  1  0
 35 34  1  0
 37 38  1  0
 38 41  1  0
 38 40  1  0
 39 37  2  0
 42 43  1  0
 42 17  1  0
 44 42  1  0
 45  1  1  0
 45 46  2  0
 47 46  1  0
 47 48  1  0
 49 50  1  0
 49 51  1  0
 49 48  1  0
 52 49  1  0
 53 56  1  0
 53 54  1  0
 55 54  1  0
 56 57  2  0
 58 60  1  0
 58 57  1  0
 59 70  2  0
 60 65  1  0
 61 69  1  0
 61 71  1  0
 62 68  1  0
 62 64  1  0
 63 69  1  0
 64 65  2  0
 64 63  1  0
 66 60  2  0
 67 66  1  0
 67 62  2  0
 68 61  1  0
 69 59  1  0
 71 73  2  0
 72 71  1  0
 74 72  1  0
 75 84  2  0
 75 80  1  0
 76 72  1  0
 77 76  1  0
 78 79  1  0
 78 77  1  0
 79 75  1  0
 80 76  1  0
 80 81  2  0
 81 82  1  0
 83 82  2  0
 84 83  1  0
 85 59  1  0
 85 86  1  0
 85 95  1  0
 86 89  1  0
 87 91  1  0
 87 86  1  0
 88 87  2  0
 91 90  1  0
 93 91  1  0
 93 94  1  0
 93 92  1  0
 95 98  1  1
 95 96  1  0
 97 95  1  0
M  ISO  4   7 100  15 100  57 101  58 101
M  END
>  <TORSDO>  (19) 
F 27

>  <SCORE>  (19) 
-8.804

>  <name>  (19) 
19

>  <ligand_id>  (19) 
19

>  <original_smiles>  (19) 
[H]OC([H])(C([H])([H])C([H])([H])Oc1c([H])c([H])c2c(c1[H])C([H])([H])N(C(=O)C([H])(N([H])C(=O)C([H])(N([H])C([H])([H])[H])C([H])([H])[H])C(C([H])([H])[H])(C([H])([H])[H])C([H])([H])[H])C([H])(C(=O)N([H])C1([H])c3c([H])c([H])c([H])c([H])c3C([H])([H])C([H])([H])C1([H])[H])C2([H])[H])C([H])(N([H])C(=O)C([H])([H])N([H])C(=O)N1C([H])([H])C([H])([H])C([H])([H])C([H])(n2nc(-c3c([H])c([H])c(Oc4c([H])c([H])c(F)c([H])c4F)c([H])c3[H])c(C(=O)N([H])[H])c2N([H])[H])C1([H])[H])C([H])([H])C([H])([H])C([H])([H])C([H])([H])[N+]([H])([H])[H]

>  <smiles>  (19) 
[H]OC([H])(C([H])([H])C([H])([H])Oc1c([H])c([H])c2c(c1[H])C([H])([H])N(C(=O)C([H])(N([H])C(=O)C([H])(N([H])C([H])([H])[H])C([H])([H])[H])C(C([H])([H])[H])(C([H])([H])[H])C([H])([H])[H])C([H])(C(=O)N([H])C1([H])c3c([H])c([H])c([H])c([H])c3C([H])([H])C([H])([H])C1([H])[H])C2([H])[H])C([H])(N([H])C(=O)C([H])([H])N([H])C(=O)N1C([H])([H])C([H])([H])C([H])([H])C([H])(n2nc(-c3c([H])c([H])c(Oc4c([H])c([H])c(F)c([H])c4F)c([H])c3[H])c(C(=O)N([H])[H])c2N([H])[H])C1([H])[H])C([H])([H])C([H])([H])C([H])([H])C([H])([H])[N+]([H])([H])[H]

$$$$
20:0:0
     RDKit          3D

 89 96  0  0  1  0  0  0  0  0999 V2000
  -29.8750  -21.9400   20.7550 C   0  0  0  0  0  0  0  0  0  0  0  0
  -29.1220  -22.9660   20.3210 N   0  0  0  0  0  0  0  0  0  0  0  0
  -30.9590  -22.1180   21.3120 O   0  0  0  0  0  0  0  0  0  0  0  0
  -28.2480  -22.7340   19.8690 H   0  0  0  0  0  0  0  0  0  0  0  0
  -29.3240  -20.5130   20.5340 C   0  0  0  0  0  2  0  0  0  0  0  0
  -30.2340  -19.3600   21.0460 C   0  0  0  0  0  2  0  0  0  0  0  0
  -29.6410  -17.9360   20.8630 C   0  0  0  0  0  2  0  0  0  0  0  0
  -30.5820  -16.8130   21.3720 C   0  0  0  0  0  2  0  0  0  0  0  0
  -30.6980  -14.4500   20.5160 C   0  0  0  0  0  0  0  0  0  0  0  0
  -30.3810  -12.2970   19.3550 C   0  0  0  0  0  2  0  0  0  0  0  0
  -29.4530  -12.4980   18.1410 C   0  0  0  0  0  2  0  0  0  0  0  0
  -27.9750  -12.3730   18.5560 C   0  0  0  0  0  2  0  0  0  0  0  0
  -27.6310  -13.2250   19.8070 C   0  0  0  0  0  3  0  0  0  0  0  0
  -28.6700  -13.0050   20.9290 C   0  0  0  0  0  2  0  0  0  0  0  0
  -30.0040  -13.2890   20.3760 N   0  0  0  0  0  0  0  0  0  0  0  0
  -31.8100  -14.6270   20.0100 O   0  0  0  0  0  0  0  0  0  0  0  0
  -30.0590  -15.4510   21.1550 N   0  0  0  0  0  0  0  0  0  0  0  0
  -29.1490  -15.2340   21.5340 H   0  0  0  0  0  0  0  0  0  0  0  0
  -25.2300  -13.8590   20.4830 C   0  0  0  0  0  0  0  0  0  0  0  0
  -24.1520  -13.1000   20.8500 C   0  0  0  0  0  0  0  0  0  0  0  0
  -24.6000  -11.7430   20.8330 C   0  0  0  0  0  0  0  0  0  0  0  0
  -26.2700  -12.9670   20.2720 N   0  0  0  0  0  0  0  0  0  0  0  0
  -25.8940  -11.6900   20.5390 N   0  0  0  0  0  0  0  0  0  0  0  0
  -23.8600  -10.4900   21.0250 C   0  0  0  0  0  0  0  0  0  0  0  0
  -24.2820   -9.5220   21.9640 C   0  0  0  0  0  3  0  0  0  0  0  0
  -23.5440   -8.3320   22.1440 C   0  0  0  0  0  3  0  0  0  0  0  0
  -22.3720   -8.1010   21.3860 C   0  0  0  0  0  0  0  0  0  0  0  0
  -21.9700   -9.0570   20.4380 C   0  0  0  0  0  3  0  0  0  0  0  0
  -22.7080  -10.2390   20.2550 C   0  0  0  0  0  3  0  0  0  0  0  0
  -21.6070   -6.9630   21.4760 O   0  0  0  0  0  0  0  0  0  0  0  0
  -21.5500   -6.2230   22.6300 C   0  0  0  0  0  0  0  0  0  0  0  0
  -21.1330   -6.7850   23.8560 C   0  0  0  0  0  3  0  0  0  0  0  0
  -21.0230   -5.9730   25.0020 C   0  0  0  0  0  3  0  0  0  0  0  0
  -21.3180   -4.5990   24.9220 C   0  0  0  0  0  0  0  0  0  0  0  0
  -21.7270   -4.0360   23.7010 C   0  0  0  0  0  3  0  0  0  0  0  0
  -21.8410   -4.8450   22.5580 C   0  0  0  0  0  0  0  0  0  0  0  0
  -22.2150   -4.2940   21.3780 F   0  0  0  0  0  0  0  0  0  0  0  0
  -21.2040   -3.8150   26.0210 F   0  0  0  0  0  0  0  0  0  0  0  0
  -22.7570  -13.5920   21.1040 C   0  0  0  0  0  0  0  0  0  0  0  0
  -22.0160  -12.9130   21.9730 N   0  0  0  0  0  0  0  0  0  0  0  0
  -22.3320  -14.6140   20.5690 O   0  0  0  0  0  0  0  0  0  0  0  0
  -22.3720  -12.0870   22.4310 H   0  0  0  0  0  0  0  0  0  0  0  0
  -21.0790  -13.2240   22.1840 H   0  0  0  0  0  0  0  0  0  0  0  0
  -25.4100  -15.2250   20.2920 N   0  0  0  0  0  0  0  0  0  0  0  0
  -24.6470  -15.8890   20.3760 H   0  0  0  0  0  0  0  0  0  0  0  0
  -26.2640  -15.6500   19.9560 H   0  0  0  0  0  0  0  0  0  0  0  0
  -29.4290  -24.3990   20.4630 C   0  0  0  0  0  2  0  0  0  0  0  0
  -28.2400  -25.2620   19.9760 C   0  0  0  0  0  2  0  0  0  0  0  0
  -28.3780  -26.6780   20.2060 O   0  0  0  0  0  0  0  0  0  0  0  0
  -24.5830  -31.8990   23.2390 C   0  0  0  0  0  0  0  0  0  0  0  0
  -27.2120  -27.4310   20.1650 C   0  0  0  0  0  0  0  0  0  0  0  0
  -23.3720  -30.5010   21.5990 C   0  0  0  0  0  3  0  0  0  0  0  0
  -24.8220  -28.9620   20.1720 C   0  0  0  0  0  0  0  0  0  0  0  0
  -25.9020  -30.8490   21.4010 C   0  0  0  0  0  2  0  0  0  0  0  0
  -25.9830  -29.4760   20.7610 C   0  0  0  0  0  0  0  0  0  0  0  0
  -27.1810  -28.7200   20.7530 C   0  0  0  0  0  3  0  0  0  0  0  0
  -26.0270  -26.9450   19.5590 C   0  0  0  0  0  3  0  0  0  0  0  0
  -24.8390  -27.6970   19.5670 C   0  0  0  0  0  3  0  0  0  0  0  0
  -23.5800  -29.8240   20.2190 C   0  0  0  0  0  2  0  0  0  0  0  0
  -24.6380  -31.0970   22.1390 N   0  0  0  0  0  0  0  0  0  0  0  0
  -23.5020  -32.1750   23.7790 O   0  0  0  0  0  0  0  0  0  0  0  0
  -22.7170  -29.4800   22.5580 C   0  0  0  0  0  0  0  0  0  0  0  0
  -21.3920  -29.3080   22.4350 N   0  0  0  0  0  0  0  0  0  0  0  0
  -23.3990  -28.8490   23.3700 O   0  0  0  0  0  0  0  0  0  0  0  0
  -20.9040  -29.8690   21.7520 H   0  0  0  0  0  0  0  0  0  0  0  0
  -18.0090  -28.1430   22.9460 C   0  0  0  0  0  0  0  0  0  0  0  0
  -20.5690  -28.3740   23.2050 C   0  0  0  0  0  3  0  0  0  0  0  0
  -20.6550  -26.9440   22.6220 C   0  0  0  0  0  2  0  0  0  0  0  0
  -19.5450  -26.6380   21.6130 C   0  0  0  0  0  2  0  0  0  0  0  0
  -18.1680  -26.7930   22.2650 C   0  0  0  0  0  2  0  0  0  0  0  0
  -19.1360  -28.8920   23.3730 C   0  0  0  0  0  0  0  0  0  0  0  0
  -18.9340  -30.1550   23.9700 C   0  0  0  0  0  3  0  0  0  0  0  0
  -17.6350  -30.6700   24.1420 C   0  0  0  0  0  3  0  0  0  0  0  0
  -16.5220  -29.9180   23.7310 C   0  0  0  0  0  3  0  0  0  0  0  0
  -16.7090  -28.6560   23.1390 C   0  0  0  0  0  3  0  0  0  0  0  0
  -25.8710  -32.5270   23.8590 C   0  0  0  0  0  3  0  0  0  0  0  0
  -25.5620  -33.9220   24.1960 N   0  0  0  0  0  0  0  0  0  0  0  0
  -25.8820  -34.9770   23.4350 C   0  0  0  0  0  0  0  0  0  0  0  0
  -26.5390  -34.8770   22.3950 O   0  0  0  0  0  0  0  0  0  0  0  0
  -24.9770  -34.0730   25.0050 H   0  0  0  0  0  0  0  0  0  0  0  0
  -24.1390  -36.7600   23.1110 C   0  0  0  0  0  1  0  0  0  0  0  0
  -25.3970  -36.3620   23.9010 C   0  0  0  0  0  3  0  0  0  0  0  0
  -27.5430  -37.2540   24.6900 C   0  0  0  0  0  1  0  0  0  0  0  0
  -26.4220  -37.4200   23.7700 N   0  0  0  0  0  0  0  0  0  0  0  0
  -26.0140  -38.3380   23.9280 H   0  0  0  0  0  0  0  0  0  0  0  0
  -26.3940  -31.7460   25.1270 C   0  0  1  0  0  0  0  0  0  0  0  0
  -25.3070  -31.5030   26.1990 C   0  0  0  0  0  1  0  0  0  0  0  0
  -26.9760  -30.3730   24.7220 C   0  0  0  0  0  1  0  0  0  0  0  0
  -27.5480  -32.5370   25.7870 C   0  0  0  0  0  1  0  0  0  0  0  0
  1  3  2  0
  2 47  1  0
  2  1  1  0
  4  2  1  0
  5  1  1  0
  5  6  1  0
  7  6  1  0
  7  8  1  0
  9 17  1  0
 10 15  1  0
 11 12  1  0
 11 10  1  0
 13 12  1  0
 13 22  1  0
 13 14  1  0
 15  9  1  0
 15 14  1  0
 16  9  2  0
 17  8  1  0
 17 18  1  0
 19 20  2  0
 20 39  1  0
 21 20  1  0
 21 24  1  0
 22 19  1  0
 22 23  1  0
 23 21  2  0
 24 25  1  0
 25 26  2  0
 27 30  1  0
 27 26  1  0
 28 27  2  0
 29 28  1  0
 29 24  2  0
 30 31  1  0
 31 32  1  0
 32 33  2  0
 34 33  1  0
 34 38  1  0
 35 34  2  0
 36 31  2  0
 36 35  1  0
 37 36  1  0
 39 40  1  0
 40 43  1  0
 40 42  1  0
 41 39  2  0
 44 45  1  0
 44 19  1  0
 46 44  1  0
 48 49  1  0
 48 47  1  0
 50 61  2  0
 51 49  1  0
 51 56  1  0
 52 60  1  0
 52 62  1  0
 53 59  1  0
 53 55  1  0
 54 60  1  0
 55 54  1  0
 56 55  2  0
 57 58  1  0
 57 51  2  0
 58 53  2  0
 59 52  1  0
 60 50  1  0
 62 64  2  0
 63 62  1  0
 65 63  1  0
 66 75  2  0
 66 71  1  0
 67 63  1  0
 67 71  1  0
 68 67  1  0
 69 70  1  0
 69 68  1  0
 70 66  1  0
 71 72  2  0
 72 73  1  0
 74 73  2  0
 75 74  1  0
 76 50  1  0
 76 77  1  0
 76 86  1  0
 77 80  1  0
 78 82  1  0
 78 77  1  0
 79 78  2  0
 82 81  1  0
 84 82  1  0
 84 85  1  0
 84 83  1  0
 86 89  1  1
 86 87  1  0
 88 86  1  0
M  ISO  4   9 100  17 100  48 101  49 101
M  END
>  <TORSDO>  (20) 
F 22

>  <SCORE>  (20) 
-13.051

>  <name>  (20) 
20

>  <ligand_id>  (20) 
20

>  <original_smiles>  (20) 
[H]c1c([H])c([H])c2c(c1[H])C([H])([H])C([H])([H])C([H])([H])C2([H])N([H])C(=O)C1([H])N(C(=O)C([H])(N([H])C(=O)C([H])(N([H])C([H])([H])[H])C([H])([H])[H])C(C([H])([H])[H])(C([H])([H])[H])C([H])([H])[H])C([H])([H])c2c([H])c(OC([H])([H])C([H])([H])N([H])C(=O)C([H])([H])C([H])([H])C([H])([H])C([H])([H])N([H])C(=O)N3C([H])([H])C([H])([H])C([H])([H])C([H])(n4nc(-c5c([H])c([H])c(Oc6c([H])c([H])c(F)c([H])c6F)c([H])c5[H])c(C(=O)N([H])[H])c4N([H])[H])C3([H])[H])c([H])c([H])c2C1([H])[H]

>  <smiles>  (20) 
[H]c1c([H])c([H])c2c(c1[H])C([H])([H])C([H])([H])C([H])([H])C2([H])N([H])C(=O)C1([H])N(C(=O)C([H])(N([H])C(=O)C([H])(N([H])C([H])([H])[H])C([H])([H])[H])C(C([H])([H])[H])(C([H])([H])[H])C([H])([H])[H])C([H])([H])c2c([H])c(OC([H])([H])C([H])([H])N([H])C(=O)C([H])([H])C([H])([H])C([H])([H])C([H])([H])N([H])C(=O)N3C([H])([H])C([H])([H])C([H])([H])C([H])(n4nc(-c5c([H])c([H])c(Oc6c([H])c([H])c(F)c([H])c6F)c([H])c5[H])c(C(=O)N([H])[H])c4N([H])[H])C3([H])[H])c([H])c([H])c2C1([H])[H]

$$$$
21:0:0
     RDKit          3D

 89 97  0  0  1  0  0  0  0  0999 V2000
  -28.7970  -23.3900   20.4100 C   0  0  0  0  0  0  0  0  0  0  0  0
  -29.3440  -20.6270   17.8170 C   0  0  0  0  0  2  0  0  0  0  0  0
  -29.0690  -19.2370   18.4510 C   0  0  0  0  0  2  0  0  0  0  0  0
  -28.5360  -21.8000   18.4520 C   0  0  0  0  0  2  0  0  0  0  0  0
  -29.5720  -20.7730   20.5010 C   0  0  0  0  0  2  0  0  0  0  0  0
  -29.2650  -19.1880   19.9850 C   0  0  0  0  0  3  0  0  0  0  0  0
  -28.9030  -22.0610   19.8600 N   0  0  0  0  0  0  0  0  0  0  0  0
  -29.3220  -23.5980   21.5070 O   0  0  0  0  0  0  0  0  0  0  0  0
  -27.9550  -24.6950   19.8030 C   0  0  0  0  0  2  0  0  0  0  0  0
  -28.2120  -26.1850   20.2430 O   0  0  0  0  0  0  0  0  0  0  0  0
  -24.6320  -31.9330   23.2540 C   0  0  0  0  0  0  0  0  0  0  0  0
  -27.1820  -27.2010   20.1790 C   0  0  0  0  0  0  0  0  0  0  0  0
  -23.4280  -30.5490   21.6090 C   0  0  0  0  0  3  0  0  0  0  0  0
  -24.8680  -28.9750   20.1750 C   0  0  0  0  0  0  0  0  0  0  0  0
  -25.9870  -30.7890   21.4580 C   0  0  0  0  0  2  0  0  0  0  0  0
  -26.0520  -29.4000   20.7910 C   0  0  0  0  0  0  0  0  0  0  0  0
  -27.2050  -28.5270   20.7820 C   0  0  0  0  0  3  0  0  0  0  0  0
  -25.9770  -26.8910   19.5080 C   0  0  0  0  0  3  0  0  0  0  0  0
  -24.8430  -27.7340   19.5220 C   0  0  0  0  0  3  0  0  0  0  0  0
  -23.6530  -29.8890   20.2250 C   0  0  0  0  0  2  0  0  0  0  0  0
  -24.7020  -31.1140   22.1620 N   0  0  0  0  0  0  0  0  0  0  0  0
  -23.5470  -32.2270   23.7790 O   0  0  0  0  0  0  0  0  0  0  0  0
  -22.7450  -29.5400   22.5650 C   0  0  0  0  0  0  0  0  0  0  0  0
  -21.4160  -29.3700   22.4390 N   0  0  0  0  0  0  0  0  0  0  0  0
  -23.4130  -28.9130   23.3900 O   0  0  0  0  0  0  0  0  0  0  0  0
  -20.9300  -29.9220   21.7460 H   0  0  0  0  0  0  0  0  0  0  0  0
  -18.0280  -28.1940   22.9480 C   0  0  0  0  0  0  0  0  0  0  0  0
  -20.5920  -28.4350   23.2110 C   0  0  0  0  0  3  0  0  0  0  0  0
  -20.6810  -27.0050   22.6300 C   0  0  0  0  0  2  0  0  0  0  0  0
  -19.5740  -26.6940   21.6200 C   0  0  0  0  0  2  0  0  0  0  0  0
  -18.1930  -26.8490   22.2640 C   0  0  0  0  0  2  0  0  0  0  0  0
  -19.1530  -28.9470   23.3780 C   0  0  0  0  0  0  0  0  0  0  0  0
  -18.9410  -30.2100   23.9750 C   0  0  0  0  0  3  0  0  0  0  0  0
  -17.6390  -30.7160   24.1460 C   0  0  0  0  0  3  0  0  0  0  0  0
  -16.5300  -29.9580   23.7320 C   0  0  0  0  0  3  0  0  0  0  0  0
  -16.7250  -28.7000   23.1380 C   0  0  0  0  0  3  0  0  0  0  0  0
  -25.9120  -32.5640   23.8800 C   0  0  0  0  0  3  0  0  0  0  0  0
  -25.6070  -33.9690   24.1980 N   0  0  0  0  0  0  0  0  0  0  0  0
  -25.9350  -35.0160   23.4320 C   0  0  0  0  0  0  0  0  0  0  0  0
  -26.5960  -34.9060   22.3960 O   0  0  0  0  0  0  0  0  0  0  0  0
  -25.0150  -34.1300   24.9980 H   0  0  0  0  0  0  0  0  0  0  0  0
  -24.2100  -36.8200   23.0960 C   0  0  0  0  0  1  0  0  0  0  0  0
  -25.4580  -36.4060   23.8920 C   0  0  0  0  0  3  0  0  0  0  0  0
  -27.5980  -37.2970   24.7100 C   0  0  0  0  0  1  0  0  0  0  0  0
  -26.4910  -37.4570   23.7700 N   0  0  0  0  0  0  0  0  0  0  0  0
  -26.0830  -38.3780   23.9130 H   0  0  0  0  0  0  0  0  0  0  0  0
  -26.4080  -31.8080   25.1740 C   0  0  1  0  0  0  0  0  0  0  0  0
  -25.3000  -31.5980   26.2310 C   0  0  0  0  0  1  0  0  0  0  0  0
  -26.9880  -30.4200   24.8130 C   0  0  0  0  0  1  0  0  0  0  0  0
  -27.5440  -32.6120   25.8500 C   0  0  0  0  0  1  0  0  0  0  0  0
  -30.1690  -17.8150   20.4450 C   0  0  0  0  0  2  0  0  0  0  0  0
  -30.5420  -15.0650   20.2260 C   0  0  0  0  0  0  0  0  0  0  0  0
  -30.4070  -12.7150   19.2730 C   0  0  0  0  0  2  0  0  0  0  0  0
  -29.4440  -12.6450   18.0670 C   0  0  0  0  0  2  0  0  0  0  0  0
  -27.9900  -12.4360   18.5320 C   0  0  0  0  0  2  0  0  0  0  0  0
  -27.6030  -13.3510   19.7220 C   0  0  0  0  0  3  0  0  0  0  0  0
  -28.6890  -13.3810   20.8170 C   0  0  0  0  0  2  0  0  0  0  0  0
  -29.9300  -13.8090   20.1640 N   0  0  0  0  0  0  0  0  0  0  0  0
  -31.7570  -15.1000   20.0220 O   0  0  0  0  0  0  0  0  0  0  0  0
  -29.7800  -16.2750   20.2960 N   0  0  0  0  0  0  0  0  0  0  0  0
  -28.7860  -16.1110   20.3200 H   0  0  0  0  0  0  0  0  0  0  0  0
  -25.2300  -13.9070   20.4910 C   0  0  0  0  0  0  0  0  0  0  0  0
  -24.1770  -13.1160   20.8660 C   0  0  0  0  0  0  0  0  0  0  0  0
  -24.6540  -11.7700   20.8270 C   0  0  0  0  0  0  0  0  0  0  0  0
  -26.2790  -13.0380   20.2430 N   0  0  0  0  0  0  0  0  0  0  0  0
  -25.9430  -11.7480   20.5100 N   0  0  0  0  0  0  0  0  0  0  0  0
  -23.9390  -10.4980   21.0130 C   0  0  0  0  0  0  0  0  0  0  0  0
  -24.3720   -9.5390   21.9540 C   0  0  0  0  0  3  0  0  0  0  0  0
  -23.6550   -8.3350   22.1300 C   0  0  0  0  0  3  0  0  0  0  0  0
  -22.4900   -8.0820   21.3660 C   0  0  0  0  0  0  0  0  0  0  0  0
  -22.0800   -9.0300   20.4110 C   0  0  0  0  0  3  0  0  0  0  0  0
  -22.7990  -10.2240   20.2330 C   0  0  0  0  0  3  0  0  0  0  0  0
  -21.7450   -6.9320   21.4540 O   0  0  0  0  0  0  0  0  0  0  0  0
  -21.6770   -6.2040   22.6160 C   0  0  0  0  0  0  0  0  0  0  0  0
  -21.1760   -6.7560   23.8150 C   0  0  0  0  0  3  0  0  0  0  0  0
  -21.0600   -5.9510   24.9670 C   0  0  0  0  0  3  0  0  0  0  0  0
  -21.4330   -4.5940   24.9190 C   0  0  0  0  0  0  0  0  0  0  0  0
  -21.9280   -4.0420   23.7260 C   0  0  0  0  0  3  0  0  0  0  0  0
  -22.0450   -4.8430   22.5760 C   0  0  0  0  0  0  0  0  0  0  0  0
  -22.5010   -4.3000   21.4230 F   0  0  0  0  0  0  0  0  0  0  0  0
  -21.3140   -3.8190   26.0230 F   0  0  0  0  0  0  0  0  0  0  0  0
  -22.7760  -13.5760   21.1500 C   0  0  0  0  0  0  0  0  0  0  0  0
  -22.0600  -12.8600   22.0110 N   0  0  0  0  0  0  0  0  0  0  0  0
  -22.3230  -14.6000   20.6410 O   0  0  0  0  0  0  0  0  0  0  0  0
  -22.4420  -12.0350   22.4500 H   0  0  0  0  0  0  0  0  0  0  0  0
  -21.1180  -13.1410   22.2380 H   0  0  0  0  0  0  0  0  0  0  0  0
  -25.3790  -15.2800   20.3110 N   0  0  0  0  0  0  0  0  0  0  0  0
  -24.6060  -15.9300   20.4050 H   0  0  0  0  0  0  0  0  0  0  0  0
  -26.2230  -15.7180   19.9600 H   0  0  0  0  0  0  0  0  0  0  0  0
  1  8  2  0
  2  3  1  0
  2  4  1  0
  3  6  1  0
  4  7  1  0
  6 51  1  0
  6  5  1  0
  7  1  1  0
  7  5  1  0
  9 10  1  0
  9  1  1  0
 11 22  2  0
 12 10  1  0
 12 17  1  0
 13 21  1  0
 13 23  1  0
 14 20  1  0
 14 16  1  0
 15 21  1  0
 16 15  1  0
 17 16  2  0
 18 19  1  0
 18 12  2  0
 19 14  2  0
 20 13  1  0
 21 11  1  0
 23 25  2  0
 24 23  1  0
 26 24  1  0
 27 36  2  0
 27 32  1  0
 28 24  1  0
 28 32  1  0
 29 28  1  0
 30 31  1  0
 30 29  1  0
 31 27  1  0
 32 33  2  0
 33 34  1  0
 35 34  2  0
 36 35  1  0
 37 11  1  0
 37 38  1  0
 37 47  1  0
 38 41  1  0
 39 43  1  0
 39 38  1  0
 40 39  2  0
 43 42  1  0
 45 43  1  0
 45 46  1  0
 45 44  1  0
 47 50  1  1
 47 48  1  0
 49 47  1  0
 52 60  1  0
 53 58  1  0
 54 55  1  0
 54 53  1  0
 56 55  1  0
 56 65  1  0
 56 57  1  0
 58 52  1  0
 58 57  1  0
 59 52  2  0
 60 61  1  0
 60 51  1  0
 62 63  2  0
 63 82  1  0
 64 63  1  0
 64 67  1  0
 65 62  1  0
 65 66  1  0
 66 64  2  0
 67 68  1  0
 68 69  2  0
 70 73  1  0
 70 69  1  0
 71 70  2  0
 72 71  1  0
 72 67  2  0
 73 74  1  0
 74 75  1  0
 75 76  2  0
 77 76  1  0
 77 81  1  0
 78 77  2  0
 79 74  2  0
 79 78  1  0
 80 79  1  0
 82 83  1  0
 83 86  1  0
 83 85  1  0
 84 82  2  0
 87 88  1  0
 87 62  1  0
 89 87  1  0
M  ISO  4   9 101  10 101  52 100  60 100
M  END
>  <TORSDO>  (21) 
F 18

>  <SCORE>  (21) 
-15.255

>  <name>  (21) 
21

>  <ligand_id>  (21) 
21

>  <original_smiles>  (21) 
[H]c1c([H])c([H])c2c(c1[H])C([H])([H])C([H])([H])C([H])([H])C2([H])N([H])C(=O)C1([H])N(C(=O)C([H])(N([H])C(=O)C([H])(N([H])C([H])([H])[H])C([H])([H])[H])C(C([H])([H])[H])(C([H])([H])[H])C([H])([H])[H])C([H])([H])c2c([H])c(OC([H])([H])C(=O)N3C([H])([H])C([H])([H])C([H])([H])C([H])(C([H])([H])N([H])C(=O)N4C([H])([H])C([H])([H])C([H])([H])C([H])(n5nc(-c6c([H])c([H])c(Oc7c([H])c([H])c(F)c([H])c7F)c([H])c6[H])c(C(=O)N([H])[H])c5N([H])[H])C4([H])[H])C3([H])[H])c([H])c([H])c2C1([H])[H]

>  <smiles>  (21) 
[H]c1c([H])c([H])c2c(c1[H])C([H])([H])C([H])([H])C([H])([H])C2([H])N([H])C(=O)C1([H])N(C(=O)C([H])(N([H])C(=O)C([H])(N([H])C([H])([H])[H])C([H])([H])[H])C(C([H])([H])[H])(C([H])([H])[H])C([H])([H])[H])C([H])([H])c2c([H])c(OC([H])([H])C(=O)N3C([H])([H])C([H])([H])C([H])([H])C([H])(C([H])([H])N([H])C(=O)N4C([H])([H])C([H])([H])C([H])([H])C([H])(n5nc(-c6c([H])c([H])c(Oc7c([H])c([H])c(F)c([H])c7F)c([H])c6[H])c(C(=O)N([H])[H])c5N([H])[H])C4([H])[H])C3([H])[H])c([H])c([H])c2C1([H])[H]

$$$$
22:0:0
     RDKit          3D

 87 94  0  0  1  0  0  0  0  0999 V2000
  -29.1770  -19.7480   20.0010 C   0  0  0  0  0  0  0  0  0  0  0  0
  -29.0550  -21.1280   20.5480 N   0  0  0  0  0  0  0  0  0  0  0  0
  -28.8260  -19.6230   18.8280 O   0  0  0  0  0  0  0  0  0  0  0  0
  -29.2990  -21.1410   21.5310 H   0  0  0  0  0  0  0  0  0  0  0  0
  -31.3310  -18.4880   20.7550 C   0  0  0  0  0  1  0  0  0  0  0  0
  -29.8120  -18.2540   20.6910 C   0  0  0  0  0  3  0  0  0  0  0  0
  -30.3810  -15.3300   20.2710 C   0  0  0  0  0  0  0  0  0  0  0  0
  -30.3620  -12.8880   19.3580 C   0  0  0  0  0  2  0  0  0  0  0  0
  -29.4350  -12.6640   18.1370 C   0  0  0  0  0  2  0  0  0  0  0  0
  -27.9910  -12.3830   18.5890 C   0  0  0  0  0  2  0  0  0  0  0  0
  -27.5400  -13.3440   19.7160 C   0  0  0  0  0  3  0  0  0  0  0  0
  -28.5940  -13.5020   20.8320 C   0  0  0  0  0  2  0  0  0  0  0  0
  -29.8090  -14.0260   20.1830 N   0  0  0  0  0  0  0  0  0  0  0  0
  -31.6100  -15.3100   20.1030 O   0  0  0  0  0  0  0  0  0  0  0  0
  -29.6170  -16.6090   20.3670 N   0  0  0  0  0  0  0  0  0  0  0  0
  -28.6310  -16.3970   20.3270 H   0  0  0  0  0  0  0  0  0  0  0  0
  -25.1710  -13.8920   20.4800 C   0  0  0  0  0  0  0  0  0  0  0  0
  -24.1140  -13.1110   20.8520 C   0  0  0  0  0  0  0  0  0  0  0  0
  -24.5880  -11.7630   20.8230 C   0  0  0  0  0  0  0  0  0  0  0  0
  -26.2170  -13.0210   20.2340 N   0  0  0  0  0  0  0  0  0  0  0  0
  -25.8790  -11.7340   20.5100 N   0  0  0  0  0  0  0  0  0  0  0  0
  -23.8660  -10.4970   21.0130 C   0  0  0  0  0  0  0  0  0  0  0  0
  -24.2950   -9.5360   21.9550 C   0  0  0  0  0  3  0  0  0  0  0  0
  -23.5690   -8.3380   22.1350 C   0  0  0  0  0  3  0  0  0  0  0  0
  -22.4020   -8.0930   21.3740 C   0  0  0  0  0  0  0  0  0  0  0  0
  -21.9940   -9.0430   20.4210 C   0  0  0  0  0  3  0  0  0  0  0  0
  -22.7190  -10.2320   20.2380 C   0  0  0  0  0  3  0  0  0  0  0  0
  -21.6490   -6.9460   21.4620 O   0  0  0  0  0  0  0  0  0  0  0  0
  -21.5880   -6.2150   22.6210 C   0  0  0  0  0  0  0  0  0  0  0  0
  -21.1350   -6.7770   23.8340 C   0  0  0  0  0  3  0  0  0  0  0  0
  -21.0210   -5.9710   24.9840 C   0  0  0  0  0  3  0  0  0  0  0  0
  -21.3480   -4.6040   24.9230 C   0  0  0  0  0  0  0  0  0  0  0  0
  -21.7950   -4.0410   23.7150 C   0  0  0  0  0  3  0  0  0  0  0  0
  -21.9100   -4.8440   22.5660 C   0  0  0  0  0  0  0  0  0  0  0  0
  -22.3200   -4.2910   21.3990 F   0  0  0  0  0  0  0  0  0  0  0  0
  -21.2320   -3.8280   26.0260 F   0  0  0  0  0  0  0  0  0  0  0  0
  -22.7150  -13.5820   21.1160 C   0  0  0  0  0  0  0  0  0  0  0  0
  -21.9850  -12.8830   21.9780 N   0  0  0  0  0  0  0  0  0  0  0  0
  -22.2770  -14.6070   20.5940 O   0  0  0  0  0  0  0  0  0  0  0  0
  -22.3540  -12.0560   22.4230 H   0  0  0  0  0  0  0  0  0  0  0  0
  -21.0450  -13.1810   22.1990 H   0  0  0  0  0  0  0  0  0  0  0  0
  -25.3230  -15.2640   20.2980 N   0  0  0  0  0  0  0  0  0  0  0  0
  -24.5460  -15.9070   20.4030 H   0  0  0  0  0  0  0  0  0  0  0  0
  -26.1520  -15.7050   19.9220 H   0  0  0  0  0  0  0  0  0  0  0  0
  -28.8450  -22.6990   19.9660 C   0  0  0  0  0  2  0  0  0  0  0  0
  -28.0870  -24.2320   20.5820 C   0  0  0  0  0  2  0  0  0  0  0  0
  -28.2550  -25.8650   20.3110 O   0  0  0  0  0  0  0  0  0  0  0  0
  -24.6380  -31.8680   23.2360 C   0  0  0  0  0  0  0  0  0  0  0  0
  -27.2220  -26.9480   20.3000 C   0  0  0  0  0  0  0  0  0  0  0  0
  -23.4570  -30.4490   21.6080 C   0  0  0  0  0  3  0  0  0  0  0  0
  -24.9170  -28.8260   20.2180 C   0  0  0  0  0  0  0  0  0  0  0  0
  -26.0250  -30.6630   21.4710 C   0  0  0  0  0  2  0  0  0  0  0  0
  -26.1030  -29.2430   20.8360 C   0  0  0  0  0  0  0  0  0  0  0  0
  -27.2520  -28.3280   20.8450 C   0  0  0  0  0  3  0  0  0  0  0  0
  -26.0020  -26.6820   19.6400 C   0  0  0  0  0  3  0  0  0  0  0  0
  -24.8920  -27.5660   19.5990 C   0  0  0  0  0  3  0  0  0  0  0  0
  -23.6970  -29.7470   20.2430 C   0  0  0  0  0  2  0  0  0  0  0  0
  -24.7280  -31.0220   22.1590 N   0  0  0  0  0  0  0  0  0  0  0  0
  -23.5440  -32.1600   23.7480 O   0  0  0  0  0  0  0  0  0  0  0  0
  -22.7590  -29.4640   22.5820 C   0  0  0  0  0  0  0  0  0  0  0  0
  -21.4290  -29.3000   22.4570 N   0  0  0  0  0  0  0  0  0  0  0  0
  -23.4230  -28.8460   23.4190 O   0  0  0  0  0  0  0  0  0  0  0  0
  -20.9470  -29.8490   21.7580 H   0  0  0  0  0  0  0  0  0  0  0  0
  -18.0450  -28.0940   22.9700 C   0  0  0  0  0  0  0  0  0  0  0  0
  -20.6050  -28.3690   23.2350 C   0  0  0  0  0  3  0  0  0  0  0  0
  -20.7100  -26.9320   22.6750 C   0  0  0  0  0  2  0  0  0  0  0  0
  -19.6100  -26.5970   21.6620 C   0  0  0  0  0  2  0  0  0  0  0  0
  -18.2270  -26.7410   22.3020 C   0  0  0  0  0  2  0  0  0  0  0  0
  -19.1610  -28.8650   23.3930 C   0  0  0  0  0  0  0  0  0  0  0  0
  -18.9340  -30.1290   23.9800 C   0  0  0  0  0  3  0  0  0  0  0  0
  -17.6270  -30.6230   24.1460 C   0  0  0  0  0  3  0  0  0  0  0  0
  -16.5270  -29.8510   23.7360 C   0  0  0  0  0  3  0  0  0  0  0  0
  -16.7360  -28.5880   23.1540 C   0  0  0  0  0  3  0  0  0  0  0  0
  -25.9030  -32.5220   23.8700 C   0  0  0  0  0  3  0  0  0  0  0  0
  -26.3990  -31.7780   25.1700 C   0  0  1  0  0  0  0  0  0  0  0  0
  -25.2910  -31.5630   26.2280 C   0  0  0  0  0  1  0  0  0  0  0  0
  -26.9880  -30.3920   24.8250 C   0  0  0  0  0  1  0  0  0  0  0  0
  -27.5400  -32.5860   25.8330 C   0  0  0  0  0  1  0  0  0  0  0  0
  -25.5790  -33.9250   24.1820 N   0  0  0  0  0  0  0  0  0  0  0  0
  -25.9180  -34.9790   23.4280 C   0  0  0  0  0  0  0  0  0  0  0  0
  -26.5980  -34.8730   22.4040 O   0  0  0  0  0  0  0  0  0  0  0  0
  -24.9750  -34.0820   24.9760 H   0  0  0  0  0  0  0  0  0  0  0  0
  -24.1960  -36.7800   23.0550 C   0  0  0  0  0  1  0  0  0  0  0  0
  -25.4290  -36.3720   23.8780 C   0  0  0  0  0  3  0  0  0  0  0  0
  -27.5550  -37.2630   24.7290 C   0  0  0  0  0  1  0  0  0  0  0  0
  -26.4640  -37.4250   23.7710 N   0  0  0  0  0  0  0  0  0  0  0  0
  -26.0560  -38.3460   23.9080 H   0  0  0  0  0  0  0  0  0  0  0  0
  1  2  1  0
  1  6  1  0
  2  4  1  0
  3  1  2  0
  6  5  1  0
  7 15  1  0
  8 13  1  0
  9 10  1  0
  9  8  1  0
 11 10  1  0
 11 20  1  0
 11 12  1  0
 13  7  1  0
 13 12  1  0
 14  7  2  0
 15  6  1  0
 16 15  1  0
 17 18  2  0
 18 37  1  0
 19 18  1  0
 19 22  1  0
 20 17  1  0
 20 21  1  0
 21 19  2  0
 22 23  1  0
 23 24  2  0
 25 28  1  0
 25 24  1  0
 26 25  2  0
 27 26  1  0
 27 22  2  0
 28 29  1  0
 29 30  1  0
 30 31  2  0
 32 31  1  0
 32 36  1  0
 33 32  2  0
 34 29  2  0
 34 33  1  0
 35 34  1  0
 37 38  1  0
 38 41  1  0
 38 40  1  0
 39 37  2  0
 42 43  1  0
 42 17  1  0
 44 42  1  0
 45  2  1  0
 45 46  1  0
 47 46  1  0
 48 59  2  0
 49 47  1  0
 49 54  1  0
 50 58  1  0
 50 60  1  0
 51 57  1  0
 51 53  1  0
 52 58  1  0
 53 54  2  0
 53 52  1  0
 55 49  2  0
 56 55  1  0
 56 51  2  0
 57 50  1  0
 58 48  1  0
 60 62  2  0
 61 60  1  0
 63 61  1  0
 64 73  2  0
 64 69  1  0
 65 61  1  0
 65 69  1  0
 66 65  1  0
 67 68  1  0
 67 66  1  0
 68 64  1  0
 69 70  2  0
 70 71  1  0
 72 71  2  0
 73 72  1  0
 74 48  1  0
 74 79  1  0
 74 75  1  0
 75 78  1  1
 75 76  1  0
 77 75  1  0
 79 82  1  0
 80 84  1  0
 80 79  1  0
 81 80  2  0
 84 83  1  0
 86 84  1  0
 86 87  1  0
 86 85  1  0
M  ISO  4   7 100  15 100  46 101  47 101
M  END
>  <TORSDO>  (22) 
F 19

>  <SCORE>  (22) 
-16.531

>  <name>  (22) 
22

>  <ligand_id>  (22) 
22

>  <original_smiles>  (22) 
[H]c1c([H])c([H])c2c(c1[H])C([H])([H])C([H])([H])C([H])([H])C2([H])N([H])C(=O)C1([H])N(C(=O)C([H])(N([H])C(=O)C([H])(N([H])C([H])([H])[H])C([H])([H])[H])C(C([H])([H])[H])(C([H])([H])[H])C([H])([H])[H])C([H])([H])c2c([H])c(OC([H])([H])C([H])([H])N([H])C(=O)C([H])(N([H])C(=O)N3C([H])([H])C([H])([H])C([H])([H])C([H])(n4nc(-c5c([H])c([H])c(Oc6c([H])c([H])c(F)c([H])c6F)c([H])c5[H])c(C(=O)N([H])[H])c4N([H])[H])C3([H])[H])C([H])([H])[H])c([H])c([H])c2C1([H])[H]

>  <smiles>  (22) 
[H]c1c([H])c([H])c2c(c1[H])C([H])([H])C([H])([H])C([H])([H])C2([H])N([H])C(=O)C1([H])N(C(=O)C([H])(N([H])C(=O)C([H])(N([H])C([H])([H])[H])C([H])([H])[H])C(C([H])([H])[H])(C([H])([H])[H])C([H])([H])[H])C([H])([H])c2c([H])c(OC([H])([H])C([H])([H])N([H])C(=O)C([H])(N([H])C(=O)N3C([H])([H])C([H])([H])C([H])([H])C([H])(n4nc(-c5c([H])c([H])c(Oc6c([H])c([H])c(F)c([H])c6F)c([H])c5[H])c(C(=O)N([H])[H])c4N([H])[H])C3([H])[H])C([H])([H])[H])c([H])c([H])c2C1([H])[H]

$$$$
23:0:0
     RDKit          3D

 88 96  0  0  1  0  0  0  0  0999 V2000
  -30.6790  -14.8500   20.3980 C   0  0  0  0  0  0  0  0  0  0  0  0
  -30.3880  -12.5580   19.4100 C   0  0  0  0  0  2  0  0  0  0  0  0
  -29.4770  -12.5570   18.1670 C   0  0  0  0  0  2  0  0  0  0  0  0
  -28.0070  -12.3910   18.5910 C   0  0  0  0  0  2  0  0  0  0  0  0
  -27.6130  -13.3280   19.7640 C   0  0  0  0  0  3  0  0  0  0  0  0
  -28.6600  -13.3350   20.8980 C   0  0  0  0  0  2  0  0  0  0  0  0
  -29.9430  -13.6810   20.2800 N   0  0  0  0  0  0  0  0  0  0  0  0
  -31.8940  -14.7470   20.1960 O   0  0  0  0  0  0  0  0  0  0  0  0
  -29.5190  -20.7750   19.7450 C   0  0  0  0  0  0  0  0  0  0  0  0
  -30.1450  -18.4300   19.0220 C   0  0  0  0  0  3  0  0  0  0  0  0
  -29.0560  -18.5210   21.1490 C   0  0  0  0  0  3  0  0  0  0  0  0
  -30.9430  -17.2200   19.6270 C   0  0  0  0  0  3  0  0  0  0  0  0
  -29.0270  -16.8810   21.0030 C   0  0  0  0  0  3  0  0  0  0  0  0
  -29.5610  -19.3760   20.0140 N   0  0  0  0  0  0  0  0  0  0  0  0
  -30.1210  -16.1520   20.2600 N   0  0  0  0  0  0  0  0  0  0  0  0
  -30.0610  -21.1680   18.7070 O   0  0  0  0  0  0  0  0  0  0  0  0
  -25.2290  -13.9340   20.4720 C   0  0  0  0  0  0  0  0  0  0  0  0
  -24.1550  -13.1730   20.8360 C   0  0  0  0  0  0  0  0  0  0  0  0
  -24.6070  -11.8170   20.8230 C   0  0  0  0  0  0  0  0  0  0  0  0
  -26.2680  -13.0460   20.2550 N   0  0  0  0  0  0  0  0  0  0  0  0
  -25.9030  -11.7670   20.5330 N   0  0  0  0  0  0  0  0  0  0  0  0
  -23.8670  -10.5630   21.0100 C   0  0  0  0  0  0  0  0  0  0  0  0
  -24.2860   -9.5890   21.9430 C   0  0  0  0  0  3  0  0  0  0  0  0
  -23.5450   -8.4010   22.1190 C   0  0  0  0  0  3  0  0  0  0  0  0
  -22.3700   -8.1770   21.3630 C   0  0  0  0  0  0  0  0  0  0  0  0
  -21.9700   -9.1390   20.4180 C   0  0  0  0  0  3  0  0  0  0  0  0
  -22.7110  -10.3190   20.2390 C   0  0  0  0  0  3  0  0  0  0  0  0
  -21.6010   -7.0420   21.4480 O   0  0  0  0  0  0  0  0  0  0  0  0
  -21.5500   -6.2910   22.5950 C   0  0  0  0  0  0  0  0  0  0  0  0
  -21.1550   -6.8450   23.8330 C   0  0  0  0  0  3  0  0  0  0  0  0
  -21.0520   -6.0220   24.9720 C   0  0  0  0  0  3  0  0  0  0  0  0
  -21.3330   -4.6450   24.8740 C   0  0  0  0  0  0  0  0  0  0  0  0
  -21.7230   -4.0920   23.6420 C   0  0  0  0  0  3  0  0  0  0  0  0
  -21.8280   -4.9120   22.5050 C   0  0  0  0  0  0  0  0  0  0  0  0
  -22.1820   -4.3690   21.3160 F   0  0  0  0  0  0  0  0  0  0  0  0
  -21.2280   -3.8520   25.9660 F   0  0  0  0  0  0  0  0  0  0  0  0
  -22.7590  -13.6650   21.0790 C   0  0  0  0  0  0  0  0  0  0  0  0
  -22.0110  -12.9880   21.9440 N   0  0  0  0  0  0  0  0  0  0  0  0
  -22.3380  -14.6870   20.5390 O   0  0  0  0  0  0  0  0  0  0  0  0
  -22.3650  -12.1620   22.4060 H   0  0  0  0  0  0  0  0  0  0  0  0
  -21.0740  -13.3010   22.1480 H   0  0  0  0  0  0  0  0  0  0  0  0
  -25.4060  -15.3010   20.2770 N   0  0  0  0  0  0  0  0  0  0  0  0
  -24.6350  -15.9570   20.3330 H   0  0  0  0  0  0  0  0  0  0  0  0
  -26.2490  -15.7130   19.9000 H   0  0  0  0  0  0  0  0  0  0  0  0
  -28.8460  -21.9930   20.5750 C   0  0  0  0  0  2  0  0  0  0  0  0
  -28.9650  -23.5460   19.9820 C   0  0  0  0  0  3  0  0  0  0  0  0
  -28.1400  -24.8490   20.5650 C   0  0  0  0  0  3  0  0  0  0  0  0
  -28.3690  -26.3030   20.1430 O   0  0  0  0  0  0  0  0  0  0  0  0
  -24.6910  -31.8530   23.1880 C   0  0  0  0  0  0  0  0  0  0  0  0
  -27.2840  -27.2280   20.1250 C   0  0  0  0  0  0  0  0  0  0  0  0
  -23.4870  -30.4500   21.5570 C   0  0  0  0  0  3  0  0  0  0  0  0
  -24.9350  -28.9020   20.1120 C   0  0  0  0  0  0  0  0  0  0  0  0
  -26.0310  -30.7590   21.3620 C   0  0  0  0  0  2  0  0  0  0  0  0
  -26.1120  -29.3740   20.7100 C   0  0  0  0  0  0  0  0  0  0  0  0
  -27.2910  -28.5530   20.6980 C   0  0  0  0  0  3  0  0  0  0  0  0
  -26.0890  -26.8420   19.4860 C   0  0  0  0  0  3  0  0  0  0  0  0
  -24.9310  -27.6470   19.4860 C   0  0  0  0  0  3  0  0  0  0  0  0
  -23.6970  -29.7790   20.1730 C   0  0  0  0  0  2  0  0  0  0  0  0
  -24.7560  -31.0410   22.0910 N   0  0  0  0  0  0  0  0  0  0  0  0
  -23.6090  -32.1240   23.7290 O   0  0  0  0  0  0  0  0  0  0  0  0
  -22.8320  -29.4300   22.5210 C   0  0  0  0  0  0  0  0  0  0  0  0
  -21.5050  -29.2470   22.4080 N   0  0  0  0  0  0  0  0  0  0  0  0
  -23.5200  -28.8060   23.3330 O   0  0  0  0  0  0  0  0  0  0  0  0
  -21.0080  -29.8020   21.7240 H   0  0  0  0  0  0  0  0  0  0  0  0
  -18.1380  -28.0290   22.9420 C   0  0  0  0  0  0  0  0  0  0  0  0
  -20.6980  -28.3040   23.1860 C   0  0  0  0  0  3  0  0  0  0  0  0
  -20.8030  -26.8750   22.6050 C   0  0  0  0  0  2  0  0  0  0  0  0
  -19.6930  -26.5480   21.6010 C   0  0  0  0  0  2  0  0  0  0  0  0
  -18.3160  -26.6840   22.2580 C   0  0  0  0  0  2  0  0  0  0  0  0
  -19.2570  -28.7980   23.3620 C   0  0  0  0  0  0  0  0  0  0  0  0
  -19.0360  -30.0570   23.9600 C   0  0  0  0  0  3  0  0  0  0  0  0
  -17.7290  -30.5480   24.1450 C   0  0  0  0  0  3  0  0  0  0  0  0
  -16.6250  -29.7760   23.7400 C   0  0  0  0  0  3  0  0  0  0  0  0
  -16.8310  -28.5200   23.1440 C   0  0  0  0  0  3  0  0  0  0  0  0
  -25.9720  -32.4970   23.8020 C   0  0  0  0  0  3  0  0  0  0  0  0
  -25.6460  -33.8870   24.1600 N   0  0  0  0  0  0  0  0  0  0  0  0
  -25.9500  -34.9570   23.4140 C   0  0  0  0  0  0  0  0  0  0  0  0
  -26.6040  -34.8810   22.3710 O   0  0  0  0  0  0  0  0  0  0  0  0
  -25.0640  -34.0190   24.9730 H   0  0  0  0  0  0  0  0  0  0  0  0
  -24.1900  -36.7330   23.1210 C   0  0  0  0  0  1  0  0  0  0  0  0
  -25.4520  -36.3320   23.9030 C   0  0  0  0  0  3  0  0  0  0  0  0
  -27.5900  -37.2320   24.7090 C   0  0  0  0  0  1  0  0  0  0  0  0
  -26.4680  -37.4020   23.7900 N   0  0  0  0  0  0  0  0  0  0  0  0
  -26.0520  -38.3120   23.9610 H   0  0  0  0  0  0  0  0  0  0  0  0
  -26.5140  -31.7170   25.0630 C   0  0  1  0  0  0  0  0  0  0  0  0
  -25.4380  -31.4590   26.1450 C   0  0  0  0  0  1  0  0  0  0  0  0
  -27.1050  -30.3500   24.6520 C   0  0  0  0  0  1  0  0  0  0  0  0
  -27.6670  -32.5170   25.7150 C   0  0  0  0  0  1  0  0  0  0  0  0
  2  7  1  0
  3  4  1  0
  3  2  1  0
  5  4  1  0
  5 20  1  0
  5  6  1  0
  7  1  1  0
  7  6  1  0
  8  1  2  0
  9 14  1  0
  9 45  1  0
 10 12  2  0
 10 14  1  0
 12 15  1  0
 13 11  2  0
 14 11  1  0
 15  1  1  0
 15 13  1  0
 16  9  2  0
 17 18  2  0
 18 37  1  0
 19 18  1  0
 19 22  1  0
 20 17  1  0
 20 21  1  0
 21 19  2  0
 22 23  1  0
 23 24  2  0
 25 28  1  0
 25 24  1  0
 26 25  2  0
 27 26  1  0
 27 22  2  0
 28 29  1  0
 29 30  1  0
 30 31  2  0
 32 31  1  0
 32 36  1  0
 33 32  2  0
 34 29  2  0
 34 33  1  0
 35 34  1  0
 37 38  1  0
 38 41  1  0
 38 40  1  0
 39 37  2  0
 42 43  1  0
 42 17  1  0
 44 42  1  0
 46 47  2  0
 46 45  1  0
 48 47  1  0
 49 60  2  0
 50 48  1  0
 50 55  1  0
 51 59  1  0
 51 61  1  0
 52 58  1  0
 52 54  1  0
 53 59  1  0
 54 53  1  0
 55 54  2  0
 56 50  2  0
 57 56  1  0
 57 52  2  0
 58 51  1  0
 59 49  1  0
 61 63  2  0
 62 61  1  0
 64 62  1  0
 65 74  2  0
 65 70  1  0
 66 62  1  0
 66 70  1  0
 67 66  1  0
 68 69  1  0
 68 67  1  0
 69 65  1  0
 70 71  2  0
 71 72  1  0
 73 72  2  0
 74 73  1  0
 75 49  1  0
 75 76  1  0
 75 85  1  0
 76 79  1  0
 77 81  1  0
 77 76  1  0
 78 77  2  0
 81 80  1  0
 83 81  1  0
 83 84  1  0
 83 82  1  0
 85 88  1  1
 85 86  1  0
 87 85  1  0
M  ISO  4   1 100  15 100  47 101  48 101
M  END
>  <TORSDO>  (23) 
F 18

>  <SCORE>  (23) 
-14.113

>  <name>  (23) 
23

>  <ligand_id>  (23) 
23

>  <original_smiles>  (23) 
[H]c1c([H])c([H])c2c(c1[H])C([H])([H])C([H])([H])C([H])([H])C2([H])N([H])C(=O)C1([H])N(C(=O)C([H])(N([H])C(=O)C([H])(N([H])C([H])([H])[H])C([H])([H])[H])C(C([H])([H])[H])(C([H])([H])[H])C([H])([H])[H])C([H])([H])c2c([H])c(OC([H])([H])C([H])([H])C([H])([H])C(=O)N3C([H])([H])C([H])([H])N(C(=O)N4C([H])([H])C([H])([H])C([H])([H])C([H])(n5nc(-c6c([H])c([H])c(Oc7c([H])c([H])c(F)c([H])c7F)c([H])c6[H])c(C(=O)N([H])[H])c5N([H])[H])C4([H])[H])C([H])([H])C3([H])[H])c([H])c([H])c2C1([H])[H]

>  <smiles>  (23) 
[H]c1c([H])c([H])c2c(c1[H])C([H])([H])C([H])([H])C([H])([H])C2([H])N([H])C(=O)C1([H])N(C(=O)C([H])(N([H])C(=O)C([H])(N([H])C([H])([H])[H])C([H])([H])[H])C(C([H])([H])[H])(C([H])([H])[H])C([H])([H])[H])C([H])([H])c2c([H])c(OC([H])([H])C([H])([H])C([H])([H])C(=O)N3C([H])([H])C([H])([H])N(C(=O)N4C([H])([H])C([H])([H])C([H])([H])C([H])(n5nc(-c6c([H])c([H])c(Oc7c([H])c([H])c(F)c([H])c7F)c([H])c6[H])c(C(=O)N([H])[H])c5N([H])[H])C4([H])[H])C([H])([H])C3([H])[H])c([H])c([H])c2C1([H])[H]

$$$$
24:0:0
     RDKit          3D

 96103  0  0  1  0  0  0  0  0999 V2000
  -26.0800  -23.6270   22.4850 C   0  0  0  0  0  2  0  0  0  0  0  0
  -26.1800  -25.1640   22.5490 C   0  0  0  0  0  2  0  0  0  0  0  0
  -27.4310  -25.7340   23.2610 C   0  0  0  0  0  2  0  0  0  0  0  0
  -29.4190  -24.9180   21.9210 C   0  0  0  0  0  0  0  0  0  0  0  0
  -28.6840  -25.0120   23.0400 N   0  0  0  0  0  0  0  0  0  0  0  0
  -30.5780  -24.5020   21.9860 O   0  0  0  0  0  0  0  0  0  0  0  0
  -29.1460  -24.6900   23.8780 H   0  0  0  0  0  0  0  0  0  0  0  0
  -28.8270  -25.2890   20.5530 C   0  0  0  0  0  2  0  0  0  0  0  0
  -28.8380  -26.7110   20.3880 O   0  0  0  0  0  0  0  0  0  0  0  0
  -24.9430  -31.8040   23.3960 C   0  0  0  0  0  0  0  0  0  0  0  0
  -27.6380  -27.3880   20.3470 C   0  0  0  0  0  0  0  0  0  0  0  0
  -23.7580  -30.4000   21.7400 C   0  0  0  0  0  3  0  0  0  0  0  0
  -25.2310  -28.8670   20.3320 C   0  0  0  0  0  0  0  0  0  0  0  0
  -26.2810  -30.7730   21.5680 C   0  0  0  0  0  2  0  0  0  0  0  0
  -26.3770  -29.4020   20.9320 C   0  0  0  0  0  0  0  0  0  0  0  0
  -27.5820  -28.6690   20.9370 C   0  0  0  0  0  3  0  0  0  0  0  0
  -26.4780  -26.8670   19.7300 C   0  0  0  0  0  3  0  0  0  0  0  0
  -25.2760  -27.5960   19.7290 C   0  0  0  0  0  3  0  0  0  0  0  0
  -23.9800  -29.7150   20.3650 C   0  0  0  0  0  2  0  0  0  0  0  0
  -25.0120  -31.0060   22.2930 N   0  0  0  0  0  0  0  0  0  0  0  0
  -23.8540  -32.0740   23.9220 O   0  0  0  0  0  0  0  0  0  0  0  0
  -23.0970  -29.3810   22.6930 C   0  0  0  0  0  0  0  0  0  0  0  0
  -21.7840  -29.1660   22.5150 N   0  0  0  0  0  0  0  0  0  0  0  0
  -23.7630  -28.7830   23.5420 O   0  0  0  0  0  0  0  0  0  0  0  0
  -21.3080  -29.7060   21.8060 H   0  0  0  0  0  0  0  0  0  0  0  0
  -18.4250  -27.8880   22.8890 C   0  0  0  0  0  0  0  0  0  0  0  0
  -20.9610  -28.2170   23.2650 C   0  0  0  0  0  3  0  0  0  0  0  0
  -21.1260  -26.7810   22.7170 C   0  0  0  0  0  2  0  0  0  0  0  0
  -20.0740  -26.4090   21.6650 C   0  0  0  0  0  2  0  0  0  0  0  0
  -18.6650  -26.5290   22.2520 C   0  0  0  0  0  2  0  0  0  0  0  0
  -19.5050  -28.6870   23.3520 C   0  0  0  0  0  0  0  0  0  0  0  0
  -19.2300  -29.9540   23.9080 C   0  0  0  0  0  3  0  0  0  0  0  0
  -17.9070  -30.4250   24.0070 C   0  0  0  0  0  3  0  0  0  0  0  0
  -16.8410  -29.6250   23.5590 C   0  0  0  0  0  3  0  0  0  0  0  0
  -17.1010  -28.3580   23.0070 C   0  0  0  0  0  3  0  0  0  0  0  0
  -26.2190  -32.4330   24.0340 C   0  0  0  0  0  3  0  0  0  0  0  0
  -26.7030  -31.6750   25.3300 C   0  0  1  0  0  0  0  0  0  0  0  0
  -25.5780  -31.4130   26.3580 C   0  0  0  0  0  1  0  0  0  0  0  0
  -27.3310  -30.3110   24.9590 C   0  0  0  0  0  1  0  0  0  0  0  0
  -27.8100  -32.4970   26.0330 C   0  0  0  0  0  1  0  0  0  0  0  0
  -25.9150  -33.8380   24.3340 N   0  0  0  0  0  0  0  0  0  0  0  0
  -26.2730  -34.8740   23.5640 C   0  0  0  0  0  0  0  0  0  0  0  0
  -26.9640  -34.7490   22.5500 O   0  0  0  0  0  0  0  0  0  0  0  0
  -25.3030  -34.0090   25.1190 H   0  0  0  0  0  0  0  0  0  0  0  0
  -24.5640  -36.6690   23.1390 C   0  0  0  0  0  1  0  0  0  0  0  0
  -25.7850  -36.2730   23.9840 C   0  0  0  0  0  3  0  0  0  0  0  0
  -27.9180  -37.1500   24.8270 C   0  0  0  0  0  1  0  0  0  0  0  0
  -26.8270  -37.3170   23.8720 N   0  0  0  0  0  0  0  0  0  0  0  0
  -26.4270  -38.2410   24.0040 H   0  0  0  0  0  0  0  0  0  0  0  0
  -26.7770  -23.0100   21.2630 C   0  0  0  0  0  2  0  0  0  0  0  0
  -26.5620  -21.4860   21.1590 C   0  0  0  0  0  2  0  0  0  0  0  0
  -27.1760  -20.8500   19.8920 C   0  0  0  0  0  2  0  0  0  0  0  0
  -28.6010  -20.3230   20.0840 C   0  0  0  0  0  0  0  0  0  0  0  0
  -28.7510  -19.0060   20.2770 N   0  0  0  0  0  0  0  0  0  0  0  0
  -29.5620  -21.0910   20.0220 O   0  0  0  0  0  0  0  0  0  0  0  0
  -27.9240  -18.4290   20.3480 H   0  0  0  0  0  0  0  0  0  0  0  0
  -30.0560  -18.3580   20.3050 C   0  0  0  0  0  2  0  0  0  0  0  0
  -29.9730  -16.8950   20.7660 C   0  0  0  0  0  2  0  0  0  0  0  0
  -31.6990  -15.0590   20.4610 C   0  0  0  0  0  0  0  0  0  0  0  0
  -31.4390  -12.7070   19.8290 C   0  0  0  0  0  2  0  0  0  0  0  0
  -30.6370  -12.6240   18.5130 C   0  0  0  0  0  2  0  0  0  0  0  0
  -29.1230  -12.5950   18.7990 C   0  0  0  0  0  2  0  0  0  0  0  0
  -28.6730  -13.7100   19.7820 C   0  0  0  0  0  3  0  0  0  0  0  0
  -29.6010  -13.7520   21.0220 C   0  0  0  0  0  2  0  0  0  0  0  0
  -30.9790  -13.9090   20.5380 N   0  0  0  0  0  0  0  0  0  0  0  0
  -32.9040  -15.0790   20.2190 O   0  0  0  0  0  0  0  0  0  0  0  0
  -31.0300  -16.1560   20.0930 N   0  0  0  0  0  0  0  0  0  0  0  0
  -31.6360  -16.7750   19.5720 H   0  0  0  0  0  0  0  0  0  0  0  0
  -26.2810  -14.5290   20.2760 C   0  0  0  0  0  0  0  0  0  0  0  0
  -25.1280  -13.8500   20.5790 C   0  0  0  0  0  0  0  0  0  0  0  0
  -25.4860  -12.4680   20.6260 C   0  0  0  0  0  0  0  0  0  0  0  0
  -27.2700  -13.5610   20.1590 N   0  0  0  0  0  0  0  0  0  0  0  0
  -26.7890  -12.3220   20.4280 N   0  0  0  0  0  0  0  0  0  0  0  0
  -24.6510  -11.2700   20.7870 C   0  0  0  0  0  0  0  0  0  0  0  0
  -24.9410  -10.2950   21.7670 C   0  0  0  0  0  3  0  0  0  0  0  0
  -24.1150   -9.1580   21.9130 C   0  0  0  0  0  3  0  0  0  0  0  0
  -22.9840   -8.9910   21.0790 C   0  0  0  0  0  0  0  0  0  0  0  0
  -22.7140   -9.9530   20.0890 C   0  0  0  0  0  3  0  0  0  0  0  0
  -23.5400  -11.0800   19.9410 C   0  0  0  0  0  3  0  0  0  0  0  0
  -22.1390   -7.9080   21.1330 O   0  0  0  0  0  0  0  0  0  0  0  0
  -21.9200   -7.2270   22.3030 C   0  0  0  0  0  0  0  0  0  0  0  0
  -21.4490   -7.8740   23.4660 C   0  0  0  0  0  3  0  0  0  0  0  0
  -21.1700   -7.1240   24.6260 C   0  0  0  0  0  3  0  0  0  0  0  0
  -21.3500   -5.7270   24.6220 C   0  0  0  0  0  0  0  0  0  0  0  0
  -21.8120   -5.0810   23.4610 C   0  0  0  0  0  3  0  0  0  0  0  0
  -22.0920   -5.8280   22.3050 C   0  0  0  0  0  0  0  0  0  0  0  0
  -22.5170   -5.1980   21.1830 F   0  0  0  0  0  0  0  0  0  0  0  0
  -21.0740   -5.0030   25.7320 F   0  0  0  0  0  0  0  0  0  0  0  0
  -23.7530  -14.4390   20.7190 C   0  0  0  0  0  0  0  0  0  0  0  0
  -22.9130  -13.8410   21.5600 N   0  0  0  0  0  0  0  0  0  0  0  0
  -23.4290  -15.4620   20.1190 O   0  0  0  0  0  0  0  0  0  0  0  0
  -23.1900  -13.0160   22.0700 H   0  0  0  0  0  0  0  0  0  0  0  0
  -21.9870  -14.2170   21.6990 H   0  0  0  0  0  0  0  0  0  0  0  0
  -26.5600  -15.8740   20.0630 N   0  0  0  0  0  0  0  0  0  0  0  0
  -25.8170  -16.5620   20.0280 H   0  0  0  0  0  0  0  0  0  0  0  0
  -27.4400  -16.2160   19.6970 H   0  0  0  0  0  0  0  0  0  0  0  0
  1  2  1  0
  2  3  1  0
  4  6  2  0
  4  5  1  0
  5  3  1  0
  5  7  1  0
  8  4  1  0
  9  8  1  0
 10 21  2  0
 11  9  1  0
 11 16  1  0
 12 20  1  0
 12 22  1  0
 13 19  1  0
 13 15  1  0
 14 20  1  0
 15 16  2  0
 15 14  1  0
 17 11  2  0
 18 17  1  0
 18 13  2  0
 19 12  1  0
 20 10  1  0
 22 24  2  0
 23 22  1  0
 25 23  1  0
 26 35  2  0
 26 31  1  0
 27 23  1  0
 27 31  1  0
 28 27  1  0
 29 30  1  0
 29 28  1  0
 30 26  1  0
 31 32  2  0
 32 33  1  0
 34 33  2  0
 35 34  1  0
 36 10  1  0
 36 41  1  0
 36 37  1  0
 37 40  1  1
 37 38  1  0
 39 37  1  0
 41 44  1  0
 42 46  1  0
 42 41  1  0
 43 42  2  0
 46 45  1  0
 48 46  1  0
 48 49  1  0
 48 47  1  0
 50  1  1  0
 51 50  1  0
 52 53  1  0
 52 51  1  0
 53 54  1  0
 54 57  1  0
 54 56  1  0
 55 53  2  0
 57 58  1  0
 59 65  1  0
 60 65  1  0
 61 62  1  0
 61 60  1  0
 63 62  1  0
 63 72  1  0
 63 64  1  0
 65 64  1  0
 66 59  2  0
 67 59  1  0
 67 58  1  0
 68 67  1  0
 69 70  2  0
 70 71  1  0
 70 89  1  0
 71 74  1  0
 72 69  1  0
 72 73  1  0
 73 71  2  0
 74 75  1  0
 75 76  2  0
 77 80  1  0
 77 76  1  0
 78 77  2  0
 79 78  1  0
 79 74  2  0
 80 81  1  0
 81 86  2  0
 81 82  1  0
 82 83  2  0
 84 83  1  0
 84 88  1  0
 85 84  2  0
 86 85  1  0
 87 86  1  0
 89 90  1  0
 90 93  1  0
 90 92  1  0
 91 89  2  0
 94 69  1  0
 95 94  1  0
 96 94  1  0
M  ISO  4   8 101   9 101  59 100  67 100
M  END
>  <TORSDO>  (24) 
F 26

>  <SCORE>  (24) 
-8.513

>  <name>  (24) 
24

>  <ligand_id>  (24) 
24

>  <original_smiles>  (24) 
[H]c1c([H])c([H])c2c(c1[H])C([H])([H])C([H])([H])C([H])([H])C2([H])N([H])C(=O)C1([H])N(C(=O)C([H])(N([H])C(=O)C([H])(N([H])C([H])([H])[H])C([H])([H])[H])C(C([H])([H])[H])(C([H])([H])[H])C([H])([H])[H])C([H])([H])c2c([H])c(OC([H])([H])C(=O)N([H])C([H])([H])C([H])([H])C([H])([H])C([H])([H])C([H])([H])C([H])([H])C(=O)N([H])C([H])([H])C([H])([H])N([H])C(=O)N3C([H])([H])C([H])([H])C([H])([H])C([H])(n4nc(-c5c([H])c([H])c(Oc6c([H])c([H])c(F)c([H])c6F)c([H])c5[H])c(C(=O)N([H])[H])c4N([H])[H])C3([H])[H])c([H])c([H])c2C1([H])[H]

>  <smiles>  (24) 
[H]c1c([H])c([H])c2c(c1[H])C([H])([H])C([H])([H])C([H])([H])C2([H])N([H])C(=O)C1([H])N(C(=O)C([H])(N([H])C(=O)C([H])(N([H])C([H])([H])[H])C([H])([H])[H])C(C([H])([H])[H])(C([H])([H])[H])C([H])([H])[H])C([H])([H])c2c([H])c(OC([H])([H])C(=O)N([H])C([H])([H])C([H])([H])C([H])([H])C([H])([H])C([H])([H])C([H])([H])C(=O)N([H])C([H])([H])C([H])([H])N([H])C(=O)N3C([H])([H])C([H])([H])C([H])([H])C([H])(n4nc(-c5c([H])c([H])c(Oc6c([H])c([H])c(F)c([H])c6F)c([H])c5[H])c(C(=O)N([H])[H])c4N([H])[H])C3([H])[H])c([H])c([H])c2C1([H])[H]

$$$$
25:0:0
     RDKit          3D

 96103  0  0  1  0  0  0  0  0999 V2000
  -30.0980  -20.5850   20.1080 C   0  0  0  0  0  3  0  0  0  0  0  0
  -29.6780  -22.1260   22.0420 C   0  0  0  0  0  0  0  0  0  0  0  0
  -28.8240  -22.4170   23.2730 C   0  0  0  0  0  1  0  0  0  0  0  0
  -29.4220  -21.0060   21.3460 N   0  0  0  0  0  0  0  0  0  0  0  0
  -30.5410  -22.9310   21.6920 O   0  0  0  0  0  0  0  0  0  0  0  0
  -28.6570  -20.4290   21.6730 H   0  0  0  0  0  0  0  0  0  0  0  0
  -29.6740  -21.6480   18.9760 C   0  0  0  0  0  0  0  0  0  0  0  0
  -29.3230  -22.9410   19.3200 N   0  0  0  0  0  0  0  0  0  0  0  0
  -29.6700  -21.3000   17.7940 O   0  0  0  0  0  0  0  0  0  0  0  0
  -29.3910  -23.1010   20.3210 H   0  0  0  0  0  0  0  0  0  0  0  0
  -28.9990  -24.1730   18.4920 C   0  0  0  0  0  3  0  0  0  0  0  0
  -28.2050  -25.3660   19.2210 C   0  0  0  0  0  3  0  0  0  0  0  0
  -28.0990  -26.7260   18.6110 O   0  0  0  0  0  0  0  0  0  0  0  0
  -24.4990  -31.4870   22.7420 C   0  0  0  0  0  0  0  0  0  0  0  0
  -26.9450  -27.4970   18.8510 C   0  0  0  0  0  0  0  0  0  0  0  0
  -23.1780  -30.2400   21.0700 C   0  0  0  0  0  3  0  0  0  0  0  0
  -24.5240  -28.9600   19.3060 C   0  0  0  0  0  0  0  0  0  0  0  0
  -25.6620  -30.7210   20.6560 C   0  0  0  0  0  2  0  0  0  0  0  0
  -25.7290  -29.4360   19.8350 C   0  0  0  0  0  0  0  0  0  0  0  0
  -26.9400  -28.7200   19.5940 C   0  0  0  0  0  3  0  0  0  0  0  0
  -25.7100  -27.0730   18.3120 C   0  0  0  0  0  3  0  0  0  0  0  0
  -24.5150  -27.7840   18.5400 C   0  0  0  0  0  3  0  0  0  0  0  0
  -23.2650  -29.7510   19.6000 C   0  0  0  0  0  2  0  0  0  0  0  0
  -24.4720  -30.8280   21.5450 N   0  0  0  0  0  0  0  0  0  0  0  0
  -23.4710  -31.6300   23.4210 O   0  0  0  0  0  0  0  0  0  0  0  0
  -22.6680  -29.0770   21.9520 C   0  0  0  0  0  0  0  0  0  0  0  0
  -21.3450  -28.8380   21.9370 N   0  0  0  0  0  0  0  0  0  0  0  0
  -23.4580  -28.3990   22.6150 O   0  0  0  0  0  0  0  0  0  0  0  0
  -20.7590  -29.4480   21.3860 H   0  0  0  0  0  0  0  0  0  0  0  0
  -18.1010  -27.3790   22.5890 C   0  0  0  0  0  0  0  0  0  0  0  0
  -20.6560  -27.7630   22.6550 C   0  0  0  0  0  3  0  0  0  0  0  0
  -20.7740  -26.4210   21.8960 C   0  0  0  0  0  2  0  0  0  0  0  0
  -19.5940  -26.1540   20.9550 C   0  0  0  0  0  2  0  0  0  0  0  0
  -18.2780  -26.1340   21.7370 C   0  0  0  0  0  2  0  0  0  0  0  0
  -19.2150  -28.1520   23.0080 C   0  0  0  0  0  0  0  0  0  0  0  0
  -18.9890  -29.3190   23.7700 C   0  0  0  0  0  3  0  0  0  0  0  0
  -17.6840  -29.7120   24.1180 C   0  0  0  0  0  3  0  0  0  0  0  0
  -16.5850  -28.9340   23.7150 C   0  0  0  0  0  3  0  0  0  0  0  0
  -16.7940  -27.7690   22.9560 C   0  0  0  0  0  3  0  0  0  0  0  0
  -25.8140  -32.1040   23.3060 C   0  0  0  0  0  3  0  0  0  0  0  0
  -25.4940  -33.4470   23.8140 N   0  0  0  0  0  0  0  0  0  0  0  0
  -25.7810  -34.5900   23.1770 C   0  0  0  0  0  0  0  0  0  0  0  0
  -26.4110  -34.6240   22.1170 O   0  0  0  0  0  0  0  0  0  0  0  0
  -24.9300  -33.4930   24.6490 H   0  0  0  0  0  0  0  0  0  0  0  0
  -24.0210  -36.3870   23.1000 C   0  0  0  0  0  1  0  0  0  0  0  0
  -25.2910  -35.9030   23.8180 C   0  0  0  0  0  3  0  0  0  0  0  0
  -27.4360  -36.7180   24.6970 C   0  0  0  0  0  1  0  0  0  0  0  0
  -26.3070  -36.9790   23.8050 N   0  0  0  0  0  0  0  0  0  0  0  0
  -25.8940  -37.8690   24.0740 H   0  0  0  0  0  0  0  0  0  0  0  0
  -26.4790  -31.2260   24.4360 C   0  0  1  0  0  0  0  0  0  0  0  0
  -25.5090  -30.8480   25.5810 C   0  0  0  0  0  1  0  0  0  0  0  0
  -27.0430  -29.9120   23.8440 C   0  0  0  0  0  1  0  0  0  0  0  0
  -27.6760  -31.9860   25.0550 C   0  0  0  0  0  1  0  0  0  0  0  0
  -29.8540  -18.9880   19.8320 C   0  0  0  0  0  2  0  0  0  0  0  0
  -30.8090  -17.7760   20.4000 C   0  0  0  0  0  3  0  0  0  0  0  0
  -31.4700  -15.3090   19.5810 C   0  0  0  0  0  0  0  0  0  0  0  0
  -31.1430  -13.0060   18.6550 C   0  0  0  0  0  2  0  0  0  0  0  0
  -30.1570  -13.0890   17.4700 C   0  0  0  0  0  2  0  0  0  0  0  0
  -28.7020  -13.0120   17.9790 C   0  0  0  0  0  2  0  0  0  0  0  0
  -28.4290  -13.9740   19.1690 C   0  0  0  0  0  3  0  0  0  0  0  0
  -29.5270  -13.8420   20.2420 C   0  0  0  0  0  2  0  0  0  0  0  0
  -30.8050  -14.1090   19.5710 N   0  0  0  0  0  0  0  0  0  0  0  0
  -32.6640  -15.3840   19.2790 O   0  0  0  0  0  0  0  0  0  0  0  0
  -30.6690  -16.4290   19.6990 N   0  0  0  0  0  0  0  0  0  0  0  0
  -29.7020  -16.1720   19.5680 H   0  0  0  0  0  0  0  0  0  0  0  0
  -26.1460  -14.7660   20.0320 C   0  0  0  0  0  0  0  0  0  0  0  0
  -25.0390  -14.0870   20.4540 C   0  0  0  0  0  0  0  0  0  0  0  0
  -25.3770  -12.6990   20.3810 C   0  0  0  0  0  0  0  0  0  0  0  0
  -27.0930  -13.8020   19.7250 N   0  0  0  0  0  0  0  0  0  0  0  0
  -26.6390  -12.5530   19.9990 N   0  0  0  0  0  0  0  0  0  0  0  0
  -24.5550  -11.5060   20.6050 C   0  0  0  0  0  0  0  0  0  0  0  0
  -24.9660  -10.4850   21.4930 C   0  0  0  0  0  3  0  0  0  0  0  0
  -24.1530   -9.3510   21.7050 C   0  0  0  0  0  3  0  0  0  0  0  0
  -22.9180   -9.2260   21.0270 C   0  0  0  0  0  0  0  0  0  0  0  0
  -22.5240  -10.2310   20.1280 C   0  0  0  0  0  3  0  0  0  0  0  0
  -23.3350  -11.3590   19.9140 C   0  0  0  0  0  3  0  0  0  0  0  0
  -22.0750   -8.1470   21.1510 O   0  0  0  0  0  0  0  0  0  0  0  0
  -21.9760   -7.4440   22.3240 C   0  0  0  0  0  0  0  0  0  0  0  0
  -21.6300   -8.0700   23.5390 C   0  0  0  0  0  3  0  0  0  0  0  0
  -21.4680   -7.2980   24.7090 C   0  0  0  0  0  3  0  0  0  0  0  0
  -21.6450   -5.9020   24.6620 C   0  0  0  0  0  0  0  0  0  0  0  0
  -21.9840   -5.2760   23.4490 C   0  0  0  0  0  3  0  0  0  0  0  0
  -22.1470   -6.0450   22.2850 C   0  0  0  0  0  0  0  0  0  0  0  0
  -22.4560   -5.4350   21.1150 F   0  0  0  0  0  0  0  0  0  0  0  0
  -21.4810   -5.1600   25.7820 F   0  0  0  0  0  0  0  0  0  0  0  0
  -23.7070  -14.6790   20.8060 C   0  0  0  0  0  0  0  0  0  0  0  0
  -23.0000  -14.0820   21.7590 N   0  0  0  0  0  0  0  0  0  0  0  0
  -23.3040  -15.7100   20.2630 O   0  0  0  0  0  0  0  0  0  0  0  0
  -23.3410  -13.2500   22.2180 H   0  0  0  0  0  0  0  0  0  0  0  0
  -22.1090  -14.4660   22.0420 H   0  0  0  0  0  0  0  0  0  0  0  0
  -26.4230  -16.1190   19.8570 N   0  0  0  0  0  0  0  0  0  0  0  0
  -25.7090  -16.8190   20.0230 H   0  0  0  0  0  0  0  0  0  0  0  0
  -27.2290  -16.4850   19.3720 H   0  0  0  0  0  0  0  0  0  0  0  0
  -30.5570  -17.3080   21.8780 C   0  0  0  0  0  2  0  0  0  0  0  0
  -30.8110  -17.5000   24.4200 C   0  0  0  0  0  1  0  0  0  0  0  0
  -30.6740  -18.2560   23.0810 C   0  0  0  0  0  2  0  0  0  0  0  0
  1 54  1  0
  1  4  1  0
  2  3  1  0
  4  6  1  0
  4  2  1  0
  5  2  2  0
  7  8  1  0
  7  1  1  0
  8 10  1  0
  9  7  2  0
 11 12  2  0
 11  8  1  0
 13 15  1  0
 13 12  1  0
 14 25  2  0
 15 20  1  0
 16 24  1  0
 16 26  1  0
 17 23  1  0
 17 19  1  0
 18 24  1  0
 19 18  1  0
 20 19  2  0
 21 22  1  0
 21 15  2  0
 22 17  2  0
 23 16  1  0
 24 14  1  0
 26 28  2  0
 27 26  1  0
 29 27  1  0
 30 39  2  0
 30 35  1  0
 31 27  1  0
 31 35  1  0
 32 31  1  0
 33 34  1  0
 33 32  1  0
 34 30  1  0
 35 36  2  0
 36 37  1  0
 38 37  2  0
 39 38  1  0
 40 14  1  0
 40 41  1  0
 40 50  1  0
 41 44  1  0
 42 41  1  0
 42 46  1  0
 43 42  2  0
 46 45  1  0
 48 46  1  0
 48 49  1  0
 48 47  1  0
 50 53  1  1
 50 51  1  0
 52 50  1  0
 55 54  1  0
 55 94  1  0
 56 64  1  0
 57 62  1  0
 58 59  1  0
 58 57  1  0
 60 59  1  0
 60 69  1  0
 60 61  1  0
 62 56  1  0
 62 61  1  0
 63 56  2  0
 64 55  1  0
 65 64  1  0
 66 67  2  0
 67 86  1  0
 68 67  1  0
 68 71  1  0
 69 70  1  0
 69 66  1  0
 70 68  2  0
 71 72  1  0
 72 73  2  0
 74 77  1  0
 74 73  1  0
 75 74  2  0
 76 75  1  0
 76 71  2  0
 77 78  1  0
 78 79  1  0
 79 80  2  0
 81 80  1  0
 81 85  1  0
 82 81  2  0
 83 78  2  0
 83 82  1  0
 84 83  1  0
 86 87  1  0
 87 90  1  0
 87 89  1  0
 88 86  2  0
 91 92  1  0
 91 66  1  0
 93 91  1  0
 94 96  1  0
 96 95  1  0
M  ISO  4  12 101  13 101  56 100  64 100
M  END
>  <TORSDO>  (25) 
F 24

>  <SCORE>  (25) 
-6.829

>  <name>  (25) 
25

>  <ligand_id>  (25) 
25

>  <original_smiles>  (25) 
[H]c1c([H])c([H])c2c(c1[H])C([H])([H])C([H])([H])C([H])([H])C2([H])N([H])C(=O)C1([H])N(C(=O)C([H])(N([H])C(=O)C([H])(N([H])C([H])([H])[H])C([H])([H])[H])C(C([H])([H])[H])(C([H])([H])[H])C([H])([H])[H])C([H])([H])c2c([H])c(OC([H])([H])C([H])([H])N([H])C(=O)C([H])(N([H])C(=O)C([H])([H])[H])C([H])([H])C([H])(N([H])C(=O)N3C([H])([H])C([H])([H])C([H])([H])C([H])(n4nc(-c5c([H])c([H])c(Oc6c([H])c([H])c(F)c([H])c6F)c([H])c5[H])c(C(=O)N([H])[H])c4N([H])[H])C3([H])[H])C([H])([H])C([H])([H])C([H])([H])[H])c([H])c([H])c2C1([H])[H]

>  <smiles>  (25) 
[H]c1c([H])c([H])c2c(c1[H])C([H])([H])C([H])([H])C([H])([H])C2([H])N([H])C(=O)C1([H])N(C(=O)C([H])(N([H])C(=O)C([H])(N([H])C([H])([H])[H])C([H])([H])[H])C(C([H])([H])[H])(C([H])([H])[H])C([H])([H])[H])C([H])([H])c2c([H])c(OC([H])([H])C([H])([H])N([H])C(=O)C([H])(N([H])C(=O)C([H])([H])[H])C([H])([H])C([H])(N([H])C(=O)N3C([H])([H])C([H])([H])C([H])([H])C([H])(n4nc(-c5c([H])c([H])c(Oc6c([H])c([H])c(F)c([H])c6F)c([H])c5[H])c(C(=O)N([H])[H])c4N([H])[H])C3([H])[H])C([H])([H])C([H])([H])C([H])([H])[H])c([H])c([H])c2C1([H])[H]

$$$$
26:0:0
     RDKit          3D

 95103  0  0  1  0  0  0  0  0999 V2000
  -26.8480  -21.2510   19.8270 C   0  0  0  0  0  2  0  0  0  0  0  0
  -29.1340  -20.5030   20.5360 C   0  0  0  0  0  0  0  0  0  0  0  0
  -27.8870  -20.9060   20.7980 N   0  0  0  0  0  0  0  0  0  0  0  0
  -29.6850  -20.6810   19.4490 O   0  0  0  0  0  0  0  0  0  0  0  0
  -27.5620  -20.7970   21.7490 H   0  0  0  0  0  0  0  0  0  0  0  0
  -29.8330  -19.7190   21.6540 C   0  0  0  0  0  2  0  0  0  0  0  0
  -31.4680  -14.5190   19.5700 C   0  0  0  0  0  0  0  0  0  0  0  0
  -30.9050  -12.3350   18.5610 C   0  0  0  0  0  2  0  0  0  0  0  0
  -29.8550  -12.5020   17.4440 C   0  0  0  0  0  2  0  0  0  0  0  0
  -28.4300  -12.4250   18.0260 C   0  0  0  0  0  2  0  0  0  0  0  0
  -28.2450  -13.3580   19.2460 C   0  0  0  0  0  3  0  0  0  0  0  0
  -29.4080  -13.1780   20.2640 C   0  0  0  0  0  2  0  0  0  0  0  0
  -30.6770  -13.4030   19.5540 N   0  0  0  0  0  0  0  0  0  0  0  0
  -32.5570  -14.5290   18.9860 O   0  0  0  0  0  0  0  0  0  0  0  0
  -29.5820  -17.7310   19.9730 C   0  0  0  0  0  2  0  0  0  0  0  0
  -31.6340  -17.8790   21.3930 C   0  0  0  0  0  2  0  0  0  0  0  0
  -29.7250  -16.2180   19.8300 C   0  0  0  0  0  2  0  0  0  0  0  0
  -32.0720  -16.6580   20.5430 C   0  0  0  0  0  2  0  0  0  0  0  0
  -30.1400  -18.2270   21.3150 C   0  0  0  0  0  3  0  0  0  0  0  0
  -31.0370  -15.6490   20.2070 N   0  0  0  0  0  0  0  0  0  0  0  0
  -26.0130  -14.1720   20.2380 C   0  0  0  0  0  0  0  0  0  0  0  0
  -24.9210  -13.4870   20.6920 C   0  0  0  0  0  0  0  0  0  0  0  0
  -25.2430  -12.1010   20.5630 C   0  0  0  0  0  0  0  0  0  0  0  0
  -26.9370  -13.2040   19.8670 N   0  0  0  0  0  0  0  0  0  0  0  0
  -26.4820  -11.9540   20.1210 N   0  0  0  0  0  0  0  0  0  0  0  0
  -24.4240  -10.9040   20.7750 C   0  0  0  0  0  0  0  0  0  0  0  0
  -24.8040   -9.9110   21.7020 C   0  0  0  0  0  3  0  0  0  0  0  0
  -23.9930   -8.7740   21.9060 C   0  0  0  0  0  3  0  0  0  0  0  0
  -22.7860   -8.6270   21.1800 C   0  0  0  0  0  0  0  0  0  0  0  0
  -22.4240   -9.6090   20.2420 C   0  0  0  0  0  3  0  0  0  0  0  0
  -23.2350  -10.7360   20.0360 C   0  0  0  0  0  3  0  0  0  0  0  0
  -21.9500   -7.5420   21.2920 O   0  0  0  0  0  0  0  0  0  0  0  0
  -21.8060   -6.8640   22.4770 C   0  0  0  0  0  0  0  0  0  0  0  0
  -21.3780   -7.5120   23.6560 C   0  0  0  0  0  3  0  0  0  0  0  0
  -21.1730   -6.7650   24.8350 C   0  0  0  0  0  3  0  0  0  0  0  0
  -21.3880   -5.3740   24.8330 C   0  0  0  0  0  0  0  0  0  0  0  0
  -21.8080   -4.7270   23.6580 C   0  0  0  0  0  3  0  0  0  0  0  0
  -22.0120   -5.4710   22.4820 C   0  0  0  0  0  0  0  0  0  0  0  0
  -22.3970   -4.8400   21.3460 F   0  0  0  0  0  0  0  0  0  0  0  0
  -21.1840   -4.6550   25.9610 F   0  0  0  0  0  0  0  0  0  0  0  0
  -23.6100  -14.0760   21.1290 C   0  0  0  0  0  0  0  0  0  0  0  0
  -22.9330  -13.4300   22.0700 N   0  0  0  0  0  0  0  0  0  0  0  0
  -23.2030  -15.1460   20.6730 O   0  0  0  0  0  0  0  0  0  0  0  0
  -23.2790  -12.5650   22.4580 H   0  0  0  0  0  0  0  0  0  0  0  0
  -22.0570  -13.8030   22.4060 H   0  0  0  0  0  0  0  0  0  0  0  0
  -26.2810  -15.5310   20.0870 N   0  0  0  0  0  0  0  0  0  0  0  0
  -25.5800  -16.2350   20.2880 H   0  0  0  0  0  0  0  0  0  0  0  0
  -27.1160  -15.9130   19.6630 H   0  0  0  0  0  0  0  0  0  0  0  0
  -26.8570  -22.6960   19.3160 C   0  0  0  0  0  0  0  0  0  0  0  0
  -28.0400  -23.2520   19.0420 N   0  0  0  0  0  0  0  0  0  0  0  0
  -25.7960  -23.3070   19.1900 O   0  0  0  0  0  0  0  0  0  0  0  0
  -28.8550  -22.6570   19.1790 H   0  0  0  0  0  0  0  0  0  0  0  0
  -28.2500  -24.6160   18.5660 C   0  0  0  0  0  2  0  0  0  0  0  0
  -28.1400  -25.6340   19.7120 C   0  0  0  0  0  2  0  0  0  0  0  0
  -28.1570  -26.9670   19.2030 O   0  0  0  0  0  0  0  0  0  0  0  0
  -24.5320  -31.7200   23.0050 C   0  0  0  0  0  0  0  0  0  0  0  0
  -26.9770  -27.6580   19.3330 C   0  0  0  0  0  0  0  0  0  0  0  0
  -23.2170  -30.4630   21.3250 C   0  0  0  0  0  3  0  0  0  0  0  0
  -24.5720  -29.1000   19.6490 C   0  0  0  0  0  0  0  0  0  0  0  0
  -25.7140  -30.8880   20.9770 C   0  0  0  0  0  2  0  0  0  0  0  0
  -25.7620  -29.5890   20.2010 C   0  0  0  0  0  0  0  0  0  0  0  0
  -26.9690  -28.8790   20.0360 C   0  0  0  0  0  3  0  0  0  0  0  0
  -25.7730  -27.1750   18.7760 C   0  0  0  0  0  3  0  0  0  0  0  0
  -24.5720  -27.8930   18.9270 C   0  0  0  0  0  3  0  0  0  0  0  0
  -23.3260  -29.9250   19.8730 C   0  0  0  0  0  2  0  0  0  0  0  0
  -24.5090  -31.0320   21.8280 N   0  0  0  0  0  0  0  0  0  0  0  0
  -23.4910  -31.9200   23.6480 O   0  0  0  0  0  0  0  0  0  0  0  0
  -22.6470  -29.3440   22.2240 C   0  0  0  0  0  0  0  0  0  0  0  0
  -21.3230  -29.1350   22.1490 N   0  0  0  0  0  0  0  0  0  0  0  0
  -23.3910  -28.6690   22.9410 O   0  0  0  0  0  0  0  0  0  0  0  0
  -20.7830  -29.7350   21.5400 H   0  0  0  0  0  0  0  0  0  0  0  0
  -18.0180  -27.7630   22.6520 C   0  0  0  0  0  0  0  0  0  0  0  0
  -20.5710  -28.1100   22.8720 C   0  0  0  0  0  3  0  0  0  0  0  0
  -20.7150  -26.7300   22.1890 C   0  0  0  0  0  2  0  0  0  0  0  0
  -19.5940  -26.4320   21.1860 C   0  0  0  0  0  2  0  0  0  0  0  0
  -18.2290  -26.4730   21.8790 C   0  0  0  0  0  2  0  0  0  0  0  0
  -19.1170  -28.5400   23.1040 C   0  0  0  0  0  0  0  0  0  0  0  0
  -18.8670  -29.7510   23.7860 C   0  0  0  0  0  3  0  0  0  0  0  0
  -17.5490  -30.1850   24.0210 C   0  0  0  0  0  3  0  0  0  0  0  0
  -16.4640  -29.4030   23.5860 C   0  0  0  0  0  3  0  0  0  0  0  0
  -16.6980  -28.1950   22.9060 C   0  0  0  0  0  3  0  0  0  0  0  0
  -25.8570  -32.3020   23.5880 C   0  0  0  0  0  3  0  0  0  0  0  0
  -25.5660  -33.6550   24.0800 N   0  0  0  0  0  0  0  0  0  0  0  0
  -25.8610  -34.7830   23.4210 C   0  0  0  0  0  0  0  0  0  0  0  0
  -26.4800  -34.7950   22.3540 O   0  0  0  0  0  0  0  0  0  0  0  0
  -25.0120  -33.7220   24.9220 H   0  0  0  0  0  0  0  0  0  0  0  0
  -24.1190  -36.5930   23.3340 C   0  0  0  0  0  1  0  0  0  0  0  0
  -25.3940  -36.1110   24.0450 C   0  0  0  0  0  3  0  0  0  0  0  0
  -27.5610  -36.9070   24.8790 C   0  0  0  0  0  1  0  0  0  0  0  0
  -26.4210  -37.1730   24.0040 N   0  0  0  0  0  0  0  0  0  0  0  0
  -26.0230  -38.0700   24.2670 H   0  0  0  0  0  0  0  0  0  0  0  0
  -26.4790  -31.4120   24.7340 C   0  0  1  0  0  0  0  0  0  0  0  0
  -25.4750  -31.0550   25.8530 C   0  0  0  0  0  1  0  0  0  0  0  0
  -27.0330  -30.0890   24.1560 C   0  0  0  0  0  1  0  0  0  0  0  0
  -27.6740  -32.1480   25.3810 C   0  0  0  0  0  1  0  0  0  0  0  0
  1  3  1  0
  2  3  1  0
  2  6  1  0
  3  5  1  0
  4  2  2  0
  7 20  1  0
  8 13  1  0
  9 10  1  0
  9  8  1  0
 11 10  1  0
 11 24  1  0
 11 12  1  0
 13  7  1  0
 13 12  1  0
 14  7  2  0
 15 19  1  0
 17 15  1  0
 17 20  1  0
 18 16  1  0
 19 16  1  0
 19  6  1  0
 20 18  1  0
 21 22  2  0
 22 41  1  0
 23 22  1  0
 23 26  1  0
 24 25  1  0
 24 21  1  0
 25 23  2  0
 26 27  1  0
 27 28  2  0
 29 32  1  0
 29 28  1  0
 30 29  2  0
 31 30  1  0
 31 26  2  0
 32 33  1  0
 33 38  2  0
 33 34  1  0
 34 35  2  0
 36 35  1  0
 36 40  1  0
 37 36  2  0
 38 37  1  0
 39 38  1  0
 41 42  1  0
 42 45  1  0
 42 44  1  0
 43 41  2  0
 46 21  1  0
 46 47  1  0
 48 46  1  0
 49  1  1  0
 50 52  1  0
 50 49  1  0
 51 49  2  0
 53 50  1  0
 53 54  1  0
 55 57  1  0
 55 54  1  0
 56 67  2  0
 57 62  1  0
 58 66  1  0
 58 68  1  0
 59 65  1  0
 59 61  1  0
 60 66  1  0
 61 60  1  0
 62 61  2  0
 63 64  1  0
 63 57  2  0
 64 59  2  0
 65 58  1  0
 66 56  1  0
 68 70  2  0
 69 68  1  0
 71 69  1  0
 72 81  2  0
 72 77  1  0
 73 69  1  0
 73 77  1  0
 74 73  1  0
 75 76  1  0
 75 74  1  0
 76 72  1  0
 77 78  2  0
 78 79  1  0
 80 79  2  0
 81 80  1  0
 82 56  1  0
 82 83  1  0
 82 92  1  0
 83 86  1  0
 84 88  1  0
 84 83  1  0
 85 84  2  0
 88 87  1  0
 90 88  1  0
 90 91  1  0
 90 89  1  0
 92 95  1  1
 92 93  1  0
 94 92  1  0
M  ISO  4   7 100  20 100  54 101  55 101
M  END
>  <TORSDO>  (26) 
F 21

>  <SCORE>  (26) 
-11.423

>  <name>  (26) 
26

>  <ligand_id>  (26) 
26

>  <original_smiles>  (26) 
[H]c1c([H])c([H])c2c(c1[H])C([H])([H])C([H])([H])C([H])([H])C2([H])N([H])C(=O)C1([H])N(C(=O)C([H])(N([H])C(=O)C([H])(N([H])C([H])([H])[H])C([H])([H])[H])C(C([H])([H])[H])(C([H])([H])[H])C([H])([H])[H])C([H])([H])c2c([H])c(OC([H])([H])C([H])([H])N([H])C(=O)C([H])([H])N([H])C(=O)C([H])([H])C3([H])C([H])([H])C([H])([H])N(C(=O)N4C([H])([H])C([H])([H])C([H])([H])C([H])(n5nc(-c6c([H])c([H])c(Oc7c([H])c([H])c(F)c([H])c7F)c([H])c6[H])c(C(=O)N([H])[H])c5N([H])[H])C4([H])[H])C([H])([H])C3([H])[H])c([H])c([H])c2C1([H])[H]

>  <smiles>  (26) 
[H]c1c([H])c([H])c2c(c1[H])C([H])([H])C([H])([H])C([H])([H])C2([H])N([H])C(=O)C1([H])N(C(=O)C([H])(N([H])C(=O)C([H])(N([H])C([H])([H])[H])C([H])([H])[H])C(C([H])([H])[H])(C([H])([H])[H])C([H])([H])[H])C([H])([H])c2c([H])c(OC([H])([H])C([H])([H])N([H])C(=O)C([H])([H])N([H])C(=O)C([H])([H])C3([H])C([H])([H])C([H])([H])N(C(=O)N4C([H])([H])C([H])([H])C([H])([H])C([H])(n5nc(-c6c([H])c([H])c(Oc7c([H])c([H])c(F)c([H])c7F)c([H])c6[H])c(C(=O)N([H])[H])c5N([H])[H])C4([H])[H])C([H])([H])C3([H])[H])c([H])c([H])c2C1([H])[H]

$$$$
27:0:0
     RDKit          3D

101108  0  0  1  0  0  0  0  0999 V2000
  -25.6550  -26.4320   15.6970 C   0  0  0  0  0  2  0  0  0  0  0  0
  -24.5880  -25.4990   16.2850 C   0  0  0  0  0  2  0  0  0  0  0  0
  -25.0180  -24.0250   16.2760 C   0  0  0  0  0  2  0  0  0  0  0  0
  -24.2410  -23.1950   17.3120 C   0  0  0  0  0  2  0  0  0  0  0  0
  -24.7330  -21.7450   17.4640 C   0  0  0  0  0  2  0  0  0  0  0  0
  -26.1550  -21.6390   18.0460 C   0  0  0  0  0  2  0  0  0  0  0  0
  -26.4690  -20.2640   18.6600 C   0  0  0  0  0  2  0  0  0  0  0  0
  -27.9310  -20.1390   19.1250 C   0  0  0  0  0  2  0  0  0  0  0  0
  -28.1720  -18.9490   20.0720 C   0  0  0  0  0  2  0  0  0  0  0  0
  -29.6690  -18.6900   20.3310 C   0  0  0  0  0  2  0  0  0  0  0  0
  -29.9360  -17.6120   21.4100 C   0  0  0  0  0  2  0  0  0  0  0  0
  -31.2090  -14.2940   20.2420 C   0  0  0  0  0  0  0  0  0  0  0  0
  -30.8010  -12.1040   19.1920 C   0  0  0  0  0  2  0  0  0  0  0  0
  -29.8680  -12.2850   17.9790 C   0  0  0  0  0  2  0  0  0  0  0  0
  -28.3880  -12.2360   18.4120 C   0  0  0  0  0  2  0  0  0  0  0  0
  -28.0870  -13.1570   19.6250 C   0  0  0  0  0  3  0  0  0  0  0  0
  -29.1300  -12.9500   20.7470 C   0  0  0  0  0  2  0  0  0  0  0  0
  -30.4720  -13.1530   20.1670 N   0  0  0  0  0  0  0  0  0  0  0  0
  -32.3240  -14.3890   19.7210 O   0  0  0  0  0  0  0  0  0  0  0  0
  -30.9930  -16.5950   20.9670 C   0  0  0  0  0  0  0  0  0  0  0  0
  -30.5680  -15.3300   20.8130 N   0  0  0  0  0  0  0  0  0  0  0  0
  -32.1460  -16.9920   20.7670 O   0  0  0  0  0  0  0  0  0  0  0  0
  -29.6200  -15.1430   21.0930 H   0  0  0  0  0  0  0  0  0  0  0  0
  -25.7340  -13.9170   20.3480 C   0  0  0  0  0  0  0  0  0  0  0  0
  -24.6180  -13.2140   20.7260 C   0  0  0  0  0  0  0  0  0  0  0  0
  -24.9960  -11.8360   20.6990 C   0  0  0  0  0  0  0  0  0  0  0  0
  -26.7210  -12.9720   20.1110 N   0  0  0  0  0  0  0  0  0  0  0  0
  -26.2780  -11.7150   20.3760 N   0  0  0  0  0  0  0  0  0  0  0  0
  -24.1950  -10.6240   20.9100 C   0  0  0  0  0  0  0  0  0  0  0  0
  -24.5650   -9.6560   21.8710 C   0  0  0  0  0  3  0  0  0  0  0  0
  -23.7780   -8.5020   22.0660 C   0  0  0  0  0  3  0  0  0  0  0  0
  -22.6020   -8.3100   21.3020 C   0  0  0  0  0  0  0  0  0  0  0  0
  -22.2480   -9.2660   20.3330 C   0  0  0  0  0  3  0  0  0  0  0  0
  -23.0360  -10.4120   20.1360 C   0  0  0  0  0  3  0  0  0  0  0  0
  -21.7850   -7.2110   21.4050 O   0  0  0  0  0  0  0  0  0  0  0  0
  -21.6680   -6.5080   22.5770 C   0  0  0  0  0  0  0  0  0  0  0  0
  -21.2550   -7.1260   23.7780 C   0  0  0  0  0  3  0  0  0  0  0  0
  -21.0830   -6.3530   24.9440 C   0  0  0  0  0  3  0  0  0  0  0  0
  -21.3150   -4.9640   24.9090 C   0  0  0  0  0  0  0  0  0  0  0  0
  -21.7180   -4.3460   23.7110 C   0  0  0  0  0  3  0  0  0  0  0  0
  -21.8920   -5.1180   22.5490 C   0  0  0  0  0  0  0  0  0  0  0  0
  -22.2640   -4.5150   21.3940 F   0  0  0  0  0  0  0  0  0  0  0  0
  -21.1410   -4.2200   26.0250 F   0  0  0  0  0  0  0  0  0  0  0  0
  -23.2550  -13.7790   21.0040 C   0  0  0  0  0  0  0  0  0  0  0  0
  -22.4940  -13.1460   21.8890 N   0  0  0  0  0  0  0  0  0  0  0  0
  -22.8720  -14.8180   20.4670 O   0  0  0  0  0  0  0  0  0  0  0  0
  -22.8130  -12.3020   22.3440 H   0  0  0  0  0  0  0  0  0  0  0  0
  -21.5780  -13.5050   22.1130 H   0  0  0  0  0  0  0  0  0  0  0  0
  -25.9810  -15.2730   20.1760 N   0  0  0  0  0  0  0  0  0  0  0  0
  -25.2670  -15.9740   20.3480 H   0  0  0  0  0  0  0  0  0  0  0  0
  -26.8640  -15.6690   19.8750 H   0  0  0  0  0  0  0  0  0  0  0  0
  -25.3150  -27.9150   15.9280 C   0  0  0  0  0  2  0  0  0  0  0  0
  -26.3160  -28.9250   15.3370 C   0  0  0  0  0  2  0  0  0  0  0  0
  -27.7900  -28.5910   15.5920 C   0  0  0  0  0  0  0  0  0  0  0  0
  -28.2350  -28.6500   16.8570 N   0  0  0  0  0  0  0  0  0  0  0  0
  -28.5150  -28.2950   14.6410 O   0  0  0  0  0  0  0  0  0  0  0  0
  -27.5740  -28.9020   17.5810 H   0  0  0  0  0  0  0  0  0  0  0  0
  -29.6080  -28.3750   17.2820 C   0  0  0  0  0  2  0  0  0  0  0  0
  -29.7430  -27.0230   18.0170 C   0  0  0  0  0  2  0  0  0  0  0  0
  -29.6270  -27.0770   19.5560 C   0  0  0  0  0  2  0  0  0  0  0  0
  -28.4390  -26.4350   20.0180 O   0  0  0  0  0  0  0  0  0  0  0  0
  -24.6080  -31.6260   23.1020 C   0  0  0  0  0  0  0  0  0  0  0  0
  -27.2950  -27.1910   20.0660 C   0  0  0  0  0  0  0  0  0  0  0  0
  -23.4170  -30.2080   21.4590 C   0  0  0  0  0  3  0  0  0  0  0  0
  -24.8820  -28.6530   20.0780 C   0  0  0  0  0  0  0  0  0  0  0  0
  -25.9380  -30.5770   21.2760 C   0  0  0  0  0  2  0  0  0  0  0  0
  -26.0310  -29.1960   20.6630 C   0  0  0  0  0  0  0  0  0  0  0  0
  -27.2410  -28.4670   20.6700 C   0  0  0  0  0  3  0  0  0  0  0  0
  -26.1230  -26.6400   19.5110 C   0  0  0  0  0  3  0  0  0  0  0  0
  -24.9160  -27.3630   19.5180 C   0  0  0  0  0  3  0  0  0  0  0  0
  -23.6380  -29.5070   20.0910 C   0  0  0  0  0  2  0  0  0  0  0  0
  -24.6730  -30.8170   22.0070 N   0  0  0  0  0  0  0  0  0  0  0  0
  -23.5220  -31.9050   23.6290 O   0  0  0  0  0  0  0  0  0  0  0  0
  -22.7490  -29.2040   22.4230 C   0  0  0  0  0  0  0  0  0  0  0  0
  -21.4190  -29.0610   22.3070 N   0  0  0  0  0  0  0  0  0  0  0  0
  -23.4230  -28.5570   23.2270 O   0  0  0  0  0  0  0  0  0  0  0  0
  -20.9410  -29.6370   21.6280 H   0  0  0  0  0  0  0  0  0  0  0  0
  -18.0130  -27.9870   22.8490 C   0  0  0  0  0  0  0  0  0  0  0  0
  -20.5820  -28.1440   23.0780 C   0  0  0  0  0  3  0  0  0  0  0  0
  -20.6230  -26.7180   22.4810 C   0  0  0  0  0  2  0  0  0  0  0  0
  -19.4900  -26.4510   21.4860 C   0  0  0  0  0  2  0  0  0  0  0  0
  -18.1270  -26.6410   22.1560 C   0  0  0  0  0  2  0  0  0  0  0  0
  -19.1670  -28.7000   23.2690 C   0  0  0  0  0  0  0  0  0  0  0  0
  -19.0050  -29.9670   23.8740 C   0  0  0  0  0  3  0  0  0  0  0  0
  -17.7210  -30.5120   24.0670 C   0  0  0  0  0  3  0  0  0  0  0  0
  -16.5820  -29.7950   23.6600 C   0  0  0  0  0  3  0  0  0  0  0  0
  -16.7310  -28.5340   23.0580 C   0  0  0  0  0  3  0  0  0  0  0  0
  -25.8890  -32.2540   23.7310 C   0  0  0  0  0  3  0  0  0  0  0  0
  -26.4200  -31.4520   24.9810 C   0  0  1  0  0  0  0  0  0  0  0  0
  -25.3400  -31.1820   26.0550 C   0  0  0  0  0  1  0  0  0  0  0  0
  -27.0020  -30.0870   24.5420 C   0  0  0  0  0  1  0  0  0  0  0  0
  -27.5780  -32.2300   25.6480 C   0  0  0  0  0  1  0  0  0  0  0  0
  -25.5670  -33.6400   24.0930 N   0  0  0  0  0  0  0  0  0  0  0  0
  -25.8850  -34.7100   23.3520 C   0  0  0  0  0  0  0  0  0  0  0  0
  -26.5480  -34.6320   22.3130 O   0  0  0  0  0  0  0  0  0  0  0  0
  -24.9700  -33.7710   24.8980 H   0  0  0  0  0  0  0  0  0  0  0  0
  -24.1340  -36.4900   23.0440 C   0  0  0  0  0  1  0  0  0  0  0  0
  -25.3870  -36.0840   23.8380 C   0  0  0  0  0  3  0  0  0  0  0  0
  -27.5270  -36.9770   24.6530 C   0  0  0  0  0  1  0  0  0  0  0  0
  -26.4090  -37.1490   23.7310 N   0  0  0  0  0  0  0  0  0  0  0  0
  -25.9970  -38.0610   23.9040 H   0  0  0  0  0  0  0  0  0  0  0  0
  1 52  1  0
  1  2  1  0
  3  2  1  0
  3  4  1  0
  4  5  1  0
  5  6  1  0
  6  7  1  0
  7  8  1  0
  8  9  1  0
  9 10  1  0
 10 11  1  0
 12 21  1  0
 13 18  1  0
 14 15  1  0
 14 13  1  0
 16 15  1  0
 16 27  1  0
 16 17  1  0
 18 12  1  0
 18 17  1  0
 19 12  2  0
 20 11  1  0
 21 20  1  0
 21 23  1  0
 22 20  2  0
 24 25  2  0
 25 44  1  0
 26 25  1  0
 26 29  1  0
 27 24  1  0
 27 28  1  0
 28 26  2  0
 29 30  1  0
 30 31  2  0
 32 35  1  0
 32 31  1  0
 33 32  2  0
 34 33  1  0
 34 29  2  0
 35 36  1  0
 36 37  1  0
 37 38  2  0
 39 38  1  0
 39 43  1  0
 40 39  2  0
 41 36  2  0
 41 40  1  0
 42 41  1  0
 44 45  1  0
 45 48  1  0
 45 47  1  0
 46 44  2  0
 49 50  1  0
 49 24  1  0
 51 49  1  0
 53 54  1  0
 53 52  1  0
 54 55  1  0
 55 58  1  0
 55 57  1  0
 56 54  2  0
 58 59  1  0
 59 60  1  0
 60 61  1  0
 61 63  1  0
 62 73  2  0
 63 68  1  0
 64 72  1  0
 64 74  1  0
 65 71  1  0
 65 67  1  0
 66 72  1  0
 67 68  2  0
 67 66  1  0
 69 70  1  0
 69 63  2  0
 70 65  2  0
 71 64  1  0
 72 62  1  0
 74 76  2  0
 75 74  1  0
 77 75  1  0
 78 87  2  0
 78 83  1  0
 79 75  1  0
 79 83  1  0
 80 79  1  0
 81 82  1  0
 81 80  1  0
 82 78  1  0
 83 84  2  0
 84 85  1  0
 86 85  2  0
 87 86  1  0
 88 62  1  0
 88 93  1  0
 88 89  1  0
 89 92  1  1
 89 90  1  0
 91 89  1  0
 93 96  1  0
 94 98  1  0
 94 93  1  0
 95 94  2  0
 98 97  1  0
100 98  1  0
100101  1  0
100 99  1  0
M  ISO  4  12 100  21 100  60 101  61 101
M  END
>  <TORSDO>  (27) 
F 32

>  <SCORE>  (27) 
-10.062

>  <name>  (27) 
27

>  <ligand_id>  (27) 
27

>  <original_smiles>  (27) 
[H]c1c([H])c([H])c2c(c1[H])C([H])([H])C([H])([H])C([H])([H])C2([H])N([H])C(=O)C1([H])N(C(=O)C([H])(N([H])C(=O)C([H])(N([H])C([H])([H])[H])C([H])([H])[H])C(C([H])([H])[H])(C([H])([H])[H])C([H])([H])[H])C([H])([H])c2c([H])c(OC([H])([H])C([H])([H])C([H])([H])N([H])C(=O)C([H])([H])C([H])([H])C([H])([H])C([H])([H])C([H])([H])C([H])([H])C([H])([H])C([H])([H])C([H])([H])C([H])([H])C([H])([H])C([H])([H])C([H])([H])C(=O)N([H])C(=O)N3C([H])([H])C([H])([H])C([H])([H])C([H])(n4nc(-c5c([H])c([H])c(Oc6c([H])c([H])c(F)c([H])c6F)c([H])c5[H])c(C(=O)N([H])[H])c4N([H])[H])C3([H])[H])c([H])c([H])c2C1([H])[H]

>  <smiles>  (27) 
[H]c1c([H])c([H])c2c(c1[H])C([H])([H])C([H])([H])C([H])([H])C2([H])N([H])C(=O)C1([H])N(C(=O)C([H])(N([H])C(=O)C([H])(N([H])C([H])([H])[H])C([H])([H])[H])C(C([H])([H])[H])(C([H])([H])[H])C([H])([H])[H])C([H])([H])c2c([H])c(OC([H])([H])C([H])([H])C([H])([H])N([H])C(=O)C([H])([H])C([H])([H])C([H])([H])C([H])([H])C([H])([H])C([H])([H])C([H])([H])C([H])([H])C([H])([H])C([H])([H])C([H])([H])C([H])([H])C([H])([H])C(=O)N([H])C(=O)N3C([H])([H])C([H])([H])C([H])([H])C([H])(n4nc(-c5c([H])c([H])c(Oc6c([H])c([H])c(F)c([H])c6F)c([H])c5[H])c(C(=O)N([H])[H])c4N([H])[H])C3([H])[H])c([H])c([H])c2C1([H])[H]

$$$$
28:0:0
     RDKit          3D

 82 86  0  0  1  0  0  0  0  0999 V2000
  -28.2030  -25.2140   20.1870 O   0  0  0  0  0  1  0  0  0  0  0  0
  -24.6590  -31.8230   23.1160 C   0  0  0  0  0  0  0  0  0  0  0  0
  -27.2270  -26.5180   20.2190 C   0  0  0  0  0  0  0  0  0  0  0  0
  -23.5030  -30.4040   21.4840 C   0  0  0  0  0  3  0  0  0  0  0  0
  -24.9680  -28.6960   20.1210 C   0  0  0  0  0  0  0  0  0  0  0  0
  -26.0920  -30.4850   21.4080 C   0  0  0  0  0  2  0  0  0  0  0  0
  -26.1660  -29.0180   20.7700 C   0  0  0  0  0  0  0  0  0  0  0  0
  -27.2690  -27.9690   20.7710 C   0  0  0  0  0  3  0  0  0  0  0  0
  -25.9850  -26.4690   19.5130 C   0  0  0  0  0  3  0  0  0  0  0  0
  -24.9320  -27.4500   19.4670 C   0  0  0  0  0  3  0  0  0  0  0  0
  -23.7680  -29.6710   20.1330 C   0  0  0  0  0  2  0  0  0  0  0  0
  -24.7790  -30.9440   22.0540 N   0  0  0  0  0  0  0  0  0  0  0  0
  -23.5550  -32.1300   23.6020 O   0  0  0  0  0  0  0  0  0  0  0  0
  -22.7610  -29.4600   22.4680 C   0  0  0  0  0  0  0  0  0  0  0  0
  -21.4220  -29.3490   22.3610 N   0  0  0  0  0  0  0  0  0  0  0  0
  -23.4040  -28.8170   23.3000 O   0  0  0  0  0  0  0  0  0  0  0  0
  -20.9470  -29.9240   21.6780 H   0  0  0  0  0  0  0  0  0  0  0  0
  -18.0030  -28.1330   22.8590 C   0  0  0  0  0  0  0  0  0  0  0  0
  -20.5950  -28.3830   23.0970 C   0  0  0  0  0  0  0  0  0  0  0  0
  -20.7720  -26.9760   22.4620 C   0  0  0  0  0  3  0  0  0  0  0  0
  -19.5380  -26.4150   21.7220 C   0  0  0  0  0  3  0  0  0  0  0  0
  -18.0990  -26.8440   22.0560 C   0  0  0  0  0  3  0  0  0  0  0  0
  -19.1450  -28.8670   23.2920 C   0  0  0  0  0  0  0  0  0  0  0  0
  -18.9400  -30.1130   23.9270 C   0  0  0  0  0  3  0  0  0  0  0  0
  -17.6430  -30.6230   24.1300 C   0  0  0  0  0  3  0  0  0  0  0  0
  -16.5250  -29.8800   23.7210 C   0  0  0  0  0  3  0  0  0  0  0  0
  -16.7080  -28.6360   23.0960 C   0  0  0  0  0  3  0  0  0  0  0  0
  -25.9010  -32.4970   23.7720 C   0  0  0  0  0  3  0  0  0  0  0  0
  -25.5540  -33.8960   24.1020 N   0  0  0  0  0  0  0  0  0  0  0  0
  -25.8860  -34.9730   23.3740 C   0  0  0  0  0  0  0  0  0  0  0  0
  -26.5670  -34.8910   22.3500 O   0  0  0  0  0  0  0  0  0  0  0  0
  -24.9460  -34.0310   24.8960 H   0  0  0  0  0  0  0  0  0  0  0  0
  -24.1500  -36.7720   23.0460 C   0  0  0  0  0  1  0  0  0  0  0  0
  -25.3900  -36.3550   23.8530 C   0  0  0  0  0  3  0  0  0  0  0  0
  -27.5120  -37.2520   24.7100 C   0  0  0  0  0  1  0  0  0  0  0  0
  -26.4160  -37.4190   23.7590 N   0  0  0  0  0  0  0  0  0  0  0  0
  -26.0000  -38.3340   23.9110 H   0  0  0  0  0  0  0  0  0  0  0  0
  -26.3860  -31.7540   25.0790 C   0  0  1  0  0  0  0  0  0  0  0  0
  -25.2660  -31.5290   26.1240 C   0  0  0  0  0  1  0  0  0  0  0  0
  -26.9880  -30.3730   24.7440 C   0  0  0  0  0  1  0  0  0  0  0  0
  -27.5140  -32.5680   25.7560 C   0  0  0  0  0  1  0  0  0  0  0  0
  -28.2300  -23.3320   20.4390 C   0  0  0  0  0 15  0  0  0  0  0  0
  -28.7870  -21.3790   19.8640 C   0  0  0  0  0 15  0  0  0  0  0  0
  -29.3980  -19.4400   20.4120 C   0  0  0  0  0  1  0  0  0  0  0  0
  -30.1690  -16.0920   20.0360 C   0  0  0  0  0  0  0  0  0  0  0  0
  -30.3590  -13.4710   19.1990 C   0  0  0  0  0  2  0  0  0  0  0  0
  -29.4770  -12.8700   18.0550 C   0  0  0  0  0  2  0  0  0  0  0  0
  -28.1030  -12.4290   18.5740 C   0  0  0  0  0  2  0  0  0  0  0  0
  -27.5630  -13.4490   19.5940 C   0  0  0  0  0  3  0  0  0  0  0  0
  -28.6020  -13.9210   20.6470 C   0  0  0  0  0  2  0  0  0  0  0  0
  -29.6750  -14.6720   19.9180 N   0  0  0  0  0  0  0  0  0  0  0  0
  -31.4150  -15.9560   19.9590 O   0  0  0  0  0  0  0  0  0  0  0  0
  -29.4220  -17.5600   20.0550 N   0  0  0  0  0  0  0  0  0  0  0  0
  -28.4530  -17.3130   19.9040 H   0  0  0  0  0  0  0  0  0  0  0  0
  -25.2310  -13.9310   20.4500 C   0  0  0  0  0  0  0  0  0  0  0  0
  -24.1900  -13.1380   20.8360 C   0  0  0  0  0  0  0  0  0  0  0  0
  -24.6710  -11.7930   20.7770 C   0  0  0  0  0  0  0  0  0  0  0  0
  -26.2760  -13.0750   20.1660 N   0  0  0  0  0  0  0  0  0  0  0  0
  -25.9570  -11.7790   20.4270 N   0  0  0  0  0  0  0  0  0  0  0  0
  -23.9560  -10.5240   20.9740 C   0  0  0  0  0  0  0  0  0  0  0  0
  -24.4050   -9.5560   21.8990 C   0  0  0  0  0  3  0  0  0  0  0  0
  -23.6830   -8.3560   22.0890 C   0  0  0  0  0  3  0  0  0  0  0  0
  -22.4960   -8.1180   21.3550 C   0  0  0  0  0  0  0  0  0  0  0  0
  -22.0660   -9.0740   20.4200 C   0  0  0  0  0  3  0  0  0  0  0  0
  -22.7890  -10.2650   20.2280 C   0  0  0  0  0  3  0  0  0  0  0  0
  -21.7460   -6.9710   21.4550 O   0  0  0  0  0  0  0  0  0  0  0  0
  -21.7090   -6.2310   22.6100 C   0  0  0  0  0  0  0  0  0  0  0  0
  -21.2840   -6.7860   23.8360 C   0  0  0  0  0  3  0  0  0  0  0  0
  -21.1960   -5.9730   24.9840 C   0  0  0  0  0  3  0  0  0  0  0  0
  -21.5230   -4.6050   24.9060 C   0  0  0  0  0  0  0  0  0  0  0  0
  -21.9420   -4.0500   23.6840 C   0  0  0  0  0  3  0  0  0  0  0  0
  -22.0320   -4.8600   22.5390 C   0  0  0  0  0  0  0  0  0  0  0  0
  -22.4140   -4.3150   21.3590 F   0  0  0  0  0  0  0  0  0  0  0  0
  -21.4320   -3.8220   26.0060 F   0  0  0  0  0  0  0  0  0  0  0  0
  -22.7960  -13.6030   21.1400 C   0  0  0  0  0  0  0  0  0  0  0  0
  -22.0920  -12.8960   22.0160 N   0  0  0  0  0  0  0  0  0  0  0  0
  -22.3430  -14.6300   20.6380 O   0  0  0  0  0  0  0  0  0  0  0  0
  -22.4740  -12.0650   22.4440 H   0  0  0  0  0  0  0  0  0  0  0  0
  -21.1580  -13.1890   22.2630 H   0  0  0  0  0  0  0  0  0  0  0  0
  -25.3710  -15.3060   20.2780 N   0  0  0  0  0  0  0  0  0  0  0  0
  -24.5980  -15.9490   20.4140 H   0  0  0  0  0  0  0  0  0  0  0  0
  -26.2020  -15.7550   19.9170 H   0  0  0  0  0  0  0  0  0  0  0  0
  1  3  1  0
  2 13  2  0
  3  8  1  0
  4 12  1  0
  4 14  1  0
  5 11  1  0
  5  7  1  0
  6 12  1  0
  7  8  2  0
  7  6  1  0
  9  3  2  0
 10  9  1  0
 10  5  2  0
 11  4  1  0
 12  2  1  0
 14 16  2  0
 15 14  1  0
 15 19  1  0
 17 15  1  0
 18 27  2  0
 18 23  1  0
 19 23  1  0
 20 19  2  0
 21 22  2  0
 21 20  1  0
 22 18  1  0
 23 24  2  0
 24 25  1  0
 26 25  2  0
 27 26  1  0
 28  2  1  0
 28 29  1  0
 28 38  1  0
 29 32  1  0
 30 34  1  0
 30 29  1  0
 31 30  2  0
 34 33  1  0
 36 34  1  0
 36 37  1  0
 36 35  1  0
 38 41  1  1
 38 39  1  0
 40 38  1  0
 45 53  1  0
 46 51  1  0
 47 48  1  0
 47 46  1  0
 49 48  1  0
 49 58  1  0
 49 50  1  0
 51 45  1  0
 51 50  1  0
 52 45  2  0
 53 44  1  0
 54 53  1  0
 55 56  2  0
 56 75  1  0
 57 56  1  0
 57 60  1  0
 58 59  1  0
 58 55  1  0
 59 57  2  0
 60 61  1  0
 61 62  2  0
 63 66  1  0
 63 62  1  0
 64 63  2  0
 65 64  1  0
 65 60  2  0
 66 67  1  0
 67 68  1  0
 68 69  2  0
 70 69  1  0
 70 74  1  0
 71 70  2  0
 72 67  2  0
 72 71  1  0
 73 72  1  0
 75 76  1  0
 76 79  1  0
 76 78  1  0
 77 75  2  0
 80 81  1  0
 80 55  1  0
 82 80  1  0
M  ISO  4   1 101  42 101  45 100  53 100
M  END
>  <TORSDO>  (28) 
F 18

>  <SCORE>  (28) 
-16.165

>  <name>  (28) 
28

>  <ligand_id>  (28) 
28

>  <original_smiles>  (28) 
[H]c1c([H])c([H])c2c(c1[H])C([H])([H])C([H])([H])C([H])([H])C2([H])N([H])C(=O)C1([H])N(C(=O)C([H])(N([H])C(=O)C([H])(N([H])C([H])([H])[H])C([H])([H])[H])C(C([H])([H])[H])(C([H])([H])[H])C([H])([H])[H])C([H])([H])c2c([H])c(OC([H])([H])C([H])([H])C([H])([H])N([H])C(=O)N3C([H])([H])C([H])([H])C([H])([H])C([H])(n4nc(-c5c([H])c([H])c(Oc6c([H])c([H])c(F)c([H])c6F)c([H])c5[H])c(C(=O)N([H])[H])c4N([H])[H])C3([H])[H])c([H])c([H])c2C1([H])[H]

>  <smiles>  (28) 
[H]c1c([H])c([H])c2c(c1[H])C([H])([H])C([H])([H])C([H])([H])C2([H])N([H])C(=O)C1([H])N(C(=O)C([H])(N([H])C(=O)C([H])(N([H])C([H])([H])[H])C([H])([H])[H])C(C([H])([H])[H])(C([H])([H])[H])C([H])([H])[H])C([H])([H])c2c([H])c(OC([H])([H])C([H])([H])C([H])([H])N([H])C(=O)N3C([H])([H])C([H])([H])C([H])([H])C([H])(n4nc(-c5c([H])c([H])c(Oc6c([H])c([H])c(F)c([H])c6F)c([H])c5[H])c(C(=O)N([H])[H])c4N([H])[H])C3([H])[H])c([H])c([H])c2C1([H])[H]

$$$$
29:0:0
     RDKit          3D

101108  0  0  1  0  0  0  0  0999 V2000
  -27.8840  -23.6030   21.7950 C   0  0  0  0  0  0  0  0  0  0  0  0
  -27.6040  -24.7880   21.2280 N   0  0  0  0  0  0  0  0  0  0  0  0
  -27.6390  -22.5280   21.2490 O   0  0  0  0  0  0  0  0  0  0  0  0
  -27.8140  -25.6090   21.7760 H   0  0  0  0  0  0  0  0  0  0  0  0
  -26.9370  -25.0360   19.9390 C   0  0  0  0  0  3  0  0  0  0  0  0
  -25.4300  -24.6800   19.9540 C   0  0  0  0  0  0  0  0  0  0  0  0
  -24.8710  -24.3280   18.8000 N   0  0  0  0  0  0  0  0  0  0  0  0
  -24.7650  -24.7170   20.9900 O   0  0  0  0  0  0  0  0  0  0  0  0
  -25.4320  -24.2750   17.9630 H   0  0  0  0  0  0  0  0  0  0  0  0
  -23.8870  -24.1110   18.7520 H   0  0  0  0  0  0  0  0  0  0  0  0
  -27.2630  -26.4850   19.4440 C   0  0  0  0  0  2  0  0  0  0  0  0
  -26.4500  -27.0030   18.3770 O   0  0  0  0  0  0  0  0  0  0  0  0
  -24.6070  -31.8480   23.2230 C   0  0  0  0  0  0  0  0  0  0  0  0
  -25.5070  -27.9030   18.8050 C   0  0  0  0  0  0  0  0  0  0  0  0
  -22.7810  -31.0140   21.7730 C   0  0  0  0  0  3  0  0  0  0  0  0
  -23.5130  -29.6570   19.7440 C   0  0  0  0  0  0  0  0  0  0  0  0
  -25.1890  -31.0860   20.9280 C   0  0  0  0  0  2  0  0  0  0  0  0
  -24.8570  -29.8880   20.0660 C   0  0  0  0  0  0  0  0  0  0  0  0
  -25.8620  -29.0160   19.5970 C   0  0  0  0  0  3  0  0  0  0  0  0
  -24.1580  -27.6970   18.4640 C   0  0  0  0  0  3  0  0  0  0  0  0
  -23.1560  -28.5620   18.9390 C   0  0  0  0  0  3  0  0  0  0  0  0
  -22.5000  -30.6340   20.2930 C   0  0  0  0  0  2  0  0  0  0  0  0
  -24.2260  -31.3150   22.0270 N   0  0  0  0  0  0  0  0  0  0  0  0
  -23.7710  -32.1320   24.0910 O   0  0  0  0  0  0  0  0  0  0  0  0
  -22.2190  -29.9000   22.6870 C   0  0  0  0  0  0  0  0  0  0  0  0
  -20.8970  -29.6780   22.6120 N   0  0  0  0  0  0  0  0  0  0  0  0
  -22.9650  -29.2430   23.4170 O   0  0  0  0  0  0  0  0  0  0  0  0
  -20.3540  -30.2590   21.9890 H   0  0  0  0  0  0  0  0  0  0  0  0
  -17.7120  -27.9860   22.8410 C   0  0  0  0  0  0  0  0  0  0  0  0
  -20.1520  -28.6610   23.3510 C   0  0  0  0  0  3  0  0  0  0  0  0
  -20.5360  -27.2410   22.8820 C   0  0  0  0  0  2  0  0  0  0  0  0
  -19.6180  -26.6900   21.7850 C   0  0  0  0  0  2  0  0  0  0  0  0
  -18.1690  -26.6470   22.2810 C   0  0  0  0  0  2  0  0  0  0  0  0
  -18.6460  -28.9350   23.3310 C   0  0  0  0  0  0  0  0  0  0  0  0
  -18.1750  -30.1720   23.8170 C   0  0  0  0  0  3  0  0  0  0  0  0
  -16.8000  -30.4680   23.8220 C   0  0  0  0  0  3  0  0  0  0  0  0
  -15.8760  -29.5190   23.3490 C   0  0  0  0  0  3  0  0  0  0  0  0
  -16.3340  -28.2820   22.8620 C   0  0  0  0  0  3  0  0  0  0  0  0
  -26.1060  -32.1500   23.5410 C   0  0  0  0  0  3  0  0  0  0  0  0
  -26.1690  -33.5050   24.1030 N   0  0  0  0  0  0  0  0  0  0  0  0
  -26.6020  -34.5840   23.4370 C   0  0  0  0  0  0  0  0  0  0  0  0
  -27.0670  -34.5250   22.2950 O   0  0  0  0  0  0  0  0  0  0  0  0
  -25.7620  -33.6340   25.0170 H   0  0  0  0  0  0  0  0  0  0  0  0
  -25.3120  -36.7380   23.5970 C   0  0  0  0  0  1  0  0  0  0  0  0
  -26.5080  -35.9450   24.1510 C   0  0  0  0  0  3  0  0  0  0  0  0
  -28.8680  -36.2040   24.7790 C   0  0  0  0  0  1  0  0  0  0  0  0
  -27.7390  -36.7570   24.0360 N   0  0  0  0  0  0  0  0  0  0  0  0
  -27.5770  -37.7050   24.3640 H   0  0  0  0  0  0  0  0  0  0  0  0
  -26.7520  -31.1030   24.5310 C   0  0  1  0  0  0  0  0  0  0  0  0
  -25.9310  -30.8740   25.8190 C   0  0  0  0  0  1  0  0  0  0  0  0
  -26.9340  -29.7320   23.8360 C   0  0  0  0  0  1  0  0  0  0  0  0
  -28.1630  -31.5800   24.9510 C   0  0  0  0  0  1  0  0  0  0  0  0
  -28.5380  -23.6440   23.1830 C   0  0  0  0  0  2  0  0  0  0  0  0
  -29.9190  -22.9500   23.3090 C   0  0  0  0  0  2  0  0  0  0  0  0
  -30.9820  -23.3610   22.2600 C   0  0  0  0  0  2  0  0  0  0  0  0
  -31.2500  -22.3290   21.1500 C   0  0  0  0  0  2  0  0  0  0  0  0
  -30.2850  -22.4090   19.9510 C   0  0  0  0  0  2  0  0  0  0  0  0
  -30.6770  -21.4800   18.7880 C   0  0  0  0  0  2  0  0  0  0  0  0
  -30.1710  -20.0440   19.0000 C   0  0  0  0  0  2  0  0  0  0  0  0
  -31.0850  -18.9520   18.4330 C   0  0  0  0  0  2  0  0  0  0  0  0
  -30.5080  -17.5640   18.7480 C   0  0  0  0  0  2  0  0  0  0  0  0
  -31.3950  -16.4130   18.2760 C   0  0  0  0  0  2  0  0  0  0  0  0
  -30.6110  -15.0960   18.1890 C   0  0  0  0  0  2  0  0  0  0  0  0
  -30.9650  -13.9100   20.3130 C   0  0  0  0  0  0  0  0  0  0  0  0
  -30.9750  -11.6270   21.1730 C   0  0  0  0  0  2  0  0  0  0  0  0
  -30.4330  -10.7210   20.0470 C   0  0  0  0  0  2  0  0  0  0  0  0
  -28.8960  -10.6200   20.1300 C   0  0  0  0  0  2  0  0  0  0  0  0
  -28.2080  -12.0060   20.2470 C   0  0  0  0  0  3  0  0  0  0  0  0
  -28.8960  -12.8850   21.3210 C   0  0  0  0  0  2  0  0  0  0  0  0
  -30.3350  -12.9380   21.0180 N   0  0  0  0  0  0  0  0  0  0  0  0
  -32.1890  -13.9790   20.1860 O   0  0  0  0  0  0  0  0  0  0  0  0
  -30.1650  -14.6030   19.4940 N   0  0  0  0  0  0  0  0  0  0  0  0
  -29.1720  -14.4980   19.6370 H   0  0  0  0  0  0  0  0  0  0  0  0
  -25.7650  -12.8110   20.3460 C   0  0  0  0  0  0  0  0  0  0  0  0
  -24.5970  -12.1560   20.6360 C   0  0  0  0  0  0  0  0  0  0  0  0
  -24.9660  -10.8120   20.9480 C   0  0  0  0  0  0  0  0  0  0  0  0
  -26.7750  -11.8710   20.4950 N   0  0  0  0  0  0  0  0  0  0  0  0
  -26.2840  -10.6760   20.9120 N   0  0  0  0  0  0  0  0  0  0  0  0
  -24.1350   -9.6320   21.2220 C   0  0  0  0  0  0  0  0  0  0  0  0
  -24.1160   -9.0230   22.4950 C   0  0  0  0  0  3  0  0  0  0  0  0
  -23.2950   -7.9020   22.7390 C   0  0  0  0  0  3  0  0  0  0  0  0
  -22.4800   -7.3810   21.7060 C   0  0  0  0  0  0  0  0  0  0  0  0
  -22.5190   -7.9780   20.4340 C   0  0  0  0  0  3  0  0  0  0  0  0
  -23.3420   -9.0900   20.1910 C   0  0  0  0  0  3  0  0  0  0  0  0
  -21.6690   -6.2800   21.8440 O   0  0  0  0  0  0  0  0  0  0  0  0
  -20.9030   -6.0850   22.9660 C   0  0  0  0  0  0  0  0  0  0  0  0
  -19.9200   -7.0160   23.3670 C   0  0  0  0  0  3  0  0  0  0  0  0
  -19.1070   -6.7440   24.4860 C   0  0  0  0  0  3  0  0  0  0  0  0
  -19.2700   -5.5410   25.1980 C   0  0  0  0  0  0  0  0  0  0  0  0
  -20.2450   -4.6110   24.7990 C   0  0  0  0  0  3  0  0  0  0  0  0
  -21.0580   -4.8820   23.6830 C   0  0  0  0  0  0  0  0  0  0  0  0
  -21.9820   -3.9730   23.2890 F   0  0  0  0  0  0  0  0  0  0  0  0
  -18.4830   -5.2760   26.2680 F   0  0  0  0  0  0  0  0  0  0  0  0
  -23.2090  -12.7190   20.5370 C   0  0  0  0  0  0  0  0  0  0  0  0
  -22.2920  -12.2350   21.3680 N   0  0  0  0  0  0  0  0  0  0  0  0
  -22.9400  -13.6270   19.7520 O   0  0  0  0  0  0  0  0  0  0  0  0
  -22.5180  -11.5050   22.0270 H   0  0  0  0  0  0  0  0  0  0  0  0
  -21.3500  -12.5990   21.3460 H   0  0  0  0  0  0  0  0  0  0  0  0
  -26.0480  -14.1140   19.9520 N   0  0  0  0  0  0  0  0  0  0  0  0
  -25.3160  -14.7930   19.7760 H   0  0  0  0  0  0  0  0  0  0  0  0
  -26.9690  -14.4560   19.7060 H   0  0  0  0  0  0  0  0  0  0  0  0
  1 53  1  0
  2  4  1  0
  2  1  1  0
  3  1  2  0
  5 11  1  0
  5  6  1  0
  5  2  1  0
  6  8  2  0
  7  6  1  0
  9  7  1  0
 10  7  1  0
 12 14  1  0
 12 11  1  0
 13 24  2  0
 14 19  1  0
 15 23  1  0
 15 25  1  0
 16 18  1  0
 16 22  1  0
 17 23  1  0
 18 17  1  0
 19 18  2  0
 20 14  2  0
 20 21  1  0
 21 16  2  0
 22 15  1  0
 23 13  1  0
 25 27  2  0
 26 25  1  0
 28 26  1  0
 29 38  2  0
 29 34  1  0
 30 26  1  0
 31 30  1  0
 32 33  1  0
 32 31  1  0
 33 29  1  0
 34 30  1  0
 34 35  2  0
 35 36  1  0
 37 36  2  0
 38 37  1  0
 39 13  1  0
 39 40  1  0
 39 49  1  0
 40 43  1  0
 41 40  1  0
 41 45  1  0
 42 41  2  0
 45 44  1  0
 47 45  1  0
 47 48  1  0
 47 46  1  0
 49 52  1  1
 49 50  1  0
 51 49  1  0
 53 54  1  0
 55 54  1  0
 56 55  1  0
 57 56  1  0
 58 59  1  0
 58 57  1  0
 60 61  1  0
 60 59  1  0
 62 61  1  0
 63 62  1  0
 63 72  1  0
 64 70  1  0
 66 67  1  0
 66 65  1  0
 68 67  1  0
 68 77  1  0
 68 69  1  0
 70 65  1  0
 70 69  1  0
 71 64  2  0
 72 73  1  0
 72 64  1  0
 74 77  1  0
 74 75  2  0
 75 76  1  0
 76 79  1  0
 77 78  1  0
 78 76  2  0
 79 80  1  0
 80 81  2  0
 82 85  1  0
 82 81  1  0
 83 82  2  0
 84 83  1  0
 84 79  2  0
 85 86  1  0
 86 87  2  0
 86 91  1  0
 87 88  1  0
 88 89  2  0
 89 93  1  0
 90 89  1  0
 91 90  2  0
 92 91  1  0
 94 75  1  0
 94 95  1  0
 95 97  1  0
 96 94  2  0
 98 95  1  0
 99 74  1  0
100 99  1  0
101 99  1  0
M  ISO  4  11 101  12 101  64 100  72 100
M  END
>  <TORSDO>  (29) 
F 30

>  <SCORE>  (29) 
-5.915

>  <name>  (29) 
29

>  <ligand_id>  (29) 
29

>  <original_smiles>  (29) 
[H]c1c([H])c([H])c2c(c1[H])C([H])([H])C([H])([H])C([H])([H])C2([H])N([H])C(=O)C1([H])N(C(=O)C([H])(N([H])C(=O)C([H])(N([H])C([H])([H])[H])C([H])([H])[H])C(C([H])([H])[H])(C([H])([H])[H])C([H])([H])[H])C([H])([H])c2c([H])c(OC([H])([H])C([H])(C(=O)N([H])[H])N([H])C(=O)C([H])([H])C([H])([H])C([H])([H])C([H])([H])C([H])([H])C([H])([H])C([H])([H])C([H])([H])C([H])([H])C([H])([H])C([H])([H])N([H])C(=O)N3C([H])([H])C([H])([H])C([H])([H])C([H])(n4nc(-c5c([H])c([H])c(Oc6c([H])c([H])c(F)c([H])c6F)c([H])c5[H])c(C(=O)N([H])[H])c4N([H])[H])C3([H])[H])c([H])c([H])c2C1([H])[H]

>  <smiles>  (29) 
[H]c1c([H])c([H])c2c(c1[H])C([H])([H])C([H])([H])C([H])([H])C2([H])N([H])C(=O)C1([H])N(C(=O)C([H])(N([H])C(=O)C([H])(N([H])C([H])([H])[H])C([H])([H])[H])C(C([H])([H])[H])(C([H])([H])[H])C([H])([H])[H])C([H])([H])c2c([H])c(OC([H])([H])C([H])(C(=O)N([H])[H])N([H])C(=O)C([H])([H])C([H])([H])C([H])([H])C([H])([H])C([H])([H])C([H])([H])C([H])([H])C([H])([H])C([H])([H])C([H])([H])C([H])([H])N([H])C(=O)N3C([H])([H])C([H])([H])C([H])([H])C([H])(n4nc(-c5c([H])c([H])c(Oc6c([H])c([H])c(F)c([H])c6F)c([H])c5[H])c(C(=O)N([H])[H])c4N([H])[H])C3([H])[H])c([H])c([H])c2C1([H])[H]

$$$$
30:0:0
     RDKit          3D

 94101  0  0  1  0  0  0  0  0999 V2000
  -27.7300  -24.2300   23.2850 C   0  0  0  0  0  0  0  0  0  0  0  0
  -28.1890  -24.2930   22.0290 N   0  0  0  0  0  0  0  0  0  0  0  0
  -26.8310  -24.9600   23.7050 O   0  0  0  0  0  0  0  0  0  0  0  0
  -28.9210  -23.6430   21.7760 H   0  0  0  0  0  0  0  0  0  0  0  0
  -28.3640  -23.1910   24.2100 C   0  0  0  0  0  2  0  0  0  0  0  0
  -29.8910  -23.0260   24.0180 C   0  0  0  0  0  2  0  0  0  0  0  0
  -30.2550  -21.7960   23.1670 C   0  0  0  0  0  2  0  0  0  0  0  0
  -31.7610  -21.6860   22.8560 C   0  0  0  0  0  2  0  0  0  0  0  0
  -32.2700  -20.2320   22.8010 C   0  0  0  0  0  2  0  0  0  0  0  0
  -31.7160  -19.3870   21.6380 C   0  0  0  0  0  2  0  0  0  0  0  0
  -31.8200  -17.8800   21.9240 C   0  0  0  0  0  2  0  0  0  0  0  0
  -31.3820  -17.0250   20.7240 C   0  0  0  0  0  2  0  0  0  0  0  0
  -31.7740  -14.5570   20.8720 C   0  0  0  0  0  0  0  0  0  0  0  0
  -31.5740  -12.1370   20.4610 C   0  0  0  0  0  2  0  0  0  0  0  0
  -30.8190  -11.9070   19.1350 C   0  0  0  0  0  2  0  0  0  0  0  0
  -29.2930  -11.9070   19.3620 C   0  0  0  0  0  2  0  0  0  0  0  0
  -28.8110  -13.1220   20.1980 C   0  0  0  0  0  3  0  0  0  0  0  0
  -29.6810  -13.2840   21.4640 C   0  0  0  0  0  2  0  0  0  0  0  0
  -31.0910  -13.3960   21.0420 N   0  0  0  0  0  0  0  0  0  0  0  0
  -32.9220  -14.6150   20.4210 O   0  0  0  0  0  0  0  0  0  0  0  0
  -31.0620  -15.6590   21.1320 N   0  0  0  0  0  0  0  0  0  0  0  0
  -30.1410  -15.5000   21.5130 H   0  0  0  0  0  0  0  0  0  0  0  0
  -26.4420  -14.0150   20.6890 C   0  0  0  0  0  0  0  0  0  0  0  0
  -25.2540  -13.3760   20.9180 C   0  0  0  0  0  0  0  0  0  0  0  0
  -25.5410  -11.9780   20.8680 C   0  0  0  0  0  0  0  0  0  0  0  0
  -27.3900  -13.0140   20.5260 N   0  0  0  0  0  0  0  0  0  0  0  0
  -26.8420  -11.7810   20.6860 N   0  0  0  0  0  0  0  0  0  0  0  0
  -24.6490  -10.8140   20.9310 C   0  0  0  0  0  0  0  0  0  0  0  0
  -24.7960   -9.8220   21.9270 C   0  0  0  0  0  3  0  0  0  0  0  0
  -23.9150   -8.7200   21.9750 C   0  0  0  0  0  3  0  0  0  0  0  0
  -22.8730   -8.6020   21.0240 C   0  0  0  0  0  0  0  0  0  0  0  0
  -22.7460   -9.5800   20.0220 C   0  0  0  0  0  3  0  0  0  0  0  0
  -23.6250  -10.6730   19.9730 C   0  0  0  0  0  3  0  0  0  0  0  0
  -21.9840   -7.5550   20.9800 O   0  0  0  0  0  0  0  0  0  0  0  0
  -21.5240   -6.9530   22.1230 C   0  0  0  0  0  0  0  0  0  0  0  0
  -20.8430   -7.6770   23.1260 C   0  0  0  0  0  3  0  0  0  0  0  0
  -20.3280   -7.0050   24.2530 C   0  0  0  0  0  3  0  0  0  0  0  0
  -20.4810   -5.6110   24.3730 C   0  0  0  0  0  0  0  0  0  0  0  0
  -21.1530   -4.8870   23.3720 C   0  0  0  0  0  3  0  0  0  0  0  0
  -21.6710   -5.5570   22.2490 C   0  0  0  0  0  0  0  0  0  0  0  0
  -22.2990   -4.8510   21.2790 F   0  0  0  0  0  0  0  0  0  0  0  0
  -19.9790   -4.9630   25.4500 F   0  0  0  0  0  0  0  0  0  0  0  0
  -23.9050  -14.0180   21.0790 C   0  0  0  0  0  0  0  0  0  0  0  0
  -23.0200  -13.4060   21.8560 N   0  0  0  0  0  0  0  0  0  0  0  0
  -23.6460  -15.0980   20.5500 O   0  0  0  0  0  0  0  0  0  0  0  0
  -23.2370  -12.5300   22.3110 H   0  0  0  0  0  0  0  0  0  0  0  0
  -22.1100  -13.8170   22.0040 H   0  0  0  0  0  0  0  0  0  0  0  0
  -26.7960  -15.3580   20.5910 N   0  0  0  0  0  0  0  0  0  0  0  0
  -26.1170  -16.1080   20.6600 H   0  0  0  0  0  0  0  0  0  0  0  0
  -27.7260  -15.6880   20.3640 H   0  0  0  0  0  0  0  0  0  0  0  0
  -27.7520  -25.2460   21.0140 C   0  0  0  0  0  2  0  0  0  0  0  0
  -28.8080  -25.3940   19.9030 C   0  0  0  0  0  2  0  0  0  0  0  0
  -28.6070  -26.6430   19.0340 C   0  0  0  0  0  2  0  0  0  0  0  0
  -27.3480  -26.5760   18.3630 O   0  0  0  0  0  0  0  0  0  0  0  0
  -25.0580  -31.2400   23.2350 C   0  0  0  0  0  0  0  0  0  0  0  0
  -26.3360  -27.3670   18.8530 C   0  0  0  0  0  0  0  0  0  0  0  0
  -23.3140  -30.2730   21.7630 C   0  0  0  0  0  3  0  0  0  0  0  0
  -24.1800  -28.9460   19.7640 C   0  0  0  0  0  0  0  0  0  0  0  0
  -25.7170  -30.5280   20.9410 C   0  0  0  0  0  2  0  0  0  0  0  0
  -25.4930  -29.2980   20.0910 C   0  0  0  0  0  0  0  0  0  0  0  0
  -26.5720  -28.5210   19.6340 C   0  0  0  0  0  3  0  0  0  0  0  0
  -25.0090  -27.0210   18.5310 C   0  0  0  0  0  3  0  0  0  0  0  0
  -23.9280  -27.8000   18.9870 C   0  0  0  0  0  3  0  0  0  0  0  0
  -23.0840  -29.8460   20.2860 C   0  0  0  0  0  2  0  0  0  0  0  0
  -24.7330  -30.6800   22.0360 N   0  0  0  0  0  0  0  0  0  0  0  0
  -24.1910  -31.4690   24.0890 O   0  0  0  0  0  0  0  0  0  0  0  0
  -22.8180  -29.1350   22.6770 C   0  0  0  0  0  0  0  0  0  0  0  0
  -21.5120  -28.8410   22.6000 N   0  0  0  0  0  0  0  0  0  0  0  0
  -23.6010  -28.5190   23.4050 O   0  0  0  0  0  0  0  0  0  0  0  0
  -20.9370  -29.3860   21.9720 H   0  0  0  0  0  0  0  0  0  0  0  0
  -18.3980  -27.0300   22.8600 C   0  0  0  0  0  0  0  0  0  0  0  0
  -20.8280  -27.7780   23.3320 C   0  0  0  0  0  3  0  0  0  0  0  0
  -21.2530  -26.3870   22.8110 C   0  0  0  0  0  2  0  0  0  0  0  0
  -20.3230  -25.8410   21.7240 C   0  0  0  0  0  2  0  0  0  0  0  0
  -18.8880  -25.7270   22.2520 C   0  0  0  0  0  2  0  0  0  0  0  0
  -19.3100  -28.0010   23.3530 C   0  0  0  0  0  0  0  0  0  0  0  0
  -18.8070  -29.2130   23.8730 C   0  0  0  0  0  3  0  0  0  0  0  0
  -17.4210  -29.4600   23.9140 C   0  0  0  0  0  3  0  0  0  0  0  0
  -16.5220  -28.4860   23.4440 C   0  0  0  0  0  3  0  0  0  0  0  0
  -17.0100  -27.2750   22.9220 C   0  0  0  0  0  3  0  0  0  0  0  0
  -26.5250  -31.6450   23.5810 C   0  0  0  0  0  3  0  0  0  0  0  0
  -27.2090  -30.6780   24.6230 C   0  0  1  0  0  0  0  0  0  0  0  0
  -26.3560  -30.4220   25.8850 C   0  0  0  0  0  1  0  0  0  0  0  0
  -27.5170  -29.3090   23.9710 C   0  0  0  0  0  1  0  0  0  0  0  0
  -28.5670  -31.2660   25.0760 C   0  0  0  0  0  1  0  0  0  0  0  0
  -26.5020  -33.0240   24.0840 N   0  0  0  0  0  0  0  0  0  0  0  0
  -26.9140  -34.0930   23.3880 C   0  0  0  0  0  0  0  0  0  0  0  0
  -27.4310  -34.0060   22.2710 O   0  0  0  0  0  0  0  0  0  0  0  0
  -26.0460  -33.1750   24.9730 H   0  0  0  0  0  0  0  0  0  0  0  0
  -25.4990  -36.1690   23.4140 C   0  0  0  0  0  1  0  0  0  0  0  0
  -26.7200  -35.4760   24.0380 C   0  0  0  0  0  3  0  0  0  0  0  0
  -29.0450  -35.8890   24.7060 C   0  0  0  0  0  1  0  0  0  0  0  0
  -27.9050  -36.3520   23.9200 N   0  0  0  0  0  0  0  0  0  0  0  0
  -27.6810  -37.2980   24.2190 H   0  0  0  0  0  0  0  0  0  0  0  0
  1  3  2  0
  1  5  1  0
  2  1  1  0
  4  2  1  0
  6  5  1  0
  7  6  1  0
  8  7  1  0
  9  8  1  0
 10 11  1  0
 10  9  1  0
 12 21  1  0
 12 11  1  0
 13 19  1  0
 13 21  1  0
 14 19  1  0
 15 16  1  0
 15 14  1  0
 17 16  1  0
 17 26  1  0
 17 18  1  0
 19 18  1  0
 20 13  2  0
 21 22  1  0
 23 24  2  0
 24 43  1  0
 25 24  1  0
 25 28  1  0
 26 27  1  0
 26 23  1  0
 27 25  2  0
 28 29  1  0
 29 30  2  0
 31 30  1  0
 32 31  2  0
 33 32  1  0
 33 28  2  0
 34 31  1  0
 34 35  1  0
 35 40  2  0
 35 36  1  0
 36 37  2  0
 37 38  1  0
 38 42  1  0
 39 38  2  0
 40 39  1  0
 41 40  1  0
 43 44  1  0
 44 47  1  0
 44 46  1  0
 45 43  2  0
 48 49  1  0
 48 23  1  0
 50 48  1  0
 51  2  1  0
 52 51  1  0
 53 52  1  0
 54 56  1  0
 54 53  1  0
 55 66  2  0
 56 61  1  0
 57 65  1  0
 57 67  1  0
 58 60  1  0
 58 64  1  0
 59 65  1  0
 60 59  1  0
 61 60  2  0
 62 56  2  0
 62 63  1  0
 63 58  2  0
 64 57  1  0
 65 55  1  0
 67 69  2  0
 68 67  1  0
 70 68  1  0
 71 80  2  0
 71 76  1  0
 72 68  1  0
 72 76  1  0
 73 72  1  0
 74 75  1  0
 74 73  1  0
 75 71  1  0
 76 77  2  0
 77 78  1  0
 79 78  2  0
 80 79  1  0
 81 55  1  0
 81 86  1  0
 81 82  1  0
 82 85  1  1
 82 83  1  0
 84 82  1  0
 86 89  1  0
 87 91  1  0
 87 86  1  0
 88 87  2  0
 91 90  1  0
 93 91  1  0
 93 94  1  0
 93 92  1  0
M  ISO  4  13 100  21 100  53 101  54 101
M  END
>  <TORSDO>  (30) 
F 27

>  <SCORE>  (30) 
-4.362

>  <name>  (30) 
30

>  <ligand_id>  (30) 
30

>  <original_smiles>  (30) 
[H]c1c([H])c([H])c2c(c1[H])C([H])([H])C([H])([H])C([H])([H])C2([H])N([H])C(=O)C1([H])N(C(=O)C([H])(N([H])C(=O)C([H])(N([H])C([H])([H])[H])C([H])([H])[H])C(C([H])([H])[H])(C([H])([H])[H])C([H])([H])[H])C([H])([H])c2c([H])c(OC([H])([H])C([H])([H])C([H])([H])N([H])C(=O)C([H])([H])C([H])([H])C([H])([H])C([H])([H])C([H])([H])C([H])([H])C([H])([H])C([H])([H])N([H])C(=O)N3C([H])([H])C([H])([H])C([H])([H])C([H])(n4nc(-c5c([H])c([H])c(Oc6c([H])c([H])c(F)c([H])c6F)c([H])c5[H])c(C(=O)N([H])[H])c4N([H])[H])C3([H])[H])c([H])c([H])c2C1([H])[H]

>  <smiles>  (30) 
[H]c1c([H])c([H])c2c(c1[H])C([H])([H])C([H])([H])C([H])([H])C2([H])N([H])C(=O)C1([H])N(C(=O)C([H])(N([H])C(=O)C([H])(N([H])C([H])([H])[H])C([H])([H])[H])C(C([H])([H])[H])(C([H])([H])[H])C([H])([H])[H])C([H])([H])c2c([H])c(OC([H])([H])C([H])([H])C([H])([H])N([H])C(=O)C([H])([H])C([H])([H])C([H])([H])C([H])([H])C([H])([H])C([H])([H])C([H])([H])C([H])([H])N([H])C(=O)N3C([H])([H])C([H])([H])C([H])([H])C([H])(n4nc(-c5c([H])c([H])c(Oc6c([H])c([H])c(F)c([H])c6F)c([H])c5[H])c(C(=O)N([H])[H])c4N([H])[H])C3([H])[H])c([H])c([H])c2C1([H])[H]

$$$$
31:0:0
     RDKit          3D

 90 97  0  0  1  0  0  0  0  0999 V2000
  -28.2020  -21.9040   19.6050 C   0  0  0  0  0  0  0  0  0  0  0  0
  -27.8830  -22.9620   20.3550 N   0  0  0  0  0  0  0  0  0  0  0  0
  -28.9890  -21.9650   18.6570 O   0  0  0  0  0  0  0  0  0  0  0  0
  -27.2940  -22.7860   21.1610 H   0  0  0  0  0  0  0  0  0  0  0  0
  -27.4120  -20.6250   19.8630 C   0  0  0  0  0  2  0  0  0  0  0  0
  -28.0940  -19.6140   20.7940 C   0  0  0  0  0  2  0  0  0  0  0  0
  -29.3200  -18.8960   20.1930 C   0  0  0  0  0  2  0  0  0  0  0  0
  -29.5920  -17.5760   20.9250 C   0  0  0  0  0  2  0  0  0  0  0  0
  -30.7070  -16.7310   20.2990 C   0  0  0  0  0  2  0  0  0  0  0  0
  -31.0830  -14.3050   19.9870 C   0  0  0  0  0  0  0  0  0  0  0  0
  -30.6660  -12.1260   18.9290 C   0  0  0  0  0  2  0  0  0  0  0  0
  -29.6770  -12.3370   17.7640 C   0  0  0  0  0  2  0  0  0  0  0  0
  -28.2280  -12.2240   18.2740 C   0  0  0  0  0  2  0  0  0  0  0  0
  -27.9660  -13.1070   19.5210 C   0  0  0  0  0  3  0  0  0  0  0  0
  -29.0710  -12.9090   20.5870 C   0  0  0  0  0  2  0  0  0  0  0  0
  -30.3790  -13.1450   19.9480 N   0  0  0  0  0  0  0  0  0  0  0  0
  -32.1460  -14.4860   19.3840 O   0  0  0  0  0  0  0  0  0  0  0  0
  -30.4610  -15.3210   20.5890 N   0  0  0  0  0  0  0  0  0  0  0  0
  -29.6080  -15.0960   21.0770 H   0  0  0  0  0  0  0  0  0  0  0  0
  -25.6190  -13.7760   20.3460 C   0  0  0  0  0  0  0  0  0  0  0  0
  -24.5550  -13.0280   20.7740 C   0  0  0  0  0  0  0  0  0  0  0  0
  -24.9800  -11.6660   20.7190 C   0  0  0  0  0  0  0  0  0  0  0  0
  -26.6320  -12.8680   20.0690 N   0  0  0  0  0  0  0  0  0  0  0  0
  -26.2520  -11.5940   20.3470 N   0  0  0  0  0  0  0  0  0  0  0  0
  -24.2340  -10.4220   20.9520 C   0  0  0  0  0  0  0  0  0  0  0  0
  -24.6320   -9.5000   21.9460 C   0  0  0  0  0  3  0  0  0  0  0  0
  -23.8940   -8.3180   22.1630 C   0  0  0  0  0  3  0  0  0  0  0  0
  -22.7400   -8.0490   21.3880 C   0  0  0  0  0  0  0  0  0  0  0  0
  -22.3630   -8.9570   20.3830 C   0  0  0  0  0  3  0  0  0  0  0  0
  -23.1030  -10.1330   20.1640 C   0  0  0  0  0  3  0  0  0  0  0  0
  -21.9750   -6.9150   21.5130 O   0  0  0  0  0  0  0  0  0  0  0  0
  -21.8080   -6.2880   22.7210 C   0  0  0  0  0  0  0  0  0  0  0  0
  -21.2450   -6.9490   23.8320 C   0  0  0  0  0  3  0  0  0  0  0  0
  -21.0270   -6.2460   25.0330 C   0  0  0  0  0  3  0  0  0  0  0  0
  -21.3660   -4.8810   25.1220 C   0  0  0  0  0  0  0  0  0  0  0  0
  -21.9250   -4.2210   24.0130 C   0  0  0  0  0  3  0  0  0  0  0  0
  -22.1420   -4.9220   22.8150 C   0  0  0  0  0  0  0  0  0  0  0  0
  -22.6610   -4.2750   21.7420 F   0  0  0  0  0  0  0  0  0  0  0  0
  -21.1510   -4.2020   26.2730 F   0  0  0  0  0  0  0  0  0  0  0  0
  -23.1860  -13.5370   21.1250 C   0  0  0  0  0  0  0  0  0  0  0  0
  -22.5020  -12.8600   22.0410 N   0  0  0  0  0  0  0  0  0  0  0  0
  -22.7350  -14.5640   20.6220 O   0  0  0  0  0  0  0  0  0  0  0  0
  -22.8830  -12.0290   22.4650 H   0  0  0  0  0  0  0  0  0  0  0  0
  -21.5860  -13.1760   22.3220 H   0  0  0  0  0  0  0  0  0  0  0  0
  -25.8040  -15.1400   20.1480 N   0  0  0  0  0  0  0  0  0  0  0  0
  -25.0480  -15.8070   20.2630 H   0  0  0  0  0  0  0  0  0  0  0  0
  -26.6320  -15.5460   19.7300 H   0  0  0  0  0  0  0  0  0  0  0  0
  -27.8120  -24.3080   19.7990 C   0  0  0  0  0  2  0  0  0  0  0  0
  -28.3110  -25.4160   20.7520 C   0  0  0  0  0  2  0  0  0  0  0  0
  -28.4010  -26.7180   20.1470 O   0  0  0  0  0  0  0  0  0  0  0  0
  -24.5950  -31.8650   23.2800 C   0  0  0  0  0  0  0  0  0  0  0  0
  -27.2440  -27.4670   20.1470 C   0  0  0  0  0  0  0  0  0  0  0  0
  -23.4020  -30.4960   21.6030 C   0  0  0  0  0  3  0  0  0  0  0  0
  -24.8640  -28.9920   20.1570 C   0  0  0  0  0  0  0  0  0  0  0  0
  -25.9320  -30.8470   21.4400 C   0  0  0  0  0  2  0  0  0  0  0  0
  -26.0180  -29.4880   20.7800 C   0  0  0  0  0  0  0  0  0  0  0  0
  -27.2100  -28.7270   20.7850 C   0  0  0  0  0  3  0  0  0  0  0  0
  -26.0900  -27.0190   19.4710 C   0  0  0  0  0  3  0  0  0  0  0  0
  -24.8940  -27.7530   19.5060 C   0  0  0  0  0  3  0  0  0  0  0  0
  -23.6240  -29.8530   20.2090 C   0  0  0  0  0  2  0  0  0  0  0  0
  -24.6610  -31.0810   22.1670 N   0  0  0  0  0  0  0  0  0  0  0  0
  -23.5090  -32.1320   23.8120 O   0  0  0  0  0  0  0  0  0  0  0  0
  -22.7440  -29.4520   22.5380 C   0  0  0  0  0  0  0  0  0  0  0  0
  -21.4280  -29.2410   22.3680 N   0  0  0  0  0  0  0  0  0  0  0  0
  -23.4180  -28.8330   23.3660 O   0  0  0  0  0  0  0  0  0  0  0  0
  -20.9420  -29.7910   21.6730 H   0  0  0  0  0  0  0  0  0  0  0  0
  -18.0690  -27.9820   22.7560 C   0  0  0  0  0  0  0  0  0  0  0  0
  -20.6080  -28.2890   23.1170 C   0  0  0  0  0  3  0  0  0  0  0  0
  -20.7620  -26.8570   22.5550 C   0  0  0  0  0  2  0  0  0  0  0  0
  -19.7020  -26.5080   21.5050 C   0  0  0  0  0  2  0  0  0  0  0  0
  -18.2970  -26.6310   22.1010 C   0  0  0  0  0  2  0  0  0  0  0  0
  -19.1550  -28.7660   23.2220 C   0  0  0  0  0  0  0  0  0  0  0  0
  -18.8930  -30.0290   23.7970 C   0  0  0  0  0  3  0  0  0  0  0  0
  -17.5720  -30.5050   23.9190 C   0  0  0  0  0  3  0  0  0  0  0  0
  -16.4990  -29.7130   23.4750 C   0  0  0  0  0  3  0  0  0  0  0  0
  -16.7490  -28.4570   22.8980 C   0  0  0  0  0  3  0  0  0  0  0  0
  -25.8760  -32.4760   23.9220 C   0  0  0  0  0  3  0  0  0  0  0  0
  -25.5830  -33.8810   24.2400 N   0  0  0  0  0  0  0  0  0  0  0  0
  -25.9490  -34.9220   23.4810 C   0  0  0  0  0  0  0  0  0  0  0  0
  -26.6450  -34.8010   22.4690 O   0  0  0  0  0  0  0  0  0  0  0  0
  -24.9640  -34.0550   25.0200 H   0  0  0  0  0  0  0  0  0  0  0  0
  -24.2650  -36.7400   23.0610 C   0  0  0  0  0  1  0  0  0  0  0  0
  -25.4700  -36.3180   23.9160 C   0  0  0  0  0  3  0  0  0  0  0  0
  -27.5850  -37.1740   24.8230 C   0  0  0  0  0  1  0  0  0  0  0  0
  -26.5220  -37.3520   23.8360 N   0  0  0  0  0  0  0  0  0  0  0  0
  -26.1260  -38.2800   23.9610 H   0  0  0  0  0  0  0  0  0  0  0  0
  -26.3610  -31.7020   25.2080 C   0  0  1  0  0  0  0  0  0  0  0  0
  -25.2490  -31.4720   26.2560 C   0  0  0  0  0  1  0  0  0  0  0  0
  -26.9390  -30.3200   24.8270 C   0  0  0  0  0  1  0  0  0  0  0  0
  -27.5050  -32.4880   25.8920 C   0  0  0  0  0  1  0  0  0  0  0  0
  1  5  1  0
  1  2  1  0
  2  4  1  0
  3  1  2  0
  5  6  1  0
  7  6  1  0
  7  8  1  0
  9 18  1  0
  9  8  1  0
 10 18  1  0
 11 16  1  0
 12 13  1  0
 12 11  1  0
 14 13  1  0
 14 23  1  0
 14 15  1  0
 16 10  1  0
 16 15  1  0
 17 10  2  0
 18 19  1  0
 20 21  2  0
 21 40  1  0
 22 21  1  0
 22 25  1  0
 23 20  1  0
 23 24  1  0
 24 22  2  0
 25 26  1  0
 26 27  2  0
 28 31  1  0
 28 27  1  0
 29 28  2  0
 30 29  1  0
 30 25  2  0
 31 32  1  0
 32 37  2  0
 32 33  1  0
 33 34  2  0
 34 35  1  0
 35 39  1  0
 36 35  2  0
 37 36  1  0
 38 37  1  0
 40 41  1  0
 41 44  1  0
 41 43  1  0
 42 40  2  0
 45 46  1  0
 45 20  1  0
 47 45  1  0
 48  2  1  0
 48 49  1  0
 50 49  1  0
 51 62  2  0
 52 50  1  0
 52 57  1  0
 53 61  1  0
 53 63  1  0
 54 60  1  0
 54 56  1  0
 55 61  1  0
 56 57  2  0
 56 55  1  0
 58 59  1  0
 58 52  2  0
 59 54  2  0
 60 53  1  0
 61 51  1  0
 63 65  2  0
 64 63  1  0
 66 64  1  0
 67 76  2  0
 67 72  1  0
 68 64  1  0
 68 72  1  0
 69 68  1  0
 70 71  1  0
 70 69  1  0
 71 67  1  0
 72 73  2  0
 73 74  1  0
 75 74  2  0
 76 75  1  0
 77 51  1  0
 77 78  1  0
 77 87  1  0
 78 81  1  0
 79 83  1  0
 79 78  1  0
 80 79  2  0
 83 82  1  0
 85 83  1  0
 85 86  1  0
 85 84  1  0
 87 90  1  1
 87 88  1  0
 89 87  1  0
M  ISO  4  10 100  18 100  49 101  50 101
M  END
>  <TORSDO>  (31) 
F 23

>  <SCORE>  (31) 
-11.818

>  <name>  (31) 
31

>  <ligand_id>  (31) 
31

>  <original_smiles>  (31) 
[H]c1c([H])c([H])c2c(c1[H])C([H])([H])C([H])([H])C([H])([H])C2([H])N([H])C(=O)C1([H])N(C(=O)C([H])(N([H])C(=O)C([H])(N([H])C([H])([H])[H])C([H])([H])[H])C(C([H])([H])[H])(C([H])([H])[H])C([H])([H])[H])C([H])([H])c2c([H])c(OC([H])([H])C([H])([H])N([H])C(=O)C([H])([H])C([H])([H])C([H])([H])C([H])([H])C([H])([H])N([H])C(=O)N3C([H])([H])C([H])([H])C([H])([H])C([H])(n4nc(-c5c([H])c([H])c(Oc6c([H])c([H])c(F)c([H])c6F)c([H])c5[H])c(C(=O)N([H])[H])c4N([H])[H])C3([H])[H])c([H])c([H])c2C1([H])[H]

>  <smiles>  (31) 
[H]c1c([H])c([H])c2c(c1[H])C([H])([H])C([H])([H])C([H])([H])C2([H])N([H])C(=O)C1([H])N(C(=O)C([H])(N([H])C(=O)C([H])(N([H])C([H])([H])[H])C([H])([H])[H])C(C([H])([H])[H])(C([H])([H])[H])C([H])([H])[H])C([H])([H])c2c([H])c(OC([H])([H])C([H])([H])N([H])C(=O)C([H])([H])C([H])([H])C([H])([H])C([H])([H])C([H])([H])N([H])C(=O)N3C([H])([H])C([H])([H])C([H])([H])C([H])(n4nc(-c5c([H])c([H])c(Oc6c([H])c([H])c(F)c([H])c6F)c([H])c5[H])c(C(=O)N([H])[H])c4N([H])[H])C3([H])[H])c([H])c([H])c2C1([H])[H]

$$$$
32:0:0
     RDKit          3D

103111  0  0  1  0  0  0  0  0999 V2000
  -28.3070  -24.0260   21.2800 C   0  0  0  0  0  0  0  0  0  0  0  0
  -28.9550  -23.9970   17.6080 C   0  0  0  0  0  2  0  0  0  0  0  0
  -28.0770  -25.2250   17.7610 C   0  0  0  0  0  2  0  0  0  0  0  0
  -29.3950  -23.6490   19.0310 C   0  0  0  0  0  2  0  0  0  0  0  0
  -27.4810  -25.1130   19.1770 C   0  0  0  0  0  3  0  0  0  0  0  0
  -28.4260  -24.2700   19.9430 N   0  0  0  0  0  0  0  0  0  0  0  0
  -27.3230  -24.4210   21.9100 O   0  0  0  0  0  0  0  0  0  0  0  0
  -27.2770  -26.5260   19.7660 C   0  0  0  0  0  0  0  0  0  0  0  0
  -26.9580  -26.5990   21.0630 N   0  0  0  0  0  0  0  0  0  0  0  0
  -27.3840  -27.5240   19.0480 O   0  0  0  0  0  0  0  0  0  0  0  0
  -26.8800  -25.7300   21.5740 H   0  0  0  0  0  0  0  0  0  0  0  0
  -26.8390  -27.8280   21.8450 C   0  0  0  0  0  2  0  0  0  0  0  0
  -28.2260  -28.4040   22.1520 C   0  0  0  0  0  0  0  0  0  0  0  0
  -29.2300  -27.5310   22.2740 N   0  0  0  0  0  0  0  0  0  0  0  0
  -28.3940  -29.6210   22.2620 O   0  0  0  0  0  0  0  0  0  0  0  0
  -29.0110  -26.5460   22.1960 H   0  0  0  0  0  0  0  0  0  0  0  0
  -30.6320  -27.9010   22.3960 C   0  0  0  0  0  2  0  0  0  0  0  0
  -31.4730  -27.1550   21.3480 C   0  0  0  0  0  2  0  0  0  0  0  0
  -33.9860  -26.7720   21.2950 C   0  0  0  0  0  0  0  0  0  0  0  0
  -35.4720  -25.7660   19.6130 C   0  0  0  0  0  2  0  0  0  0  0  0
  -35.7590  -26.7820   18.4850 C   0  0  0  0  0  2  0  0  0  0  0  0
  -34.6630  -26.7330   17.3990 C   0  0  0  0  0  2  0  0  0  0  0  0
  -33.2290  -26.7620   17.9940 C   0  0  0  0  0  3  0  0  0  0  0  0
  -33.1130  -25.7250   19.1310 C   0  0  0  0  0  2  0  0  0  0  0  0
  -34.1300  -26.0520   20.1450 N   0  0  0  0  0  0  0  0  0  0  0  0
  -34.9290  -27.0070   22.0510 O   0  0  0  0  0  0  0  0  0  0  0  0
  -32.8800  -27.5090   21.4660 N   0  0  0  0  0  0  0  0  0  0  0  0
  -33.0410  -28.2420   22.1410 H   0  0  0  0  0  0  0  0  0  0  0  0
  -31.1260  -27.3310   16.6240 C   0  0  0  0  0  0  0  0  0  0  0  0
  -30.5410  -26.7150   15.5500 C   0  0  0  0  0  0  0  0  0  0  0  0
  -31.3330  -25.5580   15.2770 C   0  0  0  0  0  0  0  0  0  0  0  0
  -32.2170  -26.5450   16.9630 N   0  0  0  0  0  0  0  0  0  0  0  0
  -32.3050  -25.4440   16.1740 N   0  0  0  0  0  0  0  0  0  0  0  0
  -31.2580  -24.5830   14.1810 C   0  0  0  0  0  0  0  0  0  0  0  0
  -30.6440  -23.3230   14.3560 C   0  0  0  0  0  3  0  0  0  0  0  0
  -30.5700  -22.4080   13.2840 C   0  0  0  0  0  3  0  0  0  0  0  0
  -31.1100  -22.7500   12.0210 C   0  0  0  0  0  0  0  0  0  0  0  0
  -31.7400  -23.9970   11.8580 C   0  0  0  0  0  3  0  0  0  0  0  0
  -31.8170  -24.9050   12.9280 C   0  0  0  0  0  3  0  0  0  0  0  0
  -31.1050  -21.9160   10.9310 O   0  0  0  0  0  0  0  0  0  0  0  0
  -30.0260  -21.1230   10.6350 C   0  0  0  0  0  0  0  0  0  0  0  0
  -28.8120  -21.6660   10.1620 C   0  0  0  0  0  3  0  0  0  0  0  0
  -27.7510  -20.8090    9.8030 C   0  0  0  0  0  3  0  0  0  0  0  0
  -27.9060  -19.4130    9.9070 C   0  0  0  0  0  0  0  0  0  0  0  0
  -29.1180  -18.8720   10.3710 C   0  0  0  0  0  3  0  0  0  0  0  0
  -30.1760  -19.7250   10.7310 C   0  0  0  0  0  0  0  0  0  0  0  0
  -31.3490  -19.1970   11.1580 F   0  0  0  0  0  0  0  0  0  0  0  0
  -26.8910  -18.5890    9.5550 F   0  0  0  0  0  0  0  0  0  0  0  0
  -29.3700  -27.2200   14.7580 C   0  0  0  0  0  0  0  0  0  0  0  0
  -28.4290  -26.3440   14.4240 N   0  0  0  0  0  0  0  0  0  0  0  0
  -29.2600  -28.4100   14.4660 O   0  0  0  0  0  0  0  0  0  0  0  0
  -28.5050  -25.3700   14.6800 H   0  0  0  0  0  0  0  0  0  0  0  0
  -27.6180  -26.6530   13.9070 H   0  0  0  0  0  0  0  0  0  0  0  0
  -30.8330  -28.4960   17.3270 N   0  0  0  0  0  0  0  0  0  0  0  0
  -30.0860  -29.1230   17.0480 H   0  0  0  0  0  0  0  0  0  0  0  0
  -31.4160  -28.8730   18.0640 H   0  0  0  0  0  0  0  0  0  0  0  0
  -29.3830  -23.2600   22.0880 C   0  0  0  0  0  3  0  0  0  0  0  0
  -30.7680  -23.7510   21.8900 N   0  0  0  0  0  4  0  0  0  0  0  0
  -30.8180  -24.7300   22.1150 H   0  0  0  0  0  0  0  0  0  0  0  0
  -31.0810  -23.6240   20.9430 H   0  0  0  0  0  0  0  0  0  0  0  0
  -31.3920  -23.2600   22.5090 H   0  0  0  0  0  0  0  0  0  0  0  0
  -29.2270  -21.7180   21.9650 C   0  0  0  0  0  2  0  0  0  0  0  0
  -30.4000  -20.9910   22.3680 O   0  0  0  0  0  0  0  0  0  0  0  0
  -37.1940  -20.0720   20.5640 C   0  0  0  0  0  0  0  0  0  0  0  0
  -31.2590  -20.5280   21.3960 C   0  0  0  0  0  0  0  0  0  0  0  0
  -35.5540  -19.7530   18.7420 C   0  0  0  0  0  3  0  0  0  0  0  0
  -33.1110  -19.6240   19.4610 C   0  0  0  0  0  0  0  0  0  0  0  0
  -34.9030  -19.3130   21.1760 C   0  0  0  0  0  2  0  0  0  0  0  0
  -33.4900  -19.7100   20.8060 C   0  0  0  0  0  0  0  0  0  0  0  0
  -32.5670  -20.1560   21.7760 C   0  0  0  0  0  3  0  0  0  0  0  0
  -30.8810  -20.3950   20.0380 C   0  0  0  0  0  3  0  0  0  0  0  0
  -31.8060  -19.9660   19.0710 C   0  0  0  0  0  3  0  0  0  0  0  0
  -34.1530  -19.1370   18.4820 C   0  0  0  0  0  2  0  0  0  0  0  0
  -35.9230  -19.7490   20.1950 N   0  0  0  0  0  0  0  0  0  0  0  0
  -38.0610  -20.3300   19.7170 O   0  0  0  0  0  0  0  0  0  0  0  0
  -35.5940  -21.1600   18.1050 C   0  0  0  0  0  0  0  0  0  0  0  0
  -35.8590  -21.2110   16.7890 N   0  0  0  0  0  0  0  0  0  0  0  0
  -35.3640  -22.1670   18.7800 O   0  0  0  0  0  0  0  0  0  0  0  0
  -36.0420  -20.3410   16.3090 H   0  0  0  0  0  0  0  0  0  0  0  0
  -36.6760  -22.4600   13.5010 C   0  0  0  0  0  0  0  0  0  0  0  0
  -35.9120  -22.4200   15.9690 C   0  0  0  0  0  3  0  0  0  0  0  0
  -34.5080  -22.7930   15.4350 C   0  0  0  0  0  2  0  0  0  0  0  0
  -34.2170  -22.2140   14.0470 C   0  0  0  0  0  2  0  0  0  0  0  0
  -35.2520  -22.7070   13.0320 C   0  0  0  0  0  2  0  0  0  0  0  0
  -36.9830  -22.3090   14.8790 C   0  0  0  0  0  0  0  0  0  0  0  0
  -38.3170  -22.0460   15.2580 C   0  0  0  0  0  3  0  0  0  0  0  0
  -39.3320  -21.9370   14.2900 C   0  0  0  0  0  3  0  0  0  0  0  0
  -39.0260  -22.1020   12.9280 C   0  0  0  0  0  3  0  0  0  0  0  0
  -37.7020  -22.3670   12.5370 C   0  0  0  0  0  3  0  0  0  0  0  0
  -37.6250  -20.1120   22.0650 C   0  0  0  0  0  3  0  0  0  0  0  0
  -38.0130  -21.5570   22.5630 C   0  0  1  0  0  0  0  0  0  0  0  0
  -39.4260  -22.0070   22.1250 C   0  0  0  0  0  1  0  0  0  0  0  0
  -37.0020  -22.6050   22.0410 C   0  0  0  0  0  1  0  0  0  0  0  0
  -37.9490  -21.6140   24.1070 C   0  0  0  0  0  1  0  0  0  0  0  0
  -38.7540  -19.1860   22.2230 N   0  0  0  0  0  0  0  0  0  0  0  0
  -38.6760  -17.9910   22.8230 C   0  0  0  0  0  0  0  0  0  0  0  0
  -37.6490  -17.5810   23.3710 O   0  0  0  0  0  0  0  0  0  0  0  0
  -39.6110  -19.4300   21.7490 H   0  0  0  0  0  0  0  0  0  0  0  0
  -39.6480  -15.7990   22.0650 C   0  0  0  0  0  1  0  0  0  0  0  0
  -39.9400  -17.1100   22.8130 C   0  0  0  0  0  3  0  0  0  0  0  0
  -41.2700  -17.8850   24.7260 C   0  0  0  0  0  1  0  0  0  0  0  0
  -40.4570  -16.8080   24.1650 N   0  0  0  0  0  0  0  0  0  0  0  0
  -41.0170  -15.9600   24.1560 H   0  0  0  0  0  0  0  0  0  0  0  0
  1  7  2  0
  1 57  1  0
  2  3  1  0
  2  4  1  0
  3  5  1  0
  4  6  1  0
  5  8  1  0
  5  6  1  0
  6  1  1  0
  8  9  1  0
  9 11  1  0
  9 12  1  0
 10  8  2  0
 12 13  1  0
 13 15  2  0
 13 14  1  0
 14 17  1  0
 16 14  1  0
 18 27  1  0
 18 17  1  0
 19 27  1  0
 19 26  2  0
 20 25  1  0
 21 20  1  0
 22 23  1  0
 22 21  1  0
 23 32  1  0
 23 24  1  0
 24 25  1  0
 25 19  1  0
 27 28  1  0
 29 32  1  0
 29 54  1  0
 30 29  2  0
 31 30  1  0
 31 33  2  0
 33 32  1  0
 34 35  1  0
 34 31  1  0
 36 35  2  0
 37 36  1  0
 38 37  2  0
 38 39  1  0
 39 34  2  0
 40 37  1  0
 41 46  1  0
 41 40  1  0
 42 41  2  0
 43 44  2  0
 43 42  1  0
 44 45  1  0
 45 46  2  0
 46 47  1  0
 48 44  1  0
 49 30  1  0
 50 52  1  0
 50 49  1  0
 51 49  2  0
 53 50  1  0
 54 56  1  0
 55 54  1  0
 57 62  1  0
 58 57  1  0
 58 59  1  0
 58 61  1  0
 60 58  1  0
 62 63  1  0
 65 70  1  0
 65 63  1  0
 66 76  1  0
 66 74  1  0
 67 69  1  0
 69 68  1  0
 69 70  2  0
 71 65  2  0
 72 67  2  0
 72 71  1  0
 73 66  1  0
 73 67  1  0
 74 64  1  0
 74 68  1  0
 75 64  2  0
 76 78  2  0
 77 76  1  0
 79 77  1  0
 80 85  1  0
 81 77  1  0
 82 81  1  0
 83 82  1  0
 84 80  1  0
 84 83  1  0
 85 86  2  0
 85 81  1  0
 87 86  1  0
 88 87  2  0
 89 88  1  0
 89 80  2  0
 90 64  1  0
 90 95  1  0
 90 91  1  0
 91 94  1  1
 92 91  1  0
 93 91  1  0
 95 96  1  0
 96 97  2  0
 98 95  1  0
100 99  1  0
100 96  1  0
100102  1  0
102101  1  0
103102  1  0
M  ISO  4  19 100  27 100  62 101  63 101
M  END
>  <TORSDO>  (32) 
F 24

>  <SCORE>  (32) 
-4.285

>  <name>  (32) 
32

>  <ligand_id>  (32) 
32

>  <original_smiles>  (32) 
[H]c1c([H])c([H])c2c(c1[H])C([H])([H])C([H])([H])C([H])([H])C2([H])N([H])C(=O)C1([H])N(C(=O)C([H])(N([H])C(=O)C([H])(N([H])C([H])([H])[H])C([H])([H])[H])C(C([H])([H])[H])(C([H])([H])[H])C([H])([H])[H])C([H])([H])c2c([H])c(OC([H])([H])C([H])(C(=O)N3C([H])([H])C([H])([H])C([H])([H])C3([H])C(=O)N([H])C([H])([H])C(=O)N([H])C([H])([H])C([H])([H])N([H])C(=O)N3C([H])([H])C([H])([H])C([H])([H])C([H])(n4nc(-c5c([H])c([H])c(Oc6c([H])c([H])c(F)c([H])c6F)c([H])c5[H])c(C(=O)N([H])[H])c4N([H])[H])C3([H])[H])[N+]([H])([H])[H])c([H])c([H])c2C1([H])[H]

>  <smiles>  (32) 
[H]c1c([H])c([H])c2c(c1[H])C([H])([H])C([H])([H])C([H])([H])C2([H])N([H])C(=O)C1([H])N(C(=O)C([H])(N([H])C(=O)C([H])(N([H])C([H])([H])[H])C([H])([H])[H])C(C([H])([H])[H])(C([H])([H])[H])C([H])([H])[H])C([H])([H])c2c([H])c(OC([H])([H])C([H])(C(=O)N3C([H])([H])C([H])([H])C([H])([H])C3([H])C(=O)N([H])C([H])([H])C(=O)N([H])C([H])([H])C([H])([H])N([H])C(=O)N3C([H])([H])C([H])([H])C([H])([H])C([H])(n4nc(-c5c([H])c([H])c(Oc6c([H])c([H])c(F)c([H])c6F)c([H])c5[H])c(C(=O)N([H])[H])c4N([H])[H])C3([H])[H])[N+]([H])([H])[H])c([H])c([H])c2C1([H])[H]

$$$$
33:0:0
     RDKit          3D

 91 98  0  0  1  0  0  0  0  0999 V2000
  -28.4960  -21.8070   20.2590 C   0  0  0  0  0  0  0  0  0  0  0  0
  -28.5380  -22.9880   20.9140 N   0  0  0  0  0  0  0  0  0  0  0  0
  -28.1330  -21.7180   19.0830 O   0  0  0  0  0  0  0  0  0  0  0  0
  -28.9290  -22.9440   21.8470 H   0  0  0  0  0  0  0  0  0  0  0  0
  -28.8320  -20.5240   21.0750 C   0  0  0  0  0  2  0  0  0  0  0  0
  -29.2490  -18.0670   20.6440 C   0  0  0  0  0  0  0  0  0  0  0  0
  -29.4360  -19.3760   20.3520 N   0  0  0  0  0  0  0  0  0  0  0  0
  -28.4070  -17.6930   21.4640 O   0  0  0  0  0  0  0  0  0  0  0  0
  -30.1100  -19.6100   19.6370 H   0  0  0  0  0  0  0  0  0  0  0  0
  -30.1410  -17.0080   19.9510 C   0  0  0  0  0  2  0  0  0  0  0  0
  -30.6560  -14.5430   20.0410 C   0  0  0  0  0  0  0  0  0  0  0  0
  -30.3410  -12.3650   18.9340 C   0  0  0  0  0  2  0  0  0  0  0  0
  -29.3500  -12.5980   17.7740 C   0  0  0  0  0  2  0  0  0  0  0  0
  -27.8950  -12.4590   18.2670 C   0  0  0  0  0  2  0  0  0  0  0  0
  -27.6190  -13.2600   19.5680 C   0  0  0  0  0  3  0  0  0  0  0  0
  -28.7280  -13.0200   20.6180 C   0  0  0  0  0  2  0  0  0  0  0  0
  -30.0150  -13.3420   19.9860 N   0  0  0  0  0  0  0  0  0  0  0  0
  -31.7900  -14.7070   19.5830 O   0  0  0  0  0  0  0  0  0  0  0  0
  -29.8890  -15.6060   20.3700 N   0  0  0  0  0  0  0  0  0  0  0  0
  -28.9790  -15.4270   20.7710 H   0  0  0  0  0  0  0  0  0  0  0  0
  -25.2580  -13.8510   20.3980 C   0  0  0  0  0  0  0  0  0  0  0  0
  -24.2070  -13.0750   20.8070 C   0  0  0  0  0  0  0  0  0  0  0  0
  -24.6660  -11.7240   20.7350 C   0  0  0  0  0  0  0  0  0  0  0  0
  -26.2900  -12.9740   20.1060 N   0  0  0  0  0  0  0  0  0  0  0  0
  -25.9400  -11.6880   20.3650 N   0  0  0  0  0  0  0  0  0  0  0  0
  -23.9480  -10.4590   20.9420 C   0  0  0  0  0  0  0  0  0  0  0  0
  -24.3990   -9.4970   21.8720 C   0  0  0  0  0  3  0  0  0  0  0  0
  -23.6810   -8.2970   22.0670 C   0  0  0  0  0  3  0  0  0  0  0  0
  -22.4980   -8.0490   21.3290 C   0  0  0  0  0  0  0  0  0  0  0  0
  -22.0670   -9.0000   20.3880 C   0  0  0  0  0  3  0  0  0  0  0  0
  -22.7860  -10.1910   20.1930 C   0  0  0  0  0  3  0  0  0  0  0  0
  -21.7520   -6.9000   21.4320 O   0  0  0  0  0  0  0  0  0  0  0  0
  -21.6910   -6.1840   22.6000 C   0  0  0  0  0  0  0  0  0  0  0  0
  -21.2530   -6.7670   23.8090 C   0  0  0  0  0  3  0  0  0  0  0  0
  -21.1400   -5.9740   24.9700 C   0  0  0  0  0  3  0  0  0  0  0  0
  -21.4540   -4.6040   24.9240 C   0  0  0  0  0  0  0  0  0  0  0  0
  -21.8870   -4.0230   23.7190 C   0  0  0  0  0  3  0  0  0  0  0  0
  -22.0020   -4.8110   22.5610 C   0  0  0  0  0  0  0  0  0  0  0  0
  -22.3980   -4.2410   21.3970 F   0  0  0  0  0  0  0  0  0  0  0  0
  -21.3380   -3.8420   26.0360 F   0  0  0  0  0  0  0  0  0  0  0  0
  -22.8260  -13.5510   21.1500 C   0  0  0  0  0  0  0  0  0  0  0  0
  -22.1380  -12.8460   22.0430 N   0  0  0  0  0  0  0  0  0  0  0  0
  -22.3640  -14.5830   20.6640 O   0  0  0  0  0  0  0  0  0  0  0  0
  -22.5230  -12.0130   22.4610 H   0  0  0  0  0  0  0  0  0  0  0  0
  -21.2130  -13.1480   22.3150 H   0  0  0  0  0  0  0  0  0  0  0  0
  -25.4140  -15.2240   20.2320 N   0  0  0  0  0  0  0  0  0  0  0  0
  -24.6560  -15.8770   20.3890 H   0  0  0  0  0  0  0  0  0  0  0  0
  -26.2530  -15.6700   19.8860 H   0  0  0  0  0  0  0  0  0  0  0  0
  -27.8310  -24.2590   20.6120 C   0  0  0  0  0  2  0  0  0  0  0  0
  -28.5580  -25.3200   19.7270 C   0  0  0  0  0  2  0  0  0  0  0  0
  -28.4480  -26.6950   20.1850 O   0  0  0  0  0  0  0  0  0  0  0  0
  -24.6030  -31.8790   23.2260 C   0  0  0  0  0  0  0  0  0  0  0  0
  -27.2540  -27.4030   20.1490 C   0  0  0  0  0  0  0  0  0  0  0  0
  -23.3970  -30.4710   21.5870 C   0  0  0  0  0  3  0  0  0  0  0  0
  -24.8510  -28.9220   20.1670 C   0  0  0  0  0  0  0  0  0  0  0  0
  -25.9240  -30.8230   21.3880 C   0  0  0  0  0  2  0  0  0  0  0  0
  -26.0090  -29.4460   20.7540 C   0  0  0  0  0  0  0  0  0  0  0  0
  -27.2080  -28.6930   20.7410 C   0  0  0  0  0  3  0  0  0  0  0  0
  -26.0770  -26.9040   19.5490 C   0  0  0  0  0  3  0  0  0  0  0  0
  -24.8810  -27.6510   19.5650 C   0  0  0  0  0  3  0  0  0  0  0  0
  -23.6060  -29.7810   20.2110 C   0  0  0  0  0  2  0  0  0  0  0  0
  -24.6600  -31.0740   22.1250 N   0  0  0  0  0  0  0  0  0  0  0  0
  -23.5190  -32.1530   23.7650 O   0  0  0  0  0  0  0  0  0  0  0  0
  -22.7440  -29.4580   22.5530 C   0  0  0  0  0  0  0  0  0  0  0  0
  -21.4220  -29.2630   22.4170 N   0  0  0  0  0  0  0  0  0  0  0  0
  -23.4250  -28.8460   23.3800 O   0  0  0  0  0  0  0  0  0  0  0  0
  -20.9340  -29.8020   21.7150 H   0  0  0  0  0  0  0  0  0  0  0  0
  -18.0620  -28.0210   22.8780 C   0  0  0  0  0  0  0  0  0  0  0  0
  -20.6090  -28.3250   23.1890 C   0  0  0  0  0  3  0  0  0  0  0  0
  -20.7450  -26.8880   22.6360 C   0  0  0  0  0  2  0  0  0  0  0  0
  -19.6680  -26.5310   21.6080 C   0  0  0  0  0  2  0  0  0  0  0  0
  -18.2720  -26.6650   22.2250 C   0  0  0  0  0  2  0  0  0  0  0  0
  -19.1610  -28.8070   23.3160 C   0  0  0  0  0  0  0  0  0  0  0  0
  -18.9130  -30.0750   23.8850 C   0  0  0  0  0  3  0  0  0  0  0  0
  -17.5990  -30.5580   24.0230 C   0  0  0  0  0  3  0  0  0  0  0  0
  -16.5130  -29.7700   23.6020 C   0  0  0  0  0  3  0  0  0  0  0  0
  -16.7460  -28.5030   23.0350 C   0  0  0  0  0  3  0  0  0  0  0  0
  -25.8870  -32.5140   23.8440 C   0  0  0  0  0  3  0  0  0  0  0  0
  -25.5770  -33.9120   24.1720 N   0  0  0  0  0  0  0  0  0  0  0  0
  -25.9100  -34.9650   23.4130 C   0  0  0  0  0  0  0  0  0  0  0  0
  -26.5820  -34.8610   22.3830 O   0  0  0  0  0  0  0  0  0  0  0  0
  -24.9820  -34.0670   24.9730 H   0  0  0  0  0  0  0  0  0  0  0  0
  -24.1820  -36.7560   23.0520 C   0  0  0  0  0  1  0  0  0  0  0  0
  -25.4200  -36.3530   23.8680 C   0  0  0  0  0  3  0  0  0  0  0  0
  -27.5520  -37.2400   24.7040 C   0  0  0  0  0  1  0  0  0  0  0  0
  -26.4520  -37.4070   23.7570 N   0  0  0  0  0  0  0  0  0  0  0  0
  -26.0440  -38.3260   23.9030 H   0  0  0  0  0  0  0  0  0  0  0  0
  -26.4090  -31.7450   25.1190 C   0  0  1  0  0  0  0  0  0  0  0  0
  -25.3220  -31.5040   26.1930 C   0  0  0  0  0  1  0  0  0  0  0  0
  -26.9940  -30.3690   24.7240 C   0  0  0  0  0  1  0  0  0  0  0  0
  -27.5580  -32.5440   25.7780 C   0  0  0  0  0  1  0  0  0  0  0  0
  1  2  1  0
  1  5  1  0
  2  4  1  0
  3  1  2  0
  6  8  2  0
  7  6  1  0
  7  5  1  0
  9  7  1  0
 10 19  1  0
 10  6  1  0
 11 19  1  0
 12 17  1  0
 13 14  1  0
 13 12  1  0
 15 14  1  0
 15 24  1  0
 15 16  1  0
 17 11  1  0
 17 16  1  0
 18 11  2  0
 19 20  1  0
 21 22  2  0
 22 41  1  0
 23 22  1  0
 23 26  1  0
 24 25  1  0
 24 21  1  0
 25 23  2  0
 26 27  1  0
 27 28  2  0
 29 32  1  0
 29 28  1  0
 30 29  2  0
 31 30  1  0
 31 26  2  0
 32 33  1  0
 33 34  1  0
 34 35  2  0
 36 35  1  0
 36 40  1  0
 37 36  2  0
 38 33  2  0
 38 37  1  0
 39 38  1  0
 41 42  1  0
 42 45  1  0
 42 44  1  0
 43 41  2  0
 46 47  1  0
 46 21  1  0
 48 46  1  0
 49  2  1  0
 50 51  1  0
 50 49  1  0
 52 63  2  0
 53 51  1  0
 53 58  1  0
 54 62  1  0
 54 64  1  0
 55 61  1  0
 55 57  1  0
 56 62  1  0
 57 56  1  0
 58 57  2  0
 59 60  1  0
 59 53  2  0
 60 55  2  0
 61 54  1  0
 62 52  1  0
 64 66  2  0
 65 64  1  0
 67 65  1  0
 68 77  2  0
 68 73  1  0
 69 65  1  0
 69 73  1  0
 70 69  1  0
 71 72  1  0
 71 70  1  0
 72 68  1  0
 73 74  2  0
 74 75  1  0
 76 75  2  0
 77 76  1  0
 78 52  1  0
 78 79  1  0
 78 88  1  0
 79 82  1  0
 80 84  1  0
 80 79  1  0
 81 80  2  0
 84 83  1  0
 86 84  1  0
 86 87  1  0
 86 85  1  0
 88 91  1  1
 88 89  1  0
 90 88  1  0
M  ISO  4  11 100  19 100  50 101  51 101
M  END
>  <TORSDO>  (33) 
F 21

>  <SCORE>  (33) 
-12.796

>  <name>  (33) 
33

>  <ligand_id>  (33) 
33

>  <original_smiles>  (33) 
[H]c1c([H])c([H])c2c(c1[H])C([H])([H])C([H])([H])C([H])([H])C2([H])N([H])C(=O)C1([H])N(C(=O)C([H])(N([H])C(=O)C([H])(N([H])C([H])([H])[H])C([H])([H])[H])C(C([H])([H])[H])(C([H])([H])[H])C([H])([H])[H])C([H])([H])c2c([H])c(OC([H])([H])C([H])([H])N([H])C(=O)C([H])([H])N([H])C(=O)C([H])([H])N([H])C(=O)N3C([H])([H])C([H])([H])C([H])([H])C([H])(n4nc(-c5c([H])c([H])c(Oc6c([H])c([H])c(F)c([H])c6F)c([H])c5[H])c(C(=O)N([H])[H])c4N([H])[H])C3([H])[H])c([H])c([H])c2C1([H])[H]

>  <smiles>  (33) 
[H]c1c([H])c([H])c2c(c1[H])C([H])([H])C([H])([H])C([H])([H])C2([H])N([H])C(=O)C1([H])N(C(=O)C([H])(N([H])C(=O)C([H])(N([H])C([H])([H])[H])C([H])([H])[H])C(C([H])([H])[H])(C([H])([H])[H])C([H])([H])[H])C([H])([H])c2c([H])c(OC([H])([H])C([H])([H])N([H])C(=O)C([H])([H])N([H])C(=O)C([H])([H])N([H])C(=O)N3C([H])([H])C([H])([H])C([H])([H])C([H])(n4nc(-c5c([H])c([H])c(Oc6c([H])c([H])c(F)c([H])c6F)c([H])c5[H])c(C(=O)N([H])[H])c4N([H])[H])C3([H])[H])c([H])c([H])c2C1([H])[H]

$$$$
34:0:0
     RDKit          3D

 90 98  0  0  1  0  0  0  0  0999 V2000
  -29.3140  -19.0920   19.4860 C   0  0  0  0  0  0  0  0  0  0  0  0
  -26.6760  -21.6410   18.8670 C   0  0  0  0  0  2  0  0  0  0  0  0
  -26.8800  -21.7640   20.3670 C   0  0  0  0  0  2  0  0  0  0  0  0
  -27.6300  -20.4990   18.5310 C   0  0  0  0  0  2  0  0  0  0  0  0
  -28.4130  -21.7340   20.4480 C   0  0  0  0  0  3  0  0  0  0  0  0
  -28.7180  -20.4310   19.5550 N   0  0  0  0  0  0  0  0  0  0  0  0
  -29.3980  -18.6040   18.3520 O   0  0  0  0  0  0  0  0  0  0  0  0
  -28.8830  -23.3690   20.1040 C   0  0  0  0  0  0  0  0  0  0  0  0
  -30.0520  -23.5950   19.7780 O   0  0  0  0  0  0  0  0  0  0  0  0
  -27.8620  -24.7040   20.2110 C   0  0  0  0  0  2  0  0  0  0  0  0
  -28.2510  -26.2310   20.1620 O   0  0  0  0  0  0  0  0  0  0  0  0
  -24.6830  -31.9370   23.3180 C   0  0  0  0  0  0  0  0  0  0  0  0
  -27.2130  -27.2480   20.1600 C   0  0  0  0  0  0  0  0  0  0  0  0
  -23.4630  -30.5760   21.6670 C   0  0  0  0  0  3  0  0  0  0  0  0
  -24.8890  -29.0200   20.1980 C   0  0  0  0  0  0  0  0  0  0  0  0
  -26.0190  -30.8260   21.4810 C   0  0  0  0  0  2  0  0  0  0  0  0
  -26.0820  -29.4440   20.8010 C   0  0  0  0  0  0  0  0  0  0  0  0
  -27.2430  -28.5750   20.7670 C   0  0  0  0  0  3  0  0  0  0  0  0
  -25.9900  -26.9440   19.5170 C   0  0  0  0  0  3  0  0  0  0  0  0
  -24.8590  -27.7840   19.5410 C   0  0  0  0  0  3  0  0  0  0  0  0
  -23.6670  -29.9260   20.2750 C   0  0  0  0  0  2  0  0  0  0  0  0
  -24.7430  -31.1340   22.2100 N   0  0  0  0  0  0  0  0  0  0  0  0
  -23.6040  -32.2170   23.8600 O   0  0  0  0  0  0  0  0  0  0  0  0
  -22.7900  -29.5530   22.6160 C   0  0  0  0  0  0  0  0  0  0  0  0
  -21.4640  -29.3690   22.4820 N   0  0  0  0  0  0  0  0  0  0  0  0
  -23.4630  -28.9280   23.4390 O   0  0  0  0  0  0  0  0  0  0  0  0
  -20.9770  -29.9310   21.7970 H   0  0  0  0  0  0  0  0  0  0  0  0
  -18.0930  -28.1210   22.9550 C   0  0  0  0  0  0  0  0  0  0  0  0
  -20.6470  -28.4170   23.2390 C   0  0  0  0  0  3  0  0  0  0  0  0
  -20.7680  -26.9890   22.6580 C   0  0  0  0  0  2  0  0  0  0  0  0
  -19.6760  -26.6580   21.6340 C   0  0  0  0  0  2  0  0  0  0  0  0
  -18.2890  -26.7790   22.2700 C   0  0  0  0  0  2  0  0  0  0  0  0
  -19.1980  -28.8980   23.3960 C   0  0  0  0  0  0  0  0  0  0  0  0
  -18.9570  -30.1510   23.9980 C   0  0  0  0  0  3  0  0  0  0  0  0
  -17.6450  -30.6300   24.1630 C   0  0  0  0  0  3  0  0  0  0  0  0
  -16.5530  -29.8530   23.7370 C   0  0  0  0  0  3  0  0  0  0  0  0
  -16.7790  -28.6000   23.1380 C   0  0  0  0  0  3  0  0  0  0  0  0
  -25.9690  -32.5560   23.9450 C   0  0  0  0  0  3  0  0  0  0  0  0
  -26.4600  -31.7900   25.2360 C   0  0  1  0  0  0  0  0  0  0  0  0
  -25.3550  -31.5810   26.2990 C   0  0  0  0  0  1  0  0  0  0  0  0
  -27.0250  -30.3970   24.8710 C   0  0  0  0  0  1  0  0  0  0  0  0
  -27.6160  -32.5740   25.9010 C   0  0  0  0  0  1  0  0  0  0  0  0
  -25.6790  -33.9630   24.2640 N   0  0  0  0  0  0  0  0  0  0  0  0
  -26.0020  -35.0060   23.4890 C   0  0  0  0  0  0  0  0  0  0  0  0
  -26.6430  -34.8850   22.4420 O   0  0  0  0  0  0  0  0  0  0  0  0
  -25.1050  -34.1320   25.0780 H   0  0  0  0  0  0  0  0  0  0  0  0
  -24.2770  -36.8150   23.1760 C   0  0  0  0  0  1  0  0  0  0  0  0
  -25.5430  -36.4060   23.9470 C   0  0  0  0  0  3  0  0  0  0  0  0
  -27.7080  -37.2920   24.6930 C   0  0  0  0  0  1  0  0  0  0  0  0
  -26.5770  -37.4510   23.7830 N   0  0  0  0  0  0  0  0  0  0  0  0
  -26.1810  -38.3760   23.9290 H   0  0  0  0  0  0  0  0  0  0  0  0
  -29.8910  -17.9610   20.5530 C   0  0  0  0  0  2  0  0  0  0  0  0
  -30.5410  -15.2020   20.2680 C   0  0  0  0  0  0  0  0  0  0  0  0
  -30.4940  -12.8360   19.3220 C   0  0  0  0  0  2  0  0  0  0  0  0
  -29.5660  -12.7550   18.0900 C   0  0  0  0  0  2  0  0  0  0  0  0
  -28.1080  -12.4970   18.5160 C   0  0  0  0  0  2  0  0  0  0  0  0
  -27.6720  -13.4080   19.6920 C   0  0  0  0  0  3  0  0  0  0  0  0
  -28.7270  -13.4630   20.8190 C   0  0  0  0  0  2  0  0  0  0  0  0
  -29.9780  -13.9210   20.2040 N   0  0  0  0  0  0  0  0  0  0  0  0
  -31.7600  -15.2800   20.0660 O   0  0  0  0  0  0  0  0  0  0  0  0
  -29.7130  -16.3700   20.3760 N   0  0  0  0  0  0  0  0  0  0  0  0
  -28.7370  -16.1150   20.3890 H   0  0  0  0  0  0  0  0  0  0  0  0
  -25.2790  -13.9410   20.4210 C   0  0  0  0  0  0  0  0  0  0  0  0
  -24.2300  -13.1460   20.7930 C   0  0  0  0  0  0  0  0  0  0  0  0
  -24.7210  -11.8050   20.7710 C   0  0  0  0  0  0  0  0  0  0  0  0
  -26.3410  -13.0810   20.1920 N   0  0  0  0  0  0  0  0  0  0  0  0
  -26.0160  -11.7920   20.4720 N   0  0  0  0  0  0  0  0  0  0  0  0
  -24.0190  -10.5290   20.9610 C   0  0  0  0  0  0  0  0  0  0  0  0
  -24.4430   -9.5910   21.9280 C   0  0  0  0  0  3  0  0  0  0  0  0
  -23.7390   -8.3810   22.1070 C   0  0  0  0  0  3  0  0  0  0  0  0
  -22.5940   -8.1000   21.3230 C   0  0  0  0  0  0  0  0  0  0  0  0
  -22.1910   -9.0300   20.3490 C   0  0  0  0  0  3  0  0  0  0  0  0
  -22.8950  -10.2320   20.1650 C   0  0  0  0  0  3  0  0  0  0  0  0
  -21.8610   -6.9410   21.4090 O   0  0  0  0  0  0  0  0  0  0  0  0
  -21.7720   -6.2330   22.5810 C   0  0  0  0  0  0  0  0  0  0  0  0
  -21.2250   -6.7990   23.7530 C   0  0  0  0  0  3  0  0  0  0  0  0
  -21.0880   -6.0140   24.9160 C   0  0  0  0  0  3  0  0  0  0  0  0
  -21.4890   -4.6640   24.9050 C   0  0  0  0  0  0  0  0  0  0  0  0
  -22.0280   -4.0960   23.7350 C   0  0  0  0  0  3  0  0  0  0  0  0
  -22.1670   -4.8800   22.5760 C   0  0  0  0  0  0  0  0  0  0  0  0
  -22.6660   -4.3250   21.4460 F   0  0  0  0  0  0  0  0  0  0  0  0
  -21.3520   -3.9050   26.0170 F   0  0  0  0  0  0  0  0  0  0  0  0
  -22.8200  -13.5960   21.0450 C   0  0  0  0  0  0  0  0  0  0  0  0
  -22.0950  -12.8890   21.9040 N   0  0  0  0  0  0  0  0  0  0  0  0
  -22.3710  -14.6120   20.5160 O   0  0  0  0  0  0  0  0  0  0  0  0
  -22.4700  -12.0700   22.3600 H   0  0  0  0  0  0  0  0  0  0  0  0
  -21.1480  -13.1730   22.1110 H   0  0  0  0  0  0  0  0  0  0  0  0
  -25.4170  -15.3130   20.2260 N   0  0  0  0  0  0  0  0  0  0  0  0
  -24.6360  -15.9540   20.3100 H   0  0  0  0  0  0  0  0  0  0  0  0
  -26.2410  -15.7480   19.8340 H   0  0  0  0  0  0  0  0  0  0  0  0
  1  6  1  0
  1 52  1  0
  2  3  1  0
  3  5  1  0
  4  2  1  0
  4  6  1  0
  5  8  1  0
  6  5  1  0
  7  1  2  0
  8 10  1  0
  9  8  2  0
 11 10  1  0
 12 23  2  0
 13 11  1  0
 13 18  1  0
 14 22  1  0
 14 24  1  0
 15 21  1  0
 15 17  1  0
 16 22  1  0
 17 16  1  0
 18 17  2  0
 19 20  1  0
 19 13  2  0
 20 15  2  0
 21 14  1  0
 22 12  1  0
 24 26  2  0
 25 24  1  0
 27 25  1  0
 28 37  2  0
 28 33  1  0
 29 25  1  0
 29 33  1  0
 30 29  1  0
 31 32  1  0
 31 30  1  0
 32 28  1  0
 33 34  2  0
 34 35  1  0
 36 35  2  0
 37 36  1  0
 38 12  1  0
 38 43  1  0
 38 39  1  0
 39 42  1  1
 39 40  1  0
 41 39  1  0
 43 46  1  0
 44 48  1  0
 44 43  1  0
 45 44  2  0
 48 47  1  0
 50 51  1  0
 50 48  1  0
 50 49  1  0
 53 61  1  0
 54 59  1  0
 55 56  1  0
 55 54  1  0
 57 56  1  0
 57 66  1  0
 57 58  1  0
 59 53  1  0
 59 58  1  0
 60 53  2  0
 61 62  1  0
 61 52  1  0
 63 64  2  0
 64 83  1  0
 65 64  1  0
 65 68  1  0
 66 63  1  0
 66 67  1  0
 67 65  2  0
 68 69  1  0
 69 70  2  0
 71 74  1  0
 71 70  1  0
 72 71  2  0
 73 72  1  0
 73 68  2  0
 74 75  1  0
 75 76  1  0
 76 77  2  0
 78 77  1  0
 78 82  1  0
 79 78  2  0
 80 75  2  0
 80 79  1  0
 81 80  1  0
 83 84  1  0
 84 87  1  0
 84 86  1  0
 85 83  2  0
 88 89  1  0
 88 63  1  0
 90 88  1  0
M  ISO  4  10 101  11 101  53 100  61 100
M  END
>  <TORSDO>  (34) 
F 19

>  <SCORE>  (34) 
-14.125

>  <name>  (34) 
34

>  <ligand_id>  (34) 
34

>  <original_smiles>  (34) 
[H]c1c([H])c([H])c2c(c1[H])C([H])([H])C([H])([H])C([H])([H])C2([H])N([H])C(=O)C1([H])N(C(=O)C([H])(N([H])C(=O)C([H])(N([H])C([H])([H])[H])C([H])([H])[H])C(C([H])([H])[H])(C([H])([H])[H])C([H])([H])[H])C([H])([H])c2c([H])c(OC([H])([H])C(=O)C3([H])N(C(=O)C([H])([H])N([H])C(=O)N4C([H])([H])C([H])([H])C([H])([H])C([H])(n5nc(-c6c([H])c([H])c(Oc7c([H])c([H])c(F)c([H])c7F)c([H])c6[H])c(C(=O)N([H])[H])c5N([H])[H])C4([H])[H])C([H])([H])C([H])([H])C3([H])[H])c([H])c([H])c2C1([H])[H]

>  <smiles>  (34) 
[H]c1c([H])c([H])c2c(c1[H])C([H])([H])C([H])([H])C([H])([H])C2([H])N([H])C(=O)C1([H])N(C(=O)C([H])(N([H])C(=O)C([H])(N([H])C([H])([H])[H])C([H])([H])[H])C(C([H])([H])[H])(C([H])([H])[H])C([H])([H])[H])C([H])([H])c2c([H])c(OC([H])([H])C(=O)C3([H])N(C(=O)C([H])([H])N([H])C(=O)N4C([H])([H])C([H])([H])C([H])([H])C([H])(n5nc(-c6c([H])c([H])c(Oc7c([H])c([H])c(F)c([H])c7F)c([H])c6[H])c(C(=O)N([H])[H])c5N([H])[H])C4([H])[H])C([H])([H])C([H])([H])C3([H])[H])c([H])c([H])c2C1([H])[H]

$$$$
35:0:0
     RDKit          3D

 91 99  0  0  1  0  0  0  0  0999 V2000
  -28.4140  -23.1900   20.2230 C   0  0  0  0  0  3  0  0  0  0  0  0
  -28.5390  -19.0310   19.2110 C   0  0  0  0  0  2  0  0  0  0  0  0
  -30.3910  -19.4060   20.6490 C   0  0  0  0  0  2  0  0  0  0  0  0
  -28.4240  -20.6570   18.8890 C   0  0  0  0  0  2  0  0  0  0  0  0
  -30.3060  -21.0370   20.3180 C   0  0  0  0  0  2  0  0  0  0  0  0
  -29.9250  -18.2770   19.5830 C   0  0  0  0  0  3  0  0  0  0  0  0
  -28.9490  -21.6420   19.9340 N   0  0  1  0  0  4  0  0  0  0  0  0
  -28.4280  -21.2830   20.7220 H   0  0  0  0  0  0  0  0  0  0  0  0
  -30.6910  -15.4620   19.7470 C   0  0  0  0  0  0  0  0  0  0  0  0
  -30.6390  -13.0180   18.9470 C   0  0  0  0  0  2  0  0  0  0  0  0
  -29.6460  -12.8300   17.7730 C   0  0  0  0  0  2  0  0  0  0  0  0
  -28.2190  -12.5820   18.2950 C   0  0  0  0  0  2  0  0  0  0  0  0
  -27.8420  -13.5510   19.4440 C   0  0  0  0  0  3  0  0  0  0  0  0
  -28.9550  -13.6860   20.5050 C   0  0  0  0  0  2  0  0  0  0  0  0
  -30.1580  -14.1560   19.8020 N   0  0  0  0  0  0  0  0  0  0  0  0
  -31.8680  -15.5200   19.3610 O   0  0  0  0  0  0  0  0  0  0  0  0
  -29.8860  -16.6660   19.9300 N   0  0  0  0  0  0  0  0  0  0  0  0
  -28.9800  -16.3980   20.2860 H   0  0  0  0  0  0  0  0  0  0  0  0
  -25.5320  -14.1150   20.3750 C   0  0  0  0  0  0  0  0  0  0  0  0
  -24.4910  -13.3350   20.7980 C   0  0  0  0  0  0  0  0  0  0  0  0
  -24.9390  -11.9830   20.6920 C   0  0  0  0  0  0  0  0  0  0  0  0
  -26.5450  -13.2370   20.0320 N   0  0  0  0  0  0  0  0  0  0  0  0
  -26.2040  -11.9480   20.2870 N   0  0  0  0  0  0  0  0  0  0  0  0
  -24.2130  -10.7220   20.8950 C   0  0  0  0  0  0  0  0  0  0  0  0
  -24.6490   -9.7590   21.8320 C   0  0  0  0  0  3  0  0  0  0  0  0
  -23.9210   -8.5650   22.0250 C   0  0  0  0  0  3  0  0  0  0  0  0
  -22.7420   -8.3240   21.2790 C   0  0  0  0  0  0  0  0  0  0  0  0
  -22.3240   -9.2760   20.3320 C   0  0  0  0  0  3  0  0  0  0  0  0
  -23.0540  -10.4610   20.1370 C   0  0  0  0  0  3  0  0  0  0  0  0
  -21.9860   -7.1820   21.3790 O   0  0  0  0  0  0  0  0  0  0  0  0
  -21.8770   -6.4920   22.5610 C   0  0  0  0  0  0  0  0  0  0  0  0
  -21.3440   -7.0890   23.7250 C   0  0  0  0  0  3  0  0  0  0  0  0
  -21.1860   -6.3240   24.8980 C   0  0  0  0  0  3  0  0  0  0  0  0
  -21.5470   -4.9650   24.9070 C   0  0  0  0  0  0  0  0  0  0  0  0
  -22.0720   -4.3670   23.7470 C   0  0  0  0  0  3  0  0  0  0  0  0
  -22.2320   -5.1290   22.5770 C   0  0  0  0  0  0  0  0  0  0  0  0
  -22.7180   -4.5420   21.4550 F   0  0  0  0  0  0  0  0  0  0  0  0
  -21.3880   -4.2270   26.0310 F   0  0  0  0  0  0  0  0  0  0  0  0
  -23.1220  -13.8170   21.1830 C   0  0  0  0  0  0  0  0  0  0  0  0
  -22.4540  -13.1080   22.0860 N   0  0  0  0  0  0  0  0  0  0  0  0
  -22.6580  -14.8580   20.7210 O   0  0  0  0  0  0  0  0  0  0  0  0
  -22.8440  -12.2640   22.4800 H   0  0  0  0  0  0  0  0  0  0  0  0
  -21.5420  -13.4160   22.3910 H   0  0  0  0  0  0  0  0  0  0  0  0
  -25.6930  -15.4890   20.2240 N   0  0  0  0  0  0  0  0  0  0  0  0
  -24.9280  -16.1360   20.3830 H   0  0  0  0  0  0  0  0  0  0  0  0
  -26.4960  -15.9260   19.7910 H   0  0  0  0  0  0  0  0  0  0  0  0
  -27.6020  -24.4940   22.3190 C   0  0  0  0  0  1  0  0  0  0  0  0
  -28.4870  -22.2010   22.6250 C   0  0  0  0  0  1  0  0  0  0  0  0
  -28.6090  -23.4750   21.7500 C   0  0  0  0  0  3  0  0  0  0  0  0
  -28.4440  -24.6820   19.2750 C   0  0  0  0  0  2  0  0  0  0  0  0
  -28.3670  -26.2770   19.5940 O   0  0  0  0  0  0  0  0  0  0  0  0
  -24.7340  -31.8110   23.0120 C   0  0  0  0  0  0  0  0  0  0  0  0
  -27.2790  -27.2690   19.5800 C   0  0  0  0  0  0  0  0  0  0  0  0
  -23.4970  -30.4740   21.3510 C   0  0  0  0  0  3  0  0  0  0  0  0
  -24.9150  -29.0170   19.7580 C   0  0  0  0  0  0  0  0  0  0  0  0
  -26.0370  -30.8000   21.0860 C   0  0  0  0  0  2  0  0  0  0  0  0
  -26.1140  -29.4430   20.3410 C   0  0  0  0  0  0  0  0  0  0  0  0
  -27.2860  -28.5870   20.2340 C   0  0  0  0  0  3  0  0  0  0  0  0
  -26.0490  -26.9720   18.9560 C   0  0  0  0  0  3  0  0  0  0  0  0
  -24.9010  -27.8020   19.0490 C   0  0  0  0  0  3  0  0  0  0  0  0
  -23.6700  -29.8840   19.9240 C   0  0  0  0  0  2  0  0  0  0  0  0
  -24.7780  -31.0540   21.8700 N   0  0  0  0  0  0  0  0  0  0  0  0
  -23.6650  -32.0320   23.6060 O   0  0  0  0  0  0  0  0  0  0  0  0
  -22.8930  -29.3950   22.2870 C   0  0  0  0  0  0  0  0  0  0  0  0
  -21.5710  -29.1580   22.1850 N   0  0  0  0  0  0  0  0  0  0  0  0
  -23.6150  -28.7750   23.0710 O   0  0  0  0  0  0  0  0  0  0  0  0
  -21.0390  -29.7160   21.5330 H   0  0  0  0  0  0  0  0  0  0  0  0
  -18.2890  -27.7000   22.6760 C   0  0  0  0  0  0  0  0  0  0  0  0
  -20.8240  -28.1400   22.9300 C   0  0  0  0  0  3  0  0  0  0  0  0
  -21.0240  -26.7370   22.3120 C   0  0  0  0  0  2  0  0  0  0  0  0
  -19.9390  -26.3690   21.2940 C   0  0  0  0  0  2  0  0  0  0  0  0
  -18.5560  -26.3900   21.9520 C   0  0  0  0  0  2  0  0  0  0  0  0
  -19.3530  -28.5280   23.1200 C   0  0  0  0  0  0  0  0  0  0  0  0
  -19.0480  -29.7500   23.7600 C   0  0  0  0  0  3  0  0  0  0  0  0
  -17.7100  -30.1450   23.9550 C   0  0  0  0  0  3  0  0  0  0  0  0
  -16.6610  -29.3160   23.5250 C   0  0  0  0  0  3  0  0  0  0  0  0
  -16.9510  -28.0930   22.8950 C   0  0  0  0  0  3  0  0  0  0  0  0
  -26.0190  -32.4530   23.6180 C   0  0  0  0  0  3  0  0  0  0  0  0
  -26.6070  -31.6400   24.8390 C   0  0  1  0  0  0  0  0  0  0  0  0
  -25.5640  -31.3320   25.9400 C   0  0  0  0  0  1  0  0  0  0  0  0
  -27.2040  -30.2940   24.3710 C   0  0  0  0  0  1  0  0  0  0  0  0
  -27.7660  -32.4340   25.4870 C   0  0  0  0  0  1  0  0  0  0  0  0
  -25.6840  -33.8250   24.0410 N   0  0  0  0  0  0  0  0  0  0  0  0
  -25.9710  -34.9330   23.3460 C   0  0  0  0  0  0  0  0  0  0  0  0
  -26.6100  -34.9090   22.2910 O   0  0  0  0  0  0  0  0  0  0  0  0
  -25.1120  -33.9150   24.8680 H   0  0  0  0  0  0  0  0  0  0  0  0
  -24.1920  -36.7060   23.1680 C   0  0  0  0  0  1  0  0  0  0  0  0
  -25.4720  -36.2810   23.9060 C   0  0  0  0  0  3  0  0  0  0  0  0
  -27.6120  -37.1700   24.7200 C   0  0  0  0  0  1  0  0  0  0  0  0
  -26.4760  -37.3640   23.8220 N   0  0  0  0  0  0  0  0  0  0  0  0
  -26.0540  -38.2640   24.0330 H   0  0  0  0  0  0  0  0  0  0  0  0
  1 50  1  0
  1 49  1  0
  2  6  1  0
  4  2  1  0
  4  7  1  0
  5  3  1  0
  6 17  1  0
  6  3  1  0
  7  1  1  0
  7  5  1  0
  7  8  1  1
  9 15  1  0
  9 17  1  0
 10 15  1  0
 11 12  1  0
 11 10  1  0
 13 12  1  0
 13 22  1  0
 13 14  1  0
 15 14  1  0
 16  9  2  0
 17 18  1  0
 19 20  2  0
 20 39  1  0
 21 20  1  0
 21 24  1  0
 22 23  1  0
 22 19  1  0
 23 21  2  0
 24 25  1  0
 25 26  2  0
 27 30  1  0
 27 26  1  0
 28 27  2  0
 29 28  1  0
 29 24  2  0
 30 31  1  0
 31 36  2  0
 31 32  1  0
 32 33  2  0
 33 34  1  0
 34 38  1  0
 35 34  2  0
 36 35  1  0
 37 36  1  0
 39 40  1  0
 40 43  1  0
 40 42  1  0
 41 39  2  0
 44 19  1  0
 44 45  1  0
 46 44  1  0
 49 47  1  0
 49 48  1  0
 50 51  1  0
 52 63  2  0
 53 51  1  0
 53 58  1  0
 54 62  1  0
 54 64  1  0
 55 61  1  0
 55 57  1  0
 56 62  1  0
 57 56  1  0
 58 57  2  0
 59 60  1  0
 59 53  2  0
 60 55  2  0
 61 54  1  0
 62 52  1  0
 64 66  2  0
 65 64  1  0
 67 65  1  0
 68 77  2  0
 68 73  1  0
 69 65  1  0
 69 73  1  0
 70 69  1  0
 71 72  1  0
 71 70  1  0
 72 68  1  0
 73 74  2  0
 74 75  1  0
 76 75  2  0
 77 76  1  0
 78 52  1  0
 78 83  1  0
 78 79  1  0
 79 82  1  1
 79 80  1  0
 81 79  1  0
 83 86  1  0
 84 88  1  0
 84 83  1  0
 85 84  2  0
 88 87  1  0
 90 88  1  0
 90 91  1  0
 90 89  1  0
M  ISO  4   9 100  17 100  50 101  51 101
M  END
>  <TORSDO>  (35) 
F 19

>  <SCORE>  (35) 
-13.445

>  <name>  (35) 
35

>  <ligand_id>  (35) 
35

>  <original_smiles>  (35) 
[H]c1c([H])c([H])c2c(c1[H])C([H])([H])C([H])([H])C([H])([H])C2([H])N([H])C(=O)C1([H])N(C(=O)C([H])(N([H])C(=O)C([H])(N([H])C([H])([H])[H])C([H])([H])[H])C(C([H])([H])[H])(C([H])([H])[H])C([H])([H])[H])C([H])([H])c2c([H])c(OC([H])([H])C([H])(C([H])(C([H])([H])[H])C([H])([H])[H])[N+]3([H])C([H])([H])C([H])([H])C([H])(N([H])C(=O)N4C([H])([H])C([H])([H])C([H])([H])C([H])(n5nc(-c6c([H])c([H])c(Oc7c([H])c([H])c(F)c([H])c7F)c([H])c6[H])c(C(=O)N([H])[H])c5N([H])[H])C4([H])[H])C([H])([H])C3([H])[H])c([H])c([H])c2C1([H])[H]

>  <smiles>  (35) 
[H]c1c([H])c([H])c2c(c1[H])C([H])([H])C([H])([H])C([H])([H])C2([H])N([H])C(=O)C1([H])N(C(=O)C([H])(N([H])C(=O)C([H])(N([H])C([H])([H])[H])C([H])([H])[H])C(C([H])([H])[H])(C([H])([H])[H])C([H])([H])[H])C([H])([H])c2c([H])c(OC([H])([H])C([H])(C([H])(C([H])([H])[H])C([H])([H])[H])[N+]3([H])C([H])([H])C([H])([H])C([H])(N([H])C(=O)N4C([H])([H])C([H])([H])C([H])([H])C([H])(n5nc(-c6c([H])c([H])c(Oc7c([H])c([H])c(F)c([H])c7F)c([H])c6[H])c(C(=O)N([H])[H])c5N([H])[H])C4([H])[H])C([H])([H])C3([H])[H])c([H])c([H])c2C1([H])[H]

$$$$
36:0:0
     RDKit          3D

 98106  0  0  1  0  0  0  0  0999 V2000
  -28.8020  -23.1460   22.9650 C   0  0  0  0  0  0  0  0  0  0  0  0
  -28.3380  -21.9260   22.6640 N   0  0  0  0  0  0  0  0  0  0  0  0
  -29.9420  -23.3340   23.3990 O   0  0  0  0  0  0  0  0  0  0  0  0
  -27.4030  -21.8510   22.2900 H   0  0  0  0  0  0  0  0  0  0  0  0
  -29.1440  -20.7030   22.6920 C   0  0  0  0  0  2  0  0  0  0  0  0
  -29.7020  -20.3720   21.2890 C   0  0  0  0  0  0  0  0  0  0  0  0
  -31.3100  -17.4220   22.1440 C   0  0  0  0  0  2  0  0  0  0  0  0
  -31.0630  -17.6540   19.6270 C   0  0  0  0  0  2  0  0  0  0  0  0
  -31.5870  -18.9330   22.1810 C   0  0  0  0  0  2  0  0  0  0  0  0
  -31.2690  -19.1720   19.7940 C   0  0  0  0  0  2  0  0  0  0  0  0
  -31.7200  -16.8470   20.7730 C   0  0  0  0  0  3  0  0  0  0  0  0
  -30.7930  -19.5790   21.1240 N   0  0  0  0  0  0  0  0  0  0  0  0
  -29.0920  -20.8420   20.3220 O   0  0  0  0  0  0  0  0  0  0  0  0
  -31.8520  -14.5020   19.9120 C   0  0  0  0  0  0  0  0  0  0  0  0
  -31.3710  -12.3480   18.8110 C   0  0  0  0  0  2  0  0  0  0  0  0
  -30.3790  -12.5580   17.6500 C   0  0  0  0  0  2  0  0  0  0  0  0
  -28.9230  -12.5330   18.1540 C   0  0  0  0  0  2  0  0  0  0  0  0
  -28.7060  -13.4490   19.3880 C   0  0  0  0  0  3  0  0  0  0  0  0
  -29.7860  -13.1740   20.4560 C   0  0  0  0  0  2  0  0  0  0  0  0
  -31.1100  -13.3710   19.8340 N   0  0  0  0  0  0  0  0  0  0  0  0
  -32.8910  -14.6860   19.2670 O   0  0  0  0  0  0  0  0  0  0  0  0
  -31.3260  -15.4480   20.6980 N   0  0  0  0  0  0  0  0  0  0  0  0
  -30.5020  -15.1800   21.2170 H   0  0  0  0  0  0  0  0  0  0  0  0
  -26.4210  -14.2660   20.2500 C   0  0  0  0  0  0  0  0  0  0  0  0
  -25.3060  -13.5840   20.6630 C   0  0  0  0  0  0  0  0  0  0  0  0
  -25.6350  -12.1970   20.5690 C   0  0  0  0  0  0  0  0  0  0  0  0
  -27.3620  -13.2970   19.9350 N   0  0  0  0  0  0  0  0  0  0  0  0
  -26.8930  -12.0470   20.1810 N   0  0  0  0  0  0  0  0  0  0  0  0
  -24.8060  -11.0010   20.7700 C   0  0  0  0  0  0  0  0  0  0  0  0
  -25.1670   -9.9970   21.6940 C   0  0  0  0  0  3  0  0  0  0  0  0
  -24.3440   -8.8660   21.8810 C   0  0  0  0  0  3  0  0  0  0  0  0
  -23.1450   -8.7310   21.1410 C   0  0  0  0  0  0  0  0  0  0  0  0
  -22.8020   -9.7230   20.2050 C   0  0  0  0  0  3  0  0  0  0  0  0
  -23.6240  -10.8460   20.0180 C   0  0  0  0  0  3  0  0  0  0  0  0
  -22.2970   -7.6530   21.2340 O   0  0  0  0  0  0  0  0  0  0  0  0
  -22.1100   -6.9870   22.4180 C   0  0  0  0  0  0  0  0  0  0  0  0
  -21.6730   -7.6510   23.5860 C   0  0  0  0  0  3  0  0  0  0  0  0
  -21.4250   -6.9190   24.7620 C   0  0  0  0  0  3  0  0  0  0  0  0
  -21.6000   -5.5210   24.7730 C   0  0  0  0  0  0  0  0  0  0  0  0
  -22.0310   -4.8570   23.6100 C   0  0  0  0  0  3  0  0  0  0  0  0
  -22.2800   -5.5890   22.4360 C   0  0  0  0  0  0  0  0  0  0  0  0
  -22.6720   -4.9400   21.3120 F   0  0  0  0  0  0  0  0  0  0  0  0
  -21.3550   -4.8150   25.9020 F   0  0  0  0  0  0  0  0  0  0  0  0
  -23.9790  -14.1810   21.0340 C   0  0  0  0  0  0  0  0  0  0  0  0
  -23.2610  -13.5460   21.9530 N   0  0  0  0  0  0  0  0  0  0  0  0
  -23.5950  -15.2410   20.5450 O   0  0  0  0  0  0  0  0  0  0  0  0
  -23.5900  -12.6840   22.3620 H   0  0  0  0  0  0  0  0  0  0  0  0
  -22.3720  -13.9260   22.2460 H   0  0  0  0  0  0  0  0  0  0  0  0
  -26.7080  -15.6190   20.1010 N   0  0  0  0  0  0  0  0  0  0  0  0
  -26.0230  -16.3470   20.2700 H   0  0  0  0  0  0  0  0  0  0  0  0
  -27.5770  -15.9760   19.7250 H   0  0  0  0  0  0  0  0  0  0  0  0
  -27.8510  -24.3310   22.7490 C   0  0  0  0  0  2  0  0  0  0  0  0
  -28.8220  -25.5560   20.8110 C   0  0  0  0  0  0  0  0  0  0  0  0
  -28.5010  -25.4770   22.1110 N   0  0  0  0  0  0  0  0  0  0  0  0
  -28.6290  -24.6250   20.0260 O   0  0  0  0  0  0  0  0  0  0  0  0
  -28.7170  -26.2670   22.7020 H   0  0  0  0  0  0  0  0  0  0  0  0
  -29.4200  -26.8810   20.3090 C   0  0  0  0  0  2  0  0  0  0  0  0
  -28.7570  -27.2910   19.1080 O   0  0  0  0  0  0  0  0  0  0  0  0
  -24.7050  -31.5800   23.0900 C   0  0  0  0  0  0  0  0  0  0  0  0
  -27.5440  -27.9070   19.2940 C   0  0  0  0  0  0  0  0  0  0  0  0
  -23.5320  -30.3060   21.3210 C   0  0  0  0  0  3  0  0  0  0  0  0
  -25.0270  -29.1260   19.6250 C   0  0  0  0  0  0  0  0  0  0  0  0
  -25.9930  -30.9380   21.0580 C   0  0  0  0  0  2  0  0  0  0  0  0
  -26.1590  -29.6820   20.2320 C   0  0  0  0  0  0  0  0  0  0  0  0
  -27.4210  -29.0790   20.0680 C   0  0  0  0  0  3  0  0  0  0  0  0
  -26.4010  -27.3560   18.6800 C   0  0  0  0  0  3  0  0  0  0  0  0
  -25.1380  -27.9590   18.8470 C   0  0  0  0  0  3  0  0  0  0  0  0
  -23.7160  -29.8460   19.8500 C   0  0  0  0  0  2  0  0  0  0  0  0
  -24.7640  -30.9490   21.8820 N   0  0  0  0  0  0  0  0  0  0  0  0
  -23.6380  -31.6710   23.7120 O   0  0  0  0  0  0  0  0  0  0  0  0
  -23.0330  -29.1060   22.1570 C   0  0  0  0  0  0  0  0  0  0  0  0
  -21.7480  -28.7560   21.9890 N   0  0  0  0  0  0  0  0  0  0  0  0
  -23.7970  -28.4970   22.9090 O   0  0  0  0  0  0  0  0  0  0  0  0
  -21.1840  -29.3210   21.3690 H   0  0  0  0  0  0  0  0  0  0  0  0
  -18.6070  -26.9760   22.1830 C   0  0  0  0  0  0  0  0  0  0  0  0
  -21.0660  -27.6360   22.6380 C   0  0  0  0  0  3  0  0  0  0  0  0
  -21.4410  -26.2930   21.9690 C   0  0  0  0  0  2  0  0  0  0  0  0
  -20.4630  -25.8700   20.8680 C   0  0  0  0  0  2  0  0  0  0  0  0
  -19.0450  -25.7310   21.4330 C   0  0  0  0  0  2  0  0  0  0  0  0
  -19.5540  -27.8790   22.7340 C   0  0  0  0  0  0  0  0  0  0  0  0
  -19.0900  -29.0390   23.3950 C   0  0  0  0  0  3  0  0  0  0  0  0
  -17.7110  -29.2980   23.5100 C   0  0  0  0  0  3  0  0  0  0  0  0
  -16.7790  -28.3940   22.9740 C   0  0  0  0  0  3  0  0  0  0  0  0
  -17.2280  -27.2350   22.3160 C   0  0  0  0  0  3  0  0  0  0  0  0
  -25.9670  -32.2330   23.7340 C   0  0  0  0  0  3  0  0  0  0  0  0
  -25.5980  -33.5940   24.1430 N   0  0  0  0  0  0  0  0  0  0  0  0
  -25.9160  -34.7050   23.4660 C   0  0  0  0  0  0  0  0  0  0  0  0
  -26.6230  -34.6950   22.4540 O   0  0  0  0  0  0  0  0  0  0  0  0
  -24.9630  -33.6750   24.9260 H   0  0  0  0  0  0  0  0  0  0  0  0
  -24.1290  -36.4560   23.1750 C   0  0  0  0  0  1  0  0  0  0  0  0
  -25.3600  -36.0420   23.9970 C   0  0  0  0  0  3  0  0  0  0  0  0
  -27.4350  -36.9400   24.9530 C   0  0  0  0  0  1  0  0  0  0  0  0
  -26.3530  -37.1350   23.9920 N   0  0  0  0  0  0  0  0  0  0  0  0
  -25.9060  -38.0270   24.1910 H   0  0  0  0  0  0  0  0  0  0  0  0
  -26.5410  -31.4130   24.9550 C   0  0  1  0  0  0  0  0  0  0  0  0
  -25.4770  -31.0470   26.0160 C   0  0  0  0  0  1  0  0  0  0  0  0
  -27.1920  -30.0990   24.4680 C   0  0  0  0  0  1  0  0  0  0  0  0
  -27.6540  -32.2270   25.6540 C   0  0  0  0  0  1  0  0  0  0  0  0
  1  3  2  0
  2  5  1  0
  2  1  1  0
  4  2  1  0
  6  5  1  0
  7  9  1  0
  8 10  1  0
  8 11  1  0
 10 12  1  0
 11 22  1  0
 11  7  1  0
 12  6  1  0
 12  9  1  0
 13  6  2  0
 14 22  1  0
 15 20  1  0
 16 17  1  0
 16 15  1  0
 18 17  1  0
 18 27  1  0
 18 19  1  0
 20 14  1  0
 20 19  1  0
 21 14  2  0
 22 23  1  0
 24 25  2  0
 25 44  1  0
 26 25  1  0
 26 29  1  0
 27 28  1  0
 27 24  1  0
 28 26  2  0
 29 30  1  0
 30 31  2  0
 32 35  1  0
 32 31  1  0
 33 32  2  0
 34 33  1  0
 34 29  2  0
 35 36  1  0
 36 41  2  0
 36 37  1  0
 37 38  2  0
 38 39  1  0
 39 43  1  0
 40 39  2  0
 41 40  1  0
 42 41  1  0
 44 45  1  0
 45 48  1  0
 45 47  1  0
 46 44  2  0
 49 24  1  0
 49 50  1  0
 51 49  1  0
 52  1  1  0
 53 54  1  0
 54 56  1  0
 54 52  1  0
 55 53  2  0
 57 53  1  0
 58 60  1  0
 58 57  1  0
 59 70  2  0
 60 65  1  0
 61 69  1  0
 61 71  1  0
 62 68  1  0
 62 64  1  0
 63 69  1  0
 64 63  1  0
 65 64  2  0
 66 67  1  0
 66 60  2  0
 67 62  2  0
 68 61  1  0
 69 59  1  0
 71 73  2  0
 72 71  1  0
 74 72  1  0
 75 84  2  0
 75 80  1  0
 76 72  1  0
 76 80  1  0
 77 76  1  0
 78 79  1  0
 78 77  1  0
 79 75  1  0
 80 81  2  0
 81 82  1  0
 83 82  2  0
 84 83  1  0
 85 59  1  0
 85 86  1  0
 85 95  1  0
 86 89  1  0
 87 91  1  0
 87 86  1  0
 88 87  2  0
 91 90  1  0
 93 91  1  0
 93 94  1  0
 93 92  1  0
 95 98  1  1
 95 96  1  0
 97 95  1  0
M  ISO  4  14 100  22 100  57 101  58 101
M  END
>  <TORSDO>  (36) 
F 21

>  <SCORE>  (36) 
-8.766

>  <name>  (36) 
36

>  <ligand_id>  (36) 
36

>  <original_smiles>  (36) 
[H]c1c([H])c([H])c2c(c1[H])C([H])([H])C([H])([H])C([H])([H])C2([H])N([H])C(=O)C1([H])N(C(=O)C([H])(N([H])C(=O)C([H])(N([H])C([H])([H])[H])C([H])([H])[H])C(C([H])([H])[H])(C([H])([H])[H])C([H])([H])[H])C([H])([H])c2c([H])c(OC([H])([H])C(=O)N([H])C([H])([H])C(=O)N([H])C([H])([H])C(=O)N3C([H])([H])C([H])([H])C([H])(N([H])C(=O)N4C([H])([H])C([H])([H])C([H])([H])C([H])(n5nc(-c6c([H])c([H])c(Oc7c([H])c([H])c(F)c([H])c7F)c([H])c6[H])c(C(=O)N([H])[H])c5N([H])[H])C4([H])[H])C([H])([H])C3([H])[H])c([H])c([H])c2C1([H])[H]

>  <smiles>  (36) 
[H]c1c([H])c([H])c2c(c1[H])C([H])([H])C([H])([H])C([H])([H])C2([H])N([H])C(=O)C1([H])N(C(=O)C([H])(N([H])C(=O)C([H])(N([H])C([H])([H])[H])C([H])([H])[H])C(C([H])([H])[H])(C([H])([H])[H])C([H])([H])[H])C([H])([H])c2c([H])c(OC([H])([H])C(=O)N([H])C([H])([H])C(=O)N([H])C([H])([H])C(=O)N3C([H])([H])C([H])([H])C([H])(N([H])C(=O)N4C([H])([H])C([H])([H])C([H])([H])C([H])(n5nc(-c6c([H])c([H])c(Oc7c([H])c([H])c(F)c([H])c7F)c([H])c6[H])c(C(=O)N([H])[H])c5N([H])[H])C4([H])[H])C([H])([H])C3([H])[H])c([H])c([H])c2C1([H])[H]

$$$$
38:0:0
     RDKit          3D

104111  0  0  1  0  0  0  0  0999 V2000
  -28.8410  -20.6390   20.2730 C   0  0  0  0  0  3  0  0  0  0  0  0
  -29.3970  -21.8650   19.4880 C   0  0  0  0  0  0  0  0  0  0  0  0
  -28.5910  -22.9370   19.3260 N   0  0  0  0  0  0  0  0  0  0  0  0
  -30.5530  -21.8420   19.0610 O   0  0  0  0  0  0  0  0  0  0  0  0
  -27.6570  -22.8490   19.7030 H   0  0  0  0  0  0  0  0  0  0  0  0
  -28.8830  -24.2010   18.6090 C   0  0  0  0  0  2  0  0  0  0  0  0
  -28.4720  -25.4690   19.4100 C   0  0  0  0  0  2  0  0  0  0  0  0
  -28.3240  -26.6720   18.6100 O   0  0  0  0  0  0  0  0  0  0  0  0
  -24.7090  -31.2800   22.7120 C   0  0  0  0  0  0  0  0  0  0  0  0
  -27.1580  -27.3920   18.8070 C   0  0  0  0  0  0  0  0  0  0  0  0
  -23.3880  -30.0650   21.0100 C   0  0  0  0  0  3  0  0  0  0  0  0
  -24.7390  -28.8040   19.2480 C   0  0  0  0  0  0  0  0  0  0  0  0
  -25.8720  -30.5520   20.6270 C   0  0  0  0  0  2  0  0  0  0  0  0
  -25.9370  -29.2850   19.7930 C   0  0  0  0  0  0  0  0  0  0  0  0
  -27.1510  -28.5900   19.5650 C   0  0  0  0  0  3  0  0  0  0  0  0
  -25.9430  -26.9440   18.2440 C   0  0  0  0  0  3  0  0  0  0  0  0
  -24.7390  -27.6350   18.4680 C   0  0  0  0  0  3  0  0  0  0  0  0
  -23.4800  -29.5940   19.5350 C   0  0  0  0  0  2  0  0  0  0  0  0
  -24.6800  -30.6400   21.5080 N   0  0  0  0  0  0  0  0  0  0  0  0
  -23.6790  -31.4300   23.3840 O   0  0  0  0  0  0  0  0  0  0  0  0
  -22.8660  -28.8940   21.8750 C   0  0  0  0  0  0  0  0  0  0  0  0
  -21.5500  -28.6370   21.8070 N   0  0  0  0  0  0  0  0  0  0  0  0
  -23.6400  -28.2240   22.5640 O   0  0  0  0  0  0  0  0  0  0  0  0
  -20.9820  -29.2370   21.2240 H   0  0  0  0  0  0  0  0  0  0  0  0
  -18.3060  -27.1200   22.2980 C   0  0  0  0  0  0  0  0  0  0  0  0
  -20.8450  -27.5610   22.5030 C   0  0  0  0  0  3  0  0  0  0  0  0
  -21.0350  -26.2100   21.7740 C   0  0  0  0  0  2  0  0  0  0  0  0
  -19.9170  -25.9030   20.7720 C   0  0  0  0  0  2  0  0  0  0  0  0
  -18.5580  -25.8680   21.4780 C   0  0  0  0  0  2  0  0  0  0  0  0
  -19.3800  -27.9240   22.7660 C   0  0  0  0  0  0  0  0  0  0  0  0
  -19.0900  -29.0980   23.4940 C   0  0  0  0  0  3  0  0  0  0  0  0
  -17.7600  -29.4690   23.7610 C   0  0  0  0  0  3  0  0  0  0  0  0
  -16.7010  -28.6620   23.3110 C   0  0  0  0  0  3  0  0  0  0  0  0
  -16.9750  -27.4890   22.5840 C   0  0  0  0  0  3  0  0  0  0  0  0
  -26.0300  -31.8790   23.2870 C   0  0  0  0  0  3  0  0  0  0  0  0
  -26.7520  -30.9170   24.3090 C   0  0  1  0  0  0  0  0  0  0  0  0
  -25.8270  -30.4020   25.4370 C   0  0  0  0  0  1  0  0  0  0  0  0
  -27.3420  -29.6860   23.5810 C   0  0  0  0  0  1  0  0  0  0  0  0
  -27.9450  -31.6520   24.9650 C   0  0  0  0  0  1  0  0  0  0  0  0
  -25.6950  -33.1580   23.9260 N   0  0  0  0  0  0  0  0  0  0  0  0
  -25.8900  -34.3610   23.3680 C   0  0  0  0  0  0  0  0  0  0  0  0
  -26.4450  -34.5100   22.2760 O   0  0  0  0  0  0  0  0  0  0  0  0
  -25.1850  -33.1080   24.7960 H   0  0  0  0  0  0  0  0  0  0  0  0
  -24.0490  -36.0640   23.5620 C   0  0  0  0  0  1  0  0  0  0  0  0
  -25.3890  -35.5920   24.1460 C   0  0  0  0  0  3  0  0  0  0  0  0
  -27.5580  -36.4420   24.9260 C   0  0  0  0  0  1  0  0  0  0  0  0
  -26.3510  -36.7170   24.1500 N   0  0  0  0  0  0  0  0  0  0  0  0
  -25.9180  -37.5580   24.5230 H   0  0  0  0  0  0  0  0  0  0  0  0
  -29.5610  -18.2100   20.4450 C   0  0  0  0  0  0  0  0  0  0  0  0
  -29.8200  -19.5350   20.4120 N   0  0  0  0  0  0  0  0  0  0  0  0
  -28.4160  -17.7600   20.3500 O   0  0  0  0  0  0  0  0  0  0  0  0
  -30.7880  -19.8310   20.4450 H   0  0  0  0  0  0  0  0  0  0  0  0
  -30.7430  -17.2310   20.6330 C   0  0  0  0  0  2  0  0  0  0  0  0
  -31.0010  -14.7650   20.1580 C   0  0  0  0  0  0  0  0  0  0  0  0
  -30.7140  -12.5180   19.1680 C   0  0  0  0  0  2  0  0  0  0  0  0
  -29.7490  -12.6020   17.9670 C   0  0  0  0  0  2  0  0  0  0  0  0
  -28.2860  -12.4750   18.4320 C   0  0  0  0  0  2  0  0  0  0  0  0
  -27.9550  -13.4070   19.6280 C   0  0  0  0  0  3  0  0  0  0  0  0
  -29.0280  -13.2940   20.7340 C   0  0  0  0  0  2  0  0  0  0  0  0
  -30.3360  -13.5750   20.1210 N   0  0  0  0  0  0  0  0  0  0  0  0
  -32.1140  -14.9180   19.6450 O   0  0  0  0  0  0  0  0  0  0  0  0
  -30.3270  -15.8120   20.6710 N   0  0  0  0  0  0  0  0  0  0  0  0
  -29.3920  -15.6390   21.0090 H   0  0  0  0  0  0  0  0  0  0  0  0
  -25.5930  -14.0510   20.4200 C   0  0  0  0  0  0  0  0  0  0  0  0
  -24.5210  -13.2940   20.8100 C   0  0  0  0  0  0  0  0  0  0  0  0
  -24.9540  -11.9340   20.7500 C   0  0  0  0  0  0  0  0  0  0  0  0
  -26.6120  -13.1520   20.1470 N   0  0  0  0  0  0  0  0  0  0  0  0
  -26.2330  -11.8740   20.4030 N   0  0  0  0  0  0  0  0  0  0  0  0
  -24.2100  -10.6830   20.9470 C   0  0  0  0  0  0  0  0  0  0  0  0
  -24.6340   -9.7090   21.8780 C   0  0  0  0  0  3  0  0  0  0  0  0
  -23.8910   -8.5240   22.0630 C   0  0  0  0  0  3  0  0  0  0  0  0
  -22.7090   -8.3030   21.3160 C   0  0  0  0  0  0  0  0  0  0  0  0
  -22.3030   -9.2650   20.3750 C   0  0  0  0  0  3  0  0  0  0  0  0
  -23.0470  -10.4420   20.1870 C   0  0  0  0  0  3  0  0  0  0  0  0
  -21.9380   -7.1690   21.4110 O   0  0  0  0  0  0  0  0  0  0  0  0
  -21.8370   -6.4620   22.5820 C   0  0  0  0  0  0  0  0  0  0  0  0
  -21.3810   -7.0610   23.7770 C   0  0  0  0  0  3  0  0  0  0  0  0
  -21.2270   -6.2810   24.9400 C   0  0  0  0  0  3  0  0  0  0  0  0
  -21.5190   -4.9040   24.9100 C   0  0  0  0  0  0  0  0  0  0  0  0
  -21.9690   -4.3060   23.7210 C   0  0  0  0  0  3  0  0  0  0  0  0
  -22.1240   -5.0830   22.5590 C   0  0  0  0  0  0  0  0  0  0  0  0
  -22.5380   -4.4970   21.4090 F   0  0  0  0  0  0  0  0  0  0  0  0
  -21.3640   -4.1530   26.0260 F   0  0  0  0  0  0  0  0  0  0  0  0
  -23.1420  -13.7940   21.1320 C   0  0  0  0  0  0  0  0  0  0  0  0
  -22.4330  -13.1070   22.0210 N   0  0  0  0  0  0  0  0  0  0  0  0
  -22.7040  -14.8280   20.6310 O   0  0  0  0  0  0  0  0  0  0  0  0
  -22.8020  -12.2690   22.4470 H   0  0  0  0  0  0  0  0  0  0  0  0
  -21.5090  -13.4230   22.2820 H   0  0  0  0  0  0  0  0  0  0  0  0
  -25.7820  -15.4200   20.2610 N   0  0  0  0  0  0  0  0  0  0  0  0
  -25.0440  -16.0940   20.4330 H   0  0  0  0  0  0  0  0  0  0  0  0
  -26.6550  -15.8590   19.9870 H   0  0  0  0  0  0  0  0  0  0  0  0
  -28.2340  -21.0090   21.6520 C   0  0  0  0  0  2  0  0  0  0  0  0
  -29.0330  -22.0540   22.4650 C   0  0  0  0  0  2  0  0  0  0  0  0
  -28.5240  -23.4940   22.2640 C   0  0  0  0  0  2  0  0  0  0  0  0
  -29.5050  -24.5680   22.7610 C   0  0  0  0  0  2  0  0  0  0  0  0
  -31.3240  -25.8530   21.5870 C   0  0  0  0  0  0  0  0  0  0  0  0
  -32.3240  -25.8300   20.7140 N   0  0  0  0  0  4  0  0  0  0  0  0
  -31.0210  -26.9960   22.1970 N   0  0  0  0  0  0  0  0  0  0  0  0
  -30.6390  -24.7280   21.8340 N   0  0  0  0  0  0  0  0  0  0  0  0
  -32.8710  -26.6500   20.4960 H   0  0  0  0  0  0  0  0  0  0  0  0
  -32.5780  -24.9820   20.2250 H   0  0  0  0  0  0  0  0  0  0  0  0
  -31.5240  -27.8520   22.0180 H   0  0  0  0  0  0  0  0  0  0  0  0
  -30.2730  -27.0390   22.8720 H   0  0  0  0  0  0  0  0  0  0  0  0
  -30.9570  -23.8740   21.4000 H   0  0  0  0  0  0  0  0  0  0  0  0
  1 50  1  0
  1 92  1  0
  2  1  1  0
  3  2  1  0
  3  5  1  0
  4  2  2  0
  6  3  1  0
  6  7  1  0
  8 10  1  0
  8  7  1  0
  9 20  2  0
 10 15  1  0
 11 19  1  0
 11 21  1  0
 12 18  1  0
 12 14  1  0
 13 19  1  0
 14 13  1  0
 15 14  2  0
 16 17  1  0
 16 10  2  0
 17 12  2  0
 18 11  1  0
 19  9  1  0
 21 23  2  0
 22 21  1  0
 24 22  1  0
 25 34  2  0
 25 30  1  0
 26 22  1  0
 26 30  1  0
 27 26  1  0
 28 29  1  0
 28 27  1  0
 29 25  1  0
 30 31  2  0
 31 32  1  0
 33 32  2  0
 34 33  1  0
 35  9  1  0
 35 40  1  0
 35 36  1  0
 36 39  1  1
 36 37  1  0
 38 36  1  0
 40 43  1  0
 41 40  1  0
 41 45  1  0
 42 41  2  0
 45 44  1  0
 45 47  1  0
 47 48  1  0
 47 46  1  0
 49 53  1  0
 50 52  1  0
 50 49  1  0
 51 49  2  0
 53 62  1  0
 54 62  1  0
 55 60  1  0
 56 57  1  0
 56 55  1  0
 58 57  1  0
 58 67  1  0
 58 59  1  0
 60 54  1  0
 60 59  1  0
 61 54  2  0
 62 63  1  0
 64 65  2  0
 65 84  1  0
 66 65  1  0
 66 69  1  0
 67 68  1  0
 67 64  1  0
 68 66  2  0
 69 70  1  0
 70 71  2  0
 72 75  1  0
 72 71  1  0
 73 72  2  0
 74 73  1  0
 74 69  2  0
 75 76  1  0
 76 77  1  0
 77 78  2  0
 79 78  1  0
 79 83  1  0
 80 79  2  0
 81 76  2  0
 81 80  1  0
 82 81  1  0
 84 85  1  0
 85 88  1  0
 85 87  1  0
 86 84  2  0
 89 64  1  0
 89 90  1  0
 91 89  1  0
 92 93  1  0
 94 93  1  0
 94 95  1  0
 96 99  1  0
 96 98  1  0
 97 96  2  0
 98103  1  0
 99 95  1  0
100 97  1  0
101 97  1  0
102 98  1  0
104 99  1  0
M  ISO  4   7 101   8 101  54 100  62 100
M  END
>  <TORSDO>  (37) 
F 26

>  <SCORE>  (37) 
-10.095

>  <name>  (37) 
38

>  <ligand_id>  (37) 
38

>  <original_smiles>  (37) 
[H]c1c([H])c([H])c2c(c1[H])C([H])([H])C([H])([H])C([H])([H])C2([H])N([H])C(=O)C1([H])N(C(=O)C([H])(N([H])C(=O)C([H])(N([H])C([H])([H])[H])C([H])([H])[H])C(C([H])([H])[H])(C([H])([H])[H])C([H])([H])[H])C([H])([H])c2c([H])c(OC([H])([H])C([H])([H])N([H])C(=O)C([H])(N([H])C(=O)C([H])([H])N([H])C(=O)N3C([H])([H])C([H])([H])C([H])([H])C([H])(n4nc(-c5c([H])c([H])c(Oc6c([H])c([H])c(F)c([H])c6F)c([H])c5[H])c(C(=O)N([H])[H])c4N([H])[H])C3([H])[H])C([H])([H])C([H])([H])C([H])([H])C([H])([H])N([H])C(N([H])[H])=[N+]([H])[H])c([H])c([H])c2C1([H])[H]

>  <smiles>  (37) 
[H]c1c([H])c([H])c2c(c1[H])C([H])([H])C([H])([H])C([H])([H])C2([H])N([H])C(=O)C1([H])N(C(=O)C([H])(N([H])C(=O)C([H])(N([H])C([H])([H])[H])C([H])([H])[H])C(C([H])([H])[H])(C([H])([H])[H])C([H])([H])[H])C([H])([H])c2c([H])c(OC([H])([H])C([H])([H])N([H])C(=O)C([H])(N([H])C(=O)C([H])([H])N([H])C(=O)N3C([H])([H])C([H])([H])C([H])([H])C([H])(n4nc(-c5c([H])c([H])c(Oc6c([H])c([H])c(F)c([H])c6F)c([H])c5[H])c(C(=O)N([H])[H])c4N([H])[H])C3([H])[H])C([H])([H])C([H])([H])C([H])([H])C([H])([H])N([H])C(N([H])[H])=[N+]([H])[H])c([H])c([H])c2C1([H])[H]

$$$$
39:0:0
     RDKit          3D

 87 94  0  0  1  0  0  0  0  0999 V2000
  -28.3110  -23.2760   20.0920 C   0  0  0  0  0  0  0  0  0  0  0  0
  -29.0070  -22.1170   20.5630 N   0  0  0  0  0  0  0  0  0  0  0  0
  -27.5820  -23.1400   19.1070 O   0  0  0  0  0  0  0  0  0  0  0  0
  -29.6790  -22.3740   21.2750 H   0  0  0  0  0  0  0  0  0  0  0  0
  -28.2670  -24.7740   20.8440 C   0  0  0  0  0  2  0  0  0  0  0  0
  -28.2800  -26.1780   20.1540 O   0  0  0  0  0  0  0  0  0  0  0  0
  -24.6030  -31.8650   23.2170 C   0  0  0  0  0  0  0  0  0  0  0  0
  -27.2030  -27.1400   20.2120 C   0  0  0  0  0  0  0  0  0  0  0  0
  -23.4120  -30.4640   21.5750 C   0  0  0  0  0  3  0  0  0  0  0  0
  -24.8690  -28.8810   20.1670 C   0  0  0  0  0  0  0  0  0  0  0  0
  -25.9670  -30.7340   21.4180 C   0  0  0  0  0  2  0  0  0  0  0  0
  -26.0470  -29.3350   20.7740 C   0  0  0  0  0  0  0  0  0  0  0  0
  -27.2180  -28.4830   20.7720 C   0  0  0  0  0  3  0  0  0  0  0  0
  -25.9960  -26.7820   19.5800 C   0  0  0  0  0  3  0  0  0  0  0  0
  -24.8560  -27.6170   19.5540 C   0  0  0  0  0  3  0  0  0  0  0  0
  -23.6420  -29.7800   20.2010 C   0  0  0  0  0  2  0  0  0  0  0  0
  -24.6810  -31.0440   22.1250 N   0  0  0  0  0  0  0  0  0  0  0  0
  -23.5140  -32.1470   23.7420 O   0  0  0  0  0  0  0  0  0  0  0  0
  -22.7320  -29.4580   22.5380 C   0  0  0  0  0  0  0  0  0  0  0  0
  -21.4040  -29.2890   22.4100 N   0  0  0  0  0  0  0  0  0  0  0  0
  -23.4020  -28.8320   23.3630 O   0  0  0  0  0  0  0  0  0  0  0  0
  -20.9190  -29.8450   21.7190 H   0  0  0  0  0  0  0  0  0  0  0  0
  -18.0210  -28.0890   22.9130 C   0  0  0  0  0  0  0  0  0  0  0  0
  -20.5810  -28.3510   23.1790 C   0  0  0  0  0  3  0  0  0  0  0  0
  -20.6820  -26.9200   22.6030 C   0  0  0  0  0  2  0  0  0  0  0  0
  -19.5790  -26.5980   21.5870 C   0  0  0  0  0  2  0  0  0  0  0  0
  -18.1980  -26.7420   22.2320 C   0  0  0  0  0  2  0  0  0  0  0  0
  -19.1400  -28.8510   23.3430 C   0  0  0  0  0  0  0  0  0  0  0  0
  -18.9210  -30.1120   23.9400 C   0  0  0  0  0  3  0  0  0  0  0  0
  -17.6150  -30.6090   24.1110 C   0  0  0  0  0  3  0  0  0  0  0  0
  -16.5120  -29.8460   23.6950 C   0  0  0  0  0  3  0  0  0  0  0  0
  -16.7150  -28.5870   23.1020 C   0  0  0  0  0  3  0  0  0  0  0  0
  -25.8770  -32.5050   23.8490 C   0  0  0  0  0  3  0  0  0  0  0  0
  -26.3810  -31.7420   25.1360 C   0  0  1  0  0  0  0  0  0  0  0  0
  -25.2780  -31.5130   26.1960 C   0  0  0  0  0  1  0  0  0  0  0  0
  -26.9660  -30.3600   24.7630 C   0  0  0  0  0  1  0  0  0  0  0  0
  -27.5270  -32.5390   25.8030 C   0  0  0  0  0  1  0  0  0  0  0  0
  -25.5600  -33.9050   24.1770 N   0  0  0  0  0  0  0  0  0  0  0  0
  -25.9010  -34.9620   23.4280 C   0  0  0  0  0  0  0  0  0  0  0  0
  -26.5800  -34.8620   22.4040 O   0  0  0  0  0  0  0  0  0  0  0  0
  -24.9560  -34.0560   24.9720 H   0  0  0  0  0  0  0  0  0  0  0  0
  -24.1830  -36.7660   23.0620 C   0  0  0  0  0  1  0  0  0  0  0  0
  -25.4130  -36.3500   23.8870 C   0  0  0  0  0  3  0  0  0  0  0  0
  -27.5380  -37.2270   24.7520 C   0  0  0  0  0  1  0  0  0  0  0  0
  -26.4500  -37.4010   23.7940 N   0  0  0  0  0  0  0  0  0  0  0  0
  -26.0450  -38.3220   23.9380 H   0  0  0  0  0  0  0  0  0  0  0  0
  -28.6960  -20.5470   20.6100 C   0  0  0  0  0  2  0  0  0  0  0  0
  -29.5680  -19.2010   20.0200 C   0  0  0  0  0  2  0  0  0  0  0  0
  -29.8840  -17.7260   20.8270 C   0  0  0  0  0  2  0  0  0  0  0  0
  -30.4980  -15.0290   20.2720 C   0  0  0  0  0  0  0  0  0  0  0  0
  -30.3980  -12.6750   19.2990 C   0  0  0  0  0  2  0  0  0  0  0  0
  -29.4540  -12.6090   18.0760 C   0  0  0  0  0  2  0  0  0  0  0  0
  -27.9940  -12.3890   18.5200 C   0  0  0  0  0  2  0  0  0  0  0  0
  -27.5870  -13.3150   19.6960 C   0  0  0  0  0  3  0  0  0  0  0  0
  -28.6500  -13.3350   20.8120 C   0  0  0  0  0  2  0  0  0  0  0  0
  -29.9060  -13.7670   20.1860 N   0  0  0  0  0  0  0  0  0  0  0  0
  -31.7180  -15.0890   20.0840 O   0  0  0  0  0  0  0  0  0  0  0  0
  -29.6930  -16.2100   20.3600 N   0  0  0  0  0  0  0  0  0  0  0  0
  -28.7160  -15.9650   20.3060 H   0  0  0  0  0  0  0  0  0  0  0  0
  -25.2080  -13.8900   20.4400 C   0  0  0  0  0  0  0  0  0  0  0  0
  -24.1470  -13.1130   20.8160 C   0  0  0  0  0  0  0  0  0  0  0  0
  -24.6170  -11.7640   20.7940 C   0  0  0  0  0  0  0  0  0  0  0  0
  -26.2540  -13.0130   20.2030 N   0  0  0  0  0  0  0  0  0  0  0  0
  -25.9090  -11.7290   20.4840 N   0  0  0  0  0  0  0  0  0  0  0  0
  -23.8950  -10.5000   20.9900 C   0  0  0  0  0  0  0  0  0  0  0  0
  -24.3240   -9.5420   21.9360 C   0  0  0  0  0  3  0  0  0  0  0  0
  -23.6000   -8.3450   22.1200 C   0  0  0  0  0  3  0  0  0  0  0  0
  -22.4330   -8.0960   21.3600 C   0  0  0  0  0  0  0  0  0  0  0  0
  -22.0230   -9.0420   20.4040 C   0  0  0  0  0  3  0  0  0  0  0  0
  -22.7480  -10.2310   20.2170 C   0  0  0  0  0  3  0  0  0  0  0  0
  -21.6800   -6.9500   21.4530 O   0  0  0  0  0  0  0  0  0  0  0  0
  -21.6230   -6.2200   22.6130 C   0  0  0  0  0  0  0  0  0  0  0  0
  -21.1780   -6.7850   23.8280 C   0  0  0  0  0  3  0  0  0  0  0  0
  -21.0690   -5.9810   24.9790 C   0  0  0  0  0  3  0  0  0  0  0  0
  -21.3920   -4.6130   24.9180 C   0  0  0  0  0  0  0  0  0  0  0  0
  -21.8300   -4.0470   23.7070 C   0  0  0  0  0  3  0  0  0  0  0  0
  -21.9410   -4.8480   22.5570 C   0  0  0  0  0  0  0  0  0  0  0  0
  -22.3430   -4.2930   21.3880 F   0  0  0  0  0  0  0  0  0  0  0  0
  -21.2800   -3.8370   26.0210 F   0  0  0  0  0  0  0  0  0  0  0  0
  -22.7480  -13.5860   21.0790 C   0  0  0  0  0  0  0  0  0  0  0  0
  -22.0190  -12.8930   21.9460 N   0  0  0  0  0  0  0  0  0  0  0  0
  -22.3100  -14.6090   20.5520 O   0  0  0  0  0  0  0  0  0  0  0  0
  -22.3860  -12.0670   22.3940 H   0  0  0  0  0  0  0  0  0  0  0  0
  -21.0790  -13.1920   22.1650 H   0  0  0  0  0  0  0  0  0  0  0  0
  -25.3630  -15.2600   20.2520 N   0  0  0  0  0  0  0  0  0  0  0  0
  -24.5870  -15.9040   20.3560 H   0  0  0  0  0  0  0  0  0  0  0  0
  -26.1930  -15.7010   19.8800 H   0  0  0  0  0  0  0  0  0  0  0  0
  1  2  1  0
  1  5  1  0
  2 47  1  0
  2  4  1  0
  3  1  2  0
  6  8  1  0
  6  5  1  0
  7 18  2  0
  8 13  1  0
  9 17  1  0
  9 19  1  0
 10 16  1  0
 10 12  1  0
 11 17  1  0
 12 11  1  0
 13 12  2  0
 14  8  2  0
 15 14  1  0
 15 10  2  0
 16  9  1  0
 17  7  1  0
 19 21  2  0
 20 19  1  0
 22 20  1  0
 23 32  2  0
 23 28  1  0
 24 20  1  0
 24 28  1  0
 25 24  1  0
 26 27  1  0
 26 25  1  0
 27 23  1  0
 28 29  2  0
 29 30  1  0
 31 30  2  0
 32 31  1  0
 33  7  1  0
 33 38  1  0
 33 34  1  0
 34 37  1  1
 34 35  1  0
 36 34  1  0
 38 41  1  0
 39 43  1  0
 39 38  1  0
 40 39  2  0
 43 42  1  0
 45 43  1  0
 45 46  1  0
 45 44  1  0
 48 47  1  0
 48 49  1  0
 50 58  1  0
 51 56  1  0
 52 53  1  0
 52 51  1  0
 54 53  1  0
 54 63  1  0
 54 55  1  0
 56 50  1  0
 56 55  1  0
 57 50  2  0
 58 49  1  0
 59 58  1  0
 60 61  2  0
 61 80  1  0
 62 61  1  0
 62 65  1  0
 63 60  1  0
 63 64  1  0
 64 62  2  0
 65 66  1  0
 66 67  2  0
 68 71  1  0
 68 67  1  0
 69 68  2  0
 70 69  1  0
 70 65  2  0
 71 72  1  0
 72 73  1  0
 73 74  2  0
 75 74  1  0
 75 79  1  0
 76 75  2  0
 77 72  2  0
 77 76  1  0
 78 77  1  0
 80 81  1  0
 81 84  1  0
 81 83  1  0
 82 80  2  0
 85 86  1  0
 85 60  1  0
 87 85  1  0
M  ISO  4   5 101   6 101  50 100  58 100
M  END
>  <TORSDO>  (38) 
F 20

>  <SCORE>  (38) 
-14.819

>  <name>  (38) 
39

>  <ligand_id>  (38) 
39

>  <original_smiles>  (38) 
[H]c1c([H])c([H])c2c(c1[H])C([H])([H])C([H])([H])C([H])([H])C2([H])N([H])C(=O)C1([H])N(C(=O)C([H])(N([H])C(=O)C([H])(N([H])C([H])([H])[H])C([H])([H])[H])C(C([H])([H])[H])(C([H])([H])[H])C([H])([H])[H])C([H])([H])c2c([H])c(OC([H])([H])C(=O)N([H])C([H])([H])C([H])([H])C([H])([H])N([H])C(=O)N3C([H])([H])C([H])([H])C([H])([H])C([H])(n4nc(-c5c([H])c([H])c(Oc6c([H])c([H])c(F)c([H])c6F)c([H])c5[H])c(C(=O)N([H])[H])c4N([H])[H])C3([H])[H])c([H])c([H])c2C1([H])[H]

>  <smiles>  (38) 
[H]c1c([H])c([H])c2c(c1[H])C([H])([H])C([H])([H])C([H])([H])C2([H])N([H])C(=O)C1([H])N(C(=O)C([H])(N([H])C(=O)C([H])(N([H])C([H])([H])[H])C([H])([H])[H])C(C([H])([H])[H])(C([H])([H])[H])C([H])([H])[H])C([H])([H])c2c([H])c(OC([H])([H])C(=O)N([H])C([H])([H])C([H])([H])C([H])([H])N([H])C(=O)N3C([H])([H])C([H])([H])C([H])([H])C([H])(n4nc(-c5c([H])c([H])c(Oc6c([H])c([H])c(F)c([H])c6F)c([H])c5[H])c(C(=O)N([H])[H])c4N([H])[H])C3([H])[H])c([H])c([H])c2C1([H])[H]

$$$$
40:0:0
     RDKit          3D

 88 95  0  0  1  0  0  0  0  0999 V2000
  -29.2880  -19.8860   20.5380 C   0  0  0  0  0  0  0  0  0  0  0  0
  -29.0990  -21.2580   19.9850 N   0  0  0  0  0  0  0  0  0  0  0  0
  -29.0310  -19.7770   21.7360 O   0  0  0  0  0  0  0  0  0  0  0  0
  -29.2710  -21.2690   18.9880 H   0  0  0  0  0  0  0  0  0  0  0  0
  -28.8500  -22.8190   20.5720 C   0  0  0  0  0  3  0  0  0  0  0  0
  -28.1330  -24.3590   19.9210 C   0  0  0  0  0  3  0  0  0  0  0  0
  -28.2130  -25.9750   20.3130 O   0  0  0  0  0  0  0  0  0  0  0  0
  -24.6160  -31.9480   23.2250 C   0  0  0  0  0  0  0  0  0  0  0  0
  -27.1950  -27.0690   20.2100 C   0  0  0  0  0  0  0  0  0  0  0  0
  -23.4270  -30.5420   21.5930 C   0  0  0  0  0  3  0  0  0  0  0  0
  -24.8830  -28.9420   20.1640 C   0  0  0  0  0  0  0  0  0  0  0  0
  -25.9920  -30.7640   21.4410 C   0  0  0  0  0  2  0  0  0  0  0  0
  -26.0690  -29.3530   20.7860 C   0  0  0  0  0  0  0  0  0  0  0  0
  -27.2160  -28.4360   20.7850 C   0  0  0  0  0  3  0  0  0  0  0  0
  -25.9820  -26.8170   19.5290 C   0  0  0  0  0  3  0  0  0  0  0  0
  -24.8650  -27.6960   19.5160 C   0  0  0  0  0  3  0  0  0  0  0  0
  -23.6580  -29.8570   20.2160 C   0  0  0  0  0  2  0  0  0  0  0  0
  -24.7010  -31.1130   22.1400 N   0  0  0  0  0  0  0  0  0  0  0  0
  -23.5260  -32.2320   23.7490 O   0  0  0  0  0  0  0  0  0  0  0  0
  -22.7400  -29.5440   22.5620 C   0  0  0  0  0  0  0  0  0  0  0  0
  -21.4110  -29.3700   22.4400 N   0  0  0  0  0  0  0  0  0  0  0  0
  -23.4120  -28.9280   23.3930 O   0  0  0  0  0  0  0  0  0  0  0  0
  -20.9230  -29.9200   21.7470 H   0  0  0  0  0  0  0  0  0  0  0  0
  -18.0390  -28.1330   22.9550 C   0  0  0  0  0  0  0  0  0  0  0  0
  -20.5970  -28.4280   23.2160 C   0  0  0  0  0  3  0  0  0  0  0  0
  -20.7130  -26.9950   22.6480 C   0  0  0  0  0  2  0  0  0  0  0  0
  -19.6140  -26.6560   21.6350 C   0  0  0  0  0  2  0  0  0  0  0  0
  -18.2310  -26.7850   22.2800 C   0  0  0  0  0  2  0  0  0  0  0  0
  -19.1500  -28.9110   23.3790 C   0  0  0  0  0  0  0  0  0  0  0  0
  -18.9140  -30.1690   23.9740 C   0  0  0  0  0  3  0  0  0  0  0  0
  -17.6020  -30.6500   24.1470 C   0  0  0  0  0  3  0  0  0  0  0  0
  -16.5070  -29.8700   23.7360 C   0  0  0  0  0  3  0  0  0  0  0  0
  -16.7270  -28.6140   23.1450 C   0  0  0  0  0  3  0  0  0  0  0  0
  -25.8850  -32.6010   23.8540 C   0  0  0  0  0  3  0  0  0  0  0  0
  -26.3750  -31.8640   25.1630 C   0  0  1  0  0  0  0  0  0  0  0  0
  -25.2640  -31.6590   26.2190 C   0  0  0  0  0  1  0  0  0  0  0  0
  -26.9620  -30.4750   24.8280 C   0  0  0  0  0  1  0  0  0  0  0  0
  -27.5170  -32.6740   25.8220 C   0  0  0  0  0  1  0  0  0  0  0  0
  -25.5680  -34.0080   24.1580 N   0  0  0  0  0  0  0  0  0  0  0  0
  -25.9060  -35.0550   23.3920 C   0  0  0  0  0  0  0  0  0  0  0  0
  -26.5780  -34.9370   22.3650 O   0  0  0  0  0  0  0  0  0  0  0  0
  -24.9690  -34.1730   24.9520 H   0  0  0  0  0  0  0  0  0  0  0  0
  -24.1920  -36.8610   23.0110 C   0  0  0  0  0  1  0  0  0  0  0  0
  -25.4250  -36.4530   23.8330 C   0  0  0  0  0  3  0  0  0  0  0  0
  -27.5530  -37.3460   24.6760 C   0  0  0  0  0  1  0  0  0  0  0  0
  -26.4640  -37.5000   23.7150 N   0  0  0  0  0  0  0  0  0  0  0  0
  -26.0610  -38.4250   23.8380 H   0  0  0  0  0  0  0  0  0  0  0  0
  -29.8680  -18.3760   19.8260 C   0  0  0  0  0  0  0  0  0  0  0  0
  -30.5140  -15.4780   20.0660 C   0  0  0  0  0  0  0  0  0  0  0  0
  -30.4640  -13.0340   19.1810 C   0  0  0  0  0  2  0  0  0  0  0  0
  -29.5040  -12.8410   17.9780 C   0  0  0  0  0  2  0  0  0  0  0  0
  -28.0730  -12.5580   18.4650 C   0  0  0  0  0  2  0  0  0  0  0  0
  -27.6610  -13.5070   19.6180 C   0  0  0  0  0  3  0  0  0  0  0  0
  -28.7450  -13.6460   20.7080 C   0  0  0  0  0  2  0  0  0  0  0  0
  -29.9540  -14.1650   20.0440 N   0  0  0  0  0  0  0  0  0  0  0  0
  -31.7110  -15.4820   19.7430 O   0  0  0  0  0  0  0  0  0  0  0  0
  -29.7520  -16.7470   20.2330 N   0  0  0  0  0  4  0  0  0  0  0  0
  -28.8250  -16.5470   20.5780 H   0  0  0  0  0  0  0  0  0  0  0  0
  -25.3160  -14.0470   20.4560 C   0  0  0  0  0  0  0  0  0  0  0  0
  -24.2700  -13.2620   20.8540 C   0  0  0  0  0  0  0  0  0  0  0  0
  -24.7410  -11.9140   20.7930 C   0  0  0  0  0  0  0  0  0  0  0  0
  -26.3520  -13.1790   20.1680 N   0  0  0  0  0  0  0  0  0  0  0  0
  -26.0210  -11.8890   20.4390 N   0  0  0  0  0  0  0  0  0  0  0  0
  -24.0240  -10.6470   20.9950 C   0  0  0  0  0  0  0  0  0  0  0  0
  -24.4670   -9.6860   21.9300 C   0  0  0  0  0  3  0  0  0  0  0  0
  -23.7460   -8.4870   22.1200 C   0  0  0  0  0  3  0  0  0  0  0  0
  -22.5690   -8.2400   21.3750 C   0  0  0  0  0  0  0  0  0  0  0  0
  -22.1430   -9.1900   20.4310 C   0  0  0  0  0  3  0  0  0  0  0  0
  -22.8650  -10.3810   20.2380 C   0  0  0  0  0  3  0  0  0  0  0  0
  -21.8190   -7.0920   21.4760 O   0  0  0  0  0  0  0  0  0  0  0  0
  -21.7600   -6.3710   22.6410 C   0  0  0  0  0  0  0  0  0  0  0  0
  -21.2720   -6.9310   23.8410 C   0  0  0  0  0  3  0  0  0  0  0  0
  -21.1630   -6.1330   24.9970 C   0  0  0  0  0  3  0  0  0  0  0  0
  -21.5320   -4.7750   24.9540 C   0  0  0  0  0  0  0  0  0  0  0  0
  -22.0140   -4.2150   23.7590 C   0  0  0  0  0  3  0  0  0  0  0  0
  -22.1240   -5.0100   22.6050 C   0  0  0  0  0  0  0  0  0  0  0  0
  -22.5680   -4.4580   21.4500 F   0  0  0  0  0  0  0  0  0  0  0  0
  -21.4210   -4.0070   26.0640 F   0  0  0  0  0  0  0  0  0  0  0  0
  -22.8810  -13.7330   21.1710 C   0  0  0  0  0  0  0  0  0  0  0  0
  -22.1800  -13.0230   22.0480 N   0  0  0  0  0  0  0  0  0  0  0  0
  -22.4280  -14.7650   20.6770 O   0  0  0  0  0  0  0  0  0  0  0  0
  -22.5590  -12.1880   22.4690 H   0  0  0  0  0  0  0  0  0  0  0  0
  -21.2500  -13.3220   22.3060 H   0  0  0  0  0  0  0  0  0  0  0  0
  -25.4650  -15.4190   20.2840 N   0  0  0  0  0  0  0  0  0  0  0  0
  -24.6940  -16.0640   20.4210 H   0  0  0  0  0  0  0  0  0  0  0  0
  -26.2850  -15.8640   19.8940 H   0  0  0  0  0  0  0  0  0  0  0  0
  -28.2470  -18.1710   17.8390 C   0  0  0  0  0  1  0  0  0  0  0  0
  -29.6890  -18.4430   18.2970 C   0  0  0  0  0  2  0  0  0  0  0  0
  1  3  2  0
  2  1  1  0
  2  5  1  0
  4  2  1  0
  6  7  1  0
  6  5  2  0
  8 19  2  0
  9  7  1  0
  9 14  1  0
 10 18  1  0
 10 20  1  0
 11 17  1  0
 11 13  1  0
 12 18  1  0
 13 12  1  0
 14 13  2  0
 15  9  2  0
 16 15  1  0
 16 11  2  0
 17 10  1  0
 18  8  1  0
 20 22  2  0
 21 20  1  0
 23 21  1  0
 24 33  2  0
 24 29  1  0
 25 21  1  0
 25 29  1  0
 26 25  1  0
 27 28  1  0
 27 26  1  0
 28 24  1  0
 29 30  2  0
 30 31  1  0
 32 31  2  0
 33 32  1  0
 34  8  1  0
 34 39  1  0
 34 35  1  0
 35 38  1  1
 35 36  1  0
 37 35  1  0
 39 42  1  0
 40 44  1  0
 40 39  1  0
 41 40  2  0
 44 43  1  0
 46 44  1  0
 46 47  1  0
 46 45  1  0
 48 57  2  0
 48  1  1  0
 49 57  1  0
 50 55  1  0
 51 52  1  0
 51 50  1  0
 53 52  1  0
 53 62  1  0
 53 54  1  0
 55 49  1  0
 55 54  1  0
 56 49  2  0
 57 58  1  0
 59 60  2  0
 60 79  1  0
 61 60  1  0
 61 64  1  0
 62 63  1  0
 62 59  1  0
 63 61  2  0
 64 65  1  0
 65 66  2  0
 67 70  1  0
 67 66  1  0
 68 67  2  0
 69 68  1  0
 69 64  2  0
 70 71  1  0
 71 72  1  0
 72 73  2  0
 74 73  1  0
 74 78  1  0
 75 74  2  0
 76 71  2  0
 76 75  1  0
 77 76  1  0
 79 80  1  0
 80 83  1  0
 80 82  1  0
 81 79  2  0
 84 85  1  0
 84 59  1  0
 86 84  1  0
 87 88  1  0
 88 48  1  0
M  ISO  4   6 101   7 101  49 100  57 100
M  END
>  <TORSDO>  (39) 
F 20

>  <SCORE>  (39) 
-15.702

>  <name>  (39) 
40

>  <ligand_id>  (39) 
40

>  <original_smiles>  (39) 
[H]c1c([H])c([H])c2c(c1[H])C([H])([H])C([H])([H])C([H])([H])C2([H])N([H])C(=O)C1([H])N(C(=O)C([H])(N([H])C(=O)C([H])(N([H])C([H])([H])[H])C([H])([H])[H])C(C([H])([H])[H])(C([H])([H])[H])C([H])([H])[H])C([H])([H])c2c([H])c(OC([H])([H])C([H])([H])N([H])C(=O)C([H])(N([H])C(=O)N3C([H])([H])C([H])([H])C([H])([H])C([H])(n4nc(-c5c([H])c([H])c(Oc6c([H])c([H])c(F)c([H])c6F)c([H])c5[H])c(C(=O)N([H])[H])c4N([H])[H])C3([H])[H])C([H])([H])C([H])([H])[H])c([H])c([H])c2C1([H])[H]

>  <smiles>  (39) 
[H]c1c([H])c([H])c2c(c1[H])C([H])([H])C([H])([H])C([H])([H])C2([H])N([H])C(=O)C1([H])N(C(=O)C([H])(N([H])C(=O)C([H])(N([H])C([H])([H])[H])C([H])([H])[H])C(C([H])([H])[H])(C([H])([H])[H])C([H])([H])[H])C([H])([H])c2c([H])c(OC([H])([H])C([H])([H])N([H])C(=O)C([H])(N([H])C(=O)N3C([H])([H])C([H])([H])C([H])([H])C([H])(n4nc(-c5c([H])c([H])c(Oc6c([H])c([H])c(F)c([H])c6F)c([H])c5[H])c(C(=O)N([H])[H])c4N([H])[H])C3([H])[H])C([H])([H])C([H])([H])[H])c([H])c([H])c2C1([H])[H]

$$$$
41:0:0
     RDKit          3D

 95102  0  0  1  0  0  0  0  0999 V2000
  -29.4800  -20.6020   21.1630 C   0  0  0  0  0  2  0  0  0  0  0  0
  -30.0550  -18.1480   20.8070 C   0  0  0  0  0  0  0  0  0  0  0  0
  -29.4960  -19.3210   20.4400 N   0  0  0  0  0  0  0  0  0  0  0  0
  -30.6650  -18.0010   21.8670 O   0  0  0  0  0  0  0  0  0  0  0  0
  -29.0160  -19.3160   19.5500 H   0  0  0  0  0  0  0  0  0  0  0  0
  -29.8790  -16.9620   19.8300 C   0  0  0  0  0  0  0  0  0  0  0  0
  -30.6760  -14.5760   20.3790 C   0  0  0  0  0  0  0  0  0  0  0  0
  -30.4280  -12.3860   19.2990 C   0  0  0  0  0  2  0  0  0  0  0  0
  -29.4900  -12.5910   18.0890 C   0  0  0  0  0  2  0  0  0  0  0  0
  -28.0120  -12.4520   18.5100 C   0  0  0  0  0  2  0  0  0  0  0  0
  -27.6640  -13.2890   19.7700 C   0  0  0  0  0  3  0  0  0  0  0  0
  -28.7180  -13.0790   20.8850 C   0  0  0  0  0  2  0  0  0  0  0  0
  -30.0470  -13.3720   20.3220 N   0  0  0  0  0  0  0  0  0  0  0  0
  -31.8590  -14.7270   20.0620 O   0  0  0  0  0  0  0  0  0  0  0  0
  -29.8150  -15.6140   20.4510 N   0  0  0  0  0  4  0  0  0  0  0  0
  -28.8990  -15.3530   20.7780 H   0  0  0  0  0  0  0  0  0  0  0  0
  -25.2630  -13.9020   20.4640 C   0  0  0  0  0  0  0  0  0  0  0  0
  -24.1940  -13.1320   20.8360 C   0  0  0  0  0  0  0  0  0  0  0  0
  -24.6570  -11.7800   20.8190 C   0  0  0  0  0  0  0  0  0  0  0  0
  -26.3090  -13.0190   20.2450 N   0  0  0  0  0  0  0  0  0  0  0  0
  -25.9490  -11.7390   20.5180 N   0  0  0  0  0  0  0  0  0  0  0  0
  -23.9340  -10.5180   21.0160 C   0  0  0  0  0  0  0  0  0  0  0  0
  -24.3670   -9.5560   21.9550 C   0  0  0  0  0  3  0  0  0  0  0  0
  -23.6440   -8.3590   22.1390 C   0  0  0  0  0  3  0  0  0  0  0  0
  -22.4720   -8.1150   21.3840 C   0  0  0  0  0  0  0  0  0  0  0  0
  -22.0570   -9.0650   20.4350 C   0  0  0  0  0  3  0  0  0  0  0  0
  -22.7810  -10.2550   20.2500 C   0  0  0  0  0  3  0  0  0  0  0  0
  -21.7220   -6.9690   21.4770 O   0  0  0  0  0  0  0  0  0  0  0  0
  -21.6770   -6.2280   22.6300 C   0  0  0  0  0  0  0  0  0  0  0  0
  -21.2630   -6.7870   23.8590 C   0  0  0  0  0  3  0  0  0  0  0  0
  -21.1670   -5.9720   25.0050 C   0  0  0  0  0  3  0  0  0  0  0  0
  -21.4740   -4.6020   24.9230 C   0  0  0  0  0  0  0  0  0  0  0  0
  -21.8820   -4.0430   23.7000 C   0  0  0  0  0  3  0  0  0  0  0  0
  -21.9800   -4.8540   22.5560 C   0  0  0  0  0  0  0  0  0  0  0  0
  -22.3540   -4.3060   21.3740 F   0  0  0  0  0  0  0  0  0  0  0  0
  -21.3730   -3.8170   26.0220 F   0  0  0  0  0  0  0  0  0  0  0  0
  -22.7940  -13.6090   21.0950 C   0  0  0  0  0  0  0  0  0  0  0  0
  -22.0620  -12.9220   21.9630 N   0  0  0  0  0  0  0  0  0  0  0  0
  -22.3570  -14.6290   20.5620 O   0  0  0  0  0  0  0  0  0  0  0  0
  -22.4260  -12.0970   22.4180 H   0  0  0  0  0  0  0  0  0  0  0  0
  -21.1220  -13.2260   22.1780 H   0  0  0  0  0  0  0  0  0  0  0  0
  -25.4240  -15.2710   20.2740 N   0  0  0  0  0  0  0  0  0  0  0  0
  -24.6470  -15.9160   20.3630 H   0  0  0  0  0  0  0  0  0  0  0  0
  -26.2570  -15.7080   19.9030 H   0  0  0  0  0  0  0  0  0  0  0  0
  -30.7570  -17.0110   18.5420 C   0  0  0  0  0  2  0  0  0  0  0  0
  -29.2600  -18.4780   17.0590 C   0  0  0  0  0  1  0  0  0  0  0  0
  -31.6980  -18.1740   16.5090 C   0  0  0  0  0  1  0  0  0  0  0  0
  -30.6670  -18.2670   17.6440 C   0  0  0  0  0  3  0  0  0  0  0  0
  -29.4750  -21.8200   20.1900 C   0  0  0  0  0  2  0  0  0  0  0  0
  -28.9640  -24.2790   20.1920 C   0  0  0  0  0  0  0  0  0  0  0  0
  -28.9750  -23.0690   20.7920 N   0  0  0  0  0  0  0  0  0  0  0  0
  -29.4360  -24.4490   19.0650 O   0  0  0  0  0  0  0  0  0  0  0  0
  -28.5660  -23.0080   21.7150 H   0  0  0  0  0  0  0  0  0  0  0  0
  -28.3220  -25.4610   20.9610 C   0  0  0  0  0  2  0  0  0  0  0  0
  -28.4320  -26.7190   20.2520 O   0  0  0  0  0  0  0  0  0  0  0  0
  -24.5900  -31.9360   23.2440 C   0  0  0  0  0  0  0  0  0  0  0  0
  -27.2770  -27.4740   20.2290 C   0  0  0  0  0  0  0  0  0  0  0  0
  -23.4030  -30.5160   21.6010 C   0  0  0  0  0  3  0  0  0  0  0  0
  -24.8770  -28.9750   20.1980 C   0  0  0  0  0  0  0  0  0  0  0  0
  -25.9300  -30.8860   21.4200 C   0  0  0  0  0  2  0  0  0  0  0  0
  -26.0290  -29.5100   20.7910 C   0  0  0  0  0  0  0  0  0  0  0  0
  -27.2350  -28.7680   20.7980 C   0  0  0  0  0  3  0  0  0  0  0  0
  -26.1110  -26.9560   19.6260 C   0  0  0  0  0  3  0  0  0  0  0  0
  -24.9150  -27.6990   19.6090 C   0  0  0  0  0  3  0  0  0  0  0  0
  -23.6280  -29.8280   20.2280 C   0  0  0  0  0  2  0  0  0  0  0  0
  -24.6590  -31.1280   22.1470 N   0  0  0  0  0  0  0  0  0  0  0  0
  -23.5040  -32.2070   23.7730 O   0  0  0  0  0  0  0  0  0  0  0  0
  -22.7490  -29.4990   22.5650 C   0  0  0  0  0  0  0  0  0  0  0  0
  -21.4280  -29.3040   22.4230 N   0  0  0  0  0  0  0  0  0  0  0  0
  -23.4290  -28.8880   23.3930 O   0  0  0  0  0  0  0  0  0  0  0  0
  -20.9420  -29.8510   21.7260 H   0  0  0  0  0  0  0  0  0  0  0  0
  -18.0610  -28.0780   22.8820 C   0  0  0  0  0  0  0  0  0  0  0  0
  -20.6100  -28.3670   23.1920 C   0  0  0  0  0  3  0  0  0  0  0  0
  -20.7380  -26.9310   22.6340 C   0  0  0  0  0  2  0  0  0  0  0  0
  -19.6560  -26.5840   21.6060 C   0  0  0  0  0  2  0  0  0  0  0  0
  -18.2630  -26.7220   22.2270 C   0  0  0  0  0  2  0  0  0  0  0  0
  -19.1640  -28.8570   23.3210 C   0  0  0  0  0  0  0  0  0  0  0  0
  -18.9220  -30.1260   23.8920 C   0  0  0  0  0  3  0  0  0  0  0  0
  -17.6110  -30.6150   24.0300 C   0  0  0  0  0  3  0  0  0  0  0  0
  -16.5210  -29.8330   23.6080 C   0  0  0  0  0  3  0  0  0  0  0  0
  -16.7480  -28.5670   23.0400 C   0  0  0  0  0  3  0  0  0  0  0  0
  -25.8690  -32.5770   23.8690 C   0  0  0  0  0  3  0  0  0  0  0  0
  -25.5520  -33.9760   24.1870 N   0  0  0  0  0  0  0  0  0  0  0  0
  -25.8910  -35.0240   23.4250 C   0  0  0  0  0  0  0  0  0  0  0  0
  -26.5750  -34.9160   22.4030 O   0  0  0  0  0  0  0  0  0  0  0  0
  -24.9450  -34.1340   24.9780 H   0  0  0  0  0  0  0  0  0  0  0  0
  -24.1650  -36.8090   23.0320 C   0  0  0  0  0  1  0  0  0  0  0  0
  -25.3930  -36.4120   23.8670 C   0  0  0  0  0  3  0  0  0  0  0  0
  -27.5130  -37.3050   24.7270 C   0  0  0  0  0  1  0  0  0  0  0  0
  -26.4240  -37.4680   23.7670 N   0  0  0  0  0  0  0  0  0  0  0  0
  -26.0140  -38.3870   23.9060 H   0  0  0  0  0  0  0  0  0  0  0  0
  -26.3830  -31.8150   25.1520 C   0  0  1  0  0  0  0  0  0  0  0  0
  -25.2860  -31.5800   26.2160 C   0  0  0  0  0  1  0  0  0  0  0  0
  -26.9760  -30.4390   24.7700 C   0  0  0  0  0  1  0  0  0  0  0  0
  -27.5250  -32.6200   25.8170 C   0  0  0  0  0  1  0  0  0  0  0  0
  2  4  2  0
  3  2  1  0
  3  1  1  0
  5  3  1  0
  6 15  2  0
  6  2  1  0
  7 15  1  0
  8 13  1  0
  9 10  1  0
  9  8  1  0
 11 10  1  0
 11 20  1  0
 11 12  1  0
 13  7  1  0
 13 12  1  0
 14  7  2  0
 15 16  1  0
 17 18  2  0
 18 37  1  0
 19 18  1  0
 19 22  1  0
 20 17  1  0
 20 21  1  0
 21 19  2  0
 22 23  1  0
 23 24  2  0
 25 28  1  0
 25 24  1  0
 26 25  2  0
 27 26  1  0
 27 22  2  0
 28 29  1  0
 29 30  1  0
 30 31  2  0
 32 31  1  0
 32 36  1  0
 33 32  2  0
 34 29  2  0
 34 33  1  0
 35 34  1  0
 37 38  1  0
 38 41  1  0
 38 40  1  0
 39 37  2  0
 42 43  1  0
 42 17  1  0
 44 42  1  0
 45  6  1  0
 46 48  1  0
 47 48  1  0
 48 45  1  0
 49 51  1  0
 49  1  1  0
 50 51  1  0
 50 54  1  0
 51 53  1  0
 52 50  2  0
 55 54  1  0
 56 67  2  0
 57 55  1  0
 57 62  1  0
 58 66  1  0
 58 68  1  0
 59 65  1  0
 59 61  1  0
 60 66  1  0
 61 62  2  0
 61 60  1  0
 63 57  2  0
 64 63  1  0
 64 59  2  0
 65 58  1  0
 66 56  1  0
 68 70  2  0
 69 68  1  0
 71 69  1  0
 72 81  2  0
 72 77  1  0
 73 69  1  0
 73 77  1  0
 74 73  1  0
 75 76  1  0
 75 74  1  0
 76 72  1  0
 77 78  2  0
 78 79  1  0
 80 79  2  0
 81 80  1  0
 82 56  1  0
 82 83  1  0
 82 92  1  0
 83 86  1  0
 84 88  1  0
 84 83  1  0
 85 84  2  0
 88 87  1  0
 90 88  1  0
 90 91  1  0
 90 89  1  0
 92 95  1  1
 92 93  1  0
 94 92  1  0
M  ISO  4   7 100  15 100  54 101  55 101
M  END
>  <TORSDO>  (40) 
F 23

>  <SCORE>  (40) 
-12.985

>  <name>  (40) 
41

>  <ligand_id>  (40) 
41

>  <original_smiles>  (40) 
[H]c1c([H])c([H])c2c(c1[H])C([H])([H])C([H])([H])C([H])([H])C2([H])N([H])C(=O)C1([H])N(C(=O)C([H])(N([H])C(=O)C([H])(N([H])C([H])([H])[H])C([H])([H])[H])C(C([H])([H])[H])(C([H])([H])[H])C([H])([H])[H])C([H])([H])c2c([H])c(OC([H])([H])C(=O)N([H])C([H])([H])C([H])([H])N([H])C(=O)C([H])(N([H])C(=O)N3C([H])([H])C([H])([H])C([H])([H])C([H])(n4nc(-c5c([H])c([H])c(Oc6c([H])c([H])c(F)c([H])c6F)c([H])c5[H])c(C(=O)N([H])[H])c4N([H])[H])C3([H])[H])C([H])([H])C([H])(C([H])([H])[H])C([H])([H])[H])c([H])c([H])c2C1([H])[H]

>  <smiles>  (40) 
[H]c1c([H])c([H])c2c(c1[H])C([H])([H])C([H])([H])C([H])([H])C2([H])N([H])C(=O)C1([H])N(C(=O)C([H])(N([H])C(=O)C([H])(N([H])C([H])([H])[H])C([H])([H])[H])C(C([H])([H])[H])(C([H])([H])[H])C([H])([H])[H])C([H])([H])c2c([H])c(OC([H])([H])C(=O)N([H])C([H])([H])C([H])([H])N([H])C(=O)C([H])(N([H])C(=O)N3C([H])([H])C([H])([H])C([H])([H])C([H])(n4nc(-c5c([H])c([H])c(Oc6c([H])c([H])c(F)c([H])c6F)c([H])c5[H])c(C(=O)N([H])[H])c4N([H])[H])C3([H])[H])C([H])([H])C([H])(C([H])([H])[H])C([H])([H])[H])c([H])c([H])c2C1([H])[H]

$$$$
42:0:0
     RDKit          3D

 90 97  0  0  1  0  0  0  0  0999 V2000
  -29.2820  -19.9220   19.6460 C   0  0  0  0  0  0  0  0  0  0  0  0
  -29.1970  -21.3090   20.1800 N   0  0  0  0  0  0  0  0  0  0  0  0
  -28.6840  -19.7400   18.5850 O   0  0  0  0  0  0  0  0  0  0  0  0
  -29.6590  -21.3760   21.0770 H   0  0  0  0  0  0  0  0  0  0  0  0
  -28.7250  -22.8350   19.6380 C   0  0  0  0  0  2  0  0  0  0  0  0
  -28.1290  -24.3640   20.4230 C   0  0  0  0  0  2  0  0  0  0  0  0
  -28.2760  -26.0010   20.1760 O   0  0  0  0  0  0  0  0  0  0  0  0
  -24.6370  -31.9240   23.2490 C   0  0  0  0  0  0  0  0  0  0  0  0
  -27.2360  -27.0760   20.2020 C   0  0  0  0  0  0  0  0  0  0  0  0
  -23.4580  -30.5320   21.5970 C   0  0  0  0  0  3  0  0  0  0  0  0
  -24.9210  -28.9440   20.1700 C   0  0  0  0  0  0  0  0  0  0  0  0
  -26.0220  -30.7620   21.4550 C   0  0  0  0  0  2  0  0  0  0  0  0
  -26.1060  -29.3550   20.7910 C   0  0  0  0  0  0  0  0  0  0  0  0
  -27.2610  -28.4450   20.7750 C   0  0  0  0  0  3  0  0  0  0  0  0
  -26.0120  -26.8150   19.5480 C   0  0  0  0  0  3  0  0  0  0  0  0
  -24.8980  -27.6940   19.5280 C   0  0  0  0  0  3  0  0  0  0  0  0
  -23.6980  -29.8590   20.2160 C   0  0  0  0  0  2  0  0  0  0  0  0
  -24.7280  -31.1000   22.1550 N   0  0  0  0  0  0  0  0  0  0  0  0
  -23.5450  -32.2000   23.7700 O   0  0  0  0  0  0  0  0  0  0  0  0
  -22.7690  -29.5240   22.5530 C   0  0  0  0  0  0  0  0  0  0  0  0
  -21.4500  -29.3130   22.3940 N   0  0  0  0  0  0  0  0  0  0  0  0
  -23.4310  -28.9320   23.4090 O   0  0  0  0  0  0  0  0  0  0  0  0
  -20.9670  -29.8430   21.6810 H   0  0  0  0  0  0  0  0  0  0  0  0
  -18.1120  -27.9440   22.7800 C   0  0  0  0  0  0  0  0  0  0  0  0
  -20.6390  -28.3550   23.1540 C   0  0  0  0  0  3  0  0  0  0  0  0
  -20.8430  -26.9150   22.6280 C   0  0  0  0  0  2  0  0  0  0  0  0
  -19.8100  -26.5060   21.5730 C   0  0  0  0  0  2  0  0  0  0  0  0
  -18.3930  -26.5910   22.1470 C   0  0  0  0  0  2  0  0  0  0  0  0
  -19.1670  -28.7790   23.2380 C   0  0  0  0  0  0  0  0  0  0  0  0
  -18.8500  -30.0370   23.7940 C   0  0  0  0  0  3  0  0  0  0  0  0
  -17.5140  -30.4690   23.8870 C   0  0  0  0  0  3  0  0  0  0  0  0
  -16.4740  -29.6330   23.4440 C   0  0  0  0  0  3  0  0  0  0  0  0
  -16.7730  -28.3720   22.8990 C   0  0  0  0  0  3  0  0  0  0  0  0
  -25.9010  -32.5740   23.8900 C   0  0  0  0  0  3  0  0  0  0  0  0
  -25.5880  -33.9830   24.1850 N   0  0  0  0  0  0  0  0  0  0  0  0
  -25.9560  -35.0270   23.4280 C   0  0  0  0  0  0  0  0  0  0  0  0
  -26.6550  -34.9020   22.4210 O   0  0  0  0  0  0  0  0  0  0  0  0
  -24.9680  -34.1520   24.9650 H   0  0  0  0  0  0  0  0  0  0  0  0
  -24.2720  -36.8470   22.9910 C   0  0  0  0  0  1  0  0  0  0  0  0
  -25.4740  -36.4280   23.8540 C   0  0  0  0  0  3  0  0  0  0  0  0
  -27.5820  -37.2970   24.7670 C   0  0  0  0  0  1  0  0  0  0  0  0
  -26.5280  -37.4650   23.7720 N   0  0  0  0  0  0  0  0  0  0  0  0
  -26.1290  -38.3940   23.8860 H   0  0  0  0  0  0  0  0  0  0  0  0
  -26.3730  -31.8400   25.2060 C   0  0  1  0  0  0  0  0  0  0  0  0
  -25.2460  -31.6430   26.2480 C   0  0  0  0  0  1  0  0  0  0  0  0
  -26.9600  -30.4490   24.8820 C   0  0  0  0  0  1  0  0  0  0  0  0
  -27.5110  -32.6470   25.8770 C   0  0  0  0  0  1  0  0  0  0  0  0
  -30.1510  -18.4850   20.1990 C   0  0  0  0  0  0  0  0  0  0  0  0
  -30.7400  -15.5530   20.0310 C   0  0  0  0  0  0  0  0  0  0  0  0
  -30.7460  -13.0490   19.2900 C   0  0  0  0  0  2  0  0  0  0  0  0
  -29.8280  -12.7350   18.0820 C   0  0  0  0  0  2  0  0  0  0  0  0
  -28.3840  -12.4720   18.5470 C   0  0  0  0  0  2  0  0  0  0  0  0
  -27.9200  -13.5040   19.6020 C   0  0  0  0  0  3  0  0  0  0  0  0
  -28.9670  -13.7550   20.7070 C   0  0  0  0  0  2  0  0  0  0  0  0
  -30.1800  -14.2390   20.0280 N   0  0  0  0  0  0  0  0  0  0  0  0
  -31.9710  -15.5390   19.8890 O   0  0  0  0  0  0  0  0  0  0  0  0
  -29.9600  -16.8220   20.0010 N   0  0  0  0  0  4  0  0  0  0  0  0
  -28.9790  -16.6070   19.9250 H   0  0  0  0  0  0  0  0  0  0  0  0
  -25.5700  -14.0940   20.3910 C   0  0  0  0  0  0  0  0  0  0  0  0
  -24.5020  -13.3320   20.7710 C   0  0  0  0  0  0  0  0  0  0  0  0
  -24.9520  -11.9750   20.7380 C   0  0  0  0  0  0  0  0  0  0  0  0
  -26.5980  -13.2050   20.1340 N   0  0  0  0  0  0  0  0  0  0  0  0
  -26.2400  -11.9250   20.4130 N   0  0  0  0  0  0  0  0  0  0  0  0
  -24.2100  -10.7230   20.9350 C   0  0  0  0  0  0  0  0  0  0  0  0
  -24.6070   -9.7690   21.8990 C   0  0  0  0  0  3  0  0  0  0  0  0
  -23.8610   -8.5860   22.0850 C   0  0  0  0  0  3  0  0  0  0  0  0
  -22.7040   -8.3470   21.3060 C   0  0  0  0  0  0  0  0  0  0  0  0
  -22.3250   -9.2890   20.3330 C   0  0  0  0  0  3  0  0  0  0  0  0
  -23.0730  -10.4630   20.1440 C   0  0  0  0  0  3  0  0  0  0  0  0
  -21.9340   -7.2120   21.3970 O   0  0  0  0  0  0  0  0  0  0  0  0
  -21.8160   -6.5160   22.5730 C   0  0  0  0  0  0  0  0  0  0  0  0
  -21.2820   -7.1070   23.7390 C   0  0  0  0  0  3  0  0  0  0  0  0
  -21.1110   -6.3360   24.9050 C   0  0  0  0  0  3  0  0  0  0  0  0
  -21.4700   -4.9740   24.9060 C   0  0  0  0  0  0  0  0  0  0  0  0
  -22.0000   -4.3830   23.7470 C   0  0  0  0  0  3  0  0  0  0  0  0
  -22.1700   -5.1530   22.5820 C   0  0  0  0  0  0  0  0  0  0  0  0
  -22.6610   -4.5720   21.4600 F   0  0  0  0  0  0  0  0  0  0  0  0
  -21.2990   -4.2310   26.0260 F   0  0  0  0  0  0  0  0  0  0  0  0
  -23.1140  -13.8300   21.0460 C   0  0  0  0  0  0  0  0  0  0  0  0
  -22.3790  -13.1510   21.9170 N   0  0  0  0  0  0  0  0  0  0  0  0
  -22.6910  -14.8610   20.5250 O   0  0  0  0  0  0  0  0  0  0  0  0
  -22.7300  -12.3140   22.3570 H   0  0  0  0  0  0  0  0  0  0  0  0
  -21.4510  -13.4770   22.1500 H   0  0  0  0  0  0  0  0  0  0  0  0
  -25.7440  -15.4630   20.2120 N   0  0  0  0  0  0  0  0  0  0  0  0
  -24.9760  -16.1150   20.3240 H   0  0  0  0  0  0  0  0  0  0  0  0
  -26.5770  -15.8980   19.8400 H   0  0  0  0  0  0  0  0  0  0  0  0
  -30.5690  -18.7340   21.6700 C   0  0  0  0  0  2  0  0  0  0  0  0
  -32.9790  -19.5570   21.7880 C   0  0  0  0  0  1  0  0  0  0  0  0
  -31.2210  -20.6910   23.2000 C   0  0  0  0  0  1  0  0  0  0  0  0
  -31.5000  -19.9590   21.8780 C   0  0  0  0  0  3  0  0  0  0  0  0
  1  2  1  0
  1 48  1  0
  2  4  1  0
  3  1  2  0
  5  2  1  0
  5  6  1  0
  7  9  1  0
  7  6  1  0
  8 19  2  0
  9 14  1  0
 10 18  1  0
 10 20  1  0
 11 17  1  0
 11 13  1  0
 12 18  1  0
 13 12  1  0
 14 13  2  0
 15  9  2  0
 16 15  1  0
 16 11  2  0
 17 10  1  0
 18  8  1  0
 20 22  2  0
 21 20  1  0
 23 21  1  0
 24 33  2  0
 24 29  1  0
 25 21  1  0
 25 29  1  0
 26 25  1  0
 27 28  1  0
 27 26  1  0
 28 24  1  0
 29 30  2  0
 30 31  1  0
 32 31  2  0
 33 32  1  0
 34  8  1  0
 34 35  1  0
 34 44  1  0
 35 38  1  0
 36 40  1  0
 36 35  1  0
 37 36  2  0
 40 39  1  0
 42 40  1  0
 42 43  1  0
 42 41  1  0
 44 47  1  1
 44 45  1  0
 46 44  1  0
 48 87  1  0
 50 55  1  0
 51 52  1  0
 51 50  1  0
 53 52  1  0
 53 62  1  0
 53 54  1  0
 55 49  1  0
 55 54  1  0
 56 49  2  0
 57 49  1  0
 57 48  2  0
 58 57  1  0
 59 60  2  0
 60 79  1  0
 61 60  1  0
 61 64  1  0
 62 59  1  0
 62 63  1  0
 63 61  2  0
 64 65  1  0
 65 66  2  0
 67 70  1  0
 67 66  1  0
 68 67  2  0
 69 68  1  0
 69 64  2  0
 70 71  1  0
 71 76  2  0
 71 72  1  0
 72 73  2  0
 73 74  1  0
 74 78  1  0
 75 74  2  0
 76 75  1  0
 77 76  1  0
 79 80  1  0
 80 83  1  0
 80 82  1  0
 81 79  2  0
 84 85  1  0
 84 59  1  0
 86 84  1  0
 87 90  1  0
 88 90  1  0
 90 89  1  0
M  ISO  4   6 101   7 101  49 100  57 100
M  END
>  <TORSDO>  (41) 
F 21

>  <SCORE>  (41) 
-15.820

>  <name>  (41) 
42

>  <ligand_id>  (41) 
42

>  <original_smiles>  (41) 
[H]c1c([H])c([H])c2c(c1[H])C([H])([H])C([H])([H])C([H])([H])C2([H])N([H])C(=O)C1([H])N(C(=O)C([H])(N([H])C(=O)C([H])(N([H])C([H])([H])[H])C([H])([H])[H])C(C([H])([H])[H])(C([H])([H])[H])C([H])([H])[H])C([H])([H])c2c([H])c(OC([H])([H])C([H])([H])N([H])C(=O)C([H])(N([H])C(=O)N3C([H])([H])C([H])([H])C([H])([H])C([H])(n4nc(-c5c([H])c([H])c(Oc6c([H])c([H])c(F)c([H])c6F)c([H])c5[H])c(C(=O)N([H])[H])c4N([H])[H])C3([H])[H])C([H])([H])C([H])(C([H])([H])[H])C([H])([H])[H])c([H])c([H])c2C1([H])[H]

>  <smiles>  (41) 
[H]c1c([H])c([H])c2c(c1[H])C([H])([H])C([H])([H])C([H])([H])C2([H])N([H])C(=O)C1([H])N(C(=O)C([H])(N([H])C(=O)C([H])(N([H])C([H])([H])[H])C([H])([H])[H])C(C([H])([H])[H])(C([H])([H])[H])C([H])([H])[H])C([H])([H])c2c([H])c(OC([H])([H])C([H])([H])N([H])C(=O)C([H])(N([H])C(=O)N3C([H])([H])C([H])([H])C([H])([H])C([H])(n4nc(-c5c([H])c([H])c(Oc6c([H])c([H])c(F)c([H])c6F)c([H])c5[H])c(C(=O)N([H])[H])c4N([H])[H])C3([H])[H])C([H])([H])C([H])(C([H])([H])[H])C([H])([H])[H])c([H])c([H])c2C1([H])[H]

$$$$
43:0:0
     RDKit          3D

 86 94  0  0  1  0  0  0  0  0999 V2000
  -30.3770  -15.6070   20.3200 C   0  0  0  0  0  0  0  0  0  0  0  0
  -30.4040  -13.0870   19.5010 C   0  0  0  0  0  2  0  0  0  0  0  0
  -29.5420  -12.6800   18.2760 C   0  0  0  0  0  2  0  0  0  0  0  0
  -28.1100  -12.3420   18.7120 C   0  0  0  0  0  2  0  0  0  0  0  0
  -27.5810  -13.3570   19.7520 C   0  0  0  0  0  3  0  0  0  0  0  0
  -28.5890  -13.6960   20.8740 C   0  0  0  0  0  2  0  0  0  0  0  0
  -29.7730  -14.2880   20.2120 N   0  0  0  0  0  0  0  0  0  0  0  0
  -31.6120  -15.4520   20.2450 O   0  0  0  0  0  0  0  0  0  0  0  0
  -29.0160  -22.4350   20.1040 C   0  0  0  0  0  0  0  0  0  0  0  0
  -30.2580  -19.9360   19.8540 C   0  0  0  0  0  3  0  0  0  0  0  0
  -28.1710  -19.6040   20.5510 C   0  0  0  0  0  3  0  0  0  0  0  0
  -30.6200  -18.3960   20.5240 C   0  0  0  0  0  3  0  0  0  0  0  0
  -28.4800  -17.8990   20.1820 C   0  0  0  0  0  3  0  0  0  0  0  0
  -29.0490  -20.8750   20.2000 N   0  0  0  0  0  0  0  0  0  0  0  0
  -29.8180  -17.0650   20.3390 N   0  0  0  0  0  0  0  0  0  0  0  0
  -30.1380  -22.8730   19.8290 O   0  0  0  0  0  0  0  0  0  0  0  0
  -25.2020  -13.8750   20.4690 C   0  0  0  0  0  0  0  0  0  0  0  0
  -24.1430  -13.0870   20.8200 C   0  0  0  0  0  0  0  0  0  0  0  0
  -24.6280  -11.7430   20.8120 C   0  0  0  0  0  0  0  0  0  0  0  0
  -26.2590  -13.0130   20.2550 N   0  0  0  0  0  0  0  0  0  0  0  0
  -25.9280  -11.7230   20.5310 N   0  0  0  0  0  0  0  0  0  0  0  0
  -23.9100  -10.4750   20.9960 C   0  0  0  0  0  0  0  0  0  0  0  0
  -24.3230   -9.5220   21.9540 C   0  0  0  0  0  3  0  0  0  0  0  0
  -23.5990   -8.3220   22.1280 C   0  0  0  0  0  3  0  0  0  0  0  0
  -22.4490   -8.0660   21.3450 C   0  0  0  0  0  0  0  0  0  0  0  0
  -22.0560   -9.0060   20.3770 C   0  0  0  0  0  3  0  0  0  0  0  0
  -22.7790  -10.1980   20.2010 C   0  0  0  0  0  3  0  0  0  0  0  0
  -21.7000   -6.9160   21.4270 O   0  0  0  0  0  0  0  0  0  0  0  0
  -21.6150   -6.1930   22.5900 C   0  0  0  0  0  0  0  0  0  0  0  0
  -21.1420   -6.7670   23.7900 C   0  0  0  0  0  3  0  0  0  0  0  0
  -21.0050   -5.9700   24.9450 C   0  0  0  0  0  3  0  0  0  0  0  0
  -21.3310   -4.6020   24.8990 C   0  0  0  0  0  0  0  0  0  0  0  0
  -21.7970   -4.0280   23.7030 C   0  0  0  0  0  3  0  0  0  0  0  0
  -21.9350   -4.8220   22.5510 C   0  0  0  0  0  0  0  0  0  0  0  0
  -22.3640   -4.2580   21.3960 F   0  0  0  0  0  0  0  0  0  0  0  0
  -21.1930   -3.8340   26.0060 F   0  0  0  0  0  0  0  0  0  0  0  0
  -22.7350  -13.5510   21.0430 C   0  0  0  0  0  0  0  0  0  0  0  0
  -21.9930  -12.8650   21.9050 N   0  0  0  0  0  0  0  0  0  0  0  0
  -22.3000  -14.5610   20.4900 O   0  0  0  0  0  0  0  0  0  0  0  0
  -22.3590  -12.0500   22.3750 H   0  0  0  0  0  0  0  0  0  0  0  0
  -21.0470  -13.1590   22.0990 H   0  0  0  0  0  0  0  0  0  0  0  0
  -25.3520  -15.2460   20.2810 N   0  0  0  0  0  0  0  0  0  0  0  0
  -24.5760  -15.8920   20.3690 H   0  0  0  0  0  0  0  0  0  0  0  0
  -26.2040  -15.6890   19.9600 H   0  0  0  0  0  0  0  0  0  0  0  0
  -27.8850  -23.8800   20.2170 C   0  0  0  0  0  2  0  0  0  0  0  0
  -28.1520  -25.6010   20.1730 O   0  0  0  0  0  0  0  0  0  0  0  0
  -24.6680  -31.8490   23.1160 C   0  0  0  0  0  0  0  0  0  0  0  0
  -27.1780  -26.7950   20.1360 C   0  0  0  0  0  0  0  0  0  0  0  0
  -23.4740  -30.4520   21.4830 C   0  0  0  0  0  3  0  0  0  0  0  0
  -24.9130  -28.8050   20.0740 C   0  0  0  0  0  0  0  0  0  0  0  0
  -26.0510  -30.6010   21.3540 C   0  0  0  0  0  2  0  0  0  0  0  0
  -26.1110  -29.1700   20.7020 C   0  0  0  0  0  0  0  0  0  0  0  0
  -27.2310  -28.1930   20.6990 C   0  0  0  0  0  3  0  0  0  0  0  0
  -25.9470  -26.6280   19.4560 C   0  0  0  0  0  3  0  0  0  0  0  0
  -24.8680  -27.5590   19.4270 C   0  0  0  0  0  3  0  0  0  0  0  0
  -23.7080  -29.7550   20.1140 C   0  0  0  0  0  2  0  0  0  0  0  0
  -24.7550  -30.9990   22.0360 N   0  0  0  0  0  0  0  0  0  0  0  0
  -23.5770  -32.1510   23.6290 O   0  0  0  0  0  0  0  0  0  0  0  0
  -22.7590  -29.4750   22.4560 C   0  0  0  0  0  0  0  0  0  0  0  0
  -21.4240  -29.3360   22.3430 N   0  0  0  0  0  0  0  0  0  0  0  0
  -23.4170  -28.8400   23.2830 O   0  0  0  0  0  0  0  0  0  0  0  0
  -20.9440  -29.8980   21.6530 H   0  0  0  0  0  0  0  0  0  0  0  0
  -18.0240  -28.1880   22.9060 C   0  0  0  0  0  0  0  0  0  0  0  0
  -20.5940  -28.4060   23.1190 C   0  0  0  0  0  3  0  0  0  0  0  0
  -20.6550  -26.9790   22.5290 C   0  0  0  0  0  2  0  0  0  0  0  0
  -19.5290  -26.6890   21.5320 C   0  0  0  0  0  2  0  0  0  0  0  0
  -18.1620  -26.8480   22.2050 C   0  0  0  0  0  2  0  0  0  0  0  0
  -19.1640  -28.9280   23.3210 C   0  0  0  0  0  0  0  0  0  0  0  0
  -18.9760  -30.1800   23.9430 C   0  0  0  0  0  3  0  0  0  0  0  0
  -17.6820  -30.6950   24.1500 C   0  0  0  0  0  3  0  0  0  0  0  0
  -16.5560  -29.9540   23.7480 C   0  0  0  0  0  3  0  0  0  0  0  0
  -16.7290  -28.7020   23.1320 C   0  0  0  0  0  3  0  0  0  0  0  0
  -25.9350  -32.4950   23.7540 C   0  0  0  0  0  3  0  0  0  0  0  0
  -25.6090  -33.8890   24.1120 N   0  0  0  0  0  0  0  0  0  0  0  0
  -25.9230  -34.9680   23.3820 C   0  0  0  0  0  0  0  0  0  0  0  0
  -26.5770  -34.8950   22.3400 O   0  0  0  0  0  0  0  0  0  0  0  0
  -25.0240  -34.0180   24.9250 H   0  0  0  0  0  0  0  0  0  0  0  0
  -24.1740  -36.7640   23.1200 C   0  0  0  0  0  1  0  0  0  0  0  0
  -25.4400  -36.3450   23.8860 C   0  0  0  0  0  3  0  0  0  0  0  0
  -27.5910  -37.2330   24.6780 C   0  0  0  0  0  1  0  0  0  0  0  0
  -26.4620  -37.4100   23.7680 N   0  0  0  0  0  0  0  0  0  0  0  0
  -26.0520  -38.3240   23.9450 H   0  0  0  0  0  0  0  0  0  0  0  0
  -26.4480  -31.7200   25.0310 C   0  0  1  0  0  0  0  0  0  0  0  0
  -25.3530  -31.4830   26.0980 C   0  0  0  0  0  1  0  0  0  0  0  0
  -27.0300  -30.3420   24.6480 C   0  0  0  0  0  1  0  0  0  0  0  0
  -27.5990  -32.5110   25.6960 C   0  0  0  0  0  1  0  0  0  0  0  0
  1 15  1  0
  2  7  1  0
  3  4  1  0
  3  2  1  0
  5  4  1  0
  5 20  1  0
  5  6  1  0
  7  1  1  0
  7  6  1  0
  8  1  2  0
  9 14  1  0
  9 45  1  0
 10 14  1  0
 10 12  2  0
 13 15  1  0
 13 11  2  0
 14 11  1  0
 15 12  1  0
 16  9  2  0
 17 18  2  0
 18 37  1  0
 19 18  1  0
 19 22  1  0
 20 17  1  0
 20 21  1  0
 21 19  2  0
 22 23  1  0
 23 24  2  0
 25 28  1  0
 25 24  1  0
 26 25  2  0
 27 26  1  0
 27 22  2  0
 28 29  1  0
 29 30  1  0
 30 31  2  0
 32 31  1  0
 32 36  1  0
 33 32  2  0
 34 29  2  0
 34 33  1  0
 35 34  1  0
 37 38  1  0
 38 41  1  0
 38 40  1  0
 39 37  2  0
 42 43  1  0
 42 17  1  0
 44 42  1  0
 46 45  1  0
 47 58  2  0
 48 46  1  0
 48 53  1  0
 49 57  1  0
 49 59  1  0
 50 56  1  0
 50 52  1  0
 51 57  1  0
 52 51  1  0
 53 52  2  0
 54 48  2  0
 55 54  1  0
 55 50  2  0
 56 49  1  0
 57 47  1  0
 59 61  2  0
 60 59  1  0
 62 60  1  0
 63 72  2  0
 63 68  1  0
 64 60  1  0
 64 68  1  0
 65 64  1  0
 66 67  1  0
 66 65  1  0
 67 63  1  0
 68 69  2  0
 69 70  1  0
 71 70  2  0
 72 71  1  0
 73 47  1  0
 73 74  1  0
 73 83  1  0
 74 77  1  0
 75 79  1  0
 75 74  1  0
 76 75  2  0
 79 78  1  0
 81 79  1  0
 81 82  1  0
 81 80  1  0
 83 86  1  1
 83 84  1  0
 85 83  1  0
M  ISO  4   1 100  15 100  45 101  46 101
M  END
>  <TORSDO>  (42) 
F 16

>  <SCORE>  (42) 
-16.399

>  <name>  (42) 
43

>  <ligand_id>  (42) 
43

>  <original_smiles>  (42) 
[H]c1c([H])c([H])c2c(c1[H])C([H])([H])C([H])([H])C([H])([H])C2([H])N([H])C(=O)C1([H])N(C(=O)C([H])(N([H])C(=O)C([H])(N([H])C([H])([H])[H])C([H])([H])[H])C(C([H])([H])[H])(C([H])([H])[H])C([H])([H])[H])C([H])([H])c2c([H])c(OC([H])([H])C(=O)N3C([H])([H])C([H])([H])N(C(=O)N4C([H])([H])C([H])([H])C([H])([H])C([H])(n5nc(-c6c([H])c([H])c(Oc7c([H])c([H])c(F)c([H])c7F)c([H])c6[H])c(C(=O)N([H])[H])c5N([H])[H])C4([H])[H])C([H])([H])C3([H])[H])c([H])c([H])c2C1([H])[H]

>  <smiles>  (42) 
[H]c1c([H])c([H])c2c(c1[H])C([H])([H])C([H])([H])C([H])([H])C2([H])N([H])C(=O)C1([H])N(C(=O)C([H])(N([H])C(=O)C([H])(N([H])C([H])([H])[H])C([H])([H])[H])C(C([H])([H])[H])(C([H])([H])[H])C([H])([H])[H])C([H])([H])c2c([H])c(OC([H])([H])C(=O)N3C([H])([H])C([H])([H])N(C(=O)N4C([H])([H])C([H])([H])C([H])([H])C([H])(n5nc(-c6c([H])c([H])c(Oc7c([H])c([H])c(F)c([H])c7F)c([H])c6[H])c(C(=O)N([H])[H])c5N([H])[H])C4([H])[H])C([H])([H])C3([H])[H])c([H])c([H])c2C1([H])[H]

$$$$
44:0:0
     RDKit          3D

 98105  0  0  1  0  0  0  0  0999 V2000
  -27.1570  -22.3590   19.3250 C   0  0  0  0  0  0  0  0  0  0  0  0
  -26.0000  -21.8090   18.9580 N   0  0  0  0  0  4  0  0  0  0  0  0
  -27.3840  -23.6330   18.9600 N   0  0  0  0  0  0  0  0  0  0  0  0
  -28.0500  -21.6410   20.0340 N   0  0  0  0  0  0  0  0  0  0  0  0
  -25.7690  -20.8580   19.2030 H   0  0  0  0  0  0  0  0  0  0  0  0
  -25.3090  -22.3130   18.4180 H   0  0  0  0  0  0  0  0  0  0  0  0
  -26.6820  -24.0890   18.3960 H   0  0  0  0  0  0  0  0  0  0  0  0
  -28.8990  -22.0970   20.3370 H   0  0  0  0  0  0  0  0  0  0  0  0
  -28.5550  -24.4890   19.2350 C   0  0  0  0  0  2  0  0  0  0  0  0
  -28.3410  -25.4120   20.4560 C   0  0  0  0  0  2  0  0  0  0  0  0
  -28.4270  -26.8070   20.1250 O   0  0  0  0  0  0  0  0  0  0  0  0
  -24.6010  -31.9070   23.2660 C   0  0  0  0  0  0  0  0  0  0  0  0
  -27.2460  -27.5160   20.1300 C   0  0  0  0  0  0  0  0  0  0  0  0
  -23.3910  -30.5190   21.6150 C   0  0  0  0  0  3  0  0  0  0  0  0
  -24.8430  -29.0010   20.1700 C   0  0  0  0  0  0  0  0  0  0  0  0
  -25.9120  -30.8960   21.4030 C   0  0  0  0  0  2  0  0  0  0  0  0
  -26.0000  -29.5310   20.7510 C   0  0  0  0  0  0  0  0  0  0  0  0
  -27.2070  -28.7970   20.7250 C   0  0  0  0  0  3  0  0  0  0  0  0
  -26.0710  -26.9990   19.5430 C   0  0  0  0  0  3  0  0  0  0  0  0
  -24.8730  -27.7360   19.5600 C   0  0  0  0  0  3  0  0  0  0  0  0
  -23.5930  -29.8510   20.2290 C   0  0  0  0  0  2  0  0  0  0  0  0
  -24.6540  -31.1210   22.1530 N   0  0  0  0  0  0  0  0  0  0  0  0
  -23.5210  -32.1670   23.8160 O   0  0  0  0  0  0  0  0  0  0  0  0
  -22.7490  -29.4850   22.5690 C   0  0  0  0  0  0  0  0  0  0  0  0
  -21.4250  -29.2940   22.4410 N   0  0  0  0  0  0  0  0  0  0  0  0
  -23.4390  -28.8570   23.3750 O   0  0  0  0  0  0  0  0  0  0  0  0
  -20.9300  -29.8520   21.7600 H   0  0  0  0  0  0  0  0  0  0  0  0
  -18.0620  -28.0670   22.9240 C   0  0  0  0  0  0  0  0  0  0  0  0
  -20.6170  -28.3450   23.2050 C   0  0  0  0  0  3  0  0  0  0  0  0
  -20.7340  -26.9180   22.6210 C   0  0  0  0  0  2  0  0  0  0  0  0
  -19.6370  -26.5910   21.6020 C   0  0  0  0  0  2  0  0  0  0  0  0
  -18.2520  -26.7230   22.2420 C   0  0  0  0  0  2  0  0  0  0  0  0
  -19.1730  -28.8360   23.3620 C   0  0  0  0  0  0  0  0  0  0  0  0
  -18.9430  -30.0950   23.9590 C   0  0  0  0  0  3  0  0  0  0  0  0
  -17.6330  -30.5840   24.1240 C   0  0  0  0  0  3  0  0  0  0  0  0
  -16.5360  -29.8130   23.7020 C   0  0  0  0  0  3  0  0  0  0  0  0
  -16.7520  -28.5560   23.1080 C   0  0  0  0  0  3  0  0  0  0  0  0
  -25.8880  -32.5350   23.8870 C   0  0  0  0  0  3  0  0  0  0  0  0
  -25.5890  -33.9390   24.1970 N   0  0  0  0  0  0  0  0  0  0  0  0
  -25.9410  -34.9790   23.4290 C   0  0  0  0  0  0  0  0  0  0  0  0
  -26.6220  -34.8560   22.4060 O   0  0  0  0  0  0  0  0  0  0  0  0
  -24.9900  -34.1110   24.9910 H   0  0  0  0  0  0  0  0  0  0  0  0
  -24.2420  -36.7890   23.0200 C   0  0  0  0  0  1  0  0  0  0  0  0
  -25.4610  -36.3770   23.8620 C   0  0  0  0  0  3  0  0  0  0  0  0
  -27.5840  -37.2460   24.7360 C   0  0  0  0  0  1  0  0  0  0  0  0
  -26.5080  -37.4160   23.7630 N   0  0  0  0  0  0  0  0  0  0  0  0
  -26.1090  -38.3420   23.8910 H   0  0  0  0  0  0  0  0  0  0  0  0
  -26.3960  -31.7740   25.1730 C   0  0  1  0  0  0  0  0  0  0  0  0
  -25.2970  -31.5540   26.2390 C   0  0  0  0  0  1  0  0  0  0  0  0
  -26.9720  -30.3900   24.7940 C   0  0  0  0  0  1  0  0  0  0  0  0
  -27.5490  -32.5680   25.8300 C   0  0  0  0  0  1  0  0  0  0  0  0
  -27.8820  -20.2430   20.4970 C   0  0  0  0  0  2  0  0  0  0  0  0
  -29.2180  -19.4740   20.5390 C   0  0  0  0  0  2  0  0  0  0  0  0
  -29.0460  -17.9460   20.7600 C   0  0  0  0  0  2  0  0  0  0  0  0
  -30.3390  -17.0920   20.6120 C   0  0  0  0  0  3  0  0  0  0  0  0
  -30.8340  -14.6110   20.5480 C   0  0  0  0  0  0  0  0  0  0  0  0
  -30.5580  -12.4840   19.3530 C   0  0  0  0  0  2  0  0  0  0  0  0
  -29.6290  -12.7460   18.1480 C   0  0  0  0  0  2  0  0  0  0  0  0
  -28.1490  -12.5950   18.5540 C   0  0  0  0  0  2  0  0  0  0  0  0
  -27.7990  -13.3800   19.8460 C   0  0  0  0  0  3  0  0  0  0  0  0
  -28.8450  -13.1230   20.9550 C   0  0  0  0  0  2  0  0  0  0  0  0
  -30.1750  -13.4340   20.4060 N   0  0  0  0  0  0  0  0  0  0  0  0
  -32.0110  -14.7700   20.2180 O   0  0  0  0  0  0  0  0  0  0  0  0
  -30.0310  -15.6600   20.8180 N   0  0  0  0  0  0  0  0  0  0  0  0
  -29.0800  -15.4270   21.0520 H   0  0  0  0  0  0  0  0  0  0  0  0
  -25.3800  -13.9580   20.5080 C   0  0  0  0  0  0  0  0  0  0  0  0
  -24.3160  -13.1710   20.8630 C   0  0  0  0  0  0  0  0  0  0  0  0
  -24.8010  -11.8280   20.8480 C   0  0  0  0  0  0  0  0  0  0  0  0
  -26.4420  -13.0920   20.3020 N   0  0  0  0  0  0  0  0  0  0  0  0
  -26.0970  -11.8060   20.5650 N   0  0  0  0  0  0  0  0  0  0  0  0
  -24.0920  -10.5550   21.0310 C   0  0  0  0  0  0  0  0  0  0  0  0
  -24.5150   -9.6030   21.9840 C   0  0  0  0  0  3  0  0  0  0  0  0
  -23.8050   -8.3940   22.1530 C   0  0  0  0  0  3  0  0  0  0  0  0
  -22.6570   -8.1300   21.3680 C   0  0  0  0  0  0  0  0  0  0  0  0
  -22.2540   -9.0710   20.4030 C   0  0  0  0  0  3  0  0  0  0  0  0
  -22.9660  -10.2710   20.2330 C   0  0  0  0  0  3  0  0  0  0  0  0
  -21.9200   -6.9740   21.4460 O   0  0  0  0  0  0  0  0  0  0  0  0
  -21.8340   -6.2510   22.6090 C   0  0  0  0  0  0  0  0  0  0  0  0
  -21.3150   -6.8120   23.7970 C   0  0  0  0  0  3  0  0  0  0  0  0
  -21.1800   -6.0140   24.9510 C   0  0  0  0  0  3  0  0  0  0  0  0
  -21.5530   -4.6560   24.9170 C   0  0  0  0  0  0  0  0  0  0  0  0
  -22.0640   -4.0960   23.7330 C   0  0  0  0  0  3  0  0  0  0  0  0
  -22.2010   -4.8910   22.5820 C   0  0  0  0  0  0  0  0  0  0  0  0
  -22.6740   -4.3400   21.4380 F   0  0  0  0  0  0  0  0  0  0  0  0
  -21.4150   -3.8870   26.0220 F   0  0  0  0  0  0  0  0  0  0  0  0
  -22.9060  -13.6280   21.1020 C   0  0  0  0  0  0  0  0  0  0  0  0
  -22.1740  -12.9280   21.9640 N   0  0  0  0  0  0  0  0  0  0  0  0
  -22.4590  -14.6380   20.5620 O   0  0  0  0  0  0  0  0  0  0  0  0
  -22.5480  -12.1110   22.4240 H   0  0  0  0  0  0  0  0  0  0  0  0
  -21.2260  -13.2140   22.1660 H   0  0  0  0  0  0  0  0  0  0  0  0
  -25.5250  -15.3310   20.3230 N   0  0  0  0  0  0  0  0  0  0  0  0
  -24.7370  -15.9660   20.3930 H   0  0  0  0  0  0  0  0  0  0  0  0
  -26.3620  -15.7810   19.9770 H   0  0  0  0  0  0  0  0  0  0  0  0
  -31.0050  -17.3500   19.2450 C   0  0  0  0  0  0  0  0  0  0  0  0
  -30.4640  -16.7690   18.1810 N   0  0  0  0  0  0  0  0  0  0  0  0
  -31.9990  -18.0650   19.1490 O   0  0  0  0  0  0  0  0  0  0  0  0
  -29.6380  -16.1980   18.2790 H   0  0  0  0  0  0  0  0  0  0  0  0
  -30.8550  -16.9220   17.2620 H   0  0  0  0  0  0  0  0  0  0  0  0
  1  4  1  0
  2  5  1  0
  2  1  2  0
  3  9  1  0
  3  1  1  0
  4  8  1  0
  4 52  1  0
  6  2  1  0
  7  3  1  0
  9 10  1  0
 11 13  1  0
 11 10  1  0
 12 23  2  0
 13 18  1  0
 14 22  1  0
 14 24  1  0
 15 21  1  0
 15 17  1  0
 16 22  1  0
 17 16  1  0
 18 17  2  0
 19 20  1  0
 19 13  2  0
 20 15  2  0
 21 14  1  0
 22 12  1  0
 24 26  2  0
 25 24  1  0
 27 25  1  0
 28 37  2  0
 28 33  1  0
 29 25  1  0
 29 33  1  0
 30 29  1  0
 31 32  1  0
 31 30  1  0
 32 28  1  0
 33 34  2  0
 34 35  1  0
 36 35  2  0
 37 36  1  0
 38 12  1  0
 38 39  1  0
 38 48  1  0
 39 42  1  0
 40 44  1  0
 40 39  1  0
 41 40  2  0
 44 43  1  0
 46 44  1  0
 46 47  1  0
 46 45  1  0
 48 51  1  1
 48 49  1  0
 50 48  1  0
 52 53  1  0
 53 54  1  0
 55 54  1  0
 55 64  1  0
 56 64  1  0
 57 62  1  0
 58 59  1  0
 58 57  1  0
 60 59  1  0
 60 69  1  0
 60 61  1  0
 62 56  1  0
 62 61  1  0
 63 56  2  0
 64 65  1  0
 66 67  2  0
 67 86  1  0
 68 67  1  0
 68 71  1  0
 69 66  1  0
 69 70  1  0
 70 68  2  0
 71 72  1  0
 72 73  2  0
 74 77  1  0
 74 73  1  0
 75 74  2  0
 76 75  1  0
 76 71  2  0
 77 78  1  0
 78 79  1  0
 79 80  2  0
 81 80  1  0
 81 85  1  0
 82 81  2  0
 83 78  2  0
 83 82  1  0
 84 83  1  0
 86 87  1  0
 87 90  1  0
 87 89  1  0
 88 86  2  0
 91 92  1  0
 91 66  1  0
 93 91  1  0
 94 55  1  0
 95 97  1  0
 95 94  1  0
 96 94  2  0
 98 95  1  0
M  ISO  4  10 101  11 101  56 100  64 100
M  END
>  <TORSDO>  (43) 
F 23

>  <SCORE>  (43) 
-12.909

>  <name>  (43) 
44

>  <ligand_id>  (43) 
44

>  <original_smiles>  (43) 
[H]c1c([H])c([H])c2c(c1[H])C([H])([H])C([H])([H])C([H])([H])C2([H])N([H])C(=O)C1([H])N(C(=O)C([H])(N([H])C(=O)C([H])(N([H])C([H])([H])[H])C([H])([H])[H])C(C([H])([H])[H])(C([H])([H])[H])C([H])([H])[H])C([H])([H])c2c([H])c(OC([H])([H])C([H])([H])N([H])C(N([H])[H])=[N+]([H])C([H])([H])C([H])([H])C([H])([H])C([H])(C(=O)N([H])[H])N([H])C(=O)N3C([H])([H])C([H])([H])C([H])([H])C([H])(n4nc(-c5c([H])c([H])c(Oc6c([H])c([H])c(F)c([H])c6F)c([H])c5[H])c(C(=O)N([H])[H])c4N([H])[H])C3([H])[H])c([H])c([H])c2C1([H])[H]

>  <smiles>  (43) 
[H]c1c([H])c([H])c2c(c1[H])C([H])([H])C([H])([H])C([H])([H])C2([H])N([H])C(=O)C1([H])N(C(=O)C([H])(N([H])C(=O)C([H])(N([H])C([H])([H])[H])C([H])([H])[H])C(C([H])([H])[H])(C([H])([H])[H])C([H])([H])[H])C([H])([H])c2c([H])c(OC([H])([H])C([H])([H])N([H])C(N([H])[H])=[N+]([H])C([H])([H])C([H])([H])C([H])([H])C([H])(C(=O)N([H])[H])N([H])C(=O)N3C([H])([H])C([H])([H])C([H])([H])C([H])(n4nc(-c5c([H])c([H])c(Oc6c([H])c([H])c(F)c([H])c6F)c([H])c5[H])c(C(=O)N([H])[H])c4N([H])[H])C3([H])[H])c([H])c([H])c2C1([H])[H]

$$$$
45:0:0
     RDKit          3D

 88 95  0  0  1  0  0  0  0  0999 V2000
  -29.7550  -21.0400   20.6190 C   0  0  0  0  0  0  0  0  0  0  0  0
  -29.3290  -19.7510   20.8590 N   0  0  0  0  0  0  0  0  0  0  0  0
  -30.9490  -21.2810   20.4300 O   0  0  0  0  0  0  0  0  0  0  0  0
  -28.3320  -19.6660   21.0090 H   0  0  0  0  0  0  0  0  0  0  0  0
  -28.7190  -22.2500   20.6130 C   0  0  0  0  0  2  0  0  0  0  0  0
  -29.1690  -23.7760   20.3070 C   0  0  0  0  0  3  0  0  0  0  0  0
  -28.0500  -24.9290   20.4570 C   0  0  0  0  0  3  0  0  0  0  0  0
  -28.3160  -26.3930   20.2330 O   0  0  0  0  0  0  0  0  0  0  0  0
  -24.6260  -31.8910   23.2290 C   0  0  0  0  0  0  0  0  0  0  0  0
  -27.2100  -27.2750   20.1890 C   0  0  0  0  0  0  0  0  0  0  0  0
  -23.4120  -30.4880   21.5970 C   0  0  0  0  0  3  0  0  0  0  0  0
  -24.8540  -28.9240   20.1710 C   0  0  0  0  0  0  0  0  0  0  0  0
  -25.9560  -30.7800   21.4170 C   0  0  0  0  0  2  0  0  0  0  0  0
  -26.0260  -29.3960   20.7770 C   0  0  0  0  0  0  0  0  0  0  0  0
  -27.2020  -28.5800   20.7840 C   0  0  0  0  0  3  0  0  0  0  0  0
  -26.0150  -26.8750   19.5470 C   0  0  0  0  0  3  0  0  0  0  0  0
  -24.8510  -27.6680   19.5480 C   0  0  0  0  0  3  0  0  0  0  0  0
  -23.6200  -29.8020   20.2210 C   0  0  0  0  0  2  0  0  0  0  0  0
  -24.6820  -31.0730   22.1350 N   0  0  0  0  0  0  0  0  0  0  0  0
  -23.5450  -32.1770   23.7650 O   0  0  0  0  0  0  0  0  0  0  0  0
  -22.7490  -29.4810   22.5690 C   0  0  0  0  0  0  0  0  0  0  0  0
  -21.4200  -29.3090   22.4510 N   0  0  0  0  0  0  0  0  0  0  0  0
  -23.4270  -28.8580   23.3890 O   0  0  0  0  0  0  0  0  0  0  0  0
  -20.9340  -29.8580   21.7570 H   0  0  0  0  0  0  0  0  0  0  0  0
  -18.0460  -28.1100   22.9730 C   0  0  0  0  0  0  0  0  0  0  0  0
  -20.6050  -28.3790   23.2320 C   0  0  0  0  0  3  0  0  0  0  0  0
  -20.7070  -26.9420   22.6700 C   0  0  0  0  0  2  0  0  0  0  0  0
  -19.6020  -26.6080   21.6610 C   0  0  0  0  0  2  0  0  0  0  0  0
  -18.2210  -26.7570   22.3060 C   0  0  0  0  0  2  0  0  0  0  0  0
  -19.1640  -28.8790   23.3930 C   0  0  0  0  0  0  0  0  0  0  0  0
  -18.9430  -30.1460   23.9800 C   0  0  0  0  0  3  0  0  0  0  0  0
  -17.6370  -30.6450   24.1460 C   0  0  0  0  0  3  0  0  0  0  0  0
  -16.5350  -29.8740   23.7360 C   0  0  0  0  0  3  0  0  0  0  0  0
  -16.7410  -28.6090   23.1570 C   0  0  0  0  0  3  0  0  0  0  0  0
  -25.9150  -32.5260   23.8390 C   0  0  0  0  0  3  0  0  0  0  0  0
  -25.6060  -33.9230   24.1740 N   0  0  0  0  0  0  0  0  0  0  0  0
  -25.9270  -34.9790   23.4140 C   0  0  0  0  0  0  0  0  0  0  0  0
  -26.5830  -34.8790   22.3740 O   0  0  0  0  0  0  0  0  0  0  0  0
  -25.0270  -34.0740   24.9870 H   0  0  0  0  0  0  0  0  0  0  0  0
  -24.1900  -36.7690   23.0890 C   0  0  0  0  0  1  0  0  0  0  0  0
  -25.4420  -36.3630   23.8830 C   0  0  0  0  0  3  0  0  0  0  0  0
  -27.5860  -37.2500   24.6850 C   0  0  0  0  0  1  0  0  0  0  0  0
  -26.4710  -37.4190   23.7580 N   0  0  0  0  0  0  0  0  0  0  0  0
  -26.0620  -38.3370   23.9160 H   0  0  0  0  0  0  0  0  0  0  0  0
  -26.4410  -31.7540   25.1100 C   0  0  1  0  0  0  0  0  0  0  0  0
  -25.3600  -31.5170   26.1910 C   0  0  0  0  0  1  0  0  0  0  0  0
  -27.0210  -30.3750   24.7170 C   0  0  0  0  0  1  0  0  0  0  0  0
  -27.6000  -32.5490   25.7580 C   0  0  0  0  0  1  0  0  0  0  0  0
  -30.1050  -18.4740   21.1480 C   0  0  0  0  0  2  0  0  0  0  0  0
  -29.8440  -17.2010   20.2120 C   0  0  0  0  0  2  0  0  0  0  0  0
  -30.6000  -14.6960   20.4020 C   0  0  0  0  0  0  0  0  0  0  0  0
  -30.3800  -12.4400   19.3680 C   0  0  0  0  0  2  0  0  0  0  0  0
  -29.4380  -12.5540   18.1470 C   0  0  0  0  0  2  0  0  0  0  0  0
  -27.9680  -12.3860   18.5710 C   0  0  0  0  0  2  0  0  0  0  0  0
  -27.6070  -13.2660   19.7960 C   0  0  0  0  0  3  0  0  0  0  0  0
  -28.6590  -13.1490   20.9240 C   0  0  0  0  0  2  0  0  0  0  0  0
  -29.9740  -13.4720   20.3490 N   0  0  0  0  0  0  0  0  0  0  0  0
  -31.7420  -14.8400   19.9590 O   0  0  0  0  0  0  0  0  0  0  0  0
  -29.8330  -15.7800   20.7590 N   0  0  0  0  0  0  0  0  0  0  0  0
  -28.9490  -15.4990   21.1580 H   0  0  0  0  0  0  0  0  0  0  0  0
  -25.2160  -13.8690   20.5060 C   0  0  0  0  0  0  0  0  0  0  0  0
  -24.1440  -13.1000   20.8760 C   0  0  0  0  0  0  0  0  0  0  0  0
  -24.6070  -11.7480   20.8580 C   0  0  0  0  0  0  0  0  0  0  0  0
  -26.2580  -12.9830   20.2800 N   0  0  0  0  0  0  0  0  0  0  0  0
  -25.8980  -11.7050   20.5550 N   0  0  0  0  0  0  0  0  0  0  0  0
  -23.8790  -10.4870   21.0560 C   0  0  0  0  0  0  0  0  0  0  0  0
  -24.3190   -9.5170   21.9830 C   0  0  0  0  0  3  0  0  0  0  0  0
  -23.5910   -8.3220   22.1680 C   0  0  0  0  0  3  0  0  0  0  0  0
  -22.4110   -8.0860   21.4240 C   0  0  0  0  0  0  0  0  0  0  0  0
  -21.9890   -9.0450   20.4860 C   0  0  0  0  0  3  0  0  0  0  0  0
  -22.7180  -10.2320   20.3000 C   0  0  0  0  0  3  0  0  0  0  0  0
  -21.6530   -6.9430   21.5200 O   0  0  0  0  0  0  0  0  0  0  0  0
  -21.6250   -6.1920   22.6680 C   0  0  0  0  0  0  0  0  0  0  0  0
  -21.2430   -6.7440   23.9100 C   0  0  0  0  0  3  0  0  0  0  0  0
  -21.1580   -5.9200   25.0490 C   0  0  0  0  0  3  0  0  0  0  0  0
  -21.4490   -4.5470   24.9500 C   0  0  0  0  0  0  0  0  0  0  0  0
  -21.8260   -3.9950   23.7140 C   0  0  0  0  0  3  0  0  0  0  0  0
  -21.9110   -4.8150   22.5750 C   0  0  0  0  0  0  0  0  0  0  0  0
  -22.2540   -4.2750   21.3800 F   0  0  0  0  0  0  0  0  0  0  0  0
  -21.3620   -3.7530   26.0440 F   0  0  0  0  0  0  0  0  0  0  0  0
  -22.7490  -13.5820   21.1390 C   0  0  0  0  0  0  0  0  0  0  0  0
  -22.0200  -12.8930   22.0120 N   0  0  0  0  0  0  0  0  0  0  0  0
  -22.3130  -14.6020   20.6120 O   0  0  0  0  0  0  0  0  0  0  0  0
  -22.3850  -12.0590   22.4510 H   0  0  0  0  0  0  0  0  0  0  0  0
  -21.0870  -13.2000   22.2470 H   0  0  0  0  0  0  0  0  0  0  0  0
  -25.3900  -15.2370   20.3250 N   0  0  0  0  0  0  0  0  0  0  0  0
  -24.6420  -15.9130   20.4470 H   0  0  0  0  0  0  0  0  0  0  0  0
  -26.2560  -15.6620   20.0130 H   0  0  0  0  0  0  0  0  0  0  0  0
  1  2  1  0
  2  4  1  0
  2 49  1  0
  3  1  2  0
  5  1  1  0
  6  7  2  0
  6  5  1  0
  8  7  1  0
  9 20  2  0
 10  8  1  0
 10 15  1  0
 11 19  1  0
 11 21  1  0
 12 18  1  0
 12 14  1  0
 13 19  1  0
 14 15  2  0
 14 13  1  0
 16 17  1  0
 16 10  2  0
 17 12  2  0
 18 11  1  0
 19  9  1  0
 21 23  2  0
 22 21  1  0
 24 22  1  0
 25 34  2  0
 25 30  1  0
 26 22  1  0
 26 30  1  0
 27 26  1  0
 28 29  1  0
 28 27  1  0
 29 25  1  0
 30 31  2  0
 31 32  1  0
 33 32  2  0
 34 33  1  0
 35  9  1  0
 35 36  1  0
 35 45  1  0
 36 39  1  0
 37 41  1  0
 37 36  1  0
 38 37  2  0
 41 40  1  0
 43 41  1  0
 43 44  1  0
 43 42  1  0
 45 48  1  1
 45 46  1  0
 47 45  1  0
 50 59  1  0
 50 49  1  0
 51 59  1  0
 52 57  1  0
 53 54  1  0
 53 52  1  0
 55 54  1  0
 55 64  1  0
 55 56  1  0
 57 51  1  0
 57 56  1  0
 58 51  2  0
 59 60  1  0
 61 62  2  0
 62 81  1  0
 63 62  1  0
 63 66  1  0
 64 61  1  0
 64 65  1  0
 65 63  2  0
 66 67  1  0
 67 68  2  0
 69 72  1  0
 69 68  1  0
 70 69  2  0
 71 70  1  0
 71 66  2  0
 72 73  1  0
 73 74  1  0
 74 75  2  0
 76 75  1  0
 76 80  1  0
 77 76  2  0
 78 73  2  0
 78 77  1  0
 79 78  1  0
 81 82  1  0
 82 85  1  0
 82 84  1  0
 83 81  2  0
 86 87  1  0
 86 61  1  0
 88 86  1  0
M  ISO  4   7 101   8 101  51 100  59 100
M  END
>  <TORSDO>  (44) 
F 21

>  <SCORE>  (44) 
-13.336

>  <name>  (44) 
45

>  <ligand_id>  (44) 
45

>  <original_smiles>  (44) 
[H]c1c([H])c([H])c2c(c1[H])C([H])([H])C([H])([H])C([H])([H])C2([H])N([H])C(=O)C1([H])N(C(=O)C([H])(N([H])C(=O)C([H])(N([H])C([H])([H])[H])C([H])([H])[H])C(C([H])([H])[H])(C([H])([H])[H])C([H])([H])[H])C([H])([H])c2c([H])c(OC([H])([H])C([H])([H])C([H])([H])C(=O)N([H])C([H])([H])C([H])([H])N([H])C(=O)N3C([H])([H])C([H])([H])C([H])([H])C([H])(n4nc(-c5c([H])c([H])c(Oc6c([H])c([H])c(F)c([H])c6F)c([H])c5[H])c(C(=O)N([H])[H])c4N([H])[H])C3([H])[H])c([H])c([H])c2C1([H])[H]

>  <smiles>  (44) 
[H]c1c([H])c([H])c2c(c1[H])C([H])([H])C([H])([H])C([H])([H])C2([H])N([H])C(=O)C1([H])N(C(=O)C([H])(N([H])C(=O)C([H])(N([H])C([H])([H])[H])C([H])([H])[H])C(C([H])([H])[H])(C([H])([H])[H])C([H])([H])[H])C([H])([H])c2c([H])c(OC([H])([H])C([H])([H])C([H])([H])C(=O)N([H])C([H])([H])C([H])([H])N([H])C(=O)N3C([H])([H])C([H])([H])C([H])([H])C([H])(n4nc(-c5c([H])c([H])c(Oc6c([H])c([H])c(F)c([H])c6F)c([H])c5[H])c(C(=O)N([H])[H])c4N([H])[H])C3([H])[H])c([H])c([H])c2C1([H])[H]

$$$$
46:0:0
     RDKit          3D

 90 97  0  0  1  0  0  0  0  0999 V2000
  -29.0830  -19.8480   20.3340 C   0  0  0  0  0  0  0  0  0  0  0  0
  -29.0600  -21.2610   19.8580 N   0  0  0  0  0  0  0  0  0  0  0  0
  -28.3850  -19.6210   21.3220 O   0  0  0  0  0  0  0  0  0  0  0  0
  -29.5530  -21.3440   18.9780 H   0  0  0  0  0  0  0  0  0  0  0  0
  -28.6940  -22.7870   20.4680 C   0  0  0  0  0  2  0  0  0  0  0  0
  -28.1000  -24.3570   19.7830 C   0  0  0  0  0  2  0  0  0  0  0  0
  -28.1640  -25.9520   20.2380 O   0  0  0  0  0  0  0  0  0  0  0  0
  -24.5840  -31.8980   23.2100 C   0  0  0  0  0  0  0  0  0  0  0  0
  -27.1510  -27.0470   20.1440 C   0  0  0  0  0  0  0  0  0  0  0  0
  -23.3940  -30.5150   21.5580 C   0  0  0  0  0  3  0  0  0  0  0  0
  -24.8460  -28.9260   20.1170 C   0  0  0  0  0  0  0  0  0  0  0  0
  -25.9600  -30.7290   21.4180 C   0  0  0  0  0  2  0  0  0  0  0  0
  -26.0310  -29.3260   20.7470 C   0  0  0  0  0  0  0  0  0  0  0  0
  -27.1740  -28.4060   20.7400 C   0  0  0  0  0  3  0  0  0  0  0  0
  -25.9390  -26.8060   19.4590 C   0  0  0  0  0  3  0  0  0  0  0  0
  -24.8250  -27.6880   19.4550 C   0  0  0  0  0  3  0  0  0  0  0  0
  -23.6240  -29.8420   20.1760 C   0  0  0  0  0  2  0  0  0  0  0  0
  -24.6670  -31.0750   22.1160 N   0  0  0  0  0  0  0  0  0  0  0  0
  -23.4930  -32.1820   23.7330 O   0  0  0  0  0  0  0  0  0  0  0  0
  -22.6990  -29.5110   22.5150 C   0  0  0  0  0  0  0  0  0  0  0  0
  -21.3680  -29.3490   22.3910 N   0  0  0  0  0  0  0  0  0  0  0  0
  -23.3640  -28.8770   23.3380 O   0  0  0  0  0  0  0  0  0  0  0  0
  -20.8830  -29.9100   21.7040 H   0  0  0  0  0  0  0  0  0  0  0  0
  -17.9830  -28.1520   22.9080 C   0  0  0  0  0  0  0  0  0  0  0  0
  -20.5460  -28.4050   23.1550 C   0  0  0  0  0  3  0  0  0  0  0  0
  -20.6370  -26.9810   22.5580 C   0  0  0  0  0  2  0  0  0  0  0  0
  -19.5270  -26.6780   21.5480 C   0  0  0  0  0  2  0  0  0  0  0  0
  -18.1500  -26.8150   22.2060 C   0  0  0  0  0  2  0  0  0  0  0  0
  -19.1070  -28.9060   23.3390 C   0  0  0  0  0  0  0  0  0  0  0  0
  -18.8940  -30.1560   23.9600 C   0  0  0  0  0  3  0  0  0  0  0  0
  -17.5910  -30.6530   24.1500 C   0  0  0  0  0  3  0  0  0  0  0  0
  -16.4820  -29.8970   23.7330 C   0  0  0  0  0  3  0  0  0  0  0  0
  -16.6790  -28.6480   23.1180 C   0  0  0  0  0  3  0  0  0  0  0  0
  -25.8530  -32.5380   23.8510 C   0  0  0  0  0  3  0  0  0  0  0  0
  -26.3390  -31.7800   25.1490 C   0  0  1  0  0  0  0  0  0  0  0  0
  -25.2230  -31.5650   26.1990 C   0  0  0  0  0  1  0  0  0  0  0  0
  -26.9200  -30.3930   24.7970 C   0  0  0  0  0  1  0  0  0  0  0  0
  -27.4820  -32.5770   25.8210 C   0  0  0  0  0  1  0  0  0  0  0  0
  -25.5410  -33.9420   24.1710 N   0  0  0  0  0  0  0  0  0  0  0  0
  -25.8880  -34.9960   23.4220 C   0  0  0  0  0  0  0  0  0  0  0  0
  -26.5660  -34.8890   22.3970 O   0  0  0  0  0  0  0  0  0  0  0  0
  -24.9370  -34.0990   24.9640 H   0  0  0  0  0  0  0  0  0  0  0  0
  -24.1850  -36.8150   23.0530 C   0  0  0  0  0  1  0  0  0  0  0  0
  -25.4100  -36.3910   23.8780 C   0  0  0  0  0  3  0  0  0  0  0  0
  -27.5380  -37.2590   24.7470 C   0  0  0  0  0  1  0  0  0  0  0  0
  -26.4560  -37.4330   23.7820 N   0  0  0  0  0  0  0  0  0  0  0  0
  -26.0580  -38.3590   23.9160 H   0  0  0  0  0  0  0  0  0  0  0  0
  -30.0050  -18.4350   19.7950 C   0  0  0  0  0  3  0  0  0  0  0  0
  -30.4520  -15.4470   19.8640 C   0  0  0  0  0  0  0  0  0  0  0  0
  -30.3270  -13.0170   18.9500 C   0  0  0  0  0  2  0  0  0  0  0  0
  -29.3240  -12.8210   17.7860 C   0  0  0  0  0  2  0  0  0  0  0  0
  -27.9180  -12.5300   18.3350 C   0  0  0  0  0  2  0  0  0  0  0  0
  -27.5460  -13.4750   19.5040 C   0  0  0  0  0  3  0  0  0  0  0  0
  -28.6740  -13.6280   20.5500 C   0  0  0  0  0  2  0  0  0  0  0  0
  -29.8470  -14.1520   19.8300 N   0  0  0  0  0  0  0  0  0  0  0  0
  -31.6470  -15.3670   19.5520 O   0  0  0  0  0  0  0  0  0  0  0  0
  -29.7650  -16.7680   20.0550 N   0  0  0  0  0  0  0  0  0  0  0  0
  -28.8070  -16.6110   20.3310 H   0  0  0  0  0  0  0  0  0  0  0  0
  -25.2380  -13.9990   20.4430 C   0  0  0  0  0  0  0  0  0  0  0  0
  -24.2070  -13.2080   20.8660 C   0  0  0  0  0  0  0  0  0  0  0  0
  -24.6760  -11.8620   20.7700 C   0  0  0  0  0  0  0  0  0  0  0  0
  -26.2630  -13.1360   20.1040 N   0  0  0  0  0  0  0  0  0  0  0  0
  -25.9430  -11.8430   20.3690 N   0  0  0  0  0  0  0  0  0  0  0  0
  -23.9670  -10.5910   20.9760 C   0  0  0  0  0  0  0  0  0  0  0  0
  -24.4360   -9.6230   21.8920 C   0  0  0  0  0  3  0  0  0  0  0  0
  -23.7230   -8.4210   22.0900 C   0  0  0  0  0  3  0  0  0  0  0  0
  -22.5280   -8.1780   21.3720 C   0  0  0  0  0  0  0  0  0  0  0  0
  -22.0790   -9.1350   20.4440 C   0  0  0  0  0  3  0  0  0  0  0  0
  -22.7930  -10.3280   20.2450 C   0  0  0  0  0  3  0  0  0  0  0  0
  -21.7840   -7.0280   21.4790 O   0  0  0  0  0  0  0  0  0  0  0  0
  -21.7490   -6.2980   22.6410 C   0  0  0  0  0  0  0  0  0  0  0  0
  -21.2870   -6.8530   23.8560 C   0  0  0  0  0  3  0  0  0  0  0  0
  -21.2020   -6.0480   25.0090 C   0  0  0  0  0  3  0  0  0  0  0  0
  -21.5680   -4.6910   24.9510 C   0  0  0  0  0  0  0  0  0  0  0  0
  -22.0230   -4.1350   23.7420 C   0  0  0  0  0  3  0  0  0  0  0  0
  -22.1090   -4.9360   22.5900 C   0  0  0  0  0  0  0  0  0  0  0  0
  -22.5270   -4.3910   21.4210 F   0  0  0  0  0  0  0  0  0  0  0  0
  -21.4790   -3.9160   26.0570 F   0  0  0  0  0  0  0  0  0  0  0  0
  -22.8300  -13.6730   21.2370 C   0  0  0  0  0  0  0  0  0  0  0  0
  -22.1590  -12.9530   22.1280 N   0  0  0  0  0  0  0  0  0  0  0  0
  -22.3600  -14.7100   20.7720 O   0  0  0  0  0  0  0  0  0  0  0  0
  -22.5530  -12.1140   22.5270 H   0  0  0  0  0  0  0  0  0  0  0  0
  -21.2360  -13.2470   22.4160 H   0  0  0  0  0  0  0  0  0  0  0  0
  -25.3810  -15.3760   20.2870 N   0  0  0  0  0  0  0  0  0  0  0  0
  -24.6250  -16.0220   20.4790 H   0  0  0  0  0  0  0  0  0  0  0  0
  -26.1940  -15.8270   19.8880 H   0  0  0  0  0  0  0  0  0  0  0  0
  -31.9510  -20.2420   20.1130 C   0  0  0  0  0  1  0  0  0  0  0  0
  -32.4500  -18.1220   19.0250 C   0  0  0  0  0  1  0  0  0  0  0  0
  -31.8990  -18.2470   21.5380 C   0  0  0  0  0  1  0  0  0  0  0  0
  -31.5370  -18.7430   20.1150 C   0  0  2  0  0  0  0  0  0  0  0  0
  1  3  2  0
  2  1  1  0
  2  5  1  0
  4  2  1  0
  6  7  1  0
  6  5  1  0
  8 19  2  0
  9  7  1  0
  9 14  1  0
 10 18  1  0
 10 20  1  0
 11 17  1  0
 11 13  1  0
 12 18  1  0
 13 12  1  0
 14 13  2  0
 15  9  2  0
 16 15  1  0
 16 11  2  0
 17 10  1  0
 18  8  1  0
 20 22  2  0
 21 20  1  0
 23 21  1  0
 24 33  2  0
 24 29  1  0
 25 21  1  0
 25 29  1  0
 26 25  1  0
 27 28  1  0
 27 26  1  0
 28 24  1  0
 29 30  2  0
 30 31  1  0
 32 31  2  0
 33 32  1  0
 34  8  1  0
 34 39  1  0
 34 35  1  0
 35 38  1  1
 35 36  1  0
 37 35  1  0
 39 42  1  0
 40 44  1  0
 40 39  1  0
 41 40  2  0
 44 43  1  0
 46 44  1  0
 46 47  1  0
 46 45  1  0
 48 57  1  0
 48 90  1  0
 48  1  1  0
 49 57  1  0
 50 55  1  0
 51 52  1  0
 51 50  1  0
 53 52  1  0
 53 62  1  0
 53 54  1  0
 55 49  1  0
 55 54  1  0
 56 49  2  0
 57 58  1  0
 59 60  2  0
 60 79  1  0
 61 60  1  0
 61 64  1  0
 62 63  1  0
 62 59  1  0
 63 61  2  0
 64 65  1  0
 65 66  2  0
 67 70  1  0
 67 66  1  0
 68 67  2  0
 69 68  1  0
 69 64  2  0
 70 71  1  0
 71 72  1  0
 72 73  2  0
 74 73  1  0
 74 78  1  0
 75 74  2  0
 76 71  2  0
 76 75  1  0
 77 76  1  0
 79 80  1  0
 80 83  1  0
 80 82  1  0
 81 79  2  0
 84 59  1  0
 84 85  1  0
 86 84  1  0
 90 87  1  1
 88 90  1  0
 90 89  1  0
M  ISO  4   6 101   7 101  49 100  57 100
M  END
>  <TORSDO>  (45) 
F 20

>  <SCORE>  (45) 
-15.783

>  <name>  (45) 
46

>  <ligand_id>  (45) 
46

>  <original_smiles>  (45) 
[H]c1c([H])c([H])c2c(c1[H])C([H])([H])C([H])([H])C([H])([H])C2([H])N([H])C(=O)C1([H])N(C(=O)C([H])(N([H])C(=O)C([H])(N([H])C([H])([H])[H])C([H])([H])[H])C(C([H])([H])[H])(C([H])([H])[H])C([H])([H])[H])C([H])([H])c2c([H])c(OC([H])([H])C([H])([H])N([H])C(=O)C([H])(N([H])C(=O)N3C([H])([H])C([H])([H])C([H])([H])C([H])(n4nc(-c5c([H])c([H])c(Oc6c([H])c([H])c(F)c([H])c6F)c([H])c5[H])c(C(=O)N([H])[H])c4N([H])[H])C3([H])[H])C(C([H])([H])[H])(C([H])([H])[H])C([H])([H])[H])c([H])c([H])c2C1([H])[H]

>  <smiles>  (45) 
[H]c1c([H])c([H])c2c(c1[H])C([H])([H])C([H])([H])C([H])([H])C2([H])N([H])C(=O)C1([H])N(C(=O)C([H])(N([H])C(=O)C([H])(N([H])C([H])([H])[H])C([H])([H])[H])C(C([H])([H])[H])(C([H])([H])[H])C([H])([H])[H])C([H])([H])c2c([H])c(OC([H])([H])C([H])([H])N([H])C(=O)C([H])(N([H])C(=O)N3C([H])([H])C([H])([H])C([H])([H])C([H])(n4nc(-c5c([H])c([H])c(Oc6c([H])c([H])c(F)c([H])c6F)c([H])c5[H])c(C(=O)N([H])[H])c4N([H])[H])C3([H])[H])C(C([H])([H])[H])(C([H])([H])[H])C([H])([H])[H])c([H])c([H])c2C1([H])[H]

$$$$
47:0:0
     RDKit          3D

100108  0  0  1  0  0  0  0  0999 V2000
  -29.4610  -21.1950   20.2280 C   0  0  0  0  0  3  0  0  0  0  0  0
  -30.1200  -22.3390   19.4000 C   0  0  0  0  0  0  0  0  0  0  0  0
  -29.4360  -23.4920   19.2410 N   0  0  0  0  0  0  0  0  0  0  0  0
  -31.2500  -22.1800   18.9320 O   0  0  0  0  0  0  0  0  0  0  0  0
  -28.5100  -23.5230   19.6450 H   0  0  0  0  0  0  0  0  0  0  0  0
  -29.9170  -24.7490   18.6240 C   0  0  0  0  0  2  0  0  0  0  0  0
  -28.7460  -25.6880   18.2230 C   0  0  0  0  0  2  0  0  0  0  0  0
  -28.8450  -27.0710   18.6570 O   0  0  0  0  0  0  0  0  0  0  0  0
  -24.7400  -30.5420   23.3590 C   0  0  0  0  0  0  0  0  0  0  0  0
  -27.6370  -27.7200   18.8850 C   0  0  0  0  0  0  0  0  0  0  0  0
  -23.6020  -29.7130   21.3290 C   0  0  0  0  0  3  0  0  0  0  0  0
  -25.1290  -28.9350   19.4430 C   0  0  0  0  0  0  0  0  0  0  0  0
  -26.0830  -30.3450   21.2680 C   0  0  0  0  0  2  0  0  0  0  0  0
  -26.2630  -29.3090   20.1740 C   0  0  0  0  0  0  0  0  0  0  0  0
  -27.5190  -28.7130   19.8920 C   0  0  0  0  0  3  0  0  0  0  0  0
  -26.4780  -27.3930   18.1400 C   0  0  0  0  0  3  0  0  0  0  0  0
  -25.2340  -27.9820   18.4190 C   0  0  0  0  0  3  0  0  0  0  0  0
  -23.8200  -29.6010   19.7970 C   0  0  0  0  0  2  0  0  0  0  0  0
  -24.8280  -30.1960   22.0450 N   0  0  0  0  0  0  0  0  0  0  0  0
  -23.6600  -30.4990   23.9650 O   0  0  0  0  0  0  0  0  0  0  0  0
  -23.0760  -28.3600   21.8580 C   0  0  0  0  0  0  0  0  0  0  0  0
  -21.7930  -28.0640   21.5870 N   0  0  0  0  0  0  0  0  0  0  0  0
  -23.8190  -27.5890   22.4720 O   0  0  0  0  0  0  0  0  0  0  0  0
  -21.2450  -28.7500   21.0880 H   0  0  0  0  0  0  0  0  0  0  0  0
  -18.6260  -26.3380   21.3910 C   0  0  0  0  0  0  0  0  0  0  0  0
  -21.0980  -26.8320   21.9580 C   0  0  0  0  0  3  0  0  0  0  0  0
  -21.4450  -25.6820   20.9850 C   0  0  0  0  0  2  0  0  0  0  0  0
  -20.4540  -25.5540   19.8250 C   0  0  0  0  0  2  0  0  0  0  0  0
  -19.0400  -25.3050   20.3550 C   0  0  0  0  0  2  0  0  0  0  0  0
  -19.5930  -27.0650   22.1330 C   0  0  0  0  0  0  0  0  0  0  0  0
  -19.1570  -28.0380   23.0590 C   0  0  0  0  0  3  0  0  0  0  0  0
  -17.7850  -28.2850   23.2500 C   0  0  0  0  0  3  0  0  0  0  0  0
  -16.8310  -27.5500   22.5250 C   0  0  0  0  0  3  0  0  0  0  0  0
  -17.2520  -26.5780   21.6020 C   0  0  0  0  0  3  0  0  0  0  0  0
  -25.9860  -31.0330   24.1590 C   0  0  0  0  0  3  0  0  0  0  0  0
  -26.3790  -30.0720   25.3470 C   0  0  1  0  0  0  0  0  0  0  0  0
  -25.2020  -29.7340   26.2900 C   0  0  0  0  0  1  0  0  0  0  0  0
  -26.9450  -28.7380   24.8070 C   0  0  0  0  0  1  0  0  0  0  0  0
  -27.5010  -30.7150   26.1960 C   0  0  0  0  0  1  0  0  0  0  0  0
  -25.6900  -32.3820   24.6600 N   0  0  0  0  0  0  0  0  0  0  0  0
  -26.1320  -33.5160   24.0990 C   0  0  0  0  0  0  0  0  0  0  0  0
  -26.9020  -33.5290   23.1350 O   0  0  0  0  0  0  0  0  0  0  0  0
  -25.0260  -32.4460   25.4180 H   0  0  0  0  0  0  0  0  0  0  0  0
  -24.5400  -35.4410   23.8150 C   0  0  0  0  0  1  0  0  0  0  0  0
  -25.6420  -34.8450   24.7050 C   0  0  0  0  0  3  0  0  0  0  0  0
  -27.6680  -35.4690   25.9430 C   0  0  0  0  0  1  0  0  0  0  0  0
  -26.7200  -35.8390   24.8960 N   0  0  0  0  0  0  0  0  0  0  0  0
  -26.3330  -36.7500   25.1260 H   0  0  0  0  0  0  0  0  0  0  0  0
  -30.0780  -18.7250   20.4030 C   0  0  0  0  0  0  0  0  0  0  0  0
  -30.3700  -20.0430   20.3730 N   0  0  0  0  0  0  0  0  0  0  0  0
  -28.9300  -18.2980   20.5250 O   0  0  0  0  0  0  0  0  0  0  0  0
  -31.3460  -20.2900   20.2680 H   0  0  0  0  0  0  0  0  0  0  0  0
  -31.4920  -15.3020   20.6320 C   0  0  0  0  0  0  0  0  0  0  0  0
  -31.3220  -12.9150   20.0950 C   0  0  0  0  0  2  0  0  0  0  0  0
  -30.5510  -12.7210   18.7730 C   0  0  0  0  0  2  0  0  0  0  0  0
  -29.0320  -12.6820   19.0280 C   0  0  0  0  0  2  0  0  0  0  0  0
  -28.5190  -13.8000   19.9790 C   0  0  0  0  0  3  0  0  0  0  0  0
  -29.4290  -13.9610   21.2160 C   0  0  0  0  0  2  0  0  0  0  0  0
  -30.8020  -14.1320   20.7300 N   0  0  0  0  0  0  0  0  0  0  0  0
  -32.7180  -15.3480   20.7240 O   0  0  0  0  0  0  0  0  0  0  0  0
  -31.1790  -17.4750   17.8180 C   0  0  0  0  0  2  0  0  0  0  0  0
  -32.0280  -18.1360   18.8830 C   0  0  0  0  0  2  0  0  0  0  0  0
  -30.8840  -16.1300   18.4750 C   0  0  0  0  0  2  0  0  0  0  0  0
  -31.2640  -17.7490   20.1630 C   0  0  0  0  0  3  0  0  0  0  0  0
  -30.8850  -16.3180   19.9510 N   0  0  0  0  0  0  0  0  0  0  0  0
  -26.1010  -14.5170   20.4640 C   0  0  0  0  0  0  0  0  0  0  0  0
  -24.9660  -13.7920   20.7140 C   0  0  0  0  0  0  0  0  0  0  0  0
  -25.3680  -12.4210   20.7330 C   0  0  0  0  0  0  0  0  0  0  0  0
  -27.1220  -13.5870   20.3420 N   0  0  0  0  0  0  0  0  0  0  0  0
  -26.6810  -12.3240   20.5690 N   0  0  0  0  0  0  0  0  0  0  0  0
  -24.5720  -11.1930   20.8420 C   0  0  0  0  0  0  0  0  0  0  0  0
  -24.9020  -10.1800   21.7700 C   0  0  0  0  0  3  0  0  0  0  0  0
  -24.1090   -9.0160   21.8700 C   0  0  0  0  0  3  0  0  0  0  0  0
  -22.9740   -8.8560   21.0420 C   0  0  0  0  0  0  0  0  0  0  0  0
  -22.6630   -9.8570   20.1050 C   0  0  0  0  0  3  0  0  0  0  0  0
  -23.4560  -11.0130   20.0020 C   0  0  0  0  0  3  0  0  0  0  0  0
  -22.1630   -7.7470   21.0520 O   0  0  0  0  0  0  0  0  0  0  0  0
  -21.9920   -6.9910   22.1840 C   0  0  0  0  0  0  0  0  0  0  0  0
  -21.5120   -7.5500   23.3880 C   0  0  0  0  0  3  0  0  0  0  0  0
  -21.2840   -6.7240   24.5060 C   0  0  0  0  0  3  0  0  0  0  0  0
  -21.5260   -5.3400   24.4220 C   0  0  0  0  0  0  0  0  0  0  0  0
  -22.0010   -4.7800   23.2220 C   0  0  0  0  0  3  0  0  0  0  0  0
  -22.2300   -5.6040   22.1060 C   0  0  0  0  0  0  0  0  0  0  0  0
  -22.6660   -5.0560   20.9450 F   0  0  0  0  0  0  0  0  0  0  0  0
  -21.3020   -4.5440   25.4930 F   0  0  0  0  0  0  0  0  0  0  0  0
  -23.5710  -14.3320   20.8360 C   0  0  0  0  0  0  0  0  0  0  0  0
  -22.7310  -13.6820   21.6350 N   0  0  0  0  0  0  0  0  0  0  0  0
  -23.2300  -15.3620   20.2600 O   0  0  0  0  0  0  0  0  0  0  0  0
  -23.0160  -12.8460   22.1220 H   0  0  0  0  0  0  0  0  0  0  0  0
  -21.7900  -14.0260   21.7600 H   0  0  0  0  0  0  0  0  0  0  0  0
  -26.3490  -15.8780   20.3120 N   0  0  0  0  0  0  0  0  0  0  0  0
  -25.6150  -16.5750   20.3780 H   0  0  0  0  0  0  0  0  0  0  0  0
  -27.2700  -16.2840   20.1900 H   0  0  0  0  0  0  0  0  0  0  0  0
  -28.9030  -21.6520   21.6030 C   0  0  0  0  0  2  0  0  0  0  0  0
  -27.4540  -22.1780   21.5410 C   0  0  0  0  0  2  0  0  0  0  0  0
  -27.2290  -23.4800   22.3380 C   0  0  0  0  0  2  0  0  0  0  0  0
  -27.5080  -24.6900   21.5440 N   0  0  0  0  0  4  0  0  0  0  0  0
  -28.4720  -24.7410   21.2710 H   0  0  0  0  0  0  0  0  0  0  0  0
  -27.3000  -25.5070   22.0900 H   0  0  0  0  0  0  0  0  0  0  0  0
  -26.9340  -24.7170   20.7190 H   0  0  0  0  0  0  0  0  0  0  0  0
  1 50  1  0
  1 94  1  0
  2  1  1  0
  3  2  1  0
  3  5  1  0
  4  2  2  0
  6  3  1  0
  7  6  1  0
  7  8  1  0
  8 10  1  0
  9 20  2  0
 10 15  1  0
 11 21  1  0
 11 19  1  0
 12 18  1  0
 12 14  1  0
 13 19  1  0
 14 13  1  0
 15 14  2  0
 16 17  1  0
 16 10  2  0
 17 12  2  0
 18 11  1  0
 19  9  1  0
 21 23  2  0
 22 21  1  0
 24 22  1  0
 25 34  2  0
 25 30  1  0
 26 22  1  0
 26 30  1  0
 27 26  1  0
 28 29  1  0
 28 27  1  0
 29 25  1  0
 30 31  2  0
 31 32  1  0
 33 32  2  0
 34 33  1  0
 35  9  1  0
 35 40  1  0
 35 36  1  0
 36 39  1  1
 36 37  1  0
 38 36  1  0
 40 43  1  0
 41 40  1  0
 41 45  1  0
 42 41  2  0
 45 44  1  0
 45 47  1  0
 47 48  1  0
 47 46  1  0
 49 51  2  0
 50 49  1  0
 52 50  1  0
 53 60  2  0
 53 59  1  0
 54 59  1  0
 55 56  1  0
 55 54  1  0
 57 56  1  0
 57 69  1  0
 57 58  1  0
 59 58  1  0
 61 63  1  0
 61 62  1  0
 62 64  1  0
 63 65  1  0
 64 49  1  0
 65 64  1  0
 65 53  1  0
 66 67  2  0
 67 68  1  0
 67 86  1  0
 68 71  1  0
 69 66  1  0
 69 70  1  0
 70 68  2  0
 71 72  1  0
 72 73  2  0
 74 77  1  0
 74 73  1  0
 75 74  2  0
 76 75  1  0
 76 71  2  0
 77 78  1  0
 78 79  1  0
 79 80  2  0
 81 80  1  0
 81 85  1  0
 82 81  2  0
 83 78  2  0
 83 82  1  0
 84 83  1  0
 86 87  1  0
 87 90  1  0
 87 89  1  0
 88 86  2  0
 91 92  1  0
 91 66  1  0
 93 91  1  0
 95 94  1  0
 95 96  1  0
 97 99  1  0
 97 96  1  0
 98 97  1  0
100 97  1  0
M  ISO  4   7 101   8 101  53 100  65 100
M  END
>  <TORSDO>  (46) 
F 24

>  <SCORE>  (46) 
-8.279

>  <name>  (46) 
47

>  <ligand_id>  (46) 
47

>  <original_smiles>  (46) 
[H]c1c([H])c([H])c2c(c1[H])C([H])([H])C([H])([H])C([H])([H])C2([H])N([H])C(=O)C1([H])N(C(=O)C([H])(N([H])C(=O)C([H])(N([H])C([H])([H])[H])C([H])([H])[H])C(C([H])([H])[H])(C([H])([H])[H])C([H])([H])[H])C([H])([H])c2c([H])c(OC([H])([H])C([H])([H])N([H])C(=O)C([H])(N([H])C(=O)C3([H])N(C(=O)N4C([H])([H])C([H])([H])C([H])([H])C([H])(n5nc(-c6c([H])c([H])c(Oc7c([H])c([H])c(F)c([H])c7F)c([H])c6[H])c(C(=O)N([H])[H])c5N([H])[H])C4([H])[H])C([H])([H])C([H])([H])C3([H])[H])C([H])([H])C([H])([H])C([H])([H])[N+]([H])([H])[H])c([H])c([H])c2C1([H])[H]

>  <smiles>  (46) 
[H]c1c([H])c([H])c2c(c1[H])C([H])([H])C([H])([H])C([H])([H])C2([H])N([H])C(=O)C1([H])N(C(=O)C([H])(N([H])C(=O)C([H])(N([H])C([H])([H])[H])C([H])([H])[H])C(C([H])([H])[H])(C([H])([H])[H])C([H])([H])[H])C([H])([H])c2c([H])c(OC([H])([H])C([H])([H])N([H])C(=O)C([H])(N([H])C(=O)C3([H])N(C(=O)N4C([H])([H])C([H])([H])C([H])([H])C([H])(n5nc(-c6c([H])c([H])c(Oc7c([H])c([H])c(F)c([H])c7F)c([H])c6[H])c(C(=O)N([H])[H])c5N([H])[H])C4([H])[H])C([H])([H])C([H])([H])C3([H])[H])C([H])([H])C([H])([H])C([H])([H])[N+]([H])([H])[H])c([H])c([H])c2C1([H])[H]

$$$$
48:0:0
     RDKit          3D

 96104  0  0  1  0  0  0  0  0999 V2000
  -30.9950  -22.9850   21.1340 C   0  0  0  0  0  0  0  0  0  0  0  0
  -31.8480  -20.0320   23.2000 C   0  0  0  0  0  2  0  0  0  0  0  0
  -30.3670  -20.2500   23.4880 C   0  0  0  0  0  2  0  0  0  0  0  0
  -32.2360  -21.2530   22.3600 C   0  0  0  0  0  2  0  0  0  0  0  0
  -29.8290  -21.0120   22.2610 C   0  0  0  0  0  3  0  0  0  0  0  0
  -30.9860  -21.8110   21.8180 N   0  0  0  0  0  0  0  0  0  0  0  0
  -32.0460  -23.4250   20.6610 O   0  0  0  0  0  0  0  0  0  0  0  0
  -29.3590  -19.9800   21.2020 C   0  0  0  0  0  0  0  0  0  0  0  0
  -30.2110  -19.0210   20.8100 N   0  0  0  0  0  0  0  0  0  0  0  0
  -28.2060  -20.0340   20.7740 O   0  0  0  0  0  0  0  0  0  0  0  0
  -31.1570  -19.0370   21.1710 H   0  0  0  0  0  0  0  0  0  0  0  0
  -29.8720  -17.8540   19.9900 C   0  0  0  0  0  2  0  0  0  0  0  0
  -31.4720  -14.4480   19.8510 C   0  0  0  0  0  0  0  0  0  0  0  0
  -31.1250  -12.1000   19.1700 C   0  0  0  0  0  2  0  0  0  0  0  0
  -30.1860  -12.0810   17.9450 C   0  0  0  0  0  2  0  0  0  0  0  0
  -28.7060  -12.0890   18.3820 C   0  0  0  0  0  2  0  0  0  0  0  0
  -28.3980  -13.1790   19.4430 C   0  0  0  0  0  3  0  0  0  0  0  0
  -29.4450  -13.1440   20.5820 C   0  0  0  0  0  2  0  0  0  0  0  0
  -30.7770  -13.2840   19.9700 N   0  0  0  0  0  0  0  0  0  0  0  0
  -32.6220  -14.4820   19.4030 O   0  0  0  0  0  0  0  0  0  0  0  0
  -31.0390  -16.8500   19.9300 C   0  0  0  0  0  0  0  0  0  0  0  0
  -30.7210  -15.5490   20.0760 N   0  0  0  0  0  0  0  0  0  0  0  0
  -32.1820  -17.2870   19.7550 O   0  0  0  0  0  0  0  0  0  0  0  0
  -29.7660  -15.3580   20.3190 H   0  0  0  0  0  0  0  0  0  0  0  0
  -26.1110  -14.0630   20.2280 C   0  0  0  0  0  0  0  0  0  0  0  0
  -24.9700  -13.4180   20.6250 C   0  0  0  0  0  0  0  0  0  0  0  0
  -25.2670  -12.0210   20.5690 C   0  0  0  0  0  0  0  0  0  0  0  0
  -27.0350  -13.0650   19.9560 N   0  0  0  0  0  0  0  0  0  0  0  0
  -26.5320  -11.8320   20.2200 N   0  0  0  0  0  0  0  0  0  0  0  0
  -24.4020  -10.8520   20.7710 C   0  0  0  0  0  0  0  0  0  0  0  0
  -24.7480   -9.8260   21.6780 C   0  0  0  0  0  3  0  0  0  0  0  0
  -23.8910   -8.7200   21.8660 C   0  0  0  0  0  3  0  0  0  0  0  0
  -22.6750   -8.6330   21.1490 C   0  0  0  0  0  0  0  0  0  0  0  0
  -22.3460   -9.6460   20.2310 C   0  0  0  0  0  3  0  0  0  0  0  0
  -23.2030  -10.7430   20.0400 C   0  0  0  0  0  3  0  0  0  0  0  0
  -21.7940   -7.5830   21.2480 O   0  0  0  0  0  0  0  0  0  0  0  0
  -21.6820   -6.8450   22.4000 C   0  0  0  0  0  0  0  0  0  0  0  0
  -21.3350   -7.4390   23.6330 C   0  0  0  0  0  3  0  0  0  0  0  0
  -21.1600   -6.6340   24.7760 C   0  0  0  0  0  3  0  0  0  0  0  0
  -21.3220   -5.2380   24.6880 C   0  0  0  0  0  0  0  0  0  0  0  0
  -21.6620   -4.6450   23.4590 C   0  0  0  0  0  3  0  0  0  0  0  0
  -21.8390   -5.4470   22.3180 C   0  0  0  0  0  0  0  0  0  0  0  0
  -22.1440   -4.8680   21.1320 F   0  0  0  0  0  0  0  0  0  0  0  0
  -21.1470   -4.4650   25.7850 F   0  0  0  0  0  0  0  0  0  0  0  0
  -23.6480  -14.0550   20.9400 C   0  0  0  0  0  0  0  0  0  0  0  0
  -22.8820  -13.4630   21.8510 N   0  0  0  0  0  0  0  0  0  0  0  0
  -23.3060  -15.1120   20.4130 O   0  0  0  0  0  0  0  0  0  0  0  0
  -23.1710  -12.6090   22.3040 H   0  0  0  0  0  0  0  0  0  0  0  0
  -21.9940  -13.8740   22.1020 H   0  0  0  0  0  0  0  0  0  0  0  0
  -26.4320  -15.4060   20.0560 N   0  0  0  0  0  0  0  0  0  0  0  0
  -25.7420  -16.1370   20.1860 H   0  0  0  0  0  0  0  0  0  0  0  0
  -27.2820  -15.7410   19.6210 H   0  0  0  0  0  0  0  0  0  0  0  0
  -29.7340  -23.8730   21.0060 C   0  0  0  0  0  2  0  0  0  0  0  0
  -30.0860  -25.3520   21.3450 C   0  0  0  0  0  2  0  0  0  0  0  0
  -28.9250  -26.3680   21.3840 C   0  0  0  0  0  2  0  0  0  0  0  0
  -28.6000  -26.8960   20.0970 O   0  0  0  0  0  0  0  0  0  0  0  0
  -24.6910  -31.9500   23.2670 C   0  0  0  0  0  0  0  0  0  0  0  0
  -27.4530  -27.6550   20.1010 C   0  0  0  0  0  0  0  0  0  0  0  0
  -23.5240  -30.5550   21.5900 C   0  0  0  0  0  3  0  0  0  0  0  0
  -25.0210  -29.0870   20.1330 C   0  0  0  0  0  0  0  0  0  0  0  0
  -26.0370  -30.9860   21.4040 C   0  0  0  0  0  2  0  0  0  0  0  0
  -26.1610  -29.6320   20.7400 C   0  0  0  0  0  0  0  0  0  0  0  0
  -27.3810  -28.9190   20.7300 C   0  0  0  0  0  3  0  0  0  0  0  0
  -26.3060  -27.1300   19.4750 C   0  0  0  0  0  3  0  0  0  0  0  0
  -25.0870  -27.8350   19.4970 C   0  0  0  0  0  3  0  0  0  0  0  0
  -23.7540  -29.9110   20.1960 C   0  0  0  0  0  2  0  0  0  0  0  0
  -24.7680  -31.1770   22.1480 N   0  0  0  0  0  0  0  0  0  0  0  0
  -23.6030  -32.1830   23.8110 O   0  0  0  0  0  0  0  0  0  0  0  0
  -22.8960  -29.4960   22.5250 C   0  0  0  0  0  0  0  0  0  0  0  0
  -21.5750  -29.2920   22.3970 N   0  0  0  0  0  0  0  0  0  0  0  0
  -23.5940  -28.8630   23.3210 O   0  0  0  0  0  0  0  0  0  0  0  0
  -21.0710  -29.8590   21.7290 H   0  0  0  0  0  0  0  0  0  0  0  0
  -18.2230  -28.0350   22.8830 C   0  0  0  0  0  0  0  0  0  0  0  0
  -20.7800  -28.3190   23.1450 C   0  0  0  0  0  3  0  0  0  0  0  0
  -20.8970  -26.9090   22.5230 C   0  0  0  0  0  2  0  0  0  0  0  0
  -19.7920  -26.6030   21.5080 C   0  0  0  0  0  2  0  0  0  0  0  0
  -18.4130  -26.7090   22.1660 C   0  0  0  0  0  2  0  0  0  0  0  0
  -19.3350  -28.7990   23.3300 C   0  0  0  0  0  0  0  0  0  0  0  0
  -19.1050  -30.0400   23.9580 C   0  0  0  0  0  3  0  0  0  0  0  0
  -17.7950  -30.5200   24.1490 C   0  0  0  0  0  3  0  0  0  0  0  0
  -16.6970  -29.7530   23.7200 C   0  0  0  0  0  3  0  0  0  0  0  0
  -16.9130  -28.5120   23.0940 C   0  0  0  0  0  3  0  0  0  0  0  0
  -25.9610  -32.5970   23.9030 C   0  0  0  0  0  3  0  0  0  0  0  0
  -25.6350  -33.9950   24.2150 N   0  0  0  0  0  0  0  0  0  0  0  0
  -25.9690  -35.0420   23.4500 C   0  0  0  0  0  0  0  0  0  0  0  0
  -26.6560  -34.9350   22.4300 O   0  0  0  0  0  0  0  0  0  0  0  0
  -25.0270  -34.1520   25.0050 H   0  0  0  0  0  0  0  0  0  0  0  0
  -24.2280  -36.8130   23.0500 C   0  0  0  0  0  1  0  0  0  0  0  0
  -25.4610  -36.4300   23.8850 C   0  0  0  0  0  3  0  0  0  0  0  0
  -27.5710  -37.3470   24.7420 C   0  0  0  0  0  1  0  0  0  0  0  0
  -26.4830  -37.4920   23.7770 N   0  0  0  0  0  0  0  0  0  0  0  0
  -26.0650  -38.4100   23.9060 H   0  0  0  0  0  0  0  0  0  0  0  0
  -26.4680  -31.8400   25.1920 C   0  0  1  0  0  0  0  0  0  0  0  0
  -25.3600  -31.5900   26.2410 C   0  0  0  0  0  1  0  0  0  0  0  0
  -27.0800  -30.4710   24.8150 C   0  0  0  0  0  1  0  0  0  0  0  0
  -27.5920  -32.6560   25.8730 C   0  0  0  0  0  1  0  0  0  0  0  0
  1  6  1  0
  2  3  1  0
  4  2  1  0
  5  8  1  0
  5  3  1  0
  6  5  1  0
  6  4  1  0
  7  1  2  0
  9 11  1  0
  9  8  1  0
 10  8  2  0
 12  9  1  0
 13 19  1  0
 13 22  1  0
 14 19  1  0
 15 16  1  0
 15 14  1  0
 17 16  1  0
 17 28  1  0
 17 18  1  0
 19 18  1  0
 20 13  2  0
 21 12  1  0
 21 22  1  0
 22 24  1  0
 23 21  2  0
 25 26  2  0
 26 45  1  0
 27 26  1  0
 27 30  1  0
 28 29  1  0
 28 25  1  0
 29 27  2  0
 30 31  1  0
 31 32  2  0
 33 36  1  0
 33 32  1  0
 34 33  2  0
 35 34  1  0
 35 30  2  0
 36 37  1  0
 37 38  1  0
 38 39  2  0
 40 39  1  0
 40 44  1  0
 41 40  2  0
 42 37  2  0
 42 41  1  0
 43 42  1  0
 45 46  1  0
 46 49  1  0
 46 48  1  0
 47 45  2  0
 50 51  1  0
 50 25  1  0
 52 50  1  0
 53  1  1  0
 53 54  1  0
 54 55  1  0
 56 58  1  0
 56 55  1  0
 57 68  2  0
 58 63  1  0
 59 67  1  0
 59 69  1  0
 60 66  1  0
 60 62  1  0
 61 67  1  0
 62 61  1  0
 63 62  2  0
 64 65  1  0
 64 58  2  0
 65 60  2  0
 66 59  1  0
 67 57  1  0
 69 71  2  0
 70 69  1  0
 72 70  1  0
 73 82  2  0
 73 78  1  0
 74 70  1  0
 74 78  1  0
 75 74  1  0
 76 77  1  0
 76 75  1  0
 77 73  1  0
 78 79  2  0
 79 80  1  0
 81 80  2  0
 82 81  1  0
 83 57  1  0
 83 84  1  0
 83 93  1  0
 84 87  1  0
 85 89  1  0
 85 84  1  0
 86 85  2  0
 89 88  1  0
 91 89  1  0
 91 92  1  0
 91 90  1  0
 93 96  1  1
 93 94  1  0
 95 93  1  0
M  ISO  4  13 100  22 100  55 101  56 101
M  END
>  <TORSDO>  (47) 
F 21

>  <SCORE>  (47) 
-12.610

>  <name>  (47) 
48

>  <ligand_id>  (47) 
48

>  <original_smiles>  (47) 
[H]c1c([H])c([H])c2c(c1[H])C([H])([H])C([H])([H])C([H])([H])C2([H])N([H])C(=O)C1([H])N(C(=O)C([H])(N([H])C(=O)C([H])(N([H])C([H])([H])[H])C([H])([H])[H])C(C([H])([H])[H])(C([H])([H])[H])C([H])([H])[H])C([H])([H])c2c([H])c(OC([H])([H])C([H])([H])C([H])([H])C(=O)N3C([H])([H])C([H])([H])C([H])([H])C3([H])C(=O)N([H])C([H])([H])C(=O)N([H])C(=O)N3C([H])([H])C([H])([H])C([H])([H])C([H])(n4nc(-c5c([H])c([H])c(Oc6c([H])c([H])c(F)c([H])c6F)c([H])c5[H])c(C(=O)N([H])[H])c4N([H])[H])C3([H])[H])c([H])c([H])c2C1([H])[H]

>  <smiles>  (47) 
[H]c1c([H])c([H])c2c(c1[H])C([H])([H])C([H])([H])C([H])([H])C2([H])N([H])C(=O)C1([H])N(C(=O)C([H])(N([H])C(=O)C([H])(N([H])C([H])([H])[H])C([H])([H])[H])C(C([H])([H])[H])(C([H])([H])[H])C([H])([H])[H])C([H])([H])c2c([H])c(OC([H])([H])C([H])([H])C([H])([H])C(=O)N3C([H])([H])C([H])([H])C([H])([H])C3([H])C(=O)N([H])C([H])([H])C(=O)N([H])C(=O)N3C([H])([H])C([H])([H])C([H])([H])C([H])(n4nc(-c5c([H])c([H])c(Oc6c([H])c([H])c(F)c([H])c6F)c([H])c5[H])c(C(=O)N([H])[H])c4N([H])[H])C3([H])[H])c([H])c([H])c2C1([H])[H]

$$$$
49:0:0
     RDKit          3D

 92 99  0  0  1  0  0  0  0  0999 V2000
  -29.6950  -21.2830   20.6130 C   0  0  0  0  0  0  0  0  0  0  0  0
  -30.8630  -21.4170   21.2640 N   0  0  0  0  0  4  0  0  0  0  0  0
  -28.9670  -22.4170   20.2730 N   0  0  0  0  0  0  0  0  0  0  0  0
  -31.4210  -20.6060   21.5010 H   0  0  0  0  0  0  0  0  0  0  0  0
  -31.2400  -22.3120   21.5360 H   0  0  0  0  0  0  0  0  0  0  0  0
  -28.1050  -22.2460   19.7670 H   0  0  0  0  0  0  0  0  0  0  0  0
  -29.2050  -19.8370   20.2630 C   0  0  0  0  0  3  0  0  0  0  0  0
  -30.0540  -18.5290   20.7260 C   0  0  0  0  0  3  0  0  0  0  0  0
  -29.5790  -16.9480   18.7390 C   0  0  0  0  0  1  0  0  0  0  0  0
  -28.0030  -17.0860   20.6890 C   0  0  0  0  0  1  0  0  0  0  0  0
  -29.4850  -17.0750   20.2760 C   0  0  2  0  0  0  0  0  0  0  0  0
  -30.6820  -14.6900   20.4010 C   0  0  0  0  0  0  0  0  0  0  0  0
  -30.4360  -12.4270   19.3740 C   0  0  0  0  0  2  0  0  0  0  0  0
  -29.5200  -12.5480   18.1360 C   0  0  0  0  0  2  0  0  0  0  0  0
  -28.0370  -12.4050   18.5350 C   0  0  0  0  0  2  0  0  0  0  0  0
  -27.6660  -13.2870   19.7570 C   0  0  0  0  0  3  0  0  0  0  0  0
  -28.7080  -13.1530   20.8970 C   0  0  0  0  0  2  0  0  0  0  0  0
  -30.0390  -13.4710   20.3490 N   0  0  0  0  0  0  0  0  0  0  0  0
  -31.7980  -14.8320   19.8950 O   0  0  0  0  0  0  0  0  0  0  0  0
  -29.9820  -15.7690   20.9050 N   0  0  0  0  0  0  0  0  0  0  0  0
  -29.3070  -15.4310   21.5750 H   0  0  0  0  0  0  0  0  0  0  0  0
  -25.2500  -13.9090   20.4030 C   0  0  0  0  0  0  0  0  0  0  0  0
  -24.1800  -13.1560   20.7890 C   0  0  0  0  0  0  0  0  0  0  0  0
  -24.6340  -11.8020   20.7890 C   0  0  0  0  0  0  0  0  0  0  0  0
  -26.3040  -13.0240   20.2190 N   0  0  0  0  0  0  0  0  0  0  0  0
  -25.9300  -11.7490   20.5030 N   0  0  0  0  0  0  0  0  0  0  0  0
  -23.8900  -10.5530   20.9850 C   0  0  0  0  0  0  0  0  0  0  0  0
  -24.3080   -9.5830   21.9220 C   0  0  0  0  0  3  0  0  0  0  0  0
  -23.5600   -8.4000   22.1080 C   0  0  0  0  0  3  0  0  0  0  0  0
  -22.3820   -8.1810   21.3550 C   0  0  0  0  0  0  0  0  0  0  0  0
  -21.9830   -9.1380   20.4070 C   0  0  0  0  0  3  0  0  0  0  0  0
  -22.7310  -10.3110   20.2190 C   0  0  0  0  0  3  0  0  0  0  0  0
  -21.6070   -7.0490   21.4500 O   0  0  0  0  0  0  0  0  0  0  0  0
  -21.5600   -6.3040   22.6010 C   0  0  0  0  0  0  0  0  0  0  0  0
  -21.1710   -6.8660   23.8370 C   0  0  0  0  0  3  0  0  0  0  0  0
  -21.0660   -6.0490   24.9790 C   0  0  0  0  0  3  0  0  0  0  0  0
  -21.3440   -4.6720   24.8890 C   0  0  0  0  0  0  0  0  0  0  0  0
  -21.7290   -4.1100   23.6590 C   0  0  0  0  0  3  0  0  0  0  0  0
  -21.8350   -4.9240   22.5190 C   0  0  0  0  0  0  0  0  0  0  0  0
  -22.1850   -4.3740   21.3310 F   0  0  0  0  0  0  0  0  0  0  0  0
  -21.2370   -3.8860   25.9850 F   0  0  0  0  0  0  0  0  0  0  0  0
  -22.7860  -13.6550   21.0370 C   0  0  0  0  0  0  0  0  0  0  0  0
  -22.0420  -12.9870   21.9110 N   0  0  0  0  0  0  0  0  0  0  0  0
  -22.3670  -14.6780   20.4950 O   0  0  0  0  0  0  0  0  0  0  0  0
  -22.3920  -12.1620   22.3720 H   0  0  0  0  0  0  0  0  0  0  0  0
  -21.1080  -13.3090   22.1200 H   0  0  0  0  0  0  0  0  0  0  0  0
  -25.3840  -15.2700   20.1660 N   0  0  0  0  0  0  0  0  0  0  0  0
  -24.5830  -15.8900   20.2090 H   0  0  0  0  0  0  0  0  0  0  0  0
  -26.2110  -15.7150   19.7930 H   0  0  0  0  0  0  0  0  0  0  0  0
  -29.2530  -23.9070   20.4980 C   0  0  0  0  0  3  0  0  0  0  0  0
  -28.1300  -24.9710   20.0520 C   0  0  0  0  0  3  0  0  0  0  0  0
  -28.3270  -26.4420   20.2400 O   0  0  0  0  0  0  0  0  0  0  0  0
  -24.6020  -31.8900   23.2180 C   0  0  0  0  0  0  0  0  0  0  0  0
  -27.2080  -27.3000   20.1780 C   0  0  0  0  0  0  0  0  0  0  0  0
  -23.3940  -30.4840   21.5880 C   0  0  0  0  0  3  0  0  0  0  0  0
  -24.8410  -28.9230   20.1670 C   0  0  0  0  0  0  0  0  0  0  0  0
  -25.9350  -30.7940   21.4010 C   0  0  0  0  0  2  0  0  0  0  0  0
  -26.0130  -29.4140   20.7550 C   0  0  0  0  0  0  0  0  0  0  0  0
  -27.1980  -28.6160   20.7470 C   0  0  0  0  0  3  0  0  0  0  0  0
  -26.0080  -26.8700   19.5640 C   0  0  0  0  0  3  0  0  0  0  0  0
  -24.8410  -27.6580   19.5610 C   0  0  0  0  0  3  0  0  0  0  0  0
  -23.6030  -29.7960   20.2130 C   0  0  0  0  0  2  0  0  0  0  0  0
  -24.6630  -31.0750   22.1240 N   0  0  0  0  0  0  0  0  0  0  0  0
  -23.5200  -32.1720   23.7530 O   0  0  0  0  0  0  0  0  0  0  0  0
  -22.7290  -29.4780   22.5560 C   0  0  0  0  0  0  0  0  0  0  0  0
  -21.4020  -29.3060   22.4340 N   0  0  0  0  0  0  0  0  0  0  0  0
  -23.4070  -28.8530   23.3760 O   0  0  0  0  0  0  0  0  0  0  0  0
  -20.9160  -29.8520   21.7370 H   0  0  0  0  0  0  0  0  0  0  0  0
  -18.0210  -28.1340   22.9580 C   0  0  0  0  0  0  0  0  0  0  0  0
  -20.5820  -28.3760   23.2120 C   0  0  0  0  0  3  0  0  0  0  0  0
  -20.6720  -26.9450   22.6370 C   0  0  0  0  0  2  0  0  0  0  0  0
  -19.5620  -26.6270   21.6300 C   0  0  0  0  0  2  0  0  0  0  0  0
  -18.1840  -26.7840   22.2820 C   0  0  0  0  0  2  0  0  0  0  0  0
  -19.1480  -28.8890   23.3800 C   0  0  0  0  0  0  0  0  0  0  0  0
  -18.9410  -30.1550   23.9730 C   0  0  0  0  0  3  0  0  0  0  0  0
  -17.6400  -30.6650   24.1470 C   0  0  0  0  0  3  0  0  0  0  0  0
  -16.5290  -29.9060   23.7440 C   0  0  0  0  0  3  0  0  0  0  0  0
  -16.7190  -28.6430   23.1540 C   0  0  0  0  0  3  0  0  0  0  0  0
  -25.8880  -32.5220   23.8350 C   0  0  0  0  0  3  0  0  0  0  0  0
  -25.5800  -33.9190   24.1730 N   0  0  0  0  0  0  0  0  0  0  0  0
  -25.9100  -34.9760   23.4200 C   0  0  0  0  0  0  0  0  0  0  0  0
  -26.5780  -34.8790   22.3870 O   0  0  0  0  0  0  0  0  0  0  0  0
  -24.9900  -34.0680   24.9780 H   0  0  0  0  0  0  0  0  0  0  0  0
  -24.1850  -36.7740   23.0770 C   0  0  0  0  0  1  0  0  0  0  0  0
  -25.4240  -36.3620   23.8880 C   0  0  0  0  0  3  0  0  0  0  0  0
  -27.5570  -37.2390   24.7310 C   0  0  0  0  0  1  0  0  0  0  0  0
  -26.4580  -37.4140   23.7850 N   0  0  0  0  0  0  0  0  0  0  0  0
  -26.0520  -38.3330   23.9380 H   0  0  0  0  0  0  0  0  0  0  0  0
  -26.4140  -31.7470   25.1070 C   0  0  1  0  0  0  0  0  0  0  0  0
  -25.3250  -31.5050   26.1770 C   0  0  0  0  0  1  0  0  0  0  0  0
  -26.9970  -30.3710   24.7110 C   0  0  0  0  0  1  0  0  0  0  0  0
  -27.5660  -32.5410   25.7650 C   0  0  0  0  0  1  0  0  0  0  0  0
  1  2  2  0
  2  4  1  0
  2  5  1  0
  3 50  1  0
  3  1  1  0
  6  3  1  0
  7  1  1  0
  7  8  2  0
 11  9  1  6
 11 10  1  0
 11  8  1  0
 11 20  1  0
 12 20  1  0
 13 18  1  0
 14 15  1  0
 14 13  1  0
 16 15  1  0
 16 25  1  0
 16 17  1  0
 18 12  1  0
 18 17  1  0
 19 12  2  0
 20 21  1  0
 22 23  2  0
 23 42  1  0
 24 23  1  0
 24 27  1  0
 25 22  1  0
 25 26  1  0
 26 24  2  0
 27 28  1  0
 28 29  2  0
 30 33  1  0
 30 29  1  0
 31 30  2  0
 32 31  1  0
 32 27  2  0
 33 34  1  0
 34 35  1  0
 35 36  2  0
 37 36  1  0
 37 41  1  0
 38 37  2  0
 39 34  2  0
 39 38  1  0
 40 39  1  0
 42 43  1  0
 43 46  1  0
 43 45  1  0
 44 42  2  0
 47 48  1  0
 47 22  1  0
 49 47  1  0
 51 52  1  0
 51 50  2  0
 53 64  2  0
 54 52  1  0
 54 59  1  0
 55 63  1  0
 55 65  1  0
 56 62  1  0
 56 58  1  0
 57 63  1  0
 58 57  1  0
 59 58  2  0
 60 54  2  0
 61 60  1  0
 61 56  2  0
 62 55  1  0
 63 53  1  0
 65 67  2  0
 66 65  1  0
 68 66  1  0
 69 78  2  0
 69 74  1  0
 70 66  1  0
 70 74  1  0
 71 70  1  0
 72 73  1  0
 72 71  1  0
 73 69  1  0
 74 75  2  0
 75 76  1  0
 77 76  2  0
 78 77  1  0
 79 53  1  0
 79 80  1  0
 79 89  1  0
 80 83  1  0
 81 85  1  0
 81 80  1  0
 82 81  2  0
 85 84  1  0
 87 85  1  0
 87 88  1  0
 87 86  1  0
 89 92  1  1
 89 90  1  0
 91 89  1  0
M  ISO  4  12 100  20 100  51 101  52 101
M  END
>  <TORSDO>  (48) 
F 21

>  <SCORE>  (48) 
-13.182

>  <name>  (48) 
49

>  <ligand_id>  (48) 
49

>  <original_smiles>  (48) 
[H]c1c([H])c([H])c2c(c1[H])C([H])([H])C([H])([H])C([H])([H])C2([H])N([H])C(=O)C1([H])N(C(=O)C([H])(N([H])C(=O)C([H])(N([H])C([H])([H])[H])C([H])([H])[H])C(C([H])([H])[H])(C([H])([H])[H])C([H])([H])[H])C([H])([H])c2c([H])c(OC([H])([H])C([H])([H])[N+]([H])=C(N([H])[H])C([H])([H])C([H])([H])C(N([H])C(=O)N3C([H])([H])C([H])([H])C([H])([H])C([H])(n4nc(-c5c([H])c([H])c(Oc6c([H])c([H])c(F)c([H])c6F)c([H])c5[H])c(C(=O)N([H])[H])c4N([H])[H])C3([H])[H])(C([H])([H])[H])C([H])([H])[H])c([H])c([H])c2C1([H])[H]

>  <smiles>  (48) 
[H]c1c([H])c([H])c2c(c1[H])C([H])([H])C([H])([H])C([H])([H])C2([H])N([H])C(=O)C1([H])N(C(=O)C([H])(N([H])C(=O)C([H])(N([H])C([H])([H])[H])C([H])([H])[H])C(C([H])([H])[H])(C([H])([H])[H])C([H])([H])[H])C([H])([H])c2c([H])c(OC([H])([H])C([H])([H])[N+]([H])=C(N([H])[H])C([H])([H])C([H])([H])C(N([H])C(=O)N3C([H])([H])C([H])([H])C([H])([H])C([H])(n4nc(-c5c([H])c([H])c(Oc6c([H])c([H])c(F)c([H])c6F)c([H])c5[H])c(C(=O)N([H])[H])c4N([H])[H])C3([H])[H])(C([H])([H])[H])C([H])([H])[H])c([H])c([H])c2C1([H])[H]

$$$$
50:0:0
     RDKit          3D

 99109  0  0  1  0  0  0  0  0999 V2000
  -29.2090  -20.8660   20.9570 C   0  0  0  0  0  2  0  0  0  0  0  0
  -30.2980  -22.1640   22.7170 C   0  0  0  0  0  2  0  0  0  0  0  0
  -29.8260  -19.9010   22.0090 C   0  0  0  0  0  3  0  0  0  0  0  0
  -29.5900  -22.3090   21.3520 C   0  0  0  0  0  3  0  0  0  0  0  0
  -30.3990  -20.7290   23.0780 N   0  0  0  0  0  4  0  0  0  0  0  0
  -29.8970  -20.5400   23.9310 H   0  0  0  0  0  0  0  0  0  0  0  0
  -31.3510  -20.4330   23.2160 H   0  0  0  0  0  0  0  0  0  0  0  0
  -30.8160  -18.7620   21.5980 C   0  0  0  0  0  0  0  0  0  0  0  0
  -31.3660  -18.7220   20.3730 N   0  0  0  0  0  0  0  0  0  0  0  0
  -30.9870  -17.8260   22.3780 O   0  0  0  0  0  0  0  0  0  0  0  0
  -31.4660  -19.6350   19.9450 H   0  0  0  0  0  0  0  0  0  0  0  0
  -32.4710  -15.6310   19.7220 C   0  0  0  0  0  0  0  0  0  0  0  0
  -32.0430  -13.2990   19.0340 C   0  0  0  0  0  2  0  0  0  0  0  0
  -31.1340  -13.2950   17.7970 C   0  0  0  0  0  2  0  0  0  0  0  0
  -29.6390  -13.3880   18.1820 C   0  0  0  0  0  2  0  0  0  0  0  0
  -29.3380  -14.4120   19.3080 C   0  0  0  0  0  3  0  0  0  0  0  0
  -30.3900  -14.3820   20.4360 C   0  0  0  0  0  2  0  0  0  0  0  0
  -31.7020  -14.5030   19.8040 N   0  0  0  0  0  0  0  0  0  0  0  0
  -33.7010  -15.5340   19.6900 O   0  0  0  0  0  0  0  0  0  0  0  0
  -31.8670  -19.3820   17.6890 C   0  0  0  0  0  2  0  0  0  0  0  0
  -30.1850  -17.6970   16.9570 C   0  0  0  0  0  2  0  0  0  0  0  0
  -33.0530  -18.3960   17.6030 C   0  0  0  0  0  2  0  0  0  0  0  0
  -31.4150  -16.8740   16.5270 C   0  0  0  0  0  2  0  0  0  0  0  0
  -30.5940  -18.6010   18.1360 C   0  0  0  0  0  3  0  0  0  0  0  0
  -32.5160  -16.9470   17.6280 C   0  0  0  0  0  3  0  0  0  0  0  0
  -30.9420  -17.7170   19.3820 C   0  0  0  0  0  3  0  0  0  0  0  0
  -31.9320  -16.6570   18.9730 N   0  0  0  0  0  0  0  0  0  0  0  0
  -27.0490  -15.2640   20.0970 C   0  0  0  0  0  0  0  0  0  0  0  0
  -25.9030  -14.6120   20.4650 C   0  0  0  0  0  0  0  0  0  0  0  0
  -26.2010  -13.2160   20.3880 C   0  0  0  0  0  0  0  0  0  0  0  0
  -27.9770  -14.2750   19.8220 N   0  0  0  0  0  0  0  0  0  0  0  0
  -27.4750  -13.0350   20.0630 N   0  0  0  0  0  0  0  0  0  0  0  0
  -25.3300  -12.0410   20.5340 C   0  0  0  0  0  0  0  0  0  0  0  0
  -25.6440  -10.9940   21.4280 C   0  0  0  0  0  3  0  0  0  0  0  0
  -24.7830   -9.8810   21.5600 C   0  0  0  0  0  3  0  0  0  0  0  0
  -23.5930   -9.8100   20.7950 C   0  0  0  0  0  0  0  0  0  0  0  0
  -23.2990  -10.8430   19.8860 C   0  0  0  0  0  3  0  0  0  0  0  0
  -24.1610  -11.9430   19.7520 C   0  0  0  0  0  3  0  0  0  0  0  0
  -22.7110   -8.7560   20.8420 O   0  0  0  0  0  0  0  0  0  0  0  0
  -22.4720   -8.0680   22.0050 C   0  0  0  0  0  0  0  0  0  0  0  0
  -22.0180   -8.7180   23.1750 C   0  0  0  0  0  3  0  0  0  0  0  0
  -21.7140   -7.9660   24.3270 C   0  0  0  0  0  3  0  0  0  0  0  0
  -21.8590   -6.5660   24.3130 C   0  0  0  0  0  0  0  0  0  0  0  0
  -22.3110   -5.9160   23.1510 C   0  0  0  0  0  3  0  0  0  0  0  0
  -22.6120   -6.6660   21.9990 C   0  0  0  0  0  0  0  0  0  0  0  0
  -23.0240   -6.0320   20.8760 F   0  0  0  0  0  0  0  0  0  0  0  0
  -21.5620   -5.8450   25.4190 F   0  0  0  0  0  0  0  0  0  0  0  0
  -24.5740  -15.2410   20.7660 C   0  0  0  0  0  0  0  0  0  0  0  0
  -23.7700  -14.6030   21.6070 N   0  0  0  0  0  0  0  0  0  0  0  0
  -24.2570  -16.3320   20.2910 O   0  0  0  0  0  0  0  0  0  0  0  0
  -24.0300  -13.7140   22.0060 H   0  0  0  0  0  0  0  0  0  0  0  0
  -22.8820  -15.0090   21.8580 H   0  0  0  0  0  0  0  0  0  0  0  0
  -27.3700  -16.6060   19.9340 N   0  0  0  0  0  0  0  0  0  0  0  0
  -26.6230  -17.2940   19.9080 H   0  0  0  0  0  0  0  0  0  0  0  0
  -28.1480  -16.8770   19.3460 H   0  0  0  0  0  0  0  0  0  0  0  0
  -28.1610  -23.4790   21.4760 S   0  0  0  0  0  0  0  0  0  0  0  0
  -28.0710  -24.5130   19.9500 C   0  0  0  0  0  2  0  0  0  0  0  0
  -27.9670  -26.0440   20.2680 C   0  0  0  0  0  2  0  0  0  0  0  0
  -27.8010  -26.9400   19.1370 O   0  0  0  0  0  0  0  0  0  0  0  0
  -24.6440  -31.7520   23.3160 C   0  0  0  0  0  0  0  0  0  0  0  0
  -26.7340  -27.7950   19.3040 C   0  0  0  0  0  0  0  0  0  0  0  0
  -23.2060  -30.6720   21.6150 C   0  0  0  0  0  3  0  0  0  0  0  0
  -24.4330  -29.3600   19.7990 C   0  0  0  0  0  0  0  0  0  0  0  0
  -25.7130  -30.9960   21.1920 C   0  0  0  0  0  2  0  0  0  0  0  0
  -25.6720  -29.7500   20.3310 C   0  0  0  0  0  0  0  0  0  0  0  0
  -26.8290  -28.9750   20.0740 C   0  0  0  0  0  3  0  0  0  0  0  0
  -25.4860  -27.4210   18.7670 C   0  0  0  0  0  3  0  0  0  0  0  0
  -24.3370  -28.1990   19.0110 C   0  0  0  0  0  3  0  0  0  0  0  0
  -23.2340  -30.2190   20.1280 C   0  0  0  0  0  2  0  0  0  0  0  0
  -24.5460  -31.1420   22.0980 N   0  0  0  0  0  0  0  0  0  0  0  0
  -23.6400  -31.9580   24.0130 O   0  0  0  0  0  0  0  0  0  0  0  0
  -22.6150  -29.5250   22.4670 C   0  0  0  0  0  0  0  0  0  0  0  0
  -21.2960  -29.3010   22.3430 N   0  0  0  0  0  0  0  0  0  0  0  0
  -23.3420  -28.8400   23.1900 O   0  0  0  0  0  0  0  0  0  0  0  0
  -20.7650  -29.8850   21.7120 H   0  0  0  0  0  0  0  0  0  0  0  0
  -18.0270  -27.8120   22.6160 C   0  0  0  0  0  0  0  0  0  0  0  0
  -20.5380  -28.2550   23.0260 C   0  0  0  0  0  3  0  0  0  0  0  0
  -20.7820  -26.8780   22.3720 C   0  0  0  0  0  2  0  0  0  0  0  0
  -19.7630  -26.5200   21.2900 C   0  0  0  0  0  2  0  0  0  0  0  0
  -18.3390  -26.5340   21.8560 C   0  0  0  0  0  2  0  0  0  0  0  0
  -19.0600  -28.6300   23.1460 C   0  0  0  0  0  0  0  0  0  0  0  0
  -18.7150  -29.8260   23.8080 C   0  0  0  0  0  3  0  0  0  0  0  0
  -17.3690  -30.2160   23.9440 C   0  0  0  0  0  3  0  0  0  0  0  0
  -16.3480  -29.3940   23.4320 C   0  0  0  0  0  3  0  0  0  0  0  0
  -16.6780  -28.1930   22.7810 C   0  0  0  0  0  3  0  0  0  0  0  0
  -26.0170  -32.2360   23.8760 C   0  0  0  0  0  3  0  0  0  0  0  0
  -26.6190  -31.2760   24.9750 C   0  0  1  0  0  0  0  0  0  0  0  0
  -25.6290  -30.9420   26.1160 C   0  0  0  0  0  1  0  0  0  0  0  0
  -27.0770  -29.9420   24.3380 C   0  0  0  0  0  1  0  0  0  0  0  0
  -27.8710  -31.9230   25.6130 C   0  0  0  0  0  1  0  0  0  0  0  0
  -25.8170  -33.5860   24.4190 N   0  0  0  0  0  0  0  0  0  0  0  0
  -26.1820  -34.7180   23.8050 C   0  0  0  0  0  0  0  0  0  0  0  0
  -26.7960  -34.7330   22.7330 O   0  0  0  0  0  0  0  0  0  0  0  0
  -25.2710  -33.6510   25.2670 H   0  0  0  0  0  0  0  0  0  0  0  0
  -24.5790  -36.6580   23.7980 C   0  0  0  0  0  1  0  0  0  0  0  0
  -25.8100  -36.0470   24.4890 C   0  0  0  0  0  3  0  0  0  0  0  0
  -28.0200  -36.6520   25.3690 C   0  0  0  0  0  1  0  0  0  0  0  0
  -26.9110  -37.0340   24.4990 N   0  0  0  0  0  0  0  0  0  0  0  0
  -26.5730  -37.9450   24.7980 H   0  0  0  0  0  0  0  0  0  0  0  0
  1  4  1  0
  1  3  1  0
  2  5  1  0
  3  8  1  0
  3  5  1  0
  4 56  1  0
  4  2  1  0
  5  7  1  0
  5  6  1  0
  8 10  2  0
  9  8  1  0
 11  9  1  0
 12 18  1  0
 13 18  1  0
 14 15  1  0
 14 13  1  0
 16 15  1  0
 16 31  1  0
 16 17  1  0
 18 17  1  0
 19 12  2  0
 20 24  1  0
 22 25  1  0
 22 20  1  0
 23 21  1  0
 24 21  1  0
 24 26  1  0
 25 23  1  0
 25 27  1  0
 26  9  1  0
 27 26  1  0
 27 12  1  0
 28 29  2  0
 29 48  1  0
 30 29  1  0
 30 33  1  0
 31 32  1  0
 31 28  1  0
 32 30  2  0
 33 34  1  0
 34 35  2  0
 36 39  1  0
 36 35  1  0
 37 36  2  0
 38 37  1  0
 38 33  2  0
 39 40  1  0
 40 41  1  0
 41 42  2  0
 43 42  1  0
 43 47  1  0
 44 43  2  0
 45 40  2  0
 45 44  1  0
 46 45  1  0
 48 49  1  0
 49 52  1  0
 49 51  1  0
 50 48  2  0
 53 28  1  0
 54 53  1  0
 55 53  1  0
 57 58  1  0
 57 56  1  0
 59 61  1  0
 59 58  1  0
 60 71  2  0
 61 66  1  0
 62 70  1  0
 62 72  1  0
 63 69  1  0
 63 65  1  0
 64 70  1  0
 65 64  1  0
 66 65  2  0
 67 68  1  0
 67 61  2  0
 68 63  2  0
 69 62  1  0
 70 60  1  0
 72 74  2  0
 73 72  1  0
 75 73  1  0
 76 85  2  0
 76 81  1  0
 77 73  1  0
 77 81  1  0
 78 77  1  0
 79 80  1  0
 79 78  1  0
 80 76  1  0
 81 82  2  0
 82 83  1  0
 84 83  2  0
 85 84  1  0
 86 60  1  0
 86 91  1  0
 86 87  1  0
 87 90  1  1
 87 88  1  0
 89 87  1  0
 91 94  1  0
 92 91  1  0
 92 96  1  0
 93 92  2  0
 96 95  1  0
 96 98  1  0
 98 99  1  0
 98 97  1  0
M  ISO  4  12 100  27 100  58 101  59 101
M  END
>  <TORSDO>  (49) 
F 20

>  <SCORE>  (49) 
-9.011

>  <name>  (49) 
50

>  <ligand_id>  (49) 
50

>  <original_smiles>  (49) 
[H]c1c([H])c([H])c2c(c1[H])C([H])([H])C([H])([H])C([H])([H])C2([H])N([H])C(=O)C1([H])N(C(=O)C([H])(N([H])C(=O)C([H])(N([H])C([H])([H])[H])C([H])([H])[H])C(C([H])([H])[H])(C([H])([H])[H])C([H])([H])[H])C([H])([H])c2c([H])c(OC([H])([H])C([H])([H])SC3([H])C([H])([H])C([H])(C(=O)N([H])C4([H])N(C(=O)N5C([H])([H])C([H])([H])C([H])([H])C([H])(n6nc(-c7c([H])c([H])c(Oc8c([H])c([H])c(F)c([H])c8F)c([H])c7[H])c(C(=O)N([H])[H])c6N([H])[H])C5([H])[H])C5([H])C([H])([H])C([H])([H])C4([H])C([H])([H])C5([H])[H])[N+]([H])([H])C3([H])[H])c([H])c([H])c2C1([H])[H]

>  <smiles>  (49) 
[H]c1c([H])c([H])c2c(c1[H])C([H])([H])C([H])([H])C([H])([H])C2([H])N([H])C(=O)C1([H])N(C(=O)C([H])(N([H])C(=O)C([H])(N([H])C([H])([H])[H])C([H])([H])[H])C(C([H])([H])[H])(C([H])([H])[H])C([H])([H])[H])C([H])([H])c2c([H])c(OC([H])([H])C([H])([H])SC3([H])C([H])([H])C([H])(C(=O)N([H])C4([H])N(C(=O)N5C([H])([H])C([H])([H])C([H])([H])C([H])(n6nc(-c7c([H])c([H])c(Oc8c([H])c([H])c(F)c([H])c8F)c([H])c7[H])c(C(=O)N([H])[H])c6N([H])[H])C5([H])[H])C5([H])C([H])([H])C([H])([H])C4([H])C([H])([H])C5([H])[H])[N+]([H])([H])C3([H])[H])c([H])c([H])c2C1([H])[H]

$$$$
51:0:0
     RDKit          3D

 93 99  0  0  1  0  0  0  0  0999 V2000
  -26.3450  -18.6600   18.8390 C   0  0  0  0  0  0  0  0  0  0  0  0
  -27.4590  -19.4100   19.1820 N   0  0  0  0  0  0  0  0  0  0  0  0
  -25.2970  -19.2980   18.7340 O   0  0  0  0  0  0  0  0  0  0  0  0
  -28.3240  -18.8840   19.2340 H   0  0  0  0  0  0  0  0  0  0  0  0
  -27.5220  -20.8080   19.8620 C   0  0  0  0  0  2  0  0  0  0  0  0
  -27.6970  -22.2450   19.1020 C   0  0  0  0  0  2  0  0  0  0  0  0
  -28.3220  -23.5880   19.8410 C   0  0  0  0  0  3  0  0  0  0  0  0
  -27.7490  -25.0800   19.5060 C   0  0  0  0  0  3  0  0  0  0  0  0
  -28.2120  -26.4960   19.9220 O   0  0  0  0  0  0  0  0  0  0  0  0
  -24.6230  -32.0120   23.2900 C   0  0  0  0  0  0  0  0  0  0  0  0
  -27.2110  -27.5160   19.9550 C   0  0  0  0  0  0  0  0  0  0  0  0
  -23.4300  -30.6330   21.6490 C   0  0  0  0  0  3  0  0  0  0  0  0
  -24.8750  -29.1940   20.1200 C   0  0  0  0  0  0  0  0  0  0  0  0
  -25.9780  -30.9770   21.4380 C   0  0  0  0  0  2  0  0  0  0  0  0
  -26.0640  -29.6240   20.7230 C   0  0  0  0  0  0  0  0  0  0  0  0
  -27.2400  -28.7890   20.6490 C   0  0  0  0  0  3  0  0  0  0  0  0
  -26.0040  -27.2340   19.2780 C   0  0  0  0  0  3  0  0  0  0  0  0
  -24.8530  -28.0110   19.3910 C   0  0  0  0  0  3  0  0  0  0  0  0
  -23.6290  -30.0450   20.2370 C   0  0  0  0  0  2  0  0  0  0  0  0
  -24.6970  -31.2260   22.1780 N   0  0  0  0  0  0  0  0  0  0  0  0
  -23.5400  -32.2410   23.8500 O   0  0  0  0  0  0  0  0  0  0  0  0
  -22.8260  -29.5490   22.5770 C   0  0  0  0  0  0  0  0  0  0  0  0
  -21.5150  -29.2860   22.4350 N   0  0  0  0  0  0  0  0  0  0  0  0
  -23.5370  -28.9550   23.3930 O   0  0  0  0  0  0  0  0  0  0  0  0
  -20.9960  -29.8240   21.7560 H   0  0  0  0  0  0  0  0  0  0  0  0
  -18.2300  -27.8170   22.8480 C   0  0  0  0  0  0  0  0  0  0  0  0
  -20.7500  -28.2890   23.1890 C   0  0  0  0  0  3  0  0  0  0  0  0
  -20.9850  -26.8660   22.6330 C   0  0  0  0  0  2  0  0  0  0  0  0
  -19.9450  -26.4450   21.5890 C   0  0  0  0  0  2  0  0  0  0  0  0
  -18.5380  -26.4820   22.1910 C   0  0  0  0  0  2  0  0  0  0  0  0
  -19.2690  -28.6720   23.3030 C   0  0  0  0  0  0  0  0  0  0  0  0
  -18.9290  -29.9170   23.8770 C   0  0  0  0  0  3  0  0  0  0  0  0
  -17.5840  -30.3100   23.9980 C   0  0  0  0  0  3  0  0  0  0  0  0
  -16.5590  -29.4540   23.5580 C   0  0  0  0  0  3  0  0  0  0  0  0
  -16.8820  -28.2090   22.9910 C   0  0  0  0  0  3  0  0  0  0  0  0
  -25.8910  -32.6750   23.9000 C   0  0  0  0  0  3  0  0  0  0  0  0
  -26.4140  -31.9360   25.1930 C   0  0  1  0  0  0  0  0  0  0  0  0
  -25.3200  -31.7000   26.2610 C   0  0  0  0  0  1  0  0  0  0  0  0
  -27.0210  -30.5590   24.8370 C   0  0  0  0  0  1  0  0  0  0  0  0
  -27.5500  -32.7630   25.8410 C   0  0  0  0  0  1  0  0  0  0  0  0
  -25.5530  -34.0730   24.2080 N   0  0  0  0  0  0  0  0  0  0  0  0
  -25.9040  -35.1270   23.4590 C   0  0  0  0  0  0  0  0  0  0  0  0
  -26.6180  -35.0250   22.4570 O   0  0  0  0  0  0  0  0  0  0  0  0
  -24.9200  -34.2240   24.9800 H   0  0  0  0  0  0  0  0  0  0  0  0
  -24.1930  -36.9170   23.0060 C   0  0  0  0  0  1  0  0  0  0  0  0
  -25.3840  -36.5140   23.8890 C   0  0  0  0  0  3  0  0  0  0  0  0
  -27.4650  -37.4020   24.8450 C   0  0  0  0  0  1  0  0  0  0  0  0
  -26.4180  -37.5710   23.8400 N   0  0  0  0  0  0  0  0  0  0  0  0
  -26.0010  -38.4900   23.9670 H   0  0  0  0  0  0  0  0  0  0  0  0
  -26.1440  -17.0580   18.5820 C   0  0  0  0  0  3  0  0  0  0  0  0
  -27.1670  -15.8070   18.6410 C   0  0  0  0  0  3  0  0  0  0  0  0
  -26.6610  -14.2450   18.2730 C   0  0  0  0  0  2  0  0  0  0  0  0
  -27.4290  -12.7390   17.9620 C   0  0  0  0  0  3  0  0  0  0  0  0
  -28.7300  -11.7640   18.5640 C   0  0  0  0  0  3  0  0  0  0  0  0
  -30.0150  -11.9460   19.7560 C   0  0  0  0  0  1  0  0  0  0  0  0
  -32.1690  -13.9580   21.1030 C   0  0  0  0  0  3  0  0  0  0  0  0
  -32.4120  -12.0930   19.4500 C   0  0  0  0  0  2  0  0  0  0  0  0
  -31.3800  -12.9110   18.0210 C   0  0  0  0  0  2  0  0  0  0  0  0
  -29.8210  -13.9850   18.4800 C   0  0  0  0  0  1  0  0  0  0  0  0
  -28.9830  -13.9820   20.4020 C   0  0  0  0  0  2  0  0  0  0  0  0
  -30.0080  -13.1940   21.8270 C   0  0  0  0  0  2  0  0  0  0  0  0
  -31.7000  -12.7640   21.0830 N   0  0  1  0  0  4  0  0  0  0  0  0
  -33.1620  -14.5740   20.6780 O   0  0  0  0  0  1  0  0  0  0  0  0
  -31.2870  -13.7350   20.2120 N   0  0  0  0  0  0  0  0  0  0  0  0
  -31.3250  -14.3950   19.4510 H   0  0  0  0  0  0  0  0  0  0  0  0
  -26.6030  -14.2770   21.1360 C   0  0  0  0  0  0  0  0  0  0  0  0
  -25.5370  -13.4630   21.3460 C   0  0  0  0  0  0  0  0  0  0  0  0
  -25.9740  -12.1240   21.1340 C   0  0  0  0  0  0  0  0  0  0  0  0
  -27.6310  -13.4810   20.7400 N   0  0  0  0  0  0  0  0  0  0  0  0
  -27.2780  -12.1480   20.8850 N   0  0  0  0  0  0  0  0  0  0  0  0
  -25.2030  -10.8600   21.1450 C   0  0  0  0  0  0  0  0  0  0  0  0
  -25.5210   -9.7880   22.0090 C   0  0  0  0  0  3  0  0  0  0  0  0
  -24.7120   -8.6280   22.0540 C   0  0  0  0  0  3  0  0  0  0  0  0
  -23.5720   -8.5190   21.2230 C   0  0  0  0  0  0  0  0  0  0  0  0
  -23.2770   -9.5700   20.3370 C   0  0  0  0  0  3  0  0  0  0  0  0
  -24.0810  -10.7240   20.2990 C   0  0  0  0  0  3  0  0  0  0  0  0
  -22.7400   -7.4230   21.1840 O   0  0  0  0  0  0  0  0  0  0  0  0
  -22.4670   -6.6760   22.3040 C   0  0  0  0  0  0  0  0  0  0  0  0
  -21.8890   -7.2490   23.4590 C   0  0  0  0  0  3  0  0  0  0  0  0
  -21.5570   -6.4320   24.5600 C   0  0  0  0  0  3  0  0  0  0  0  0
  -21.7980   -5.0460   24.5100 C   0  0  0  0  0  0  0  0  0  0  0  0
  -22.3700   -4.4760   23.3590 C   0  0  0  0  0  3  0  0  0  0  0  0
  -22.6980   -5.2860   22.2600 C   0  0  0  0  0  0  0  0  0  0  0  0
  -23.2270   -4.7250   21.1450 F   0  0  0  0  0  0  0  0  0  0  0  0
  -21.4730   -4.2620   25.5630 F   0  0  0  0  0  0  0  0  0  0  0  0
  -24.1670  -13.9470   21.6610 C   0  0  0  0  0  0  0  0  0  0  0  0
  -23.4280  -13.1940   22.4630 N   0  0  0  0  0  0  0  0  0  0  0  0
  -23.7750  -15.0380   21.2490 O   0  0  0  0  0  0  0  0  0  0  0  0
  -23.7650  -12.3040   22.7980 H   0  0  0  0  0  0  0  0  0  0  0  0
  -22.5050  -13.5030   22.7310 H   0  0  0  0  0  0  0  0  0  0  0  0
  -26.7800  -15.6490   21.2330 N   0  0  0  0  0  0  0  0  0  0  0  0
  -26.0120  -16.2700   21.4530 H   0  0  0  0  0  0  0  0  0  0  0  0
  -27.6290  -16.1310   20.9750 H   0  0  0  0  0  0  0  0  0  0  0  0
  1  2  1  0
  2  4  1  0
  2  5  1  0
  3  1  2  0
  6  7  1  0
  6  5  1  0
  8  7  2  0
  8  9  1  0
  9 11  1  0
 10 21  2  0
 11 16  1  0
 12 20  1  0
 12 22  1  0
 13 19  1  0
 13 15  1  0
 14 20  1  0
 15 14  1  0
 16 15  2  0
 17 18  1  0
 17 11  2  0
 18 13  2  0
 19 12  1  0
 20 10  1  0
 22 24  2  0
 23 22  1  0
 25 23  1  0
 26 35  2  0
 26 31  1  0
 27 23  1  0
 27 31  1  0
 28 27  1  0
 29 30  1  0
 29 28  1  0
 30 26  1  0
 31 32  2  0
 32 33  1  0
 34 33  2  0
 35 34  1  0
 36 10  1  0
 36 41  1  0
 36 37  1  0
 37 40  1  1
 37 38  1  0
 39 37  1  0
 41 44  1  0
 42 46  1  0
 42 41  1  0
 43 42  2  0
 46 45  1  0
 48 46  1  0
 48 49  1  0
 48 47  1  0
 50 51  2  0
 50  1  1  0
 52 51  1  0
 53 52  1  0
 53 54  2  0
 54 55  1  0
 56 63  1  0
 62 57  1  1
 58 59  1  0
 58 57  1  0
 60 69  1  0
 60 61  1  0
 62 56  1  0
 62 61  1  0
 64 62  1  0
 64 56  1  0
 65 64  1  0
 66 91  1  0
 66 67  2  0
 67 86  1  0
 68 71  1  0
 68 67  1  0
 69 70  1  0
 69 66  1  0
 70 68  2  0
 71 72  1  0
 72 73  2  0
 74 73  1  0
 75 74  2  0
 76 75  1  0
 76 71  2  0
 77 74  1  0
 77 78  1  0
 78 79  1  0
 79 80  2  0
 81 80  1  0
 81 85  1  0
 82 81  2  0
 83 78  2  0
 83 82  1  0
 84 83  1  0
 86 87  1  0
 87 90  1  0
 87 89  1  0
 88 86  2  0
 91 92  1  0
 93 91  1  0
M  ISO  4   8 101   9 101  56 100  64 100
M  END
>  <TORSDO>  (50) 
F 26

>  <SCORE>  (50) 
-6.005

>  <name>  (50) 
51

>  <ligand_id>  (50) 
51

>  <original_smiles>  (50) 
[H]c1c([H])c([H])c2c(c1[H])C([H])([H])C([H])([H])C([H])([H])C2([H])N([H])C(=O)C1([H])N(C(=O)C([H])(N([H])C(=O)C([H])(N([H])C([H])([H])[H])C([H])([H])[H])C(C([H])([H])[H])(C([H])([H])[H])C([H])([H])[H])C([H])([H])c2c([H])c(OC([H])([H])C([H])([H])C([H])([H])C([H])([H])N([H])C(=O)C([H])([H])C([H])([H])C([H])([H])C([H])([H])C([H])([H])C([H])([H])N([H])C(=O)N3C([H])([H])C([H])([H])C([H])([H])C([H])(n4nc(-c5c([H])c([H])c(Oc6c([H])c([H])c(F)c([H])c6F)c([H])c5[H])c(C(=O)N([H])[H])c4N([H])[H])C3([H])[H])c([H])c([H])c2C1([H])[H]

>  <smiles>  (50) 
[H]c1c([H])c([H])c2c(c1[H])C([H])([H])C([H])([H])C([H])([H])C2([H])N([H])C(=O)C1([H])N(C(=O)C([H])(N([H])C(=O)C([H])(N([H])C([H])([H])[H])C([H])([H])[H])C(C([H])([H])[H])(C([H])([H])[H])C([H])([H])[H])C([H])([H])c2c([H])c(OC([H])([H])C([H])([H])C([H])([H])C([H])([H])N([H])C(=O)C([H])([H])C([H])([H])C([H])([H])C([H])([H])C([H])([H])C([H])([H])N([H])C(=O)N3C([H])([H])C([H])([H])C([H])([H])C([H])(n4nc(-c5c([H])c([H])c(Oc6c([H])c([H])c(F)c([H])c6F)c([H])c5[H])c(C(=O)N([H])[H])c4N([H])[H])C3([H])[H])c([H])c([H])c2C1([H])[H]

$$$$
52:0:0
     RDKit          3D

105113  0  0  1  0  0  0  0  0999 V2000
  -29.2840  -18.1230   20.4280 C   0  0  0  0  0  0  0  0  0  0  0  0
  -29.6980  -19.4030   20.5440 N   0  0  0  0  0  0  0  0  0  0  0  0
  -28.1040  -17.7860   20.5460 O   0  0  0  0  0  0  0  0  0  0  0  0
  -30.6960  -19.5470   20.5190 H   0  0  0  0  0  0  0  0  0  0  0  0
  -28.8800  -20.6320   20.6420 C   0  0  0  0  0  2  0  0  0  0  0  0
  -28.8180  -24.1450   20.3470 C   0  0  0  0  0  0  0  0  0  0  0  0
  -30.1480  -22.7260   23.2890 C   0  0  0  0  0  2  0  0  0  0  0  0
  -30.5290  -21.6020   22.3310 C   0  0  0  0  0  2  0  0  0  0  0  0
  -28.8550  -23.2930   22.7090 C   0  0  0  0  0  2  0  0  0  0  0  0
  -29.7530  -21.8720   21.0210 C   0  0  0  0  0  3  0  0  0  0  0  0
  -29.0010  -23.1390   21.2590 N   0  0  0  0  0  0  0  0  0  0  0  0
  -29.0530  -23.9760   19.1460 O   0  0  0  0  0  0  0  0  0  0  0  0
  -28.3270  -25.5420   20.8380 C   0  0  0  0  0  2  0  0  0  0  0  0
  -28.4050  -26.6040   19.8440 O   0  0  0  0  0  0  0  0  0  0  0  0
  -24.5930  -31.7040   23.0790 C   0  0  0  0  0  0  0  0  0  0  0  0
  -27.2770  -27.4010   19.8350 C   0  0  0  0  0  0  0  0  0  0  0  0
  -23.3970  -30.3240   21.4150 C   0  0  0  0  0  3  0  0  0  0  0  0
  -24.8630  -28.8740   19.9130 C   0  0  0  0  0  0  0  0  0  0  0  0
  -25.9130  -30.7520   21.1900 C   0  0  0  0  0  2  0  0  0  0  0  0
  -26.0220  -29.4020   20.5010 C   0  0  0  0  0  0  0  0  0  0  0  0
  -27.2360  -28.6750   20.4550 C   0  0  0  0  0  3  0  0  0  0  0  0
  -26.1090  -26.9010   19.2260 C   0  0  0  0  0  3  0  0  0  0  0  0
  -24.9030  -27.6240   19.2680 C   0  0  0  0  0  3  0  0  0  0  0  0
  -23.5990  -29.6990   20.0100 C   0  0  0  0  0  2  0  0  0  0  0  0
  -24.6530  -30.9380   21.9540 N   0  0  0  0  0  0  0  0  0  0  0  0
  -23.5150  -31.9320   23.6440 O   0  0  0  0  0  0  0  0  0  0  0  0
  -22.7860  -29.2550   22.3530 C   0  0  0  0  0  0  0  0  0  0  0  0
  -21.4670  -29.0330   22.2350 N   0  0  0  0  0  0  0  0  0  0  0  0
  -23.5010  -28.6280   23.1400 O   0  0  0  0  0  0  0  0  0  0  0  0
  -20.9500  -29.5920   21.5720 H   0  0  0  0  0  0  0  0  0  0  0  0
  -18.1440  -27.6950   22.7100 C   0  0  0  0  0  0  0  0  0  0  0  0
  -20.6890  -28.0470   22.9870 C   0  0  0  0  0  3  0  0  0  0  0  0
  -20.8470  -26.6350   22.3780 C   0  0  0  0  0  2  0  0  0  0  0  0
  -19.7570  -26.2900   21.3590 C   0  0  0  0  0  2  0  0  0  0  0  0
  -18.3720  -26.3680   22.0080 C   0  0  0  0  0  2  0  0  0  0  0  0
  -19.2330  -28.4920   23.1550 C   0  0  0  0  0  0  0  0  0  0  0  0
  -18.9670  -29.7350   23.7700 C   0  0  0  0  0  3  0  0  0  0  0  0
  -17.6440  -30.1820   23.9460 C   0  0  0  0  0  3  0  0  0  0  0  0
  -16.5690  -29.3820   23.5190 C   0  0  0  0  0  3  0  0  0  0  0  0
  -16.8210  -28.1400   22.9070 C   0  0  0  0  0  3  0  0  0  0  0  0
  -25.8690  -32.3530   23.6970 C   0  0  0  0  0  3  0  0  0  0  0  0
  -25.5240  -33.7280   24.0810 N   0  0  0  0  0  0  0  0  0  0  0  0
  -25.8150  -34.8180   23.3570 C   0  0  0  0  0  0  0  0  0  0  0  0
  -26.4710  -34.7720   22.3130 O   0  0  0  0  0  0  0  0  0  0  0  0
  -24.9340  -33.8330   24.8940 H   0  0  0  0  0  0  0  0  0  0  0  0
  -24.0360  -36.5750   23.0880 C   0  0  0  0  0  1  0  0  0  0  0  0
  -25.2960  -36.1720   23.8730 C   0  0  0  0  0  3  0  0  0  0  0  0
  -27.4140  -37.0830   24.7210 C   0  0  0  0  0  1  0  0  0  0  0  0
  -26.2980  -37.2570   23.7940 N   0  0  0  0  0  0  0  0  0  0  0  0
  -25.8670  -38.1580   23.9790 H   0  0  0  0  0  0  0  0  0  0  0  0
  -26.4350  -31.5510   24.9320 C   0  0  1  0  0  0  0  0  0  0  0  0
  -25.3710  -31.2430   26.0110 C   0  0  0  0  0  1  0  0  0  0  0  0
  -27.0500  -30.2090   24.4750 C   0  0  0  0  0  1  0  0  0  0  0  0
  -27.5780  -32.3530   25.5950 C   0  0  0  0  0  1  0  0  0  0  0  0
  -30.3460  -17.0600   20.0390 C   0  0  0  0  0  3  0  0  0  0  0  0
  -30.7000  -14.5660   20.3700 C   0  0  0  0  0  0  0  0  0  0  0  0
  -30.4090  -12.3430   19.3610 C   0  0  0  0  0  2  0  0  0  0  0  0
  -29.4880  -12.5080   18.1330 C   0  0  0  0  0  2  0  0  0  0  0  0
  -28.0070  -12.3970   18.5450 C   0  0  0  0  0  2  0  0  0  0  0  0
  -27.6520  -13.2750   19.7780 C   0  0  0  0  0  3  0  0  0  0  0  0
  -28.7030  -13.1210   20.9020 C   0  0  0  0  0  2  0  0  0  0  0  0
  -30.0250  -13.3850   20.3260 N   0  0  0  0  0  0  0  0  0  0  0  0
  -31.8910  -14.6500   20.0760 O   0  0  0  0  0  0  0  0  0  0  0  0
  -29.9390  -15.6830   20.4460 N   0  0  0  0  0  0  0  0  0  0  0  0
  -28.9580  -15.5660   20.6560 H   0  0  0  0  0  0  0  0  0  0  0  0
  -25.2610  -13.9040   20.4810 C   0  0  0  0  0  0  0  0  0  0  0  0
  -24.1830  -13.1420   20.8470 C   0  0  0  0  0  0  0  0  0  0  0  0
  -24.6310  -11.7860   20.8270 C   0  0  0  0  0  0  0  0  0  0  0  0
  -26.2980  -13.0120   20.2600 N   0  0  0  0  0  0  0  0  0  0  0  0
  -25.9230  -11.7340   20.5280 N   0  0  0  0  0  0  0  0  0  0  0  0
  -23.8880  -10.5320   21.0210 C   0  0  0  0  0  0  0  0  0  0  0  0
  -24.3040   -9.5660   21.9620 C   0  0  0  0  0  3  0  0  0  0  0  0
  -23.5650   -8.3780   22.1440 C   0  0  0  0  0  3  0  0  0  0  0  0
  -22.3960   -8.1460   21.3820 C   0  0  0  0  0  0  0  0  0  0  0  0
  -21.9980   -9.1000   20.4300 C   0  0  0  0  0  3  0  0  0  0  0  0
  -22.7380  -10.2810   20.2470 C   0  0  0  0  0  3  0  0  0  0  0  0
  -21.6290   -7.0110   21.4710 O   0  0  0  0  0  0  0  0  0  0  0  0
  -21.5640   -6.2710   22.6250 C   0  0  0  0  0  0  0  0  0  0  0  0
  -21.1370   -6.8330   23.8470 C   0  0  0  0  0  3  0  0  0  0  0  0
  -21.0240   -6.0220   24.9940 C   0  0  0  0  0  3  0  0  0  0  0  0
  -21.3280   -4.6500   24.9200 C   0  0  0  0  0  0  0  0  0  0  0  0
  -21.7460   -4.0850   23.7010 C   0  0  0  0  0  3  0  0  0  0  0  0
  -21.8640   -4.8940   22.5580 C   0  0  0  0  0  0  0  0  0  0  0  0
  -22.2490   -4.3420   21.3820 F   0  0  0  0  0  0  0  0  0  0  0  0
  -21.2100   -3.8680   26.0190 F   0  0  0  0  0  0  0  0  0  0  0  0
  -22.7890  -13.6350   21.1070 C   0  0  0  0  0  0  0  0  0  0  0  0
  -22.0450  -12.9550   21.9740 N   0  0  0  0  0  0  0  0  0  0  0  0
  -22.3660  -14.6610   20.5770 O   0  0  0  0  0  0  0  0  0  0  0  0
  -22.3970  -12.1270   22.4330 H   0  0  0  0  0  0  0  0  0  0  0  0
  -21.1080  -13.2720   22.1840 H   0  0  0  0  0  0  0  0  0  0  0  0
  -25.4400  -15.2730   20.2990 N   0  0  0  0  0  0  0  0  0  0  0  0
  -24.6800  -15.9310   20.4280 H   0  0  0  0  0  0  0  0  0  0  0  0
  -26.3050  -15.7230   20.0260 H   0  0  0  0  0  0  0  0  0  0  0  0
  -30.6290  -17.0920   18.5000 C   0  0  0  0  0  2  0  0  0  0  0  0
  -30.9320  -18.4430   17.7970 C   0  0  0  0  0  2  0  0  0  0  0  0
  -32.2200  -19.1560   18.2560 C   0  0  0  0  0  2  0  0  0  0  0  0
  -32.8540  -21.1110   16.7630 C   0  0  0  0  0  0  0  0  0  0  0  0
  -33.6530  -21.5550   15.7910 N   0  0  0  0  0  4  0  0  0  0  0  0
  -32.0010  -21.9580   17.3420 N   0  0  0  0  0  0  0  0  0  0  0  0
  -32.9230  -19.8230   17.1400 N   0  0  0  0  0  0  0  0  0  0  0  0
  -33.6340  -22.5130   15.4600 H   0  0  0  0  0  0  0  0  0  0  0  0
  -34.3320  -20.9620   15.3290 H   0  0  0  0  0  0  0  0  0  0  0  0
  -31.9450  -22.9300   17.0660 H   0  0  0  0  0  0  0  0  0  0  0  0
  -31.3410  -21.6590   18.0420 H   0  0  0  0  0  0  0  0  0  0  0  0
  -33.5790  -19.2140   16.6590 H   0  0  0  0  0  0  0  0  0  0  0  0
  1  2  1  0
  1  3  2  0
  2  5  1  0
  4  2  1  0
  6 13  1  0
  6 11  1  0
  8  7  1  0
  9  7  1  0
 10  5  1  0
 10 11  1  0
 10  8  1  0
 11  9  1  0
 12  6  2  0
 14 13  1  0
 15 26  2  0
 16 14  1  0
 16 21  1  0
 17 25  1  0
 17 27  1  0
 18 24  1  0
 18 20  1  0
 19 25  1  0
 20 19  1  0
 21 20  2  0
 22 23  1  0
 22 16  2  0
 23 18  2  0
 24 17  1  0
 25 15  1  0
 27 29  2  0
 28 27  1  0
 30 28  1  0
 31 40  2  0
 31 36  1  0
 32 28  1  0
 32 36  1  0
 33 32  1  0
 34 35  1  0
 34 33  1  0
 35 31  1  0
 36 37  2  0
 37 38  1  0
 39 38  2  0
 40 39  1  0
 41 15  1  0
 41 42  1  0
 41 51  1  0
 42 45  1  0
 43 47  1  0
 43 42  1  0
 44 43  2  0
 47 46  1  0
 49 47  1  0
 49 50  1  0
 49 48  1  0
 51 54  1  1
 51 52  1  0
 53 51  1  0
 55 94  1  0
 55  1  1  0
 55 64  1  0
 56 64  1  0
 57 62  1  0
 58 59  1  0
 58 57  1  0
 60 59  1  0
 60 69  1  0
 60 61  1  0
 62 56  1  0
 62 61  1  0
 63 56  2  0
 64 65  1  0
 66 67  2  0
 67 86  1  0
 68 67  1  0
 68 71  1  0
 69 66  1  0
 69 70  1  0
 70 68  2  0
 71 72  1  0
 72 73  2  0
 74 77  1  0
 74 73  1  0
 75 74  2  0
 76 75  1  0
 76 71  2  0
 77 78  1  0
 78 79  1  0
 79 80  2  0
 81 80  1  0
 81 85  1  0
 82 81  2  0
 83 78  2  0
 83 82  1  0
 84 83  1  0
 86 87  1  0
 87 90  1  0
 87 89  1  0
 88 86  2  0
 91 92  1  0
 91 66  1  0
 93 91  1  0
 95 96  1  0
 95 94  1  0
 97100  1  0
 97 99  1  0
 98 97  2  0
 99104  1  0
100 96  1  0
101 98  1  0
102 98  1  0
103 99  1  0
105100  1  0
M  ISO  4  13 101  14 101  56 100  64 100
M  END
>  <TORSDO>  (51) 
F 24

>  <SCORE>  (51) 
-12.549

>  <name>  (51) 
52

>  <ligand_id>  (51) 
52

>  <original_smiles>  (51) 
[H]c1c([H])c([H])c2c(c1[H])C([H])([H])C([H])([H])C([H])([H])C2([H])N([H])C(=O)C1([H])N(C(=O)C([H])(N([H])C(=O)C([H])(N([H])C([H])([H])[H])C([H])([H])[H])C(C([H])([H])[H])(C([H])([H])[H])C([H])([H])[H])C([H])([H])c2c([H])c(OC([H])([H])C(=O)N3C([H])([H])C([H])([H])C([H])([H])C3([H])C([H])([H])N([H])C(=O)C([H])(N([H])C(=O)N3C([H])([H])C([H])([H])C([H])([H])C([H])(n4nc(-c5c([H])c([H])c(Oc6c([H])c([H])c(F)c([H])c6F)c([H])c5[H])c(C(=O)N([H])[H])c4N([H])[H])C3([H])[H])C([H])([H])C([H])([H])C([H])([H])N([H])C(N([H])[H])=[N+]([H])[H])c([H])c([H])c2C1([H])[H]

>  <smiles>  (51) 
[H]c1c([H])c([H])c2c(c1[H])C([H])([H])C([H])([H])C([H])([H])C2([H])N([H])C(=O)C1([H])N(C(=O)C([H])(N([H])C(=O)C([H])(N([H])C([H])([H])[H])C([H])([H])[H])C(C([H])([H])[H])(C([H])([H])[H])C([H])([H])[H])C([H])([H])c2c([H])c(OC([H])([H])C(=O)N3C([H])([H])C([H])([H])C([H])([H])C3([H])C([H])([H])N([H])C(=O)C([H])(N([H])C(=O)N3C([H])([H])C([H])([H])C([H])([H])C([H])(n4nc(-c5c([H])c([H])c(Oc6c([H])c([H])c(F)c([H])c6F)c([H])c5[H])c(C(=O)N([H])[H])c4N([H])[H])C3([H])[H])C([H])([H])C([H])([H])C([H])([H])N([H])C(N([H])[H])=[N+]([H])[H])c([H])c([H])c2C1([H])[H]

$$$$
53:0:0
     RDKit          3D

106113  0  0  1  0  0  0  0  0999 V2000
  -30.4260  -19.5540   21.9490 C   0  0  0  0  0  0  0  0  0  0  0  0
  -30.1540  -18.5920   21.0340 N   0  0  0  0  0  0  0  0  0  0  0  0
  -31.5450  -19.6650   22.4560 O   0  0  0  0  0  0  0  0  0  0  0  0
  -29.3020  -20.5010   22.4170 C   0  0  0  0  0  2  0  0  0  0  0  0
  -29.8090  -21.7570   23.1640 C   0  0  0  0  0  2  0  0  0  0  0  0
  -30.4620  -22.8150   22.2500 C   0  0  0  0  0  2  0  0  0  0  0  0
  -29.6200  -24.7360   20.8370 C   0  0  0  0  0  0  0  0  0  0  0  0
  -30.7970  -25.3760   20.7860 N   0  0  0  0  0  4  0  0  0  0  0  0
  -29.4540  -23.5690   21.4920 N   0  0  0  0  0  0  0  0  0  0  0  0
  -30.8460  -26.2480   20.2790 H   0  0  0  0  0  0  0  0  0  0  0  0
  -31.6200  -25.0680   21.2780 H   0  0  0  0  0  0  0  0  0  0  0  0
  -28.5320  -23.1590   21.4390 H   0  0  0  0  0  0  0  0  0  0  0  0
  -28.4290  -25.3480   20.1610 C   0  0  0  0  0  2  0  0  0  0  0  0
  -28.4990  -26.7760   20.1680 O   0  0  0  0  0  0  0  0  0  0  0  0
  -24.6480  -31.8810   23.2250 C   0  0  0  0  0  0  0  0  0  0  0  0
  -27.3030  -27.4610   20.1500 C   0  0  0  0  0  0  0  0  0  0  0  0
  -23.4390  -30.4660   21.5930 C   0  0  0  0  0  3  0  0  0  0  0  0
  -24.8930  -28.9340   20.1680 C   0  0  0  0  0  0  0  0  0  0  0  0
  -25.9580  -30.8470   21.3750 C   0  0  0  0  0  2  0  0  0  0  0  0
  -26.0490  -29.4750   20.7430 C   0  0  0  0  0  0  0  0  0  0  0  0
  -27.2550  -28.7460   20.7300 C   0  0  0  0  0  3  0  0  0  0  0  0
  -26.1310  -26.9290   19.5630 C   0  0  0  0  0  3  0  0  0  0  0  0
  -24.9280  -27.6580   19.5780 C   0  0  0  0  0  3  0  0  0  0  0  0
  -23.6420  -29.7790   20.2160 C   0  0  0  0  0  2  0  0  0  0  0  0
  -24.7000  -31.0810   22.1210 N   0  0  0  0  0  0  0  0  0  0  0  0
  -23.5690  -32.1460   23.7720 O   0  0  0  0  0  0  0  0  0  0  0  0
  -22.8060  -29.4440   22.5630 C   0  0  0  0  0  0  0  0  0  0  0  0
  -21.4810  -29.2570   22.4520 N   0  0  0  0  0  0  0  0  0  0  0  0
  -23.4990  -28.8230   23.3730 O   0  0  0  0  0  0  0  0  0  0  0  0
  -20.9810  -29.8120   21.7710 H   0  0  0  0  0  0  0  0  0  0  0  0
  -18.1180  -28.0520   22.9690 C   0  0  0  0  0  0  0  0  0  0  0  0
  -20.6740  -28.3190   23.2320 C   0  0  0  0  0  3  0  0  0  0  0  0
  -20.7790  -26.8860   22.6610 C   0  0  0  0  0  2  0  0  0  0  0  0
  -19.6740  -26.5530   21.6560 C   0  0  0  0  0  2  0  0  0  0  0  0
  -18.2950  -26.6980   22.3040 C   0  0  0  0  0  2  0  0  0  0  0  0
  -19.2340  -28.8190   23.3920 C   0  0  0  0  0  0  0  0  0  0  0  0
  -19.0150  -30.0850   23.9760 C   0  0  0  0  0  3  0  0  0  0  0  0
  -17.7070  -30.5810   24.1450 C   0  0  0  0  0  3  0  0  0  0  0  0
  -16.6060  -29.8110   23.7420 C   0  0  0  0  0  3  0  0  0  0  0  0
  -16.8100  -28.5490   23.1550 C   0  0  0  0  0  3  0  0  0  0  0  0
  -25.9360  -32.5210   23.8340 C   0  0  0  0  0  3  0  0  0  0  0  0
  -25.6220  -33.9120   24.1770 N   0  0  0  0  0  0  0  0  0  0  0  0
  -25.9390  -34.9700   23.4190 C   0  0  0  0  0  0  0  0  0  0  0  0
  -26.5950  -34.8770   22.3780 O   0  0  0  0  0  0  0  0  0  0  0  0
  -25.0350  -34.0560   24.9850 H   0  0  0  0  0  0  0  0  0  0  0  0
  -24.1840  -36.7390   23.1050 C   0  0  0  0  0  1  0  0  0  0  0  0
  -25.4450  -36.3500   23.8920 C   0  0  0  0  0  3  0  0  0  0  0  0
  -27.5860  -37.2540   24.6830 C   0  0  0  0  0  1  0  0  0  0  0  0
  -26.4630  -37.4150   23.7630 N   0  0  0  0  0  0  0  0  0  0  0  0
  -26.0520  -38.3300   23.9160 H   0  0  0  0  0  0  0  0  0  0  0  0
  -26.4800  -31.7420   25.0940 C   0  0  1  0  0  0  0  0  0  0  0  0
  -25.4020  -31.4890   26.1750 C   0  0  0  0  0  1  0  0  0  0  0  0
  -27.0690  -30.3750   24.6730 C   0  0  0  0  0  1  0  0  0  0  0  0
  -27.6330  -32.5390   25.7450 C   0  0  0  0  0  1  0  0  0  0  0  0
  -28.8840  -18.4830   20.3080 C   0  0  0  0  0  2  0  0  0  0  0  0
  -28.6770  -19.6320   19.3010 C   0  0  0  0  0  2  0  0  0  0  0  0
  -27.2230  -19.6860   18.8270 C   0  0  0  0  0  2  0  0  0  0  0  0
  -25.7240  -21.5850   18.1890 C   0  0  0  0  0  0  0  0  0  0  0  0
  -25.6010  -22.7740   17.6100 N   0  0  0  0  0  4  0  0  0  0  0  0
  -24.6730  -21.0290   18.7860 N   0  0  0  0  0  0  0  0  0  0  0  0
  -26.9130  -20.9690   18.1790 N   0  0  0  0  0  0  0  0  0  0  0  0
  -24.7350  -23.2940   17.6050 H   0  0  0  0  0  0  0  0  0  0  0  0
  -26.3860  -23.2190   17.1560 H   0  0  0  0  0  0  0  0  0  0  0  0
  -23.7760  -21.4870   18.8550 H   0  0  0  0  0  0  0  0  0  0  0  0
  -24.7470  -20.1030   19.1820 H   0  0  0  0  0  0  0  0  0  0  0  0
  -27.6670  -21.3780   17.6420 H   0  0  0  0  0  0  0  0  0  0  0  0
  -31.1290  -17.5400   20.7210 C   0  0  0  0  0  2  0  0  0  0  0  0
  -31.1460  -16.4220   21.7970 C   0  0  0  0  0  2  0  0  0  0  0  0
  -30.7670  -14.3760   20.4630 C   0  0  0  0  0  0  0  0  0  0  0  0
  -30.3350  -12.2960   19.2320 C   0  0  0  0  0  2  0  0  0  0  0  0
  -29.4050  -12.5410   18.0310 C   0  0  0  0  0  2  0  0  0  0  0  0
  -27.9330  -12.4250   18.4630 C   0  0  0  0  0  2  0  0  0  0  0  0
  -27.6080  -13.2620   19.7290 C   0  0  0  0  0  3  0  0  0  0  0  0
  -28.6590  -13.0280   20.8410 C   0  0  0  0  0  2  0  0  0  0  0  0
  -30.0010  -13.2720   20.2810 N   0  0  0  0  0  0  0  0  0  0  0  0
  -31.7920  -14.5990   19.8160 O   0  0  0  0  0  0  0  0  0  0  0  0
  -30.3790  -15.2310   21.4150 N   0  0  0  0  0  0  0  0  0  0  0  0
  -29.5510  -15.0020   21.9460 H   0  0  0  0  0  0  0  0  0  0  0  0
  -25.2010  -13.8840   20.4040 C   0  0  0  0  0  0  0  0  0  0  0  0
  -24.1270  -13.1180   20.7720 C   0  0  0  0  0  0  0  0  0  0  0  0
  -24.5850  -11.7650   20.7620 C   0  0  0  0  0  0  0  0  0  0  0  0
  -26.2470  -12.9970   20.1960 N   0  0  0  0  0  0  0  0  0  0  0  0
  -25.8790  -11.7180   20.4700 N   0  0  0  0  0  0  0  0  0  0  0  0
  -23.8540  -10.5060   20.9640 C   0  0  0  0  0  0  0  0  0  0  0  0
  -24.2750   -9.5520   21.9170 C   0  0  0  0  0  3  0  0  0  0  0  0
  -23.5450   -8.3570   22.1040 C   0  0  0  0  0  3  0  0  0  0  0  0
  -22.3820   -8.1080   21.3390 C   0  0  0  0  0  0  0  0  0  0  0  0
  -21.9790   -9.0520   20.3790 C   0  0  0  0  0  3  0  0  0  0  0  0
  -22.7070  -10.2380   20.1890 C   0  0  0  0  0  3  0  0  0  0  0  0
  -21.6260   -6.9650   21.4360 O   0  0  0  0  0  0  0  0  0  0  0  0
  -21.5650   -6.2360   22.5960 C   0  0  0  0  0  0  0  0  0  0  0  0
  -21.1450   -6.8120   23.8150 C   0  0  0  0  0  3  0  0  0  0  0  0
  -21.0290   -6.0120   24.9680 C   0  0  0  0  0  3  0  0  0  0  0  0
  -21.3260   -4.6380   24.9040 C   0  0  0  0  0  0  0  0  0  0  0  0
  -21.7400   -4.0610   23.6910 C   0  0  0  0  0  3  0  0  0  0  0  0
  -21.8570   -4.8600   22.5400 C   0  0  0  0  0  0  0  0  0  0  0  0
  -22.2340   -4.2950   21.3680 F   0  0  0  0  0  0  0  0  0  0  0  0
  -21.2080   -3.8690   26.0110 F   0  0  0  0  0  0  0  0  0  0  0  0
  -22.7290  -13.6020   21.0280 C   0  0  0  0  0  0  0  0  0  0  0  0
  -21.9900  -12.9190   21.8960 N   0  0  0  0  0  0  0  0  0  0  0  0
  -22.2970  -14.6200   20.4890 O   0  0  0  0  0  0  0  0  0  0  0  0
  -22.3480  -12.0950   22.3530 H   0  0  0  0  0  0  0  0  0  0  0  0
  -21.0520  -13.2280   22.1070 H   0  0  0  0  0  0  0  0  0  0  0  0
  -25.3720  -15.2500   20.2100 N   0  0  0  0  0  0  0  0  0  0  0  0
  -24.6110  -15.9100   20.3210 H   0  0  0  0  0  0  0  0  0  0  0  0
  -26.2320  -15.6820   19.8920 H   0  0  0  0  0  0  0  0  0  0  0  0
  1  4  1  0
  1  3  2  0
  2  1  1  0
  4  5  1  0
  6  5  1  0
  7  9  1  0
  8  7  2  0
  8 11  1  0
  9  6  1  0
 10  8  1  0
 12  9  1  0
 13 14  1  0
 13  7  1  0
 15 26  2  0
 16 14  1  0
 16 21  1  0
 17 25  1  0
 17 27  1  0
 18 24  1  0
 18 20  1  0
 19 25  1  0
 20 19  1  0
 21 20  2  0
 22 23  1  0
 22 16  2  0
 23 18  2  0
 24 17  1  0
 25 15  1  0
 27 29  2  0
 28 27  1  0
 30 28  1  0
 31 40  2  0
 31 36  1  0
 32 28  1  0
 32 36  1  0
 33 32  1  0
 34 35  1  0
 34 33  1  0
 35 31  1  0
 36 37  2  0
 37 38  1  0
 39 38  2  0
 40 39  1  0
 41 15  1  0
 41 42  1  0
 41 51  1  0
 42 45  1  0
 43 47  1  0
 43 42  1  0
 44 43  2  0
 47 46  1  0
 49 47  1  0
 49 50  1  0
 49 48  1  0
 51 54  1  1
 51 52  1  0
 53 51  1  0
 55  2  1  0
 56 55  1  0
 57 56  1  0
 58 60  1  0
 59 58  2  0
 60 64  1  0
 60 65  1  0
 61 58  1  0
 61 57  1  0
 62 59  1  0
 63 59  1  0
 66 61  1  0
 67  2  1  0
 67 68  1  0
 69 77  1  0
 70 75  1  0
 71 72  1  0
 71 70  1  0
 73 72  1  0
 73 82  1  0
 73 74  1  0
 75 69  1  0
 75 74  1  0
 76 69  2  0
 77 68  1  0
 77 78  1  0
 79 80  2  0
 80 99  1  0
 81 80  1  0
 81 84  1  0
 82 79  1  0
 82 83  1  0
 83 81  2  0
 84 85  1  0
 85 86  2  0
 87 90  1  0
 87 86  1  0
 88 87  2  0
 89 88  1  0
 89 84  2  0
 90 91  1  0
 91 92  1  0
 92 93  2  0
 94 93  1  0
 94 98  1  0
 95 94  2  0
 96 91  2  0
 96 95  1  0
 97 96  1  0
 99100  1  0
100103  1  0
100102  1  0
101 99  2  0
104105  1  0
104 79  1  0
106104  1  0
M  ISO  4  13 101  14 101  69 100  77 100
M  END
>  <TORSDO>  (52) 
F 27

>  <SCORE>  (52) 
-11.522

>  <name>  (52) 
53

>  <ligand_id>  (52) 
53

>  <original_smiles>  (52) 
[H]c1c([H])c([H])c2c(c1[H])C([H])([H])C([H])([H])C([H])([H])C2([H])N([H])C(=O)C1([H])N(C(=O)C([H])(N([H])C(=O)C([H])(N([H])C([H])([H])[H])C([H])([H])[H])C(C([H])([H])[H])(C([H])([H])[H])C([H])([H])[H])C([H])([H])c2c([H])c(OC([H])([H])C(N([H])[H])=[N+]([H])C([H])([H])C([H])([H])C([H])([H])C(=O)N(C([H])([H])C([H])([H])N([H])C(=O)N3C([H])([H])C([H])([H])C([H])([H])C([H])(n4nc(-c5c([H])c([H])c(Oc6c([H])c([H])c(F)c([H])c6F)c([H])c5[H])c(C(=O)N([H])[H])c4N([H])[H])C3([H])[H])C([H])([H])C([H])([H])C([H])([H])N([H])C(N([H])[H])=[N+]([H])[H])c([H])c([H])c2C1([H])[H]

>  <smiles>  (52) 
[H]c1c([H])c([H])c2c(c1[H])C([H])([H])C([H])([H])C([H])([H])C2([H])N([H])C(=O)C1([H])N(C(=O)C([H])(N([H])C(=O)C([H])(N([H])C([H])([H])[H])C([H])([H])[H])C(C([H])([H])[H])(C([H])([H])[H])C([H])([H])[H])C([H])([H])c2c([H])c(OC([H])([H])C(N([H])[H])=[N+]([H])C([H])([H])C([H])([H])C([H])([H])C(=O)N(C([H])([H])C([H])([H])N([H])C(=O)N3C([H])([H])C([H])([H])C([H])([H])C([H])(n4nc(-c5c([H])c([H])c(Oc6c([H])c([H])c(F)c([H])c6F)c([H])c5[H])c(C(=O)N([H])[H])c4N([H])[H])C3([H])[H])C([H])([H])C([H])([H])C([H])([H])N([H])C(N([H])[H])=[N+]([H])[H])c([H])c([H])c2C1([H])[H]

$$$$
54:0:0
     RDKit          3D

 90 97  0  0  1  0  0  0  0  0999 V2000
  -28.2020  -21.9040   19.6050 C   0  0  0  0  0  0  0  0  0  0  0  0
  -27.8830  -22.9620   20.3550 N   0  0  0  0  0  0  0  0  0  0  0  0
  -28.9890  -21.9650   18.6570 O   0  0  0  0  0  0  0  0  0  0  0  0
  -27.2940  -22.7860   21.1610 H   0  0  0  0  0  0  0  0  0  0  0  0
  -27.4120  -20.6250   19.8630 C   0  0  0  0  0  2  0  0  0  0  0  0
  -28.0940  -19.6140   20.7940 C   0  0  0  0  0  2  0  0  0  0  0  0
  -29.3200  -18.8960   20.1930 C   0  0  0  0  0  2  0  0  0  0  0  0
  -29.5920  -17.5760   20.9250 C   0  0  0  0  0  2  0  0  0  0  0  0
  -30.7070  -16.7310   20.2990 C   0  0  0  0  0  2  0  0  0  0  0  0
  -31.0830  -14.3050   19.9870 C   0  0  0  0  0  0  0  0  0  0  0  0
  -30.6660  -12.1260   18.9290 C   0  0  0  0  0  2  0  0  0  0  0  0
  -29.6770  -12.3370   17.7640 C   0  0  0  0  0  2  0  0  0  0  0  0
  -28.2280  -12.2240   18.2740 C   0  0  0  0  0  2  0  0  0  0  0  0
  -27.9660  -13.1070   19.5210 C   0  0  0  0  0  3  0  0  0  0  0  0
  -29.0710  -12.9090   20.5870 C   0  0  0  0  0  2  0  0  0  0  0  0
  -30.3790  -13.1450   19.9480 N   0  0  0  0  0  0  0  0  0  0  0  0
  -32.1460  -14.4860   19.3840 O   0  0  0  0  0  0  0  0  0  0  0  0
  -30.4610  -15.3210   20.5890 N   0  0  0  0  0  0  0  0  0  0  0  0
  -29.6080  -15.0960   21.0770 H   0  0  0  0  0  0  0  0  0  0  0  0
  -25.6190  -13.7760   20.3460 C   0  0  0  0  0  0  0  0  0  0  0  0
  -24.5550  -13.0280   20.7740 C   0  0  0  0  0  0  0  0  0  0  0  0
  -24.9800  -11.6660   20.7190 C   0  0  0  0  0  0  0  0  0  0  0  0
  -26.6320  -12.8680   20.0690 N   0  0  0  0  0  0  0  0  0  0  0  0
  -26.2520  -11.5940   20.3470 N   0  0  0  0  0  0  0  0  0  0  0  0
  -24.2340  -10.4220   20.9520 C   0  0  0  0  0  0  0  0  0  0  0  0
  -24.6320   -9.5000   21.9460 C   0  0  0  0  0  3  0  0  0  0  0  0
  -23.8940   -8.3180   22.1630 C   0  0  0  0  0  3  0  0  0  0  0  0
  -22.7400   -8.0490   21.3880 C   0  0  0  0  0  0  0  0  0  0  0  0
  -22.3630   -8.9570   20.3830 C   0  0  0  0  0  3  0  0  0  0  0  0
  -23.1030  -10.1330   20.1640 C   0  0  0  0  0  3  0  0  0  0  0  0
  -21.9750   -6.9150   21.5130 O   0  0  0  0  0  0  0  0  0  0  0  0
  -21.8080   -6.2880   22.7210 C   0  0  0  0  0  0  0  0  0  0  0  0
  -21.2450   -6.9490   23.8320 C   0  0  0  0  0  3  0  0  0  0  0  0
  -21.0270   -6.2460   25.0330 C   0  0  0  0  0  3  0  0  0  0  0  0
  -21.3660   -4.8810   25.1220 C   0  0  0  0  0  0  0  0  0  0  0  0
  -21.9250   -4.2210   24.0130 C   0  0  0  0  0  3  0  0  0  0  0  0
  -22.1420   -4.9220   22.8150 C   0  0  0  0  0  0  0  0  0  0  0  0
  -22.6610   -4.2750   21.7420 F   0  0  0  0  0  0  0  0  0  0  0  0
  -21.1510   -4.2020   26.2730 F   0  0  0  0  0  0  0  0  0  0  0  0
  -23.1860  -13.5370   21.1250 C   0  0  0  0  0  0  0  0  0  0  0  0
  -22.5020  -12.8600   22.0410 N   0  0  0  0  0  0  0  0  0  0  0  0
  -22.7350  -14.5640   20.6220 O   0  0  0  0  0  0  0  0  0  0  0  0
  -22.8830  -12.0290   22.4650 H   0  0  0  0  0  0  0  0  0  0  0  0
  -21.5860  -13.1760   22.3220 H   0  0  0  0  0  0  0  0  0  0  0  0
  -25.8040  -15.1400   20.1480 N   0  0  0  0  0  0  0  0  0  0  0  0
  -25.0480  -15.8070   20.2630 H   0  0  0  0  0  0  0  0  0  0  0  0
  -26.6320  -15.5460   19.7300 H   0  0  0  0  0  0  0  0  0  0  0  0
  -27.8120  -24.3080   19.7990 C   0  0  0  0  0  2  0  0  0  0  0  0
  -28.3110  -25.4160   20.7520 C   0  0  0  0  0  2  0  0  0  0  0  0
  -28.4010  -26.7180   20.1470 O   0  0  0  0  0  0  0  0  0  0  0  0
  -24.5950  -31.8650   23.2800 C   0  0  0  0  0  0  0  0  0  0  0  0
  -27.2440  -27.4670   20.1470 C   0  0  0  0  0  0  0  0  0  0  0  0
  -23.4020  -30.4960   21.6030 C   0  0  0  0  0  3  0  0  0  0  0  0
  -24.8640  -28.9920   20.1570 C   0  0  0  0  0  0  0  0  0  0  0  0
  -25.9320  -30.8470   21.4400 C   0  0  0  0  0  2  0  0  0  0  0  0
  -26.0180  -29.4880   20.7800 C   0  0  0  0  0  0  0  0  0  0  0  0
  -27.2100  -28.7270   20.7850 C   0  0  0  0  0  3  0  0  0  0  0  0
  -26.0900  -27.0190   19.4710 C   0  0  0  0  0  3  0  0  0  0  0  0
  -24.8940  -27.7530   19.5060 C   0  0  0  0  0  3  0  0  0  0  0  0
  -23.6240  -29.8530   20.2090 C   0  0  0  0  0  2  0  0  0  0  0  0
  -24.6610  -31.0810   22.1670 N   0  0  0  0  0  0  0  0  0  0  0  0
  -23.5090  -32.1320   23.8120 O   0  0  0  0  0  0  0  0  0  0  0  0
  -22.7440  -29.4520   22.5380 C   0  0  0  0  0  0  0  0  0  0  0  0
  -21.4280  -29.2410   22.3680 N   0  0  0  0  0  0  0  0  0  0  0  0
  -23.4180  -28.8330   23.3660 O   0  0  0  0  0  0  0  0  0  0  0  0
  -20.9420  -29.7910   21.6730 H   0  0  0  0  0  0  0  0  0  0  0  0
  -18.0690  -27.9820   22.7560 C   0  0  0  0  0  0  0  0  0  0  0  0
  -20.6080  -28.2890   23.1170 C   0  0  0  0  0  3  0  0  0  0  0  0
  -20.7620  -26.8570   22.5550 C   0  0  0  0  0  2  0  0  0  0  0  0
  -19.7020  -26.5080   21.5050 C   0  0  0  0  0  2  0  0  0  0  0  0
  -18.2970  -26.6310   22.1010 C   0  0  0  0  0  2  0  0  0  0  0  0
  -19.1550  -28.7660   23.2220 C   0  0  0  0  0  0  0  0  0  0  0  0
  -18.8930  -30.0290   23.7970 C   0  0  0  0  0  3  0  0  0  0  0  0
  -17.5720  -30.5050   23.9190 C   0  0  0  0  0  3  0  0  0  0  0  0
  -16.4990  -29.7130   23.4750 C   0  0  0  0  0  3  0  0  0  0  0  0
  -16.7490  -28.4570   22.8980 C   0  0  0  0  0  3  0  0  0  0  0  0
  -25.8760  -32.4760   23.9220 C   0  0  0  0  0  3  0  0  0  0  0  0
  -25.5830  -33.8810   24.2400 N   0  0  0  0  0  0  0  0  0  0  0  0
  -25.9490  -34.9220   23.4810 C   0  0  0  0  0  0  0  0  0  0  0  0
  -26.6450  -34.8010   22.4690 O   0  0  0  0  0  0  0  0  0  0  0  0
  -24.9640  -34.0550   25.0200 H   0  0  0  0  0  0  0  0  0  0  0  0
  -24.2650  -36.7400   23.0610 C   0  0  0  0  0  1  0  0  0  0  0  0
  -25.4700  -36.3180   23.9160 C   0  0  0  0  0  3  0  0  0  0  0  0
  -27.5850  -37.1740   24.8230 C   0  0  0  0  0  1  0  0  0  0  0  0
  -26.5220  -37.3520   23.8360 N   0  0  0  0  0  0  0  0  0  0  0  0
  -26.1260  -38.2800   23.9610 H   0  0  0  0  0  0  0  0  0  0  0  0
  -26.3610  -31.7020   25.2080 C   0  0  1  0  0  0  0  0  0  0  0  0
  -25.2490  -31.4720   26.2560 C   0  0  0  0  0  1  0  0  0  0  0  0
  -26.9390  -30.3200   24.8270 C   0  0  0  0  0  1  0  0  0  0  0  0
  -27.5050  -32.4880   25.8920 C   0  0  0  0  0  1  0  0  0  0  0  0
  1  5  1  0
  1  2  1  0
  2  4  1  0
  3  1  2  0
  5  6  1  0
  7  6  1  0
  7  8  1  0
  9 18  1  0
  9  8  1  0
 10 18  1  0
 11 16  1  0
 12 13  1  0
 12 11  1  0
 14 13  1  0
 14 23  1  0
 14 15  1  0
 16 10  1  0
 16 15  1  0
 17 10  2  0
 18 19  1  0
 20 21  2  0
 21 40  1  0
 22 21  1  0
 22 25  1  0
 23 20  1  0
 23 24  1  0
 24 22  2  0
 25 26  1  0
 26 27  2  0
 28 31  1  0
 28 27  1  0
 29 28  2  0
 30 29  1  0
 30 25  2  0
 31 32  1  0
 32 37  2  0
 32 33  1  0
 33 34  2  0
 34 35  1  0
 35 39  1  0
 36 35  2  0
 37 36  1  0
 38 37  1  0
 40 41  1  0
 41 44  1  0
 41 43  1  0
 42 40  2  0
 45 46  1  0
 45 20  1  0
 47 45  1  0
 48  2  1  0
 48 49  1  0
 50 49  1  0
 51 62  2  0
 52 50  1  0
 52 57  1  0
 53 61  1  0
 53 63  1  0
 54 60  1  0
 54 56  1  0
 55 61  1  0
 56 57  2  0
 56 55  1  0
 58 59  1  0
 58 52  2  0
 59 54  2  0
 60 53  1  0
 61 51  1  0
 63 65  2  0
 64 63  1  0
 66 64  1  0
 67 76  2  0
 67 72  1  0
 68 64  1  0
 68 72  1  0
 69 68  1  0
 70 71  1  0
 70 69  1  0
 71 67  1  0
 72 73  2  0
 73 74  1  0
 75 74  2  0
 76 75  1  0
 77 51  1  0
 77 78  1  0
 77 87  1  0
 78 81  1  0
 79 83  1  0
 79 78  1  0
 80 79  2  0
 83 82  1  0
 85 83  1  0
 85 86  1  0
 85 84  1  0
 87 90  1  1
 87 88  1  0
 89 87  1  0
M  ISO  4  10 100  18 100  49 101  50 101
M  END
>  <TORSDO>  (53) 
F 23

>  <SCORE>  (53) 
-11.818

>  <name>  (53) 
54

>  <ligand_id>  (53) 
54

>  <original_smiles>  (53) 
[H]c1c([H])c([H])c2c(c1[H])C([H])([H])C([H])([H])C([H])([H])C2([H])N([H])C(=O)C1([H])N(C(=O)C([H])(N([H])C(=O)C([H])(N([H])C([H])([H])[H])C([H])([H])[H])C(C([H])([H])[H])(C([H])([H])[H])C([H])([H])[H])C([H])([H])c2c([H])c(OC([H])([H])C([H])([H])N([H])C(=O)C([H])([H])C([H])([H])C([H])([H])C([H])([H])C([H])([H])N([H])C(=O)N3C([H])([H])C([H])([H])C([H])([H])C([H])(n4nc(-c5c([H])c([H])c(Oc6c([H])c([H])c(F)c([H])c6F)c([H])c5[H])c(C(=O)N([H])[H])c4N([H])[H])C3([H])[H])c([H])c([H])c2C1([H])[H]

>  <smiles>  (53) 
[H]c1c([H])c([H])c2c(c1[H])C([H])([H])C([H])([H])C([H])([H])C2([H])N([H])C(=O)C1([H])N(C(=O)C([H])(N([H])C(=O)C([H])(N([H])C([H])([H])[H])C([H])([H])[H])C(C([H])([H])[H])(C([H])([H])[H])C([H])([H])[H])C([H])([H])c2c([H])c(OC([H])([H])C([H])([H])N([H])C(=O)C([H])([H])C([H])([H])C([H])([H])C([H])([H])C([H])([H])N([H])C(=O)N3C([H])([H])C([H])([H])C([H])([H])C([H])(n4nc(-c5c([H])c([H])c(Oc6c([H])c([H])c(F)c([H])c6F)c([H])c5[H])c(C(=O)N([H])[H])c4N([H])[H])C3([H])[H])c([H])c([H])c2C1([H])[H]

$$$$
55:0:0
     RDKit          3D

 99106  0  0  1  0  0  0  0  0999 V2000
  -29.0680  -22.9590   19.2640 C   0  0  0  0  0  0  0  0  0  0  0  0
  -28.6860  -21.7510   19.7270 N   0  0  0  0  0  0  0  0  0  0  0  0
  -30.1590  -23.1370   18.7240 O   0  0  0  0  0  0  0  0  0  0  0  0
  -27.7770  -21.6870   20.1700 H   0  0  0  0  0  0  0  0  0  0  0  0
  -29.2330  -20.4210   19.4020 C   0  0  0  0  0  3  0  0  0  0  0  0
  -28.0180  -19.5660   18.9930 C   0  0  0  0  0  0  0  0  0  0  0  0
  -28.1150  -18.7840   17.9260 N   0  0  0  0  0  0  0  0  0  0  0  0
  -26.9880  -19.6020   19.6650 O   0  0  0  0  0  0  0  0  0  0  0  0
  -28.9530  -18.7710   17.3660 H   0  0  0  0  0  0  0  0  0  0  0  0
  -27.3380  -18.1930   17.6650 H   0  0  0  0  0  0  0  0  0  0  0  0
  -30.0070  -19.7840   20.5930 C   0  0  0  0  0  2  0  0  0  0  0  0
  -30.3590  -18.2750   20.4060 C   0  0  0  0  0  2  0  0  0  0  0  0
  -30.9260  -17.6090   21.6730 C   0  0  0  0  0  2  0  0  0  0  0  0
  -31.6870  -16.2890   21.4220 C   0  0  0  0  0  2  0  0  0  0  0  0
  -31.2660  -14.2000   20.1570 C   0  0  0  0  0  0  0  0  0  0  0  0
  -30.7720  -12.0670   19.0220 C   0  0  0  0  0  2  0  0  0  0  0  0
  -29.7940  -12.2650   17.8480 C   0  0  0  0  0  2  0  0  0  0  0  0
  -28.3350  -12.2160   18.3320 C   0  0  0  0  0  2  0  0  0  0  0  0
  -28.0820  -13.1060   19.5770 C   0  0  0  0  0  3  0  0  0  0  0  0
  -29.1640  -12.8790   20.6570 C   0  0  0  0  0  2  0  0  0  0  0  0
  -30.4840  -13.0930   20.0370 N   0  0  0  0  0  0  0  0  0  0  0  0
  -32.3180  -14.3410   19.5280 O   0  0  0  0  0  0  0  0  0  0  0  0
  -30.8480  -15.1530   21.0050 N   0  0  0  0  0  0  0  0  0  0  0  0
  -29.9650  -15.0080   21.4720 H   0  0  0  0  0  0  0  0  0  0  0  0
  -25.7490  -13.8370   20.3800 C   0  0  0  0  0  0  0  0  0  0  0  0
  -24.6490  -13.1200   20.7730 C   0  0  0  0  0  0  0  0  0  0  0  0
  -25.0320  -11.7440   20.7090 C   0  0  0  0  0  0  0  0  0  0  0  0
  -26.7340  -12.9010   20.1030 N   0  0  0  0  0  0  0  0  0  0  0  0
  -26.3070  -11.6370   20.3580 N   0  0  0  0  0  0  0  0  0  0  0  0
  -24.2420  -10.5200   20.9060 C   0  0  0  0  0  0  0  0  0  0  0  0
  -24.6070   -9.5510   21.8680 C   0  0  0  0  0  3  0  0  0  0  0  0
  -23.8200   -8.3940   22.0520 C   0  0  0  0  0  3  0  0  0  0  0  0
  -22.6540   -8.1970   21.2750 C   0  0  0  0  0  0  0  0  0  0  0  0
  -22.3090   -9.1500   20.3030 C   0  0  0  0  0  3  0  0  0  0  0  0
  -23.0970  -10.3000   20.1170 C   0  0  0  0  0  3  0  0  0  0  0  0
  -21.8440   -7.0890   21.3670 O   0  0  0  0  0  0  0  0  0  0  0  0
  -21.6860   -6.4090   22.5480 C   0  0  0  0  0  0  0  0  0  0  0  0
  -21.1660   -7.0330   23.7020 C   0  0  0  0  0  3  0  0  0  0  0  0
  -20.9540   -6.2800   24.8750 C   0  0  0  0  0  3  0  0  0  0  0  0
  -21.2530   -4.9050   24.8930 C   0  0  0  0  0  0  0  0  0  0  0  0
  -21.7650   -4.2800   23.7410 C   0  0  0  0  0  3  0  0  0  0  0  0
  -21.9780   -5.0310   22.5710 C   0  0  0  0  0  0  0  0  0  0  0  0
  -22.4510   -4.4200   21.4590 F   0  0  0  0  0  0  0  0  0  0  0  0
  -21.0420   -4.1790   26.0160 F   0  0  0  0  0  0  0  0  0  0  0  0
  -23.2920  -13.6690   21.1020 C   0  0  0  0  0  0  0  0  0  0  0  0
  -22.5590  -13.0030   21.9870 N   0  0  0  0  0  0  0  0  0  0  0  0
  -22.8910  -14.7220   20.6080 O   0  0  0  0  0  0  0  0  0  0  0  0
  -22.8970  -12.1490   22.4070 H   0  0  0  0  0  0  0  0  0  0  0  0
  -21.6480  -13.3500   22.2500 H   0  0  0  0  0  0  0  0  0  0  0  0
  -25.9920  -15.1970   20.2140 N   0  0  0  0  0  0  0  0  0  0  0  0
  -25.2950  -15.9110   20.3940 H   0  0  0  0  0  0  0  0  0  0  0  0
  -26.8720  -15.5770   19.8890 H   0  0  0  0  0  0  0  0  0  0  0  0
  -27.9790  -24.0620   19.2460 C   0  0  0  0  0  3  0  0  0  0  0  0
  -27.0890  -23.6890   18.1200 N   0  0  0  0  0  4  0  0  0  0  0  0
  -27.6480  -23.5050   17.3020 H   0  0  0  0  0  0  0  0  0  0  0  0
  -26.4340  -24.4180   17.8920 H   0  0  0  0  0  0  0  0  0  0  0  0
  -26.5760  -22.8520   18.3370 H   0  0  0  0  0  0  0  0  0  0  0  0
  -28.4720  -25.5500   19.0750 C   0  0  0  0  0  2  0  0  0  0  0  0
  -28.1620  -26.5080   20.1160 O   0  0  0  0  0  0  0  0  0  0  0  0
  -24.4900  -31.8200   23.1630 C   0  0  0  0  0  0  0  0  0  0  0  0
  -27.0080  -27.2820   20.0760 C   0  0  0  0  0  0  0  0  0  0  0  0
  -23.2410  -30.4440   21.5350 C   0  0  0  0  0  3  0  0  0  0  0  0
  -24.6520  -28.8780   20.1030 C   0  0  0  0  0  0  0  0  0  0  0  0
  -25.7780  -30.7320   21.3290 C   0  0  0  0  0  2  0  0  0  0  0  0
  -25.8260  -29.3560   20.6940 C   0  0  0  0  0  0  0  0  0  0  0  0
  -27.0030  -28.5620   20.6860 C   0  0  0  0  0  3  0  0  0  0  0  0
  -25.8040  -26.8330   19.4890 C   0  0  0  0  0  3  0  0  0  0  0  0
  -24.6360  -27.6120   19.5010 C   0  0  0  0  0  3  0  0  0  0  0  0
  -23.4300  -29.7660   20.1530 C   0  0  0  0  0  2  0  0  0  0  0  0
  -24.5220  -31.0140   22.0660 N   0  0  0  0  0  0  0  0  0  0  0  0
  -23.4170  -32.1250   23.7050 O   0  0  0  0  0  0  0  0  0  0  0  0
  -22.5730  -29.4360   22.4980 C   0  0  0  0  0  0  0  0  0  0  0  0
  -21.2420  -29.3000   22.3880 N   0  0  0  0  0  0  0  0  0  0  0  0
  -23.2450  -28.7790   23.2960 O   0  0  0  0  0  0  0  0  0  0  0  0
  -20.7650  -29.8840   21.7170 H   0  0  0  0  0  0  0  0  0  0  0  0
  -17.8300  -28.2270   22.9290 C   0  0  0  0  0  0  0  0  0  0  0  0
  -20.4010  -28.3870   23.1590 C   0  0  0  0  0  3  0  0  0  0  0  0
  -20.4400  -26.9580   22.5700 C   0  0  0  0  0  2  0  0  0  0  0  0
  -19.3120  -26.6840   21.5720 C   0  0  0  0  0  2  0  0  0  0  0  0
  -17.9440  -26.8760   22.2390 C   0  0  0  0  0  2  0  0  0  0  0  0
  -18.9850  -28.9440   23.3440 C   0  0  0  0  0  0  0  0  0  0  0  0
  -18.8270  -30.2100   23.9460 C   0  0  0  0  0  3  0  0  0  0  0  0
  -17.5470  -30.7640   24.1340 C   0  0  0  0  0  3  0  0  0  0  0  0
  -16.4060  -30.0430   23.7360 C   0  0  0  0  0  3  0  0  0  0  0  0
  -16.5480  -28.7770   23.1390 C   0  0  0  0  0  3  0  0  0  0  0  0
  -25.7920  -32.4210   23.7810 C   0  0  0  0  0  3  0  0  0  0  0  0
  -26.3060  -31.6290   25.0470 C   0  0  1  0  0  0  0  0  0  0  0  0
  -25.2140  -31.3960   26.1180 C   0  0  0  0  0  1  0  0  0  0  0  0
  -26.8750  -30.2520   24.6310 C   0  0  0  0  0  1  0  0  0  0  0  0
  -27.4690  -32.4070   25.7090 C   0  0  0  0  0  1  0  0  0  0  0  0
  -25.5200  -33.8220   24.1220 N   0  0  0  0  0  0  0  0  0  0  0  0
  -25.8840  -34.8700   23.3710 C   0  0  0  0  0  0  0  0  0  0  0  0
  -26.5590  -34.7560   22.3450 O   0  0  0  0  0  0  0  0  0  0  0  0
  -24.9340  -33.9910   24.9260 H   0  0  0  0  0  0  0  0  0  0  0  0
  -24.2170  -36.7140   22.9990 C   0  0  0  0  0  1  0  0  0  0  0  0
  -25.4230  -36.2630   23.8380 C   0  0  0  0  0  3  0  0  0  0  0  0
  -27.5540  -37.0750   24.7450 C   0  0  0  0  0  1  0  0  0  0  0  0
  -26.4890  -37.2870   23.7690 N   0  0  0  0  0  0  0  0  0  0  0  0
  -26.1030  -38.2150   23.9210 H   0  0  0  0  0  0  0  0  0  0  0  0
  1  2  1  0
  2  4  1  0
  3  1  2  0
  5  2  1  0
  5 11  1  0
  6  5  1  0
  6  8  2  0
  7  6  1  0
  9  7  1  0
 10  7  1  0
 12 11  1  0
 12 13  1  0
 14 13  1  0
 15 23  1  0
 16 21  1  0
 17 18  1  0
 17 16  1  0
 19 18  1  0
 19 28  1  0
 19 20  1  0
 21 15  1  0
 21 20  1  0
 22 15  2  0
 23 14  1  0
 23 24  1  0
 25 26  2  0
 26 45  1  0
 27 26  1  0
 27 30  1  0
 28 29  1  0
 28 25  1  0
 29 27  2  0
 30 31  1  0
 31 32  2  0
 33 36  1  0
 33 32  1  0
 34 33  2  0
 35 34  1  0
 35 30  2  0
 36 37  1  0
 37 42  2  0
 37 38  1  0
 38 39  2  0
 39 40  1  0
 40 44  1  0
 41 40  2  0
 42 41  1  0
 43 42  1  0
 45 46  1  0
 46 49  1  0
 46 48  1  0
 47 45  2  0
 50 25  1  0
 50 51  1  0
 52 50  1  0
 53 58  1  0
 53  1  1  0
 54 57  1  0
 54 53  1  0
 55 54  1  0
 56 54  1  0
 58 59  1  0
 60 71  2  0
 61 59  1  0
 61 66  1  0
 62 70  1  0
 62 72  1  0
 63 69  1  0
 63 65  1  0
 64 70  1  0
 65 64  1  0
 66 65  2  0
 67 68  1  0
 67 61  2  0
 68 63  2  0
 69 62  1  0
 70 60  1  0
 72 74  2  0
 73 72  1  0
 75 73  1  0
 76 85  2  0
 76 81  1  0
 77 73  1  0
 77 81  1  0
 78 77  1  0
 79 80  1  0
 79 78  1  0
 80 76  1  0
 81 82  2  0
 82 83  1  0
 84 83  2  0
 85 84  1  0
 86 60  1  0
 86 91  1  0
 86 87  1  0
 87 90  1  1
 87 88  1  0
 89 87  1  0
 91 94  1  0
 92 96  1  0
 92 91  1  0
 93 92  2  0
 96 95  1  0
 98 96  1  0
 98 99  1  0
 98 97  1  0
M  ISO  4  15 100  23 100  58 101  59 101
M  END
>  <TORSDO>  (54) 
F 25

>  <SCORE>  (54) 
-11.836

>  <name>  (54) 
55

>  <ligand_id>  (54) 
55

>  <original_smiles>  (54) 
[H]c1c([H])c([H])c2c(c1[H])C([H])([H])C([H])([H])C([H])([H])C2([H])N([H])C(=O)C1([H])N(C(=O)C([H])(N([H])C(=O)C([H])(N([H])C([H])([H])[H])C([H])([H])[H])C(C([H])([H])[H])(C([H])([H])[H])C([H])([H])[H])C([H])([H])c2c([H])c(OC([H])([H])C([H])(C(=O)N([H])C([H])(C(=O)N([H])[H])C([H])([H])C([H])([H])C([H])([H])C([H])([H])N([H])C(=O)N3C([H])([H])C([H])([H])C([H])([H])C([H])(n4nc(-c5c([H])c([H])c(Oc6c([H])c([H])c(F)c([H])c6F)c([H])c5[H])c(C(=O)N([H])[H])c4N([H])[H])C3([H])[H])[N+]([H])([H])[H])c([H])c([H])c2C1([H])[H]

>  <smiles>  (54) 
[H]c1c([H])c([H])c2c(c1[H])C([H])([H])C([H])([H])C([H])([H])C2([H])N([H])C(=O)C1([H])N(C(=O)C([H])(N([H])C(=O)C([H])(N([H])C([H])([H])[H])C([H])([H])[H])C(C([H])([H])[H])(C([H])([H])[H])C([H])([H])[H])C([H])([H])c2c([H])c(OC([H])([H])C([H])(C(=O)N([H])C([H])(C(=O)N([H])[H])C([H])([H])C([H])([H])C([H])([H])C([H])([H])N([H])C(=O)N3C([H])([H])C([H])([H])C([H])([H])C([H])(n4nc(-c5c([H])c([H])c(Oc6c([H])c([H])c(F)c([H])c6F)c([H])c5[H])c(C(=O)N([H])[H])c4N([H])[H])C3([H])[H])[N+]([H])([H])[H])c([H])c([H])c2C1([H])[H]

$$$$
56:0:0
     RDKit          3D

 96103  0  0  1  0  0  0  0  0999 V2000
  -24.7320  -22.4820   19.6870 C   0  0  0  0  0  2  0  0  0  0  0  0
  -24.6660  -23.0590   21.1290 C   0  0  0  0  0  2  0  0  0  0  0  0
  -25.1090  -24.5320   21.3100 C   0  0  0  0  0  2  0  0  0  0  0  0
  -27.4110  -25.4970   20.8960 C   0  0  0  0  0  0  0  0  0  0  0  0
  -26.2950  -24.8570   20.5160 N   0  0  0  0  0  0  0  0  0  0  0  0
  -27.6470  -25.8030   22.0670 O   0  0  0  0  0  0  0  0  0  0  0  0
  -26.2140  -24.6780   19.5250 H   0  0  0  0  0  0  0  0  0  0  0  0
  -28.3640  -25.9200   19.7460 C   0  0  0  0  0  2  0  0  0  0  0  0
  -28.4640  -27.3520   19.5910 O   0  0  0  0  0  0  0  0  0  0  0  0
  -24.5410  -31.9080   23.2850 C   0  0  0  0  0  0  0  0  0  0  0  0
  -27.2870  -28.0670   19.5890 C   0  0  0  0  0  0  0  0  0  0  0  0
  -23.3540  -30.6890   21.4880 C   0  0  0  0  0  3  0  0  0  0  0  0
  -24.8360  -29.4400   19.8330 C   0  0  0  0  0  0  0  0  0  0  0  0
  -25.8530  -31.1960   21.2950 C   0  0  0  0  0  2  0  0  0  0  0  0
  -25.9820  -29.9340   20.4690 C   0  0  0  0  0  0  0  0  0  0  0  0
  -27.2130  -29.2550   20.3460 C   0  0  0  0  0  3  0  0  0  0  0  0
  -26.1370  -27.6170   18.9010 C   0  0  0  0  0  3  0  0  0  0  0  0
  -24.9080  -28.2800   19.0440 C   0  0  0  0  0  3  0  0  0  0  0  0
  -23.5550  -30.2180   20.0240 C   0  0  0  0  0  2  0  0  0  0  0  0
  -24.6000  -31.2710   22.0810 N   0  0  0  0  0  0  0  0  0  0  0  0
  -23.4640  -32.0490   23.8800 O   0  0  0  0  0  0  0  0  0  0  0  0
  -22.7780  -29.5150   22.3120 C   0  0  0  0  0  0  0  0  0  0  0  0
  -21.4660  -29.2660   22.1620 N   0  0  0  0  0  0  0  0  0  0  0  0
  -23.5060  -28.8380   23.0450 O   0  0  0  0  0  0  0  0  0  0  0  0
  -20.9380  -29.8670   21.5480 H   0  0  0  0  0  0  0  0  0  0  0  0
  -18.1780  -27.8080   22.4910 C   0  0  0  0  0  0  0  0  0  0  0  0
  -20.7140  -28.1950   22.8130 C   0  0  0  0  0  3  0  0  0  0  0  0
  -20.9070  -26.8530   22.0720 C   0  0  0  0  0  2  0  0  0  0  0  0
  -19.8300  -26.5880   21.0150 C   0  0  0  0  0  2  0  0  0  0  0  0
  -18.4410  -26.5660   21.6550 C   0  0  0  0  0  2  0  0  0  0  0  0
  -19.2450  -28.5830   23.0180 C   0  0  0  0  0  0  0  0  0  0  0  0
  -18.9450  -29.7520   23.7500 C   0  0  0  0  0  3  0  0  0  0  0  0
  -17.6100  -30.1490   23.9600 C   0  0  0  0  0  3  0  0  0  0  0  0
  -16.5580  -29.3680   23.4510 C   0  0  0  0  0  3  0  0  0  0  0  0
  -16.8430  -28.1990   22.7220 C   0  0  0  0  0  3  0  0  0  0  0  0
  -25.8160  -32.5090   23.9560 C   0  0  0  0  0  3  0  0  0  0  0  0
  -26.2950  -31.6950   25.2190 C   0  0  1  0  0  0  0  0  0  0  0  0
  -25.1740  -31.4310   26.2500 C   0  0  0  0  0  1  0  0  0  0  0  0
  -26.8790  -30.3270   24.7990 C   0  0  0  0  0  1  0  0  0  0  0  0
  -27.4370  -32.4590   25.9310 C   0  0  0  0  0  1  0  0  0  0  0  0
  -25.5060  -33.8980   24.3160 N   0  0  0  0  0  0  0  0  0  0  0  0
  -25.8650  -34.9710   23.5950 C   0  0  0  0  0  0  0  0  0  0  0  0
  -26.5650  -34.8910   22.5810 O   0  0  0  0  0  0  0  0  0  0  0  0
  -24.8940  -34.0320   25.1080 H   0  0  0  0  0  0  0  0  0  0  0  0
  -24.1620  -36.7860   23.2360 C   0  0  0  0  0  1  0  0  0  0  0  0
  -25.3730  -36.3510   24.0780 C   0  0  0  0  0  3  0  0  0  0  0  0
  -27.4820  -37.1950   25.0100 C   0  0  0  0  0  1  0  0  0  0  0  0
  -26.4180  -37.3980   24.0290 N   0  0  0  0  0  0  0  0  0  0  0  0
  -26.0140  -38.3190   24.1830 H   0  0  0  0  0  0  0  0  0  0  0  0
  -25.4180  -21.0980   19.6190 C   0  0  0  0  0  2  0  0  0  0  0  0
  -26.3550  -20.9160   18.4050 C   0  0  0  0  0  2  0  0  0  0  0  0
  -28.4620  -19.9250   19.2910 C   0  0  0  0  0  0  0  0  0  0  0  0
  -27.3070  -19.8210   18.6140 N   0  0  0  0  0  0  0  0  0  0  0  0
  -28.8250  -20.9830   19.8100 O   0  0  0  0  0  0  0  0  0  0  0  0
  -27.0830  -18.9320   18.1880 H   0  0  0  0  0  0  0  0  0  0  0  0
  -29.3470  -18.6750   19.4010 C   0  0  0  0  0  2  0  0  0  0  0  0
  -29.8060  -18.3950   20.8510 C   0  0  0  0  0  2  0  0  0  0  0  0
  -30.9470  -17.3670   20.9520 C   0  0  0  0  0  2  0  0  0  0  0  0
  -31.1730  -15.0210   20.1520 C   0  0  0  0  0  0  0  0  0  0  0  0
  -30.8850  -12.8210   19.0890 C   0  0  0  0  0  2  0  0  0  0  0  0
  -29.9050  -12.9550   17.9050 C   0  0  0  0  0  2  0  0  0  0  0  0
  -28.4380  -12.8470   18.3700 C   0  0  0  0  0  2  0  0  0  0  0  0
  -28.1290  -13.7230   19.6140 C   0  0  0  0  0  3  0  0  0  0  0  0
  -29.2130  -13.5390   20.6990 C   0  0  0  0  0  2  0  0  0  0  0  0
  -30.5180  -13.8370   20.0820 N   0  0  0  0  0  0  0  0  0  0  0  0
  -32.2650  -15.2310   19.6180 O   0  0  0  0  0  0  0  0  0  0  0  0
  -30.4840  -15.9960   20.7560 N   0  0  0  0  0  0  0  0  0  0  0  0
  -29.5830  -15.7400   21.1280 H   0  0  0  0  0  0  0  0  0  0  0  0
  -25.7950  -14.3500   20.4990 C   0  0  0  0  0  0  0  0  0  0  0  0
  -24.7140  -13.5880   20.8490 C   0  0  0  0  0  0  0  0  0  0  0  0
  -25.1180  -12.2290   20.6720 C   0  0  0  0  0  0  0  0  0  0  0  0
  -26.7910  -13.4570   20.1370 N   0  0  0  0  0  0  0  0  0  0  0  0
  -26.3880  -12.1700   20.2900 N   0  0  0  0  0  0  0  0  0  0  0  0
  -24.3520  -10.9810   20.7800 C   0  0  0  0  0  0  0  0  0  0  0  0
  -24.7210   -9.9610   21.6880 C   0  0  0  0  0  3  0  0  0  0  0  0
  -23.9530   -8.7800   21.7910 C   0  0  0  0  0  3  0  0  0  0  0  0
  -22.8020   -8.6120   20.9860 C   0  0  0  0  0  0  0  0  0  0  0  0
  -22.4540   -9.6180   20.0680 C   0  0  0  0  0  3  0  0  0  0  0  0
  -23.2220  -10.7890   19.9610 C   0  0  0  0  0  3  0  0  0  0  0  0
  -22.0100   -7.4880   20.9970 O   0  0  0  0  0  0  0  0  0  0  0  0
  -21.7840   -6.7780   22.1490 C   0  0  0  0  0  0  0  0  0  0  0  0
  -21.1700   -7.3650   23.2780 C   0  0  0  0  0  3  0  0  0  0  0  0
  -20.8940   -6.5830   24.4160 C   0  0  0  0  0  3  0  0  0  0  0  0
  -21.2200   -5.2140   24.4250 C   0  0  0  0  0  0  0  0  0  0  0  0
  -21.8270   -4.6270   23.3010 C   0  0  0  0  0  3  0  0  0  0  0  0
  -22.1060   -5.4060   22.1660 C   0  0  0  0  0  0  0  0  0  0  0  0
  -22.6710   -4.8290   21.0760 F   0  0  0  0  0  0  0  0  0  0  0  0
  -20.9500   -4.4610   25.5160 F   0  0  0  0  0  0  0  0  0  0  0  0
  -23.3530  -14.0870   21.2370 C   0  0  0  0  0  0  0  0  0  0  0  0
  -22.6460  -13.3510   22.0880 N   0  0  0  0  0  0  0  0  0  0  0  0
  -22.9270  -15.1660   20.8270 O   0  0  0  0  0  0  0  0  0  0  0  0
  -23.0040  -12.4740   22.4380 H   0  0  0  0  0  0  0  0  0  0  0  0
  -21.7360  -13.6660   22.3960 H   0  0  0  0  0  0  0  0  0  0  0  0
  -26.0150  -15.7240   20.4400 N   0  0  0  0  0  0  0  0  0  0  0  0
  -25.2970  -16.4020   20.6670 H   0  0  0  0  0  0  0  0  0  0  0  0
  -26.8830  -16.1440   20.1450 H   0  0  0  0  0  0  0  0  0  0  0  0
  1  2  1  0
  2  3  1  0
  4  6  2  0
  5  4  1  0
  5  3  1  0
  7  5  1  0
  8  4  1  0
  9  8  1  0
 10 21  2  0
 11  9  1  0
 11 16  1  0
 12 20  1  0
 12 22  1  0
 13 19  1  0
 13 15  1  0
 14 20  1  0
 15 14  1  0
 16 15  2  0
 17 18  1  0
 17 11  2  0
 18 13  2  0
 19 12  1  0
 20 10  1  0
 22 24  2  0
 23 22  1  0
 25 23  1  0
 26 35  2  0
 26 31  1  0
 27 23  1  0
 27 31  1  0
 28 27  1  0
 29 30  1  0
 29 28  1  0
 30 26  1  0
 31 32  2  0
 32 33  1  0
 34 33  2  0
 35 34  1  0
 36 10  1  0
 36 41  1  0
 36 37  1  0
 37 40  1  1
 37 38  1  0
 39 37  1  0
 41 44  1  0
 42 46  1  0
 42 41  1  0
 43 42  2  0
 46 45  1  0
 48 46  1  0
 48 49  1  0
 48 47  1  0
 50  1  1  0
 51 53  1  0
 51 50  1  0
 52 56  1  0
 52 54  2  0
 53 52  1  0
 55 53  1  0
 56 57  1  0
 57 58  1  0
 59 67  1  0
 60 65  1  0
 61 62  1  0
 61 60  1  0
 63 62  1  0
 63 72  1  0
 63 64  1  0
 65 59  1  0
 65 64  1  0
 66 59  2  0
 67 58  1  0
 67 68  1  0
 69 70  2  0
 70 89  1  0
 71 74  1  0
 71 70  1  0
 72 73  1  0
 72 69  1  0
 73 71  2  0
 74 75  1  0
 75 76  2  0
 77 80  1  0
 77 76  1  0
 78 77  2  0
 79 78  1  0
 79 74  2  0
 80 81  1  0
 81 86  2  0
 81 82  1  0
 82 83  2  0
 83 84  1  0
 84 88  1  0
 85 84  2  0
 86 85  1  0
 87 86  1  0
 89 90  1  0
 90 93  1  0
 90 92  1  0
 91 89  2  0
 94 69  1  0
 94 95  1  0
 96 94  1  0
M  ISO  4   8 101   9 101  59 100  67 100
M  END
>  <TORSDO>  (55) 
F 26

>  <SCORE>  (55) 
-9.059

>  <name>  (55) 
56

>  <ligand_id>  (55) 
56

>  <original_smiles>  (55) 
[H]c1c([H])c([H])c2c(c1[H])C([H])([H])C([H])([H])C([H])([H])C2([H])N([H])C(=O)C1([H])N(C(=O)C([H])(N([H])C(=O)C([H])(N([H])C([H])([H])[H])C([H])([H])[H])C(C([H])([H])[H])(C([H])([H])[H])C([H])([H])[H])C([H])([H])c2c([H])c(OC([H])([H])C(=O)N([H])C([H])([H])C([H])([H])C([H])([H])C([H])([H])C([H])([H])N([H])C(=O)C([H])([H])C([H])([H])C([H])([H])N([H])C(=O)N3C([H])([H])C([H])([H])C([H])([H])C([H])(n4nc(-c5c([H])c([H])c(Oc6c([H])c([H])c(F)c([H])c6F)c([H])c5[H])c(C(=O)N([H])[H])c4N([H])[H])C3([H])[H])c([H])c([H])c2C1([H])[H]

>  <smiles>  (55) 
[H]c1c([H])c([H])c2c(c1[H])C([H])([H])C([H])([H])C([H])([H])C2([H])N([H])C(=O)C1([H])N(C(=O)C([H])(N([H])C(=O)C([H])(N([H])C([H])([H])[H])C([H])([H])[H])C(C([H])([H])[H])(C([H])([H])[H])C([H])([H])[H])C([H])([H])c2c([H])c(OC([H])([H])C(=O)N([H])C([H])([H])C([H])([H])C([H])([H])C([H])([H])C([H])([H])N([H])C(=O)C([H])([H])C([H])([H])C([H])([H])N([H])C(=O)N3C([H])([H])C([H])([H])C([H])([H])C([H])(n4nc(-c5c([H])c([H])c(Oc6c([H])c([H])c(F)c([H])c6F)c([H])c5[H])c(C(=O)N([H])[H])c4N([H])[H])C3([H])[H])c([H])c([H])c2C1([H])[H]

$$$$
57:0:0
     RDKit          3D

 82 86  0  0  1  0  0  0  0  0999 V2000
  -28.2030  -25.2140   20.1870 O   0  0  0  0  0  1  0  0  0  0  0  0
  -24.6590  -31.8230   23.1160 C   0  0  0  0  0  0  0  0  0  0  0  0
  -27.2270  -26.5180   20.2190 C   0  0  0  0  0  0  0  0  0  0  0  0
  -23.5030  -30.4040   21.4840 C   0  0  0  0  0  3  0  0  0  0  0  0
  -24.9680  -28.6960   20.1210 C   0  0  0  0  0  0  0  0  0  0  0  0
  -26.0920  -30.4850   21.4080 C   0  0  0  0  0  2  0  0  0  0  0  0
  -26.1660  -29.0180   20.7700 C   0  0  0  0  0  0  0  0  0  0  0  0
  -27.2690  -27.9690   20.7710 C   0  0  0  0  0  3  0  0  0  0  0  0
  -25.9850  -26.4690   19.5130 C   0  0  0  0  0  3  0  0  0  0  0  0
  -24.9320  -27.4500   19.4670 C   0  0  0  0  0  3  0  0  0  0  0  0
  -23.7680  -29.6710   20.1330 C   0  0  0  0  0  2  0  0  0  0  0  0
  -24.7790  -30.9440   22.0540 N   0  0  0  0  0  0  0  0  0  0  0  0
  -23.5550  -32.1300   23.6020 O   0  0  0  0  0  0  0  0  0  0  0  0
  -22.7610  -29.4600   22.4680 C   0  0  0  0  0  0  0  0  0  0  0  0
  -21.4220  -29.3490   22.3610 N   0  0  0  0  0  0  0  0  0  0  0  0
  -23.4040  -28.8170   23.3000 O   0  0  0  0  0  0  0  0  0  0  0  0
  -20.9470  -29.9240   21.6780 H   0  0  0  0  0  0  0  0  0  0  0  0
  -18.0030  -28.1330   22.8590 C   0  0  0  0  0  0  0  0  0  0  0  0
  -20.5950  -28.3830   23.0970 C   0  0  0  0  0  0  0  0  0  0  0  0
  -20.7720  -26.9760   22.4620 C   0  0  0  0  0  3  0  0  0  0  0  0
  -19.5380  -26.4150   21.7220 C   0  0  0  0  0  3  0  0  0  0  0  0
  -18.0990  -26.8440   22.0560 C   0  0  0  0  0  3  0  0  0  0  0  0
  -19.1450  -28.8670   23.2920 C   0  0  0  0  0  0  0  0  0  0  0  0
  -18.9400  -30.1130   23.9270 C   0  0  0  0  0  3  0  0  0  0  0  0
  -17.6430  -30.6230   24.1300 C   0  0  0  0  0  3  0  0  0  0  0  0
  -16.5250  -29.8800   23.7210 C   0  0  0  0  0  3  0  0  0  0  0  0
  -16.7080  -28.6360   23.0960 C   0  0  0  0  0  3  0  0  0  0  0  0
  -25.9010  -32.4970   23.7720 C   0  0  0  0  0  3  0  0  0  0  0  0
  -25.5540  -33.8960   24.1020 N   0  0  0  0  0  0  0  0  0  0  0  0
  -25.8860  -34.9730   23.3740 C   0  0  0  0  0  0  0  0  0  0  0  0
  -26.5670  -34.8910   22.3500 O   0  0  0  0  0  0  0  0  0  0  0  0
  -24.9460  -34.0310   24.8960 H   0  0  0  0  0  0  0  0  0  0  0  0
  -24.1500  -36.7720   23.0460 C   0  0  0  0  0  1  0  0  0  0  0  0
  -25.3900  -36.3550   23.8530 C   0  0  0  0  0  3  0  0  0  0  0  0
  -27.5120  -37.2520   24.7100 C   0  0  0  0  0  1  0  0  0  0  0  0
  -26.4160  -37.4190   23.7590 N   0  0  0  0  0  0  0  0  0  0  0  0
  -26.0000  -38.3340   23.9110 H   0  0  0  0  0  0  0  0  0  0  0  0
  -26.3860  -31.7540   25.0790 C   0  0  1  0  0  0  0  0  0  0  0  0
  -25.2660  -31.5290   26.1240 C   0  0  0  0  0  1  0  0  0  0  0  0
  -26.9880  -30.3730   24.7440 C   0  0  0  0  0  1  0  0  0  0  0  0
  -27.5140  -32.5680   25.7560 C   0  0  0  0  0  1  0  0  0  0  0  0
  -28.2300  -23.3320   20.4390 C   0  0  0  0  0 15  0  0  0  0  0  0
  -28.7870  -21.3790   19.8640 C   0  0  0  0  0 15  0  0  0  0  0  0
  -29.3980  -19.4400   20.4120 C   0  0  0  0  0  1  0  0  0  0  0  0
  -30.1690  -16.0920   20.0360 C   0  0  0  0  0  0  0  0  0  0  0  0
  -30.3590  -13.4710   19.1990 C   0  0  0  0  0  2  0  0  0  0  0  0
  -29.4770  -12.8700   18.0550 C   0  0  0  0  0  2  0  0  0  0  0  0
  -28.1030  -12.4290   18.5740 C   0  0  0  0  0  2  0  0  0  0  0  0
  -27.5630  -13.4490   19.5940 C   0  0  0  0  0  3  0  0  0  0  0  0
  -28.6020  -13.9210   20.6470 C   0  0  0  0  0  2  0  0  0  0  0  0
  -29.6750  -14.6720   19.9180 N   0  0  0  0  0  0  0  0  0  0  0  0
  -31.4150  -15.9560   19.9590 O   0  0  0  0  0  0  0  0  0  0  0  0
  -29.4220  -17.5600   20.0550 N   0  0  0  0  0  0  0  0  0  0  0  0
  -28.4530  -17.3130   19.9040 H   0  0  0  0  0  0  0  0  0  0  0  0
  -25.2310  -13.9310   20.4500 C   0  0  0  0  0  0  0  0  0  0  0  0
  -24.1900  -13.1380   20.8360 C   0  0  0  0  0  0  0  0  0  0  0  0
  -24.6710  -11.7930   20.7770 C   0  0  0  0  0  0  0  0  0  0  0  0
  -26.2760  -13.0750   20.1660 N   0  0  0  0  0  0  0  0  0  0  0  0
  -25.9570  -11.7790   20.4270 N   0  0  0  0  0  0  0  0  0  0  0  0
  -23.9560  -10.5240   20.9740 C   0  0  0  0  0  0  0  0  0  0  0  0
  -24.4050   -9.5560   21.8990 C   0  0  0  0  0  3  0  0  0  0  0  0
  -23.6830   -8.3560   22.0890 C   0  0  0  0  0  3  0  0  0  0  0  0
  -22.4960   -8.1180   21.3550 C   0  0  0  0  0  0  0  0  0  0  0  0
  -22.0660   -9.0740   20.4200 C   0  0  0  0  0  3  0  0  0  0  0  0
  -22.7890  -10.2650   20.2280 C   0  0  0  0  0  3  0  0  0  0  0  0
  -21.7460   -6.9710   21.4550 O   0  0  0  0  0  0  0  0  0  0  0  0
  -21.7090   -6.2310   22.6100 C   0  0  0  0  0  0  0  0  0  0  0  0
  -21.2840   -6.7860   23.8360 C   0  0  0  0  0  3  0  0  0  0  0  0
  -21.1960   -5.9730   24.9840 C   0  0  0  0  0  3  0  0  0  0  0  0
  -21.5230   -4.6050   24.9060 C   0  0  0  0  0  0  0  0  0  0  0  0
  -21.9420   -4.0500   23.6840 C   0  0  0  0  0  3  0  0  0  0  0  0
  -22.0320   -4.8600   22.5390 C   0  0  0  0  0  0  0  0  0  0  0  0
  -22.4140   -4.3150   21.3590 F   0  0  0  0  0  0  0  0  0  0  0  0
  -21.4320   -3.8220   26.0060 F   0  0  0  0  0  0  0  0  0  0  0  0
  -22.7960  -13.6030   21.1400 C   0  0  0  0  0  0  0  0  0  0  0  0
  -22.0920  -12.8960   22.0160 N   0  0  0  0  0  0  0  0  0  0  0  0
  -22.3430  -14.6300   20.6380 O   0  0  0  0  0  0  0  0  0  0  0  0
  -22.4740  -12.0650   22.4440 H   0  0  0  0  0  0  0  0  0  0  0  0
  -21.1580  -13.1890   22.2630 H   0  0  0  0  0  0  0  0  0  0  0  0
  -25.3710  -15.3060   20.2780 N   0  0  0  0  0  0  0  0  0  0  0  0
  -24.5980  -15.9490   20.4140 H   0  0  0  0  0  0  0  0  0  0  0  0
  -26.2020  -15.7550   19.9170 H   0  0  0  0  0  0  0  0  0  0  0  0
  1  3  1  0
  2 13  2  0
  3  8  1  0
  4 12  1  0
  4 14  1  0
  5 11  1  0
  5  7  1  0
  6 12  1  0
  7  8  2  0
  7  6  1  0
  9  3  2  0
 10  9  1  0
 10  5  2  0
 11  4  1  0
 12  2  1  0
 14 16  2  0
 15 14  1  0
 15 19  1  0
 17 15  1  0
 18 27  2  0
 18 23  1  0
 19 23  1  0
 20 19  2  0
 21 22  2  0
 21 20  1  0
 22 18  1  0
 23 24  2  0
 24 25  1  0
 26 25  2  0
 27 26  1  0
 28  2  1  0
 28 29  1  0
 28 38  1  0
 29 32  1  0
 30 34  1  0
 30 29  1  0
 31 30  2  0
 34 33  1  0
 36 34  1  0
 36 37  1  0
 36 35  1  0
 38 41  1  1
 38 39  1  0
 40 38  1  0
 45 53  1  0
 46 51  1  0
 47 48  1  0
 47 46  1  0
 49 48  1  0
 49 58  1  0
 49 50  1  0
 51 45  1  0
 51 50  1  0
 52 45  2  0
 53 44  1  0
 54 53  1  0
 55 56  2  0
 56 75  1  0
 57 56  1  0
 57 60  1  0
 58 59  1  0
 58 55  1  0
 59 57  2  0
 60 61  1  0
 61 62  2  0
 63 66  1  0
 63 62  1  0
 64 63  2  0
 65 64  1  0
 65 60  2  0
 66 67  1  0
 67 68  1  0
 68 69  2  0
 70 69  1  0
 70 74  1  0
 71 70  2  0
 72 67  2  0
 72 71  1  0
 73 72  1  0
 75 76  1  0
 76 79  1  0
 76 78  1  0
 77 75  2  0
 80 81  1  0
 80 55  1  0
 82 80  1  0
M  ISO  4   1 101  42 101  45 100  53 100
M  END
>  <TORSDO>  (56) 
F 18

>  <SCORE>  (56) 
-16.165

>  <name>  (56) 
57

>  <ligand_id>  (56) 
57

>  <original_smiles>  (56) 
[H]c1c([H])c([H])c2c(c1[H])C([H])([H])C([H])([H])C([H])([H])C2([H])N([H])C(=O)C1([H])N(C(=O)C([H])(N([H])C(=O)C([H])(N([H])C([H])([H])[H])C([H])([H])[H])C(C([H])([H])[H])(C([H])([H])[H])C([H])([H])[H])C([H])([H])c2c([H])c(OC([H])([H])C([H])([H])C([H])([H])N([H])C(=O)N3C([H])([H])C([H])([H])C([H])([H])C([H])(n4nc(-c5c([H])c([H])c(Oc6c([H])c([H])c(F)c([H])c6F)c([H])c5[H])c(C(=O)N([H])[H])c4N([H])[H])C3([H])[H])c([H])c([H])c2C1([H])[H]

>  <smiles>  (56) 
[H]c1c([H])c([H])c2c(c1[H])C([H])([H])C([H])([H])C([H])([H])C2([H])N([H])C(=O)C1([H])N(C(=O)C([H])(N([H])C(=O)C([H])(N([H])C([H])([H])[H])C([H])([H])[H])C(C([H])([H])[H])(C([H])([H])[H])C([H])([H])[H])C([H])([H])c2c([H])c(OC([H])([H])C([H])([H])C([H])([H])N([H])C(=O)N3C([H])([H])C([H])([H])C([H])([H])C([H])(n4nc(-c5c([H])c([H])c(Oc6c([H])c([H])c(F)c([H])c6F)c([H])c5[H])c(C(=O)N([H])[H])c4N([H])[H])C3([H])[H])c([H])c([H])c2C1([H])[H]

$$$$
58:0:0
     RDKit          3D

 97104  0  0  1  0  0  0  0  0999 V2000
  -30.2850  -22.2920   20.5500 C   0  0  0  0  0  3  0  0  0  0  0  0
  -29.6890  -20.9000   20.2030 C   0  0  0  0  0  0  0  0  0  0  0  0
  -30.3530  -19.7900   20.5880 N   0  0  0  0  0  0  0  0  0  0  0  0
  -28.5920  -20.8370   19.6450 O   0  0  0  0  0  0  0  0  0  0  0  0
  -31.2550  -19.9220   21.0280 H   0  0  0  0  0  0  0  0  0  0  0  0
  -29.8900  -18.3980   20.4130 C   0  0  0  0  0  2  0  0  0  0  0  0
  -30.7240  -17.3710   21.2340 C   0  0  0  0  0  2  0  0  0  0  0  0
  -30.9980  -14.9450   20.5550 C   0  0  0  0  0  0  0  0  0  0  0  0
  -30.7600  -12.7360   19.4750 C   0  0  0  0  0  2  0  0  0  0  0  0
  -29.8470  -12.8770   18.2400 C   0  0  0  0  0  2  0  0  0  0  0  0
  -28.3650  -12.7310   18.6380 C   0  0  0  0  0  2  0  0  0  0  0  0
  -27.9830  -13.6080   19.8600 C   0  0  0  0  0  3  0  0  0  0  0  0
  -29.0130  -13.4480   21.0020 C   0  0  0  0  0  2  0  0  0  0  0  0
  -30.3440  -13.7560   20.4530 N   0  0  0  0  0  0  0  0  0  0  0  0
  -32.1290  -15.1250   20.0970 O   0  0  0  0  0  0  0  0  0  0  0  0
  -30.2850  -15.9670   21.0710 N   0  0  0  0  0  0  0  0  0  0  0  0
  -29.3580  -15.7370   21.3930 H   0  0  0  0  0  0  0  0  0  0  0  0
  -25.5780  -14.2150   20.5430 C   0  0  0  0  0  0  0  0  0  0  0  0
  -24.5010  -13.4420   20.8830 C   0  0  0  0  0  0  0  0  0  0  0  0
  -24.9550  -12.0890   20.8370 C   0  0  0  0  0  0  0  0  0  0  0  0
  -26.6230  -13.3320   20.3140 N   0  0  0  0  0  0  0  0  0  0  0  0
  -26.2500  -12.0480   20.5470 N   0  0  0  0  0  0  0  0  0  0  0  0
  -24.2200  -10.8280   20.9940 C   0  0  0  0  0  0  0  0  0  0  0  0
  -24.5980   -9.8660   21.9570 C   0  0  0  0  0  3  0  0  0  0  0  0
  -23.8650   -8.6700   22.1000 C   0  0  0  0  0  3  0  0  0  0  0  0
  -22.7380   -8.4240   21.2810 C   0  0  0  0  0  0  0  0  0  0  0  0
  -22.3790   -9.3730   20.3070 C   0  0  0  0  0  3  0  0  0  0  0  0
  -23.1140  -10.5630   20.1620 C   0  0  0  0  0  3  0  0  0  0  0  0
  -21.9800   -7.2800   21.3330 O   0  0  0  0  0  0  0  0  0  0  0  0
  -21.8210   -6.5750   22.4990 C   0  0  0  0  0  0  0  0  0  0  0  0
  -21.2330   -7.1530   23.6450 C   0  0  0  0  0  3  0  0  0  0  0  0
  -21.0240   -6.3720   24.8000 C   0  0  0  0  0  3  0  0  0  0  0  0
  -21.3930   -5.0140   24.8080 C   0  0  0  0  0  0  0  0  0  0  0  0
  -21.9720   -4.4340   23.6650 C   0  0  0  0  0  3  0  0  0  0  0  0
  -22.1820   -5.2130   22.5120 C   0  0  0  0  0  0  0  0  0  0  0  0
  -22.7220   -4.6440   21.4080 F   0  0  0  0  0  0  0  0  0  0  0  0
  -21.1860   -4.2610   25.9130 F   0  0  0  0  0  0  0  0  0  0  0  0
  -23.1020  -13.9220   21.1450 C   0  0  0  0  0  0  0  0  0  0  0  0
  -22.3600  -13.2150   21.9900 N   0  0  0  0  0  0  0  0  0  0  0  0
  -22.6750  -14.9570   20.6350 O   0  0  0  0  0  0  0  0  0  0  0  0
  -22.7170  -12.3770   22.4230 H   0  0  0  0  0  0  0  0  0  0  0  0
  -21.4200  -13.5150   22.2070 H   0  0  0  0  0  0  0  0  0  0  0  0
  -25.7530  -15.5870   20.3910 N   0  0  0  0  0  0  0  0  0  0  0  0
  -24.9840  -16.2410   20.4840 H   0  0  0  0  0  0  0  0  0  0  0  0
  -26.6050  -16.0220   20.0570 H   0  0  0  0  0  0  0  0  0  0  0  0
  -29.8350  -24.7110   19.8530 C   0  0  0  0  0  0  0  0  0  0  0  0
  -29.5430  -23.3920   19.8970 N   0  0  0  0  0  0  0  0  0  0  0  0
  -30.8610  -25.1790   20.3500 O   0  0  0  0  0  0  0  0  0  0  0  0
  -28.7140  -23.0870   19.4000 H   0  0  0  0  0  0  0  0  0  0  0  0
  -28.7880  -25.6270   19.1730 C   0  0  0  0  0  2  0  0  0  0  0  0
  -28.8050  -27.0080   19.6320 O   0  0  0  0  0  0  0  0  0  0  0  0
  -24.5800  -31.6240   23.0950 C   0  0  0  0  0  0  0  0  0  0  0  0
  -27.5890  -27.6830   19.6420 C   0  0  0  0  0  0  0  0  0  0  0  0
  -23.4960  -30.2680   21.3370 C   0  0  0  0  0  3  0  0  0  0  0  0
  -25.0730  -29.0030   19.7820 C   0  0  0  0  0  0  0  0  0  0  0  0
  -25.9850  -30.8540   21.1820 C   0  0  0  0  0  2  0  0  0  0  0  0
  -26.1880  -29.5570   20.4210 C   0  0  0  0  0  0  0  0  0  0  0  0
  -27.4450  -28.9040   20.3530 C   0  0  0  0  0  3  0  0  0  0  0  0
  -26.4490  -27.1750   18.9700 C   0  0  0  0  0  3  0  0  0  0  0  0
  -25.2000  -27.8130   19.0530 C   0  0  0  0  0  3  0  0  0  0  0  0
  -23.7580  -29.7390   19.9030 C   0  0  0  0  0  2  0  0  0  0  0  0
  -24.7040  -30.9270   21.9290 N   0  0  0  0  0  0  0  0  0  0  0  0
  -23.4820  -31.7510   23.6530 O   0  0  0  0  0  0  0  0  0  0  0  0
  -22.9450  -29.1110   22.2010 C   0  0  0  0  0  0  0  0  0  0  0  0
  -21.6480  -28.8030   22.0360 N   0  0  0  0  0  0  0  0  0  0  0  0
  -23.6810  -28.4960   22.9770 O   0  0  0  0  0  0  0  0  0  0  0  0
  -21.1090  -29.3600   21.3870 H   0  0  0  0  0  0  0  0  0  0  0  0
  -18.4080  -27.2400   22.3900 C   0  0  0  0  0  0  0  0  0  0  0  0
  -20.9250  -27.7290   22.7180 C   0  0  0  0  0  3  0  0  0  0  0  0
  -21.1740  -26.3670   22.0310 C   0  0  0  0  0  2  0  0  0  0  0  0
  -20.1170  -26.0190   20.9780 C   0  0  0  0  0  2  0  0  0  0  0  0
  -18.7240  -25.9740   21.6120 C   0  0  0  0  0  2  0  0  0  0  0  0
  -19.4420  -28.0730   22.8960 C   0  0  0  0  0  0  0  0  0  0  0  0
  -19.0940  -29.2560   23.5820 C   0  0  0  0  0  3  0  0  0  0  0  0
  -17.7450  -29.6110   23.7680 C   0  0  0  0  0  3  0  0  0  0  0  0
  -16.7260  -28.7760   23.2790 C   0  0  0  0  0  3  0  0  0  0  0  0
  -17.0580  -27.5920   22.5960 C   0  0  0  0  0  3  0  0  0  0  0  0
  -25.8070  -32.3130   23.7690 C   0  0  0  0  0  3  0  0  0  0  0  0
  -26.3270  -31.5440   25.0460 C   0  0  1  0  0  0  0  0  0  0  0  0
  -25.2180  -31.2240   26.0740 C   0  0  0  0  0  1  0  0  0  0  0  0
  -26.9980  -30.2100   24.6460 C   0  0  0  0  0  1  0  0  0  0  0  0
  -27.4100  -32.3880   25.7590 C   0  0  0  0  0  1  0  0  0  0  0  0
  -25.4090  -33.6840   24.1130 N   0  0  0  0  0  0  0  0  0  0  0  0
  -25.6910  -34.7660   23.3750 C   0  0  0  0  0  0  0  0  0  0  0  0
  -26.3850  -34.7180   22.3550 O   0  0  0  0  0  0  0  0  0  0  0  0
  -24.7920  -33.7910   24.9050 H   0  0  0  0  0  0  0  0  0  0  0  0
  -23.8540  -36.4480   23.0220 C   0  0  0  0  0  1  0  0  0  0  0  0
  -25.1120  -36.1150   23.8410 C   0  0  0  0  0  3  0  0  0  0  0  0
  -27.1710  -37.1330   24.7080 C   0  0  0  0  0  1  0  0  0  0  0  0
  -26.0760  -37.2330   23.7480 N   0  0  0  0  0  0  0  0  0  0  0  0
  -25.6080  -38.1250   23.8900 H   0  0  0  0  0  0  0  0  0  0  0  0
  -30.3880  -22.5370   22.0820 C   0  0  0  0  0  2  0  0  0  0  0  0
  -29.1880  -23.2520   22.7600 C   0  0  0  0  0  2  0  0  0  0  0  0
  -27.9190  -22.4980   22.7170 N   0  0  0  0  0  4  0  0  0  0  0  0
  -27.5710  -22.3980   21.7790 H   0  0  0  0  0  0  0  0  0  0  0  0
  -27.2220  -22.9990   23.2410 H   0  0  0  0  0  0  0  0  0  0  0  0
  -28.0150  -21.5910   23.1390 H   0  0  0  0  0  0  0  0  0  0  0  0
  1 92  1  0
  2  1  1  0
  2  3  1  0
  3  5  1  0
  4  2  2  0
  6  3  1  0
  6  7  1  0
  8 16  1  0
  9 14  1  0
 10 11  1  0
 10  9  1  0
 12 11  1  0
 12 21  1  0
 12 13  1  0
 14  8  1  0
 14 13  1  0
 15  8  2  0
 16  7  1  0
 16 17  1  0
 18 19  2  0
 19 38  1  0
 20 19  1  0
 20 23  1  0
 21 18  1  0
 21 22  1  0
 22 20  2  0
 23 24  1  0
 24 25  2  0
 26 29  1  0
 26 25  1  0
 27 26  2  0
 28 27  1  0
 28 23  2  0
 29 30  1  0
 30 35  2  0
 30 31  1  0
 31 32  2  0
 32 33  1  0
 33 37  1  0
 34 33  2  0
 35 34  1  0
 36 35  1  0
 38 39  1  0
 39 42  1  0
 39 41  1  0
 40 38  2  0
 43 44  1  0
 43 18  1  0
 45 43  1  0
 46 47  1  0
 46 48  2  0
 47  1  1  0
 49 47  1  0
 50 51  1  0
 50 46  1  0
 51 53  1  0
 52 63  2  0
 53 58  1  0
 54 62  1  0
 54 64  1  0
 55 61  1  0
 55 57  1  0
 56 62  1  0
 57 56  1  0
 58 57  2  0
 59 60  1  0
 59 53  2  0
 60 55  2  0
 61 54  1  0
 62 52  1  0
 64 66  2  0
 65 64  1  0
 67 65  1  0
 68 77  2  0
 68 73  1  0
 69 65  1  0
 69 73  1  0
 70 69  1  0
 71 72  1  0
 71 70  1  0
 72 68  1  0
 73 74  2  0
 74 75  1  0
 76 75  2  0
 77 76  1  0
 78 52  1  0
 78 83  1  0
 78 79  1  0
 79 82  1  1
 79 80  1  0
 81 79  1  0
 83 86  1  0
 84 88  1  0
 84 83  1  0
 85 84  2  0
 88 87  1  0
 90 88  1  0
 90 91  1  0
 90 89  1  0
 92 93  1  0
 94 93  1  0
 94 97  1  0
 94 96  1  0
 95 94  1  0
M  ISO  4   8 100  16 100  50 101  51 101
M  END
>  <TORSDO>  (57) 
F 24

>  <SCORE>  (57) 
-11.094

>  <name>  (57) 
58

>  <ligand_id>  (57) 
58

>  <original_smiles>  (57) 
[H]c1c([H])c([H])c2c(c1[H])C([H])([H])C([H])([H])C([H])([H])C2([H])N([H])C(=O)C1([H])N(C(=O)C([H])(N([H])C(=O)C([H])(N([H])C([H])([H])[H])C([H])([H])[H])C(C([H])([H])[H])(C([H])([H])[H])C([H])([H])[H])C([H])([H])c2c([H])c(OC([H])([H])C(=O)N([H])C([H])(C(=O)N([H])C([H])([H])C([H])([H])N([H])C(=O)N3C([H])([H])C([H])([H])C([H])([H])C([H])(n4nc(-c5c([H])c([H])c(Oc6c([H])c([H])c(F)c([H])c6F)c([H])c5[H])c(C(=O)N([H])[H])c4N([H])[H])C3([H])[H])C([H])([H])C([H])([H])[N+]([H])([H])[H])c([H])c([H])c2C1([H])[H]

>  <smiles>  (57) 
[H]c1c([H])c([H])c2c(c1[H])C([H])([H])C([H])([H])C([H])([H])C2([H])N([H])C(=O)C1([H])N(C(=O)C([H])(N([H])C(=O)C([H])(N([H])C([H])([H])[H])C([H])([H])[H])C(C([H])([H])[H])(C([H])([H])[H])C([H])([H])[H])C([H])([H])c2c([H])c(OC([H])([H])C(=O)N([H])C([H])(C(=O)N([H])C([H])([H])C([H])([H])N([H])C(=O)N3C([H])([H])C([H])([H])C([H])([H])C([H])(n4nc(-c5c([H])c([H])c(Oc6c([H])c([H])c(F)c([H])c6F)c([H])c5[H])c(C(=O)N([H])[H])c4N([H])[H])C3([H])[H])C([H])([H])C([H])([H])[N+]([H])([H])[H])c([H])c([H])c2C1([H])[H]

$$$$
59:0:0
     RDKit          3D

 91 98  0  0  1  0  0  0  0  0999 V2000
  -30.0680  -19.1770   20.2010 C   0  0  0  0  0  0  0  0  0  0  0  0
  -29.3950  -20.4350   20.0800 N   0  0  0  0  0  0  0  0  0  0  0  0
  -31.2900  -19.1710   20.3430 O   0  0  0  0  0  0  0  0  0  0  0  0
  -28.4160  -20.2900   19.8760 H   0  0  0  0  0  0  0  0  0  0  0  0
  -29.6900  -21.9420   20.5020 C   0  0  0  0  0  2  0  0  0  0  0  0
  -29.0640  -23.3820   19.8370 C   0  0  0  0  0  2  0  0  0  0  0  0
  -28.6500  -24.7990   20.6890 C   0  0  0  0  0  2  0  0  0  0  0  0
  -28.6720  -26.3110   20.2940 O   0  0  0  0  0  0  0  0  0  0  0  0
  -24.6020  -31.7900   23.1970 C   0  0  0  0  0  0  0  0  0  0  0  0
  -27.5380  -27.2060   20.2920 C   0  0  0  0  0  0  0  0  0  0  0  0
  -23.5560  -30.3780   21.4660 C   0  0  0  0  0  3  0  0  0  0  0  0
  -25.1460  -28.8590   20.1310 C   0  0  0  0  0  0  0  0  0  0  0  0
  -26.1040  -30.7310   21.4700 C   0  0  0  0  0  2  0  0  0  0  0  0
  -26.2700  -29.3470   20.8130 C   0  0  0  0  0  0  0  0  0  0  0  0
  -27.4680  -28.5390   20.8670 C   0  0  0  0  0  3  0  0  0  0  0  0
  -26.3810  -26.8040   19.5930 C   0  0  0  0  0  3  0  0  0  0  0  0
  -25.2150  -27.6020   19.5080 C   0  0  0  0  0  3  0  0  0  0  0  0
  -23.8910  -29.7190   20.1010 C   0  0  0  0  0  2  0  0  0  0  0  0
  -24.7690  -30.9890   22.1020 N   0  0  0  0  0  0  0  0  0  0  0  0
  -23.4740  -32.0330   23.6570 O   0  0  0  0  0  0  0  0  0  0  0  0
  -22.8480  -29.3400   22.3730 C   0  0  0  0  0  0  0  0  0  0  0  0
  -21.5180  -29.2070   22.2270 N   0  0  0  0  0  0  0  0  0  0  0  0
  -23.4980  -28.6590   23.1680 O   0  0  0  0  0  0  0  0  0  0  0  0
  -21.0500  -29.8080   21.5630 H   0  0  0  0  0  0  0  0  0  0  0  0
  -18.0920  -28.1490   22.7440 C   0  0  0  0  0  0  0  0  0  0  0  0
  -20.6680  -28.2490   22.9410 C   0  0  0  0  0  3  0  0  0  0  0  0
  -20.6710  -26.8720   22.2370 C   0  0  0  0  0  2  0  0  0  0  0  0
  -19.5210  -26.7020   21.2400 C   0  0  0  0  0  2  0  0  0  0  0  0
  -18.1720  -26.8600   21.9440 C   0  0  0  0  0  2  0  0  0  0  0  0
  -19.2640  -28.8090   23.1980 C   0  0  0  0  0  0  0  0  0  0  0  0
  -19.1330  -30.0220   23.9110 C   0  0  0  0  0  3  0  0  0  0  0  0
  -17.8640  -30.5700   24.1710 C   0  0  0  0  0  3  0  0  0  0  0  0
  -16.7070  -29.9050   23.7310 C   0  0  0  0  0  3  0  0  0  0  0  0
  -16.8210  -28.6950   23.0240 C   0  0  0  0  0  3  0  0  0  0  0  0
  -25.8140  -32.4570   23.9170 C   0  0  0  0  0  3  0  0  0  0  0  0
  -25.4570  -33.8570   24.1950 N   0  0  0  0  0  0  0  0  0  0  0  0
  -25.8230  -34.9040   23.4440 C   0  0  0  0  0  0  0  0  0  0  0  0
  -26.5620  -34.7950   22.4630 O   0  0  0  0  0  0  0  0  0  0  0  0
  -24.8060  -34.0140   24.9510 H   0  0  0  0  0  0  0  0  0  0  0  0
  -24.0770  -36.6540   22.9670 C   0  0  0  0  0  1  0  0  0  0  0  0
  -25.2860  -36.2930   23.8450 C   0  0  0  0  0  3  0  0  0  0  0  0
  -27.3550  -37.2510   24.7590 C   0  0  0  0  0  1  0  0  0  0  0  0
  -26.3020  -37.3660   23.7540 N   0  0  0  0  0  0  0  0  0  0  0  0
  -25.8690  -38.2800   23.8530 H   0  0  0  0  0  0  0  0  0  0  0  0
  -26.2250  -31.7210   25.2510 C   0  0  1  0  0  0  0  0  0  0  0  0
  -25.0490  -31.5080   26.2340 C   0  0  0  0  0  1  0  0  0  0  0  0
  -26.8380  -30.3340   24.9470 C   0  0  0  0  0  1  0  0  0  0  0  0
  -27.3170  -32.5340   25.9830 C   0  0  0  0  0  1  0  0  0  0  0  0
  -29.2960  -17.6990   20.2960 C   0  0  0  0  0  0  0  0  0  0  0  0
  -30.6340  -15.0740   20.4140 C   0  0  0  0  0  0  0  0  0  0  0  0
  -30.6950  -12.5820   19.8650 C   0  0  0  0  0  2  0  0  0  0  0  0
  -29.8480  -12.2950   18.6010 C   0  0  0  0  0  2  0  0  0  0  0  0
  -28.3580  -12.1120   18.9530 C   0  0  0  0  0  2  0  0  0  0  0  0
  -27.8470  -13.2030   19.9260 C   0  0  0  0  0  3  0  0  0  0  0  0
  -28.8150  -13.4110   21.1120 C   0  0  0  0  0  2  0  0  0  0  0  0
  -30.1220  -13.7810   20.5420 N   0  0  0  0  0  0  0  0  0  0  0  0
  -31.8450  -15.1930   20.1880 O   0  0  0  0  0  0  0  0  0  0  0  0
  -29.6980  -16.1450   20.4010 N   0  0  0  0  0  4  0  0  0  0  0  0
  -28.8300  -15.6670   20.5740 H   0  0  0  0  0  0  0  0  0  0  0  0
  -25.4480  -13.8750   20.5190 C   0  0  0  0  0  0  0  0  0  0  0  0
  -24.3430  -13.1510   20.8700 C   0  0  0  0  0  0  0  0  0  0  0  0
  -24.7650  -11.7880   20.8970 C   0  0  0  0  0  0  0  0  0  0  0  0
  -26.4750  -12.9630   20.3620 N   0  0  0  0  0  0  0  0  0  0  0  0
  -26.0690  -11.7000   20.6520 N   0  0  0  0  0  0  0  0  0  0  0  0
  -23.9850  -10.5580   21.0800 C   0  0  0  0  0  0  0  0  0  0  0  0
  -24.3760   -9.5660   22.0060 C   0  0  0  0  0  3  0  0  0  0  0  0
  -23.5980   -8.4010   22.1770 C   0  0  0  0  0  3  0  0  0  0  0  0
  -22.4150   -8.2200   21.4220 C   0  0  0  0  0  0  0  0  0  0  0  0
  -22.0420   -9.1990   20.4850 C   0  0  0  0  0  3  0  0  0  0  0  0
  -22.8210  -10.3550   20.3120 C   0  0  0  0  0  3  0  0  0  0  0  0
  -21.6120   -7.1090   21.5050 O   0  0  0  0  0  0  0  0  0  0  0  0
  -21.5590   -6.3410   22.6400 C   0  0  0  0  0  0  0  0  0  0  0  0
  -21.1530   -6.8770   23.8820 C   0  0  0  0  0  3  0  0  0  0  0  0
  -21.0450   -6.0380   25.0080 C   0  0  0  0  0  3  0  0  0  0  0  0
  -21.3340   -4.6640   24.8950 C   0  0  0  0  0  0  0  0  0  0  0  0
  -21.7320   -4.1280   23.6580 C   0  0  0  0  0  3  0  0  0  0  0  0
  -21.8420   -4.9640   22.5330 C   0  0  0  0  0  0  0  0  0  0  0  0
  -22.2060   -4.4400   21.3380 F   0  0  0  0  0  0  0  0  0  0  0  0
  -21.2230   -3.8560   25.9750 F   0  0  0  0  0  0  0  0  0  0  0  0
  -22.9530  -13.6840   21.0580 C   0  0  0  0  0  0  0  0  0  0  0  0
  -22.1700  -13.0640   21.9340 N   0  0  0  0  0  0  0  0  0  0  0  0
  -22.5700  -14.6920   20.4630 O   0  0  0  0  0  0  0  0  0  0  0  0
  -22.4940  -12.2520   22.4390 H   0  0  0  0  0  0  0  0  0  0  0  0
  -21.2350  -13.4080   22.1020 H   0  0  0  0  0  0  0  0  0  0  0  0
  -25.6480  -15.2290   20.2890 N   0  0  0  0  0  0  0  0  0  0  0  0
  -24.8780  -15.8870   20.3280 H   0  0  0  0  0  0  0  0  0  0  0  0
  -26.4860  -15.6260   19.8900 H   0  0  0  0  0  0  0  0  0  0  0  0
  -27.9380  -17.6770   19.5240 C   0  0  0  0  0  2  0  0  0  0  0  0
  -26.9840  -19.8090   20.6220 C   0  0  0  0  0  1  0  0  0  0  0  0
  -25.6510  -18.5800   18.8810 C   0  0  0  0  0  1  0  0  0  0  0  0
  -27.0650  -18.9530   19.3490 C   0  0  0  0  0  3  0  0  0  0  0  0
  1 49  1  0
  1  3  2  0
  2  1  1  0
  2  5  1  0
  4  2  1  0
  6  5  1  0
  6  7  1  0
  8  7  1  0
  9 20  2  0
 10  8  1  0
 10 15  1  0
 11 19  1  0
 11 21  1  0
 12 14  1  0
 13 19  1  0
 14 15  2  0
 14 13  1  0
 16 10  2  0
 17 16  1  0
 17 12  2  0
 18 12  1  0
 18 11  1  0
 19  9  1  0
 21 23  2  0
 22 21  1  0
 24 22  1  0
 25 34  2  0
 25 30  1  0
 26 22  1  0
 26 30  1  0
 27 26  1  0
 28 29  1  0
 28 27  1  0
 29 25  1  0
 30 31  2  0
 31 32  1  0
 33 32  2  0
 34 33  1  0
 35  9  1  0
 35 36  1  0
 35 45  1  0
 36 39  1  0
 37 41  1  0
 37 36  1  0
 38 37  2  0
 41 40  1  0
 43 41  1  0
 43 44  1  0
 43 42  1  0
 45 48  1  1
 45 46  1  0
 47 45  1  0
 49 58  2  0
 50 56  1  0
 51 56  1  0
 52 53  1  0
 52 51  1  0
 54 53  1  0
 54 63  1  0
 54 55  1  0
 56 55  1  0
 57 50  2  0
 58 50  1  0
 58 59  1  0
 60 61  2  0
 61 62  1  0
 61 80  1  0
 62 65  1  0
 63 60  1  0
 63 64  1  0
 64 62  2  0
 65 66  1  0
 66 67  2  0
 68 71  1  0
 68 67  1  0
 69 68  2  0
 70 69  1  0
 70 65  2  0
 71 72  1  0
 72 73  1  0
 73 74  2  0
 75 74  1  0
 75 79  1  0
 76 75  2  0
 77 72  2  0
 77 76  1  0
 78 77  1  0
 80 81  1  0
 81 84  1  0
 81 83  1  0
 82 80  2  0
 85 86  1  0
 85 60  1  0
 87 85  1  0
 88 49  1  0
 90 91  1  0
 91 88  1  0
 91 89  1  0
M  ISO  4   7 101   8 101  50 100  58 100
M  END
>  <TORSDO>  (58) 
F 22

>  <SCORE>  (58) 
-12.100

>  <name>  (58) 
59

>  <ligand_id>  (58) 
59

>  <original_smiles>  (58) 
[H]c1c([H])c([H])c2c(c1[H])C([H])([H])C([H])([H])C([H])([H])C2([H])N([H])C(=O)C1([H])N(C(=O)C([H])(N([H])C(=O)C([H])(N([H])C([H])([H])[H])C([H])([H])[H])C(C([H])([H])[H])(C([H])([H])[H])C([H])([H])[H])C([H])([H])c2c([H])c(OC([H])([H])C([H])([H])C([H])([H])N([H])C(=O)C([H])(N([H])C(=O)N3C([H])([H])C([H])([H])C([H])([H])C([H])(n4nc(-c5c([H])c([H])c(Oc6c([H])c([H])c(F)c([H])c6F)c([H])c5[H])c(C(=O)N([H])[H])c4N([H])[H])C3([H])[H])C([H])([H])C([H])(C([H])([H])[H])C([H])([H])[H])c([H])c([H])c2C1([H])[H]

>  <smiles>  (58) 
[H]c1c([H])c([H])c2c(c1[H])C([H])([H])C([H])([H])C([H])([H])C2([H])N([H])C(=O)C1([H])N(C(=O)C([H])(N([H])C(=O)C([H])(N([H])C([H])([H])[H])C([H])([H])[H])C(C([H])([H])[H])(C([H])([H])[H])C([H])([H])[H])C([H])([H])c2c([H])c(OC([H])([H])C([H])([H])C([H])([H])N([H])C(=O)C([H])(N([H])C(=O)N3C([H])([H])C([H])([H])C([H])([H])C([H])(n4nc(-c5c([H])c([H])c(Oc6c([H])c([H])c(F)c([H])c6F)c([H])c5[H])c(C(=O)N([H])[H])c4N([H])[H])C3([H])[H])C([H])([H])C([H])(C([H])([H])[H])C([H])([H])[H])c([H])c([H])c2C1([H])[H]

$$$$
60:0:0
     RDKit          3D

 88 95  0  0  1  0  0  0  0  0999 V2000
  -28.9110  -21.2120   20.0080 C   0  0  0  0  0  0  0  0  0  0  0  0
  -28.9910  -22.4940   20.5120 N   0  0  0  0  0  0  0  0  0  0  0  0
  -28.3240  -21.0030   18.9460 O   0  0  0  0  0  0  0  0  0  0  0  0
  -29.4620  -22.5830   21.4030 H   0  0  0  0  0  0  0  0  0  0  0  0
  -29.6120  -19.9780   20.7310 C   0  0  0  0  0  2  0  0  0  0  0  0
  -29.2490  -18.4560   20.3270 C   0  0  0  0  0  3  0  0  0  0  0  0
  -30.2460  -17.2720   20.7760 C   0  0  0  0  0  3  0  0  0  0  0  0
  -30.5860  -14.7030   20.3810 C   0  0  0  0  0  0  0  0  0  0  0  0
  -30.3730  -12.4530   19.3310 C   0  0  0  0  0  2  0  0  0  0  0  0
  -29.4250  -12.5500   18.1160 C   0  0  0  0  0  2  0  0  0  0  0  0
  -27.9570  -12.3790   18.5550 C   0  0  0  0  0  2  0  0  0  0  0  0
  -27.5940  -13.2540   19.7850 C   0  0  0  0  0  3  0  0  0  0  0  0
  -28.6580  -13.1390   20.8970 C   0  0  0  0  0  2  0  0  0  0  0  0
  -29.9530  -13.4870   20.3000 N   0  0  0  0  0  0  0  0  0  0  0  0
  -31.7690  -14.8170   20.0500 O   0  0  0  0  0  0  0  0  0  0  0  0
  -29.8170  -15.8180   20.6470 N   0  0  0  0  0  0  0  0  0  0  0  0
  -28.8460  -15.6250   20.8430 H   0  0  0  0  0  0  0  0  0  0  0  0
  -25.2050  -13.8410   20.5180 C   0  0  0  0  0  0  0  0  0  0  0  0
  -24.1440  -13.0630   20.8930 C   0  0  0  0  0  0  0  0  0  0  0  0
  -24.6120  -11.7130   20.8640 C   0  0  0  0  0  0  0  0  0  0  0  0
  -26.2510  -12.9640   20.2800 N   0  0  0  0  0  0  0  0  0  0  0  0
  -25.9010  -11.6800   20.5510 N   0  0  0  0  0  0  0  0  0  0  0  0
  -23.8910  -10.4480   21.0570 C   0  0  0  0  0  0  0  0  0  0  0  0
  -24.3380   -9.4770   21.9800 C   0  0  0  0  0  3  0  0  0  0  0  0
  -23.6170   -8.2770   22.1610 C   0  0  0  0  0  3  0  0  0  0  0  0
  -22.4340   -8.0410   21.4210 C   0  0  0  0  0  0  0  0  0  0  0  0
  -22.0070   -9.0010   20.4870 C   0  0  0  0  0  3  0  0  0  0  0  0
  -22.7290  -10.1920   20.3030 C   0  0  0  0  0  3  0  0  0  0  0  0
  -21.6840   -6.8940   21.5130 O   0  0  0  0  0  0  0  0  0  0  0  0
  -21.6620   -6.1370   22.6570 C   0  0  0  0  0  0  0  0  0  0  0  0
  -21.2710   -6.6800   23.9010 C   0  0  0  0  0  3  0  0  0  0  0  0
  -21.1970   -5.8500   25.0390 C   0  0  0  0  0  3  0  0  0  0  0  0
  -21.5010   -4.4800   24.9330 C   0  0  0  0  0  0  0  0  0  0  0  0
  -21.8850   -3.9370   23.6940 C   0  0  0  0  0  3  0  0  0  0  0  0
  -21.9620   -4.7640   22.5580 C   0  0  0  0  0  0  0  0  0  0  0  0
  -22.3110   -4.2320   21.3620 F   0  0  0  0  0  0  0  0  0  0  0  0
  -21.4220   -3.6820   26.0220 F   0  0  0  0  0  0  0  0  0  0  0  0
  -22.7450  -13.5350   21.1670 C   0  0  0  0  0  0  0  0  0  0  0  0
  -22.0210  -12.8380   22.0360 N   0  0  0  0  0  0  0  0  0  0  0  0
  -22.3030  -14.5570   20.6440 O   0  0  0  0  0  0  0  0  0  0  0  0
  -22.3920  -12.0110   22.4800 H   0  0  0  0  0  0  0  0  0  0  0  0
  -21.0830  -13.1360   22.2610 H   0  0  0  0  0  0  0  0  0  0  0  0
  -25.3610  -15.2110   20.3360 N   0  0  0  0  0  0  0  0  0  0  0  0
  -24.5870  -15.8580   20.4410 H   0  0  0  0  0  0  0  0  0  0  0  0
  -26.1950  -15.6520   19.9690 H   0  0  0  0  0  0  0  0  0  0  0  0
  -28.6520  -23.8120   19.8260 C   0  0  0  0  0  2  0  0  0  0  0  0
  -28.2250  -25.0760   20.7210 C   0  0  0  0  0  2  0  0  0  0  0  0
  -28.3520  -26.4670   20.2010 O   0  0  0  0  0  0  0  0  0  0  0  0
  -24.6120  -31.8750   23.2380 C   0  0  0  0  0  0  0  0  0  0  0  0
  -27.2280  -27.3070   20.2010 C   0  0  0  0  0  0  0  0  0  0  0  0
  -23.4080  -30.4700   21.6010 C   0  0  0  0  0  3  0  0  0  0  0  0
  -24.8600  -28.9120   20.1820 C   0  0  0  0  0  0  0  0  0  0  0  0
  -25.9460  -30.7940   21.4120 C   0  0  0  0  0  2  0  0  0  0  0  0
  -26.0290  -29.4120   20.7710 C   0  0  0  0  0  0  0  0  0  0  0  0
  -27.2190  -28.6220   20.7640 C   0  0  0  0  0  3  0  0  0  0  0  0
  -26.0390  -26.8570   19.5930 C   0  0  0  0  0  3  0  0  0  0  0  0
  -24.8670  -27.6410   19.5820 C   0  0  0  0  0  3  0  0  0  0  0  0
  -23.6220  -29.7860   20.2250 C   0  0  0  0  0  2  0  0  0  0  0  0
  -24.6740  -31.0650   22.1400 N   0  0  0  0  0  0  0  0  0  0  0  0
  -23.5290  -32.1520   23.7730 O   0  0  0  0  0  0  0  0  0  0  0  0
  -22.7480  -29.4570   22.5660 C   0  0  0  0  0  0  0  0  0  0  0  0
  -21.4210  -29.2800   22.4420 N   0  0  0  0  0  0  0  0  0  0  0  0
  -23.4280  -28.8330   23.3840 O   0  0  0  0  0  0  0  0  0  0  0  0
  -20.9310  -29.8350   21.7560 H   0  0  0  0  0  0  0  0  0  0  0  0
  -18.0460  -28.0820   22.9480 C   0  0  0  0  0  0  0  0  0  0  0  0
  -20.6040  -28.3440   23.2160 C   0  0  0  0  0  3  0  0  0  0  0  0
  -20.7080  -26.9110   22.6450 C   0  0  0  0  0  2  0  0  0  0  0  0
  -19.6050  -26.5840   21.6320 C   0  0  0  0  0  2  0  0  0  0  0  0
  -18.2240  -26.7300   22.2760 C   0  0  0  0  0  2  0  0  0  0  0  0
  -19.1640  -28.8460   23.3750 C   0  0  0  0  0  0  0  0  0  0  0  0
  -18.9430  -30.1100   23.9640 C   0  0  0  0  0  3  0  0  0  0  0  0
  -17.6380  -30.6100   24.1280 C   0  0  0  0  0  3  0  0  0  0  0  0
  -16.5340  -29.8430   23.7170 C   0  0  0  0  0  3  0  0  0  0  0  0
  -16.7390  -28.5800   23.1320 C   0  0  0  0  0  3  0  0  0  0  0  0
  -25.8940  -32.5120   23.8580 C   0  0  0  0  0  3  0  0  0  0  0  0
  -25.5820  -33.9100   24.1870 N   0  0  0  0  0  0  0  0  0  0  0  0
  -25.9130  -34.9640   23.4290 C   0  0  0  0  0  0  0  0  0  0  0  0
  -26.5820  -34.8600   22.3970 O   0  0  0  0  0  0  0  0  0  0  0  0
  -24.9880  -34.0630   24.9890 H   0  0  0  0  0  0  0  0  0  0  0  0
  -24.1820  -36.7550   23.0770 C   0  0  0  0  0  1  0  0  0  0  0  0
  -25.4260  -36.3520   23.8870 C   0  0  0  0  0  3  0  0  0  0  0  0
  -27.5610  -37.2380   24.7130 C   0  0  0  0  0  1  0  0  0  0  0  0
  -26.4560  -37.4050   23.7710 N   0  0  0  0  0  0  0  0  0  0  0  0
  -26.0500  -38.3260   23.9190 H   0  0  0  0  0  0  0  0  0  0  0  0
  -26.4130  -31.7430   25.1360 C   0  0  1  0  0  0  0  0  0  0  0  0
  -25.3210  -31.5090   26.2060 C   0  0  0  0  0  1  0  0  0  0  0  0
  -26.9940  -30.3640   24.7470 C   0  0  0  0  0  1  0  0  0  0  0  0
  -27.5640  -32.5390   25.7940 C   0  0  0  0  0  1  0  0  0  0  0  0
  1  2  1  0
  1  5  1  0
  2  4  1  0
  3  1  2  0
  6  5  1  0
  6  7  2  0
  8 16  1  0
  9 14  1  0
 10 11  1  0
 10  9  1  0
 12 11  1  0
 12 21  1  0
 12 13  1  0
 14  8  1  0
 14 13  1  0
 15  8  2  0
 16  7  1  0
 16 17  1  0
 18 19  2  0
 19 38  1  0
 20 19  1  0
 20 23  1  0
 21 18  1  0
 21 22  1  0
 22 20  2  0
 23 24  1  0
 24 25  2  0
 26 29  1  0
 26 25  1  0
 27 26  2  0
 28 27  1  0
 28 23  2  0
 29 30  1  0
 30 31  1  0
 31 32  2  0
 33 32  1  0
 33 37  1  0
 34 33  2  0
 35 30  2  0
 35 34  1  0
 36 35  1  0
 38 39  1  0
 39 42  1  0
 39 41  1  0
 40 38  2  0
 43 44  1  0
 43 18  1  0
 45 43  1  0
 46  2  1  0
 46 47  1  0
 48 47  1  0
 49 60  2  0
 50 48  1  0
 50 55  1  0
 51 59  1  0
 51 61  1  0
 52 58  1  0
 52 54  1  0
 53 59  1  0
 54 53  1  0
 55 54  2  0
 56 50  2  0
 57 56  1  0
 57 52  2  0
 58 51  1  0
 59 49  1  0
 61 63  2  0
 62 61  1  0
 64 62  1  0
 65 74  2  0
 65 70  1  0
 66 62  1  0
 66 70  1  0
 67 66  1  0
 68 69  1  0
 68 67  1  0
 69 65  1  0
 70 71  2  0
 71 72  1  0
 73 72  2  0
 74 73  1  0
 75 49  1  0
 75 76  1  0
 75 85  1  0
 76 79  1  0
 77 81  1  0
 77 76  1  0
 78 77  2  0
 81 80  1  0
 83 81  1  0
 83 84  1  0
 83 82  1  0
 85 88  1  1
 85 86  1  0
 87 85  1  0
M  ISO  4   8 100  16 100  47 101  48 101
M  END
>  <TORSDO>  (59) 
F 21

>  <SCORE>  (59) 
-13.303

>  <name>  (59) 
60

>  <ligand_id>  (59) 
60

>  <original_smiles>  (59) 
[H]c1c([H])c([H])c2c(c1[H])C([H])([H])C([H])([H])C([H])([H])C2([H])N([H])C(=O)C1([H])N(C(=O)C([H])(N([H])C(=O)C([H])(N([H])C([H])([H])[H])C([H])([H])[H])C(C([H])([H])[H])(C([H])([H])[H])C([H])([H])[H])C([H])([H])c2c([H])c(OC([H])([H])C([H])([H])N([H])C(=O)C([H])([H])C([H])([H])C([H])([H])N([H])C(=O)N3C([H])([H])C([H])([H])C([H])([H])C([H])(n4nc(-c5c([H])c([H])c(Oc6c([H])c([H])c(F)c([H])c6F)c([H])c5[H])c(C(=O)N([H])[H])c4N([H])[H])C3([H])[H])c([H])c([H])c2C1([H])[H]

>  <smiles>  (59) 
[H]c1c([H])c([H])c2c(c1[H])C([H])([H])C([H])([H])C([H])([H])C2([H])N([H])C(=O)C1([H])N(C(=O)C([H])(N([H])C(=O)C([H])(N([H])C([H])([H])[H])C([H])([H])[H])C(C([H])([H])[H])(C([H])([H])[H])C([H])([H])[H])C([H])([H])c2c([H])c(OC([H])([H])C([H])([H])N([H])C(=O)C([H])([H])C([H])([H])C([H])([H])N([H])C(=O)N3C([H])([H])C([H])([H])C([H])([H])C([H])(n4nc(-c5c([H])c([H])c(Oc6c([H])c([H])c(F)c([H])c6F)c([H])c5[H])c(C(=O)N([H])[H])c4N([H])[H])C3([H])[H])c([H])c([H])c2C1([H])[H]

$$$$
61:0:0
     RDKit          3D

108115  0  0  1  0  0  0  0  0999 V2000
  -31.0020  -17.3070   21.9780 C   0  0  0  0  0  0  0  0  0  0  0  0
  -31.5570  -18.5210   22.0460 N   0  0  0  0  0  0  0  0  0  0  0  0
  -30.5730  -16.7020   22.9620 O   0  0  0  0  0  0  0  0  0  0  0  0
  -31.9010  -18.9130   21.1790 H   0  0  0  0  0  0  0  0  0  0  0  0
  -31.6420  -19.3750   23.2230 C   0  0  0  0  0  2  0  0  0  0  0  0
  -30.7290  -20.6080   23.0760 C   0  0  0  0  0  2  0  0  0  0  0  0
  -31.0080  -21.4410   21.8090 C   0  0  0  0  0  2  0  0  0  0  0  0
  -30.5180  -22.8910   21.9150 C   0  0  0  0  0  2  0  0  0  0  0  0
  -30.7640  -23.6760   20.6160 C   0  0  0  0  0  2  0  0  0  0  0  0
  -30.5610  -25.1890   20.7870 C   0  0  0  0  0  2  0  0  0  0  0  0
  -30.6480  -25.9740   19.4660 C   0  0  0  0  0  2  0  0  0  0  0  0
  -29.6230  -25.5840   17.2190 C   0  0  0  0  0  0  0  0  0  0  0  0
  -29.5410  -25.6710   18.5550 N   0  0  0  0  0  0  0  0  0  0  0  0
  -30.7010  -25.5880   16.6180 O   0  0  0  0  0  0  0  0  0  0  0  0
  -28.6130  -25.6650   18.9570 H   0  0  0  0  0  0  0  0  0  0  0  0
  -28.3040  -25.5290   16.4360 C   0  0  0  0  0  2  0  0  0  0  0  0
  -27.9900  -26.8480   15.9900 O   0  0  0  0  0  0  0  0  0  0  0  0
  -25.1750  -28.3670   22.3190 C   0  0  0  0  0  0  0  0  0  0  0  0
  -26.9690  -27.4540   16.6730 C   0  0  0  0  0  0  0  0  0  0  0  0
  -23.7510  -28.8850   20.3600 C   0  0  0  0  0  3  0  0  0  0  0  0
  -24.9040  -28.7470   18.0890 C   0  0  0  0  0  0  0  0  0  0  0  0
  -26.3000  -28.9000   20.1630 C   0  0  0  0  0  2  0  0  0  0  0  0
  -26.1260  -28.4830   18.7180 C   0  0  0  0  0  0  0  0  0  0  0  0
  -27.1660  -27.8420   18.0120 C   0  0  0  0  0  3  0  0  0  0  0  0
  -25.7330  -27.7130   16.0450 C   0  0  0  0  0  3  0  0  0  0  0  0
  -24.6990  -28.3610   16.7500 C   0  0  0  0  0  3  0  0  0  0  0  0
  -23.8510  -29.4490   18.9160 C   0  0  0  0  0  2  0  0  0  0  0  0
  -25.0950  -28.6780   20.9940 N   0  0  0  0  0  0  0  0  0  0  0  0
  -24.1570  -28.2940   23.0220 O   0  0  0  0  0  0  0  0  0  0  0  0
  -22.8910  -27.6030   20.3270 C   0  0  0  0  0  0  0  0  0  0  0  0
  -21.5590  -27.7800   20.3220 N   0  0  0  0  0  0  0  0  0  0  0  0
  -23.4160  -26.4880   20.2790 O   0  0  0  0  0  0  0  0  0  0  0  0
  -21.2100  -28.7250   20.3640 H   0  0  0  0  0  0  0  0  0  0  0  0
  -18.0020  -27.1500   20.2940 C   0  0  0  0  0  0  0  0  0  0  0  0
  -20.5510  -26.7220   20.2540 C   0  0  0  0  0  3  0  0  0  0  0  0
  -20.3470  -26.2440   18.7970 C   0  0  0  0  0  2  0  0  0  0  0  0
  -19.2110  -26.9780   18.0770 C   0  0  0  0  0  2  0  0  0  0  0  0
  -17.8880  -26.7880   18.8220 C   0  0  0  0  0  2  0  0  0  0  0  0
  -19.2550  -27.1350   20.9610 C   0  0  0  0  0  0  0  0  0  0  0  0
  -19.3120  -27.5160   22.3190 C   0  0  0  0  0  3  0  0  0  0  0  0
  -18.1480  -27.9000   23.0090 C   0  0  0  0  0  3  0  0  0  0  0  0
  -16.9070  -27.8980   22.3480 C   0  0  0  0  0  3  0  0  0  0  0  0
  -16.8360  -27.5210   20.9950 C   0  0  0  0  0  3  0  0  0  0  0  0
  -26.5470  -28.1140   23.0180 C   0  0  0  0  0  3  0  0  0  0  0  0
  -26.7590  -29.2010   23.9820 N   0  0  0  0  0  0  0  0  0  0  0  0
  -27.7430  -30.1070   23.9010 C   0  0  0  0  0  0  0  0  0  0  0  0
  -28.6180  -30.0700   23.0320 O   0  0  0  0  0  0  0  0  0  0  0  0
  -26.0460  -29.3260   24.6850 H   0  0  0  0  0  0  0  0  0  0  0  0
  -27.3680  -32.5650   24.2800 C   0  0  0  0  0  1  0  0  0  0  0  0
  -27.7560  -31.2370   24.9490 C   0  0  0  0  0  3  0  0  0  0  0  0
  -29.3430  -30.3010   26.5720 C   0  0  0  0  0  1  0  0  0  0  0  0
  -29.0580  -31.3860   25.6370 N   0  0  0  0  0  0  0  0  0  0  0  0
  -29.0960  -32.2630   26.1490 H   0  0  0  0  0  0  0  0  0  0  0  0
  -26.6310  -26.7100   23.7330 C   0  0  1  0  0  0  0  0  0  0  0  0
  -25.4960  -26.4690   24.7550 C   0  0  0  0  0  1  0  0  0  0  0  0
  -26.5870  -25.5660   22.6930 C   0  0  0  0  0  1  0  0  0  0  0  0
  -27.9820  -26.5790   24.4740 C   0  0  0  0  0  1  0  0  0  0  0  0
  -30.8790  -16.7130   20.5680 C   0  0  0  0  0  3  0  0  0  0  0  0
  -31.0730  -14.2510   20.2380 C   0  0  0  0  0  0  0  0  0  0  0  0
  -30.7820  -11.8820   19.6320 C   0  0  0  0  0  2  0  0  0  0  0  0
  -29.9000  -11.7740   18.3720 C   0  0  0  0  0  2  0  0  0  0  0  0
  -28.4040  -11.7750   18.7440 C   0  0  0  0  0  2  0  0  0  0  0  0
  -28.0280  -12.9230   19.7180 C   0  0  0  0  0  3  0  0  0  0  0  0
  -29.0140  -12.9620   20.9060 C   0  0  0  0  0  2  0  0  0  0  0  0
  -30.3790  -13.0920   20.3600 N   0  0  0  0  0  0  0  0  0  0  0  0
  -32.1830  -14.3330   19.7060 O   0  0  0  0  0  0  0  0  0  0  0  0
  -30.4080  -15.3360   20.6510 N   0  0  0  0  0  0  0  0  0  0  0  0
  -29.5230  -15.1770   21.1050 H   0  0  0  0  0  0  0  0  0  0  0  0
  -25.6820  -13.7980   20.3310 C   0  0  0  0  0  0  0  0  0  0  0  0
  -24.5380  -13.1520   20.7140 C   0  0  0  0  0  0  0  0  0  0  0  0
  -24.8660  -11.7620   20.7630 C   0  0  0  0  0  0  0  0  0  0  0  0
  -26.6410  -12.8100   20.1720 N   0  0  0  0  0  0  0  0  0  0  0  0
  -26.1520  -11.5840   20.4870 N   0  0  0  0  0  0  0  0  0  0  0  0
  -24.0190  -10.5870   20.9980 C   0  0  0  0  0  0  0  0  0  0  0  0
  -24.4270   -9.5440   21.8590 C   0  0  0  0  0  3  0  0  0  0  0  0
  -23.5870   -8.4320   22.0850 C   0  0  0  0  0  3  0  0  0  0  0  0
  -22.3250   -8.3570   21.4490 C   0  0  0  0  0  0  0  0  0  0  0  0
  -21.9340   -9.3860   20.5740 C   0  0  0  0  0  3  0  0  0  0  0  0
  -22.7740  -10.4890   20.3470 C   0  0  0  0  0  3  0  0  0  0  0  0
  -21.4550   -7.3030   21.5870 O   0  0  0  0  0  0  0  0  0  0  0  0
  -21.5250   -6.4470   22.6570 C   0  0  0  0  0  0  0  0  0  0  0  0
  -21.2780   -6.8820   23.9780 C   0  0  0  0  0  3  0  0  0  0  0  0
  -21.2920   -5.9550   25.0390 C   0  0  0  0  0  3  0  0  0  0  0  0
  -21.5440   -4.5930   24.7820 C   0  0  0  0  0  0  0  0  0  0  0  0
  -21.7840   -4.1580   23.4660 C   0  0  0  0  0  3  0  0  0  0  0  0
  -21.7710   -5.0810   22.4070 C   0  0  0  0  0  0  0  0  0  0  0  0
  -21.9830   -4.6530   21.1390 F   0  0  0  0  0  0  0  0  0  0  0  0
  -21.5490   -3.7010   25.7980 F   0  0  0  0  0  0  0  0  0  0  0  0
  -23.1890  -13.7750   20.9300 C   0  0  0  0  0  0  0  0  0  0  0  0
  -22.4050  -13.2350   21.8580 N   0  0  0  0  0  0  0  0  0  0  0  0
  -22.8400  -14.7760   20.3060 O   0  0  0  0  0  0  0  0  0  0  0  0
  -22.6990  -12.4260   22.3840 H   0  0  0  0  0  0  0  0  0  0  0  0
  -21.4980  -13.6390   22.0440 H   0  0  0  0  0  0  0  0  0  0  0  0
  -25.9790  -15.1340   20.0820 N   0  0  0  0  0  0  0  0  0  0  0  0
  -25.2530  -15.8430   20.0880 H   0  0  0  0  0  0  0  0  0  0  0  0
  -26.8460  -15.4500   19.6700 H   0  0  0  0  0  0  0  0  0  0  0  0
  -29.8330  -17.5500   19.7930 C   0  0  0  0  0  2  0  0  0  0  0  0
  -29.4250  -16.9240   18.4440 C   0  0  0  0  0  2  0  0  0  0  0  0
  -29.0210  -17.9710   17.3930 C   0  0  0  0  0  2  0  0  0  0  0  0
  -30.2390  -19.7230   16.0570 C   0  0  0  0  0  0  0  0  0  0  0  0
  -31.4030  -20.1560   15.5730 N   0  0  0  0  0  4  0  0  0  0  0  0
  -29.1310  -20.4390   15.8560 N   0  0  0  0  0  0  0  0  0  0  0  0
  -30.2000  -18.5730   16.7430 N   0  0  0  0  0  0  0  0  0  0  0  0
  -31.4840  -21.0190   15.0520 H   0  0  0  0  0  0  0  0  0  0  0  0
  -32.2710  -19.6700   15.7460 H   0  0  0  0  0  0  0  0  0  0  0  0
  -29.1300  -21.3140   15.3500 H   0  0  0  0  0  0  0  0  0  0  0  0
  -28.2350  -20.1240   16.1950 H   0  0  0  0  0  0  0  0  0  0  0  0
  -31.0380  -18.0050   16.7970 H   0  0  0  0  0  0  0  0  0  0  0  0
  1  2  1  0
  1  3  2  0
  2  5  1  0
  4  2  1  0
  6  5  1  0
  7  8  1  0
  7  6  1  0
  9 10  1  0
  9  8  1  0
 11 10  1  0
 12 13  1  0
 13 15  1  0
 13 11  1  0
 14 12  2  0
 16 12  1  0
 17 16  1  0
 17 19  1  0
 18 29  2  0
 19 24  1  0
 20 30  1  0
 20 28  1  0
 21 23  1  0
 21 27  1  0
 22 28  1  0
 23 22  1  0
 24 23  2  0
 25 19  2  0
 25 26  1  0
 26 21  2  0
 27 20  1  0
 28 18  1  0
 31 30  1  0
 31 33  1  0
 32 30  2  0
 34 39  2  0
 34 43  1  0
 35 31  1  0
 35 39  1  0
 36 35  1  0
 37 36  1  0
 37 38  1  0
 38 34  1  0
 39 40  1  0
 40 41  2  0
 42 41  1  0
 43 42  2  0
 44 18  1  0
 44 54  1  0
 44 45  1  0
 45 48  1  0
 46 45  1  0
 46 50  1  0
 47 46  2  0
 50 49  1  0
 50 52  1  0
 52 53  1  0
 52 51  1  0
 54 57  1  1
 54 55  1  0
 56 54  1  0
 58 97  1  0
 58 67  1  0
 58  1  1  0
 59 65  1  0
 59 67  1  0
 60 65  1  0
 61 62  1  0
 61 60  1  0
 63 62  1  0
 63 72  1  0
 63 64  1  0
 65 64  1  0
 66 59  2  0
 67 68  1  0
 69 70  2  0
 70 71  1  0
 70 89  1  0
 71 74  1  0
 72 69  1  0
 72 73  1  0
 73 71  2  0
 74 75  1  0
 75 76  2  0
 77 80  1  0
 77 76  1  0
 78 77  2  0
 79 78  1  0
 79 74  2  0
 80 81  1  0
 81 82  1  0
 82 83  2  0
 84 83  1  0
 84 88  1  0
 85 84  2  0
 86 81  2  0
 86 85  1  0
 87 86  1  0
 89 90  1  0
 90 93  1  0
 90 92  1  0
 91 89  2  0
 94 95  1  0
 94 69  1  0
 96 94  1  0
 98 97  1  0
 99 98  1  0
100103  1  0
101105  1  0
101100  2  0
102100  1  0
102107  1  0
103108  1  0
103 99  1  0
104101  1  0
106102  1  0
M  ISO  4  16 101  17 101  59 100  67 100
M  END
>  <TORSDO>  (60) 
F 30

>  <SCORE>  (60) 
-8.592

>  <name>  (60) 
61

>  <ligand_id>  (60) 
61

>  <original_smiles>  (60) 
[H]c1c([H])c([H])c2c(c1[H])C([H])([H])C([H])([H])C([H])([H])C2([H])N([H])C(=O)C1([H])N(C(=O)C([H])(N([H])C(=O)C([H])(N([H])C([H])([H])[H])C([H])([H])[H])C(C([H])([H])[H])(C([H])([H])[H])C([H])([H])[H])C([H])([H])c2c([H])c(OC([H])([H])C(=O)N([H])C([H])([H])C([H])([H])C([H])([H])C([H])([H])C([H])([H])C([H])([H])C([H])([H])N([H])C(=O)C([H])(N([H])C(=O)N3C([H])([H])C([H])([H])C([H])([H])C([H])(n4nc(-c5c([H])c([H])c(Oc6c([H])c([H])c(F)c([H])c6F)c([H])c5[H])c(C(=O)N([H])[H])c4N([H])[H])C3([H])[H])C([H])([H])C([H])([H])C([H])([H])N([H])C(N([H])[H])=[N+]([H])[H])c([H])c([H])c2C1([H])[H]

>  <smiles>  (60) 
[H]c1c([H])c([H])c2c(c1[H])C([H])([H])C([H])([H])C([H])([H])C2([H])N([H])C(=O)C1([H])N(C(=O)C([H])(N([H])C(=O)C([H])(N([H])C([H])([H])[H])C([H])([H])[H])C(C([H])([H])[H])(C([H])([H])[H])C([H])([H])[H])C([H])([H])c2c([H])c(OC([H])([H])C(=O)N([H])C([H])([H])C([H])([H])C([H])([H])C([H])([H])C([H])([H])C([H])([H])C([H])([H])N([H])C(=O)C([H])(N([H])C(=O)N3C([H])([H])C([H])([H])C([H])([H])C([H])(n4nc(-c5c([H])c([H])c(Oc6c([H])c([H])c(F)c([H])c6F)c([H])c5[H])c(C(=O)N([H])[H])c4N([H])[H])C3([H])[H])C([H])([H])C([H])([H])C([H])([H])N([H])C(N([H])[H])=[N+]([H])[H])c([H])c([H])c2C1([H])[H]

$$$$
62:0:0
     RDKit          3D

 99107  0  0  1  0  0  0  0  0999 V2000
  -30.3190  -20.8470   22.0510 C   0  0  0  0  0  2  0  0  0  0  0  0
  -30.5990  -22.2760   22.5680 C   0  0  0  0  0  2  0  0  0  0  0  0
  -29.5810  -23.2960   22.0310 C   0  0  0  0  0  2  0  0  0  0  0  0
  -29.8610  -24.7310   22.5090 C   0  0  0  0  0  2  0  0  0  0  0  0
  -28.7020  -25.7280   22.3040 C   0  0  0  0  0  2  0  0  0  0  0  0
  -28.4640  -26.1440   20.8410 C   0  0  0  0  0  2  0  0  0  0  0  0
  -27.2830  -25.4140   20.1730 C   0  0  0  0  0  2  0  0  0  0  0  0
  -27.3840  -25.4600   18.6390 C   0  0  0  0  0  0  0  0  0  0  0  0
  -27.7700  -24.4720   18.0150 O   0  0  0  0  0  0  0  0  0  0  0  0
  -27.1440  -26.6590   18.0500 O   0  0  0  0  0  0  0  0  0  0  0  0
  -24.5940  -31.1450   22.9520 C   0  0  0  0  0  0  0  0  0  0  0  0
  -26.1110  -27.4600   18.4690 C   0  0  0  0  0  0  0  0  0  0  0  0
  -22.9830  -30.3810   21.2380 C   0  0  0  0  0  3  0  0  0  0  0  0
  -23.9870  -29.1330   19.2560 C   0  0  0  0  0  0  0  0  0  0  0  0
  -25.4830  -30.5070   20.7170 C   0  0  0  0  0  2  0  0  0  0  0  0
  -25.2770  -29.3560   19.7580 C   0  0  0  0  0  0  0  0  0  0  0  0
  -26.3450  -28.5220   19.3670 C   0  0  0  0  0  3  0  0  0  0  0  0
  -24.8090  -27.2510   17.9630 C   0  0  0  0  0  3  0  0  0  0  0  0
  -23.7440  -28.0780   18.3610 C   0  0  0  0  0  3  0  0  0  0  0  0
  -22.9020  -30.0790   19.7180 C   0  0  0  0  0  2  0  0  0  0  0  0
  -24.3810  -30.6730   21.6930 N   0  0  0  0  0  0  0  0  0  0  0  0
  -23.6490  -31.3800   23.7160 O   0  0  0  0  0  0  0  0  0  0  0  0
  -22.3200  -29.2160   22.0080 C   0  0  0  0  0  0  0  0  0  0  0  0
  -20.9770  -29.1870   22.0070 N   0  0  0  0  0  0  0  0  0  0  0  0
  -23.0040  -28.3520   22.5600 O   0  0  0  0  0  0  0  0  0  0  0  0
  -20.4890  -29.9370   21.5370 H   0  0  0  0  0  0  0  0  0  0  0  0
  -17.5560  -28.1680   22.5460 C   0  0  0  0  0  0  0  0  0  0  0  0
  -20.1380  -28.1680   22.6350 C   0  0  0  0  0  3  0  0  0  0  0  0
  -20.0670  -26.8940   21.7620 C   0  0  0  0  0  2  0  0  0  0  0  0
  -18.8680  -26.8830   20.8070 C   0  0  0  0  0  2  0  0  0  0  0  0
  -17.5580  -26.9880   21.5900 C   0  0  0  0  0  2  0  0  0  0  0  0
  -18.7670  -28.7320   23.0240 C   0  0  0  0  0  0  0  0  0  0  0  0
  -18.7100  -29.8510   23.8830 C   0  0  0  0  0  3  0  0  0  0  0  0
  -17.4730  -30.4010   24.2680 C   0  0  0  0  0  3  0  0  0  0  0  0
  -16.2770  -29.8290   23.8040 C   0  0  0  0  0  3  0  0  0  0  0  0
  -16.3180  -28.7130   22.9490 C   0  0  0  0  0  3  0  0  0  0  0  0
  -26.0330  -31.4370   23.4850 C   0  0  0  0  0  3  0  0  0  0  0  0
  -26.5780  -30.3150   24.4510 C   0  0  1  0  0  0  0  0  0  0  0  0
  -25.6130  -29.9690   25.6070 C   0  0  0  0  0  1  0  0  0  0  0  0
  -26.8670  -29.0120   23.6670 C   0  0  0  0  0  1  0  0  0  0  0  0
  -27.9230  -30.7660   25.0690 C   0  0  0  0  0  1  0  0  0  0  0  0
  -25.9950  -32.7380   24.1650 N   0  0  0  0  0  0  0  0  0  0  0  0
  -26.4500  -33.8830   23.6390 C   0  0  0  0  0  0  0  0  0  0  0  0
  -27.0160  -33.9390   22.5430 O   0  0  0  0  0  0  0  0  0  0  0  0
  -25.4920  -32.7790   25.0400 H   0  0  0  0  0  0  0  0  0  0  0  0
  -25.0430  -35.9520   23.8980 C   0  0  0  0  0  1  0  0  0  0  0  0
  -26.2430  -35.1720   24.4570 C   0  0  0  0  0  3  0  0  0  0  0  0
  -28.5410  -35.4870   25.2600 C   0  0  0  0  0  1  0  0  0  0  0  0
  -27.4350  -36.0460   24.4880 N   0  0  0  0  0  0  0  0  0  0  0  0
  -27.2040  -36.9560   24.8760 H   0  0  0  0  0  0  0  0  0  0  0  0
  -31.5550  -19.9190   21.9130 C   0  0  0  0  0  3  0  0  0  0  0  0
  -31.8800  -14.9390   19.8310 C   0  0  0  0  0  0  0  0  0  0  0  0
  -31.6130  -12.6490   18.9540 C   0  0  0  0  0  2  0  0  0  0  0  0
  -30.6220  -12.6600   17.7710 C   0  0  0  0  0  2  0  0  0  0  0  0
  -29.1590  -12.5640   18.2580 C   0  0  0  0  0  2  0  0  0  0  0  0
  -28.8500  -13.5360   19.4290 C   0  0  0  0  0  3  0  0  0  0  0  0
  -29.9480  -13.3920   20.5060 C   0  0  0  0  0  2  0  0  0  0  0  0
  -31.2170  -13.7430   19.8590 N   0  0  0  0  0  0  0  0  0  0  0  0
  -33.0490  -14.9860   19.4320 O   0  0  0  0  0  0  0  0  0  0  0  0
  -30.0270  -16.5610   20.6570 C   0  0  0  0  0  2  0  0  0  0  0  0
  -31.6810  -17.2840   19.0990 C   0  0  0  0  0  2  0  0  0  0  0  0
  -30.5000  -17.5930   21.7000 C   0  0  0  0  0  2  0  0  0  0  0  0
  -32.2420  -18.3180   20.1010 C   0  0  0  0  0  2  0  0  0  0  0  0
  -31.1510  -16.1030   19.8120 N   0  0  0  0  0  0  0  0  0  0  0  0
  -31.1830  -18.7490   21.0510 N   0  0  2  0  0  4  0  0  0  0  0  0
  -30.4750  -19.1440   20.4520 H   0  0  0  0  0  0  0  0  0  0  0  0
  -26.5220  -14.2500   20.2600 C   0  0  0  0  0  0  0  0  0  0  0  0
  -25.4380  -13.5220   20.6710 C   0  0  0  0  0  0  0  0  0  0  0  0
  -25.8310  -12.1510   20.5890 C   0  0  0  0  0  0  0  0  0  0  0  0
  -27.5120  -13.3230   19.9670 N   0  0  0  0  0  0  0  0  0  0  0  0
  -27.0990  -12.0560   20.2170 N   0  0  0  0  0  0  0  0  0  0  0  0
  -25.0550  -10.9220   20.7920 C   0  0  0  0  0  0  0  0  0  0  0  0
  -25.3220  -10.0540   21.8730 C   0  0  0  0  0  3  0  0  0  0  0  0
  -24.5540   -8.8850   22.0590 C   0  0  0  0  0  3  0  0  0  0  0  0
  -23.5040   -8.5780   21.1600 C   0  0  0  0  0  0  0  0  0  0  0  0
  -23.2580   -9.4340   20.0730 C   0  0  0  0  0  3  0  0  0  0  0  0
  -24.0270  -10.5930   19.8870 C   0  0  0  0  0  3  0  0  0  0  0  0
  -22.7200   -7.4520   21.2480 O   0  0  0  0  0  0  0  0  0  0  0  0
  -22.2650   -6.9840   22.4540 C   0  0  0  0  0  0  0  0  0  0  0  0
  -21.4520   -7.7710   23.2980 C   0  0  0  0  0  3  0  0  0  0  0  0
  -20.9480   -7.2260   24.4960 C   0  0  0  0  0  3  0  0  0  0  0  0
  -21.2450   -5.8950   24.8460 C   0  0  0  0  0  0  0  0  0  0  0  0
  -22.0510   -5.1090   24.0030 C   0  0  0  0  0  3  0  0  0  0  0  0
  -22.5560   -5.6510   22.8080 C   0  0  0  0  0  0  0  0  0  0  0  0
  -23.3140   -4.8830   21.9890 F   0  0  0  0  0  0  0  0  0  0  0  0
  -20.7550   -5.3690   25.9920 F   0  0  0  0  0  0  0  0  0  0  0  0
  -24.0810  -14.0610   21.0220 C   0  0  0  0  0  0  0  0  0  0  0  0
  -23.3860  -13.4120   21.9510 N   0  0  0  0  0  0  0  0  0  0  0  0
  -23.6490  -15.0920   20.5090 O   0  0  0  0  0  0  0  0  0  0  0  0
  -23.7510  -12.5780   22.3880 H   0  0  0  0  0  0  0  0  0  0  0  0
  -22.4770  -13.7550   22.2280 H   0  0  0  0  0  0  0  0  0  0  0  0
  -26.7400  -15.6150   20.0910 N   0  0  0  0  0  0  0  0  0  0  0  0
  -25.9940  -16.2890   20.2170 H   0  0  0  0  0  0  0  0  0  0  0  0
  -27.5610  -16.0090   19.6520 H   0  0  0  0  0  0  0  0  0  0  0  0
  -32.1650  -19.5480   23.2880 C   0  0  0  0  0  0  0  0  0  0  0  0
  -33.4870  -19.4970   23.4010 N   0  0  0  0  0  0  0  0  0  0  0  0
  -31.4450  -19.3050   24.2580 O   0  0  0  0  0  0  0  0  0  0  0  0
  -34.0910  -19.7140   22.6200 H   0  0  0  0  0  0  0  0  0  0  0  0
  -33.9070  -19.2560   24.2890 H   0  0  0  0  0  0  0  0  0  0  0  0
  1  2  1  0
  3  4  1  0
  3  2  1  0
  5  4  1  0
  6  5  1  0
  7  6  1  0
  8  7  1  0
  9  8  2  0
 10 12  1  0
 10  8  1  0
 11 22  2  0
 12 17  1  0
 13 21  1  0
 13 23  1  0
 14 20  1  0
 14 16  1  0
 15 21  1  0
 16 15  1  0
 17 16  2  0
 18 19  1  0
 18 12  2  0
 19 14  2  0
 20 13  1  0
 21 11  1  0
 23 25  2  0
 24 23  1  0
 26 24  1  0
 27 36  2  0
 27 32  1  0
 28 24  1  0
 28 32  1  0
 29 28  1  0
 30 31  1  0
 30 29  1  0
 31 27  1  0
 32 33  2  0
 33 34  1  0
 35 34  2  0
 36 35  1  0
 37 11  1  0
 37 42  1  0
 37 38  1  0
 38 41  1  1
 38 39  1  0
 40 38  1  0
 42 45  1  0
 43 42  1  0
 43 47  1  0
 44 43  2  0
 47 46  1  0
 47 49  1  0
 49 50  1  0
 49 48  1  0
 51  1  1  0
 51 95  1  0
 52 58  1  0
 53 58  1  0
 54 55  1  0
 54 53  1  0
 56 55  1  0
 56 70  1  0
 56 57  1  0
 58 57  1  0
 59 52  2  0
 60 62  1  0
 61 64  1  0
 61 63  1  0
 63 65  1  0
 64 52  1  0
 64 60  1  0
 65 62  1  0
 65 51  1  0
 65 66  1  6
 67 68  2  0
 68 87  1  0
 69 68  1  0
 69 72  1  0
 70 71  1  0
 70 67  1  0
 71 69  2  0
 72 73  1  0
 73 74  2  0
 75 78  1  0
 75 74  1  0
 76 75  2  0
 77 76  1  0
 77 72  2  0
 78 79  1  0
 79 84  2  0
 79 80  1  0
 80 81  2  0
 81 82  1  0
 82 86  1  0
 83 82  2  0
 84 83  1  0
 85 84  1  0
 87 88  1  0
 88 91  1  0
 88 90  1  0
 89 87  2  0
 92 93  1  0
 92 67  1  0
 94 92  1  0
 95 96  1  0
 95 97  2  0
 96 99  1  0
 98 96  1  0
M  ISO  4   8 101  10 101  52 100  64 100
M  END
>  <TORSDO>  (61) 
F 25

>  <SCORE>  (61) 
-8.071

>  <name>  (61) 
62

>  <ligand_id>  (61) 
62

>  <original_smiles>  (61) 
[H]c1c([H])c([H])c2c(c1[H])C([H])([H])C([H])([H])C([H])([H])C2([H])N([H])C(=O)C1([H])N(C(=O)C([H])(N([H])C(=O)C([H])(N([H])C([H])([H])[H])C([H])([H])[H])C(C([H])([H])[H])(C([H])([H])[H])C([H])([H])[H])C([H])([H])c2c([H])c(OC(=O)C([H])([H])C([H])([H])C([H])([H])C([H])([H])C([H])([H])C([H])([H])C([H])([H])C([H])(C(=O)N([H])[H])[N+]3([H])C([H])([H])C([H])([H])N(C(=O)N4C([H])([H])C([H])([H])C([H])([H])C([H])(n5nc(-c6c([H])c([H])c(Oc7c([H])c([H])c(F)c([H])c7F)c([H])c6[H])c(C(=O)N([H])[H])c5N([H])[H])C4([H])[H])C([H])([H])C3([H])[H])c([H])c([H])c2C1([H])[H]

>  <smiles>  (61) 
[H]c1c([H])c([H])c2c(c1[H])C([H])([H])C([H])([H])C([H])([H])C2([H])N([H])C(=O)C1([H])N(C(=O)C([H])(N([H])C(=O)C([H])(N([H])C([H])([H])[H])C([H])([H])[H])C(C([H])([H])[H])(C([H])([H])[H])C([H])([H])[H])C([H])([H])c2c([H])c(OC(=O)C([H])([H])C([H])([H])C([H])([H])C([H])([H])C([H])([H])C([H])([H])C([H])([H])C([H])(C(=O)N([H])[H])[N+]3([H])C([H])([H])C([H])([H])N(C(=O)N4C([H])([H])C([H])([H])C([H])([H])C([H])(n5nc(-c6c([H])c([H])c(Oc7c([H])c([H])c(F)c([H])c7F)c([H])c6[H])c(C(=O)N([H])[H])c5N([H])[H])C4([H])[H])C([H])([H])C3([H])[H])c([H])c([H])c2C1([H])[H]

$$$$
63:0:0
     RDKit          3D

 96103  0  0  1  0  0  0  0  0999 V2000
  -29.5770  -21.5050   21.3380 C   0  0  0  0  0  2  0  0  0  0  0  0
  -29.5070  -20.0490   20.8700 C   0  0  0  0  0  2  0  0  0  0  0  0
  -30.4500  -19.7700   19.6850 C   0  0  0  0  0  2  0  0  0  0  0  0
  -30.5710  -18.2760   19.3340 C   0  0  0  0  0  2  0  0  0  0  0  0
  -31.7160  -17.4940   20.0260 C   0  0  0  0  0  3  0  0  0  0  0  0
  -31.9110  -15.0680   19.4310 C   0  0  0  0  0  0  0  0  0  0  0  0
  -31.5780  -12.7120   18.7860 C   0  0  0  0  0  2  0  0  0  0  0  0
  -30.5790  -12.6190   17.6140 C   0  0  0  0  0  2  0  0  0  0  0  0
  -29.1240  -12.6000   18.1250 C   0  0  0  0  0  2  0  0  0  0  0  0
  -28.8350  -13.7300   19.1470 C   0  0  0  0  0  3  0  0  0  0  0  0
  -29.9270  -13.7450   20.2400 C   0  0  0  0  0  2  0  0  0  0  0  0
  -31.2400  -13.9000   19.5800 N   0  0  0  0  0  0  0  0  0  0  0  0
  -32.9180  -15.2030   18.7280 O   0  0  0  0  0  0  0  0  0  0  0  0
  -31.3590  -16.0860   20.0880 N   0  0  0  0  0  0  0  0  0  0  0  0
  -30.5970  -15.8530   20.7050 H   0  0  0  0  0  0  0  0  0  0  0  0
  -26.5790  -14.5850   20.0560 C   0  0  0  0  0  0  0  0  0  0  0  0
  -25.4630  -13.9240   20.4970 C   0  0  0  0  0  0  0  0  0  0  0  0
  -25.7650  -12.5320   20.4000 C   0  0  0  0  0  0  0  0  0  0  0  0
  -27.4980  -13.6000   19.7250 N   0  0  0  0  0  0  0  0  0  0  0  0
  -27.0140  -12.3580   19.9840 N   0  0  0  0  0  0  0  0  0  0  0  0
  -24.9210  -11.3510   20.6220 C   0  0  0  0  0  0  0  0  0  0  0  0
  -25.2420  -10.3880   21.6030 C   0  0  0  0  0  3  0  0  0  0  0  0
  -24.4060   -9.2700   21.8100 C   0  0  0  0  0  3  0  0  0  0  0  0
  -23.2320   -9.1090   21.0360 C   0  0  0  0  0  0  0  0  0  0  0  0
  -22.9290  -10.0600   20.0450 C   0  0  0  0  0  3  0  0  0  0  0  0
  -23.7660  -11.1680   19.8370 C   0  0  0  0  0  3  0  0  0  0  0  0
  -22.3730   -8.0430   21.1500 O   0  0  0  0  0  0  0  0  0  0  0  0
  -22.1140   -7.4530   22.3610 C   0  0  0  0  0  0  0  0  0  0  0  0
  -21.5830   -8.1830   23.4470 C   0  0  0  0  0  3  0  0  0  0  0  0
  -21.2680   -7.5220   24.6510 C   0  0  0  0  0  3  0  0  0  0  0  0
  -21.4750   -6.1340   24.7700 C   0  0  0  0  0  0  0  0  0  0  0  0
  -22.0000   -5.4060   23.6880 C   0  0  0  0  0  3  0  0  0  0  0  0
  -22.3160   -6.0630   22.4860 C   0  0  0  0  0  0  0  0  0  0  0  0
  -22.8020   -5.3530   21.4390 F   0  0  0  0  0  0  0  0  0  0  0  0
  -21.1650   -5.4970   25.9220 F   0  0  0  0  0  0  0  0  0  0  0  0
  -24.1550  -14.5430   20.8960 C   0  0  0  0  0  0  0  0  0  0  0  0
  -23.4380  -13.9160   21.8230 N   0  0  0  0  0  0  0  0  0  0  0  0
  -23.7820  -15.6150   20.4210 O   0  0  0  0  0  0  0  0  0  0  0  0
  -23.7520  -13.0450   22.2260 H   0  0  0  0  0  0  0  0  0  0  0  0
  -22.5630  -14.3120   22.1330 H   0  0  0  0  0  0  0  0  0  0  0  0
  -26.8850  -15.9320   19.8910 N   0  0  0  0  0  0  0  0  0  0  0  0
  -26.2080  -16.6650   20.0660 H   0  0  0  0  0  0  0  0  0  0  0  0
  -27.7460  -16.2760   19.4830 H   0  0  0  0  0  0  0  0  0  0  0  0
  -32.0750  -17.9290   21.4490 C   0  0  0  0  0  0  0  0  0  0  0  0
  -31.2280  -17.6020   22.4200 N   0  0  0  0  0  0  0  0  0  0  0  0
  -33.1320  -18.5060   21.6870 O   0  0  0  0  0  0  0  0  0  0  0  0
  -30.3290  -17.1990   22.2040 H   0  0  0  0  0  0  0  0  0  0  0  0
  -31.4410  -17.8350   23.3780 H   0  0  0  0  0  0  0  0  0  0  0  0
  -28.3470  -21.9190   22.1660 C   0  0  0  0  0  2  0  0  0  0  0  0
  -28.2810  -23.4290   22.4410 C   0  0  0  0  0  2  0  0  0  0  0  0
  -28.9620  -25.3220   20.9760 C   0  0  0  0  0  0  0  0  0  0  0  0
  -28.3060  -24.1770   21.1890 N   0  0  0  0  0  0  0  0  0  0  0  0
  -29.5770  -25.9140   21.8690 O   0  0  0  0  0  0  0  0  0  0  0  0
  -27.8180  -23.7730   20.4010 H   0  0  0  0  0  0  0  0  0  0  0  0
  -28.9390  -25.8740   19.5460 C   0  0  0  0  0  2  0  0  0  0  0  0
  -28.7930  -27.2930   19.5830 O   0  0  0  0  0  0  0  0  0  0  0  0
  -24.7160  -31.7720   23.2880 C   0  0  0  0  0  0  0  0  0  0  0  0
  -27.5400  -27.8490   19.7170 C   0  0  0  0  0  0  0  0  0  0  0  0
  -23.5500  -30.4790   21.5290 C   0  0  0  0  0  3  0  0  0  0  0  0
  -25.0530  -29.1750   19.9370 C   0  0  0  0  0  0  0  0  0  0  0  0
  -26.0440  -31.0030   21.3280 C   0  0  0  0  0  2  0  0  0  0  0  0
  -26.1900  -29.7110   20.5520 C   0  0  0  0  0  0  0  0  0  0  0  0
  -27.4340  -29.0570   20.4390 C   0  0  0  0  0  3  0  0  0  0  0  0
  -26.3820  -27.3130   19.1080 C   0  0  0  0  0  3  0  0  0  0  0  0
  -25.1420  -27.9710   19.2190 C   0  0  0  0  0  3  0  0  0  0  0  0
  -23.7650  -29.9530   20.0860 C   0  0  0  0  0  2  0  0  0  0  0  0
  -24.7880  -31.0940   22.1080 N   0  0  0  0  0  0  0  0  0  0  0  0
  -23.6340  -31.9270   23.8720 O   0  0  0  0  0  0  0  0  0  0  0  0
  -22.9780  -29.3310   22.3880 C   0  0  0  0  0  0  0  0  0  0  0  0
  -21.6720  -29.0610   22.2310 N   0  0  0  0  0  0  0  0  0  0  0  0
  -23.7050  -28.6890   23.1510 O   0  0  0  0  0  0  0  0  0  0  0  0
  -21.1420  -29.6370   21.5930 H   0  0  0  0  0  0  0  0  0  0  0  0
  -18.4040  -27.5620   22.5640 C   0  0  0  0  0  0  0  0  0  0  0  0
  -20.9280  -27.9980   22.9050 C   0  0  0  0  0  3  0  0  0  0  0  0
  -21.1550  -26.6340   22.2120 C   0  0  0  0  0  2  0  0  0  0  0  0
  -20.0940  -26.3120   21.1540 C   0  0  0  0  0  2  0  0  0  0  0  0
  -18.6980  -26.2910   21.7850 C   0  0  0  0  0  2  0  0  0  0  0  0
  -19.4530  -28.3700   23.0780 C   0  0  0  0  0  0  0  0  0  0  0  0
  -19.1270  -29.5610   23.7640 C   0  0  0  0  0  3  0  0  0  0  0  0
  -17.7850  -29.9430   23.9460 C   0  0  0  0  0  3  0  0  0  0  0  0
  -16.7500  -29.1290   23.4510 C   0  0  0  0  0  3  0  0  0  0  0  0
  -17.0620  -27.9400   22.7670 C   0  0  0  0  0  3  0  0  0  0  0  0
  -25.9820  -32.4050   23.9480 C   0  0  0  0  0  3  0  0  0  0  0  0
  -26.5320  -31.5700   25.1680 C   0  0  1  0  0  0  0  0  0  0  0  0
  -25.4490  -31.2060   26.2110 C   0  0  0  0  0  1  0  0  0  0  0  0
  -27.1790  -30.2530   24.6810 C   0  0  0  0  0  1  0  0  0  0  0  0
  -27.6410  -32.3680   25.8930 C   0  0  0  0  0  1  0  0  0  0  0  0
  -25.6260  -33.7670   24.3650 N   0  0  0  0  0  0  0  0  0  0  0  0
  -25.9400  -34.8770   23.6850 C   0  0  0  0  0  0  0  0  0  0  0  0
  -26.6320  -34.8640   22.6630 O   0  0  0  0  0  0  0  0  0  0  0  0
  -25.0130  -33.8500   25.1640 H   0  0  0  0  0  0  0  0  0  0  0  0
  -24.1710  -36.6420   23.4080 C   0  0  0  0  0  1  0  0  0  0  0  0
  -25.4010  -36.2150   24.2240 C   0  0  0  0  0  3  0  0  0  0  0  0
  -27.4850  -37.0970   25.1770 C   0  0  0  0  0  1  0  0  0  0  0  0
  -26.4060  -37.3020   24.2140 N   0  0  0  0  0  0  0  0  0  0  0  0
  -25.9680  -38.1970   24.4130 H   0  0  0  0  0  0  0  0  0  0  0  0
  1 49  1  0
  2  1  1  0
  3  2  1  0
  4  3  1  0
  5  4  1  0
  5 14  1  0
  5 44  1  0
  6 12  1  0
  6 14  1  0
  7 12  1  0
  8  9  1  0
  8  7  1  0
 10  9  1  0
 10 19  1  0
 10 11  1  0
 12 11  1  0
 13  6  2  0
 14 15  1  0
 16 17  2  0
 17 36  1  0
 18 17  1  0
 18 21  1  0
 19 20  1  0
 19 16  1  0
 20 18  2  0
 21 22  1  0
 22 23  2  0
 24 27  1  0
 24 23  1  0
 25 24  2  0
 26 25  1  0
 26 21  2  0
 27 28  1  0
 28 33  2  0
 28 29  1  0
 29 30  2  0
 30 31  1  0
 31 35  1  0
 32 31  2  0
 33 32  1  0
 34 33  1  0
 36 37  1  0
 37 40  1  0
 37 39  1  0
 38 36  2  0
 41 16  1  0
 41 42  1  0
 43 41  1  0
 44 46  2  0
 44 45  1  0
 45 48  1  0
 47 45  1  0
 49 50  1  0
 51 52  1  0
 51 53  2  0
 52 50  1  0
 54 52  1  0
 55 56  1  0
 55 51  1  0
 56 58  1  0
 57 68  2  0
 58 63  1  0
 59 67  1  0
 59 69  1  0
 60 66  1  0
 60 62  1  0
 61 67  1  0
 62 61  1  0
 63 62  2  0
 64 65  1  0
 64 58  2  0
 65 60  2  0
 66 59  1  0
 67 57  1  0
 69 71  2  0
 70 69  1  0
 72 70  1  0
 73 82  2  0
 73 78  1  0
 74 70  1  0
 74 78  1  0
 75 74  1  0
 76 77  1  0
 76 75  1  0
 77 73  1  0
 78 79  2  0
 79 80  1  0
 81 80  2  0
 82 81  1  0
 83 57  1  0
 83 88  1  0
 83 84  1  0
 84 87  1  1
 84 85  1  0
 86 84  1  0
 88 91  1  0
 89 93  1  0
 89 88  1  0
 90 89  2  0
 93 92  1  0
 95 93  1  0
 95 96  1  0
 95 94  1  0
M  ISO  4   6 100  14 100  55 101  56 101
M  END
>  <TORSDO>  (62) 
F 25

>  <SCORE>  (62) 
-9.018

>  <name>  (62) 
63

>  <ligand_id>  (62) 
63

>  <original_smiles>  (62) 
[H]c1c([H])c([H])c2c(c1[H])C([H])([H])C([H])([H])C([H])([H])C2([H])N([H])C(=O)C1([H])N(C(=O)C([H])(N([H])C(=O)C([H])(N([H])C([H])([H])[H])C([H])([H])[H])C(C([H])([H])[H])(C([H])([H])[H])C([H])([H])[H])C([H])([H])c2c([H])c(OC([H])([H])C(=O)N([H])C([H])([H])C([H])([H])C([H])([H])C([H])([H])C([H])([H])C([H])([H])C([H])(C(=O)N([H])[H])N([H])C(=O)N3C([H])([H])C([H])([H])C([H])([H])C([H])(n4nc(-c5c([H])c([H])c(Oc6c([H])c([H])c(F)c([H])c6F)c([H])c5[H])c(C(=O)N([H])[H])c4N([H])[H])C3([H])[H])c([H])c([H])c2C1([H])[H]

>  <smiles>  (62) 
[H]c1c([H])c([H])c2c(c1[H])C([H])([H])C([H])([H])C([H])([H])C2([H])N([H])C(=O)C1([H])N(C(=O)C([H])(N([H])C(=O)C([H])(N([H])C([H])([H])[H])C([H])([H])[H])C(C([H])([H])[H])(C([H])([H])[H])C([H])([H])[H])C([H])([H])c2c([H])c(OC([H])([H])C(=O)N([H])C([H])([H])C([H])([H])C([H])([H])C([H])([H])C([H])([H])C([H])([H])C([H])(C(=O)N([H])[H])N([H])C(=O)N3C([H])([H])C([H])([H])C([H])([H])C([H])(n4nc(-c5c([H])c([H])c(Oc6c([H])c([H])c(F)c([H])c6F)c([H])c5[H])c(C(=O)N([H])[H])c4N([H])[H])C3([H])[H])c([H])c([H])c2C1([H])[H]

$$$$
64:0:0
     RDKit          3D

 94101  0  0  1  0  0  0  0  0999 V2000
  -29.8380  -22.5120   20.5670 C   0  0  0  0  0  0  0  0  0  0  0  0
  -30.2670  -23.6930   21.0290 N   0  0  0  0  0  0  0  0  0  0  0  0
  -29.0400  -22.4160   19.6330 O   0  0  0  0  0  0  0  0  0  0  0  0
  -30.9270  -23.6730   21.7960 H   0  0  0  0  0  0  0  0  0  0  0  0
  -30.4110  -21.2510   21.2300 C   0  0  0  0  0  2  0  0  0  0  0  0
  -31.0230  -20.2750   20.2010 C   0  0  0  0  0  2  0  0  0  0  0  0
  -32.0520  -19.2810   20.7820 C   0  0  0  0  0  2  0  0  0  0  0  0
  -30.8840  -17.3820   21.9830 C   0  0  0  0  0  0  0  0  0  0  0  0
  -31.5880  -18.5240   21.9450 N   0  0  0  0  0  0  0  0  0  0  0  0
  -30.7010  -16.8080   23.0560 O   0  0  0  0  0  0  0  0  0  0  0  0
  -31.9270  -18.8560   22.8400 H   0  0  0  0  0  0  0  0  0  0  0  0
  -28.8240  -17.3990   20.6030 C   0  0  0  0  0  1  0  0  0  0  0  0
  -30.2460  -16.8140   20.7010 C   0  0  0  0  0  3  0  0  0  0  0  0
  -30.8030  -14.4140   20.1910 C   0  0  0  0  0  0  0  0  0  0  0  0
  -30.4660  -12.2940   18.9800 C   0  0  0  0  0  2  0  0  0  0  0  0
  -29.4790  -12.5340   17.8160 C   0  0  0  0  0  2  0  0  0  0  0  0
  -28.0180  -12.4080   18.2910 C   0  0  0  0  0  2  0  0  0  0  0  0
  -27.7370  -13.2370   19.5710 C   0  0  0  0  0  3  0  0  0  0  0  0
  -28.8140  -12.9400   20.6390 C   0  0  0  0  0  2  0  0  0  0  0  0
  -30.1360  -13.2390   20.0550 N   0  0  0  0  0  0  0  0  0  0  0  0
  -31.8900  -14.6560   19.6540 O   0  0  0  0  0  0  0  0  0  0  0  0
  -30.0820  -15.3640   20.7980 N   0  0  0  0  0  0  0  0  0  0  0  0
  -29.2450  -15.0450   21.2630 H   0  0  0  0  0  0  0  0  0  0  0  0
  -25.3560  -13.8930   20.3080 C   0  0  0  0  0  0  0  0  0  0  0  0
  -24.2860  -13.1410   20.7140 C   0  0  0  0  0  0  0  0  0  0  0  0
  -24.7300  -11.7840   20.6970 C   0  0  0  0  0  0  0  0  0  0  0  0
  -26.3870  -12.9940   20.0780 N   0  0  0  0  0  0  0  0  0  0  0  0
  -26.0120  -11.7230   20.3660 N   0  0  0  0  0  0  0  0  0  0  0  0
  -23.9950  -10.5340   20.9240 C   0  0  0  0  0  0  0  0  0  0  0  0
  -24.4430   -9.5720   21.8580 C   0  0  0  0  0  3  0  0  0  0  0  0
  -23.7100   -8.3840   22.0690 C   0  0  0  0  0  3  0  0  0  0  0  0
  -22.5160   -8.1480   21.3460 C   0  0  0  0  0  0  0  0  0  0  0  0
  -22.0880   -9.0990   20.4010 C   0  0  0  0  0  3  0  0  0  0  0  0
  -22.8220  -10.2770   20.1880 C   0  0  0  0  0  3  0  0  0  0  0  0
  -21.7530   -7.0130   21.4700 O   0  0  0  0  0  0  0  0  0  0  0  0
  -21.7300   -6.2830   22.6310 C   0  0  0  0  0  0  0  0  0  0  0  0
  -21.3560   -6.8580   23.8650 C   0  0  0  0  0  3  0  0  0  0  0  0
  -21.2780   -6.0560   25.0210 C   0  0  0  0  0  3  0  0  0  0  0  0
  -21.5640   -4.6800   24.9440 C   0  0  0  0  0  0  0  0  0  0  0  0
  -21.9310   -4.1040   23.7150 C   0  0  0  0  0  3  0  0  0  0  0  0
  -22.0110   -4.9040   22.5610 C   0  0  0  0  0  0  0  0  0  0  0  0
  -22.3450   -4.3410   21.3760 F   0  0  0  0  0  0  0  0  0  0  0  0
  -21.4810   -3.9070   26.0520 F   0  0  0  0  0  0  0  0  0  0  0  0
  -22.9000  -13.6390   21.0090 C   0  0  0  0  0  0  0  0  0  0  0  0
  -22.1840  -12.9660   21.9050 N   0  0  0  0  0  0  0  0  0  0  0  0
  -22.4600  -14.6580   20.4790 O   0  0  0  0  0  0  0  0  0  0  0  0
  -22.5540  -12.1430   22.3550 H   0  0  0  0  0  0  0  0  0  0  0  0
  -21.2560  -13.2830   22.1450 H   0  0  0  0  0  0  0  0  0  0  0  0
  -25.5340  -15.2570   20.0990 N   0  0  0  0  0  0  0  0  0  0  0  0
  -24.7770  -15.9240   20.1920 H   0  0  0  0  0  0  0  0  0  0  0  0
  -26.3820  -15.6700   19.7320 H   0  0  0  0  0  0  0  0  0  0  0  0
  -29.9900  -25.0050   20.4410 C   0  0  0  0  0  2  0  0  0  0  0  0
  -28.5450  -25.5010   20.6480 C   0  0  0  0  0  2  0  0  0  0  0  0
  -28.5010  -26.8510   20.1900 O   0  0  0  0  0  0  0  0  0  0  0  0
  -24.5890  -31.9290   23.2430 C   0  0  0  0  0  0  0  0  0  0  0  0
  -27.2900  -27.5000   20.2240 C   0  0  0  0  0  0  0  0  0  0  0  0
  -23.3970  -30.5040   21.6050 C   0  0  0  0  0  3  0  0  0  0  0  0
  -24.8700  -28.9590   20.2090 C   0  0  0  0  0  0  0  0  0  0  0  0
  -25.9150  -30.8910   21.4060 C   0  0  0  0  0  2  0  0  0  0  0  0
  -26.0170  -29.5120   20.7900 C   0  0  0  0  0  0  0  0  0  0  0  0
  -27.2280  -28.7910   20.7890 C   0  0  0  0  0  3  0  0  0  0  0  0
  -26.1260  -26.9470   19.6470 C   0  0  0  0  0  3  0  0  0  0  0  0
  -24.9170  -27.6740   19.6330 C   0  0  0  0  0  3  0  0  0  0  0  0
  -23.6180  -29.8070   20.2340 C   0  0  0  0  0  2  0  0  0  0  0  0
  -24.6530  -31.1230   22.1450 N   0  0  0  0  0  0  0  0  0  0  0  0
  -23.5050  -32.1960   23.7780 O   0  0  0  0  0  0  0  0  0  0  0  0
  -22.7490  -29.4890   22.5730 C   0  0  0  0  0  0  0  0  0  0  0  0
  -21.4280  -29.2920   22.4340 N   0  0  0  0  0  0  0  0  0  0  0  0
  -23.4320  -28.8800   23.4020 O   0  0  0  0  0  0  0  0  0  0  0  0
  -20.9390  -29.8330   21.7350 H   0  0  0  0  0  0  0  0  0  0  0  0
  -18.0640  -28.0660   22.9030 C   0  0  0  0  0  0  0  0  0  0  0  0
  -20.6130  -28.3550   23.2080 C   0  0  0  0  0  3  0  0  0  0  0  0
  -20.7410  -26.9190   22.6500 C   0  0  0  0  0  2  0  0  0  0  0  0
  -19.6570  -26.5730   21.6250 C   0  0  0  0  0  2  0  0  0  0  0  0
  -18.2650  -26.7100   22.2470 C   0  0  0  0  0  2  0  0  0  0  0  0
  -19.1670  -28.8440   23.3400 C   0  0  0  0  0  0  0  0  0  0  0  0
  -18.9280  -30.1140   23.9110 C   0  0  0  0  0  3  0  0  0  0  0  0
  -17.6160  -30.6040   24.0500 C   0  0  0  0  0  3  0  0  0  0  0  0
  -16.5250  -29.8210   23.6320 C   0  0  0  0  0  3  0  0  0  0  0  0
  -16.7500  -28.5540   23.0640 C   0  0  0  0  0  3  0  0  0  0  0  0
  -25.8700  -32.5700   23.8640 C   0  0  0  0  0  3  0  0  0  0  0  0
  -25.5560  -33.9660   24.1910 N   0  0  0  0  0  0  0  0  0  0  0  0
  -25.8880  -35.0180   23.4290 C   0  0  0  0  0  0  0  0  0  0  0  0
  -26.5680  -34.9130   22.4050 O   0  0  0  0  0  0  0  0  0  0  0  0
  -24.9620  -34.1210   24.9930 H   0  0  0  0  0  0  0  0  0  0  0  0
  -24.1590  -36.7970   23.0410 C   0  0  0  0  0  1  0  0  0  0  0  0
  -25.3880  -36.4040   23.8750 C   0  0  0  0  0  3  0  0  0  0  0  0
  -27.5070  -37.2960   24.7340 C   0  0  0  0  0  1  0  0  0  0  0  0
  -26.4170  -37.4620   23.7750 N   0  0  0  0  0  0  0  0  0  0  0  0
  -26.0080  -38.3820   23.9170 H   0  0  0  0  0  0  0  0  0  0  0  0
  -26.3920  -31.8020   25.1390 C   0  0  1  0  0  0  0  0  0  0  0  0
  -25.2960  -31.5420   26.2000 C   0  0  0  0  0  1  0  0  0  0  0  0
  -26.9940  -30.4350   24.7370 C   0  0  0  0  0  1  0  0  0  0  0  0
  -27.5290  -32.6070   25.8100 C   0  0  0  0  0  1  0  0  0  0  0  0
  1  2  1  0
  1  5  1  0
  2  4  1  0
  3  1  2  0
  6  7  1  0
  6  5  1  0
  7  9  1  0
  8 10  2  0
  9  8  1  0
  9 11  1  0
 13 12  1  0
 13 22  1  0
 13  8  1  0
 14 22  1  0
 15 20  1  0
 16 17  1  0
 16 15  1  0
 18 17  1  0
 18 27  1  0
 18 19  1  0
 20 14  1  0
 20 19  1  0
 21 14  2  0
 22 23  1  0
 24 25  2  0
 25 44  1  0
 26 25  1  0
 26 29  1  0
 27 24  1  0
 27 28  1  0
 28 26  2  0
 29 30  1  0
 30 31  2  0
 32 35  1  0
 32 31  1  0
 33 32  2  0
 34 33  1  0
 34 29  2  0
 35 36  1  0
 36 37  1  0
 37 38  2  0
 39 38  1  0
 39 43  1  0
 40 39  2  0
 41 36  2  0
 41 40  1  0
 42 41  1  0
 44 45  1  0
 45 48  1  0
 45 47  1  0
 46 44  2  0
 49 50  1  0
 49 24  1  0
 51 49  1  0
 52 53  1  0
 52  2  1  0
 54 56  1  0
 54 53  1  0
 55 66  2  0
 56 61  1  0
 57 65  1  0
 57 67  1  0
 58 64  1  0
 58 60  1  0
 59 65  1  0
 60 59  1  0
 61 60  2  0
 62 56  2  0
 63 62  1  0
 63 58  2  0
 64 57  1  0
 65 55  1  0
 67 69  2  0
 68 67  1  0
 70 68  1  0
 71 80  2  0
 71 76  1  0
 72 68  1  0
 72 76  1  0
 73 72  1  0
 74 75  1  0
 74 73  1  0
 75 71  1  0
 76 77  2  0
 77 78  1  0
 79 78  2  0
 80 79  1  0
 81 55  1  0
 81 82  1  0
 81 91  1  0
 82 85  1  0
 83 87  1  0
 83 82  1  0
 84 83  2  0
 87 86  1  0
 89 87  1  0
 89 90  1  0
 89 88  1  0
 91 94  1  1
 91 92  1  0
 93 91  1  0
M  ISO  4  14 100  22 100  53 101  54 101
M  END
>  <TORSDO>  (63) 
F 23

>  <SCORE>  (63) 
-12.999

>  <name>  (63) 
64

>  <ligand_id>  (63) 
64

>  <original_smiles>  (63) 
[H]c1c([H])c([H])c2c(c1[H])C([H])([H])C([H])([H])C([H])([H])C2([H])N([H])C(=O)C1([H])N(C(=O)C([H])(N([H])C(=O)C([H])(N([H])C([H])([H])[H])C([H])([H])[H])C(C([H])([H])[H])(C([H])([H])[H])C([H])([H])[H])C([H])([H])c2c([H])c(OC([H])([H])C([H])([H])N([H])C(=O)C([H])([H])C([H])([H])C([H])([H])N([H])C(=O)C([H])(N([H])C(=O)N3C([H])([H])C([H])([H])C([H])([H])C([H])(n4nc(-c5c([H])c([H])c(Oc6c([H])c([H])c(F)c([H])c6F)c([H])c5[H])c(C(=O)N([H])[H])c4N([H])[H])C3([H])[H])C([H])([H])[H])c([H])c([H])c2C1([H])[H]

>  <smiles>  (63) 
[H]c1c([H])c([H])c2c(c1[H])C([H])([H])C([H])([H])C([H])([H])C2([H])N([H])C(=O)C1([H])N(C(=O)C([H])(N([H])C(=O)C([H])(N([H])C([H])([H])[H])C([H])([H])[H])C(C([H])([H])[H])(C([H])([H])[H])C([H])([H])[H])C([H])([H])c2c([H])c(OC([H])([H])C([H])([H])N([H])C(=O)C([H])([H])C([H])([H])C([H])([H])N([H])C(=O)C([H])(N([H])C(=O)N3C([H])([H])C([H])([H])C([H])([H])C([H])(n4nc(-c5c([H])c([H])c(Oc6c([H])c([H])c(F)c([H])c6F)c([H])c5[H])c(C(=O)N([H])[H])c4N([H])[H])C3([H])[H])C([H])([H])[H])c([H])c([H])c2C1([H])[H]

$$$$
65:0:0
     RDKit          3D

 93100  0  0  1  0  0  0  0  0999 V2000
  -30.0720  -23.4950   20.2060 C   0  0  0  0  0  0  0  0  0  0  0  0
  -30.1690  -24.6420   20.8940 N   0  0  0  0  0  0  0  0  0  0  0  0
  -30.4000  -23.3970   19.0210 O   0  0  0  0  0  0  0  0  0  0  0  0
  -29.8820  -24.6270   21.8650 H   0  0  0  0  0  0  0  0  0  0  0  0
  -29.5150  -22.2880   20.9730 C   0  0  0  0  0  2  0  0  0  0  0  0
  -29.4930  -20.9660   20.1680 C   0  0  0  0  0  2  0  0  0  0  0  0
  -28.8040  -19.7950   20.9040 C   0  0  0  0  0  2  0  0  0  0  0  0
  -29.7020  -17.4550   20.8010 C   0  0  0  0  0  0  0  0  0  0  0  0
  -29.7400  -18.7180   21.2500 N   0  0  0  0  0  0  0  0  0  0  0  0
  -28.8600  -17.0560   19.9910 O   0  0  0  0  0  0  0  0  0  0  0  0
  -30.4520  -18.9400   21.9360 H   0  0  0  0  0  0  0  0  0  0  0  0
  -30.7640  -16.4940   21.3510 C   0  0  0  0  0  2  0  0  0  0  0  0
  -30.8340  -14.2870   20.1850 C   0  0  0  0  0  0  0  0  0  0  0  0
  -30.4310  -12.1930   18.9370 C   0  0  0  0  0  2  0  0  0  0  0  0
  -29.4330  -12.4190   17.7810 C   0  0  0  0  0  2  0  0  0  0  0  0
  -27.9730  -12.3390   18.2690 C   0  0  0  0  0  2  0  0  0  0  0  0
  -27.7160  -13.1520   19.5650 C   0  0  0  0  0  3  0  0  0  0  0  0
  -28.8070  -12.8530   20.6220 C   0  0  0  0  0  2  0  0  0  0  0  0
  -30.1200  -13.1440   20.0160 N   0  0  0  0  0  0  0  0  0  0  0  0
  -31.8270  -14.5760   19.5090 O   0  0  0  0  0  0  0  0  0  0  0  0
  -30.3820  -15.0940   21.1500 N   0  0  0  0  0  0  0  0  0  0  0  0
  -29.5990  -14.7580   21.6910 H   0  0  0  0  0  0  0  0  0  0  0  0
  -25.3500  -13.8280   20.3280 C   0  0  0  0  0  0  0  0  0  0  0  0
  -24.2690  -13.0850   20.7340 C   0  0  0  0  0  0  0  0  0  0  0  0
  -24.6910  -11.7190   20.6980 C   0  0  0  0  0  0  0  0  0  0  0  0
  -26.3650  -12.9170   20.0800 N   0  0  0  0  0  0  0  0  0  0  0  0
  -25.9720  -11.6440   20.3560 N   0  0  0  0  0  0  0  0  0  0  0  0
  -23.9380  -10.4770   20.9240 C   0  0  0  0  0  0  0  0  0  0  0  0
  -24.3720   -9.5110   21.8600 C   0  0  0  0  0  3  0  0  0  0  0  0
  -23.6240   -8.3330   22.0720 C   0  0  0  0  0  3  0  0  0  0  0  0
  -22.4310   -8.1090   21.3450 C   0  0  0  0  0  0  0  0  0  0  0  0
  -22.0160   -9.0640   20.3990 C   0  0  0  0  0  3  0  0  0  0  0  0
  -22.7610  -10.2350   20.1850 C   0  0  0  0  0  3  0  0  0  0  0  0
  -21.6580   -6.9780   21.4620 O   0  0  0  0  0  0  0  0  0  0  0  0
  -21.6080   -6.2580   22.6270 C   0  0  0  0  0  0  0  0  0  0  0  0
  -21.2210   -6.8480   23.8500 C   0  0  0  0  0  3  0  0  0  0  0  0
  -21.1150   -6.0550   25.0100 C   0  0  0  0  0  3  0  0  0  0  0  0
  -21.3890   -4.6760   24.9480 C   0  0  0  0  0  0  0  0  0  0  0  0
  -21.7710   -4.0860   23.7320 C   0  0  0  0  0  3  0  0  0  0  0  0
  -21.8770   -4.8750   22.5720 C   0  0  0  0  0  0  0  0  0  0  0  0
  -22.2220   -4.2990   21.3960 F   0  0  0  0  0  0  0  0  0  0  0  0
  -21.2830   -3.9110   26.0600 F   0  0  0  0  0  0  0  0  0  0  0  0
  -22.8960  -13.6010   21.0500 C   0  0  0  0  0  0  0  0  0  0  0  0
  -22.1810  -12.9250   21.9440 N   0  0  0  0  0  0  0  0  0  0  0  0
  -22.4610  -14.6320   20.5400 O   0  0  0  0  0  0  0  0  0  0  0  0
  -22.5490  -12.0870   22.3700 H   0  0  0  0  0  0  0  0  0  0  0  0
  -21.2620  -13.2510   22.2040 H   0  0  0  0  0  0  0  0  0  0  0  0
  -25.5540  -15.1900   20.1320 N   0  0  0  0  0  0  0  0  0  0  0  0
  -24.8320  -15.8880   20.2680 H   0  0  0  0  0  0  0  0  0  0  0  0
  -26.4320  -15.5870   19.8150 H   0  0  0  0  0  0  0  0  0  0  0  0
  -30.5770  -25.9410   20.3530 C   0  0  0  0  0  2  0  0  0  0  0  0
  -29.5770  -27.0390   20.7620 C   0  0  0  0  0  2  0  0  0  0  0  0
  -28.3530  -26.6610   20.1510 O   0  0  0  0  0  0  0  0  0  0  0  0
  -24.5590  -31.8950   23.2690 C   0  0  0  0  0  0  0  0  0  0  0  0
  -27.2430  -27.4660   20.2260 C   0  0  0  0  0  0  0  0  0  0  0  0
  -23.3630  -30.4810   21.6250 C   0  0  0  0  0  3  0  0  0  0  0  0
  -24.8320  -28.9400   20.2240 C   0  0  0  0  0  0  0  0  0  0  0  0
  -25.8880  -30.8500   21.4470 C   0  0  0  0  0  2  0  0  0  0  0  0
  -25.9850  -29.4780   20.8150 C   0  0  0  0  0  0  0  0  0  0  0  0
  -27.1970  -28.7500   20.8180 C   0  0  0  0  0  3  0  0  0  0  0  0
  -26.0760  -26.9370   19.6420 C   0  0  0  0  0  3  0  0  0  0  0  0
  -24.8720  -27.6650   19.6370 C   0  0  0  0  0  3  0  0  0  0  0  0
  -23.5800  -29.7830   20.2560 C   0  0  0  0  0  2  0  0  0  0  0  0
  -24.6190  -31.0880   22.1710 N   0  0  0  0  0  0  0  0  0  0  0  0
  -23.4740  -32.1730   23.7980 O   0  0  0  0  0  0  0  0  0  0  0  0
  -22.7020  -29.4710   22.5890 C   0  0  0  0  0  0  0  0  0  0  0  0
  -21.3770  -29.3030   22.4570 N   0  0  0  0  0  0  0  0  0  0  0  0
  -23.3780  -28.8410   23.4060 O   0  0  0  0  0  0  0  0  0  0  0  0
  -20.8950  -29.8600   21.7660 H   0  0  0  0  0  0  0  0  0  0  0  0
  -17.9880  -28.1600   22.9520 C   0  0  0  0  0  0  0  0  0  0  0  0
  -20.5480  -28.3730   23.2230 C   0  0  0  0  0  3  0  0  0  0  0  0
  -20.6280  -26.9440   22.6400 C   0  0  0  0  0  2  0  0  0  0  0  0
  -19.5200  -26.6430   21.6250 C   0  0  0  0  0  2  0  0  0  0  0  0
  -18.1410  -26.8110   22.2690 C   0  0  0  0  0  2  0  0  0  0  0  0
  -19.1190  -28.9010   23.3850 C   0  0  0  0  0  0  0  0  0  0  0  0
  -18.9230  -30.1680   23.9760 C   0  0  0  0  0  3  0  0  0  0  0  0
  -17.6280  -30.6910   24.1440 C   0  0  0  0  0  3  0  0  0  0  0  0
  -16.5110  -29.9450   23.7340 C   0  0  0  0  0  3  0  0  0  0  0  0
  -16.6910  -28.6810   23.1430 C   0  0  0  0  0  3  0  0  0  0  0  0
  -25.8440  -32.5230   23.8960 C   0  0  0  0  0  3  0  0  0  0  0  0
  -25.5380  -33.9230   24.2170 N   0  0  0  0  0  0  0  0  0  0  0  0
  -25.8910  -34.9710   23.4610 C   0  0  0  0  0  0  0  0  0  0  0  0
  -26.5780  -34.8600   22.4420 O   0  0  0  0  0  0  0  0  0  0  0  0
  -24.9280  -34.0810   25.0050 H   0  0  0  0  0  0  0  0  0  0  0  0
  -24.1780  -36.7700   23.0710 C   0  0  0  0  0  1  0  0  0  0  0  0
  -25.4030  -36.3630   23.9070 C   0  0  0  0  0  3  0  0  0  0  0  0
  -27.5270  -37.2330   24.7750 C   0  0  0  0  0  1  0  0  0  0  0  0
  -26.4430  -37.4100   23.8110 N   0  0  0  0  0  0  0  0  0  0  0  0
  -26.0410  -38.3310   23.9510 H   0  0  0  0  0  0  0  0  0  0  0  0
  -26.3490  -31.7570   25.1790 C   0  0  1  0  0  0  0  0  0  0  0  0
  -25.2440  -31.5270   26.2370 C   0  0  0  0  0  1  0  0  0  0  0  0
  -26.9370  -30.3790   24.7970 C   0  0  0  0  0  1  0  0  0  0  0  0
  -27.4920  -32.5540   25.8500 C   0  0  0  0  0  1  0  0  0  0  0  0
  1  2  1  0
  1  5  1  0
  2  4  1  0
  3  1  2  0
  6  7  1  0
  6  5  1  0
  7  9  1  0
  8  9  1  0
  8 12  1  0
  9 11  1  0
 10  8  2  0
 13 21  1  0
 14 19  1  0
 15 16  1  0
 15 14  1  0
 17 16  1  0
 17 26  1  0
 17 18  1  0
 19 13  1  0
 19 18  1  0
 20 13  2  0
 21 12  1  0
 21 22  1  0
 23 24  2  0
 24 43  1  0
 25 24  1  0
 25 28  1  0
 26 23  1  0
 26 27  1  0
 27 25  2  0
 28 29  1  0
 29 30  2  0
 31 34  1  0
 31 30  1  0
 32 31  2  0
 33 32  1  0
 33 28  2  0
 34 35  1  0
 35 36  1  0
 36 37  2  0
 38 37  1  0
 38 42  1  0
 39 38  2  0
 40 35  2  0
 40 39  1  0
 41 40  1  0
 43 44  1  0
 44 47  1  0
 44 46  1  0
 45 43  2  0
 48 49  1  0
 48 23  1  0
 50 48  1  0
 51 52  1  0
 51  2  1  0
 53 55  1  0
 53 52  1  0
 54 65  2  0
 55 60  1  0
 56 64  1  0
 56 66  1  0
 57 63  1  0
 57 59  1  0
 58 64  1  0
 59 60  2  0
 59 58  1  0
 61 55  2  0
 62 61  1  0
 62 57  2  0
 63 56  1  0
 64 54  1  0
 66 68  2  0
 67 66  1  0
 69 67  1  0
 70 79  2  0
 70 75  1  0
 71 67  1  0
 71 75  1  0
 72 71  1  0
 73 74  1  0
 73 72  1  0
 74 70  1  0
 75 76  2  0
 76 77  1  0
 78 77  2  0
 79 78  1  0
 80 54  1  0
 80 81  1  0
 80 90  1  0
 81 84  1  0
 82 86  1  0
 82 81  1  0
 83 82  2  0
 86 85  1  0
 88 86  1  0
 88 89  1  0
 88 87  1  0
 90 93  1  1
 90 91  1  0
 92 90  1  0
M  ISO  4  13 100  21 100  52 101  53 101
M  END
>  <TORSDO>  (64) 
F 23

>  <SCORE>  (64) 
-12.778

>  <name>  (64) 
65

>  <ligand_id>  (64) 
65

>  <original_smiles>  (64) 
[H]c1c([H])c([H])c2c(c1[H])C([H])([H])C([H])([H])C([H])([H])C2([H])N([H])C(=O)C1([H])N(C(=O)C([H])(N([H])C(=O)C([H])(N([H])C([H])([H])[H])C([H])([H])[H])C(C([H])([H])[H])(C([H])([H])[H])C([H])([H])[H])C([H])([H])c2c([H])c(OC([H])([H])C([H])([H])N([H])C(=O)C([H])([H])C([H])([H])C([H])([H])N([H])C(=O)C([H])([H])N([H])C(=O)N3C([H])([H])C([H])([H])C([H])([H])C([H])(n4nc(-c5c([H])c([H])c(Oc6c([H])c([H])c(F)c([H])c6F)c([H])c5[H])c(C(=O)N([H])[H])c4N([H])[H])C3([H])[H])c([H])c([H])c2C1([H])[H]

>  <smiles>  (64) 
[H]c1c([H])c([H])c2c(c1[H])C([H])([H])C([H])([H])C([H])([H])C2([H])N([H])C(=O)C1([H])N(C(=O)C([H])(N([H])C(=O)C([H])(N([H])C([H])([H])[H])C([H])([H])[H])C(C([H])([H])[H])(C([H])([H])[H])C([H])([H])[H])C([H])([H])c2c([H])c(OC([H])([H])C([H])([H])N([H])C(=O)C([H])([H])C([H])([H])C([H])([H])N([H])C(=O)C([H])([H])N([H])C(=O)N3C([H])([H])C([H])([H])C([H])([H])C([H])(n4nc(-c5c([H])c([H])c(Oc6c([H])c([H])c(F)c([H])c6F)c([H])c5[H])c(C(=O)N([H])[H])c4N([H])[H])C3([H])[H])c([H])c([H])c2C1([H])[H]

$$$$
66:0:0
     RDKit          3D

 94101  0  0  1  0  0  0  0  0999 V2000
  -26.4270  -22.6110   21.9010 C   0  0  0  0  0  2  0  0  0  0  0  0
  -27.4240  -23.0690   20.8150 C   0  0  0  0  0  2  0  0  0  0  0  0
  -26.9790  -22.7870   19.3590 C   0  0  0  0  0  2  0  0  0  0  0  0
  -27.6680  -21.5870   18.7000 C   0  0  0  0  0  0  0  0  0  0  0  0
  -28.8710  -21.8050   18.1480 N   0  0  0  0  0  0  0  0  0  0  0  0
  -27.1190  -20.4840   18.6750 O   0  0  0  0  0  0  0  0  0  0  0  0
  -29.2620  -22.7370   18.1900 H   0  0  0  0  0  0  0  0  0  0  0  0
  -29.5930  -20.7980   17.3860 C   0  0  0  0  0  2  0  0  0  0  0  0
  -31.1250  -20.9250   17.4810 C   0  0  0  0  0  2  0  0  0  0  0  0
  -32.4700  -19.1270   18.6090 C   0  0  0  0  0  0  0  0  0  0  0  0
  -33.1230  -17.0350   19.7490 C   0  0  0  0  0  2  0  0  0  0  0  0
  -32.6990  -15.7940   18.9400 C   0  0  0  0  0  2  0  0  0  0  0  0
  -31.2490  -15.3870   19.2600 C   0  0  0  0  0  2  0  0  0  0  0  0
  -30.2740  -16.5840   19.1520 C   0  0  0  0  0  3  0  0  0  0  0  0
  -30.8170  -17.7890   19.9540 C   0  0  0  0  0  2  0  0  0  0  0  0
  -32.1750  -18.1200   19.4710 N   0  0  0  0  0  0  0  0  0  0  0  0
  -33.5030  -19.1820   17.9340 O   0  0  0  0  0  0  0  0  0  0  0  0
  -31.5480  -20.0970   18.6020 N   0  0  0  0  0  0  0  0  0  0  0  0
  -30.8750  -20.0310   19.3500 H   0  0  0  0  0  0  0  0  0  0  0  0
  -27.8260  -17.0250   19.8370 C   0  0  0  0  0  0  0  0  0  0  0  0
  -26.7950  -16.1760   20.1390 C   0  0  0  0  0  0  0  0  0  0  0  0
  -27.3280  -14.8540   20.0310 C   0  0  0  0  0  0  0  0  0  0  0  0
  -28.9230  -16.2160   19.5770 N   0  0  0  0  0  0  0  0  0  0  0  0
  -28.6230  -14.9020   19.7480 N   0  0  0  0  0  0  0  0  0  0  0  0
  -26.6680  -13.5450   20.1260 C   0  0  0  0  0  0  0  0  0  0  0  0
  -26.8370  -12.7130   21.2540 C   0  0  0  0  0  3  0  0  0  0  0  0
  -26.1780  -11.4680   21.3300 C   0  0  0  0  0  3  0  0  0  0  0  0
  -25.3360  -11.0460   20.2730 C   0  0  0  0  0  0  0  0  0  0  0  0
  -25.1880  -11.8690   19.1430 C   0  0  0  0  0  3  0  0  0  0  0  0
  -25.8500  -13.1050   19.0670 C   0  0  0  0  0  3  0  0  0  0  0  0
  -24.6750   -9.8410   20.2490 O   0  0  0  0  0  0  0  0  0  0  0  0
  -23.9520   -9.3950   21.3260 C   0  0  0  0  0  0  0  0  0  0  0  0
  -22.8850  -10.1430   21.8690 C   0  0  0  0  0  3  0  0  0  0  0  0
  -22.1250   -9.6160   22.9320 C   0  0  0  0  0  3  0  0  0  0  0  0
  -22.4230   -8.3390   23.4460 C   0  0  0  0  0  0  0  0  0  0  0  0
  -23.4840   -7.5920   22.9050 C   0  0  0  0  0  3  0  0  0  0  0  0
  -24.2440   -8.1170   21.8460 C   0  0  0  0  0  0  0  0  0  0  0  0
  -25.2510   -7.3840   21.3120 F   0  0  0  0  0  0  0  0  0  0  0  0
  -21.6900   -7.8290   24.4610 F   0  0  0  0  0  0  0  0  0  0  0  0
  -25.3690  -16.5580   20.4180 C   0  0  0  0  0  0  0  0  0  0  0  0
  -24.6770  -15.7850   21.2450 N   0  0  0  0  0  0  0  0  0  0  0  0
  -24.8760  -17.5770   19.9390 O   0  0  0  0  0  0  0  0  0  0  0  0
  -25.0930  -14.9610   21.6530 H   0  0  0  0  0  0  0  0  0  0  0  0
  -23.7200  -16.0190   21.4720 H   0  0  0  0  0  0  0  0  0  0  0  0
  -27.9180  -18.4110   19.7440 N   0  0  0  0  0  0  0  0  0  0  0  0
  -27.1100  -19.0130   19.8650 H   0  0  0  0  0  0  0  0  0  0  0  0
  -28.7500  -18.9170   19.4710 H   0  0  0  0  0  0  0  0  0  0  0  0
  -25.4130  -23.6820   22.3590 C   0  0  0  0  0  2  0  0  0  0  0  0
  -24.5310  -24.2700   21.2450 C   0  0  0  0  0  2  0  0  0  0  0  0
  -25.3170  -24.9150   20.0920 C   0  0  0  0  0  2  0  0  0  0  0  0
  -24.4810  -24.9800   18.8040 C   0  0  0  0  0  2  0  0  0  0  0  0
  -25.3070  -25.0450   17.5020 C   0  0  0  0  0  2  0  0  0  0  0  0
  -26.4900  -26.0410   17.4630 C   0  0  0  0  0  2  0  0  0  0  0  0
  -26.1110  -27.3410   17.0040 O   0  0  0  0  0  0  0  0  0  0  0  0
  -25.8090  -29.8300   23.6720 C   0  0  0  0  0  0  0  0  0  0  0  0
  -25.4490  -28.1070   17.9290 C   0  0  0  0  0  0  0  0  0  0  0  0
  -23.7960  -30.1930   22.2810 C   0  0  0  0  0  3  0  0  0  0  0  0
  -24.0660  -29.7070   19.7920 C   0  0  0  0  0  0  0  0  0  0  0  0
  -26.1080  -30.0030   21.2050 C   0  0  0  0  0  2  0  0  0  0  0  0
  -25.4250  -29.4240   19.9840 C   0  0  0  0  0  0  0  0  0  0  0  0
  -26.1210  -28.6200   19.0570 C   0  0  0  0  0  3  0  0  0  0  0  0
  -24.0920  -28.4240   17.7280 C   0  0  0  0  0  3  0  0  0  0  0  0
  -23.3900  -29.2040   18.6660 C   0  0  0  0  0  3  0  0  0  0  0  0
  -23.3920  -30.5740   20.8300 C   0  0  0  0  0  2  0  0  0  0  0  0
  -25.2720  -29.9770   22.4280 N   0  0  0  0  0  0  0  0  0  0  0  0
  -25.1030  -29.9130   24.6860 O   0  0  0  0  0  0  0  0  0  0  0  0
  -22.9520  -28.9790   22.7230 C   0  0  0  0  0  0  0  0  0  0  0  0
  -21.6190  -29.1030   22.6080 N   0  0  0  0  0  0  0  0  0  0  0  0
  -23.4920  -27.9480   23.1310 O   0  0  0  0  0  0  0  0  0  0  0  0
  -21.2540  -29.9840   22.2730 H   0  0  0  0  0  0  0  0  0  0  0  0
  -18.1500  -28.1780   22.2030 C   0  0  0  0  0  0  0  0  0  0  0  0
  -20.6290  -28.0740   22.9260 C   0  0  0  0  0  3  0  0  0  0  0  0
  -20.7530  -26.8670   21.9690 C   0  0  0  0  0  2  0  0  0  0  0  0
  -19.8310  -26.9660   20.7490 C   0  0  0  0  0  2  0  0  0  0  0  0
  -18.3660  -27.0680   21.1870 C   0  0  0  0  0  2  0  0  0  0  0  0
  -19.2170  -28.6610   23.0060 C   0  0  0  0  0  0  0  0  0  0  0  0
  -18.9700  -29.7180   23.9080 C   0  0  0  0  0  3  0  0  0  0  0  0
  -17.6880  -30.2890   24.0170 C   0  0  0  0  0  3  0  0  0  0  0  0
  -16.6330  -29.7980   23.2300 C   0  0  0  0  0  3  0  0  0  0  0  0
  -16.8630  -28.7430   22.3300 C   0  0  0  0  0  3  0  0  0  0  0  0
  -27.3340  -29.5730   23.8800 C   0  0  0  0  0  3  0  0  0  0  0  0
  -27.6500  -28.1290   24.4320 C   0  0  1  0  0  0  0  0  0  0  0  0
  -26.8240  -27.7460   25.6830 C   0  0  0  0  0  1  0  0  0  0  0  0
  -27.3870  -27.0590   23.3480 C   0  0  0  0  0  1  0  0  0  0  0  0
  -29.1490  -28.0270   24.7980 C   0  0  0  0  0  1  0  0  0  0  0  0
  -27.8340  -30.6040   24.7980 N   0  0  0  0  0  0  0  0  0  0  0  0
  -28.5670  -31.6610   24.4240 C   0  0  0  0  0  0  0  0  0  0  0  0
  -28.9550  -31.8320   23.2650 O   0  0  0  0  0  0  0  0  0  0  0  0
  -27.5010  -30.5600   25.7510 H   0  0  0  0  0  0  0  0  0  0  0  0
  -28.0220  -33.9310   25.3590 C   0  0  0  0  0  1  0  0  0  0  0  0
  -28.9240  -32.6940   25.5090 C   0  0  0  0  0  3  0  0  0  0  0  0
  -31.2610  -32.0440   25.8820 C   0  0  0  0  0  1  0  0  0  0  0  0
  -30.3430  -33.1070   25.4820 N   0  0  0  0  0  0  0  0  0  0  0  0
  -30.5000  -33.9090   26.0880 H   0  0  0  0  0  0  0  0  0  0  0  0
  1 48  1  0
  2  1  1  0
  3  2  1  0
  4  3  1  0
  5  7  1  0
  5  4  1  0
  6  4  2  0
  8  9  1  0
  8  5  1  0
  9 18  1  0
 10 16  1  0
 12 13  1  0
 12 11  1  0
 14 13  1  0
 14 23  1  0
 14 15  1  0
 16 11  1  0
 16 15  1  0
 17 10  2  0
 18 10  1  0
 18 19  1  0
 20 21  2  0
 21 40  1  0
 22 25  1  0
 22 21  1  0
 23 24  1  0
 23 20  1  0
 24 22  2  0
 25 26  1  0
 26 27  2  0
 28 27  1  0
 29 28  2  0
 30 29  1  0
 30 25  2  0
 31 28  1  0
 31 32  1  0
 32 37  2  0
 32 33  1  0
 33 34  2  0
 34 35  1  0
 35 39  1  0
 36 35  2  0
 37 36  1  0
 38 37  1  0
 40 41  1  0
 41 44  1  0
 41 43  1  0
 42 40  2  0
 45 20  1  0
 45 46  1  0
 47 45  1  0
 49 48  1  0
 50 49  1  0
 51 50  1  0
 52 51  1  0
 53 52  1  0
 54 53  1  0
 54 56  1  0
 55 66  2  0
 56 61  1  0
 57 65  1  0
 57 67  1  0
 58 60  1  0
 58 64  1  0
 59 65  1  0
 60 59  1  0
 61 60  2  0
 62 56  2  0
 62 63  1  0
 63 58  2  0
 64 57  1  0
 65 55  1  0
 67 69  2  0
 68 67  1  0
 70 68  1  0
 71 80  2  0
 71 76  1  0
 72 68  1  0
 72 76  1  0
 73 72  1  0
 74 75  1  0
 74 73  1  0
 75 71  1  0
 76 77  2  0
 77 78  1  0
 79 78  2  0
 80 79  1  0
 81 55  1  0
 81 82  1  0
 81 86  1  0
 82 85  1  1
 82 83  1  0
 84 82  1  0
 86 89  1  0
 87 86  1  0
 87 91  1  0
 88 87  2  0
 91 90  1  0
 93 91  1  0
 93 92  1  0
 93 94  1  0
M  ISO  4  10 100  18 100  53 101  54 101
M  END
>  <TORSDO>  (65) 
F 27

>  <SCORE>  (65) 
-4.597

>  <name>  (65) 
66

>  <ligand_id>  (65) 
66

>  <original_smiles>  (65) 
[H]c1c([H])c([H])c2c(c1[H])C([H])([H])C([H])([H])C([H])([H])C2([H])N([H])C(=O)C1([H])N(C(=O)C([H])(N([H])C(=O)C([H])(N([H])C([H])([H])[H])C([H])([H])[H])C(C([H])([H])[H])(C([H])([H])[H])C([H])([H])[H])C([H])([H])c2c([H])c(OC([H])([H])C([H])([H])C([H])([H])C([H])([H])C([H])([H])C([H])([H])C([H])([H])C([H])([H])C([H])([H])C(=O)N([H])C([H])([H])C([H])([H])N([H])C(=O)N3C([H])([H])C([H])([H])C([H])([H])C([H])(n4nc(-c5c([H])c([H])c(Oc6c([H])c([H])c(F)c([H])c6F)c([H])c5[H])c(C(=O)N([H])[H])c4N([H])[H])C3([H])[H])c([H])c([H])c2C1([H])[H]

>  <smiles>  (65) 
[H]c1c([H])c([H])c2c(c1[H])C([H])([H])C([H])([H])C([H])([H])C2([H])N([H])C(=O)C1([H])N(C(=O)C([H])(N([H])C(=O)C([H])(N([H])C([H])([H])[H])C([H])([H])[H])C(C([H])([H])[H])(C([H])([H])[H])C([H])([H])[H])C([H])([H])c2c([H])c(OC([H])([H])C([H])([H])C([H])([H])C([H])([H])C([H])([H])C([H])([H])C([H])([H])C([H])([H])C([H])([H])C(=O)N([H])C([H])([H])C([H])([H])N([H])C(=O)N3C([H])([H])C([H])([H])C([H])([H])C([H])(n4nc(-c5c([H])c([H])c(Oc6c([H])c([H])c(F)c([H])c6F)c([H])c5[H])c(C(=O)N([H])[H])c4N([H])[H])C3([H])[H])c([H])c([H])c2C1([H])[H]

$$$$
67:0:0
     RDKit          3D

 95102  0  0  1  0  0  0  0  0999 V2000
  -31.8780  -21.3530   19.3280 C   0  0  0  0  0  0  0  0  0  0  0  0
  -31.6320  -22.6220   19.6740 N   0  0  0  0  0  0  0  0  0  0  0  0
  -32.2210  -20.4870   20.1340 O   0  0  0  0  0  0  0  0  0  0  0  0
  -31.3970  -23.2640   18.9300 H   0  0  0  0  0  0  0  0  0  0  0  0
  -31.5830  -23.1440   21.0390 C   0  0  0  0  0  2  0  0  0  0  0  0
  -30.1960  -23.7300   21.3630 C   0  0  0  0  0  2  0  0  0  0  0  0
  -29.8130  -24.9140   20.4610 C   0  0  0  0  0  2  0  0  0  0  0  0
  -28.4370  -25.5110   20.7830 C   0  0  0  0  0  2  0  0  0  0  0  0
  -28.3280  -26.7000   20.0200 O   0  0  0  0  0  0  0  0  0  0  0  0
  -24.5380  -31.7990   23.2050 C   0  0  0  0  0  0  0  0  0  0  0  0
  -27.1360  -27.3660   20.1130 C   0  0  0  0  0  0  0  0  0  0  0  0
  -23.3070  -30.4050   21.5730 C   0  0  0  0  0  3  0  0  0  0  0  0
  -24.7380  -28.8460   20.1500 C   0  0  0  0  0  0  0  0  0  0  0  0
  -25.8270  -30.7540   21.3510 C   0  0  0  0  0  2  0  0  0  0  0  0
  -25.9000  -29.3800   20.7220 C   0  0  0  0  0  0  0  0  0  0  0  0
  -27.1040  -28.6470   20.6990 C   0  0  0  0  0  3  0  0  0  0  0  0
  -25.9590  -26.8270   19.5530 C   0  0  0  0  0  3  0  0  0  0  0  0
  -24.7590  -27.5640   19.5680 C   0  0  0  0  0  3  0  0  0  0  0  0
  -23.5000  -29.7130   20.1960 C   0  0  0  0  0  2  0  0  0  0  0  0
  -24.5760  -31.0000   22.1020 N   0  0  0  0  0  0  0  0  0  0  0  0
  -23.4640  -32.0810   23.7540 O   0  0  0  0  0  0  0  0  0  0  0  0
  -22.6550  -29.3920   22.5400 C   0  0  0  0  0  0  0  0  0  0  0  0
  -21.3270  -29.2320   22.4310 N   0  0  0  0  0  0  0  0  0  0  0  0
  -23.3410  -28.7530   23.3420 O   0  0  0  0  0  0  0  0  0  0  0  0
  -20.8350  -29.7990   21.7540 H   0  0  0  0  0  0  0  0  0  0  0  0
  -17.9410  -28.0970   22.9720 C   0  0  0  0  0  0  0  0  0  0  0  0
  -20.5060  -28.3050   23.2090 C   0  0  0  0  0  3  0  0  0  0  0  0
  -20.5740  -26.8750   22.6240 C   0  0  0  0  0  2  0  0  0  0  0  0
  -19.4520  -26.5790   21.6240 C   0  0  0  0  0  2  0  0  0  0  0  0
  -18.0830  -26.7470   22.2880 C   0  0  0  0  0  2  0  0  0  0  0  0
  -19.0800  -28.8350   23.3890 C   0  0  0  0  0  0  0  0  0  0  0  0
  -18.8930  -30.1010   23.9870 C   0  0  0  0  0  3  0  0  0  0  0  0
  -17.6020  -30.6270   24.1720 C   0  0  0  0  0  3  0  0  0  0  0  0
  -16.4770  -29.8860   23.7710 C   0  0  0  0  0  3  0  0  0  0  0  0
  -16.6480  -28.6220   23.1770 C   0  0  0  0  0  3  0  0  0  0  0  0
  -25.8360  -32.4170   23.8150 C   0  0  0  0  0  3  0  0  0  0  0  0
  -26.3710  -31.6270   25.0720 C   0  0  1  0  0  0  0  0  0  0  0  0
  -25.2960  -31.3830   26.1550 C   0  0  0  0  0  1  0  0  0  0  0  0
  -26.9400  -30.2530   24.6510 C   0  0  0  0  0  1  0  0  0  0  0  0
  -27.5380  -32.4060   25.7240 C   0  0  0  0  0  1  0  0  0  0  0  0
  -25.5400  -33.8130   24.1630 N   0  0  0  0  0  0  0  0  0  0  0  0
  -25.8690  -34.8700   23.4100 C   0  0  0  0  0  0  0  0  0  0  0  0
  -26.5280  -34.7720   22.3700 O   0  0  0  0  0  0  0  0  0  0  0  0
  -24.9550  -33.9620   24.9720 H   0  0  0  0  0  0  0  0  0  0  0  0
  -24.1440  -36.6700   23.0930 C   0  0  0  0  0  1  0  0  0  0  0  0
  -25.3930  -36.2560   23.8850 C   0  0  0  0  0  3  0  0  0  0  0  0
  -27.5450  -37.1230   24.6900 C   0  0  0  0  0  1  0  0  0  0  0  0
  -26.4290  -37.3050   23.7650 N   0  0  0  0  0  0  0  0  0  0  0  0
  -26.0300  -38.2260   23.9270 H   0  0  0  0  0  0  0  0  0  0  0  0
  -31.7020  -20.9990   17.8500 C   0  0  0  0  0  2  0  0  0  0  0  0
  -30.2260  -20.8400   17.4080 C   0  0  0  0  0  2  0  0  0  0  0  0
  -29.3970  -19.8110   18.2040 C   0  0  0  0  0  2  0  0  0  0  0  0
  -28.6050  -20.4400   19.3670 C   0  0  0  0  0  2  0  0  0  0  0  0
  -28.0280  -19.4300   20.3740 C   0  0  0  0  0  2  0  0  0  0  0  0
  -29.1100  -18.6520   21.1510 C   0  0  0  0  0  2  0  0  0  0  0  0
  -29.1950  -17.1770   20.7380 C   0  0  0  0  0  2  0  0  0  0  0  0
  -30.4240  -16.4550   21.3150 C   0  0  0  0  0  2  0  0  0  0  0  0
  -30.7490  -14.2260   20.2220 C   0  0  0  0  0  0  0  0  0  0  0  0
  -30.3690  -12.1330   18.9740 C   0  0  0  0  0  2  0  0  0  0  0  0
  -29.3920  -12.3700   17.8070 C   0  0  0  0  0  2  0  0  0  0  0  0
  -27.9250  -12.2680   18.2740 C   0  0  0  0  0  2  0  0  0  0  0  0
  -27.6480  -13.1050   19.5510 C   0  0  0  0  0  3  0  0  0  0  0  0
  -28.7150  -12.8020   20.6250 C   0  0  0  0  0  2  0  0  0  0  0  0
  -30.0470  -13.0790   20.0490 N   0  0  0  0  0  0  0  0  0  0  0  0
  -31.7480  -14.5340   19.5620 O   0  0  0  0  0  0  0  0  0  0  0  0
  -30.2350  -15.0220   21.1660 N   0  0  0  0  0  0  0  0  0  0  0  0
  -29.4770  -14.6160   21.6950 H   0  0  0  0  0  0  0  0  0  0  0  0
  -25.2740  -13.7870   20.2920 C   0  0  0  0  0  0  0  0  0  0  0  0
  -24.1970  -13.0460   20.7000 C   0  0  0  0  0  0  0  0  0  0  0  0
  -24.6260  -11.6830   20.6800 C   0  0  0  0  0  0  0  0  0  0  0  0
  -26.2940  -12.8780   20.0560 N   0  0  0  0  0  0  0  0  0  0  0  0
  -25.9070  -11.6080   20.3420 N   0  0  0  0  0  0  0  0  0  0  0  0
  -23.8770  -10.4410   20.9090 C   0  0  0  0  0  0  0  0  0  0  0  0
  -24.3190   -9.4740   21.8390 C   0  0  0  0  0  3  0  0  0  0  0  0
  -23.5740   -8.2940   22.0550 C   0  0  0  0  0  3  0  0  0  0  0  0
  -22.3720   -8.0760   21.3420 C   0  0  0  0  0  0  0  0  0  0  0  0
  -21.9490   -9.0290   20.4010 C   0  0  0  0  0  3  0  0  0  0  0  0
  -22.6930  -10.2010   20.1820 C   0  0  0  0  0  3  0  0  0  0  0  0
  -21.5950   -6.9480   21.4680 O   0  0  0  0  0  0  0  0  0  0  0  0
  -21.5750   -6.2140   22.6260 C   0  0  0  0  0  0  0  0  0  0  0  0
  -21.2330   -6.7900   23.8690 C   0  0  0  0  0  3  0  0  0  0  0  0
  -21.1590   -5.9830   25.0230 C   0  0  0  0  0  3  0  0  0  0  0  0
  -21.4130   -4.6020   24.9340 C   0  0  0  0  0  0  0  0  0  0  0  0
  -21.7490   -4.0260   23.6970 C   0  0  0  0  0  3  0  0  0  0  0  0
  -21.8270   -4.8290   22.5460 C   0  0  0  0  0  0  0  0  0  0  0  0
  -22.1290   -4.2650   21.3510 F   0  0  0  0  0  0  0  0  0  0  0  0
  -21.3330   -3.8250   26.0400 F   0  0  0  0  0  0  0  0  0  0  0  0
  -22.8170  -13.5580   20.9980 C   0  0  0  0  0  0  0  0  0  0  0  0
  -22.0960  -12.8970   21.8980 N   0  0  0  0  0  0  0  0  0  0  0  0
  -22.3850  -14.5800   20.4660 O   0  0  0  0  0  0  0  0  0  0  0  0
  -22.4560  -12.0710   22.3520 H   0  0  0  0  0  0  0  0  0  0  0  0
  -21.1700  -13.2230   22.1350 H   0  0  0  0  0  0  0  0  0  0  0  0
  -25.4680  -15.1510   20.0870 N   0  0  0  0  0  0  0  0  0  0  0  0
  -24.7250  -15.8300   20.2100 H   0  0  0  0  0  0  0  0  0  0  0  0
  -26.3290  -15.5600   19.7500 H   0  0  0  0  0  0  0  0  0  0  0  0
  1  2  1  0
  1  3  2  0
  2  5  1  0
  4  2  1  0
  5  6  1  0
  7  8  1  0
  7  6  1  0
  9 11  1  0
  9  8  1  0
 10 21  2  0
 11 16  1  0
 12 20  1  0
 12 22  1  0
 13 19  1  0
 13 15  1  0
 14 20  1  0
 15 14  1  0
 16 15  2  0
 17 18  1  0
 17 11  2  0
 18 13  2  0
 19 12  1  0
 20 10  1  0
 22 24  2  0
 23 22  1  0
 25 23  1  0
 26 35  2  0
 26 31  1  0
 27 23  1  0
 27 31  1  0
 28 27  1  0
 29 30  1  0
 29 28  1  0
 30 26  1  0
 31 32  2  0
 32 33  1  0
 34 33  2  0
 35 34  1  0
 36 10  1  0
 36 41  1  0
 36 37  1  0
 37 40  1  1
 37 38  1  0
 39 37  1  0
 41 44  1  0
 42 46  1  0
 42 41  1  0
 43 42  2  0
 46 45  1  0
 48 46  1  0
 48 49  1  0
 48 47  1  0
 50  1  1  0
 51 50  1  0
 51 52  1  0
 52 53  1  0
 53 54  1  0
 54 55  1  0
 56 55  1  0
 56 57  1  0
 58 66  1  0
 59 64  1  0
 60 61  1  0
 60 59  1  0
 62 61  1  0
 62 71  1  0
 62 63  1  0
 64 58  1  0
 64 63  1  0
 65 58  2  0
 66 57  1  0
 66 67  1  0
 68 69  2  0
 69 88  1  0
 70 69  1  0
 70 73  1  0
 71 68  1  0
 71 72  1  0
 72 70  2  0
 73 74  1  0
 74 75  2  0
 76 79  1  0
 76 75  1  0
 77 76  2  0
 78 77  1  0
 78 73  2  0
 79 80  1  0
 80 81  1  0
 81 82  2  0
 83 82  1  0
 83 87  1  0
 84 83  2  0
 85 80  2  0
 85 84  1  0
 86 85  1  0
 88 89  1  0
 89 92  1  0
 89 91  1  0
 90 88  2  0
 93 94  1  0
 93 68  1  0
 95 93  1  0
M  ISO  4   8 101   9 101  58 100  66 100
M  END
>  <TORSDO>  (66) 
F 28

>  <SCORE>  (66) 
-10.914

>  <name>  (66) 
67

>  <ligand_id>  (66) 
67

>  <original_smiles>  (66) 
[H]c1c([H])c([H])c2c(c1[H])C([H])([H])C([H])([H])C([H])([H])C2([H])N([H])C(=O)C1([H])N(C(=O)C([H])(N([H])C(=O)C([H])(N([H])C([H])([H])[H])C([H])([H])[H])C(C([H])([H])[H])(C([H])([H])[H])C([H])([H])[H])C([H])([H])c2c([H])c(OC([H])([H])C([H])([H])C([H])([H])C([H])([H])N([H])C(=O)C([H])([H])C([H])([H])C([H])([H])C([H])([H])C([H])([H])C([H])([H])C([H])([H])C([H])([H])N([H])C(=O)N3C([H])([H])C([H])([H])C([H])([H])C([H])(n4nc(-c5c([H])c([H])c(Oc6c([H])c([H])c(F)c([H])c6F)c([H])c5[H])c(C(=O)N([H])[H])c4N([H])[H])C3([H])[H])c([H])c([H])c2C1([H])[H]

>  <smiles>  (66) 
[H]c1c([H])c([H])c2c(c1[H])C([H])([H])C([H])([H])C([H])([H])C2([H])N([H])C(=O)C1([H])N(C(=O)C([H])(N([H])C(=O)C([H])(N([H])C([H])([H])[H])C([H])([H])[H])C(C([H])([H])[H])(C([H])([H])[H])C([H])([H])[H])C([H])([H])c2c([H])c(OC([H])([H])C([H])([H])C([H])([H])C([H])([H])N([H])C(=O)C([H])([H])C([H])([H])C([H])([H])C([H])([H])C([H])([H])C([H])([H])C([H])([H])C([H])([H])N([H])C(=O)N3C([H])([H])C([H])([H])C([H])([H])C([H])(n4nc(-c5c([H])c([H])c(Oc6c([H])c([H])c(F)c([H])c6F)c([H])c5[H])c(C(=O)N([H])[H])c4N([H])[H])C3([H])[H])c([H])c([H])c2C1([H])[H]

$$$$
68:0:0
     RDKit          3D

 91 98  0  0  1  0  0  0  0  0999 V2000
  -28.4960  -21.8070   20.2590 C   0  0  0  0  0  0  0  0  0  0  0  0
  -28.5380  -22.9880   20.9140 N   0  0  0  0  0  0  0  0  0  0  0  0
  -28.1330  -21.7180   19.0830 O   0  0  0  0  0  0  0  0  0  0  0  0
  -28.9290  -22.9440   21.8470 H   0  0  0  0  0  0  0  0  0  0  0  0
  -28.8320  -20.5240   21.0750 C   0  0  0  0  0  2  0  0  0  0  0  0
  -29.2490  -18.0670   20.6440 C   0  0  0  0  0  0  0  0  0  0  0  0
  -29.4360  -19.3760   20.3520 N   0  0  0  0  0  0  0  0  0  0  0  0
  -28.4070  -17.6930   21.4640 O   0  0  0  0  0  0  0  0  0  0  0  0
  -30.1100  -19.6100   19.6370 H   0  0  0  0  0  0  0  0  0  0  0  0
  -30.1410  -17.0080   19.9510 C   0  0  0  0  0  2  0  0  0  0  0  0
  -30.6560  -14.5430   20.0410 C   0  0  0  0  0  0  0  0  0  0  0  0
  -30.3410  -12.3650   18.9340 C   0  0  0  0  0  2  0  0  0  0  0  0
  -29.3500  -12.5980   17.7740 C   0  0  0  0  0  2  0  0  0  0  0  0
  -27.8950  -12.4590   18.2670 C   0  0  0  0  0  2  0  0  0  0  0  0
  -27.6190  -13.2600   19.5680 C   0  0  0  0  0  3  0  0  0  0  0  0
  -28.7280  -13.0200   20.6180 C   0  0  0  0  0  2  0  0  0  0  0  0
  -30.0150  -13.3420   19.9860 N   0  0  0  0  0  0  0  0  0  0  0  0
  -31.7900  -14.7070   19.5830 O   0  0  0  0  0  0  0  0  0  0  0  0
  -29.8890  -15.6060   20.3700 N   0  0  0  0  0  0  0  0  0  0  0  0
  -28.9790  -15.4270   20.7710 H   0  0  0  0  0  0  0  0  0  0  0  0
  -25.2580  -13.8510   20.3980 C   0  0  0  0  0  0  0  0  0  0  0  0
  -24.2070  -13.0750   20.8070 C   0  0  0  0  0  0  0  0  0  0  0  0
  -24.6660  -11.7240   20.7350 C   0  0  0  0  0  0  0  0  0  0  0  0
  -26.2900  -12.9740   20.1060 N   0  0  0  0  0  0  0  0  0  0  0  0
  -25.9400  -11.6880   20.3650 N   0  0  0  0  0  0  0  0  0  0  0  0
  -23.9480  -10.4590   20.9420 C   0  0  0  0  0  0  0  0  0  0  0  0
  -24.3990   -9.4970   21.8720 C   0  0  0  0  0  3  0  0  0  0  0  0
  -23.6810   -8.2970   22.0670 C   0  0  0  0  0  3  0  0  0  0  0  0
  -22.4980   -8.0490   21.3290 C   0  0  0  0  0  0  0  0  0  0  0  0
  -22.0670   -9.0000   20.3880 C   0  0  0  0  0  3  0  0  0  0  0  0
  -22.7860  -10.1910   20.1930 C   0  0  0  0  0  3  0  0  0  0  0  0
  -21.7520   -6.9000   21.4320 O   0  0  0  0  0  0  0  0  0  0  0  0
  -21.6910   -6.1840   22.6000 C   0  0  0  0  0  0  0  0  0  0  0  0
  -21.2530   -6.7670   23.8090 C   0  0  0  0  0  3  0  0  0  0  0  0
  -21.1400   -5.9740   24.9700 C   0  0  0  0  0  3  0  0  0  0  0  0
  -21.4540   -4.6040   24.9240 C   0  0  0  0  0  0  0  0  0  0  0  0
  -21.8870   -4.0230   23.7190 C   0  0  0  0  0  3  0  0  0  0  0  0
  -22.0020   -4.8110   22.5610 C   0  0  0  0  0  0  0  0  0  0  0  0
  -22.3980   -4.2410   21.3970 F   0  0  0  0  0  0  0  0  0  0  0  0
  -21.3380   -3.8420   26.0360 F   0  0  0  0  0  0  0  0  0  0  0  0
  -22.8260  -13.5510   21.1500 C   0  0  0  0  0  0  0  0  0  0  0  0
  -22.1380  -12.8460   22.0430 N   0  0  0  0  0  0  0  0  0  0  0  0
  -22.3640  -14.5830   20.6640 O   0  0  0  0  0  0  0  0  0  0  0  0
  -22.5230  -12.0130   22.4610 H   0  0  0  0  0  0  0  0  0  0  0  0
  -21.2130  -13.1480   22.3150 H   0  0  0  0  0  0  0  0  0  0  0  0
  -25.4140  -15.2240   20.2320 N   0  0  0  0  0  0  0  0  0  0  0  0
  -24.6560  -15.8770   20.3890 H   0  0  0  0  0  0  0  0  0  0  0  0
  -26.2530  -15.6700   19.8860 H   0  0  0  0  0  0  0  0  0  0  0  0
  -27.8310  -24.2590   20.6120 C   0  0  0  0  0  2  0  0  0  0  0  0
  -28.5580  -25.3200   19.7270 C   0  0  0  0  0  2  0  0  0  0  0  0
  -28.4480  -26.6950   20.1850 O   0  0  0  0  0  0  0  0  0  0  0  0
  -24.6030  -31.8790   23.2260 C   0  0  0  0  0  0  0  0  0  0  0  0
  -27.2540  -27.4030   20.1490 C   0  0  0  0  0  0  0  0  0  0  0  0
  -23.3970  -30.4710   21.5870 C   0  0  0  0  0  3  0  0  0  0  0  0
  -24.8510  -28.9220   20.1670 C   0  0  0  0  0  0  0  0  0  0  0  0
  -25.9240  -30.8230   21.3880 C   0  0  0  0  0  2  0  0  0  0  0  0
  -26.0090  -29.4460   20.7540 C   0  0  0  0  0  0  0  0  0  0  0  0
  -27.2080  -28.6930   20.7410 C   0  0  0  0  0  3  0  0  0  0  0  0
  -26.0770  -26.9040   19.5490 C   0  0  0  0  0  3  0  0  0  0  0  0
  -24.8810  -27.6510   19.5650 C   0  0  0  0  0  3  0  0  0  0  0  0
  -23.6060  -29.7810   20.2110 C   0  0  0  0  0  2  0  0  0  0  0  0
  -24.6600  -31.0740   22.1250 N   0  0  0  0  0  0  0  0  0  0  0  0
  -23.5190  -32.1530   23.7650 O   0  0  0  0  0  0  0  0  0  0  0  0
  -22.7440  -29.4580   22.5530 C   0  0  0  0  0  0  0  0  0  0  0  0
  -21.4220  -29.2630   22.4170 N   0  0  0  0  0  0  0  0  0  0  0  0
  -23.4250  -28.8460   23.3800 O   0  0  0  0  0  0  0  0  0  0  0  0
  -20.9340  -29.8020   21.7150 H   0  0  0  0  0  0  0  0  0  0  0  0
  -18.0620  -28.0210   22.8780 C   0  0  0  0  0  0  0  0  0  0  0  0
  -20.6090  -28.3250   23.1890 C   0  0  0  0  0  3  0  0  0  0  0  0
  -20.7450  -26.8880   22.6360 C   0  0  0  0  0  2  0  0  0  0  0  0
  -19.6680  -26.5310   21.6080 C   0  0  0  0  0  2  0  0  0  0  0  0
  -18.2720  -26.6650   22.2250 C   0  0  0  0  0  2  0  0  0  0  0  0
  -19.1610  -28.8070   23.3160 C   0  0  0  0  0  0  0  0  0  0  0  0
  -18.9130  -30.0750   23.8850 C   0  0  0  0  0  3  0  0  0  0  0  0
  -17.5990  -30.5580   24.0230 C   0  0  0  0  0  3  0  0  0  0  0  0
  -16.5130  -29.7700   23.6020 C   0  0  0  0  0  3  0  0  0  0  0  0
  -16.7460  -28.5030   23.0350 C   0  0  0  0  0  3  0  0  0  0  0  0
  -25.8870  -32.5140   23.8440 C   0  0  0  0  0  3  0  0  0  0  0  0
  -25.5770  -33.9120   24.1720 N   0  0  0  0  0  0  0  0  0  0  0  0
  -25.9100  -34.9650   23.4130 C   0  0  0  0  0  0  0  0  0  0  0  0
  -26.5820  -34.8610   22.3830 O   0  0  0  0  0  0  0  0  0  0  0  0
  -24.9820  -34.0670   24.9730 H   0  0  0  0  0  0  0  0  0  0  0  0
  -24.1820  -36.7560   23.0520 C   0  0  0  0  0  1  0  0  0  0  0  0
  -25.4200  -36.3530   23.8680 C   0  0  0  0  0  3  0  0  0  0  0  0
  -27.5520  -37.2400   24.7040 C   0  0  0  0  0  1  0  0  0  0  0  0
  -26.4520  -37.4070   23.7570 N   0  0  0  0  0  0  0  0  0  0  0  0
  -26.0440  -38.3260   23.9030 H   0  0  0  0  0  0  0  0  0  0  0  0
  -26.4090  -31.7450   25.1190 C   0  0  1  0  0  0  0  0  0  0  0  0
  -25.3220  -31.5040   26.1930 C   0  0  0  0  0  1  0  0  0  0  0  0
  -26.9940  -30.3690   24.7240 C   0  0  0  0  0  1  0  0  0  0  0  0
  -27.5580  -32.5440   25.7780 C   0  0  0  0  0  1  0  0  0  0  0  0
  1  2  1  0
  1  5  1  0
  2  4  1  0
  3  1  2  0
  6  8  2  0
  7  6  1  0
  7  5  1  0
  9  7  1  0
 10 19  1  0
 10  6  1  0
 11 19  1  0
 12 17  1  0
 13 14  1  0
 13 12  1  0
 15 14  1  0
 15 24  1  0
 15 16  1  0
 17 11  1  0
 17 16  1  0
 18 11  2  0
 19 20  1  0
 21 22  2  0
 22 41  1  0
 23 22  1  0
 23 26  1  0
 24 25  1  0
 24 21  1  0
 25 23  2  0
 26 27  1  0
 27 28  2  0
 29 32  1  0
 29 28  1  0
 30 29  2  0
 31 30  1  0
 31 26  2  0
 32 33  1  0
 33 34  1  0
 34 35  2  0
 36 35  1  0
 36 40  1  0
 37 36  2  0
 38 33  2  0
 38 37  1  0
 39 38  1  0
 41 42  1  0
 42 45  1  0
 42 44  1  0
 43 41  2  0
 46 47  1  0
 46 21  1  0
 48 46  1  0
 49  2  1  0
 50 51  1  0
 50 49  1  0
 52 63  2  0
 53 51  1  0
 53 58  1  0
 54 62  1  0
 54 64  1  0
 55 61  1  0
 55 57  1  0
 56 62  1  0
 57 56  1  0
 58 57  2  0
 59 60  1  0
 59 53  2  0
 60 55  2  0
 61 54  1  0
 62 52  1  0
 64 66  2  0
 65 64  1  0
 67 65  1  0
 68 77  2  0
 68 73  1  0
 69 65  1  0
 69 73  1  0
 70 69  1  0
 71 72  1  0
 71 70  1  0
 72 68  1  0
 73 74  2  0
 74 75  1  0
 76 75  2  0
 77 76  1  0
 78 52  1  0
 78 79  1  0
 78 88  1  0
 79 82  1  0
 80 84  1  0
 80 79  1  0
 81 80  2  0
 84 83  1  0
 86 84  1  0
 86 87  1  0
 86 85  1  0
 88 91  1  1
 88 89  1  0
 90 88  1  0
M  ISO  4  11 100  19 100  50 101  51 101
M  END
>  <TORSDO>  (67) 
F 21

>  <SCORE>  (67) 
-12.796

>  <name>  (67) 
68

>  <ligand_id>  (67) 
68

>  <original_smiles>  (67) 
[H]c1c([H])c([H])c2c(c1[H])C([H])([H])C([H])([H])C([H])([H])C2([H])N([H])C(=O)C1([H])N(C(=O)C([H])(N([H])C(=O)C([H])(N([H])C([H])([H])[H])C([H])([H])[H])C(C([H])([H])[H])(C([H])([H])[H])C([H])([H])[H])C([H])([H])c2c([H])c(OC([H])([H])C([H])([H])N([H])C(=O)C([H])([H])N([H])C(=O)C([H])([H])N([H])C(=O)N3C([H])([H])C([H])([H])C([H])([H])C([H])(n4nc(-c5c([H])c([H])c(Oc6c([H])c([H])c(F)c([H])c6F)c([H])c5[H])c(C(=O)N([H])[H])c4N([H])[H])C3([H])[H])c([H])c([H])c2C1([H])[H]

>  <smiles>  (67) 
[H]c1c([H])c([H])c2c(c1[H])C([H])([H])C([H])([H])C([H])([H])C2([H])N([H])C(=O)C1([H])N(C(=O)C([H])(N([H])C(=O)C([H])(N([H])C([H])([H])[H])C([H])([H])[H])C(C([H])([H])[H])(C([H])([H])[H])C([H])([H])[H])C([H])([H])c2c([H])c(OC([H])([H])C([H])([H])N([H])C(=O)C([H])([H])N([H])C(=O)C([H])([H])N([H])C(=O)N3C([H])([H])C([H])([H])C([H])([H])C([H])(n4nc(-c5c([H])c([H])c(Oc6c([H])c([H])c(F)c([H])c6F)c([H])c5[H])c(C(=O)N([H])[H])c4N([H])[H])C3([H])[H])c([H])c([H])c2C1([H])[H]

$$$$
69:0:0
     RDKit          3D

 96103  0  0  1  0  0  0  0  0999 V2000
  -25.6440  -23.3310   19.2660 C   0  0  0  0  0  2  0  0  0  0  0  0
  -26.1330  -20.9070   19.3370 C   0  0  0  0  0  0  0  0  0  0  0  0
  -25.3390  -21.9310   19.0000 N   0  0  0  0  0  0  0  0  0  0  0  0
  -27.1700  -21.0520   19.9860 O   0  0  0  0  0  0  0  0  0  0  0  0
  -24.4820  -21.7250   18.5010 H   0  0  0  0  0  0  0  0  0  0  0  0
  -25.7190  -19.5220   18.8440 C   0  0  0  0  0  2  0  0  0  0  0  0
  -26.5880  -18.3800   19.4120 C   0  0  0  0  0  2  0  0  0  0  0  0
  -27.8530  -18.0630   18.5960 C   0  0  0  0  0  2  0  0  0  0  0  0
  -29.0670  -17.7060   19.4710 C   0  0  0  0  0  2  0  0  0  0  0  0
  -30.0550  -16.8110   18.7180 C   0  0  0  0  0  2  0  0  0  0  0  0
  -31.3620  -16.5510   19.4800 C   0  0  0  0  0  2  0  0  0  0  0  0
  -32.8020  -14.5170   19.5240 C   0  0  0  0  0  0  0  0  0  0  0  0
  -32.6940  -12.1260   20.0590 C   0  0  0  0  0  2  0  0  0  0  0  0
  -31.8400  -11.4230   18.9840 C   0  0  0  0  0  2  0  0  0  0  0  0
  -30.3480  -11.4490   19.3770 C   0  0  0  0  0  2  0  0  0  0  0  0
  -29.8650  -12.8650   19.7960 C   0  0  0  0  0  3  0  0  0  0  0  0
  -30.8530  -13.5070   20.7940 C   0  0  0  0  0  2  0  0  0  0  0  0
  -32.1900  -13.5000   20.1820 N   0  0  0  0  0  0  0  0  0  0  0  0
  -33.9610  -14.4590   19.1160 O   0  0  0  0  0  0  0  0  0  0  0  0
  -31.9940  -15.3750   18.9020 N   0  0  0  0  0  0  0  0  0  0  0  0
  -32.3910  -15.6000   18.0020 H   0  0  0  0  0  0  0  0  0  0  0  0
  -27.6880  -13.8880   20.7110 C   0  0  0  0  0  0  0  0  0  0  0  0
  -26.4900  -13.3280   21.0620 C   0  0  0  0  0  0  0  0  0  0  0  0
  -26.6360  -11.9240   20.8480 C   0  0  0  0  0  0  0  0  0  0  0  0
  -28.5020  -12.8350   20.3220 N   0  0  0  0  0  0  0  0  0  0  0  0
  -27.8710  -11.6410   20.4550 N   0  0  0  0  0  0  0  0  0  0  0  0
  -25.6540  -10.8360   20.9350 C   0  0  0  0  0  0  0  0  0  0  0  0
  -25.7550   -9.8310   21.9210 C   0  0  0  0  0  3  0  0  0  0  0  0
  -24.7910   -8.8020   21.9950 C   0  0  0  0  0  3  0  0  0  0  0  0
  -23.7120   -8.7750   21.0800 C   0  0  0  0  0  0  0  0  0  0  0  0
  -23.6280   -9.7670   20.0860 C   0  0  0  0  0  3  0  0  0  0  0  0
  -24.5910  -10.7860   20.0110 C   0  0  0  0  0  3  0  0  0  0  0  0
  -22.7410   -7.8040   21.0610 O   0  0  0  0  0  0  0  0  0  0  0  0
  -22.2200   -7.2830   22.2180 C   0  0  0  0  0  0  0  0  0  0  0  0
  -21.5190   -8.0850   23.1470 C   0  0  0  0  0  3  0  0  0  0  0  0
  -20.9400   -7.4950   24.2890 C   0  0  0  0  0  3  0  0  0  0  0  0
  -21.0520   -6.1070   24.4980 C   0  0  0  0  0  0  0  0  0  0  0  0
  -21.7450   -5.3080   23.5730 C   0  0  0  0  0  3  0  0  0  0  0  0
  -22.3250   -5.8940   22.4330 C   0  0  0  0  0  0  0  0  0  0  0  0
  -22.9720   -5.1170   21.5330 F   0  0  0  0  0  0  0  0  0  0  0  0
  -20.4890   -5.5390   25.5900 F   0  0  0  0  0  0  0  0  0  0  0  0
  -25.2490  -14.0630   21.4800 C   0  0  0  0  0  0  0  0  0  0  0  0
  -24.4400  -13.4560   22.3400 N   0  0  0  0  0  0  0  0  0  0  0  0
  -25.0100  -15.2000   21.0780 O   0  0  0  0  0  0  0  0  0  0  0  0
  -24.6450  -12.5310   22.6840 H   0  0  0  0  0  0  0  0  0  0  0  0
  -23.6060  -13.9290   22.6580 H   0  0  0  0  0  0  0  0  0  0  0  0
  -28.1450  -15.2000   20.6770 N   0  0  0  0  0  0  0  0  0  0  0  0
  -27.5630  -15.9870   20.9360 H   0  0  0  0  0  0  0  0  0  0  0  0
  -29.0760  -15.4650   20.3810 H   0  0  0  0  0  0  0  0  0  0  0  0
  -26.7450  -23.8610   18.3230 C   0  0  0  0  0  2  0  0  0  0  0  0
  -28.6080  -25.4940   18.5090 C   0  0  0  0  0  0  0  0  0  0  0  0
  -27.5500  -24.8570   19.0120 N   0  0  0  0  0  0  0  0  0  0  0  0
  -28.9960  -25.3430   17.3500 O   0  0  0  0  0  0  0  0  0  0  0  0
  -27.3040  -25.0640   19.9710 H   0  0  0  0  0  0  0  0  0  0  0  0
  -29.3170  -26.4650   19.4600 C   0  0  0  0  0  2  0  0  0  0  0  0
  -29.0050  -27.8120   19.1120 O   0  0  0  0  0  0  0  0  0  0  0  0
  -25.0580  -31.0090   24.1040 C   0  0  0  0  0  0  0  0  0  0  0  0
  -27.7690  -28.2580   19.5030 C   0  0  0  0  0  0  0  0  0  0  0  0
  -23.8180  -30.0620   22.1840 C   0  0  0  0  0  3  0  0  0  0  0  0
  -25.2420  -29.2850   20.2190 C   0  0  0  0  0  0  0  0  0  0  0  0
  -26.2440  -30.8190   21.9220 C   0  0  0  0  0  2  0  0  0  0  0  0
  -26.3970  -29.7520   20.8610 C   0  0  0  0  0  0  0  0  0  0  0  0
  -27.6630  -29.2410   20.5100 C   0  0  0  0  0  3  0  0  0  0  0  0
  -26.6020  -27.7960   18.8600 C   0  0  0  0  0  3  0  0  0  0  0  0
  -25.3370  -28.2980   19.2200 C   0  0  0  0  0  3  0  0  0  0  0  0
  -23.9280  -29.9000   20.6440 C   0  0  0  0  0  2  0  0  0  0  0  0
  -25.0640  -30.6270   22.7960 N   0  0  0  0  0  0  0  0  0  0  0  0
  -24.0270  -30.9400   24.7880 O   0  0  0  0  0  0  0  0  0  0  0  0
  -23.3970  -28.7050   22.7900 C   0  0  0  0  0  0  0  0  0  0  0  0
  -22.2920  -28.1410   22.2790 N   0  0  0  0  0  0  0  0  0  0  0  0
  -24.0730  -28.1690   23.6740 O   0  0  0  0  0  0  0  0  0  0  0  0
  -21.7910  -28.6470   21.5620 H   0  0  0  0  0  0  0  0  0  0  0  0
  -19.9450  -25.5790   21.2930 C   0  0  0  0  0  0  0  0  0  0  0  0
  -21.7310  -26.8470   22.6630 C   0  0  0  0  0  3  0  0  0  0  0  0
  -22.6890  -25.6910   22.2950 C   0  0  0  0  0  2  0  0  0  0  0  0
  -22.4010  -25.0740   20.9210 C   0  0  0  0  0  2  0  0  0  0  0  0
  -20.9660  -24.5380   20.8670 C   0  0  0  0  0  2  0  0  0  0  0  0
  -20.3070  -26.6710   22.1240 C   0  0  0  0  0  0  0  0  0  0  0  0
  -19.3290  -27.6280   22.4650 C   0  0  0  0  0  3  0  0  0  0  0  0
  -18.0090  -27.5070   21.9960 C   0  0  0  0  0  3  0  0  0  0  0  0
  -17.6500  -26.4170   21.1840 C   0  0  0  0  0  3  0  0  0  0  0  0
  -18.6160  -25.4520   20.8370 C   0  0  0  0  0  3  0  0  0  0  0  0
  -26.3390  -31.5710   24.7950 C   0  0  0  0  0  3  0  0  0  0  0  0
  -26.7690  -30.7530   26.0730 C   0  0  1  0  0  0  0  0  0  0  0  0
  -25.6080  -30.4880   27.0600 C   0  0  0  0  0  1  0  0  0  0  0  0
  -27.3680  -29.3850   25.6700 C   0  0  0  0  0  1  0  0  0  0  0  0
  -27.8790  -31.5140   26.8380 C   0  0  0  0  0  1  0  0  0  0  0  0
  -26.0740  -32.9750   25.1380 N   0  0  0  0  0  0  0  0  0  0  0  0
  -26.5250  -34.0250   24.4380 C   0  0  0  0  0  0  0  0  0  0  0  0
  -27.2760  -33.9100   23.4660 O   0  0  0  0  0  0  0  0  0  0  0  0
  -25.4270  -33.1460   25.8930 H   0  0  0  0  0  0  0  0  0  0  0  0
  -24.9440  -35.9220   23.9660 C   0  0  0  0  0  1  0  0  0  0  0  0
  -26.0680  -35.4250   24.8890 C   0  0  0  0  0  3  0  0  0  0  0  0
  -28.1570  -36.1490   25.9570 C   0  0  0  0  0  1  0  0  0  0  0  0
  -27.1620  -36.4180   24.9210 N   0  0  0  0  0  0  0  0  0  0  0  0
  -26.7950  -37.3530   25.0720 H   0  0  0  0  0  0  0  0  0  0  0  0
  2  4  2  0
  3  1  1  0
  3  2  1  0
  5  3  1  0
  6  2  1  0
  6  7  1  0
  8  7  1  0
  8  9  1  0
 10  9  1  0
 10 11  1  0
 12 18  1  0
 13 18  1  0
 14 15  1  0
 14 13  1  0
 16 15  1  0
 16 25  1  0
 16 17  1  0
 18 17  1  0
 19 12  2  0
 20 11  1  0
 20 12  1  0
 21 20  1  0
 22 23  2  0
 23 42  1  0
 24 27  1  0
 24 23  1  0
 25 26  1  0
 25 22  1  0
 26 24  2  0
 27 28  1  0
 28 29  2  0
 30 29  1  0
 31 30  2  0
 32 31  1  0
 32 27  2  0
 33 30  1  0
 33 34  1  0
 34 39  2  0
 34 35  1  0
 35 36  2  0
 36 37  1  0
 37 41  1  0
 38 37  2  0
 39 38  1  0
 40 39  1  0
 42 43  1  0
 43 46  1  0
 43 45  1  0
 44 42  2  0
 47 22  1  0
 47 48  1  0
 49 47  1  0
 50 52  1  0
 50  1  1  0
 51 52  1  0
 51 55  1  0
 52 54  1  0
 53 51  2  0
 56 55  1  0
 56 58  1  0
 57 68  2  0
 58 63  1  0
 59 69  1  0
 59 67  1  0
 60 66  1  0
 60 62  1  0
 61 67  1  0
 62 61  1  0
 63 62  2  0
 64 65  1  0
 64 58  2  0
 65 60  2  0
 66 59  1  0
 67 57  1  0
 69 71  2  0
 70 69  1  0
 72 70  1  0
 73 78  1  0
 74 70  1  0
 75 74  1  0
 76 75  1  0
 77 76  1  0
 77 73  1  0
 78 79  2  0
 78 74  1  0
 80 79  1  0
 81 80  2  0
 82 81  1  0
 82 73  2  0
 83 57  1  0
 83 88  1  0
 83 84  1  0
 84 87  1  1
 84 85  1  0
 86 84  1  0
 88 91  1  0
 89 93  1  0
 89 88  1  0
 90 89  2  0
 93 92  1  0
 93 95  1  0
 95 96  1  0
 95 94  1  0
M  ISO  4  12 100  20 100  55 101  56 101
M  END
>  <TORSDO>  (68) 
F 26

>  <SCORE>  (68) 
-5.934

>  <name>  (68) 
69

>  <ligand_id>  (68) 
69

>  <original_smiles>  (68) 
[H]c1c([H])c([H])c2c(c1[H])C([H])([H])C([H])([H])C([H])([H])C2([H])N([H])C(=O)C1([H])N(C(=O)C([H])(N([H])C(=O)C([H])(N([H])C([H])([H])[H])C([H])([H])[H])C(C([H])([H])[H])(C([H])([H])[H])C([H])([H])[H])C([H])([H])c2c([H])c(OC([H])([H])C(=O)N([H])C([H])([H])C([H])([H])N([H])C(=O)C([H])([H])C([H])([H])C([H])([H])C([H])([H])C([H])([H])C([H])([H])N([H])C(=O)N3C([H])([H])C([H])([H])C([H])([H])C([H])(n4nc(-c5c([H])c([H])c(Oc6c([H])c([H])c(F)c([H])c6F)c([H])c5[H])c(C(=O)N([H])[H])c4N([H])[H])C3([H])[H])c([H])c([H])c2C1([H])[H]

>  <smiles>  (68) 
[H]c1c([H])c([H])c2c(c1[H])C([H])([H])C([H])([H])C([H])([H])C2([H])N([H])C(=O)C1([H])N(C(=O)C([H])(N([H])C(=O)C([H])(N([H])C([H])([H])[H])C([H])([H])[H])C(C([H])([H])[H])(C([H])([H])[H])C([H])([H])[H])C([H])([H])c2c([H])c(OC([H])([H])C(=O)N([H])C([H])([H])C([H])([H])N([H])C(=O)C([H])([H])C([H])([H])C([H])([H])C([H])([H])C([H])([H])C([H])([H])N([H])C(=O)N3C([H])([H])C([H])([H])C([H])([H])C([H])(n4nc(-c5c([H])c([H])c(Oc6c([H])c([H])c(F)c([H])c6F)c([H])c5[H])c(C(=O)N([H])[H])c4N([H])[H])C3([H])[H])c([H])c([H])c2C1([H])[H]

$$$$
70:0:0
     RDKit          3D

 95103  0  0  1  0  0  0  0  0999 V2000
  -28.8430  -23.0560   21.2840 C   0  0  0  0  0  3  0  0  0  0  0  0
  -29.4910  -21.7440   20.7630 C   0  0  0  0  0  3  0  0  0  0  0  0
  -29.2430  -20.4860   21.6460 C   0  0  0  0  0  2  0  0  0  0  0  0
  -29.6950  -18.0410   21.0730 C   0  0  0  0  0  0  0  0  0  0  0  0
  -30.0290  -19.3430   21.1630 N   0  0  0  0  0  0  0  0  0  0  0  0
  -28.6390  -17.5860   21.5170 O   0  0  0  0  0  0  0  0  0  0  0  0
  -30.9400  -19.5720   20.7890 H   0  0  0  0  0  0  0  0  0  0  0  0
  -30.8440  -14.6630   20.1020 C   0  0  0  0  0  0  0  0  0  0  0  0
  -30.5050  -12.4540   19.0890 C   0  0  0  0  0  2  0  0  0  0  0  0
  -29.5350  -12.5560   17.8950 C   0  0  0  0  0  2  0  0  0  0  0  0
  -28.0730  -12.4540   18.3690 C   0  0  0  0  0  2  0  0  0  0  0  0
  -27.7500  -13.3310   19.6120 C   0  0  0  0  0  3  0  0  0  0  0  0
  -28.8460  -13.2300   20.6940 C   0  0  0  0  0  2  0  0  0  0  0  0
  -30.1320  -13.5040   20.0460 N   0  0  0  0  0  0  0  0  0  0  0  0
  -32.0660  -14.6860   19.9590 O   0  0  0  0  0  0  0  0  0  0  0  0
  -30.1550  -17.4860   18.0620 C   0  0  0  0  0  2  0  0  0  0  0  0
  -31.2560  -17.7990   19.0500 C   0  0  0  0  0  2  0  0  0  0  0  0
  -29.8460  -16.0330   18.4190 C   0  0  0  0  0  2  0  0  0  0  0  0
  -30.7100  -17.1330   20.3260 C   0  0  0  0  0  3  0  0  0  0  0  0
  -30.1680  -15.8220   19.8560 N   0  0  0  0  0  0  0  0  0  0  0  0
  -25.3730  -13.9160   20.3840 C   0  0  0  0  0  0  0  0  0  0  0  0
  -24.3200  -13.1320   20.7690 C   0  0  0  0  0  0  0  0  0  0  0  0
  -24.7970  -11.7860   20.7390 C   0  0  0  0  0  0  0  0  0  0  0  0
  -26.4220  -13.0430   20.1390 N   0  0  0  0  0  0  0  0  0  0  0  0
  -26.0830  -11.7590   20.4170 N   0  0  0  0  0  0  0  0  0  0  0  0
  -24.0900  -10.5160   20.9430 C   0  0  0  0  0  0  0  0  0  0  0  0
  -24.5230   -9.5760   21.9030 C   0  0  0  0  0  3  0  0  0  0  0  0
  -23.8170   -8.3710   22.0940 C   0  0  0  0  0  3  0  0  0  0  0  0
  -22.6610   -8.0960   21.3240 C   0  0  0  0  0  0  0  0  0  0  0  0
  -22.2490   -9.0240   20.3520 C   0  0  0  0  0  3  0  0  0  0  0  0
  -22.9560  -10.2220   20.1590 C   0  0  0  0  0  3  0  0  0  0  0  0
  -21.9250   -6.9410   21.4250 O   0  0  0  0  0  0  0  0  0  0  0  0
  -21.8250   -6.2510   22.6070 C   0  0  0  0  0  0  0  0  0  0  0  0
  -21.3210   -6.8530   23.7800 C   0  0  0  0  0  3  0  0  0  0  0  0
  -21.1720   -6.0880   24.9540 C   0  0  0  0  0  3  0  0  0  0  0  0
  -21.5170   -4.7230   24.9550 C   0  0  0  0  0  0  0  0  0  0  0  0
  -22.0150   -4.1210   23.7860 C   0  0  0  0  0  3  0  0  0  0  0  0
  -22.1660   -4.8840   22.6140 C   0  0  0  0  0  0  0  0  0  0  0  0
  -22.6270   -4.2940   21.4840 F   0  0  0  0  0  0  0  0  0  0  0  0
  -21.3660   -3.9860   26.0800 F   0  0  0  0  0  0  0  0  0  0  0  0
  -22.9220  -13.5940   21.0580 C   0  0  0  0  0  0  0  0  0  0  0  0
  -22.2170  -12.8970   21.9420 N   0  0  0  0  0  0  0  0  0  0  0  0
  -22.4630  -14.6100   20.5360 O   0  0  0  0  0  0  0  0  0  0  0  0
  -22.6000  -12.0760   22.3860 H   0  0  0  0  0  0  0  0  0  0  0  0
  -21.2800  -13.1900   22.1790 H   0  0  0  0  0  0  0  0  0  0  0  0
  -25.5240  -15.2870   20.2010 N   0  0  0  0  0  0  0  0  0  0  0  0
  -24.7700  -15.9440   20.3630 H   0  0  0  0  0  0  0  0  0  0  0  0
  -26.3980  -15.7410   19.9640 H   0  0  0  0  0  0  0  0  0  0  0  0
  -28.9990  -24.3210   20.3730 C   0  0  0  0  0  3  0  0  0  0  0  0
  -30.4190  -24.6310   20.1000 N   0  0  0  0  0  4  0  0  0  0  0  0
  -30.9360  -24.8000   20.9460 H   0  0  0  0  0  0  0  0  0  0  0  0
  -30.4750  -25.4650   19.5380 H   0  0  0  0  0  0  0  0  0  0  0  0
  -30.8670  -23.8910   19.5890 H   0  0  0  0  0  0  0  0  0  0  0  0
  -28.3050  -25.5710   20.9780 C   0  0  0  0  0  2  0  0  0  0  0  0
  -28.4060  -26.7380   20.1340 O   0  0  0  0  0  0  0  0  0  0  0  0
  -24.6210  -31.9240   23.2270 C   0  0  0  0  0  0  0  0  0  0  0  0
  -27.2630  -27.5050   20.1200 C   0  0  0  0  0  0  0  0  0  0  0  0
  -23.4100  -30.5160   21.5930 C   0  0  0  0  0  3  0  0  0  0  0  0
  -24.8620  -28.9960   20.1480 C   0  0  0  0  0  0  0  0  0  0  0  0
  -25.9290  -30.8980   21.3690 C   0  0  0  0  0  2  0  0  0  0  0  0
  -26.0220  -29.5300   20.7240 C   0  0  0  0  0  0  0  0  0  0  0  0
  -27.2290  -28.7930   20.7050 C   0  0  0  0  0  3  0  0  0  0  0  0
  -26.0910  -26.9910   19.5270 C   0  0  0  0  0  3  0  0  0  0  0  0
  -24.8910  -27.7270   19.5430 C   0  0  0  0  0  3  0  0  0  0  0  0
  -23.6090  -29.8430   20.2100 C   0  0  0  0  0  2  0  0  0  0  0  0
  -24.6730  -31.1270   22.1210 N   0  0  0  0  0  0  0  0  0  0  0  0
  -23.5440  -32.1860   23.7800 O   0  0  0  0  0  0  0  0  0  0  0  0
  -22.7760  -29.4880   22.5580 C   0  0  0  0  0  0  0  0  0  0  0  0
  -21.4520  -29.2920   22.4410 N   0  0  0  0  0  0  0  0  0  0  0  0
  -23.4720  -28.8680   23.3660 O   0  0  0  0  0  0  0  0  0  0  0  0
  -20.9510  -29.8450   21.7590 H   0  0  0  0  0  0  0  0  0  0  0  0
  -18.0950  -28.0610   22.9570 C   0  0  0  0  0  0  0  0  0  0  0  0
  -20.6510  -28.3460   23.2150 C   0  0  0  0  0  3  0  0  0  0  0  0
  -20.7660  -26.9160   22.6380 C   0  0  0  0  0  2  0  0  0  0  0  0
  -19.6620  -26.5820   21.6290 C   0  0  0  0  0  2  0  0  0  0  0  0
  -18.2820  -26.7130   22.2810 C   0  0  0  0  0  2  0  0  0  0  0  0
  -19.2080  -28.8350   23.3810 C   0  0  0  0  0  0  0  0  0  0  0  0
  -18.9790  -30.0970   23.9710 C   0  0  0  0  0  3  0  0  0  0  0  0
  -17.6700  -30.5850   24.1430 C   0  0  0  0  0  3  0  0  0  0  0  0
  -16.5730  -29.8090   23.7350 C   0  0  0  0  0  3  0  0  0  0  0  0
  -16.7850  -28.5490   23.1480 C   0  0  0  0  0  3  0  0  0  0  0  0
  -25.9100  -32.5630   23.8360 C   0  0  0  0  0  3  0  0  0  0  0  0
  -25.5980  -33.9600   24.1600 N   0  0  0  0  0  0  0  0  0  0  0  0
  -25.9330  -35.0110   23.3980 C   0  0  0  0  0  0  0  0  0  0  0  0
  -26.6080  -34.9040   22.3700 O   0  0  0  0  0  0  0  0  0  0  0  0
  -25.0000  -34.1180   24.9570 H   0  0  0  0  0  0  0  0  0  0  0  0
  -24.2110  -36.8040   23.0200 C   0  0  0  0  0  1  0  0  0  0  0  0
  -25.4410  -36.4000   23.8480 C   0  0  0  0  0  3  0  0  0  0  0  0
  -27.5670  -37.2810   24.7060 C   0  0  0  0  0  1  0  0  0  0  0  0
  -26.4770  -37.4510   23.7490 N   0  0  0  0  0  0  0  0  0  0  0  0
  -26.0700  -38.3720   23.8920 H   0  0  0  0  0  0  0  0  0  0  0  0
  -26.4420  -31.7970   25.1090 C   0  0  1  0  0  0  0  0  0  0  0  0
  -25.3580  -31.5590   26.1870 C   0  0  0  0  0  1  0  0  0  0  0  0
  -27.0280  -30.4220   24.7140 C   0  0  0  0  0  1  0  0  0  0  0  0
  -27.5930  -32.6000   25.7590 C   0  0  0  0  0  1  0  0  0  0  0  0
  2  1  2  0
  2  3  1  0
  4  5  1  0
  4  6  2  0
  5  3  1  0
  7  5  1  0
  9 14  1  0
 10 11  1  0
 10  9  1  0
 12 11  1  0
 12 24  1  0
 12 13  1  0
 14  8  1  0
 14 13  1  0
 15  8  2  0
 16 18  1  0
 16 17  1  0
 17 19  1  0
 18 20  1  0
 19  4  1  0
 20  8  1  0
 20 19  1  0
 21 22  2  0
 22 41  1  0
 23 22  1  0
 23 26  1  0
 24 21  1  0
 24 25  1  0
 25 23  2  0
 26 27  1  0
 27 28  2  0
 29 32  1  0
 29 28  1  0
 30 29  2  0
 31 30  1  0
 31 26  2  0
 32 33  1  0
 33 38  2  0
 33 34  1  0
 34 35  2  0
 35 36  1  0
 36 40  1  0
 37 36  2  0
 38 37  1  0
 39 38  1  0
 41 42  1  0
 42 45  1  0
 42 44  1  0
 43 41  2  0
 46 47  1  0
 46 21  1  0
 48 46  1  0
 49 54  1  0
 49  1  1  0
 50 49  1  0
 50 51  1  0
 52 50  1  0
 53 50  1  0
 55 54  1  0
 56 67  2  0
 57 55  1  0
 57 62  1  0
 58 66  1  0
 58 68  1  0
 59 65  1  0
 59 61  1  0
 60 66  1  0
 61 60  1  0
 62 61  2  0
 63 64  1  0
 63 57  2  0
 64 59  2  0
 65 58  1  0
 66 56  1  0
 68 70  2  0
 69 68  1  0
 71 69  1  0
 72 81  2  0
 72 77  1  0
 73 69  1  0
 73 77  1  0
 74 73  1  0
 75 76  1  0
 75 74  1  0
 76 72  1  0
 77 78  2  0
 78 79  1  0
 80 79  2  0
 81 80  1  0
 82 56  1  0
 82 83  1  0
 82 92  1  0
 83 86  1  0
 84 88  1  0
 84 83  1  0
 85 84  2  0
 88 87  1  0
 90 88  1  0
 90 91  1  0
 90 89  1  0
 92 95  1  1
 92 93  1  0
 94 92  1  0
M  ISO  4   8 100  20 100  54 101  55 101
M  END
>  <TORSDO>  (69) 
F 22

>  <SCORE>  (69) 
-12.082

>  <name>  (69) 
70

>  <ligand_id>  (69) 
70

>  <original_smiles>  (69) 
[H]c1c([H])c([H])c2c(c1[H])C([H])([H])C([H])([H])C([H])([H])C2([H])N([H])C(=O)C1([H])N(C(=O)C([H])(N([H])C(=O)C([H])(N([H])C([H])([H])[H])C([H])([H])[H])C(C([H])([H])[H])(C([H])([H])[H])C([H])([H])[H])C([H])([H])c2c([H])c(OC([H])([H])C([H])(C([H])([H])C([H])([H])C([H])([H])N([H])C(=O)C3([H])N(C(=O)N4C([H])([H])C([H])([H])C([H])([H])C([H])(n5nc(-c6c([H])c([H])c(Oc7c([H])c([H])c(F)c([H])c7F)c([H])c6[H])c(C(=O)N([H])[H])c5N([H])[H])C4([H])[H])C([H])([H])C([H])([H])C3([H])[H])[N+]([H])([H])[H])c([H])c([H])c2C1([H])[H]

>  <smiles>  (69) 
[H]c1c([H])c([H])c2c(c1[H])C([H])([H])C([H])([H])C([H])([H])C2([H])N([H])C(=O)C1([H])N(C(=O)C([H])(N([H])C(=O)C([H])(N([H])C([H])([H])[H])C([H])([H])[H])C(C([H])([H])[H])(C([H])([H])[H])C([H])([H])[H])C([H])([H])c2c([H])c(OC([H])([H])C([H])(C([H])([H])C([H])([H])C([H])([H])N([H])C(=O)C3([H])N(C(=O)N4C([H])([H])C([H])([H])C([H])([H])C([H])(n5nc(-c6c([H])c([H])c(Oc7c([H])c([H])c(F)c([H])c7F)c([H])c6[H])c(C(=O)N([H])[H])c5N([H])[H])C4([H])[H])C([H])([H])C([H])([H])C3([H])[H])[N+]([H])([H])[H])c([H])c([H])c2C1([H])[H]

$$$$
71:0:0
     RDKit          3D

 90 97  0  0  1  0  0  0  0  0999 V2000
  -28.2020  -21.9040   19.6050 C   0  0  0  0  0  0  0  0  0  0  0  0
  -27.8830  -22.9620   20.3550 N   0  0  0  0  0  0  0  0  0  0  0  0
  -28.9890  -21.9650   18.6570 O   0  0  0  0  0  0  0  0  0  0  0  0
  -27.2940  -22.7860   21.1610 H   0  0  0  0  0  0  0  0  0  0  0  0
  -27.4120  -20.6250   19.8630 C   0  0  0  0  0  2  0  0  0  0  0  0
  -28.0940  -19.6140   20.7940 C   0  0  0  0  0  2  0  0  0  0  0  0
  -29.3200  -18.8960   20.1930 C   0  0  0  0  0  2  0  0  0  0  0  0
  -29.5920  -17.5760   20.9250 C   0  0  0  0  0  2  0  0  0  0  0  0
  -30.7070  -16.7310   20.2990 C   0  0  0  0  0  2  0  0  0  0  0  0
  -31.0830  -14.3050   19.9870 C   0  0  0  0  0  0  0  0  0  0  0  0
  -30.6660  -12.1260   18.9290 C   0  0  0  0  0  2  0  0  0  0  0  0
  -29.6770  -12.3370   17.7640 C   0  0  0  0  0  2  0  0  0  0  0  0
  -28.2280  -12.2240   18.2740 C   0  0  0  0  0  2  0  0  0  0  0  0
  -27.9660  -13.1070   19.5210 C   0  0  0  0  0  3  0  0  0  0  0  0
  -29.0710  -12.9090   20.5870 C   0  0  0  0  0  2  0  0  0  0  0  0
  -30.3790  -13.1450   19.9480 N   0  0  0  0  0  0  0  0  0  0  0  0
  -32.1460  -14.4860   19.3840 O   0  0  0  0  0  0  0  0  0  0  0  0
  -30.4610  -15.3210   20.5890 N   0  0  0  0  0  0  0  0  0  0  0  0
  -29.6080  -15.0960   21.0770 H   0  0  0  0  0  0  0  0  0  0  0  0
  -25.6190  -13.7760   20.3460 C   0  0  0  0  0  0  0  0  0  0  0  0
  -24.5550  -13.0280   20.7740 C   0  0  0  0  0  0  0  0  0  0  0  0
  -24.9800  -11.6660   20.7190 C   0  0  0  0  0  0  0  0  0  0  0  0
  -26.6320  -12.8680   20.0690 N   0  0  0  0  0  0  0  0  0  0  0  0
  -26.2520  -11.5940   20.3470 N   0  0  0  0  0  0  0  0  0  0  0  0
  -24.2340  -10.4220   20.9520 C   0  0  0  0  0  0  0  0  0  0  0  0
  -24.6320   -9.5000   21.9460 C   0  0  0  0  0  3  0  0  0  0  0  0
  -23.8940   -8.3180   22.1630 C   0  0  0  0  0  3  0  0  0  0  0  0
  -22.7400   -8.0490   21.3880 C   0  0  0  0  0  0  0  0  0  0  0  0
  -22.3630   -8.9570   20.3830 C   0  0  0  0  0  3  0  0  0  0  0  0
  -23.1030  -10.1330   20.1640 C   0  0  0  0  0  3  0  0  0  0  0  0
  -21.9750   -6.9150   21.5130 O   0  0  0  0  0  0  0  0  0  0  0  0
  -21.8080   -6.2880   22.7210 C   0  0  0  0  0  0  0  0  0  0  0  0
  -21.2450   -6.9490   23.8320 C   0  0  0  0  0  3  0  0  0  0  0  0
  -21.0270   -6.2460   25.0330 C   0  0  0  0  0  3  0  0  0  0  0  0
  -21.3660   -4.8810   25.1220 C   0  0  0  0  0  0  0  0  0  0  0  0
  -21.9250   -4.2210   24.0130 C   0  0  0  0  0  3  0  0  0  0  0  0
  -22.1420   -4.9220   22.8150 C   0  0  0  0  0  0  0  0  0  0  0  0
  -22.6610   -4.2750   21.7420 F   0  0  0  0  0  0  0  0  0  0  0  0
  -21.1510   -4.2020   26.2730 F   0  0  0  0  0  0  0  0  0  0  0  0
  -23.1860  -13.5370   21.1250 C   0  0  0  0  0  0  0  0  0  0  0  0
  -22.5020  -12.8600   22.0410 N   0  0  0  0  0  0  0  0  0  0  0  0
  -22.7350  -14.5640   20.6220 O   0  0  0  0  0  0  0  0  0  0  0  0
  -22.8830  -12.0290   22.4650 H   0  0  0  0  0  0  0  0  0  0  0  0
  -21.5860  -13.1760   22.3220 H   0  0  0  0  0  0  0  0  0  0  0  0
  -25.8040  -15.1400   20.1480 N   0  0  0  0  0  0  0  0  0  0  0  0
  -25.0480  -15.8070   20.2630 H   0  0  0  0  0  0  0  0  0  0  0  0
  -26.6320  -15.5460   19.7300 H   0  0  0  0  0  0  0  0  0  0  0  0
  -27.8120  -24.3080   19.7990 C   0  0  0  0  0  2  0  0  0  0  0  0
  -28.3110  -25.4160   20.7520 C   0  0  0  0  0  2  0  0  0  0  0  0
  -28.4010  -26.7180   20.1470 O   0  0  0  0  0  0  0  0  0  0  0  0
  -24.5950  -31.8650   23.2800 C   0  0  0  0  0  0  0  0  0  0  0  0
  -27.2440  -27.4670   20.1470 C   0  0  0  0  0  0  0  0  0  0  0  0
  -23.4020  -30.4960   21.6030 C   0  0  0  0  0  3  0  0  0  0  0  0
  -24.8640  -28.9920   20.1570 C   0  0  0  0  0  0  0  0  0  0  0  0
  -25.9320  -30.8470   21.4400 C   0  0  0  0  0  2  0  0  0  0  0  0
  -26.0180  -29.4880   20.7800 C   0  0  0  0  0  0  0  0  0  0  0  0
  -27.2100  -28.7270   20.7850 C   0  0  0  0  0  3  0  0  0  0  0  0
  -26.0900  -27.0190   19.4710 C   0  0  0  0  0  3  0  0  0  0  0  0
  -24.8940  -27.7530   19.5060 C   0  0  0  0  0  3  0  0  0  0  0  0
  -23.6240  -29.8530   20.2090 C   0  0  0  0  0  2  0  0  0  0  0  0
  -24.6610  -31.0810   22.1670 N   0  0  0  0  0  0  0  0  0  0  0  0
  -23.5090  -32.1320   23.8120 O   0  0  0  0  0  0  0  0  0  0  0  0
  -22.7440  -29.4520   22.5380 C   0  0  0  0  0  0  0  0  0  0  0  0
  -21.4280  -29.2410   22.3680 N   0  0  0  0  0  0  0  0  0  0  0  0
  -23.4180  -28.8330   23.3660 O   0  0  0  0  0  0  0  0  0  0  0  0
  -20.9420  -29.7910   21.6730 H   0  0  0  0  0  0  0  0  0  0  0  0
  -18.0690  -27.9820   22.7560 C   0  0  0  0  0  0  0  0  0  0  0  0
  -20.6080  -28.2890   23.1170 C   0  0  0  0  0  3  0  0  0  0  0  0
  -20.7620  -26.8570   22.5550 C   0  0  0  0  0  2  0  0  0  0  0  0
  -19.7020  -26.5080   21.5050 C   0  0  0  0  0  2  0  0  0  0  0  0
  -18.2970  -26.6310   22.1010 C   0  0  0  0  0  2  0  0  0  0  0  0
  -19.1550  -28.7660   23.2220 C   0  0  0  0  0  0  0  0  0  0  0  0
  -18.8930  -30.0290   23.7970 C   0  0  0  0  0  3  0  0  0  0  0  0
  -17.5720  -30.5050   23.9190 C   0  0  0  0  0  3  0  0  0  0  0  0
  -16.4990  -29.7130   23.4750 C   0  0  0  0  0  3  0  0  0  0  0  0
  -16.7490  -28.4570   22.8980 C   0  0  0  0  0  3  0  0  0  0  0  0
  -25.8760  -32.4760   23.9220 C   0  0  0  0  0  3  0  0  0  0  0  0
  -25.5830  -33.8810   24.2400 N   0  0  0  0  0  0  0  0  0  0  0  0
  -25.9490  -34.9220   23.4810 C   0  0  0  0  0  0  0  0  0  0  0  0
  -26.6450  -34.8010   22.4690 O   0  0  0  0  0  0  0  0  0  0  0  0
  -24.9640  -34.0550   25.0200 H   0  0  0  0  0  0  0  0  0  0  0  0
  -24.2650  -36.7400   23.0610 C   0  0  0  0  0  1  0  0  0  0  0  0
  -25.4700  -36.3180   23.9160 C   0  0  0  0  0  3  0  0  0  0  0  0
  -27.5850  -37.1740   24.8230 C   0  0  0  0  0  1  0  0  0  0  0  0
  -26.5220  -37.3520   23.8360 N   0  0  0  0  0  0  0  0  0  0  0  0
  -26.1260  -38.2800   23.9610 H   0  0  0  0  0  0  0  0  0  0  0  0
  -26.3610  -31.7020   25.2080 C   0  0  1  0  0  0  0  0  0  0  0  0
  -25.2490  -31.4720   26.2560 C   0  0  0  0  0  1  0  0  0  0  0  0
  -26.9390  -30.3200   24.8270 C   0  0  0  0  0  1  0  0  0  0  0  0
  -27.5050  -32.4880   25.8920 C   0  0  0  0  0  1  0  0  0  0  0  0
  1  5  1  0
  1  2  1  0
  2  4  1  0
  3  1  2  0
  5  6  1  0
  7  6  1  0
  7  8  1  0
  9 18  1  0
  9  8  1  0
 10 18  1  0
 11 16  1  0
 12 13  1  0
 12 11  1  0
 14 13  1  0
 14 23  1  0
 14 15  1  0
 16 10  1  0
 16 15  1  0
 17 10  2  0
 18 19  1  0
 20 21  2  0
 21 40  1  0
 22 21  1  0
 22 25  1  0
 23 20  1  0
 23 24  1  0
 24 22  2  0
 25 26  1  0
 26 27  2  0
 28 31  1  0
 28 27  1  0
 29 28  2  0
 30 29  1  0
 30 25  2  0
 31 32  1  0
 32 37  2  0
 32 33  1  0
 33 34  2  0
 34 35  1  0
 35 39  1  0
 36 35  2  0
 37 36  1  0
 38 37  1  0
 40 41  1  0
 41 44  1  0
 41 43  1  0
 42 40  2  0
 45 46  1  0
 45 20  1  0
 47 45  1  0
 48  2  1  0
 48 49  1  0
 50 49  1  0
 51 62  2  0
 52 50  1  0
 52 57  1  0
 53 61  1  0
 53 63  1  0
 54 60  1  0
 54 56  1  0
 55 61  1  0
 56 57  2  0
 56 55  1  0
 58 59  1  0
 58 52  2  0
 59 54  2  0
 60 53  1  0
 61 51  1  0
 63 65  2  0
 64 63  1  0
 66 64  1  0
 67 76  2  0
 67 72  1  0
 68 64  1  0
 68 72  1  0
 69 68  1  0
 70 71  1  0
 70 69  1  0
 71 67  1  0
 72 73  2  0
 73 74  1  0
 75 74  2  0
 76 75  1  0
 77 51  1  0
 77 78  1  0
 77 87  1  0
 78 81  1  0
 79 83  1  0
 79 78  1  0
 80 79  2  0
 83 82  1  0
 85 83  1  0
 85 86  1  0
 85 84  1  0
 87 90  1  1
 87 88  1  0
 89 87  1  0
M  ISO  4  10 100  18 100  49 101  50 101
M  END
>  <TORSDO>  (70) 
F 23

>  <SCORE>  (70) 
-11.818

>  <name>  (70) 
71

>  <ligand_id>  (70) 
71

>  <original_smiles>  (70) 
[H]c1c([H])c([H])c2c(c1[H])C([H])([H])C([H])([H])C([H])([H])C2([H])N([H])C(=O)C1([H])N(C(=O)C([H])(N([H])C(=O)C([H])(N([H])C([H])([H])[H])C([H])([H])[H])C(C([H])([H])[H])(C([H])([H])[H])C([H])([H])[H])C([H])([H])c2c([H])c(OC([H])([H])C([H])([H])N([H])C(=O)C([H])([H])C([H])([H])C([H])([H])C([H])([H])C([H])([H])N([H])C(=O)N3C([H])([H])C([H])([H])C([H])([H])C([H])(n4nc(-c5c([H])c([H])c(Oc6c([H])c([H])c(F)c([H])c6F)c([H])c5[H])c(C(=O)N([H])[H])c4N([H])[H])C3([H])[H])c([H])c([H])c2C1([H])[H]

>  <smiles>  (70) 
[H]c1c([H])c([H])c2c(c1[H])C([H])([H])C([H])([H])C([H])([H])C2([H])N([H])C(=O)C1([H])N(C(=O)C([H])(N([H])C(=O)C([H])(N([H])C([H])([H])[H])C([H])([H])[H])C(C([H])([H])[H])(C([H])([H])[H])C([H])([H])[H])C([H])([H])c2c([H])c(OC([H])([H])C([H])([H])N([H])C(=O)C([H])([H])C([H])([H])C([H])([H])C([H])([H])C([H])([H])N([H])C(=O)N3C([H])([H])C([H])([H])C([H])([H])C([H])(n4nc(-c5c([H])c([H])c(Oc6c([H])c([H])c(F)c([H])c6F)c([H])c5[H])c(C(=O)N([H])[H])c4N([H])[H])C3([H])[H])c([H])c([H])c2C1([H])[H]

$$$$
72:0:0
     RDKit          3D

 89 97  0  0  1  0  0  0  0  0999 V2000
  -27.9390  -22.1530   17.9580 C   0  0  0  0  0  2  0  0  0  0  0  0
  -27.4360  -23.3510   18.7540 C   0  0  0  0  0  2  0  0  0  0  0  0
  -29.3140  -21.8860   18.5590 C   0  0  0  0  0  2  0  0  0  0  0  0
  -28.0800  -23.2220   20.1470 C   0  0  0  0  0  3  0  0  0  0  0  0
  -29.1390  -22.0220   20.0220 N   0  0  1  0  0  4  0  0  0  0  0  0
  -30.0210  -22.3740   20.3660 H   0  0  0  0  0  0  0  0  0  0  0  0
  -28.3650  -24.7780   20.7620 C   0  0  0  0  0  2  0  0  0  0  0  0
  -28.2950  -26.2120   20.1450 O   0  0  0  0  0  0  0  0  0  0  0  0
  -24.6110  -31.8600   23.2070 C   0  0  0  0  0  0  0  0  0  0  0  0
  -27.1920  -27.1360   20.2090 C   0  0  0  0  0  0  0  0  0  0  0  0
  -23.4080  -30.4510   21.5790 C   0  0  0  0  0  3  0  0  0  0  0  0
  -24.8540  -28.8640   20.1680 C   0  0  0  0  0  0  0  0  0  0  0  0
  -25.9580  -30.7270   21.4000 C   0  0  0  0  0  2  0  0  0  0  0  0
  -26.0350  -29.3270   20.7640 C   0  0  0  0  0  0  0  0  0  0  0  0
  -27.2070  -28.4820   20.7590 C   0  0  0  0  0  3  0  0  0  0  0  0
  -25.9830  -26.7630   19.5890 C   0  0  0  0  0  3  0  0  0  0  0  0
  -24.8390  -27.5940   19.5660 C   0  0  0  0  0  3  0  0  0  0  0  0
  -23.6260  -29.7620   20.2060 C   0  0  0  0  0  2  0  0  0  0  0  0
  -24.6800  -31.0350   22.1170 N   0  0  0  0  0  0  0  0  0  0  0  0
  -23.5260  -32.1430   23.7380 O   0  0  0  0  0  0  0  0  0  0  0  0
  -22.7350  -29.4490   22.5500 C   0  0  0  0  0  0  0  0  0  0  0  0
  -21.4070  -29.2770   22.4320 N   0  0  0  0  0  0  0  0  0  0  0  0
  -23.4120  -28.8250   23.3720 O   0  0  0  0  0  0  0  0  0  0  0  0
  -20.9180  -29.8290   21.7420 H   0  0  0  0  0  0  0  0  0  0  0  0
  -18.0300  -28.0780   22.9540 C   0  0  0  0  0  0  0  0  0  0  0  0
  -20.5900  -28.3440   23.2100 C   0  0  0  0  0  3  0  0  0  0  0  0
  -20.6910  -26.9100   22.6420 C   0  0  0  0  0  2  0  0  0  0  0  0
  -19.5850  -26.5820   21.6330 C   0  0  0  0  0  2  0  0  0  0  0  0
  -18.2060  -26.7270   22.2820 C   0  0  0  0  0  2  0  0  0  0  0  0
  -19.1490  -28.8440   23.3760 C   0  0  0  0  0  0  0  0  0  0  0  0
  -18.9300  -30.1060   23.9670 C   0  0  0  0  0  3  0  0  0  0  0  0
  -17.6250  -30.6040   24.1390 C   0  0  0  0  0  3  0  0  0  0  0  0
  -16.5200  -29.8360   23.7330 C   0  0  0  0  0  3  0  0  0  0  0  0
  -16.7240  -28.5750   23.1460 C   0  0  0  0  0  3  0  0  0  0  0  0
  -25.8890  -32.5010   23.8260 C   0  0  0  0  0  3  0  0  0  0  0  0
  -26.4100  -31.7340   25.1050 C   0  0  1  0  0  0  0  0  0  0  0  0
  -25.3190  -31.5000   26.1770 C   0  0  0  0  0  1  0  0  0  0  0  0
  -26.9920  -30.3550   24.7200 C   0  0  0  0  0  1  0  0  0  0  0  0
  -27.5630  -32.5310   25.7610 C   0  0  0  0  0  1  0  0  0  0  0  0
  -25.5730  -33.8990   24.1610 N   0  0  0  0  0  0  0  0  0  0  0  0
  -25.9040  -34.9580   23.4100 C   0  0  0  0  0  0  0  0  0  0  0  0
  -26.5740  -34.8610   22.3790 O   0  0  0  0  0  0  0  0  0  0  0  0
  -24.9770  -34.0470   24.9620 H   0  0  0  0  0  0  0  0  0  0  0  0
  -24.1740  -36.7540   23.0660 C   0  0  0  0  0  1  0  0  0  0  0  0
  -25.4150  -36.3440   23.8770 C   0  0  0  0  0  3  0  0  0  0  0  0
  -27.5490  -37.2260   24.7150 C   0  0  0  0  0  1  0  0  0  0  0  0
  -26.4480  -37.3990   23.7710 N   0  0  0  0  0  0  0  0  0  0  0  0
  -26.0410  -38.3180   23.9240 H   0  0  0  0  0  0  0  0  0  0  0  0
  -28.9940  -20.5820   20.7140 C   0  0  0  0  0  2  0  0  0  0  0  0
  -29.4890  -19.0790   20.0540 C   0  0  0  0  0  2  0  0  0  0  0  0
  -29.8920  -17.6610   20.8990 C   0  0  0  0  0  2  0  0  0  0  0  0
  -30.4970  -14.9740   20.3540 C   0  0  0  0  0  0  0  0  0  0  0  0
  -30.3910  -12.6290   19.3740 C   0  0  0  0  0  2  0  0  0  0  0  0
  -29.4520  -12.5830   18.1470 C   0  0  0  0  0  2  0  0  0  0  0  0
  -27.9880  -12.3730   18.5800 C   0  0  0  0  0  2  0  0  0  0  0  0
  -27.5820  -13.2920   19.7620 C   0  0  0  0  0  3  0  0  0  0  0  0
  -28.6410  -13.2920   20.8830 C   0  0  0  0  0  2  0  0  0  0  0  0
  -29.9040  -13.7160   20.2670 N   0  0  0  0  0  0  0  0  0  0  0  0
  -31.7130  -15.0440   20.1490 O   0  0  0  0  0  0  0  0  0  0  0  0
  -29.6880  -16.1440   20.4680 N   0  0  0  0  0  0  0  0  0  0  0  0
  -28.7110  -15.8920   20.4550 H   0  0  0  0  0  0  0  0  0  0  0  0
  -25.2010  -13.8720   20.4980 C   0  0  0  0  0  0  0  0  0  0  0  0
  -24.1370  -13.0970   20.8680 C   0  0  0  0  0  0  0  0  0  0  0  0
  -24.6040  -11.7470   20.8440 C   0  0  0  0  0  0  0  0  0  0  0  0
  -26.2450  -12.9940   20.2620 N   0  0  0  0  0  0  0  0  0  0  0  0
  -25.8950  -11.7110   20.5380 N   0  0  0  0  0  0  0  0  0  0  0  0
  -23.8770  -10.4850   21.0360 C   0  0  0  0  0  0  0  0  0  0  0  0
  -24.3100   -9.5160   21.9690 C   0  0  0  0  0  3  0  0  0  0  0  0
  -23.5820   -8.3210   22.1500 C   0  0  0  0  0  3  0  0  0  0  0  0
  -22.4060   -8.0850   21.3980 C   0  0  0  0  0  0  0  0  0  0  0  0
  -21.9930   -9.0410   20.4540 C   0  0  0  0  0  3  0  0  0  0  0  0
  -22.7210  -10.2280   20.2710 C   0  0  0  0  0  3  0  0  0  0  0  0
  -21.6500   -6.9420   21.4890 O   0  0  0  0  0  0  0  0  0  0  0  0
  -21.6090   -6.1960   22.6390 C   0  0  0  0  0  0  0  0  0  0  0  0
  -21.2000   -6.7480   23.8720 C   0  0  0  0  0  3  0  0  0  0  0  0
  -21.1050   -5.9290   25.0150 C   0  0  0  0  0  3  0  0  0  0  0  0
  -21.4080   -4.5570   24.9250 C   0  0  0  0  0  0  0  0  0  0  0  0
  -21.8080   -4.0030   23.6970 C   0  0  0  0  0  3  0  0  0  0  0  0
  -21.9050   -4.8190   22.5570 C   0  0  0  0  0  0  0  0  0  0  0  0
  -22.2710   -4.2760   21.3710 F   0  0  0  0  0  0  0  0  0  0  0  0
  -21.3090   -3.7680   26.0200 F   0  0  0  0  0  0  0  0  0  0  0  0
  -22.7380  -13.5730   21.1290 C   0  0  0  0  0  0  0  0  0  0  0  0
  -22.0060  -12.8820   21.9950 N   0  0  0  0  0  0  0  0  0  0  0  0
  -22.3030  -14.5950   20.6000 O   0  0  0  0  0  0  0  0  0  0  0  0
  -22.3710  -12.0560   22.4440 H   0  0  0  0  0  0  0  0  0  0  0  0
  -21.0680  -13.1850   22.2130 H   0  0  0  0  0  0  0  0  0  0  0  0
  -25.3580  -15.2430   20.3130 N   0  0  0  0  0  0  0  0  0  0  0  0
  -24.5810  -15.8860   20.4120 H   0  0  0  0  0  0  0  0  0  0  0  0
  -26.1890  -15.6840   19.9400 H   0  0  0  0  0  0  0  0  0  0  0  0
  1  3  1  0
  1  2  1  0
  2  4  1  0
  3  5  1  0
  4  7  1  0
  5  4  1  0
  5  6  1  1
  5 49  1  0
  8 10  1  0
  8  7  1  0
  9 20  2  0
 10 15  1  0
 11 19  1  0
 11 21  1  0
 12 18  1  0
 12 14  1  0
 13 19  1  0
 14 13  1  0
 15 14  2  0
 16 10  2  0
 17 16  1  0
 17 12  2  0
 18 11  1  0
 19  9  1  0
 21 23  2  0
 22 21  1  0
 24 22  1  0
 25 34  2  0
 25 30  1  0
 26 22  1  0
 26 30  1  0
 27 26  1  0
 28 29  1  0
 28 27  1  0
 29 25  1  0
 30 31  2  0
 31 32  1  0
 33 32  2  0
 34 33  1  0
 35  9  1  0
 35 40  1  0
 35 36  1  0
 36 39  1  1
 36 37  1  0
 38 36  1  0
 40 43  1  0
 41 45  1  0
 41 40  1  0
 42 41  2  0
 45 44  1  0
 47 45  1  0
 47 48  1  0
 47 46  1  0
 50 49  1  0
 50 51  1  0
 52 60  1  0
 53 58  1  0
 54 55  1  0
 54 53  1  0
 56 55  1  0
 56 65  1  0
 56 57  1  0
 58 52  1  0
 58 57  1  0
 59 52  2  0
 60 51  1  0
 61 60  1  0
 62 63  2  0
 63 82  1  0
 64 63  1  0
 64 67  1  0
 65 62  1  0
 65 66  1  0
 66 64  2  0
 67 68  1  0
 68 69  2  0
 70 73  1  0
 70 69  1  0
 71 70  2  0
 72 71  1  0
 72 67  2  0
 73 74  1  0
 74 75  1  0
 75 76  2  0
 77 76  1  0
 77 81  1  0
 78 77  2  0
 79 74  2  0
 79 78  1  0
 80 79  1  0
 82 83  1  0
 83 86  1  0
 83 85  1  0
 84 82  2  0
 87 88  1  0
 87 62  1  0
 89 87  1  0
M  ISO  4   7 101   8 101  52 100  60 100
M  END
>  <TORSDO>  (71) 
F 20

>  <SCORE>  (71) 
-15.598

>  <name>  (71) 
72

>  <ligand_id>  (71) 
72

>  <original_smiles>  (71) 
[H]c1c([H])c([H])c2c(c1[H])C([H])([H])C([H])([H])C([H])([H])C2([H])N([H])C(=O)C1([H])N(C(=O)C([H])(N([H])C(=O)C([H])(N([H])C([H])([H])[H])C([H])([H])[H])C(C([H])([H])[H])(C([H])([H])[H])C([H])([H])[H])C([H])([H])c2c([H])c(OC([H])([H])C3([H])C([H])([H])C([H])([H])C([H])([H])[N+]3([H])C([H])([H])C([H])([H])C([H])([H])N([H])C(=O)N3C([H])([H])C([H])([H])C([H])([H])C([H])(n4nc(-c5c([H])c([H])c(Oc6c([H])c([H])c(F)c([H])c6F)c([H])c5[H])c(C(=O)N([H])[H])c4N([H])[H])C3([H])[H])c([H])c([H])c2C1([H])[H]

>  <smiles>  (71) 
[H]c1c([H])c([H])c2c(c1[H])C([H])([H])C([H])([H])C([H])([H])C2([H])N([H])C(=O)C1([H])N(C(=O)C([H])(N([H])C(=O)C([H])(N([H])C([H])([H])[H])C([H])([H])[H])C(C([H])([H])[H])(C([H])([H])[H])C([H])([H])[H])C([H])([H])c2c([H])c(OC([H])([H])C3([H])C([H])([H])C([H])([H])C([H])([H])[N+]3([H])C([H])([H])C([H])([H])C([H])([H])N([H])C(=O)N3C([H])([H])C([H])([H])C([H])([H])C([H])(n4nc(-c5c([H])c([H])c(Oc6c([H])c([H])c(F)c([H])c6F)c([H])c5[H])c(C(=O)N([H])[H])c4N([H])[H])C3([H])[H])c([H])c([H])c2C1([H])[H]

$$$$
73:0:0
     RDKit          3D

 98105  0  0  1  0  0  0  0  0999 V2000
  -28.7650  -22.3460   22.8370 N   0  0  0  0  0  4  0  0  0  0  0  0
  -28.8270  -21.4690   22.3370 H   0  0  0  0  0  0  0  0  0  0  0  0
  -28.5660  -22.1600   23.8060 H   0  0  0  0  0  0  0  0  0  0  0  0
  -27.6260  -23.0070   22.1780 C   0  0  0  0  0  2  0  0  0  0  0  0
  -27.7690  -22.7840   20.6750 C   0  0  0  0  0  0  0  0  0  0  0  0
  -27.4040  -23.7660   19.8500 N   0  0  0  0  0  0  0  0  0  0  0  0
  -28.2300  -21.7140   20.2660 O   0  0  0  0  0  0  0  0  0  0  0  0
  -27.0270  -24.6260   20.2370 H   0  0  0  0  0  0  0  0  0  0  0  0
  -27.5190  -23.7060   18.3960 C   0  0  0  0  0  2  0  0  0  0  0  0
  -26.6880  -24.8210   17.7680 C   0  0  0  0  0  2  0  0  0  0  0  0
  -27.0010  -26.0070   18.4930 O   0  0  0  0  0  0  0  0  0  0  0  0
  -25.2550  -30.6860   23.5210 C   0  0  0  0  0  0  0  0  0  0  0  0
  -26.0270  -26.8790   18.9230 C   0  0  0  0  0  0  0  0  0  0  0  0
  -23.4720  -30.1820   21.8820 C   0  0  0  0  0  3  0  0  0  0  0  0
  -24.1890  -28.8170   19.8570 C   0  0  0  0  0  0  0  0  0  0  0  0
  -25.9370  -29.9450   21.2430 C   0  0  0  0  0  2  0  0  0  0  0  0
  -25.5200  -28.8480   20.2870 C   0  0  0  0  0  0  0  0  0  0  0  0
  -26.4360  -27.8810   19.8290 C   0  0  0  0  0  3  0  0  0  0  0  0
  -24.6680  -26.8370   18.5270 C   0  0  0  0  0  3  0  0  0  0  0  0
  -23.7530  -27.8010   18.9880 C   0  0  0  0  0  3  0  0  0  0  0  0
  -23.2820  -29.9110   20.3680 C   0  0  0  0  0  2  0  0  0  0  0  0
  -24.9170  -30.2620   22.2700 N   0  0  0  0  0  0  0  0  0  0  0  0
  -24.3890  -31.0480   24.3290 O   0  0  0  0  0  0  0  0  0  0  0  0
  -22.6840  -29.1150   22.6760 C   0  0  0  0  0  0  0  0  0  0  0  0
  -21.3460  -29.1680   22.5820 N   0  0  0  0  0  0  0  0  0  0  0  0
  -23.2740  -28.2510   23.3310 O   0  0  0  0  0  0  0  0  0  0  0  0
  -20.9390  -29.9060   22.0250 H   0  0  0  0  0  0  0  0  0  0  0  0
  -17.8530  -28.2750   22.7890 C   0  0  0  0  0  0  0  0  0  0  0  0
  -20.4040  -28.2470   23.2130 C   0  0  0  0  0  3  0  0  0  0  0  0
  -20.4080  -26.8750   22.4990 C   0  0  0  0  0  2  0  0  0  0  0  0
  -19.3400  -26.7630   21.4040 C   0  0  0  0  0  2  0  0  0  0  0  0
  -17.9420  -26.9850   21.9880 C   0  0  0  0  0  2  0  0  0  0  0  0
  -19.0120  -28.8750   23.3510 C   0  0  0  0  0  0  0  0  0  0  0  0
  -18.8820  -30.0940   24.0510 C   0  0  0  0  0  3  0  0  0  0  0  0
  -17.6240  -30.7080   24.2000 C   0  0  0  0  0  3  0  0  0  0  0  0
  -16.4770  -30.0980   23.6590 C   0  0  0  0  0  3  0  0  0  0  0  0
  -16.5940  -28.8870   22.9560 C   0  0  0  0  0  3  0  0  0  0  0  0
  -26.7430  -30.7600   23.9850 C   0  0  0  0  0  3  0  0  0  0  0  0
  -27.1760  -29.5340   24.8790 C   0  0  1  0  0  0  0  0  0  0  0  0
  -26.2220  -29.2580   26.0660 C   0  0  0  0  0  1  0  0  0  0  0  0
  -27.2610  -28.2420   24.0320 C   0  0  0  0  0  1  0  0  0  0  0  0
  -28.5980  -29.7720   25.4410 C   0  0  0  0  0  1  0  0  0  0  0  0
  -26.9170  -32.0260   24.7090 N   0  0  0  0  0  0  0  0  0  0  0  0
  -27.5140  -33.1130   24.2030 C   0  0  0  0  0  0  0  0  0  0  0  0
  -28.0520  -33.1270   23.0920 O   0  0  0  0  0  0  0  0  0  0  0  0
  -26.4620  -32.1000   25.6070 H   0  0  0  0  0  0  0  0  0  0  0  0
  -26.4670  -35.3730   24.5370 C   0  0  0  0  0  1  0  0  0  0  0  0
  -27.5190  -34.3860   25.0680 C   0  0  0  0  0  3  0  0  0  0  0  0
  -29.8390  -34.2940   25.8700 C   0  0  0  0  0  1  0  0  0  0  0  0
  -28.8380  -35.0520   25.1250 N   0  0  0  0  0  0  0  0  0  0  0  0
  -28.7600  -35.9750   25.5450 H   0  0  0  0  0  0  0  0  0  0  0  0
  -30.0620  -23.0450   22.6930 C   0  0  0  0  0  2  0  0  0  0  0  0
  -31.2240  -22.0660   22.4420 C   0  0  0  0  0  2  0  0  0  0  0  0
  -31.7820  -20.2020   20.8970 C   0  0  0  0  0  0  0  0  0  0  0  0
  -31.0430  -21.2740   21.2180 N   0  0  0  0  0  0  0  0  0  0  0  0
  -32.6040  -19.7180   21.6750 O   0  0  0  0  0  0  0  0  0  0  0  0
  -30.4180  -21.6290   20.5050 H   0  0  0  0  0  0  0  0  0  0  0  0
  -31.6000  -19.6180   19.4870 C   0  0  0  0  0  2  0  0  0  0  0  0
  -31.7090  -18.0770   19.4010 C   0  0  0  0  0  2  0  0  0  0  0  0
  -30.3370  -17.3930   19.2560 C   0  0  0  0  0  2  0  0  0  0  0  0
  -31.0640  -14.9820   19.3410 C   0  0  0  0  0  0  0  0  0  0  0  0
  -31.1060  -12.5140   19.1970 C   0  0  0  0  0  2  0  0  0  0  0  0
  -30.1660  -12.0290   18.0760 C   0  0  0  0  0  2  0  0  0  0  0  0
  -28.7180  -11.8900   18.5860 C   0  0  0  0  0  2  0  0  0  0  0  0
  -28.2360  -13.1510   19.3500 C   0  0  0  0  0  3  0  0  0  0  0  0
  -29.2790  -13.5640   20.4100 C   0  0  0  0  0  2  0  0  0  0  0  0
  -30.5710  -13.7760   19.7270 N   0  0  0  0  0  0  0  0  0  0  0  0
  -32.0630  -15.1200   18.6270 O   0  0  0  0  0  0  0  0  0  0  0  0
  -30.3210  -16.0200   19.7510 N   0  0  0  0  0  0  0  0  0  0  0  0
  -29.5370  -15.7730   20.3340 H   0  0  0  0  0  0  0  0  0  0  0  0
  -25.9710  -13.8840   20.3370 C   0  0  0  0  0  0  0  0  0  0  0  0
  -24.8880  -13.1630   20.7710 C   0  0  0  0  0  0  0  0  0  0  0  0
  -25.2380  -11.7890   20.6030 C   0  0  0  0  0  0  0  0  0  0  0  0
  -26.9160  -12.9490   19.9410 N   0  0  0  0  0  0  0  0  0  0  0  0
  -26.4820  -11.6790   20.1550 N   0  0  0  0  0  0  0  0  0  0  0  0
  -24.4410  -10.5710   20.7930 C   0  0  0  0  0  0  0  0  0  0  0  0
  -24.7490   -9.6390   21.8100 C   0  0  0  0  0  3  0  0  0  0  0  0
  -23.9600   -8.4820   21.9840 C   0  0  0  0  0  3  0  0  0  0  0  0
  -22.8480   -8.2490   21.1390 C   0  0  0  0  0  0  0  0  0  0  0  0
  -22.5600   -9.1670   20.1140 C   0  0  0  0  0  3  0  0  0  0  0  0
  -23.3490  -10.3160   19.9400 C   0  0  0  0  0  3  0  0  0  0  0  0
  -22.0400   -7.1390   21.2170 O   0  0  0  0  0  0  0  0  0  0  0  0
  -21.6320   -6.6290   22.4220 C   0  0  0  0  0  0  0  0  0  0  0  0
  -20.8740   -7.3920   23.3370 C   0  0  0  0  0  3  0  0  0  0  0  0
  -20.4150   -6.8050   24.5330 C   0  0  0  0  0  3  0  0  0  0  0  0
  -20.7070   -5.4560   24.8140 C   0  0  0  0  0  0  0  0  0  0  0  0
  -21.4590   -4.6940   23.9020 C   0  0  0  0  0  3  0  0  0  0  0  0
  -21.9190   -5.2790   22.7100 C   0  0  0  0  0  0  0  0  0  0  0  0
  -22.6240   -4.5340   21.8240 F   0  0  0  0  0  0  0  0  0  0  0  0
  -20.2620   -4.8900   25.9580 F   0  0  0  0  0  0  0  0  0  0  0  0
  -23.5660  -13.7150   21.2220 C   0  0  0  0  0  0  0  0  0  0  0  0
  -22.8930  -13.0210   22.1330 N   0  0  0  0  0  0  0  0  0  0  0  0
  -23.1460  -14.7940   20.8070 O   0  0  0  0  0  0  0  0  0  0  0  0
  -23.2490  -12.1460   22.4870 H   0  0  0  0  0  0  0  0  0  0  0  0
  -22.0090  -13.3650   22.4780 H   0  0  0  0  0  0  0  0  0  0  0  0
  -26.2250  -15.2460   20.2330 N   0  0  0  0  0  0  0  0  0  0  0  0
  -25.5310  -15.9470   20.4760 H   0  0  0  0  0  0  0  0  0  0  0  0
  -27.0760  -15.6440   19.8560 H   0  0  0  0  0  0  0  0  0  0  0  0
  1  3  1  0
  2  1  1  0
  4  1  1  0
  5  4  1  0
  6  8  1  0
  6  5  1  0
  7  5  2  0
  9  6  1  0
 10  9  1  0
 10 11  1  0
 11 13  1  0
 12 23  2  0
 13 18  1  0
 14 22  1  0
 14 24  1  0
 15 17  1  0
 15 21  1  0
 16 22  1  0
 17 16  1  0
 18 17  2  0
 19 13  2  0
 19 20  1  0
 20 15  2  0
 21 14  1  0
 22 12  1  0
 24 26  2  0
 25 24  1  0
 27 25  1  0
 28 37  2  0
 28 33  1  0
 29 25  1  0
 29 33  1  0
 30 29  1  0
 31 32  1  0
 31 30  1  0
 32 28  1  0
 33 34  2  0
 34 35  1  0
 36 35  2  0
 37 36  1  0
 38 12  1  0
 38 43  1  0
 38 39  1  0
 39 42  1  1
 39 40  1  0
 41 39  1  0
 43 46  1  0
 44 43  1  0
 44 48  1  0
 45 44  2  0
 48 47  1  0
 48 50  1  0
 50 51  1  0
 50 49  1  0
 52  1  1  0
 53 52  1  0
 54 55  1  0
 54 56  2  0
 55 53  1  0
 57 55  1  0
 58 54  1  0
 59 58  1  0
 60 59  1  0
 60 69  1  0
 61 67  1  0
 61 69  1  0
 62 67  1  0
 63 64  1  0
 63 62  1  0
 65 64  1  0
 65 74  1  0
 65 66  1  0
 67 66  1  0
 68 61  2  0
 69 70  1  0
 71 72  2  0
 72 91  1  0
 73 72  1  0
 73 76  1  0
 74 75  1  0
 74 71  1  0
 75 73  2  0
 76 77  1  0
 77 78  2  0
 79 82  1  0
 79 78  1  0
 80 79  2  0
 81 80  1  0
 81 76  2  0
 82 83  1  0
 83 88  2  0
 83 84  1  0
 84 85  2  0
 85 86  1  0
 86 90  1  0
 87 86  2  0
 88 87  1  0
 89 88  1  0
 91 92  1  0
 92 95  1  0
 92 94  1  0
 93 91  2  0
 96 71  1  0
 96 97  1  0
 98 96  1  0
M  ISO  4  10 101  11 101  61 100  69 100
M  END
>  <TORSDO>  (72) 
F 26

>  <SCORE>  (72) 
-9.356

>  <name>  (72) 
73

>  <ligand_id>  (72) 
73

>  <original_smiles>  (72) 
[H]c1c([H])c([H])c2c(c1[H])C([H])([H])C([H])([H])C([H])([H])C2([H])N([H])C(=O)C1([H])N(C(=O)C([H])(N([H])C(=O)C([H])(N([H])C([H])([H])[H])C([H])([H])[H])C(C([H])([H])[H])(C([H])([H])[H])C([H])([H])[H])C([H])([H])c2c([H])c(OC([H])([H])C([H])([H])N([H])C(=O)C([H])([H])[N+]([H])([H])C([H])([H])C([H])([H])N([H])C(=O)C([H])([H])C([H])([H])C([H])([H])N([H])C(=O)N3C([H])([H])C([H])([H])C([H])([H])C([H])(n4nc(-c5c([H])c([H])c(Oc6c([H])c([H])c(F)c([H])c6F)c([H])c5[H])c(C(=O)N([H])[H])c4N([H])[H])C3([H])[H])c([H])c([H])c2C1([H])[H]

>  <smiles>  (72) 
[H]c1c([H])c([H])c2c(c1[H])C([H])([H])C([H])([H])C([H])([H])C2([H])N([H])C(=O)C1([H])N(C(=O)C([H])(N([H])C(=O)C([H])(N([H])C([H])([H])[H])C([H])([H])[H])C(C([H])([H])[H])(C([H])([H])[H])C([H])([H])[H])C([H])([H])c2c([H])c(OC([H])([H])C([H])([H])N([H])C(=O)C([H])([H])[N+]([H])([H])C([H])([H])C([H])([H])N([H])C(=O)C([H])([H])C([H])([H])C([H])([H])N([H])C(=O)N3C([H])([H])C([H])([H])C([H])([H])C([H])(n4nc(-c5c([H])c([H])c(Oc6c([H])c([H])c(F)c([H])c6F)c([H])c5[H])c(C(=O)N([H])[H])c4N([H])[H])C3([H])[H])c([H])c([H])c2C1([H])[H]

$$$$
74:0:0
     RDKit          3D

 88 95  0  0  1  0  0  0  0  0999 V2000
  -28.9350  -23.8540   20.6010 C   0  0  0  0  0  0  0  0  0  0  0  0
  -28.8310  -22.5350   20.2070 N   0  0  0  0  0  0  0  0  0  0  0  0
  -29.6410  -24.1720   21.5610 O   0  0  0  0  0  0  0  0  0  0  0  0
  -28.2530  -22.3840   19.3900 H   0  0  0  0  0  0  0  0  0  0  0  0
  -28.0750  -24.9720   19.8670 C   0  0  0  0  0  2  0  0  0  0  0  0
  -28.2840  -26.4090   20.2370 O   0  0  0  0  0  0  0  0  0  0  0  0
  -24.6200  -31.8850   23.2330 C   0  0  0  0  0  0  0  0  0  0  0  0
  -27.1870  -27.2970   20.1580 C   0  0  0  0  0  0  0  0  0  0  0  0
  -23.4000  -30.4900   21.6050 C   0  0  0  0  0  3  0  0  0  0  0  0
  -24.8340  -28.9420   20.1610 C   0  0  0  0  0  0  0  0  0  0  0  0
  -25.9410  -30.7940   21.4050 C   0  0  0  0  0  2  0  0  0  0  0  0
  -26.0100  -29.4140   20.7570 C   0  0  0  0  0  0  0  0  0  0  0  0
  -27.1870  -28.6020   20.7510 C   0  0  0  0  0  3  0  0  0  0  0  0
  -25.9930  -26.9040   19.5060 C   0  0  0  0  0  3  0  0  0  0  0  0
  -24.8300  -27.6930   19.5260 C   0  0  0  0  0  3  0  0  0  0  0  0
  -23.6010  -29.8190   20.2220 C   0  0  0  0  0  2  0  0  0  0  0  0
  -24.6730  -31.0740   22.1370 N   0  0  0  0  0  0  0  0  0  0  0  0
  -23.5410  -32.1670   23.7750 O   0  0  0  0  0  0  0  0  0  0  0  0
  -22.7430  -29.4740   22.5700 C   0  0  0  0  0  0  0  0  0  0  0  0
  -21.4150  -29.2960   22.4510 N   0  0  0  0  0  0  0  0  0  0  0  0
  -23.4250  -28.8490   23.3850 O   0  0  0  0  0  0  0  0  0  0  0  0
  -20.9230  -29.8520   21.7660 H   0  0  0  0  0  0  0  0  0  0  0  0
  -18.0430  -28.0920   22.9660 C   0  0  0  0  0  0  0  0  0  0  0  0
  -20.6000  -28.3610   23.2300 C   0  0  0  0  0  3  0  0  0  0  0  0
  -20.7060  -26.9260   22.6650 C   0  0  0  0  0  2  0  0  0  0  0  0
  -19.6030  -26.5920   21.6540 C   0  0  0  0  0  2  0  0  0  0  0  0
  -18.2220  -26.7380   22.3000 C   0  0  0  0  0  2  0  0  0  0  0  0
  -19.1590  -28.8610   23.3890 C   0  0  0  0  0  0  0  0  0  0  0  0
  -18.9370  -30.1270   23.9720 C   0  0  0  0  0  3  0  0  0  0  0  0
  -17.6310  -30.6250   24.1360 C   0  0  0  0  0  3  0  0  0  0  0  0
  -16.5280  -29.8540   23.7300 C   0  0  0  0  0  3  0  0  0  0  0  0
  -16.7360  -28.5880   23.1500 C   0  0  0  0  0  3  0  0  0  0  0  0
  -25.9090  -32.5170   23.8430 C   0  0  0  0  0  3  0  0  0  0  0  0
  -25.6020  -33.9130   24.1820 N   0  0  0  0  0  0  0  0  0  0  0  0
  -25.9210  -34.9700   23.4220 C   0  0  0  0  0  0  0  0  0  0  0  0
  -26.5760  -34.8710   22.3810 O   0  0  0  0  0  0  0  0  0  0  0  0
  -25.0190  -34.0650   24.9910 H   0  0  0  0  0  0  0  0  0  0  0  0
  -24.1830  -36.7600   23.1060 C   0  0  0  0  0  1  0  0  0  0  0  0
  -25.4410  -36.3560   23.8920 C   0  0  0  0  0  3  0  0  0  0  0  0
  -27.5900  -37.2420   24.6820 C   0  0  0  0  0  1  0  0  0  0  0  0
  -26.4680  -37.4110   23.7620 N   0  0  0  0  0  0  0  0  0  0  0  0
  -26.0640  -38.3310   23.9210 H   0  0  0  0  0  0  0  0  0  0  0  0
  -26.4380  -31.7420   25.1120 C   0  0  1  0  0  0  0  0  0  0  0  0
  -25.3570  -31.5030   26.1910 C   0  0  0  0  0  1  0  0  0  0  0  0
  -27.0150  -30.3630   24.7120 C   0  0  0  0  0  1  0  0  0  0  0  0
  -27.5980  -32.5320   25.7620 C   0  0  0  0  0  1  0  0  0  0  0  0
  -29.2470  -21.2730   20.9410 C   0  0  0  0  0  3  0  0  0  0  0  0
  -29.5220  -19.9310   20.1020 C   0  0  0  0  0  3  0  0  0  0  0  0
  -29.5560  -18.5040   20.8500 C   0  0  0  0  0  3  0  0  0  0  0  0
  -30.1420  -17.2310   20.0640 C   0  0  0  0  0  3  0  0  0  0  0  0
  -30.6070  -14.6900   20.2910 C   0  0  0  0  0  0  0  0  0  0  0  0
  -30.3400  -12.4430   19.2580 C   0  0  0  0  0  2  0  0  0  0  0  0
  -29.3920  -12.5700   18.0460 C   0  0  0  0  0  2  0  0  0  0  0  0
  -27.9240  -12.4200   18.4900 C   0  0  0  0  0  2  0  0  0  0  0  0
  -27.5820  -13.2910   19.7290 C   0  0  0  0  0  3  0  0  0  0  0  0
  -28.6530  -13.1600   20.8370 C   0  0  0  0  0  2  0  0  0  0  0  0
  -29.9550  -13.4830   20.2380 N   0  0  0  0  0  0  0  0  0  0  0  0
  -31.7690  -14.7900   19.8900 O   0  0  0  0  0  0  0  0  0  0  0  0
  -29.8660  -15.8210   20.5600 N   0  0  0  0  0  0  0  0  0  0  0  0
  -28.9310  -15.6460   20.8990 H   0  0  0  0  0  0  0  0  0  0  0  0
  -25.2010  -13.9000   20.4690 C   0  0  0  0  0  0  0  0  0  0  0  0
  -24.1340  -13.1330   20.8520 C   0  0  0  0  0  0  0  0  0  0  0  0
  -24.5900  -11.7800   20.8240 C   0  0  0  0  0  0  0  0  0  0  0  0
  -26.2390  -13.0150   20.2290 N   0  0  0  0  0  0  0  0  0  0  0  0
  -25.8780  -11.7340   20.5040 N   0  0  0  0  0  0  0  0  0  0  0  0
  -23.8590  -10.5220   21.0260 C   0  0  0  0  0  0  0  0  0  0  0  0
  -24.3040   -9.5480   21.9460 C   0  0  0  0  0  3  0  0  0  0  0  0
  -23.5740   -8.3560   22.1370 C   0  0  0  0  0  3  0  0  0  0  0  0
  -22.3830   -8.1280   21.4060 C   0  0  0  0  0  0  0  0  0  0  0  0
  -21.9550   -9.0920   20.4750 C   0  0  0  0  0  3  0  0  0  0  0  0
  -22.6870  -10.2750   20.2830 C   0  0  0  0  0  3  0  0  0  0  0  0
  -21.6210   -6.9890   21.5070 O   0  0  0  0  0  0  0  0  0  0  0  0
  -21.6040   -6.2340   22.6530 C   0  0  0  0  0  0  0  0  0  0  0  0
  -21.2390   -6.7820   23.9010 C   0  0  0  0  0  3  0  0  0  0  0  0
  -21.1680   -5.9540   25.0390 C   0  0  0  0  0  3  0  0  0  0  0  0
  -21.4510   -4.5800   24.9310 C   0  0  0  0  0  0  0  0  0  0  0  0
  -21.8090   -4.0310   23.6870 C   0  0  0  0  0  3  0  0  0  0  0  0
  -21.8820   -4.8550   22.5500 C   0  0  0  0  0  0  0  0  0  0  0  0
  -22.2070   -4.3180   21.3500 F   0  0  0  0  0  0  0  0  0  0  0  0
  -21.3750   -3.7820   26.0220 F   0  0  0  0  0  0  0  0  0  0  0  0
  -22.7420  -13.6190   21.1340 C   0  0  0  0  0  0  0  0  0  0  0  0
  -22.0190  -12.9330   22.0120 N   0  0  0  0  0  0  0  0  0  0  0  0
  -22.3040  -14.6420   20.6110 O   0  0  0  0  0  0  0  0  0  0  0  0
  -22.3870  -12.1040   22.4570 H   0  0  0  0  0  0  0  0  0  0  0  0
  -21.0850  -13.2400   22.2430 H   0  0  0  0  0  0  0  0  0  0  0  0
  -25.3690  -15.2690   20.2820 N   0  0  0  0  0  0  0  0  0  0  0  0
  -24.6040  -15.9260   20.3920 H   0  0  0  0  0  0  0  0  0  0  0  0
  -26.2100  -15.7020   19.9240 H   0  0  0  0  0  0  0  0  0  0  0  0
  1  3  2  0
  2  1  1  0
  2 47  1  0
  4  2  1  0
  5  6  1  0
  5  1  1  0
  7 18  2  0
  8  6  1  0
  8 13  1  0
  9 17  1  0
  9 19  1  0
 10 16  1  0
 10 12  1  0
 11 17  1  0
 12 11  1  0
 13 12  2  0
 14 15  1  0
 14  8  2  0
 15 10  2  0
 16  9  1  0
 17  7  1  0
 19 21  2  0
 20 19  1  0
 22 20  1  0
 23 32  2  0
 23 28  1  0
 24 20  1  0
 24 28  1  0
 25 24  1  0
 26 27  1  0
 26 25  1  0
 27 23  1  0
 28 29  2  0
 29 30  1  0
 31 30  2  0
 32 31  1  0
 33  7  1  0
 33 34  1  0
 33 43  1  0
 34 37  1  0
 35 39  1  0
 35 34  1  0
 36 35  2  0
 39 38  1  0
 41 39  1  0
 41 42  1  0
 41 40  1  0
 43 46  1  1
 43 44  1  0
 45 43  1  0
 48 49  1  0
 48 47  2  0
 50 59  1  0
 50 49  2  0
 51 59  1  0
 52 57  1  0
 53 54  1  0
 53 52  1  0
 55 54  1  0
 55 64  1  0
 55 56  1  0
 57 51  1  0
 57 56  1  0
 58 51  2  0
 59 60  1  0
 61 62  2  0
 62 81  1  0
 63 62  1  0
 63 66  1  0
 64 61  1  0
 64 65  1  0
 65 63  2  0
 66 67  1  0
 67 68  2  0
 69 72  1  0
 69 68  1  0
 70 69  2  0
 71 70  1  0
 71 66  2  0
 72 73  1  0
 73 74  1  0
 74 75  2  0
 76 75  1  0
 76 80  1  0
 77 76  2  0
 78 73  2  0
 78 77  1  0
 79 78  1  0
 81 82  1  0
 82 85  1  0
 82 84  1  0
 83 81  2  0
 86 87  1  0
 86 61  1  0
 88 86  1  0
M  ISO  4   5 101   6 101  51 100  59 100
M  END
>  <TORSDO>  (73) 
F 21

>  <SCORE>  (73) 
-13.216

>  <name>  (73) 
74

>  <ligand_id>  (73) 
74

>  <original_smiles>  (73) 
[H]c1c([H])c([H])c2c(c1[H])C([H])([H])C([H])([H])C([H])([H])C2([H])N([H])C(=O)C1([H])N(C(=O)C([H])(N([H])C(=O)C([H])(N([H])C([H])([H])[H])C([H])([H])[H])C(C([H])([H])[H])(C([H])([H])[H])C([H])([H])[H])C([H])([H])c2c([H])c(OC([H])([H])C(=O)N([H])C([H])([H])C([H])([H])C([H])([H])C([H])([H])N([H])C(=O)N3C([H])([H])C([H])([H])C([H])([H])C([H])(n4nc(-c5c([H])c([H])c(Oc6c([H])c([H])c(F)c([H])c6F)c([H])c5[H])c(C(=O)N([H])[H])c4N([H])[H])C3([H])[H])c([H])c([H])c2C1([H])[H]

>  <smiles>  (73) 
[H]c1c([H])c([H])c2c(c1[H])C([H])([H])C([H])([H])C([H])([H])C2([H])N([H])C(=O)C1([H])N(C(=O)C([H])(N([H])C(=O)C([H])(N([H])C([H])([H])[H])C([H])([H])[H])C(C([H])([H])[H])(C([H])([H])[H])C([H])([H])[H])C([H])([H])c2c([H])c(OC([H])([H])C(=O)N([H])C([H])([H])C([H])([H])C([H])([H])C([H])([H])N([H])C(=O)N3C([H])([H])C([H])([H])C([H])([H])C([H])(n4nc(-c5c([H])c([H])c(Oc6c([H])c([H])c(F)c([H])c6F)c([H])c5[H])c(C(=O)N([H])[H])c4N([H])[H])C3([H])[H])c([H])c([H])c2C1([H])[H]

$$$$
75:0:0
     RDKit          3D

 89 96  0  0  1  0  0  0  0  0999 V2000
  -29.8750  -21.9400   20.7550 C   0  0  0  0  0  0  0  0  0  0  0  0
  -29.1220  -22.9660   20.3210 N   0  0  0  0  0  0  0  0  0  0  0  0
  -30.9590  -22.1180   21.3120 O   0  0  0  0  0  0  0  0  0  0  0  0
  -28.2480  -22.7340   19.8690 H   0  0  0  0  0  0  0  0  0  0  0  0
  -29.3240  -20.5130   20.5340 C   0  0  0  0  0  2  0  0  0  0  0  0
  -30.2340  -19.3600   21.0460 C   0  0  0  0  0  2  0  0  0  0  0  0
  -29.6410  -17.9360   20.8630 C   0  0  0  0  0  2  0  0  0  0  0  0
  -30.5820  -16.8130   21.3720 C   0  0  0  0  0  2  0  0  0  0  0  0
  -30.6980  -14.4500   20.5160 C   0  0  0  0  0  0  0  0  0  0  0  0
  -30.3810  -12.2970   19.3550 C   0  0  0  0  0  2  0  0  0  0  0  0
  -29.4530  -12.4980   18.1410 C   0  0  0  0  0  2  0  0  0  0  0  0
  -27.9750  -12.3730   18.5560 C   0  0  0  0  0  2  0  0  0  0  0  0
  -27.6310  -13.2250   19.8070 C   0  0  0  0  0  3  0  0  0  0  0  0
  -28.6700  -13.0050   20.9290 C   0  0  0  0  0  2  0  0  0  0  0  0
  -30.0040  -13.2890   20.3760 N   0  0  0  0  0  0  0  0  0  0  0  0
  -31.8100  -14.6270   20.0100 O   0  0  0  0  0  0  0  0  0  0  0  0
  -30.0590  -15.4510   21.1550 N   0  0  0  0  0  0  0  0  0  0  0  0
  -29.1490  -15.2340   21.5340 H   0  0  0  0  0  0  0  0  0  0  0  0
  -25.2300  -13.8590   20.4830 C   0  0  0  0  0  0  0  0  0  0  0  0
  -24.1520  -13.1000   20.8500 C   0  0  0  0  0  0  0  0  0  0  0  0
  -24.6000  -11.7430   20.8330 C   0  0  0  0  0  0  0  0  0  0  0  0
  -26.2700  -12.9670   20.2720 N   0  0  0  0  0  0  0  0  0  0  0  0
  -25.8940  -11.6900   20.5390 N   0  0  0  0  0  0  0  0  0  0  0  0
  -23.8600  -10.4900   21.0250 C   0  0  0  0  0  0  0  0  0  0  0  0
  -24.2820   -9.5220   21.9640 C   0  0  0  0  0  3  0  0  0  0  0  0
  -23.5440   -8.3320   22.1440 C   0  0  0  0  0  3  0  0  0  0  0  0
  -22.3720   -8.1010   21.3860 C   0  0  0  0  0  0  0  0  0  0  0  0
  -21.9700   -9.0570   20.4380 C   0  0  0  0  0  3  0  0  0  0  0  0
  -22.7080  -10.2390   20.2550 C   0  0  0  0  0  3  0  0  0  0  0  0
  -21.6070   -6.9630   21.4760 O   0  0  0  0  0  0  0  0  0  0  0  0
  -21.5500   -6.2230   22.6300 C   0  0  0  0  0  0  0  0  0  0  0  0
  -21.1330   -6.7850   23.8560 C   0  0  0  0  0  3  0  0  0  0  0  0
  -21.0230   -5.9730   25.0020 C   0  0  0  0  0  3  0  0  0  0  0  0
  -21.3180   -4.5990   24.9220 C   0  0  0  0  0  0  0  0  0  0  0  0
  -21.7270   -4.0360   23.7010 C   0  0  0  0  0  3  0  0  0  0  0  0
  -21.8410   -4.8450   22.5580 C   0  0  0  0  0  0  0  0  0  0  0  0
  -22.2150   -4.2940   21.3780 F   0  0  0  0  0  0  0  0  0  0  0  0
  -21.2040   -3.8150   26.0210 F   0  0  0  0  0  0  0  0  0  0  0  0
  -22.7570  -13.5920   21.1040 C   0  0  0  0  0  0  0  0  0  0  0  0
  -22.0160  -12.9130   21.9730 N   0  0  0  0  0  0  0  0  0  0  0  0
  -22.3320  -14.6140   20.5690 O   0  0  0  0  0  0  0  0  0  0  0  0
  -22.3720  -12.0870   22.4310 H   0  0  0  0  0  0  0  0  0  0  0  0
  -21.0790  -13.2240   22.1840 H   0  0  0  0  0  0  0  0  0  0  0  0
  -25.4100  -15.2250   20.2920 N   0  0  0  0  0  0  0  0  0  0  0  0
  -24.6470  -15.8890   20.3760 H   0  0  0  0  0  0  0  0  0  0  0  0
  -26.2640  -15.6500   19.9560 H   0  0  0  0  0  0  0  0  0  0  0  0
  -29.4290  -24.3990   20.4630 C   0  0  0  0  0  2  0  0  0  0  0  0
  -28.2400  -25.2620   19.9760 C   0  0  0  0  0  2  0  0  0  0  0  0
  -28.3780  -26.6780   20.2060 O   0  0  0  0  0  0  0  0  0  0  0  0
  -24.5830  -31.8990   23.2390 C   0  0  0  0  0  0  0  0  0  0  0  0
  -27.2120  -27.4310   20.1650 C   0  0  0  0  0  0  0  0  0  0  0  0
  -23.3720  -30.5010   21.5990 C   0  0  0  0  0  3  0  0  0  0  0  0
  -24.8220  -28.9620   20.1720 C   0  0  0  0  0  0  0  0  0  0  0  0
  -25.9020  -30.8490   21.4010 C   0  0  0  0  0  2  0  0  0  0  0  0
  -25.9830  -29.4760   20.7610 C   0  0  0  0  0  0  0  0  0  0  0  0
  -27.1810  -28.7200   20.7530 C   0  0  0  0  0  3  0  0  0  0  0  0
  -26.0270  -26.9450   19.5590 C   0  0  0  0  0  3  0  0  0  0  0  0
  -24.8390  -27.6970   19.5670 C   0  0  0  0  0  3  0  0  0  0  0  0
  -23.5800  -29.8240   20.2190 C   0  0  0  0  0  2  0  0  0  0  0  0
  -24.6380  -31.0970   22.1390 N   0  0  0  0  0  0  0  0  0  0  0  0
  -23.5020  -32.1750   23.7790 O   0  0  0  0  0  0  0  0  0  0  0  0
  -22.7170  -29.4800   22.5580 C   0  0  0  0  0  0  0  0  0  0  0  0
  -21.3920  -29.3080   22.4350 N   0  0  0  0  0  0  0  0  0  0  0  0
  -23.3990  -28.8490   23.3700 O   0  0  0  0  0  0  0  0  0  0  0  0
  -20.9040  -29.8690   21.7520 H   0  0  0  0  0  0  0  0  0  0  0  0
  -18.0090  -28.1430   22.9460 C   0  0  0  0  0  0  0  0  0  0  0  0
  -20.5690  -28.3740   23.2050 C   0  0  0  0  0  3  0  0  0  0  0  0
  -20.6550  -26.9440   22.6220 C   0  0  0  0  0  2  0  0  0  0  0  0
  -19.5450  -26.6380   21.6130 C   0  0  0  0  0  2  0  0  0  0  0  0
  -18.1680  -26.7930   22.2650 C   0  0  0  0  0  2  0  0  0  0  0  0
  -19.1360  -28.8920   23.3730 C   0  0  0  0  0  0  0  0  0  0  0  0
  -18.9340  -30.1550   23.9700 C   0  0  0  0  0  3  0  0  0  0  0  0
  -17.6350  -30.6700   24.1420 C   0  0  0  0  0  3  0  0  0  0  0  0
  -16.5220  -29.9180   23.7310 C   0  0  0  0  0  3  0  0  0  0  0  0
  -16.7090  -28.6560   23.1390 C   0  0  0  0  0  3  0  0  0  0  0  0
  -25.8710  -32.5270   23.8590 C   0  0  0  0  0  3  0  0  0  0  0  0
  -25.5620  -33.9220   24.1960 N   0  0  0  0  0  0  0  0  0  0  0  0
  -25.8820  -34.9770   23.4350 C   0  0  0  0  0  0  0  0  0  0  0  0
  -26.5390  -34.8770   22.3950 O   0  0  0  0  0  0  0  0  0  0  0  0
  -24.9770  -34.0730   25.0050 H   0  0  0  0  0  0  0  0  0  0  0  0
  -24.1390  -36.7600   23.1110 C   0  0  0  0  0  1  0  0  0  0  0  0
  -25.3970  -36.3620   23.9010 C   0  0  0  0  0  3  0  0  0  0  0  0
  -27.5430  -37.2540   24.6900 C   0  0  0  0  0  1  0  0  0  0  0  0
  -26.4220  -37.4200   23.7700 N   0  0  0  0  0  0  0  0  0  0  0  0
  -26.0140  -38.3380   23.9280 H   0  0  0  0  0  0  0  0  0  0  0  0
  -26.3940  -31.7460   25.1270 C   0  0  1  0  0  0  0  0  0  0  0  0
  -25.3070  -31.5030   26.1990 C   0  0  0  0  0  1  0  0  0  0  0  0
  -26.9760  -30.3730   24.7220 C   0  0  0  0  0  1  0  0  0  0  0  0
  -27.5480  -32.5370   25.7870 C   0  0  0  0  0  1  0  0  0  0  0  0
  1  3  2  0
  2 47  1  0
  2  1  1  0
  4  2  1  0
  5  1  1  0
  5  6  1  0
  7  6  1  0
  7  8  1  0
  9 17  1  0
 10 15  1  0
 11 12  1  0
 11 10  1  0
 13 12  1  0
 13 22  1  0
 13 14  1  0
 15  9  1  0
 15 14  1  0
 16  9  2  0
 17  8  1  0
 17 18  1  0
 19 20  2  0
 20 39  1  0
 21 20  1  0
 21 24  1  0
 22 19  1  0
 22 23  1  0
 23 21  2  0
 24 25  1  0
 25 26  2  0
 27 30  1  0
 27 26  1  0
 28 27  2  0
 29 28  1  0
 29 24  2  0
 30 31  1  0
 31 32  1  0
 32 33  2  0
 34 33  1  0
 34 38  1  0
 35 34  2  0
 36 31  2  0
 36 35  1  0
 37 36  1  0
 39 40  1  0
 40 43  1  0
 40 42  1  0
 41 39  2  0
 44 45  1  0
 44 19  1  0
 46 44  1  0
 48 49  1  0
 48 47  1  0
 50 61  2  0
 51 49  1  0
 51 56  1  0
 52 60  1  0
 52 62  1  0
 53 59  1  0
 53 55  1  0
 54 60  1  0
 55 54  1  0
 56 55  2  0
 57 58  1  0
 57 51  2  0
 58 53  2  0
 59 52  1  0
 60 50  1  0
 62 64  2  0
 63 62  1  0
 65 63  1  0
 66 75  2  0
 66 71  1  0
 67 63  1  0
 67 71  1  0
 68 67  1  0
 69 70  1  0
 69 68  1  0
 70 66  1  0
 71 72  2  0
 72 73  1  0
 74 73  2  0
 75 74  1  0
 76 50  1  0
 76 77  1  0
 76 86  1  0
 77 80  1  0
 78 82  1  0
 78 77  1  0
 79 78  2  0
 82 81  1  0
 84 82  1  0
 84 85  1  0
 84 83  1  0
 86 89  1  1
 86 87  1  0
 88 86  1  0
M  ISO  4   9 100  17 100  48 101  49 101
M  END
>  <TORSDO>  (74) 
F 22

>  <SCORE>  (74) 
-13.051

>  <name>  (74) 
75

>  <ligand_id>  (74) 
75

>  <original_smiles>  (74) 
[H]c1c([H])c([H])c2c(c1[H])C([H])([H])C([H])([H])C([H])([H])C2([H])N([H])C(=O)C1([H])N(C(=O)C([H])(N([H])C(=O)C([H])(N([H])C([H])([H])[H])C([H])([H])[H])C(C([H])([H])[H])(C([H])([H])[H])C([H])([H])[H])C([H])([H])c2c([H])c(OC([H])([H])C([H])([H])N([H])C(=O)C([H])([H])C([H])([H])C([H])([H])C([H])([H])N([H])C(=O)N3C([H])([H])C([H])([H])C([H])([H])C([H])(n4nc(-c5c([H])c([H])c(Oc6c([H])c([H])c(F)c([H])c6F)c([H])c5[H])c(C(=O)N([H])[H])c4N([H])[H])C3([H])[H])c([H])c([H])c2C1([H])[H]

>  <smiles>  (74) 
[H]c1c([H])c([H])c2c(c1[H])C([H])([H])C([H])([H])C([H])([H])C2([H])N([H])C(=O)C1([H])N(C(=O)C([H])(N([H])C(=O)C([H])(N([H])C([H])([H])[H])C([H])([H])[H])C(C([H])([H])[H])(C([H])([H])[H])C([H])([H])[H])C([H])([H])c2c([H])c(OC([H])([H])C([H])([H])N([H])C(=O)C([H])([H])C([H])([H])C([H])([H])C([H])([H])N([H])C(=O)N3C([H])([H])C([H])([H])C([H])([H])C([H])(n4nc(-c5c([H])c([H])c(Oc6c([H])c([H])c(F)c([H])c6F)c([H])c5[H])c(C(=O)N([H])[H])c4N([H])[H])C3([H])[H])c([H])c([H])c2C1([H])[H]

$$$$
76:0:0
     RDKit          3D

 86 93  0  0  1  0  0  0  0  0999 V2000
  -28.7250  -22.7500   20.5790 C   0  0  0  0  0  0  0  0  0  0  0  0
  -28.8410  -21.3510   20.0620 N   0  0  0  0  0  0  0  0  0  0  0  0
  -29.1550  -22.9050   21.7240 O   0  0  0  0  0  0  0  0  0  0  0  0
  -28.5310  -21.3120   19.0990 H   0  0  0  0  0  0  0  0  0  0  0  0
  -28.0220  -24.2200   19.8880 C   0  0  0  0  0  2  0  0  0  0  0  0
  -28.1810  -25.8160   20.3270 O   0  0  0  0  0  0  0  0  0  0  0  0
  -24.6460  -31.8650   23.1900 C   0  0  0  0  0  0  0  0  0  0  0  0
  -27.1910  -26.9380   20.2110 C   0  0  0  0  0  0  0  0  0  0  0  0
  -23.4510  -30.4600   21.5590 C   0  0  0  0  0  3  0  0  0  0  0  0
  -24.9000  -28.8410   20.1460 C   0  0  0  0  0  0  0  0  0  0  0  0
  -26.0200  -30.6560   21.4210 C   0  0  0  0  0  2  0  0  0  0  0  0
  -26.0860  -29.2400   20.7720 C   0  0  0  0  0  0  0  0  0  0  0  0
  -27.2230  -28.3080   20.7840 C   0  0  0  0  0  3  0  0  0  0  0  0
  -25.9790  -26.7040   19.5210 C   0  0  0  0  0  3  0  0  0  0  0  0
  -24.8730  -27.5950   19.4990 C   0  0  0  0  0  3  0  0  0  0  0  0
  -23.6830  -29.7660   20.1870 C   0  0  0  0  0  2  0  0  0  0  0  0
  -24.7280  -31.0220   22.1090 N   0  0  0  0  0  0  0  0  0  0  0  0
  -23.5560  -32.1610   23.7070 O   0  0  0  0  0  0  0  0  0  0  0  0
  -22.7510  -29.4750   22.5310 C   0  0  0  0  0  0  0  0  0  0  0  0
  -21.4200  -29.3200   22.4100 N   0  0  0  0  0  0  0  0  0  0  0  0
  -23.4130  -28.8500   23.3630 O   0  0  0  0  0  0  0  0  0  0  0  0
  -20.9380  -29.8750   21.7160 H   0  0  0  0  0  0  0  0  0  0  0  0
  -18.0300  -28.1280   22.9270 C   0  0  0  0  0  0  0  0  0  0  0  0
  -20.5920  -28.3910   23.1880 C   0  0  0  0  0  3  0  0  0  0  0  0
  -20.6890  -26.9540   22.6240 C   0  0  0  0  0  2  0  0  0  0  0  0
  -19.5860  -26.6270   21.6110 C   0  0  0  0  0  2  0  0  0  0  0  0
  -18.2040  -26.7760   22.2560 C   0  0  0  0  0  2  0  0  0  0  0  0
  -19.1510  -28.8920   23.3510 C   0  0  0  0  0  0  0  0  0  0  0  0
  -18.9320  -30.1550   23.9430 C   0  0  0  0  0  3  0  0  0  0  0  0
  -17.6260  -30.6550   24.1130 C   0  0  0  0  0  3  0  0  0  0  0  0
  -16.5220  -29.8880   23.7040 C   0  0  0  0  0  3  0  0  0  0  0  0
  -16.7240  -28.6260   23.1170 C   0  0  0  0  0  3  0  0  0  0  0  0
  -25.9170  -32.5090   23.8220 C   0  0  0  0  0  3  0  0  0  0  0  0
  -26.4230  -31.7460   25.1090 C   0  0  1  0  0  0  0  0  0  0  0  0
  -25.3230  -31.5200   26.1740 C   0  0  0  0  0  1  0  0  0  0  0  0
  -27.0050  -30.3630   24.7410 C   0  0  0  0  0  1  0  0  0  0  0  0
  -27.5730  -32.5420   25.7720 C   0  0  0  0  0  1  0  0  0  0  0  0
  -25.5980  -33.9090   24.1570 N   0  0  0  0  0  0  0  0  0  0  0  0
  -25.9300  -34.9720   23.4130 C   0  0  0  0  0  0  0  0  0  0  0  0
  -26.5990  -34.8790   22.3820 O   0  0  0  0  0  0  0  0  0  0  0  0
  -25.0020  -34.0540   24.9580 H   0  0  0  0  0  0  0  0  0  0  0  0
  -24.2010  -36.7750   23.0900 C   0  0  0  0  0  1  0  0  0  0  0  0
  -25.4470  -36.3590   23.8880 C   0  0  0  0  0  3  0  0  0  0  0  0
  -27.5870  -37.2400   24.7120 C   0  0  0  0  0  1  0  0  0  0  0  0
  -26.4790  -37.4140   23.7760 N   0  0  0  0  0  0  0  0  0  0  0  0
  -26.0740  -38.3320   23.9320 H   0  0  0  0  0  0  0  0  0  0  0  0
  -29.1200  -19.7980   20.6660 C   0  0  0  0  0  2  0  0  0  0  0  0
  -29.8280  -18.2610   19.9970 C   0  0  0  0  0  2  0  0  0  0  0  0
  -30.4160  -15.3400   20.2120 C   0  0  0  0  0  0  0  0  0  0  0  0
  -30.3850  -12.8860   19.3430 C   0  0  0  0  0  2  0  0  0  0  0  0
  -29.4590  -12.6810   18.1170 C   0  0  0  0  0  2  0  0  0  0  0  0
  -28.0130  -12.4050   18.5670 C   0  0  0  0  0  2  0  0  0  0  0  0
  -27.5720  -13.3620   19.7030 C   0  0  0  0  0  3  0  0  0  0  0  0
  -28.6280  -13.5140   20.8190 C   0  0  0  0  0  2  0  0  0  0  0  0
  -29.8530  -14.0280   20.1810 N   0  0  0  0  0  0  0  0  0  0  0  0
  -31.6220  -15.3370   19.9210 O   0  0  0  0  0  0  0  0  0  0  0  0
  -29.6630  -16.6220   20.3640 N   0  0  0  0  0  0  0  0  0  0  0  0
  -28.7150  -16.4170   20.6450 H   0  0  0  0  0  0  0  0  0  0  0  0
  -25.2070  -13.9120   20.4730 C   0  0  0  0  0  0  0  0  0  0  0  0
  -24.1500  -13.1320   20.8510 C   0  0  0  0  0  0  0  0  0  0  0  0
  -24.6210  -11.7830   20.8200 C   0  0  0  0  0  0  0  0  0  0  0  0
  -26.2500  -13.0390   20.2220 N   0  0  0  0  0  0  0  0  0  0  0  0
  -25.9100  -11.7530   20.5000 N   0  0  0  0  0  0  0  0  0  0  0  0
  -23.8980  -10.5200   21.0170 C   0  0  0  0  0  0  0  0  0  0  0  0
  -24.3420   -9.5490   21.9430 C   0  0  0  0  0  3  0  0  0  0  0  0
  -23.6160   -8.3540   22.1300 C   0  0  0  0  0  3  0  0  0  0  0  0
  -22.4320   -8.1180   21.3930 C   0  0  0  0  0  0  0  0  0  0  0  0
  -22.0070   -9.0770   20.4550 C   0  0  0  0  0  3  0  0  0  0  0  0
  -22.7330  -10.2640   20.2660 C   0  0  0  0  0  3  0  0  0  0  0  0
  -21.6760   -6.9750   21.4890 O   0  0  0  0  0  0  0  0  0  0  0  0
  -21.6500   -6.2250   22.6370 C   0  0  0  0  0  0  0  0  0  0  0  0
  -21.2600   -6.7740   23.8780 C   0  0  0  0  0  3  0  0  0  0  0  0
  -21.1810   -5.9500   25.0190 C   0  0  0  0  0  3  0  0  0  0  0  0
  -21.4810   -4.5790   24.9200 C   0  0  0  0  0  0  0  0  0  0  0  0
  -21.8640   -4.0290   23.6840 C   0  0  0  0  0  3  0  0  0  0  0  0
  -21.9440   -4.8490   22.5460 C   0  0  0  0  0  0  0  0  0  0  0  0
  -22.2930   -4.3090   21.3530 F   0  0  0  0  0  0  0  0  0  0  0  0
  -21.3980   -3.7860   26.0150 F   0  0  0  0  0  0  0  0  0  0  0  0
  -22.7530  -13.6070   21.1260 C   0  0  0  0  0  0  0  0  0  0  0  0
  -22.0320  -12.9140   22.0000 N   0  0  0  0  0  0  0  0  0  0  0  0
  -22.3120  -14.6280   20.6000 O   0  0  0  0  0  0  0  0  0  0  0  0
  -22.4040  -12.0890   22.4460 H   0  0  0  0  0  0  0  0  0  0  0  0
  -21.0950  -13.2140   22.2270 H   0  0  0  0  0  0  0  0  0  0  0  0
  -25.3620  -15.2830   20.2890 N   0  0  0  0  0  0  0  0  0  0  0  0
  -24.5880  -15.9300   20.3980 H   0  0  0  0  0  0  0  0  0  0  0  0
  -26.1930  -15.7200   19.9130 H   0  0  0  0  0  0  0  0  0  0  0  0
  1  3  2  0
  2  1  1  0
  2 47  1  0
  4  2  1  0
  5  6  1  0
  5  1  1  0
  7 18  2  0
  8  6  1  0
  8 13  1  0
  9 17  1  0
  9 19  1  0
 10 16  1  0
 10 12  1  0
 11 17  1  0
 12 13  2  0
 12 11  1  0
 14  8  2  0
 15 14  1  0
 15 10  2  0
 16  9  1  0
 17  7  1  0
 19 21  2  0
 20 19  1  0
 22 20  1  0
 23 32  2  0
 23 28  1  0
 24 20  1  0
 24 28  1  0
 25 24  1  0
 26 27  1  0
 26 25  1  0
 27 23  1  0
 28 29  2  0
 29 30  1  0
 31 30  2  0
 32 31  1  0
 33  7  1  0
 33 38  1  0
 33 34  1  0
 34 37  1  1
 34 35  1  0
 36 34  1  0
 38 41  1  0
 39 43  1  0
 39 38  1  0
 40 39  2  0
 43 42  1  0
 45 43  1  0
 45 46  1  0
 45 44  1  0
 48 57  1  0
 48 47  1  0
 49 57  1  0
 50 55  1  0
 51 52  1  0
 51 50  1  0
 53 52  1  0
 53 62  1  0
 53 54  1  0
 55 49  1  0
 55 54  1  0
 56 49  2  0
 57 58  1  0
 59 60  2  0
 60 79  1  0
 61 60  1  0
 61 64  1  0
 62 59  1  0
 62 63  1  0
 63 61  2  0
 64 65  1  0
 65 66  2  0
 67 70  1  0
 67 66  1  0
 68 67  2  0
 69 68  1  0
 69 64  2  0
 70 71  1  0
 71 72  1  0
 72 73  2  0
 74 73  1  0
 74 78  1  0
 75 74  2  0
 76 71  2  0
 76 75  1  0
 77 76  1  0
 79 80  1  0
 80 83  1  0
 80 82  1  0
 81 79  2  0
 84 85  1  0
 84 59  1  0
 86 84  1  0
M  ISO  4   5 101   6 101  49 100  57 100
M  END
>  <TORSDO>  (75) 
F 19

>  <SCORE>  (75) 
-16.442

>  <name>  (75) 
76

>  <ligand_id>  (75) 
76

>  <original_smiles>  (75) 
[H]c1c([H])c([H])c2c(c1[H])C([H])([H])C([H])([H])C([H])([H])C2([H])N([H])C(=O)C1([H])N(C(=O)C([H])(N([H])C(=O)C([H])(N([H])C([H])([H])[H])C([H])([H])[H])C(C([H])([H])[H])(C([H])([H])[H])C([H])([H])[H])C([H])([H])c2c([H])c(OC([H])([H])C(=O)N([H])C([H])([H])C([H])([H])N([H])C(=O)N3C([H])([H])C([H])([H])C([H])([H])C([H])(n4nc(-c5c([H])c([H])c(Oc6c([H])c([H])c(F)c([H])c6F)c([H])c5[H])c(C(=O)N([H])[H])c4N([H])[H])C3([H])[H])c([H])c([H])c2C1([H])[H]

>  <smiles>  (75) 
[H]c1c([H])c([H])c2c(c1[H])C([H])([H])C([H])([H])C([H])([H])C2([H])N([H])C(=O)C1([H])N(C(=O)C([H])(N([H])C(=O)C([H])(N([H])C([H])([H])[H])C([H])([H])[H])C(C([H])([H])[H])(C([H])([H])[H])C([H])([H])[H])C([H])([H])c2c([H])c(OC([H])([H])C(=O)N([H])C([H])([H])C([H])([H])N([H])C(=O)N3C([H])([H])C([H])([H])C([H])([H])C([H])(n4nc(-c5c([H])c([H])c(Oc6c([H])c([H])c(F)c([H])c6F)c([H])c5[H])c(C(=O)N([H])[H])c4N([H])[H])C3([H])[H])c([H])c([H])c2C1([H])[H]

$$$$
77:0:0
     RDKit          3D

 89 96  0  0  1  0  0  0  0  0999 V2000
  -29.8750  -21.9400   20.7550 C   0  0  0  0  0  0  0  0  0  0  0  0
  -29.1220  -22.9660   20.3210 N   0  0  0  0  0  0  0  0  0  0  0  0
  -30.9590  -22.1180   21.3120 O   0  0  0  0  0  0  0  0  0  0  0  0
  -28.2480  -22.7340   19.8690 H   0  0  0  0  0  0  0  0  0  0  0  0
  -29.3240  -20.5130   20.5340 C   0  0  0  0  0  2  0  0  0  0  0  0
  -30.2340  -19.3600   21.0460 C   0  0  0  0  0  2  0  0  0  0  0  0
  -29.6410  -17.9360   20.8630 C   0  0  0  0  0  2  0  0  0  0  0  0
  -30.5820  -16.8130   21.3720 C   0  0  0  0  0  2  0  0  0  0  0  0
  -30.6980  -14.4500   20.5160 C   0  0  0  0  0  0  0  0  0  0  0  0
  -30.3810  -12.2970   19.3550 C   0  0  0  0  0  2  0  0  0  0  0  0
  -29.4530  -12.4980   18.1410 C   0  0  0  0  0  2  0  0  0  0  0  0
  -27.9750  -12.3730   18.5560 C   0  0  0  0  0  2  0  0  0  0  0  0
  -27.6310  -13.2250   19.8070 C   0  0  0  0  0  3  0  0  0  0  0  0
  -28.6700  -13.0050   20.9290 C   0  0  0  0  0  2  0  0  0  0  0  0
  -30.0040  -13.2890   20.3760 N   0  0  0  0  0  0  0  0  0  0  0  0
  -31.8100  -14.6270   20.0100 O   0  0  0  0  0  0  0  0  0  0  0  0
  -30.0590  -15.4510   21.1550 N   0  0  0  0  0  0  0  0  0  0  0  0
  -29.1490  -15.2340   21.5340 H   0  0  0  0  0  0  0  0  0  0  0  0
  -25.2300  -13.8590   20.4830 C   0  0  0  0  0  0  0  0  0  0  0  0
  -24.1520  -13.1000   20.8500 C   0  0  0  0  0  0  0  0  0  0  0  0
  -24.6000  -11.7430   20.8330 C   0  0  0  0  0  0  0  0  0  0  0  0
  -26.2700  -12.9670   20.2720 N   0  0  0  0  0  0  0  0  0  0  0  0
  -25.8940  -11.6900   20.5390 N   0  0  0  0  0  0  0  0  0  0  0  0
  -23.8600  -10.4900   21.0250 C   0  0  0  0  0  0  0  0  0  0  0  0
  -24.2820   -9.5220   21.9640 C   0  0  0  0  0  3  0  0  0  0  0  0
  -23.5440   -8.3320   22.1440 C   0  0  0  0  0  3  0  0  0  0  0  0
  -22.3720   -8.1010   21.3860 C   0  0  0  0  0  0  0  0  0  0  0  0
  -21.9700   -9.0570   20.4380 C   0  0  0  0  0  3  0  0  0  0  0  0
  -22.7080  -10.2390   20.2550 C   0  0  0  0  0  3  0  0  0  0  0  0
  -21.6070   -6.9630   21.4760 O   0  0  0  0  0  0  0  0  0  0  0  0
  -21.5500   -6.2230   22.6300 C   0  0  0  0  0  0  0  0  0  0  0  0
  -21.1330   -6.7850   23.8560 C   0  0  0  0  0  3  0  0  0  0  0  0
  -21.0230   -5.9730   25.0020 C   0  0  0  0  0  3  0  0  0  0  0  0
  -21.3180   -4.5990   24.9220 C   0  0  0  0  0  0  0  0  0  0  0  0
  -21.7270   -4.0360   23.7010 C   0  0  0  0  0  3  0  0  0  0  0  0
  -21.8410   -4.8450   22.5580 C   0  0  0  0  0  0  0  0  0  0  0  0
  -22.2150   -4.2940   21.3780 F   0  0  0  0  0  0  0  0  0  0  0  0
  -21.2040   -3.8150   26.0210 F   0  0  0  0  0  0  0  0  0  0  0  0
  -22.7570  -13.5920   21.1040 C   0  0  0  0  0  0  0  0  0  0  0  0
  -22.0160  -12.9130   21.9730 N   0  0  0  0  0  0  0  0  0  0  0  0
  -22.3320  -14.6140   20.5690 O   0  0  0  0  0  0  0  0  0  0  0  0
  -22.3720  -12.0870   22.4310 H   0  0  0  0  0  0  0  0  0  0  0  0
  -21.0790  -13.2240   22.1840 H   0  0  0  0  0  0  0  0  0  0  0  0
  -25.4100  -15.2250   20.2920 N   0  0  0  0  0  0  0  0  0  0  0  0
  -24.6470  -15.8890   20.3760 H   0  0  0  0  0  0  0  0  0  0  0  0
  -26.2640  -15.6500   19.9560 H   0  0  0  0  0  0  0  0  0  0  0  0
  -29.4290  -24.3990   20.4630 C   0  0  0  0  0  2  0  0  0  0  0  0
  -28.2400  -25.2620   19.9760 C   0  0  0  0  0  2  0  0  0  0  0  0
  -28.3780  -26.6780   20.2060 O   0  0  0  0  0  0  0  0  0  0  0  0
  -24.5830  -31.8990   23.2390 C   0  0  0  0  0  0  0  0  0  0  0  0
  -27.2120  -27.4310   20.1650 C   0  0  0  0  0  0  0  0  0  0  0  0
  -23.3720  -30.5010   21.5990 C   0  0  0  0  0  3  0  0  0  0  0  0
  -24.8220  -28.9620   20.1720 C   0  0  0  0  0  0  0  0  0  0  0  0
  -25.9020  -30.8490   21.4010 C   0  0  0  0  0  2  0  0  0  0  0  0
  -25.9830  -29.4760   20.7610 C   0  0  0  0  0  0  0  0  0  0  0  0
  -27.1810  -28.7200   20.7530 C   0  0  0  0  0  3  0  0  0  0  0  0
  -26.0270  -26.9450   19.5590 C   0  0  0  0  0  3  0  0  0  0  0  0
  -24.8390  -27.6970   19.5670 C   0  0  0  0  0  3  0  0  0  0  0  0
  -23.5800  -29.8240   20.2190 C   0  0  0  0  0  2  0  0  0  0  0  0
  -24.6380  -31.0970   22.1390 N   0  0  0  0  0  0  0  0  0  0  0  0
  -23.5020  -32.1750   23.7790 O   0  0  0  0  0  0  0  0  0  0  0  0
  -22.7170  -29.4800   22.5580 C   0  0  0  0  0  0  0  0  0  0  0  0
  -21.3920  -29.3080   22.4350 N   0  0  0  0  0  0  0  0  0  0  0  0
  -23.3990  -28.8490   23.3700 O   0  0  0  0  0  0  0  0  0  0  0  0
  -20.9040  -29.8690   21.7520 H   0  0  0  0  0  0  0  0  0  0  0  0
  -18.0090  -28.1430   22.9460 C   0  0  0  0  0  0  0  0  0  0  0  0
  -20.5690  -28.3740   23.2050 C   0  0  0  0  0  3  0  0  0  0  0  0
  -20.6550  -26.9440   22.6220 C   0  0  0  0  0  2  0  0  0  0  0  0
  -19.5450  -26.6380   21.6130 C   0  0  0  0  0  2  0  0  0  0  0  0
  -18.1680  -26.7930   22.2650 C   0  0  0  0  0  2  0  0  0  0  0  0
  -19.1360  -28.8920   23.3730 C   0  0  0  0  0  0  0  0  0  0  0  0
  -18.9340  -30.1550   23.9700 C   0  0  0  0  0  3  0  0  0  0  0  0
  -17.6350  -30.6700   24.1420 C   0  0  0  0  0  3  0  0  0  0  0  0
  -16.5220  -29.9180   23.7310 C   0  0  0  0  0  3  0  0  0  0  0  0
  -16.7090  -28.6560   23.1390 C   0  0  0  0  0  3  0  0  0  0  0  0
  -25.8710  -32.5270   23.8590 C   0  0  0  0  0  3  0  0  0  0  0  0
  -25.5620  -33.9220   24.1960 N   0  0  0  0  0  0  0  0  0  0  0  0
  -25.8820  -34.9770   23.4350 C   0  0  0  0  0  0  0  0  0  0  0  0
  -26.5390  -34.8770   22.3950 O   0  0  0  0  0  0  0  0  0  0  0  0
  -24.9770  -34.0730   25.0050 H   0  0  0  0  0  0  0  0  0  0  0  0
  -24.1390  -36.7600   23.1110 C   0  0  0  0  0  1  0  0  0  0  0  0
  -25.3970  -36.3620   23.9010 C   0  0  0  0  0  3  0  0  0  0  0  0
  -27.5430  -37.2540   24.6900 C   0  0  0  0  0  1  0  0  0  0  0  0
  -26.4220  -37.4200   23.7700 N   0  0  0  0  0  0  0  0  0  0  0  0
  -26.0140  -38.3380   23.9280 H   0  0  0  0  0  0  0  0  0  0  0  0
  -26.3940  -31.7460   25.1270 C   0  0  1  0  0  0  0  0  0  0  0  0
  -25.3070  -31.5030   26.1990 C   0  0  0  0  0  1  0  0  0  0  0  0
  -26.9760  -30.3730   24.7220 C   0  0  0  0  0  1  0  0  0  0  0  0
  -27.5480  -32.5370   25.7870 C   0  0  0  0  0  1  0  0  0  0  0  0
  1  3  2  0
  2 47  1  0
  2  1  1  0
  4  2  1  0
  5  1  1  0
  5  6  1  0
  7  6  1  0
  7  8  1  0
  9 17  1  0
 10 15  1  0
 11 12  1  0
 11 10  1  0
 13 12  1  0
 13 22  1  0
 13 14  1  0
 15  9  1  0
 15 14  1  0
 16  9  2  0
 17  8  1  0
 17 18  1  0
 19 20  2  0
 20 39  1  0
 21 20  1  0
 21 24  1  0
 22 19  1  0
 22 23  1  0
 23 21  2  0
 24 25  1  0
 25 26  2  0
 27 30  1  0
 27 26  1  0
 28 27  2  0
 29 28  1  0
 29 24  2  0
 30 31  1  0
 31 32  1  0
 32 33  2  0
 34 33  1  0
 34 38  1  0
 35 34  2  0
 36 31  2  0
 36 35  1  0
 37 36  1  0
 39 40  1  0
 40 43  1  0
 40 42  1  0
 41 39  2  0
 44 45  1  0
 44 19  1  0
 46 44  1  0
 48 49  1  0
 48 47  1  0
 50 61  2  0
 51 49  1  0
 51 56  1  0
 52 60  1  0
 52 62  1  0
 53 59  1  0
 53 55  1  0
 54 60  1  0
 55 54  1  0
 56 55  2  0
 57 58  1  0
 57 51  2  0
 58 53  2  0
 59 52  1  0
 60 50  1  0
 62 64  2  0
 63 62  1  0
 65 63  1  0
 66 75  2  0
 66 71  1  0
 67 63  1  0
 67 71  1  0
 68 67  1  0
 69 70  1  0
 69 68  1  0
 70 66  1  0
 71 72  2  0
 72 73  1  0
 74 73  2  0
 75 74  1  0
 76 50  1  0
 76 77  1  0
 76 86  1  0
 77 80  1  0
 78 82  1  0
 78 77  1  0
 79 78  2  0
 82 81  1  0
 84 82  1  0
 84 85  1  0
 84 83  1  0
 86 89  1  1
 86 87  1  0
 88 86  1  0
M  ISO  4   9 100  17 100  48 101  49 101
M  END
>  <TORSDO>  (76) 
F 22

>  <SCORE>  (76) 
-13.051

>  <name>  (76) 
77

>  <ligand_id>  (76) 
77

>  <original_smiles>  (76) 
[H]c1c([H])c([H])c2c(c1[H])C([H])([H])C([H])([H])C([H])([H])C2([H])N([H])C(=O)C1([H])N(C(=O)C([H])(N([H])C(=O)C([H])(N([H])C([H])([H])[H])C([H])([H])[H])C(C([H])([H])[H])(C([H])([H])[H])C([H])([H])[H])C([H])([H])c2c([H])c(OC([H])([H])C([H])([H])N([H])C(=O)C([H])([H])C([H])([H])C([H])([H])C([H])([H])N([H])C(=O)N3C([H])([H])C([H])([H])C([H])([H])C([H])(n4nc(-c5c([H])c([H])c(Oc6c([H])c([H])c(F)c([H])c6F)c([H])c5[H])c(C(=O)N([H])[H])c4N([H])[H])C3([H])[H])c([H])c([H])c2C1([H])[H]

>  <smiles>  (76) 
[H]c1c([H])c([H])c2c(c1[H])C([H])([H])C([H])([H])C([H])([H])C2([H])N([H])C(=O)C1([H])N(C(=O)C([H])(N([H])C(=O)C([H])(N([H])C([H])([H])[H])C([H])([H])[H])C(C([H])([H])[H])(C([H])([H])[H])C([H])([H])[H])C([H])([H])c2c([H])c(OC([H])([H])C([H])([H])N([H])C(=O)C([H])([H])C([H])([H])C([H])([H])C([H])([H])N([H])C(=O)N3C([H])([H])C([H])([H])C([H])([H])C([H])(n4nc(-c5c([H])c([H])c(Oc6c([H])c([H])c(F)c([H])c6F)c([H])c5[H])c(C(=O)N([H])[H])c4N([H])[H])C3([H])[H])c([H])c([H])c2C1([H])[H]

$$$$
78:0:0
     RDKit          3D

100107  0  0  1  0  0  0  0  0999 V2000
  -31.3900  -24.1870   18.4950 C   0  0  0  0  0  3  0  0  0  0  0  0
  -31.7460  -24.3450   17.0060 C   0  0  0  0  0  0  0  0  0  0  0  0
  -32.7630  -23.6490   16.5140 N   0  0  0  0  0  0  0  0  0  0  0  0
  -31.1070  -25.1200   16.2940 O   0  0  0  0  0  0  0  0  0  0  0  0
  -33.3030  -23.0290   17.1010 H   0  0  0  0  0  0  0  0  0  0  0  0
  -33.0220  -23.7450   15.5420 H   0  0  0  0  0  0  0  0  0  0  0  0
  -30.4000  -25.2320   18.8370 N   0  0  0  0  0  4  0  0  0  0  0  0
  -30.4540  -25.8500   18.0350 H   0  0  0  0  0  0  0  0  0  0  0  0
  -29.4720  -24.8440   18.8350 H   0  0  0  0  0  0  0  0  0  0  0  0
  -30.6480  -26.0030   20.0850 C   0  0  0  0  0  2  0  0  0  0  0  0
  -29.6640  -27.1800   20.2380 C   0  0  0  0  0  2  0  0  0  0  0  0
  -28.3620  -26.6360   20.0850 O   0  0  0  0  0  0  0  0  0  0  0  0
  -24.6170  -31.8820   23.2360 C   0  0  0  0  0  0  0  0  0  0  0  0
  -27.2550  -27.4520   20.1490 C   0  0  0  0  0  0  0  0  0  0  0  0
  -23.3990  -30.4710   21.6090 C   0  0  0  0  0  3  0  0  0  0  0  0
  -24.8470  -28.9310   20.1840 C   0  0  0  0  0  0  0  0  0  0  0  0
  -25.9200  -30.8410   21.3860 C   0  0  0  0  0  2  0  0  0  0  0  0
  -26.0080  -29.4680   20.7550 C   0  0  0  0  0  0  0  0  0  0  0  0
  -27.2190  -28.7400   20.7370 C   0  0  0  0  0  3  0  0  0  0  0  0
  -26.0730  -26.9200   19.5960 C   0  0  0  0  0  3  0  0  0  0  0  0
  -24.8720  -27.6520   19.6030 C   0  0  0  0  0  3  0  0  0  0  0  0
  -23.6000  -29.7840   20.2320 C   0  0  0  0  0  2  0  0  0  0  0  0
  -24.6630  -31.0780   22.1370 N   0  0  0  0  0  0  0  0  0  0  0  0
  -23.5390  -32.1550   23.7840 O   0  0  0  0  0  0  0  0  0  0  0  0
  -22.7550  -29.4550   22.5790 C   0  0  0  0  0  0  0  0  0  0  0  0
  -21.4310  -29.2700   22.4600 N   0  0  0  0  0  0  0  0  0  0  0  0
  -23.4450  -28.8360   23.3950 O   0  0  0  0  0  0  0  0  0  0  0  0
  -20.9360  -29.8240   21.7740 H   0  0  0  0  0  0  0  0  0  0  0  0
  -18.0620  -28.0660   22.9690 C   0  0  0  0  0  0  0  0  0  0  0  0
  -20.6190  -28.3350   23.2380 C   0  0  0  0  0  3  0  0  0  0  0  0
  -20.7260  -26.8990   22.6750 C   0  0  0  0  0  2  0  0  0  0  0  0
  -19.6260  -26.5630   21.6630 C   0  0  0  0  0  2  0  0  0  0  0  0
  -18.2440  -26.7090   22.3070 C   0  0  0  0  0  2  0  0  0  0  0  0
  -19.1780  -28.8350   23.3920 C   0  0  0  0  0  0  0  0  0  0  0  0
  -18.9550  -30.1040   23.9700 C   0  0  0  0  0  3  0  0  0  0  0  0
  -17.6490  -30.6030   24.1300 C   0  0  0  0  0  3  0  0  0  0  0  0
  -16.5470  -29.8300   23.7250 C   0  0  0  0  0  3  0  0  0  0  0  0
  -16.7550  -28.5640   23.1490 C   0  0  0  0  0  3  0  0  0  0  0  0
  -25.9070  -32.5160   23.8430 C   0  0  0  0  0  3  0  0  0  0  0  0
  -25.6030  -33.9140   24.1720 N   0  0  0  0  0  0  0  0  0  0  0  0
  -25.9310  -34.9630   23.4050 C   0  0  0  0  0  0  0  0  0  0  0  0
  -26.5960  -34.8550   22.3700 O   0  0  0  0  0  0  0  0  0  0  0  0
  -25.0150  -34.0730   24.9770 H   0  0  0  0  0  0  0  0  0  0  0  0
  -24.2020  -36.7550   23.0510 C   0  0  0  0  0  1  0  0  0  0  0  0
  -25.4460  -36.3530   23.8590 C   0  0  0  0  0  3  0  0  0  0  0  0
  -27.5870  -37.2350   24.6780 C   0  0  0  0  0  1  0  0  0  0  0  0
  -26.4790  -37.4050   23.7410 N   0  0  0  0  0  0  0  0  0  0  0  0
  -26.0740  -38.3250   23.8930 H   0  0  0  0  0  0  0  0  0  0  0  0
  -26.4410  -31.7450   25.1140 C   0  0  1  0  0  0  0  0  0  0  0  0
  -25.3620  -31.5080   26.1950 C   0  0  0  0  0  1  0  0  0  0  0  0
  -27.0180  -30.3670   24.7120 C   0  0  0  0  0  1  0  0  0  0  0  0
  -27.5990  -32.5390   25.7600 C   0  0  0  0  0  1  0  0  0  0  0  0
  -30.9250  -22.7480   18.8730 C   0  0  0  0  0  2  0  0  0  0  0  0
  -29.7000  -22.1710   18.1170 C   0  0  0  0  0  2  0  0  0  0  0  0
  -29.7980  -20.6590   17.8110 C   0  0  0  0  0  2  0  0  0  0  0  0
  -28.7450  -19.0060   19.3560 C   0  0  0  0  0  0  0  0  0  0  0  0
  -29.7630  -19.8070   19.0040 N   0  0  0  0  0  0  0  0  0  0  0  0
  -27.6540  -19.0410   18.7850 O   0  0  0  0  0  0  0  0  0  0  0  0
  -30.6270  -19.7020   19.5210 H   0  0  0  0  0  0  0  0  0  0  0  0
  -28.9620  -17.9990   20.4940 C   0  0  0  0  0  2  0  0  0  0  0  0
  -30.4430  -17.6850   20.7980 C   0  0  0  0  0  2  0  0  0  0  0  0
  -30.6530  -16.6030   21.8790 C   0  0  0  0  0  2  0  0  0  0  0  0
  -30.6590  -14.4420   20.6320 C   0  0  0  0  0  0  0  0  0  0  0  0
  -30.3210  -12.3590   19.3570 C   0  0  0  0  0  2  0  0  0  0  0  0
  -29.3820  -12.6060   18.1610 C   0  0  0  0  0  2  0  0  0  0  0  0
  -27.9060  -12.4690   18.5830 C   0  0  0  0  0  2  0  0  0  0  0  0
  -27.5740  -13.2760   19.8680 C   0  0  0  0  0  3  0  0  0  0  0  0
  -28.6170  -12.9970   20.9710 C   0  0  0  0  0  2  0  0  0  0  0  0
  -29.9540  -13.2980   20.4260 N   0  0  0  0  0  0  0  0  0  0  0  0
  -31.7190  -14.6990   20.0570 O   0  0  0  0  0  0  0  0  0  0  0  0
  -30.1040  -15.3040   21.4940 N   0  0  0  0  0  0  0  0  0  0  0  0
  -29.2430  -15.0150   21.9350 H   0  0  0  0  0  0  0  0  0  0  0  0
  -25.1630  -13.8860   20.5380 C   0  0  0  0  0  0  0  0  0  0  0  0
  -24.0940  -13.1110   20.9020 C   0  0  0  0  0  0  0  0  0  0  0  0
  -24.5580  -11.7620   20.8860 C   0  0  0  0  0  0  0  0  0  0  0  0
  -26.2140  -13.0060   20.3300 N   0  0  0  0  0  0  0  0  0  0  0  0
  -25.8520  -11.7240   20.5940 N   0  0  0  0  0  0  0  0  0  0  0  0
  -23.8340  -10.4990   21.0770 C   0  0  0  0  0  0  0  0  0  0  0  0
  -24.2750   -9.5280   22.0040 C   0  0  0  0  0  3  0  0  0  0  0  0
  -23.5510   -8.3300   22.1850 C   0  0  0  0  0  3  0  0  0  0  0  0
  -22.3730   -8.0900   21.4380 C   0  0  0  0  0  0  0  0  0  0  0  0
  -21.9520   -9.0490   20.5000 C   0  0  0  0  0  3  0  0  0  0  0  0
  -22.6760  -10.2400   20.3180 C   0  0  0  0  0  3  0  0  0  0  0  0
  -21.6210   -6.9430   21.5260 O   0  0  0  0  0  0  0  0  0  0  0  0
  -21.5970   -6.1860   22.6700 C   0  0  0  0  0  0  0  0  0  0  0  0
  -21.2070   -6.7290   23.9130 C   0  0  0  0  0  3  0  0  0  0  0  0
  -21.1300   -5.8980   25.0500 C   0  0  0  0  0  3  0  0  0  0  0  0
  -21.4310   -4.5270   24.9440 C   0  0  0  0  0  0  0  0  0  0  0  0
  -21.8120   -3.9840   23.7040 C   0  0  0  0  0  3  0  0  0  0  0  0
  -21.8920   -4.8110   22.5690 C   0  0  0  0  0  0  0  0  0  0  0  0
  -22.2370   -4.2820   21.3720 F   0  0  0  0  0  0  0  0  0  0  0  0
  -21.3510   -3.7250   26.0320 F   0  0  0  0  0  0  0  0  0  0  0  0
  -22.6920  -13.5820   21.1600 C   0  0  0  0  0  0  0  0  0  0  0  0
  -21.9610  -12.8860   22.0260 N   0  0  0  0  0  0  0  0  0  0  0  0
  -22.2510  -14.6000   20.6270 O   0  0  0  0  0  0  0  0  0  0  0  0
  -22.3290  -12.0640   22.4820 H   0  0  0  0  0  0  0  0  0  0  0  0
  -21.0230  -13.1880   22.2460 H   0  0  0  0  0  0  0  0  0  0  0  0
  -25.3220  -15.2550   20.3470 N   0  0  0  0  0  0  0  0  0  0  0  0
  -24.5510  -15.9050   20.4420 H   0  0  0  0  0  0  0  0  0  0  0  0
  -26.1780  -15.6970   20.0330 H   0  0  0  0  0  0  0  0  0  0  0  0
  1  7  1  0
  1 53  1  0
  2  1  1  0
  3  2  1  0
  3  5  1  0
  4  2  2  0
  6  3  1  0
  7 10  1  0
  8  7  1  0
  9  7  1  0
 10 11  1  0
 12 14  1  0
 12 11  1  0
 13 24  2  0
 14 19  1  0
 15 23  1  0
 15 25  1  0
 16 22  1  0
 16 18  1  0
 17 23  1  0
 18 17  1  0
 19 18  2  0
 20 21  1  0
 20 14  2  0
 21 16  2  0
 22 15  1  0
 23 13  1  0
 25 27  2  0
 26 25  1  0
 28 26  1  0
 29 38  2  0
 29 34  1  0
 30 26  1  0
 30 34  1  0
 31 30  1  0
 32 33  1  0
 32 31  1  0
 33 29  1  0
 34 35  2  0
 35 36  1  0
 37 36  2  0
 38 37  1  0
 39 13  1  0
 39 40  1  0
 39 49  1  0
 40 43  1  0
 41 45  1  0
 41 40  1  0
 42 41  2  0
 45 44  1  0
 47 45  1  0
 47 48  1  0
 47 46  1  0
 49 52  1  1
 49 50  1  0
 51 49  1  0
 54 53  1  0
 55 54  1  0
 55 57  1  0
 56 60  1  0
 57 56  1  0
 57 59  1  0
 58 56  2  0
 60 61  1  0
 61 62  1  0
 63 71  1  0
 64 69  1  0
 65 66  1  0
 65 64  1  0
 67 66  1  0
 67 76  1  0
 67 68  1  0
 69 63  1  0
 69 68  1  0
 70 63  2  0
 71 62  1  0
 71 72  1  0
 73 74  2  0
 74 93  1  0
 75 74  1  0
 75 78  1  0
 76 73  1  0
 76 77  1  0
 77 75  2  0
 78 79  1  0
 79 80  2  0
 81 84  1  0
 81 80  1  0
 82 81  2  0
 83 82  1  0
 83 78  2  0
 84 85  1  0
 85 86  1  0
 86 87  2  0
 88 87  1  0
 88 92  1  0
 89 88  2  0
 90 85  2  0
 90 89  1  0
 91 90  1  0
 93 94  1  0
 94 97  1  0
 94 96  1  0
 95 93  2  0
 98 99  1  0
 98 73  1  0
100 98  1  0
M  ISO  4  11 101  12 101  63 100  71 100
M  END
>  <TORSDO>  (77) 
F 27

>  <SCORE>  (77) 
-11.713

>  <name>  (77) 
78

>  <ligand_id>  (77) 
78

>  <original_smiles>  (77) 
[H]c1c([H])c([H])c2c(c1[H])C([H])([H])C([H])([H])C([H])([H])C2([H])N([H])C(=O)C1([H])N(C(=O)C([H])(N([H])C(=O)C([H])(N([H])C([H])([H])[H])C([H])([H])[H])C(C([H])([H])[H])(C([H])([H])[H])C([H])([H])[H])C([H])([H])c2c([H])c(OC([H])([H])C([H])([H])[N+]([H])([H])C([H])(C(=O)N([H])[H])C([H])([H])C([H])([H])C([H])([H])N([H])C(=O)C([H])([H])C([H])([H])C([H])([H])N([H])C(=O)N3C([H])([H])C([H])([H])C([H])([H])C([H])(n4nc(-c5c([H])c([H])c(Oc6c([H])c([H])c(F)c([H])c6F)c([H])c5[H])c(C(=O)N([H])[H])c4N([H])[H])C3([H])[H])c([H])c([H])c2C1([H])[H]

>  <smiles>  (77) 
[H]c1c([H])c([H])c2c(c1[H])C([H])([H])C([H])([H])C([H])([H])C2([H])N([H])C(=O)C1([H])N(C(=O)C([H])(N([H])C(=O)C([H])(N([H])C([H])([H])[H])C([H])([H])[H])C(C([H])([H])[H])(C([H])([H])[H])C([H])([H])[H])C([H])([H])c2c([H])c(OC([H])([H])C([H])([H])[N+]([H])([H])C([H])(C(=O)N([H])[H])C([H])([H])C([H])([H])C([H])([H])N([H])C(=O)C([H])([H])C([H])([H])C([H])([H])N([H])C(=O)N3C([H])([H])C([H])([H])C([H])([H])C([H])(n4nc(-c5c([H])c([H])c(Oc6c([H])c([H])c(F)c([H])c6F)c([H])c5[H])c(C(=O)N([H])[H])c4N([H])[H])C3([H])[H])c([H])c([H])c2C1([H])[H]

$$$$
79:0:0
     RDKit          3D

 82 86  0  0  1  0  0  0  0  0999 V2000
  -28.1370  -24.6640   20.2800 O   0  0  0  0  0  1  0  0  0  0  0  0
  -24.7340  -31.8030   23.1520 C   0  0  0  0  0  0  0  0  0  0  0  0
  -27.2260  -26.1590   20.2530 C   0  0  0  0  0  0  0  0  0  0  0  0
  -23.5690  -30.3790   21.5310 C   0  0  0  0  0  3  0  0  0  0  0  0
  -25.0170  -28.5910   20.1720 C   0  0  0  0  0  0  0  0  0  0  0  0
  -26.1690  -30.3340   21.4840 C   0  0  0  0  0  2  0  0  0  0  0  0
  -26.2240  -28.8290   20.8370 C   0  0  0  0  0  0  0  0  0  0  0  0
  -27.2770  -27.6660   20.8260 C   0  0  0  0  0  3  0  0  0  0  0  0
  -25.9790  -26.2970   19.5260 C   0  0  0  0  0  3  0  0  0  0  0  0
  -24.9720  -27.3550   19.4890 C   0  0  0  0  0  3  0  0  0  0  0  0
  -23.8390  -29.6200   20.1890 C   0  0  0  0  0  2  0  0  0  0  0  0
  -24.8570  -30.8880   22.1070 N   0  0  0  0  0  0  0  0  0  0  0  0
  -23.6280  -32.1340   23.6250 O   0  0  0  0  0  0  0  0  0  0  0  0
  -22.7900  -29.4690   22.5260 C   0  0  0  0  0  0  0  0  0  0  0  0
  -21.4500  -29.3540   22.4040 N   0  0  0  0  0  0  0  0  0  0  0  0
  -23.4170  -28.8550   23.3910 O   0  0  0  0  0  0  0  0  0  0  0  0
  -20.9850  -29.8980   21.6910 H   0  0  0  0  0  0  0  0  0  0  0  0
  -18.0430  -28.1630   22.9450 C   0  0  0  0  0  0  0  0  0  0  0  0
  -20.6080  -28.4320   23.1860 C   0  0  0  0  0  3  0  0  0  0  0  0
  -20.6980  -26.9930   22.6240 C   0  0  0  0  0  2  0  0  0  0  0  0
  -19.5930  -26.6710   21.6130 C   0  0  0  0  0  2  0  0  0  0  0  0
  -18.2140  -26.8160   22.2620 C   0  0  0  0  0  2  0  0  0  0  0  0
  -19.1660  -28.9300   23.3620 C   0  0  0  0  0  0  0  0  0  0  0  0
  -18.9450  -30.1830   23.9710 C   0  0  0  0  0  3  0  0  0  0  0  0
  -17.6390  -30.6750   24.1590 C   0  0  0  0  0  3  0  0  0  0  0  0
  -16.5340  -29.9080   23.7510 C   0  0  0  0  0  3  0  0  0  0  0  0
  -16.7360  -28.6540   23.1500 C   0  0  0  0  0  3  0  0  0  0  0  0
  -25.9690  -32.4900   23.8170 C   0  0  0  0  0  3  0  0  0  0  0  0
  -25.6220  -33.8950   24.1490 N   0  0  0  0  0  0  0  0  0  0  0  0
  -25.9300  -34.9760   23.4180 C   0  0  0  0  0  0  0  0  0  0  0  0
  -26.5750  -34.8970   22.3700 O   0  0  0  0  0  0  0  0  0  0  0  0
  -25.0380  -34.0270   24.9630 H   0  0  0  0  0  0  0  0  0  0  0  0
  -24.1650  -36.7690   23.1870 C   0  0  0  0  0  1  0  0  0  0  0  0
  -25.4550  -36.3610   23.9170 C   0  0  0  0  0  3  0  0  0  0  0  0
  -27.6170  -37.2890   24.6380 C   0  0  0  0  0  1  0  0  0  0  0  0
  -26.4650  -37.4330   23.7520 N   0  0  0  0  0  0  0  0  0  0  0  0
  -26.0520  -38.3460   23.9150 H   0  0  0  0  0  0  0  0  0  0  0  0
  -26.4440  -31.7560   25.1340 C   0  0  1  0  0  0  0  0  0  0  0  0
  -25.3190  -31.5450   26.1760 C   0  0  0  0  0  1  0  0  0  0  0  0
  -27.0410  -30.3700   24.8160 C   0  0  0  0  0  1  0  0  0  0  0  0
  -27.5740  -32.5690   25.8090 C   0  0  0  0  0  1  0  0  0  0  0  0
  -28.1770  -22.5590   20.1660 C   0  0  0  0  0 15  0  0  0  0  0  0
  -30.1260  -20.6340   21.3760 C   0  0  0  0  0  1  0  0  0  0  0  0
  -29.1990  -20.4320   20.1740 C   0  0  0  0  0  1  0  0  0  0  0  0
  -29.9420  -16.6970   20.0440 C   0  0  0  0  0  0  0  0  0  0  0  0
  -30.3010  -13.9350   19.2580 C   0  0  0  0  0  2  0  0  0  0  0  0
  -29.5130  -13.0880   18.1740 C   0  0  0  0  0  2  0  0  0  0  0  0
  -28.2060  -12.5100   18.7180 C   0  0  0  0  0  2  0  0  0  0  0  0
  -27.5770  -13.5390   19.6670 C   0  0  0  0  0  3  0  0  0  0  0  0
  -28.5580  -14.2410   20.6770 C   0  0  0  0  0  2  0  0  0  0  0  0
  -29.5240  -15.1680   19.9320 N   0  0  0  0  0  0  0  0  0  0  0  0
  -31.1900  -16.4790   19.9460 O   0  0  0  0  0  0  0  0  0  0  0  0
  -29.2060  -18.3230   20.0940 N   0  0  0  0  0  2  0  0  0  0  0  0
  -28.2220  -18.0840   20.0790 H   0  0  0  0  0  0  0  0  0  0  0  0
  -25.2470  -13.9380   20.5380 C   0  0  0  0  0  0  0  0  0  0  0  0
  -24.2200  -13.1270   20.9200 C   0  0  0  0  0  0  0  0  0  0  0  0
  -24.7160  -11.7890   20.8410 C   0  0  0  0  0  0  0  0  0  0  0  0
  -26.3080  -13.1070   20.2470 N   0  0  0  0  0  0  0  0  0  0  0  0
  -26.0040  -11.7970   20.4800 N   0  0  0  0  0  0  0  0  0  0  0  0
  -24.0070  -10.5110   21.0280 C   0  0  0  0  0  0  0  0  0  0  0  0
  -24.4480   -9.5440   21.9600 C   0  0  0  0  0  3  0  0  0  0  0  0
  -23.7280   -8.3430   22.1460 C   0  0  0  0  0  3  0  0  0  0  0  0
  -22.5510   -8.0970   21.4000 C   0  0  0  0  0  0  0  0  0  0  0  0
  -22.1250   -9.0510   20.4590 C   0  0  0  0  0  3  0  0  0  0  0  0
  -22.8460  -10.2440   20.2730 C   0  0  0  0  0  3  0  0  0  0  0  0
  -21.8040   -6.9470   21.4930 O   0  0  0  0  0  0  0  0  0  0  0  0
  -21.7380   -6.2200   22.6560 C   0  0  0  0  0  0  0  0  0  0  0  0
  -21.2500   -6.7810   23.8570 C   0  0  0  0  0  3  0  0  0  0  0  0
  -21.1340   -5.9820   25.0120 C   0  0  0  0  0  3  0  0  0  0  0  0
  -21.4950   -4.6220   24.9670 C   0  0  0  0  0  0  0  0  0  0  0  0
  -21.9760   -4.0600   23.7710 C   0  0  0  0  0  3  0  0  0  0  0  0
  -22.0930   -4.8570   22.6180 C   0  0  0  0  0  0  0  0  0  0  0  0
  -22.5350   -4.3050   21.4630 F   0  0  0  0  0  0  0  0  0  0  0  0
  -21.3780   -3.8520   26.0750 F   0  0  0  0  0  0  0  0  0  0  0  0
  -22.8250  -13.5770   21.2360 C   0  0  0  0  0  0  0  0  0  0  0  0
  -22.1350  -12.8630   22.1170 N   0  0  0  0  0  0  0  0  0  0  0  0
  -22.3590  -14.6020   20.7400 O   0  0  0  0  0  0  0  0  0  0  0  0
  -22.5290  -12.0350   22.5410 H   0  0  0  0  0  0  0  0  0  0  0  0
  -21.2000  -13.1480   22.3730 H   0  0  0  0  0  0  0  0  0  0  0  0
  -25.3640  -15.3150   20.3750 N   0  0  0  0  0  0  0  0  0  0  0  0
  -24.5810  -15.9440   20.5150 H   0  0  0  0  0  0  0  0  0  0  0  0
  -26.1870  -15.7810   20.0160 H   0  0  0  0  0  0  0  0  0  0  0  0
  2 13  2  0
  3  1  1  0
  3  8  1  0
  4 12  1  0
  4 14  1  0
  5 11  1  0
  5  7  1  0
  6 12  1  0
  7  6  1  0
  8  7  2  0
  9  3  2  0
 10  9  1  0
 10  5  2  0
 11  4  1  0
 12  2  1  0
 14 16  2  0
 15 14  1  0
 17 15  1  0
 18 27  2  0
 18 23  1  0
 19 15  1  0
 19 23  1  0
 20 19  1  0
 21 22  1  0
 21 20  1  0
 22 18  1  0
 23 24  2  0
 24 25  1  0
 26 25  2  0
 27 26  1  0
 28  2  1  0
 28 29  1  0
 28 38  1  0
 29 32  1  0
 30 34  1  0
 30 29  1  0
 31 30  2  0
 34 33  1  0
 36 37  1  0
 36 34  1  0
 36 35  1  0
 38 41  1  1
 38 39  1  0
 40 38  1  0
 44 43  1  0
 45 53  1  0
 46 51  1  0
 47 48  1  0
 47 46  1  0
 49 48  1  0
 49 58  1  0
 49 50  1  0
 51 45  1  0
 51 50  1  0
 52 45  2  0
 54 53  1  0
 55 56  2  0
 56 75  1  0
 57 56  1  0
 57 60  1  0
 58 59  1  0
 58 55  1  0
 59 57  2  0
 60 61  1  0
 61 62  2  0
 63 66  1  0
 63 62  1  0
 64 63  2  0
 65 64  1  0
 65 60  2  0
 66 67  1  0
 67 68  1  0
 68 69  2  0
 70 69  1  0
 70 74  1  0
 71 70  2  0
 72 67  2  0
 72 71  1  0
 73 72  1  0
 75 76  1  0
 76 79  1  0
 76 78  1  0
 77 75  2  0
 80 81  1  0
 80 55  1  0
 82 80  1  0
M  ISO  4   1 101  42 101  45 100  53 100
M  END
>  <TORSDO>  (78) 
F 17

>  <SCORE>  (78) 
-16.272

>  <name>  (78) 
79

>  <ligand_id>  (78) 
79

>  <original_smiles>  (78) 
[H]c1c([H])c([H])c2c(c1[H])C([H])([H])C([H])([H])C([H])([H])C2([H])N([H])C(=O)C1([H])N(C(=O)C([H])(N([H])C(=O)C([H])(N([H])C([H])([H])[H])C([H])([H])[H])C(C([H])([H])[H])(C([H])([H])[H])C([H])([H])[H])C([H])([H])c2c([H])c(OC([H])([H])C([H])(N([H])C(=O)N3C([H])([H])C([H])([H])C([H])([H])C([H])(n4nc(-c5c([H])c([H])c(Oc6c([H])c([H])c(F)c([H])c6F)c([H])c5[H])c(C(=O)N([H])[H])c4N([H])[H])C3([H])[H])C([H])([H])[H])c([H])c([H])c2C1([H])[H]

>  <smiles>  (78) 
[H]c1c([H])c([H])c2c(c1[H])C([H])([H])C([H])([H])C([H])([H])C2([H])N([H])C(=O)C1([H])N(C(=O)C([H])(N([H])C(=O)C([H])(N([H])C([H])([H])[H])C([H])([H])[H])C(C([H])([H])[H])(C([H])([H])[H])C([H])([H])[H])C([H])([H])c2c([H])c(OC([H])([H])C([H])(N([H])C(=O)N3C([H])([H])C([H])([H])C([H])([H])C([H])(n4nc(-c5c([H])c([H])c(Oc6c([H])c([H])c(F)c([H])c6F)c([H])c5[H])c(C(=O)N([H])[H])c4N([H])[H])C3([H])[H])C([H])([H])[H])c([H])c([H])c2C1([H])[H]

$$$$
80:0:0
     RDKit          3D

 94101  0  0  1  0  0  0  0  0999 V2000
  -28.9420  -22.3120   20.3300 C   0  0  0  0  0  3  0  0  0  0  0  0
  -27.4490  -22.4270   20.6950 C   0  0  0  0  0  0  0  0  0  0  0  0
  -27.1460  -22.8610   21.9130 N   0  0  0  0  0  0  0  0  0  0  0  0
  -26.5760  -22.1620   19.8740 O   0  0  0  0  0  0  0  0  0  0  0  0
  -27.8880  -23.0710   22.5680 H   0  0  0  0  0  0  0  0  0  0  0  0
  -26.1830  -22.9480   22.2040 H   0  0  0  0  0  0  0  0  0  0  0  0
  -29.6530  -24.7580   20.7630 C   0  0  0  0  0  0  0  0  0  0  0  0
  -29.7410  -23.4160   20.8930 N   0  0  0  0  0  0  0  0  0  0  0  0
  -30.5070  -25.4550   21.3150 O   0  0  0  0  0  0  0  0  0  0  0  0
  -30.5350  -23.1150   21.4360 H   0  0  0  0  0  0  0  0  0  0  0  0
  -28.5260  -25.4480   19.9620 C   0  0  0  0  0  2  0  0  0  0  0  0
  -28.5960  -26.8800   20.1440 O   0  0  0  0  0  0  0  0  0  0  0  0
  -24.5540  -31.8300   23.2780 C   0  0  0  0  0  0  0  0  0  0  0  0
  -27.4070  -27.5840   20.1070 C   0  0  0  0  0  0  0  0  0  0  0  0
  -23.4370  -30.4740   21.5380 C   0  0  0  0  0  3  0  0  0  0  0  0
  -24.9750  -29.0380   20.0970 C   0  0  0  0  0  0  0  0  0  0  0  0
  -25.9580  -30.9040   21.4370 C   0  0  0  0  0  2  0  0  0  0  0  0
  -26.1020  -29.5640   20.7420 C   0  0  0  0  0  0  0  0  0  0  0  0
  -27.3200  -28.8460   20.7420 C   0  0  0  0  0  3  0  0  0  0  0  0
  -26.2620  -27.0780   19.4510 C   0  0  0  0  0  3  0  0  0  0  0  0
  -25.0510  -27.7940   19.4510 C   0  0  0  0  0  3  0  0  0  0  0  0
  -23.7100  -29.8660   20.1360 C   0  0  0  0  0  2  0  0  0  0  0  0
  -24.6670  -31.0810   22.1450 N   0  0  0  0  0  0  0  0  0  0  0  0
  -23.4480  -32.0510   23.7940 O   0  0  0  0  0  0  0  0  0  0  0  0
  -22.7810  -29.3930   22.4290 C   0  0  0  0  0  0  0  0  0  0  0  0
  -21.4610  -29.2060   22.2720 N   0  0  0  0  0  0  0  0  0  0  0  0
  -23.4590  -28.7290   23.2190 O   0  0  0  0  0  0  0  0  0  0  0  0
  -20.9760  -29.7930   21.6090 H   0  0  0  0  0  0  0  0  0  0  0  0
  -18.0860  -27.9840   22.6900 C   0  0  0  0  0  0  0  0  0  0  0  0
  -20.6440  -28.2190   22.9770 C   0  0  0  0  0  3  0  0  0  0  0  0
  -20.7410  -26.8280   22.3060 C   0  0  0  0  0  2  0  0  0  0  0  0
  -19.6390  -26.5740   21.2730 C   0  0  0  0  0  2  0  0  0  0  0  0
  -18.2600  -26.6810   21.9280 C   0  0  0  0  0  2  0  0  0  0  0  0
  -19.2070  -28.7110   23.1720 C   0  0  0  0  0  0  0  0  0  0  0  0
  -18.9920  -29.9330   23.8470 C   0  0  0  0  0  3  0  0  0  0  0  0
  -17.6890  -30.4280   24.0450 C   0  0  0  0  0  3  0  0  0  0  0  0
  -16.5830  -29.6940   23.5800 C   0  0  0  0  0  3  0  0  0  0  0  0
  -16.7810  -28.4770   22.9070 C   0  0  0  0  0  3  0  0  0  0  0  0
  -25.8020  -32.4670   23.9640 C   0  0  0  0  0  3  0  0  0  0  0  0
  -25.4770  -33.8690   24.2590 N   0  0  0  0  0  0  0  0  0  0  0  0
  -25.8310  -34.9090   23.4920 C   0  0  0  0  0  0  0  0  0  0  0  0
  -26.5360  -34.7890   22.4850 O   0  0  0  0  0  0  0  0  0  0  0  0
  -24.8610  -34.0360   25.0410 H   0  0  0  0  0  0  0  0  0  0  0  0
  -24.0990  -36.6770   23.0560 C   0  0  0  0  0  1  0  0  0  0  0  0
  -25.3230  -36.3030   23.9070 C   0  0  0  0  0  3  0  0  0  0  0  0
  -27.4190  -37.2320   24.7820 C   0  0  0  0  0  1  0  0  0  0  0  0
  -26.3500  -37.3610   23.7950 N   0  0  0  0  0  0  0  0  0  0  0  0
  -25.9330  -38.2810   23.9020 H   0  0  0  0  0  0  0  0  0  0  0  0
  -26.2440  -31.7090   25.2740 C   0  0  1  0  0  0  0  0  0  0  0  0
  -25.0900  -31.4710   26.2750 C   0  0  0  0  0  1  0  0  0  0  0  0
  -26.8560  -30.3330   24.9230 C   0  0  0  0  0  1  0  0  0  0  0  0
  -27.3490  -32.5130   25.9980 C   0  0  0  0  0  1  0  0  0  0  0  0
  -29.5200  -20.9620   20.8740 C   0  0  0  0  0  3  0  0  0  0  0  0
  -29.1280  -19.6570   20.1010 C   0  0  0  0  0  3  0  0  0  0  0  0
  -29.6090  -18.2850   20.7200 C   0  0  0  0  0  2  0  0  0  0  0  0
  -30.5690  -17.1550   20.1830 C   0  0  0  0  0  2  0  0  0  0  0  0
  -30.8500  -14.6800   20.0680 C   0  0  0  0  0  0  0  0  0  0  0  0
  -30.4870  -12.5140   18.9560 C   0  0  0  0  0  2  0  0  0  0  0  0
  -29.4920  -12.7320   17.7960 C   0  0  0  0  0  2  0  0  0  0  0  0
  -28.0400  -12.5950   18.2980 C   0  0  0  0  0  2  0  0  0  0  0  0
  -27.7670  -13.4160   19.5890 C   0  0  0  0  0  3  0  0  0  0  0  0
  -28.8820  -13.2080   20.6410 C   0  0  0  0  0  2  0  0  0  0  0  0
  -30.1700  -13.5030   19.9960 N   0  0  0  0  0  0  0  0  0  0  0  0
  -31.9820  -14.8230   19.5990 O   0  0  0  0  0  0  0  0  0  0  0  0
  -30.1410  -15.7610   20.4590 N   0  0  0  0  0  0  0  0  0  0  0  0
  -29.2060  -15.6040   20.8040 H   0  0  0  0  0  0  0  0  0  0  0  0
  -25.4160  -14.0010   20.4490 C   0  0  0  0  0  0  0  0  0  0  0  0
  -24.3690  -13.2200   20.8590 C   0  0  0  0  0  0  0  0  0  0  0  0
  -24.8270  -11.8690   20.7700 C   0  0  0  0  0  0  0  0  0  0  0  0
  -26.4450  -13.1270   20.1390 N   0  0  0  0  0  0  0  0  0  0  0  0
  -26.0980  -11.8380   20.3910 N   0  0  0  0  0  0  0  0  0  0  0  0
  -24.1100  -10.6020   20.9700 C   0  0  0  0  0  0  0  0  0  0  0  0
  -24.5570   -9.6420   21.9050 C   0  0  0  0  0  3  0  0  0  0  0  0
  -23.8420   -8.4390   22.0920 C   0  0  0  0  0  3  0  0  0  0  0  0
  -22.6670   -8.1870   21.3440 C   0  0  0  0  0  0  0  0  0  0  0  0
  -22.2390   -9.1350   20.3990 C   0  0  0  0  0  3  0  0  0  0  0  0
  -22.9530  -10.3310   20.2110 C   0  0  0  0  0  3  0  0  0  0  0  0
  -21.9220   -7.0370   21.4430 O   0  0  0  0  0  0  0  0  0  0  0  0
  -21.8510   -6.3230   22.6110 C   0  0  0  0  0  0  0  0  0  0  0  0
  -21.3380   -6.8870   23.8000 C   0  0  0  0  0  3  0  0  0  0  0  0
  -21.2190   -6.0960   24.9590 C   0  0  0  0  0  3  0  0  0  0  0  0
  -21.6010   -4.7410   24.9310 C   0  0  0  0  0  0  0  0  0  0  0  0
  -22.1060   -4.1760   23.7480 C   0  0  0  0  0  3  0  0  0  0  0  0
  -22.2290   -4.9650   22.5900 C   0  0  0  0  0  0  0  0  0  0  0  0
  -22.6970   -4.4100   21.4470 F   0  0  0  0  0  0  0  0  0  0  0  0
  -21.4770   -3.9790   26.0430 F   0  0  0  0  0  0  0  0  0  0  0  0
  -22.9900  -13.6910   21.2200 C   0  0  0  0  0  0  0  0  0  0  0  0
  -22.3100  -12.9700   22.1060 N   0  0  0  0  0  0  0  0  0  0  0  0
  -22.5260  -14.7310   20.7560 O   0  0  0  0  0  0  0  0  0  0  0  0
  -22.6950  -12.1250   22.5010 H   0  0  0  0  0  0  0  0  0  0  0  0
  -21.3890  -13.2680   22.3940 H   0  0  0  0  0  0  0  0  0  0  0  0
  -25.5750  -15.3740   20.2910 N   0  0  0  0  0  0  0  0  0  0  0  0
  -24.8230  -16.0330   20.4610 H   0  0  0  0  0  0  0  0  0  0  0  0
  -26.4040  -15.8130   19.9100 H   0  0  0  0  0  0  0  0  0  0  0  0
  1  2  1  0
  1 53  1  0
  1  8  1  0
  2  3  1  0
  3  6  1  0
  3  5  1  0
  4  2  2  0
  7  8  1  0
  7  9  2  0
  8 10  1  0
 11 12  1  0
 11  7  1  0
 13 24  2  0
 14 12  1  0
 14 19  1  0
 15 23  1  0
 15 25  1  0
 16 22  1  0
 16 18  1  0
 17 23  1  0
 18 17  1  0
 19 18  2  0
 20 14  2  0
 21 20  1  0
 21 16  2  0
 22 15  1  0
 23 13  1  0
 25 27  2  0
 26 25  1  0
 28 26  1  0
 29 38  2  0
 29 34  1  0
 30 26  1  0
 30 34  1  0
 31 30  1  0
 32 33  1  0
 32 31  1  0
 33 29  1  0
 34 35  2  0
 35 36  1  0
 37 36  2  0
 38 37  1  0
 39 13  1  0
 39 40  1  0
 39 49  1  0
 40 43  1  0
 41 45  1  0
 41 40  1  0
 42 41  2  0
 45 44  1  0
 47 48  1  0
 47 45  1  0
 47 46  1  0
 49 52  1  1
 49 50  1  0
 51 49  1  0
 54 55  1  0
 54 53  2  0
 56 65  1  0
 56 55  1  0
 57 65  1  0
 58 63  1  0
 59 60  1  0
 59 58  1  0
 61 60  1  0
 61 70  1  0
 61 62  1  0
 63 57  1  0
 63 62  1  0
 64 57  2  0
 65 66  1  0
 67 68  2  0
 68 87  1  0
 69 68  1  0
 69 72  1  0
 70 71  1  0
 70 67  1  0
 71 69  2  0
 72 73  1  0
 73 74  2  0
 75 78  1  0
 75 74  1  0
 76 75  2  0
 77 76  1  0
 77 72  2  0
 78 79  1  0
 79 80  1  0
 80 81  2  0
 82 81  1  0
 82 86  1  0
 83 82  2  0
 84 79  2  0
 84 83  1  0
 85 84  1  0
 87 88  1  0
 88 91  1  0
 88 90  1  0
 89 87  2  0
 92 67  1  0
 92 93  1  0
 94 92  1  0
M  ISO  4  11 101  12 101  57 100  65 100
M  END
>  <TORSDO>  (79) 
F 23

>  <SCORE>  (79) 
-12.721

>  <name>  (79) 
80

>  <ligand_id>  (79) 
80

>  <original_smiles>  (79) 
[H]c1c([H])c([H])c2c(c1[H])C([H])([H])C([H])([H])C([H])([H])C2([H])N([H])C(=O)C1([H])N(C(=O)C([H])(N([H])C(=O)C([H])(N([H])C([H])([H])[H])C([H])([H])[H])C(C([H])([H])[H])(C([H])([H])[H])C([H])([H])[H])C([H])([H])c2c([H])c(OC([H])([H])C(=O)N([H])C([H])(C(=O)N([H])[H])C([H])([H])C([H])([H])C([H])([H])C([H])([H])N([H])C(=O)N3C([H])([H])C([H])([H])C([H])([H])C([H])(n4nc(-c5c([H])c([H])c(Oc6c([H])c([H])c(F)c([H])c6F)c([H])c5[H])c(C(=O)N([H])[H])c4N([H])[H])C3([H])[H])c([H])c([H])c2C1([H])[H]

>  <smiles>  (79) 
[H]c1c([H])c([H])c2c(c1[H])C([H])([H])C([H])([H])C([H])([H])C2([H])N([H])C(=O)C1([H])N(C(=O)C([H])(N([H])C(=O)C([H])(N([H])C([H])([H])[H])C([H])([H])[H])C(C([H])([H])[H])(C([H])([H])[H])C([H])([H])[H])C([H])([H])c2c([H])c(OC([H])([H])C(=O)N([H])C([H])(C(=O)N([H])[H])C([H])([H])C([H])([H])C([H])([H])C([H])([H])N([H])C(=O)N3C([H])([H])C([H])([H])C([H])([H])C([H])(n4nc(-c5c([H])c([H])c(Oc6c([H])c([H])c(F)c([H])c6F)c([H])c5[H])c(C(=O)N([H])[H])c4N([H])[H])C3([H])[H])c([H])c([H])c2C1([H])[H]

$$$$
81:0:0
     RDKit          3D

 93100  0  0  1  0  0  0  0  0999 V2000
  -29.0030  -21.2250   20.6670 C   0  0  0  0  0  0  0  0  0  0  0  0
  -29.2120  -22.5510   20.2990 N   0  0  0  0  0  0  0  0  0  0  0  0
  -27.9870  -20.8920   21.2760 O   0  0  0  0  0  0  0  0  0  0  0  0
  -30.1110  -22.7060   19.8610 H   0  0  0  0  0  0  0  0  0  0  0  0
  -30.0550  -20.0860   20.2510 C   0  0  0  0  0  2  0  0  0  0  0  0
  -30.2420  -18.5890   20.9070 C   0  0  0  0  0  2  0  0  0  0  0  0
  -29.2260  -17.3550   20.7280 C   0  0  0  0  0  0  0  0  0  0  0  0
  -30.5150  -14.9350   20.3610 C   0  0  0  0  0  0  0  0  0  0  0  0
  -30.4260  -12.7440   19.1470 C   0  0  0  0  0  2  0  0  0  0  0  0
  -29.4040  -12.8820   17.9870 C   0  0  0  0  0  2  0  0  0  0  0  0
  -27.9530  -12.6590   18.4680 C   0  0  0  0  0  2  0  0  0  0  0  0
  -27.6410  -13.4240   19.7810 C   0  0  0  0  0  3  0  0  0  0  0  0
  -28.7510  -13.1830   20.8310 C   0  0  0  0  0  2  0  0  0  0  0  0
  -30.0110  -13.6560   20.2380 N   0  0  0  0  0  0  0  0  0  0  0  0
  -31.6310  -15.2120   19.9100 O   0  0  0  0  0  0  0  0  0  0  0  0
  -29.6030  -15.8670   20.8290 N   0  0  0  0  0  4  0  0  0  0  0  0
  -28.8240  -15.3580   21.2190 H   0  0  0  0  0  0  0  0  0  0  0  0
  -25.2640  -13.9660   20.5920 C   0  0  0  0  0  0  0  0  0  0  0  0
  -24.2190  -13.1630   20.9640 C   0  0  0  0  0  0  0  0  0  0  0  0
  -24.7020  -11.8240   20.8750 C   0  0  0  0  0  0  0  0  0  0  0  0
  -26.3150  -13.1100   20.3000 N   0  0  0  0  0  0  0  0  0  0  0  0
  -25.9830  -11.8130   20.5290 N   0  0  0  0  0  0  0  0  0  0  0  0
  -24.0040  -10.5450   21.0540 C   0  0  0  0  0  0  0  0  0  0  0  0
  -24.4540   -9.5840   21.9860 C   0  0  0  0  0  3  0  0  0  0  0  0
  -23.7590   -8.3680   22.1530 C   0  0  0  0  0  3  0  0  0  0  0  0
  -22.5950   -8.1060   21.3910 C   0  0  0  0  0  0  0  0  0  0  0  0
  -22.1620   -9.0580   20.4510 C   0  0  0  0  0  3  0  0  0  0  0  0
  -22.8590  -10.2650   20.2820 C   0  0  0  0  0  3  0  0  0  0  0  0
  -21.8680   -6.9430   21.4710 O   0  0  0  0  0  0  0  0  0  0  0  0
  -21.8000   -6.2120   22.6280 C   0  0  0  0  0  0  0  0  0  0  0  0
  -21.2790   -6.7550   23.8250 C   0  0  0  0  0  3  0  0  0  0  0  0
  -21.1590   -5.9440   24.9710 C   0  0  0  0  0  3  0  0  0  0  0  0
  -21.5550   -4.5950   24.9230 C   0  0  0  0  0  0  0  0  0  0  0  0
  -22.0710   -4.0530   23.7320 C   0  0  0  0  0  3  0  0  0  0  0  0
  -22.1870   -4.8590   22.5880 C   0  0  0  0  0  0  0  0  0  0  0  0
  -22.6650   -4.3270   21.4370 F   0  0  0  0  0  0  0  0  0  0  0  0
  -21.4330   -3.8140   26.0220 F   0  0  0  0  0  0  0  0  0  0  0  0
  -22.8270  -13.6100   21.3000 C   0  0  0  0  0  0  0  0  0  0  0  0
  -22.1410  -12.8670   22.1630 N   0  0  0  0  0  0  0  0  0  0  0  0
  -22.3580  -14.6520   20.8410 O   0  0  0  0  0  0  0  0  0  0  0  0
  -22.5430  -12.0320   22.5640 H   0  0  0  0  0  0  0  0  0  0  0  0
  -21.2120  -13.1490   22.4400 H   0  0  0  0  0  0  0  0  0  0  0  0
  -25.3810  -15.3450   20.4690 N   0  0  0  0  0  0  0  0  0  0  0  0
  -24.5640  -15.9320   20.5940 H   0  0  0  0  0  0  0  0  0  0  0  0
  -26.2020  -15.8720   20.1910 H   0  0  0  0  0  0  0  0  0  0  0  0
  -28.1630  -17.5660   19.6430 C   0  0  0  0  0  0  0  0  0  0  0  0
  -26.9950  -18.0840   20.0120 N   0  0  0  0  0  0  0  0  0  0  0  0
  -28.3900  -17.2640   18.4740 O   0  0  0  0  0  0  0  0  0  0  0  0
  -26.8310  -18.3440   20.9770 H   0  0  0  0  0  0  0  0  0  0  0  0
  -26.2750  -18.2850   19.3310 H   0  0  0  0  0  0  0  0  0  0  0  0
  -28.2540  -23.7470   20.1490 C   0  0  0  0  0  2  0  0  0  0  0  0
  -28.5930  -25.1990   20.7980 C   0  0  0  0  0  2  0  0  0  0  0  0
  -28.4310  -26.5510   20.1500 O   0  0  0  0  0  0  0  0  0  0  0  0
  -24.5950  -31.9450   23.2290 C   0  0  0  0  0  0  0  0  0  0  0  0
  -27.2750  -27.3570   20.2270 C   0  0  0  0  0  0  0  0  0  0  0  0
  -23.4210  -30.5390   21.5730 C   0  0  0  0  0  3  0  0  0  0  0  0
  -24.8980  -28.9730   20.1850 C   0  0  0  0  0  0  0  0  0  0  0  0
  -25.9620  -30.8600   21.4200 C   0  0  0  0  0  2  0  0  0  0  0  0
  -26.0600  -29.4740   20.7840 C   0  0  0  0  0  0  0  0  0  0  0  0
  -27.2520  -28.6800   20.7850 C   0  0  0  0  0  3  0  0  0  0  0  0
  -26.0830  -26.9030   19.6270 C   0  0  0  0  0  3  0  0  0  0  0  0
  -24.9120  -27.6930   19.6000 C   0  0  0  0  0  3  0  0  0  0  0  0
  -23.6620  -29.8540   20.2020 C   0  0  0  0  0  2  0  0  0  0  0  0
  -24.6790  -31.1350   22.1320 N   0  0  0  0  0  0  0  0  0  0  0  0
  -23.5030  -32.2180   23.7500 O   0  0  0  0  0  0  0  0  0  0  0  0
  -22.7470  -29.5240   22.5290 C   0  0  0  0  0  0  0  0  0  0  0  0
  -21.4260  -29.3260   22.3740 N   0  0  0  0  0  0  0  0  0  0  0  0
  -23.4150  -28.9120   23.3680 O   0  0  0  0  0  0  0  0  0  0  0  0
  -20.9450  -29.8720   21.6730 H   0  0  0  0  0  0  0  0  0  0  0  0
  -18.0630  -28.0600   22.7970 C   0  0  0  0  0  0  0  0  0  0  0  0
  -20.6060  -28.3780   23.1310 C   0  0  0  0  0  3  0  0  0  0  0  0
  -20.7560  -26.9450   22.5720 C   0  0  0  0  0  2  0  0  0  0  0  0
  -19.6890  -26.5850   21.5340 C   0  0  0  0  0  2  0  0  0  0  0  0
  -18.2850  -26.7090   22.1370 C   0  0  0  0  0  2  0  0  0  0  0  0
  -19.1530  -28.8490   23.2500 C   0  0  0  0  0  0  0  0  0  0  0  0
  -18.8930  -30.1120   23.8260 C   0  0  0  0  0  3  0  0  0  0  0  0
  -17.5740  -30.5870   23.9530 C   0  0  0  0  0  3  0  0  0  0  0  0
  -16.4970  -29.7950   23.5170 C   0  0  0  0  0  3  0  0  0  0  0  0
  -16.7420  -28.5330   22.9470 C   0  0  0  0  0  3  0  0  0  0  0  0
  -25.8650  -32.5860   23.8730 C   0  0  0  0  0  3  0  0  0  0  0  0
  -25.5520  -33.9880   24.1840 N   0  0  0  0  0  0  0  0  0  0  0  0
  -25.8970  -35.0360   23.4230 C   0  0  0  0  0  0  0  0  0  0  0  0
  -26.5870  -34.9240   22.4060 O   0  0  0  0  0  0  0  0  0  0  0  0
  -24.9600  -34.1540   24.9850 H   0  0  0  0  0  0  0  0  0  0  0  0
  -24.1950  -36.8390   23.0110 C   0  0  0  0  0  1  0  0  0  0  0  0
  -25.4050  -36.4280   23.8650 C   0  0  0  0  0  3  0  0  0  0  0  0
  -27.5110  -37.3070   24.7730 C   0  0  0  0  0  1  0  0  0  0  0  0
  -26.4480  -37.4740   23.7860 N   0  0  0  0  0  0  0  0  0  0  0  0
  -26.0400  -38.3960   23.9130 H   0  0  0  0  0  0  0  0  0  0  0  0
  -26.3590  -31.8320   25.1680 C   0  0  1  0  0  0  0  0  0  0  0  0
  -25.2420  -31.6100   26.2160 C   0  0  0  0  0  1  0  0  0  0  0  0
  -26.9530  -30.4520   24.8050 C   0  0  0  0  0  1  0  0  0  0  0  0
  -27.4880  -32.6430   25.8500 C   0  0  0  0  0  1  0  0  0  0  0  0
  1  3  2  0
  2  1  1  0
  4  2  1  0
  5  1  1  0
  5  6  1  0
  7 16  2  0
  7  6  1  0
  8 16  1  0
  9 14  1  0
 10 11  1  0
 10  9  1  0
 12 11  1  0
 12 21  1  0
 12 13  1  0
 14  8  1  0
 14 13  1  0
 15  8  2  0
 16 17  1  0
 18 19  2  0
 19 38  1  0
 20 19  1  0
 20 23  1  0
 21 22  1  0
 21 18  1  0
 22 20  2  0
 23 24  1  0
 24 25  2  0
 26 29  1  0
 26 25  1  0
 27 26  2  0
 28 27  1  0
 28 23  2  0
 29 30  1  0
 30 31  1  0
 31 32  2  0
 33 32  1  0
 33 37  1  0
 34 33  2  0
 35 30  2  0
 35 34  1  0
 36 35  1  0
 38 39  1  0
 39 42  1  0
 39 41  1  0
 40 38  2  0
 43 18  1  0
 43 44  1  0
 45 43  1  0
 46 47  1  0
 46  7  1  0
 47 49  1  0
 48 46  2  0
 50 47  1  0
 51  2  1  0
 51 52  1  0
 53 55  1  0
 53 52  1  0
 54 65  2  0
 55 60  1  0
 56 64  1  0
 56 66  1  0
 57 63  1  0
 57 59  1  0
 58 64  1  0
 59 60  2  0
 59 58  1  0
 61 55  2  0
 62 61  1  0
 62 57  2  0
 63 56  1  0
 64 54  1  0
 66 68  2  0
 67 66  1  0
 69 67  1  0
 70 79  2  0
 70 75  1  0
 71 67  1  0
 71 75  1  0
 72 71  1  0
 73 74  1  0
 73 72  1  0
 74 70  1  0
 75 76  2  0
 76 77  1  0
 78 77  2  0
 79 78  1  0
 80 54  1  0
 80 81  1  0
 80 90  1  0
 81 84  1  0
 82 86  1  0
 82 81  1  0
 83 82  2  0
 86 85  1  0
 88 86  1  0
 88 89  1  0
 88 87  1  0
 90 93  1  1
 90 91  1  0
 92 90  1  0
M  ISO  4   8 100  16 100  52 101  53 101
M  END
>  <TORSDO>  (80) 
F 22

>  <SCORE>  (80) 
-13.323

>  <name>  (80) 
81

>  <ligand_id>  (80) 
81

>  <original_smiles>  (80) 
[H]c1c([H])c([H])c2c(c1[H])C([H])([H])C([H])([H])C([H])([H])C2([H])N([H])C(=O)C1([H])N(C(=O)C([H])(N([H])C(=O)C([H])(N([H])C([H])([H])[H])C([H])([H])[H])C(C([H])([H])[H])(C([H])([H])[H])C([H])([H])[H])C([H])([H])c2c([H])c(OC([H])([H])C([H])([H])N([H])C(=O)C([H])([H])C([H])([H])C([H])(C(=O)N([H])[H])N([H])C(=O)N3C([H])([H])C([H])([H])C([H])([H])C([H])(n4nc(-c5c([H])c([H])c(Oc6c([H])c([H])c(F)c([H])c6F)c([H])c5[H])c(C(=O)N([H])[H])c4N([H])[H])C3([H])[H])c([H])c([H])c2C1([H])[H]

>  <smiles>  (80) 
[H]c1c([H])c([H])c2c(c1[H])C([H])([H])C([H])([H])C([H])([H])C2([H])N([H])C(=O)C1([H])N(C(=O)C([H])(N([H])C(=O)C([H])(N([H])C([H])([H])[H])C([H])([H])[H])C(C([H])([H])[H])(C([H])([H])[H])C([H])([H])[H])C([H])([H])c2c([H])c(OC([H])([H])C([H])([H])N([H])C(=O)C([H])([H])C([H])([H])C([H])(C(=O)N([H])[H])N([H])C(=O)N3C([H])([H])C([H])([H])C([H])([H])C([H])(n4nc(-c5c([H])c([H])c(Oc6c([H])c([H])c(F)c([H])c6F)c([H])c5[H])c(C(=O)N([H])[H])c4N([H])[H])C3([H])[H])c([H])c([H])c2C1([H])[H]

$$$$
82:0:0
     RDKit          3D

 98106  0  0  1  0  0  0  0  0999 V2000
  -29.7440  -20.8730   20.0010 C   0  0  0  0  0  0  0  0  0  0  0  0
  -30.0500  -19.5460   20.1210 N   0  0  0  0  0  0  0  0  0  0  0  0
  -30.5780  -21.6110   19.4770 O   0  0  0  0  0  0  0  0  0  0  0  0
  -30.9950  -19.3510   19.8240 H   0  0  0  0  0  0  0  0  0  0  0  0
  -28.5030  -22.1300   21.9090 C   0  0  0  0  0  2  0  0  0  0  0  0
  -28.6820  -23.6520   21.7440 C   0  0  0  0  0  2  0  0  0  0  0  0
  -28.4260  -21.5510   20.4810 C   0  0  0  0  0  3  0  0  0  0  0  0
  -27.9950  -24.0170   20.4140 C   0  0  0  0  0  3  0  0  0  0  0  0
  -28.0320  -22.7250   19.6370 N   0  0  0  0  0  4  0  0  0  0  0  0
  -27.1780  -22.5540   19.1350 H   0  0  0  0  0  0  0  0  0  0  0  0
  -28.7850  -22.7730   18.9650 H   0  0  0  0  0  0  0  0  0  0  0  0
  -28.5960  -25.2820   19.6730 C   0  0  0  0  0  2  0  0  0  0  0  0
  -28.4540  -26.6170   20.2640 O   0  0  0  0  0  0  0  0  0  0  0  0
  -24.6200  -31.8770   23.2470 C   0  0  0  0  0  0  0  0  0  0  0  0
  -27.2830  -27.3740   20.1890 C   0  0  0  0  0  0  0  0  0  0  0  0
  -23.4270  -30.4730   21.5980 C   0  0  0  0  0  3  0  0  0  0  0  0
  -24.8930  -28.9280   20.1770 C   0  0  0  0  0  0  0  0  0  0  0  0
  -25.9600  -30.8160   21.4190 C   0  0  0  0  0  2  0  0  0  0  0  0
  -26.0490  -29.4400   20.7770 C   0  0  0  0  0  0  0  0  0  0  0  0
  -27.2420  -28.6710   20.7770 C   0  0  0  0  0  3  0  0  0  0  0  0
  -26.1060  -26.8970   19.5740 C   0  0  0  0  0  3  0  0  0  0  0  0
  -24.9210  -27.6600   19.5690 C   0  0  0  0  0  3  0  0  0  0  0  0
  -23.6460  -29.7850   20.2230 C   0  0  0  0  0  2  0  0  0  0  0  0
  -24.6880  -31.0750   22.1440 N   0  0  0  0  0  0  0  0  0  0  0  0
  -23.5350  -32.1480   23.7790 O   0  0  0  0  0  0  0  0  0  0  0  0
  -22.7690  -29.4550   22.5600 C   0  0  0  0  0  0  0  0  0  0  0  0
  -21.4430  -29.2740   22.4300 N   0  0  0  0  0  0  0  0  0  0  0  0
  -23.4490  -28.8280   23.3780 O   0  0  0  0  0  0  0  0  0  0  0  0
  -20.9550  -29.8300   21.7400 H   0  0  0  0  0  0  0  0  0  0  0  0
  -18.0640  -28.0890   22.9340 C   0  0  0  0  0  0  0  0  0  0  0  0
  -20.6240  -28.3340   23.1980 C   0  0  0  0  0  3  0  0  0  0  0  0
  -20.7190  -26.9070   22.6100 C   0  0  0  0  0  2  0  0  0  0  0  0
  -19.6120  -26.5980   21.5980 C   0  0  0  0  0  2  0  0  0  0  0  0
  -18.2330  -26.7450   22.2470 C   0  0  0  0  0  2  0  0  0  0  0  0
  -19.1880  -28.8420   23.3660 C   0  0  0  0  0  0  0  0  0  0  0  0
  -18.9770  -30.1020   23.9690 C   0  0  0  0  0  3  0  0  0  0  0  0
  -17.6740  -30.6080   24.1430 C   0  0  0  0  0  3  0  0  0  0  0  0
  -16.5650  -29.8490   23.7280 C   0  0  0  0  0  3  0  0  0  0  0  0
  -16.7610  -28.5920   23.1300 C   0  0  0  0  0  3  0  0  0  0  0  0
  -25.8980  -32.5150   23.8760 C   0  0  0  0  0  3  0  0  0  0  0  0
  -25.5850  -33.9140   24.1980 N   0  0  0  0  0  0  0  0  0  0  0  0
  -25.9190  -34.9640   23.4350 C   0  0  0  0  0  0  0  0  0  0  0  0
  -26.5910  -34.8560   22.4070 O   0  0  0  0  0  0  0  0  0  0  0  0
  -24.9910  -34.0700   24.9990 H   0  0  0  0  0  0  0  0  0  0  0  0
  -24.1920  -36.7530   23.0640 C   0  0  0  0  0  1  0  0  0  0  0  0
  -25.4280  -36.3530   23.8860 C   0  0  0  0  0  3  0  0  0  0  0  0
  -27.5530  -37.2440   24.7330 C   0  0  0  0  0  1  0  0  0  0  0  0
  -26.4610  -37.4060   23.7760 N   0  0  0  0  0  0  0  0  0  0  0  0
  -26.0540  -38.3270   23.9150 H   0  0  0  0  0  0  0  0  0  0  0  0
  -26.4060  -31.7520   25.1620 C   0  0  1  0  0  0  0  0  0  0  0  0
  -25.3030  -31.5180   26.2220 C   0  0  0  0  0  1  0  0  0  0  0  0
  -26.9960  -30.3740   24.7810 C   0  0  0  0  0  1  0  0  0  0  0  0
  -27.5500  -32.5530   25.8280 C   0  0  0  0  0  1  0  0  0  0  0  0
  -29.3000  -18.2980   20.4740 C   0  0  0  0  0  3  0  0  0  0  0  0
  -28.4060  -17.8600   19.2910 C   0  0  0  0  0  0  0  0  0  0  0  0
  -28.6360  -18.3790   18.0870 N   0  0  0  0  0  0  0  0  0  0  0  0
  -27.4870  -17.0610   19.4610 O   0  0  0  0  0  0  0  0  0  0  0  0
  -29.4270  -18.9930   17.9480 H   0  0  0  0  0  0  0  0  0  0  0  0
  -28.0680  -18.1130   17.2960 H   0  0  0  0  0  0  0  0  0  0  0  0
  -30.3410  -17.1370   20.8310 C   0  0  0  0  0  2  0  0  0  0  0  0
  -30.6140  -14.6100   20.4680 C   0  0  0  0  0  0  0  0  0  0  0  0
  -30.3410  -12.4100   19.3670 C   0  0  0  0  0  2  0  0  0  0  0  0
  -29.4000  -12.5690   18.1560 C   0  0  0  0  0  2  0  0  0  0  0  0
  -27.9310  -12.4000   18.5920 C   0  0  0  0  0  2  0  0  0  0  0  0
  -27.5760  -13.2660   19.8310 C   0  0  0  0  0  3  0  0  0  0  0  0
  -28.6350  -13.1100   20.9460 C   0  0  0  0  0  2  0  0  0  0  0  0
  -29.9480  -13.4210   20.3670 N   0  0  0  0  0  0  0  0  0  0  0  0
  -31.7660  -14.7400   20.0490 O   0  0  0  0  0  0  0  0  0  0  0  0
  -29.8970  -15.6980   20.8720 N   0  0  0  0  0  0  0  0  0  0  0  0
  -28.9520  -15.5240   21.1830 H   0  0  0  0  0  0  0  0  0  0  0  0
  -25.1880  -13.8670   20.5680 C   0  0  0  0  0  0  0  0  0  0  0  0
  -24.1200  -13.0940   20.9330 C   0  0  0  0  0  0  0  0  0  0  0  0
  -24.5760  -11.7420   20.8880 C   0  0  0  0  0  0  0  0  0  0  0  0
  -26.2290  -12.9860   20.3180 N   0  0  0  0  0  0  0  0  0  0  0  0
  -25.8650  -11.7000   20.5710 N   0  0  0  0  0  0  0  0  0  0  0  0
  -23.8420  -10.4820   21.0700 C   0  0  0  0  0  0  0  0  0  0  0  0
  -24.2680   -9.5090   21.9990 C   0  0  0  0  0  3  0  0  0  0  0  0
  -23.5390   -8.3130   22.1690 C   0  0  0  0  0  3  0  0  0  0  0  0
  -22.3670   -8.0820   21.4100 C   0  0  0  0  0  0  0  0  0  0  0  0
  -21.9580   -9.0430   20.4700 C   0  0  0  0  0  3  0  0  0  0  0  0
  -22.6880  -10.2320   20.2980 C   0  0  0  0  0  3  0  0  0  0  0  0
  -21.6080   -6.9390   21.4930 O   0  0  0  0  0  0  0  0  0  0  0  0
  -21.5470   -6.1960   22.6440 C   0  0  0  0  0  0  0  0  0  0  0  0
  -21.0880   -6.7430   23.8630 C   0  0  0  0  0  3  0  0  0  0  0  0
  -20.9780   -5.9270   25.0050 C   0  0  0  0  0  3  0  0  0  0  0  0
  -21.3130   -4.5610   24.9290 C   0  0  0  0  0  0  0  0  0  0  0  0
  -21.7610   -4.0120   23.7150 C   0  0  0  0  0  3  0  0  0  0  0  0
  -21.8760   -4.8270   22.5750 C   0  0  0  0  0  0  0  0  0  0  0  0
  -22.2910   -4.2890   21.4030 F   0  0  0  0  0  0  0  0  0  0  0  0
  -21.1960   -3.7730   26.0220 F   0  0  0  0  0  0  0  0  0  0  0  0
  -22.7270  -13.5780   21.2160 C   0  0  0  0  0  0  0  0  0  0  0  0
  -21.9930  -12.8740   22.0710 N   0  0  0  0  0  0  0  0  0  0  0  0
  -22.2940  -14.6140   20.7110 O   0  0  0  0  0  0  0  0  0  0  0  0
  -22.3490  -12.0350   22.5060 H   0  0  0  0  0  0  0  0  0  0  0  0
  -21.0570  -13.1820   22.2980 H   0  0  0  0  0  0  0  0  0  0  0  0
  -25.3490  -15.2390   20.4060 N   0  0  0  0  0  0  0  0  0  0  0  0
  -24.5750  -15.8810   20.5270 H   0  0  0  0  0  0  0  0  0  0  0  0
  -26.1840  -15.7080   20.0530 H   0  0  0  0  0  0  0  0  0  0  0  0
  1  2  1  0
  2 54  1  0
  3  1  2  0
  4  2  1  0
  6  5  1  0
  7  1  1  0
  7  5  1  0
  8 12  1  0
  8  6  1  0
  9  8  1  0
  9  7  1  0
 10  9  1  0
 11  9  1  0
 12 13  1  0
 14 25  2  0
 15 13  1  0
 15 20  1  0
 16 24  1  0
 16 26  1  0
 17 23  1  0
 17 19  1  0
 18 24  1  0
 19 18  1  0
 20 19  2  0
 21 15  2  0
 22 21  1  0
 22 17  2  0
 23 16  1  0
 24 14  1  0
 26 28  2  0
 27 26  1  0
 29 27  1  0
 30 39  2  0
 30 35  1  0
 31 27  1  0
 31 35  1  0
 32 31  1  0
 33 34  1  0
 33 32  1  0
 34 30  1  0
 35 36  2  0
 36 37  1  0
 38 37  2  0
 39 38  1  0
 40 14  1  0
 40 41  1  0
 40 50  1  0
 41 44  1  0
 42 46  1  0
 42 41  1  0
 43 42  2  0
 46 45  1  0
 48 46  1  0
 48 49  1  0
 48 47  1  0
 50 53  1  1
 50 51  1  0
 52 50  1  0
 54 60  1  0
 55 57  2  0
 55 54  1  0
 56 55  1  0
 58 56  1  0
 59 56  1  0
 60 69  1  0
 61 69  1  0
 62 67  1  0
 63 64  1  0
 63 62  1  0
 65 64  1  0
 65 74  1  0
 65 66  1  0
 67 61  1  0
 67 66  1  0
 68 61  2  0
 69 70  1  0
 71 72  2  0
 72 91  1  0
 73 72  1  0
 73 76  1  0
 74 71  1  0
 74 75  1  0
 75 73  2  0
 76 77  1  0
 77 78  2  0
 79 82  1  0
 79 78  1  0
 80 79  2  0
 81 80  1  0
 81 76  2  0
 82 83  1  0
 83 84  1  0
 84 85  2  0
 86 85  1  0
 86 90  1  0
 87 86  2  0
 88 83  2  0
 88 87  1  0
 89 88  1  0
 91 92  1  0
 92 95  1  0
 92 94  1  0
 93 91  2  0
 96 97  1  0
 96 71  1  0
 98 96  1  0
M  ISO  4  12 101  13 101  61 100  69 100
M  END
>  <TORSDO>  (81) 
F 21

>  <SCORE>  (81) 
-13.858

>  <name>  (81) 
82

>  <ligand_id>  (81) 
82

>  <original_smiles>  (81) 
[H]c1c([H])c([H])c2c(c1[H])C([H])([H])C([H])([H])C([H])([H])C2([H])N([H])C(=O)C1([H])N(C(=O)C([H])(N([H])C(=O)C([H])(N([H])C([H])([H])[H])C([H])([H])[H])C(C([H])([H])[H])(C([H])([H])[H])C([H])([H])[H])C([H])([H])c2c([H])c(OC([H])([H])C3([H])C([H])([H])C([H])([H])C([H])(C(=O)N([H])C([H])(C(=O)N([H])[H])C([H])([H])N([H])C(=O)N4C([H])([H])C([H])([H])C([H])([H])C([H])(n5nc(-c6c([H])c([H])c(Oc7c([H])c([H])c(F)c([H])c7F)c([H])c6[H])c(C(=O)N([H])[H])c5N([H])[H])C4([H])[H])[N+]3([H])[H])c([H])c([H])c2C1([H])[H]

>  <smiles>  (81) 
[H]c1c([H])c([H])c2c(c1[H])C([H])([H])C([H])([H])C([H])([H])C2([H])N([H])C(=O)C1([H])N(C(=O)C([H])(N([H])C(=O)C([H])(N([H])C([H])([H])[H])C([H])([H])[H])C(C([H])([H])[H])(C([H])([H])[H])C([H])([H])[H])C([H])([H])c2c([H])c(OC([H])([H])C3([H])C([H])([H])C([H])([H])C([H])(C(=O)N([H])C([H])(C(=O)N([H])[H])C([H])([H])N([H])C(=O)N4C([H])([H])C([H])([H])C([H])([H])C([H])(n5nc(-c6c([H])c([H])c(Oc7c([H])c([H])c(F)c([H])c7F)c([H])c6[H])c(C(=O)N([H])[H])c5N([H])[H])C4([H])[H])[N+]3([H])[H])c([H])c([H])c2C1([H])[H]

$$$$
83:0:0
     RDKit          3D

 97104  0  0  1  0  0  0  0  0999 V2000
  -30.7270  -22.2810   20.3530 C   0  0  0  0  0  0  0  0  0  0  0  0
  -29.9640  -21.1890   20.4020 N   0  0  0  0  0  0  0  0  0  0  0  0
  -30.4040  -23.0500   19.3120 N   0  0  0  0  0  0  0  0  0  0  0  0
  -31.6290  -22.5290   21.1520 O   0  0  0  0  0  0  0  0  0  0  0  0
  -29.2050  -21.1170   19.7400 H   0  0  0  0  0  0  0  0  0  0  0  0
  -29.7280  -22.6790   18.6610 H   0  0  0  0  0  0  0  0  0  0  0  0
  -30.1550  -20.0270   21.2540 C   0  0  0  0  0  2  0  0  0  0  0  0
  -31.2950  -19.1480   20.7040 C   0  0  0  0  0  2  0  0  0  0  0  0
  -31.2400  -17.6790   21.1560 C   0  0  0  0  0  2  0  0  0  0  0  0
  -29.9380  -16.9340   20.7570 C   0  0  0  0  0  3  0  0  0  0  0  0
  -30.7320  -14.5540   20.8150 C   0  0  0  0  0  0  0  0  0  0  0  0
  -30.4770  -12.4610   19.5780 C   0  0  0  0  0  2  0  0  0  0  0  0
  -29.5630  -12.7500   18.3700 C   0  0  0  0  0  2  0  0  0  0  0  0
  -28.0720  -12.6170   18.7470 C   0  0  0  0  0  2  0  0  0  0  0  0
  -27.7130  -13.3830   20.0460 C   0  0  0  0  0  3  0  0  0  0  0  0
  -28.7340  -13.0710   21.1690 C   0  0  0  0  0  2  0  0  0  0  0  0
  -30.0860  -13.3740   20.6580 N   0  0  0  0  0  0  0  0  0  0  0  0
  -31.8850  -14.7580   20.4220 O   0  0  0  0  0  0  0  0  0  0  0  0
  -29.9110  -15.5400   21.1880 N   0  0  0  0  0  0  0  0  0  0  0  0
  -29.0040  -15.2190   21.4930 H   0  0  0  0  0  0  0  0  0  0  0  0
  -25.2830  -13.9810   20.6520 C   0  0  0  0  0  0  0  0  0  0  0  0
  -24.2060  -13.2060   20.9870 C   0  0  0  0  0  0  0  0  0  0  0  0
  -24.6710  -11.8560   20.9610 C   0  0  0  0  0  0  0  0  0  0  0  0
  -26.3420  -13.1060   20.4660 N   0  0  0  0  0  0  0  0  0  0  0  0
  -25.9720  -11.8220   20.7000 N   0  0  0  0  0  0  0  0  0  0  0  0
  -23.9420  -10.5900   21.1110 C   0  0  0  0  0  0  0  0  0  0  0  0
  -24.3370   -9.6230   22.0600 C   0  0  0  0  0  3  0  0  0  0  0  0
  -23.6130   -8.4180   22.1970 C   0  0  0  0  0  3  0  0  0  0  0  0
  -22.4830   -8.1730   21.3830 C   0  0  0  0  0  0  0  0  0  0  0  0
  -22.1070   -9.1300   20.4250 C   0  0  0  0  0  3  0  0  0  0  0  0
  -22.8310  -10.3250   20.2860 C   0  0  0  0  0  3  0  0  0  0  0  0
  -21.7360   -7.0210   21.4290 O   0  0  0  0  0  0  0  0  0  0  0  0
  -21.6140   -6.2900   22.5820 C   0  0  0  0  0  0  0  0  0  0  0  0
  -21.0450   -6.8350   23.7520 C   0  0  0  0  0  3  0  0  0  0  0  0
  -20.8690   -6.0250   24.8940 C   0  0  0  0  0  3  0  0  0  0  0  0
  -21.2580   -4.6720   24.8650 C   0  0  0  0  0  0  0  0  0  0  0  0
  -21.8240   -4.1270   23.6980 C   0  0  0  0  0  3  0  0  0  0  0  0
  -21.9980   -4.9330   22.5590 C   0  0  0  0  0  0  0  0  0  0  0  0
  -22.5220   -4.3960   21.4290 F   0  0  0  0  0  0  0  0  0  0  0  0
  -21.0850   -3.8940   25.9580 F   0  0  0  0  0  0  0  0  0  0  0  0
  -22.7970  -13.6760   21.2120 C   0  0  0  0  0  0  0  0  0  0  0  0
  -22.0360  -12.9680   22.0400 N   0  0  0  0  0  0  0  0  0  0  0  0
  -22.3770  -14.7080   20.6870 O   0  0  0  0  0  0  0  0  0  0  0  0
  -22.3920  -12.1330   22.4850 H   0  0  0  0  0  0  0  0  0  0  0  0
  -21.0920  -13.2650   22.2350 H   0  0  0  0  0  0  0  0  0  0  0  0
  -25.4480  -15.3490   20.4670 N   0  0  0  0  0  0  0  0  0  0  0  0
  -24.6050  -15.9030   20.3600 H   0  0  0  0  0  0  0  0  0  0  0  0
  -26.1880  -15.6550   19.8450 H   0  0  0  0  0  0  0  0  0  0  0  0
  -29.6060  -17.0020   19.2500 C   0  0  0  0  0  0  0  0  0  0  0  0
  -28.4210  -17.4740   18.8930 N   0  0  0  0  0  0  0  0  0  0  0  0
  -30.4100  -16.6250   18.4000 O   0  0  0  0  0  0  0  0  0  0  0  0
  -27.7600  -17.8050   19.5820 H   0  0  0  0  0  0  0  0  0  0  0  0
  -28.1760  -17.5300   17.9150 H   0  0  0  0  0  0  0  0  0  0  0  0
  -31.0120  -24.3260   18.9540 C   0  0  0  0  0  2  0  0  0  0  0  0
  -30.2810  -25.5270   19.5840 C   0  0  0  0  0  2  0  0  0  0  0  0
  -28.7860  -25.7330   19.2470 C   0  0  0  0  0  2  0  0  0  0  0  0
  -28.4680  -26.8590   20.0450 O   0  0  0  0  0  0  0  0  0  0  0  0
  -24.5660  -31.8350   23.1540 C   0  0  0  0  0  0  0  0  0  0  0  0
  -27.2420  -27.4740   20.0070 C   0  0  0  0  0  0  0  0  0  0  0  0
  -23.3640  -30.4520   21.4900 C   0  0  0  0  0  3  0  0  0  0  0  0
  -24.8220  -28.9310   20.0450 C   0  0  0  0  0  0  0  0  0  0  0  0
  -25.8820  -30.8250   21.2980 C   0  0  0  0  0  2  0  0  0  0  0  0
  -25.9670  -29.4630   20.6470 C   0  0  0  0  0  0  0  0  0  0  0  0
  -27.1700  -28.7320   20.6350 C   0  0  0  0  0  3  0  0  0  0  0  0
  -26.0770  -26.9340   19.4130 C   0  0  0  0  0  3  0  0  0  0  0  0
  -24.8680  -27.6630   19.4330 C   0  0  0  0  0  3  0  0  0  0  0  0
  -23.5730  -29.7820   20.1030 C   0  0  0  0  0  2  0  0  0  0  0  0
  -24.6210  -31.0530   22.0390 N   0  0  0  0  0  0  0  0  0  0  0  0
  -23.4860  -32.0990   23.6990 O   0  0  0  0  0  0  0  0  0  0  0  0
  -22.7160  -29.4170   22.4390 C   0  0  0  0  0  0  0  0  0  0  0  0
  -21.3910  -29.2410   22.3120 N   0  0  0  0  0  0  0  0  0  0  0  0
  -23.4010  -28.7800   23.2430 O   0  0  0  0  0  0  0  0  0  0  0  0
  -20.9020  -29.8080   21.6340 H   0  0  0  0  0  0  0  0  0  0  0  0
  -18.0150  -28.0590   22.8080 C   0  0  0  0  0  0  0  0  0  0  0  0
  -20.5750  -28.2920   23.0690 C   0  0  0  0  0  3  0  0  0  0  0  0
  -20.6640  -26.8740   22.4620 C   0  0  0  0  0  2  0  0  0  0  0  0
  -19.5540  -26.5800   21.4480 C   0  0  0  0  0  2  0  0  0  0  0  0
  -18.1780  -26.7210   22.1050 C   0  0  0  0  0  2  0  0  0  0  0  0
  -19.1410  -28.8040   23.2460 C   0  0  0  0  0  0  0  0  0  0  0  0
  -18.9360  -30.0560   23.8630 C   0  0  0  0  0  3  0  0  0  0  0  0
  -17.6370  -30.5640   24.0470 C   0  0  0  0  0  3  0  0  0  0  0  0
  -16.5240  -29.8160   23.6260 C   0  0  0  0  0  3  0  0  0  0  0  0
  -16.7130  -28.5660   23.0120 C   0  0  0  0  0  3  0  0  0  0  0  0
  -25.8540  -32.4590   23.7830 C   0  0  0  0  0  3  0  0  0  0  0  0
  -25.5460  -33.8530   24.1270 N   0  0  0  0  0  0  0  0  0  0  0  0
  -25.8790  -34.9120   23.3750 C   0  0  0  0  0  0  0  0  0  0  0  0
  -26.5470  -34.8180   22.3430 O   0  0  0  0  0  0  0  0  0  0  0  0
  -24.9520  -34.0010   24.9300 H   0  0  0  0  0  0  0  0  0  0  0  0
  -24.1580  -36.7140   23.0270 C   0  0  0  0  0  1  0  0  0  0  0  0
  -25.3900  -36.2970   23.8450 C   0  0  0  0  0  3  0  0  0  0  0  0
  -27.5120  -37.1730   24.7160 C   0  0  0  0  0  1  0  0  0  0  0  0
  -26.4260  -37.3480   23.7560 N   0  0  0  0  0  0  0  0  0  0  0  0
  -26.0190  -38.2680   23.9000 H   0  0  0  0  0  0  0  0  0  0  0  0
  -26.3720  -31.6730   25.0510 C   0  0  1  0  0  0  0  0  0  0  0  0
  -25.2800  -31.4250   26.1170 C   0  0  0  0  0  1  0  0  0  0  0  0
  -26.9540  -30.3000   24.6410 C   0  0  0  0  0  1  0  0  0  0  0  0
  -27.5240  -32.4580   25.7200 C   0  0  0  0  0  1  0  0  0  0  0  0
  1  2  1  0
  1  4  2  0
  2  7  1  0
  3  1  1  0
  5  2  1  0
  6  3  1  0
  8  9  1  0
  8  7  1  0
 10  9  1  0
 10 19  1  0
 11 19  1  0
 12 17  1  0
 13 14  1  0
 13 12  1  0
 15 14  1  0
 15 24  1  0
 15 16  1  0
 17 11  1  0
 17 16  1  0
 18 11  2  0
 19 20  1  0
 21 22  2  0
 22 41  1  0
 23 22  1  0
 23 26  1  0
 24 21  1  0
 24 25  1  0
 25 23  2  0
 26 27  1  0
 27 28  2  0
 29 32  1  0
 29 28  1  0
 30 29  2  0
 31 30  1  0
 31 26  2  0
 32 33  1  0
 33 34  1  0
 34 35  2  0
 36 35  1  0
 36 40  1  0
 37 36  2  0
 38 33  2  0
 38 37  1  0
 39 38  1  0
 41 42  1  0
 42 45  1  0
 42 44  1  0
 43 41  2  0
 46 21  1  0
 47 46  1  0
 48 46  1  0
 49 10  1  0
 50 49  1  0
 50 52  1  0
 51 49  2  0
 53 50  1  0
 54  3  1  0
 54 55  1  0
 56 55  1  0
 56 57  1  0
 58 69  2  0
 59 57  1  0
 59 64  1  0
 60 68  1  0
 60 70  1  0
 61 67  1  0
 61 63  1  0
 62 68  1  0
 63 62  1  0
 64 63  2  0
 65 66  1  0
 65 59  2  0
 66 61  2  0
 67 60  1  0
 68 58  1  0
 70 72  2  0
 71 70  1  0
 73 71  1  0
 74 83  2  0
 74 79  1  0
 75 71  1  0
 75 79  1  0
 76 75  1  0
 77 78  1  0
 77 76  1  0
 78 74  1  0
 79 80  2  0
 80 81  1  0
 82 81  2  0
 83 82  1  0
 84 58  1  0
 84 85  1  0
 84 94  1  0
 85 88  1  0
 86 90  1  0
 86 85  1  0
 87 86  2  0
 90 89  1  0
 92 90  1  0
 92 93  1  0
 92 91  1  0
 94 97  1  1
 94 95  1  0
 96 94  1  0
M  ISO  4  11 100  19 100  56 101  57 101
M  END
>  <TORSDO>  (82) 
F 24

>  <SCORE>  (82) 
-12.524

>  <name>  (82) 
83

>  <ligand_id>  (82) 
83

>  <original_smiles>  (82) 
[H]c1c([H])c([H])c2c(c1[H])C([H])([H])C([H])([H])C([H])([H])C2([H])N([H])C(=O)C1([H])N(C(=O)C([H])(N([H])C(=O)C([H])(N([H])C([H])([H])[H])C([H])([H])[H])C(C([H])([H])[H])(C([H])([H])[H])C([H])([H])[H])C([H])([H])c2c([H])c(OC([H])([H])C([H])([H])C([H])([H])N([H])C(=O)N([H])C([H])([H])C([H])([H])C([H])([H])C([H])(C(=O)N([H])[H])N([H])C(=O)N3C([H])([H])C([H])([H])C([H])([H])C([H])(n4nc(-c5c([H])c([H])c(Oc6c([H])c([H])c(F)c([H])c6F)c([H])c5[H])c(C(=O)N([H])[H])c4N([H])[H])C3([H])[H])c([H])c([H])c2C1([H])[H]

>  <smiles>  (82) 
[H]c1c([H])c([H])c2c(c1[H])C([H])([H])C([H])([H])C([H])([H])C2([H])N([H])C(=O)C1([H])N(C(=O)C([H])(N([H])C(=O)C([H])(N([H])C([H])([H])[H])C([H])([H])[H])C(C([H])([H])[H])(C([H])([H])[H])C([H])([H])[H])C([H])([H])c2c([H])c(OC([H])([H])C([H])([H])C([H])([H])N([H])C(=O)N([H])C([H])([H])C([H])([H])C([H])([H])C([H])(C(=O)N([H])[H])N([H])C(=O)N3C([H])([H])C([H])([H])C([H])([H])C([H])(n4nc(-c5c([H])c([H])c(Oc6c([H])c([H])c(F)c([H])c6F)c([H])c5[H])c(C(=O)N([H])[H])c4N([H])[H])C3([H])[H])c([H])c([H])c2C1([H])[H]

$$$$
84:0:0
     RDKit          3D

 89 96  0  0  1  0  0  0  0  0999 V2000
  -30.1540  -19.4720   19.7190 C   0  0  0  0  0  2  0  0  0  0  0  0
  -29.2910  -20.9420   20.2770 C   0  0  0  0  0  2  0  0  0  0  0  0
  -29.4800  -22.6990   20.0230 C   0  0  0  0  0  3  0  0  0  0  0  0
  -28.4080  -24.0910   20.3380 C   0  0  0  0  0  3  0  0  0  0  0  0
  -28.5920  -25.7140   20.3510 O   0  0  0  0  0  0  0  0  0  0  0  0
  -24.5650  -31.5050   22.9830 C   0  0  0  0  0  0  0  0  0  0  0  0
  -27.5180  -26.7300   20.2330 C   0  0  0  0  0  0  0  0  0  0  0  0
  -23.5330  -30.0220   21.3090 C   0  0  0  0  0  3  0  0  0  0  0  0
  -25.1350  -28.4670   20.0120 C   0  0  0  0  0  0  0  0  0  0  0  0
  -26.0890  -30.3660   21.3020 C   0  0  0  0  0  2  0  0  0  0  0  0
  -26.2640  -28.9510   20.6850 C   0  0  0  0  0  0  0  0  0  0  0  0
  -27.4530  -28.1040   20.7680 C   0  0  0  0  0  3  0  0  0  0  0  0
  -26.3570  -26.3880   19.5060 C   0  0  0  0  0  3  0  0  0  0  0  0
  -25.2060  -27.2060   19.4010 C   0  0  0  0  0  3  0  0  0  0  0  0
  -23.8730  -29.3260   19.9640 C   0  0  0  0  0  2  0  0  0  0  0  0
  -24.7460  -30.6590   21.9190 N   0  0  0  0  0  0  0  0  0  0  0  0
  -23.4350  -31.7470   23.4380 O   0  0  0  0  0  0  0  0  0  0  0  0
  -22.8340  -29.0100   22.2550 C   0  0  0  0  0  0  0  0  0  0  0  0
  -21.5190  -28.7950   22.0710 N   0  0  0  0  0  0  0  0  0  0  0  0
  -23.4850  -28.4200   23.1210 O   0  0  0  0  0  0  0  0  0  0  0  0
  -21.0460  -29.3280   21.3550 H   0  0  0  0  0  0  0  0  0  0  0  0
  -18.1580  -27.4800   22.4490 C   0  0  0  0  0  0  0  0  0  0  0  0
  -20.6940  -27.8360   22.8160 C   0  0  0  0  0  3  0  0  0  0  0  0
  -20.8660  -26.4020   22.2600 C   0  0  0  0  0  2  0  0  0  0  0  0
  -19.8190  -26.0330   21.2040 C   0  0  0  0  0  2  0  0  0  0  0  0
  -18.4080  -26.1340   21.7890 C   0  0  0  0  0  2  0  0  0  0  0  0
  -19.2310  -28.2870   22.9160 C   0  0  0  0  0  0  0  0  0  0  0  0
  -18.9410  -29.5420   23.4910 C   0  0  0  0  0  3  0  0  0  0  0  0
  -17.6120  -29.9950   23.6020 C   0  0  0  0  0  3  0  0  0  0  0  0
  -16.5550  -29.1890   23.1480 C   0  0  0  0  0  3  0  0  0  0  0  0
  -16.8270  -27.9320   22.5790 C   0  0  0  0  0  3  0  0  0  0  0  0
  -25.7680  -32.2170   23.6760 C   0  0  0  0  0  3  0  0  0  0  0  0
  -25.3640  -33.6030   23.9680 N   0  0  0  0  0  0  0  0  0  0  0  0
  -25.7120  -34.6730   23.2400 C   0  0  0  0  0  0  0  0  0  0  0  0
  -26.4660  -34.5990   22.2660 O   0  0  0  0  0  0  0  0  0  0  0  0
  -24.7010  -33.7290   24.7190 H   0  0  0  0  0  0  0  0  0  0  0  0
  -23.9450  -36.3970   22.7450 C   0  0  0  0  0  1  0  0  0  0  0  0
  -25.1320  -36.0420   23.6540 C   0  0  0  0  0  3  0  0  0  0  0  0
  -27.1510  -37.0190   24.6530 C   0  0  0  0  0  1  0  0  0  0  0  0
  -26.1250  -37.1370   23.6200 N   0  0  0  0  0  0  0  0  0  0  0  0
  -25.6720  -38.0400   23.7270 H   0  0  0  0  0  0  0  0  0  0  0  0
  -26.2350  -31.4970   25.0000 C   0  0  1  0  0  0  0  0  0  0  0  0
  -25.0880  -31.2210   26.0000 C   0  0  0  0  0  1  0  0  0  0  0  0
  -26.9140  -30.1450   24.6810 C   0  0  0  0  0  1  0  0  0  0  0  0
  -27.2970  -32.3620   25.7190 C   0  0  0  0  0  1  0  0  0  0  0  0
  -30.1700  -17.8500   20.4380 C   0  0  0  0  0  0  0  0  0  0  0  0
  -31.0900  -15.0580   19.6510 C   0  0  0  0  0  0  0  0  0  0  0  0
  -30.8410  -12.6940   18.6170 C   0  0  0  0  0  2  0  0  0  0  0  0
  -29.7680  -12.6410   17.4990 C   0  0  0  0  0  2  0  0  0  0  0  0
  -28.3570  -12.4470   18.0870 C   0  0  0  0  0  2  0  0  0  0  0  0
  -28.1090  -13.3560   19.3150 C   0  0  0  0  0  3  0  0  0  0  0  0
  -29.2840  -13.3260   20.3160 C   0  0  0  0  0  2  0  0  0  0  0  0
  -30.4740  -13.7860   19.5820 N   0  0  0  0  0  0  0  0  0  0  0  0
  -32.2720  -15.0750   19.2790 O   0  0  0  0  0  0  0  0  0  0  0  0
  -30.3160  -16.2480   20.0030 N   0  0  0  0  0  4  0  0  0  0  0  0
  -29.4030  -15.8640   20.1890 H   0  0  0  0  0  0  0  0  0  0  0  0
  -25.8750  -14.0250   20.3570 C   0  0  0  0  0  0  0  0  0  0  0  0
  -24.8090  -13.2960   20.8040 C   0  0  0  0  0  0  0  0  0  0  0  0
  -25.1750  -11.9220   20.6500 C   0  0  0  0  0  0  0  0  0  0  0  0
  -26.8240  -13.0990   19.9520 N   0  0  0  0  0  0  0  0  0  0  0  0
  -26.4180  -11.8260   20.1920 N   0  0  0  0  0  0  0  0  0  0  0  0
  -24.3860  -10.7000   20.8530 C   0  0  0  0  0  0  0  0  0  0  0  0
  -24.7860   -9.7120   21.7800 C   0  0  0  0  0  3  0  0  0  0  0  0
  -24.0020   -8.5540   21.9750 C   0  0  0  0  0  3  0  0  0  0  0  0
  -22.8030   -8.3780   21.2430 C   0  0  0  0  0  0  0  0  0  0  0  0
  -22.4230   -9.3520   20.3040 C   0  0  0  0  0  3  0  0  0  0  0  0
  -23.2070  -10.5020   20.1080 C   0  0  0  0  0  3  0  0  0  0  0  0
  -21.9920   -7.2730   21.3490 O   0  0  0  0  0  0  0  0  0  0  0  0
  -21.8480   -6.5970   22.5330 C   0  0  0  0  0  0  0  0  0  0  0  0
  -21.3490   -7.2250   23.6960 C   0  0  0  0  0  3  0  0  0  0  0  0
  -21.1520   -6.4730   24.8720 C   0  0  0  0  0  3  0  0  0  0  0  0
  -21.4410   -5.0960   24.8860 C   0  0  0  0  0  0  0  0  0  0  0  0
  -21.9310   -4.4670   23.7280 C   0  0  0  0  0  3  0  0  0  0  0  0
  -22.1310   -5.2160   22.5540 C   0  0  0  0  0  0  0  0  0  0  0  0
  -22.5830   -4.6010   21.4350 F   0  0  0  0  0  0  0  0  0  0  0  0
  -21.2450   -4.3730   26.0130 F   0  0  0  0  0  0  0  0  0  0  0  0
  -23.4830  -13.8410   21.2450 C   0  0  0  0  0  0  0  0  0  0  0  0
  -22.8160  -13.1630   22.1720 N   0  0  0  0  0  0  0  0  0  0  0  0
  -23.0520  -14.9060   20.8030 O   0  0  0  0  0  0  0  0  0  0  0  0
  -23.1820  -12.3020   22.5510 H   0  0  0  0  0  0  0  0  0  0  0  0
  -21.9290  -13.5070   22.5080 H   0  0  0  0  0  0  0  0  0  0  0  0
  -26.1060  -15.3930   20.2340 N   0  0  0  0  0  0  0  0  0  0  0  0
  -25.3820  -16.0670   20.4640 H   0  0  0  0  0  0  0  0  0  0  0  0
  -26.9000  -15.8150   19.7730 H   0  0  0  0  0  0  0  0  0  0  0  0
  -30.7810  -17.9230   21.8400 C   0  0  0  0  0  0  0  0  0  0  0  0
  -30.1660  -18.6640   22.7520 N   0  0  0  0  0  0  0  0  0  0  0  0
  -31.8090  -17.3030   22.1080 O   0  0  0  0  0  0  0  0  0  0  0  0
  -29.3210  -19.1650   22.5140 H   0  0  0  0  0  0  0  0  0  0  0  0
  -30.5320  -18.7390   23.6910 H   0  0  0  0  0  0  0  0  0  0  0  0
  1  2  1  0
  1 46  1  0
  3  2  1  0
  3  4  2  0
  4  5  1  0
  6 17  2  0
  7  5  1  0
  7 12  1  0
  8 16  1  0
  8 18  1  0
  9 11  1  0
 10 16  1  0
 11 12  2  0
 11 10  1  0
 13  7  2  0
 14 13  1  0
 14  9  2  0
 15  9  1  0
 15  8  1  0
 16  6  1  0
 18 20  2  0
 19 18  1  0
 21 19  1  0
 22 31  2  0
 22 27  1  0
 23 19  1  0
 23 27  1  0
 24 23  1  0
 25 26  1  0
 25 24  1  0
 26 22  1  0
 27 28  2  0
 28 29  1  0
 30 29  2  0
 31 30  1  0
 32  6  1  0
 32 33  1  0
 32 42  1  0
 33 36  1  0
 34 38  1  0
 34 33  1  0
 35 34  2  0
 38 37  1  0
 40 38  1  0
 40 41  1  0
 40 39  1  0
 42 45  1  1
 42 43  1  0
 44 42  1  0
 46 85  1  0
 47 55  1  0
 48 53  1  0
 49 50  1  0
 49 48  1  0
 51 50  1  0
 51 60  1  0
 51 52  1  0
 53 47  1  0
 53 52  1  0
 54 47  2  0
 55 56  1  0
 55 46  2  3
 57 58  2  0
 58 77  1  0
 59 58  1  0
 59 62  1  0
 60 61  1  0
 60 57  1  0
 61 59  2  0
 62 63  1  0
 63 64  2  0
 65 68  1  0
 65 64  1  0
 66 65  2  0
 67 66  1  0
 67 62  2  0
 68 69  1  0
 69 74  2  0
 69 70  1  0
 70 71  2  0
 71 72  1  0
 72 76  1  0
 73 72  2  0
 74 73  1  0
 75 74  1  0
 77 78  1  0
 78 81  1  0
 78 80  1  0
 79 77  2  0
 82 57  1  0
 82 83  1  0
 84 82  1  0
 85 87  2  0
 85 86  1  0
 86 89  1  0
 88 86  1  0
M  ISO  4   4 101   5 101  47 100  55 100
M  END
>  <TORSDO>  (83) 
F 21

>  <SCORE>  (83) 
-12.533

>  <name>  (83) 
84

>  <ligand_id>  (83) 
84

>  <original_smiles>  (83) 
[H]c1c([H])c([H])c2c(c1[H])C([H])([H])C([H])([H])C([H])([H])C2([H])N([H])C(=O)C1([H])N(C(=O)C([H])(N([H])C(=O)C([H])(N([H])C([H])([H])[H])C([H])([H])[H])C(C([H])([H])[H])(C([H])([H])[H])C([H])([H])[H])C([H])([H])c2c([H])c(OC([H])([H])C([H])([H])C([H])([H])C([H])([H])C([H])(C(=O)N([H])[H])N([H])C(=O)N3C([H])([H])C([H])([H])C([H])([H])C([H])(n4nc(-c5c([H])c([H])c(Oc6c([H])c([H])c(F)c([H])c6F)c([H])c5[H])c(C(=O)N([H])[H])c4N([H])[H])C3([H])[H])c([H])c([H])c2C1([H])[H]

>  <smiles>  (83) 
[H]c1c([H])c([H])c2c(c1[H])C([H])([H])C([H])([H])C([H])([H])C2([H])N([H])C(=O)C1([H])N(C(=O)C([H])(N([H])C(=O)C([H])(N([H])C([H])([H])[H])C([H])([H])[H])C(C([H])([H])[H])(C([H])([H])[H])C([H])([H])[H])C([H])([H])c2c([H])c(OC([H])([H])C([H])([H])C([H])([H])C([H])([H])C([H])(C(=O)N([H])[H])N([H])C(=O)N3C([H])([H])C([H])([H])C([H])([H])C([H])(n4nc(-c5c([H])c([H])c(Oc6c([H])c([H])c(F)c([H])c6F)c([H])c5[H])c(C(=O)N([H])[H])c4N([H])[H])C3([H])[H])c([H])c([H])c2C1([H])[H]

$$$$
85:0:0
     RDKit          3D

104112  0  0  1  0  0  0  0  0999 V2000
  -26.1880  -24.1060   26.8970 C   0  0  0  0  0  2  0  0  0  0  0  0
  -26.5720  -22.6190   26.7650 C   0  0  0  0  0  2  0  0  0  0  0  0
  -28.0490  -22.3770   26.3900 C   0  0  0  0  0  2  0  0  0  0  0  0
  -28.3370  -20.9200   25.9940 C   0  0  0  0  0  0  0  0  0  0  0  0
  -29.4930  -20.6770   25.3630 N   0  0  0  0  0  0  0  0  0  0  0  0
  -27.5270  -20.0280   26.2540 O   0  0  0  0  0  0  0  0  0  0  0  0
  -30.1040  -21.4590   25.1560 H   0  0  0  0  0  0  0  0  0  0  0  0
  -29.9090  -19.3640   24.8500 C   0  0  0  0  0  2  0  0  0  0  0  0
  -30.7430  -14.4150   20.6230 C   0  0  0  0  0  0  0  0  0  0  0  0
  -30.4120  -12.3020   19.3910 C   0  0  0  0  0  2  0  0  0  0  0  0
  -29.4760  -12.5210   18.1860 C   0  0  0  0  0  2  0  0  0  0  0  0
  -28.0020  -12.3710   18.6090 C   0  0  0  0  0  2  0  0  0  0  0  0
  -27.6580  -13.1990   19.8760 C   0  0  0  0  0  3  0  0  0  0  0  0
  -28.7040  -12.9590   20.9860 C   0  0  0  0  0  2  0  0  0  0  0  0
  -30.0350  -13.2650   20.4340 N   0  0  0  0  0  0  0  0  0  0  0  0
  -31.8300  -14.6240   20.0750 O   0  0  0  0  0  0  0  0  0  0  0  0
  -29.5370  -19.1460   23.3690 C   0  0  0  0  0  0  0  0  0  0  0  0
  -29.3980  -17.6960   21.3820 C   0  0  0  0  0  2  0  0  0  0  0  0
  -30.3860  -16.8000   23.4880 C   0  0  0  0  0  2  0  0  0  0  0  0
  -29.1510  -16.2080   21.0440 C   0  0  0  0  0  2  0  0  0  0  0  0
  -31.1260  -15.8730   22.5080 C   0  0  0  0  0  2  0  0  0  0  0  0
  -29.7510  -17.9340   22.7950 N   0  0  0  0  0  0  0  0  0  0  0  0
  -30.2260  -15.3050   21.4990 N   0  0  0  0  0  0  0  0  0  0  0  0
  -29.0680  -20.0960   22.7300 O   0  0  0  0  0  0  0  0  0  0  0  0
  -25.2600  -13.8160   20.5730 C   0  0  0  0  0  0  0  0  0  0  0  0
  -24.1850  -13.0480   20.9210 C   0  0  0  0  0  0  0  0  0  0  0  0
  -24.6380  -11.6920   20.8750 C   0  0  0  0  0  0  0  0  0  0  0  0
  -26.3020  -12.9310   20.3410 N   0  0  0  0  0  0  0  0  0  0  0  0
  -25.9290  -11.6470   20.5750 N   0  0  0  0  0  0  0  0  0  0  0  0
  -23.9030  -10.4320   21.0420 C   0  0  0  0  0  0  0  0  0  0  0  0
  -24.3590   -9.4240   21.9210 C   0  0  0  0  0  3  0  0  0  0  0  0
  -23.6290   -8.2250   22.0760 C   0  0  0  0  0  3  0  0  0  0  0  0
  -22.4280   -8.0280   21.3540 C   0  0  0  0  0  0  0  0  0  0  0  0
  -21.9900   -9.0260   20.4650 C   0  0  0  0  0  3  0  0  0  0  0  0
  -22.7200  -10.2150   20.3070 C   0  0  0  0  0  3  0  0  0  0  0  0
  -21.6640   -6.8880   21.4250 O   0  0  0  0  0  0  0  0  0  0  0  0
  -21.6860   -6.0730   22.5290 C   0  0  0  0  0  0  0  0  0  0  0  0
  -21.4030   -6.5630   23.8220 C   0  0  0  0  0  3  0  0  0  0  0  0
  -21.3660   -5.6780   24.9180 C   0  0  0  0  0  3  0  0  0  0  0  0
  -21.6040   -4.3040   24.7220 C   0  0  0  0  0  0  0  0  0  0  0  0
  -21.8810   -3.8140   23.4340 C   0  0  0  0  0  3  0  0  0  0  0  0
  -21.9200   -4.6960   22.3400 C   0  0  0  0  0  0  0  0  0  0  0  0
  -22.1660   -4.2140   21.0990 F   0  0  0  0  0  0  0  0  0  0  0  0
  -21.5630   -3.4520   25.7730 F   0  0  0  0  0  0  0  0  0  0  0  0
  -22.7850  -13.5280   21.1850 C   0  0  0  0  0  0  0  0  0  0  0  0
  -22.0450  -12.8330   22.0400 N   0  0  0  0  0  0  0  0  0  0  0  0
  -22.3550  -14.5580   20.6650 O   0  0  0  0  0  0  0  0  0  0  0  0
  -22.4000  -12.0010   22.4870 H   0  0  0  0  0  0  0  0  0  0  0  0
  -21.1060  -13.1380   22.2520 H   0  0  0  0  0  0  0  0  0  0  0  0
  -25.4370  -15.1880   20.4110 N   0  0  0  0  0  0  0  0  0  0  0  0
  -24.6770  -15.8490   20.5280 H   0  0  0  0  0  0  0  0  0  0  0  0
  -26.2900  -15.6210   20.0830 H   0  0  0  0  0  0  0  0  0  0  0  0
  -24.7030  -24.2850   27.2600 C   0  0  0  0  0  2  0  0  0  0  0  0
  -23.9570  -25.3730   26.4620 C   0  0  0  0  0  2  0  0  0  0  0  0
  -23.4300  -24.9480   25.0680 C   0  0  0  0  0  2  0  0  0  0  0  0
  -24.3930  -25.1530   23.8770 C   0  0  0  0  0  2  0  0  0  0  0  0
  -25.1330  -23.8840   23.4130 C   0  0  0  0  0  2  0  0  0  0  0  0
  -25.9530  -24.1350   22.1460 C   0  0  0  0  0  0  0  0  0  0  0  0
  -27.2530  -24.4110   22.3010 N   0  0  0  0  0  0  0  0  0  0  0  0
  -25.4070  -24.0600   21.0450 O   0  0  0  0  0  0  0  0  0  0  0  0
  -27.6110  -24.4520   23.2460 H   0  0  0  0  0  0  0  0  0  0  0  0
  -28.2060  -24.6570   21.2170 C   0  0  0  0  0  2  0  0  0  0  0  0
  -28.7550  -26.0990   21.2400 C   0  0  0  0  0  2  0  0  0  0  0  0
  -28.4050  -26.7610   20.0320 O   0  0  0  0  0  0  0  0  0  0  0  0
  -24.6090  -31.8690   23.2120 C   0  0  0  0  0  0  0  0  0  0  0  0
  -27.2390  -27.4800   20.0940 C   0  0  0  0  0  0  0  0  0  0  0  0
  -23.3960  -30.4890   21.5520 C   0  0  0  0  0  3  0  0  0  0  0  0
  -24.8450  -28.9610   20.1160 C   0  0  0  0  0  0  0  0  0  0  0  0
  -25.9140  -30.8480   21.3600 C   0  0  0  0  0  2  0  0  0  0  0  0
  -25.9970  -29.4810   20.7210 C   0  0  0  0  0  0  0  0  0  0  0  0
  -27.1960  -28.7430   20.7220 C   0  0  0  0  0  3  0  0  0  0  0  0
  -26.0850  -26.9730   19.4700 C   0  0  0  0  0  3  0  0  0  0  0  0
  -24.8800  -27.7020   19.4910 C   0  0  0  0  0  3  0  0  0  0  0  0
  -23.6030  -29.8200   20.1650 C   0  0  0  0  0  2  0  0  0  0  0  0
  -24.6580  -31.0820   22.1020 N   0  0  0  0  0  0  0  0  0  0  0  0
  -23.5300  -32.1460   23.7530 O   0  0  0  0  0  0  0  0  0  0  0  0
  -22.7390  -29.4630   22.5020 C   0  0  0  0  0  0  0  0  0  0  0  0
  -21.4130  -29.2970   22.3760 N   0  0  0  0  0  0  0  0  0  0  0  0
  -23.4210  -28.8190   23.3040 O   0  0  0  0  0  0  0  0  0  0  0  0
  -20.9210  -29.8710   21.7060 H   0  0  0  0  0  0  0  0  0  0  0  0
  -18.0260  -28.1330   22.8520 C   0  0  0  0  0  0  0  0  0  0  0  0
  -20.5860  -28.3600   23.1310 C   0  0  0  0  0  3  0  0  0  0  0  0
  -20.6760  -26.9360   22.5380 C   0  0  0  0  0  2  0  0  0  0  0  0
  -19.5730  -26.6430   21.5140 C   0  0  0  0  0  2  0  0  0  0  0  0
  -18.1930  -26.7880   22.1620 C   0  0  0  0  0  2  0  0  0  0  0  0
  -19.1530  -28.8790   23.2900 C   0  0  0  0  0  0  0  0  0  0  0  0
  -18.9470  -30.1410   23.8850 C   0  0  0  0  0  3  0  0  0  0  0  0
  -17.6480  -30.6560   24.0500 C   0  0  0  0  0  3  0  0  0  0  0  0
  -16.5360  -29.9060   23.6350 C   0  0  0  0  0  3  0  0  0  0  0  0
  -16.7250  -28.6450   23.0400 C   0  0  0  0  0  3  0  0  0  0  0  0
  -25.9040  -32.4830   23.8360 C   0  0  0  0  0  3  0  0  0  0  0  0
  -25.5950  -33.8630   24.2320 N   0  0  0  0  0  0  0  0  0  0  0  0
  -25.9060  -34.9460   23.5090 C   0  0  0  0  0  0  0  0  0  0  0  0
  -26.5560  -34.8880   22.4620 O   0  0  0  0  0  0  0  0  0  0  0  0
  -25.0280  -33.9850   25.0570 H   0  0  0  0  0  0  0  0  0  0  0  0
  -24.1490  -36.7310   23.2620 C   0  0  0  0  0  1  0  0  0  0  0  0
  -25.4120  -36.3100   24.0310 C   0  0  0  0  0  3  0  0  0  0  0  0
  -27.5580  -37.1810   24.8450 C   0  0  0  0  0  1  0  0  0  0  0  0
  -26.4280  -37.3800   23.9420 N   0  0  0  0  0  0  0  0  0  0  0  0
  -26.0140  -38.2860   24.1470 H   0  0  0  0  0  0  0  0  0  0  0  0
  -26.4510  -31.6560   25.0640 C   0  0  1  0  0  0  0  0  0  0  0  0
  -25.3800  -31.3700   26.1400 C   0  0  0  0  0  1  0  0  0  0  0  0
  -27.0270  -30.2970   24.5970 C   0  0  0  0  0  1  0  0  0  0  0  0
  -27.6090  -32.4270   25.7440 C   0  0  0  0  0  1  0  0  0  0  0  0
  1 53  1  0
  2  1  1  0
  3  2  1  0
  4  6  2  0
  4  3  1  0
  5  4  1  0
  7  5  1  0
  8  5  1  0
  9 23  1  0
 10 15  1  0
 11 12  1  0
 11 10  1  0
 13 12  1  0
 13 28  1  0
 13 14  1  0
 15  9  1  0
 15 14  1  0
 16  9  2  0
 17  8  1  0
 18 22  1  0
 20 18  1  0
 20 23  1  0
 21 19  1  0
 22 17  1  0
 22 19  1  0
 23 21  1  0
 24 17  2  0
 25 26  2  0
 26 45  1  0
 27 26  1  0
 27 30  1  0
 28 25  1  0
 28 29  1  0
 29 27  2  0
 30 31  1  0
 31 32  2  0
 33 36  1  0
 33 32  1  0
 34 33  2  0
 35 34  1  0
 35 30  2  0
 36 37  1  0
 37 38  1  0
 38 39  2  0
 40 39  1  0
 40 44  1  0
 41 40  2  0
 42 37  2  0
 42 41  1  0
 43 42  1  0
 45 46  1  0
 46 49  1  0
 46 48  1  0
 47 45  2  0
 50 51  1  0
 50 25  1  0
 52 50  1  0
 54 53  1  0
 55 54  1  0
 56 55  1  0
 57 56  1  0
 58 59  1  0
 58 57  1  0
 59 61  1  0
 60 58  2  0
 62 63  1  0
 62 59  1  0
 64 66  1  0
 64 63  1  0
 65 76  2  0
 66 71  1  0
 67 75  1  0
 67 77  1  0
 68 74  1  0
 68 70  1  0
 69 75  1  0
 70 71  2  0
 70 69  1  0
 72 73  1  0
 72 66  2  0
 73 68  2  0
 74 67  1  0
 75 65  1  0
 77 79  2  0
 78 77  1  0
 80 78  1  0
 81 90  2  0
 81 86  1  0
 82 78  1  0
 82 86  1  0
 83 82  1  0
 84 85  1  0
 84 83  1  0
 85 81  1  0
 86 87  2  0
 87 88  1  0
 89 88  2  0
 90 89  1  0
 91 65  1  0
 91 92  1  0
 91101  1  0
 92 95  1  0
 93 97  1  0
 93 92  1  0
 94 93  2  0
 97 96  1  0
 99 97  1  0
 99100  1  0
 99 98  1  0
101104  1  1
101102  1  0
103101  1  0
M  ISO  4   9 100  23 100  63 101  64 101
M  END
>  <TORSDO>  (84) 
F 28

>  <SCORE>  (84) 
19.040

>  <name>  (84) 
85

>  <ligand_id>  (84) 
85

>  <original_smiles>  (84) 
[H]c1c([H])c([H])c2c(c1[H])C([H])([H])C([H])([H])C([H])([H])C2([H])N([H])C(=O)C1([H])N(C(=O)C([H])(N([H])C(=O)C([H])(N([H])C([H])([H])[H])C([H])([H])[H])C(C([H])([H])[H])(C([H])([H])[H])C([H])([H])[H])C([H])([H])c2c([H])c(OC([H])([H])C([H])([H])N([H])C(=O)C([H])([H])C([H])([H])C([H])([H])C([H])([H])C([H])([H])C([H])([H])C([H])([H])C([H])([H])C(=O)N([H])C([H])([H])C(=O)N3C([H])([H])C([H])([H])N(C(=O)N4C([H])([H])C([H])([H])C([H])([H])C([H])(n5nc(-c6c([H])c([H])c(Oc7c([H])c([H])c(F)c([H])c7F)c([H])c6[H])c(C(=O)N([H])[H])c5N([H])[H])C4([H])[H])C([H])([H])C3([H])[H])c([H])c([H])c2C1([H])[H]

>  <smiles>  (84) 
[H]c1c([H])c([H])c2c(c1[H])C([H])([H])C([H])([H])C([H])([H])C2([H])N([H])C(=O)C1([H])N(C(=O)C([H])(N([H])C(=O)C([H])(N([H])C([H])([H])[H])C([H])([H])[H])C(C([H])([H])[H])(C([H])([H])[H])C([H])([H])[H])C([H])([H])c2c([H])c(OC([H])([H])C([H])([H])N([H])C(=O)C([H])([H])C([H])([H])C([H])([H])C([H])([H])C([H])([H])C([H])([H])C([H])([H])C([H])([H])C(=O)N([H])C([H])([H])C(=O)N3C([H])([H])C([H])([H])N(C(=O)N4C([H])([H])C([H])([H])C([H])([H])C([H])(n5nc(-c6c([H])c([H])c(Oc7c([H])c([H])c(F)c([H])c7F)c([H])c6[H])c(C(=O)N([H])[H])c5N([H])[H])C4([H])[H])C([H])([H])C3([H])[H])c([H])c([H])c2C1([H])[H]

$$$$
86:0:0
     RDKit          3D

 91 98  0  0  1  0  0  0  0  0999 V2000
  -28.4960  -21.8070   20.2590 C   0  0  0  0  0  0  0  0  0  0  0  0
  -28.5380  -22.9880   20.9140 N   0  0  0  0  0  0  0  0  0  0  0  0
  -28.1330  -21.7180   19.0830 O   0  0  0  0  0  0  0  0  0  0  0  0
  -28.9290  -22.9440   21.8470 H   0  0  0  0  0  0  0  0  0  0  0  0
  -28.8320  -20.5240   21.0750 C   0  0  0  0  0  2  0  0  0  0  0  0
  -29.2490  -18.0670   20.6440 C   0  0  0  0  0  0  0  0  0  0  0  0
  -29.4360  -19.3760   20.3520 N   0  0  0  0  0  0  0  0  0  0  0  0
  -28.4070  -17.6930   21.4640 O   0  0  0  0  0  0  0  0  0  0  0  0
  -30.1100  -19.6100   19.6370 H   0  0  0  0  0  0  0  0  0  0  0  0
  -30.1410  -17.0080   19.9510 C   0  0  0  0  0  2  0  0  0  0  0  0
  -30.6560  -14.5430   20.0410 C   0  0  0  0  0  0  0  0  0  0  0  0
  -30.3410  -12.3650   18.9340 C   0  0  0  0  0  2  0  0  0  0  0  0
  -29.3500  -12.5980   17.7740 C   0  0  0  0  0  2  0  0  0  0  0  0
  -27.8950  -12.4590   18.2670 C   0  0  0  0  0  2  0  0  0  0  0  0
  -27.6190  -13.2600   19.5680 C   0  0  0  0  0  3  0  0  0  0  0  0
  -28.7280  -13.0200   20.6180 C   0  0  0  0  0  2  0  0  0  0  0  0
  -30.0150  -13.3420   19.9860 N   0  0  0  0  0  0  0  0  0  0  0  0
  -31.7900  -14.7070   19.5830 O   0  0  0  0  0  0  0  0  0  0  0  0
  -29.8890  -15.6060   20.3700 N   0  0  0  0  0  0  0  0  0  0  0  0
  -28.9790  -15.4270   20.7710 H   0  0  0  0  0  0  0  0  0  0  0  0
  -25.2580  -13.8510   20.3980 C   0  0  0  0  0  0  0  0  0  0  0  0
  -24.2070  -13.0750   20.8070 C   0  0  0  0  0  0  0  0  0  0  0  0
  -24.6660  -11.7240   20.7350 C   0  0  0  0  0  0  0  0  0  0  0  0
  -26.2900  -12.9740   20.1060 N   0  0  0  0  0  0  0  0  0  0  0  0
  -25.9400  -11.6880   20.3650 N   0  0  0  0  0  0  0  0  0  0  0  0
  -23.9480  -10.4590   20.9420 C   0  0  0  0  0  0  0  0  0  0  0  0
  -24.3990   -9.4970   21.8720 C   0  0  0  0  0  3  0  0  0  0  0  0
  -23.6810   -8.2970   22.0670 C   0  0  0  0  0  3  0  0  0  0  0  0
  -22.4980   -8.0490   21.3290 C   0  0  0  0  0  0  0  0  0  0  0  0
  -22.0670   -9.0000   20.3880 C   0  0  0  0  0  3  0  0  0  0  0  0
  -22.7860  -10.1910   20.1930 C   0  0  0  0  0  3  0  0  0  0  0  0
  -21.7520   -6.9000   21.4320 O   0  0  0  0  0  0  0  0  0  0  0  0
  -21.6910   -6.1840   22.6000 C   0  0  0  0  0  0  0  0  0  0  0  0
  -21.2530   -6.7670   23.8090 C   0  0  0  0  0  3  0  0  0  0  0  0
  -21.1400   -5.9740   24.9700 C   0  0  0  0  0  3  0  0  0  0  0  0
  -21.4540   -4.6040   24.9240 C   0  0  0  0  0  0  0  0  0  0  0  0
  -21.8870   -4.0230   23.7190 C   0  0  0  0  0  3  0  0  0  0  0  0
  -22.0020   -4.8110   22.5610 C   0  0  0  0  0  0  0  0  0  0  0  0
  -22.3980   -4.2410   21.3970 F   0  0  0  0  0  0  0  0  0  0  0  0
  -21.3380   -3.8420   26.0360 F   0  0  0  0  0  0  0  0  0  0  0  0
  -22.8260  -13.5510   21.1500 C   0  0  0  0  0  0  0  0  0  0  0  0
  -22.1380  -12.8460   22.0430 N   0  0  0  0  0  0  0  0  0  0  0  0
  -22.3640  -14.5830   20.6640 O   0  0  0  0  0  0  0  0  0  0  0  0
  -22.5230  -12.0130   22.4610 H   0  0  0  0  0  0  0  0  0  0  0  0
  -21.2130  -13.1480   22.3150 H   0  0  0  0  0  0  0  0  0  0  0  0
  -25.4140  -15.2240   20.2320 N   0  0  0  0  0  0  0  0  0  0  0  0
  -24.6560  -15.8770   20.3890 H   0  0  0  0  0  0  0  0  0  0  0  0
  -26.2530  -15.6700   19.8860 H   0  0  0  0  0  0  0  0  0  0  0  0
  -27.8310  -24.2590   20.6120 C   0  0  0  0  0  2  0  0  0  0  0  0
  -28.5580  -25.3200   19.7270 C   0  0  0  0  0  2  0  0  0  0  0  0
  -28.4480  -26.6950   20.1850 O   0  0  0  0  0  0  0  0  0  0  0  0
  -24.6030  -31.8790   23.2260 C   0  0  0  0  0  0  0  0  0  0  0  0
  -27.2540  -27.4030   20.1490 C   0  0  0  0  0  0  0  0  0  0  0  0
  -23.3970  -30.4710   21.5870 C   0  0  0  0  0  3  0  0  0  0  0  0
  -24.8510  -28.9220   20.1670 C   0  0  0  0  0  0  0  0  0  0  0  0
  -25.9240  -30.8230   21.3880 C   0  0  0  0  0  2  0  0  0  0  0  0
  -26.0090  -29.4460   20.7540 C   0  0  0  0  0  0  0  0  0  0  0  0
  -27.2080  -28.6930   20.7410 C   0  0  0  0  0  3  0  0  0  0  0  0
  -26.0770  -26.9040   19.5490 C   0  0  0  0  0  3  0  0  0  0  0  0
  -24.8810  -27.6510   19.5650 C   0  0  0  0  0  3  0  0  0  0  0  0
  -23.6060  -29.7810   20.2110 C   0  0  0  0  0  2  0  0  0  0  0  0
  -24.6600  -31.0740   22.1250 N   0  0  0  0  0  0  0  0  0  0  0  0
  -23.5190  -32.1530   23.7650 O   0  0  0  0  0  0  0  0  0  0  0  0
  -22.7440  -29.4580   22.5530 C   0  0  0  0  0  0  0  0  0  0  0  0
  -21.4220  -29.2630   22.4170 N   0  0  0  0  0  0  0  0  0  0  0  0
  -23.4250  -28.8460   23.3800 O   0  0  0  0  0  0  0  0  0  0  0  0
  -20.9340  -29.8020   21.7150 H   0  0  0  0  0  0  0  0  0  0  0  0
  -18.0620  -28.0210   22.8780 C   0  0  0  0  0  0  0  0  0  0  0  0
  -20.6090  -28.3250   23.1890 C   0  0  0  0  0  3  0  0  0  0  0  0
  -20.7450  -26.8880   22.6360 C   0  0  0  0  0  2  0  0  0  0  0  0
  -19.6680  -26.5310   21.6080 C   0  0  0  0  0  2  0  0  0  0  0  0
  -18.2720  -26.6650   22.2250 C   0  0  0  0  0  2  0  0  0  0  0  0
  -19.1610  -28.8070   23.3160 C   0  0  0  0  0  0  0  0  0  0  0  0
  -18.9130  -30.0750   23.8850 C   0  0  0  0  0  3  0  0  0  0  0  0
  -17.5990  -30.5580   24.0230 C   0  0  0  0  0  3  0  0  0  0  0  0
  -16.5130  -29.7700   23.6020 C   0  0  0  0  0  3  0  0  0  0  0  0
  -16.7460  -28.5030   23.0350 C   0  0  0  0  0  3  0  0  0  0  0  0
  -25.8870  -32.5140   23.8440 C   0  0  0  0  0  3  0  0  0  0  0  0
  -25.5770  -33.9120   24.1720 N   0  0  0  0  0  0  0  0  0  0  0  0
  -25.9100  -34.9650   23.4130 C   0  0  0  0  0  0  0  0  0  0  0  0
  -26.5820  -34.8610   22.3830 O   0  0  0  0  0  0  0  0  0  0  0  0
  -24.9820  -34.0670   24.9730 H   0  0  0  0  0  0  0  0  0  0  0  0
  -24.1820  -36.7560   23.0520 C   0  0  0  0  0  1  0  0  0  0  0  0
  -25.4200  -36.3530   23.8680 C   0  0  0  0  0  3  0  0  0  0  0  0
  -27.5520  -37.2400   24.7040 C   0  0  0  0  0  1  0  0  0  0  0  0
  -26.4520  -37.4070   23.7570 N   0  0  0  0  0  0  0  0  0  0  0  0
  -26.0440  -38.3260   23.9030 H   0  0  0  0  0  0  0  0  0  0  0  0
  -26.4090  -31.7450   25.1190 C   0  0  1  0  0  0  0  0  0  0  0  0
  -25.3220  -31.5040   26.1930 C   0  0  0  0  0  1  0  0  0  0  0  0
  -26.9940  -30.3690   24.7240 C   0  0  0  0  0  1  0  0  0  0  0  0
  -27.5580  -32.5440   25.7780 C   0  0  0  0  0  1  0  0  0  0  0  0
  1  2  1  0
  1  5  1  0
  2  4  1  0
  3  1  2  0
  6  8  2  0
  7  6  1  0
  7  5  1  0
  9  7  1  0
 10 19  1  0
 10  6  1  0
 11 19  1  0
 12 17  1  0
 13 14  1  0
 13 12  1  0
 15 14  1  0
 15 24  1  0
 15 16  1  0
 17 11  1  0
 17 16  1  0
 18 11  2  0
 19 20  1  0
 21 22  2  0
 22 41  1  0
 23 22  1  0
 23 26  1  0
 24 25  1  0
 24 21  1  0
 25 23  2  0
 26 27  1  0
 27 28  2  0
 29 32  1  0
 29 28  1  0
 30 29  2  0
 31 30  1  0
 31 26  2  0
 32 33  1  0
 33 34  1  0
 34 35  2  0
 36 35  1  0
 36 40  1  0
 37 36  2  0
 38 33  2  0
 38 37  1  0
 39 38  1  0
 41 42  1  0
 42 45  1  0
 42 44  1  0
 43 41  2  0
 46 47  1  0
 46 21  1  0
 48 46  1  0
 49  2  1  0
 50 51  1  0
 50 49  1  0
 52 63  2  0
 53 51  1  0
 53 58  1  0
 54 62  1  0
 54 64  1  0
 55 61  1  0
 55 57  1  0
 56 62  1  0
 57 56  1  0
 58 57  2  0
 59 60  1  0
 59 53  2  0
 60 55  2  0
 61 54  1  0
 62 52  1  0
 64 66  2  0
 65 64  1  0
 67 65  1  0
 68 77  2  0
 68 73  1  0
 69 65  1  0
 69 73  1  0
 70 69  1  0
 71 72  1  0
 71 70  1  0
 72 68  1  0
 73 74  2  0
 74 75  1  0
 76 75  2  0
 77 76  1  0
 78 52  1  0
 78 79  1  0
 78 88  1  0
 79 82  1  0
 80 84  1  0
 80 79  1  0
 81 80  2  0
 84 83  1  0
 86 84  1  0
 86 87  1  0
 86 85  1  0
 88 91  1  1
 88 89  1  0
 90 88  1  0
M  ISO  4  11 100  19 100  50 101  51 101
M  END
>  <TORSDO>  (85) 
F 21

>  <SCORE>  (85) 
-12.796

>  <name>  (85) 
86

>  <ligand_id>  (85) 
86

>  <original_smiles>  (85) 
[H]c1c([H])c([H])c2c(c1[H])C([H])([H])C([H])([H])C([H])([H])C2([H])N([H])C(=O)C1([H])N(C(=O)C([H])(N([H])C(=O)C([H])(N([H])C([H])([H])[H])C([H])([H])[H])C(C([H])([H])[H])(C([H])([H])[H])C([H])([H])[H])C([H])([H])c2c([H])c(OC([H])([H])C([H])([H])N([H])C(=O)C([H])([H])N([H])C(=O)C([H])([H])N([H])C(=O)N3C([H])([H])C([H])([H])C([H])([H])C([H])(n4nc(-c5c([H])c([H])c(Oc6c([H])c([H])c(F)c([H])c6F)c([H])c5[H])c(C(=O)N([H])[H])c4N([H])[H])C3([H])[H])c([H])c([H])c2C1([H])[H]

>  <smiles>  (85) 
[H]c1c([H])c([H])c2c(c1[H])C([H])([H])C([H])([H])C([H])([H])C2([H])N([H])C(=O)C1([H])N(C(=O)C([H])(N([H])C(=O)C([H])(N([H])C([H])([H])[H])C([H])([H])[H])C(C([H])([H])[H])(C([H])([H])[H])C([H])([H])[H])C([H])([H])c2c([H])c(OC([H])([H])C([H])([H])N([H])C(=O)C([H])([H])N([H])C(=O)C([H])([H])N([H])C(=O)N3C([H])([H])C([H])([H])C([H])([H])C([H])(n4nc(-c5c([H])c([H])c(Oc6c([H])c([H])c(F)c([H])c6F)c([H])c5[H])c(C(=O)N([H])[H])c4N([H])[H])C3([H])[H])c([H])c([H])c2C1([H])[H]

$$$$
88:0:0
     RDKit          3D

 93100  0  0  1  0  0  0  0  0999 V2000
  -26.7300  -22.2970   19.7370 C   0  0  0  0  0  2  0  0  0  0  0  0
  -28.0380  -24.4020   20.0750 C   0  0  0  0  0  0  0  0  0  0  0  0
  -27.4580  -23.4830   19.2920 N   0  0  0  0  0  0  0  0  0  0  0  0
  -28.0960  -24.2950   21.3020 O   0  0  0  0  0  0  0  0  0  0  0  0
  -27.4730  -23.6600   18.2970 H   0  0  0  0  0  0  0  0  0  0  0  0
  -28.6110  -25.6380   19.3590 C   0  0  0  0  0  2  0  0  0  0  0  0
  -28.4360  -26.8260   20.1390 O   0  0  0  0  0  0  0  0  0  0  0  0
  -24.5790  -31.8940   23.2570 C   0  0  0  0  0  0  0  0  0  0  0  0
  -27.2250  -27.4880   20.1330 C   0  0  0  0  0  0  0  0  0  0  0  0
  -23.3650  -30.4950   21.6150 C   0  0  0  0  0  3  0  0  0  0  0  0
  -24.8120  -28.9680   20.1780 C   0  0  0  0  0  0  0  0  0  0  0  0
  -25.8850  -30.8640   21.4050 C   0  0  0  0  0  2  0  0  0  0  0  0
  -25.9680  -29.4950   20.7660 C   0  0  0  0  0  0  0  0  0  0  0  0
  -27.1690  -28.7560   20.7500 C   0  0  0  0  0  3  0  0  0  0  0  0
  -26.0460  -26.9700   19.5420 C   0  0  0  0  0  3  0  0  0  0  0  0
  -24.8440  -27.7020   19.5680 C   0  0  0  0  0  3  0  0  0  0  0  0
  -23.5670  -29.8220   20.2310 C   0  0  0  0  0  2  0  0  0  0  0  0
  -24.6280  -31.1000   22.1510 N   0  0  0  0  0  0  0  0  0  0  0  0
  -23.5000  -32.1610   23.8050 O   0  0  0  0  0  0  0  0  0  0  0  0
  -22.7220  -29.4690   22.5740 C   0  0  0  0  0  0  0  0  0  0  0  0
  -21.3980  -29.2810   22.4470 N   0  0  0  0  0  0  0  0  0  0  0  0
  -23.4100  -28.8450   23.3860 O   0  0  0  0  0  0  0  0  0  0  0  0
  -20.9050  -29.8380   21.7640 H   0  0  0  0  0  0  0  0  0  0  0  0
  -18.0310  -28.0700   22.9350 C   0  0  0  0  0  0  0  0  0  0  0  0
  -20.5850  -28.3390   23.2160 C   0  0  0  0  0  3  0  0  0  0  0  0
  -20.6970  -26.9090   22.6390 C   0  0  0  0  0  2  0  0  0  0  0  0
  -19.5990  -26.5820   21.6220 C   0  0  0  0  0  2  0  0  0  0  0  0
  -18.2140  -26.7210   22.2610 C   0  0  0  0  0  2  0  0  0  0  0  0
  -19.1440  -28.8370   23.3690 C   0  0  0  0  0  0  0  0  0  0  0  0
  -18.9180  -30.1000   23.9580 C   0  0  0  0  0  3  0  0  0  0  0  0
  -17.6120  -30.5970   24.1190 C   0  0  0  0  0  3  0  0  0  0  0  0
  -16.5120  -29.8260   23.7020 C   0  0  0  0  0  3  0  0  0  0  0  0
  -16.7220  -28.5660   23.1170 C   0  0  0  0  0  3  0  0  0  0  0  0
  -25.8690  -32.5220   23.8740 C   0  0  0  0  0  3  0  0  0  0  0  0
  -25.5670  -33.9220   24.1990 N   0  0  0  0  0  0  0  0  0  0  0  0
  -25.9050  -34.9680   23.4340 C   0  0  0  0  0  0  0  0  0  0  0  0
  -26.5760  -34.8580   22.4050 O   0  0  0  0  0  0  0  0  0  0  0  0
  -24.9740  -34.0830   25.0010 H   0  0  0  0  0  0  0  0  0  0  0  0
  -24.1840  -36.7630   23.0610 C   0  0  0  0  0  1  0  0  0  0  0  0
  -25.4190  -36.3600   23.8830 C   0  0  0  0  0  3  0  0  0  0  0  0
  -27.5540  -37.2360   24.7210 C   0  0  0  0  0  1  0  0  0  0  0  0
  -26.4560  -37.4090   23.7720 N   0  0  0  0  0  0  0  0  0  0  0  0
  -26.0540  -38.3310   23.9170 H   0  0  0  0  0  0  0  0  0  0  0  0
  -26.3870  -31.7520   25.1510 C   0  0  1  0  0  0  0  0  0  0  0  0
  -25.2950  -31.5200   26.2220 C   0  0  0  0  0  1  0  0  0  0  0  0
  -26.9630  -30.3720   24.7580 C   0  0  0  0  0  1  0  0  0  0  0  0
  -27.5430  -32.5420   25.8060 C   0  0  0  0  0  1  0  0  0  0  0  0
  -27.6230  -21.0470   19.8640 C   0  0  0  0  0  2  0  0  0  0  0  0
  -28.5270  -20.7930   18.6430 C   0  0  0  0  0  2  0  0  0  0  0  0
  -28.8740  -19.3140   18.4110 C   0  0  0  0  0  2  0  0  0  0  0  0
  -29.5880  -17.3590   19.7280 C   0  0  0  0  0  0  0  0  0  0  0  0
  -29.5200  -18.6860   19.5600 N   0  0  0  0  0  0  0  0  0  0  0  0
  -29.1010  -16.5750   18.9090 O   0  0  0  0  0  0  0  0  0  0  0  0
  -29.9360  -19.2850   20.2620 H   0  0  0  0  0  0  0  0  0  0  0  0
  -30.2840  -16.8350   20.9960 C   0  0  0  0  0  2  0  0  0  0  0  0
  -30.7290  -14.4440   20.5000 C   0  0  0  0  0  0  0  0  0  0  0  0
  -30.4100  -12.3230   19.2930 C   0  0  0  0  0  2  0  0  0  0  0  0
  -29.4750  -12.5680   18.0920 C   0  0  0  0  0  2  0  0  0  0  0  0
  -27.9960  -12.4480   18.5100 C   0  0  0  0  0  2  0  0  0  0  0  0
  -27.6660  -13.2660   19.7880 C   0  0  0  0  0  3  0  0  0  0  0  0
  -28.7090  -12.9890   20.8960 C   0  0  0  0  0  2  0  0  0  0  0  0
  -30.0480  -13.2790   20.3490 N   0  0  0  0  0  0  0  0  0  0  0  0
  -31.8210  -14.6710   19.9700 O   0  0  0  0  0  0  0  0  0  0  0  0
  -30.0620  -15.3970   21.1630 N   0  0  0  0  0  0  0  0  0  0  0  0
  -29.1720  -15.1260   21.5490 H   0  0  0  0  0  0  0  0  0  0  0  0
  -25.2600  -13.9000   20.4490 C   0  0  0  0  0  0  0  0  0  0  0  0
  -24.1800  -13.1400   20.8180 C   0  0  0  0  0  0  0  0  0  0  0  0
  -24.6330  -11.7860   20.8090 C   0  0  0  0  0  0  0  0  0  0  0  0
  -26.3020  -13.0090   20.2470 N   0  0  0  0  0  0  0  0  0  0  0  0
  -25.9270  -11.7330   20.5160 N   0  0  0  0  0  0  0  0  0  0  0  0
  -23.8970  -10.5300   21.0090 C   0  0  0  0  0  0  0  0  0  0  0  0
  -24.3250   -9.5650   21.9460 C   0  0  0  0  0  3  0  0  0  0  0  0
  -23.5910   -8.3730   22.1310 C   0  0  0  0  0  3  0  0  0  0  0  0
  -22.4160   -8.1390   21.3780 C   0  0  0  0  0  0  0  0  0  0  0  0
  -22.0090   -9.0920   20.4270 C   0  0  0  0  0  3  0  0  0  0  0  0
  -22.7420  -10.2760   20.2410 C   0  0  0  0  0  3  0  0  0  0  0  0
  -21.6540   -6.9990   21.4710 O   0  0  0  0  0  0  0  0  0  0  0  0
  -21.6120   -6.2560   22.6220 C   0  0  0  0  0  0  0  0  0  0  0  0
  -21.2090   -6.8150   23.8540 C   0  0  0  0  0  3  0  0  0  0  0  0
  -21.1110   -5.9990   25.0000 C   0  0  0  0  0  3  0  0  0  0  0  0
  -21.4060   -4.6260   24.9130 C   0  0  0  0  0  0  0  0  0  0  0  0
  -21.8010   -4.0650   23.6850 C   0  0  0  0  0  3  0  0  0  0  0  0
  -21.9010   -4.8790   22.5420 C   0  0  0  0  0  0  0  0  0  0  0  0
  -22.2610   -4.3300   21.3570 F   0  0  0  0  0  0  0  0  0  0  0  0
  -21.3040   -3.8390   26.0100 F   0  0  0  0  0  0  0  0  0  0  0  0
  -22.7830  -13.6300   21.0700 C   0  0  0  0  0  0  0  0  0  0  0  0
  -22.0430  -12.9490   21.9390 N   0  0  0  0  0  0  0  0  0  0  0  0
  -22.3570  -14.6500   20.5320 O   0  0  0  0  0  0  0  0  0  0  0  0
  -22.4000  -12.1230   22.3950 H   0  0  0  0  0  0  0  0  0  0  0  0
  -21.1050  -13.2600   22.1490 H   0  0  0  0  0  0  0  0  0  0  0  0
  -25.4380  -15.2660   20.2530 N   0  0  0  0  0  0  0  0  0  0  0  0
  -26.2940  -15.6840   19.9110 H   0  0  0  0  0  0  0  0  0  0  0  0
  -24.6740  -15.9290   20.3280 H   0  0  0  0  0  0  0  0  0  0  0  0
  1 48  1  0
  2  4  2  0
  3  1  1  0
  3  2  1  0
  5  3  1  0
  6  2  1  0
  6  7  1  0
  8 19  2  0
  9  7  1  0
  9 14  1  0
 10 18  1  0
 10 20  1  0
 11 17  1  0
 11 13  1  0
 12 18  1  0
 13 12  1  0
 14 13  2  0
 15 16  1  0
 15  9  2  0
 16 11  2  0
 17 10  1  0
 18  8  1  0
 20 22  2  0
 21 20  1  0
 23 21  1  0
 24 33  2  0
 24 29  1  0
 25 21  1  0
 25 29  1  0
 26 25  1  0
 27 28  1  0
 27 26  1  0
 28 24  1  0
 29 30  2  0
 30 31  1  0
 32 31  2  0
 33 32  1  0
 34  8  1  0
 34 35  1  0
 34 44  1  0
 35 38  1  0
 36 40  1  0
 36 35  1  0
 37 36  2  0
 40 39  1  0
 42 40  1  0
 42 43  1  0
 42 41  1  0
 44 47  1  1
 44 45  1  0
 46 44  1  0
 49 48  1  0
 50 49  1  0
 50 52  1  0
 51 55  1  0
 52 51  1  0
 52 54  1  0
 53 51  2  0
 55 64  1  0
 56 64  1  0
 57 62  1  0
 58 59  1  0
 58 57  1  0
 60 59  1  0
 60 69  1  0
 60 61  1  0
 62 56  1  0
 62 61  1  0
 63 56  2  0
 64 65  1  0
 66 67  2  0
 67 86  1  0
 68 67  1  0
 68 71  1  0
 69 66  1  0
 69 70  1  0
 70 68  2  0
 71 72  1  0
 72 73  2  0
 74 77  1  0
 74 73  1  0
 75 74  2  0
 76 75  1  0
 76 71  2  0
 77 78  1  0
 78 79  1  0
 79 80  2  0
 81 80  1  0
 81 85  1  0
 82 81  2  0
 83 78  2  0
 83 82  1  0
 84 83  1  0
 86 87  1  0
 87 90  1  0
 87 89  1  0
 88 86  2  0
 91 93  1  0
 91 66  1  0
 92 91  1  0
M  ISO  4   6 101   7 101  56 100  64 100
M  END
>  <TORSDO>  (86) 
F 23

>  <SCORE>  (86) 
-12.596

>  <name>  (86) 
88

>  <ligand_id>  (86) 
88

>  <original_smiles>  (86) 
[H]c1c([H])c([H])c2c(c1[H])C([H])([H])C([H])([H])C([H])([H])C2([H])N([H])C(=O)C1([H])N(C(=O)C([H])(N([H])C(=O)C([H])(N([H])C([H])([H])[H])C([H])([H])[H])C(C([H])([H])[H])(C([H])([H])[H])C([H])([H])[H])C([H])([H])c2c([H])c(OC([H])([H])C(=O)N([H])C([H])([H])C([H])([H])C([H])([H])C([H])([H])N([H])C(=O)C([H])([H])N([H])C(=O)N3C([H])([H])C([H])([H])C([H])([H])C([H])(n4nc(-c5c([H])c([H])c(Oc6c([H])c([H])c(F)c([H])c6F)c([H])c5[H])c(C(=O)N([H])[H])c4N([H])[H])C3([H])[H])c([H])c([H])c2C1([H])[H]

>  <smiles>  (86) 
[H]c1c([H])c([H])c2c(c1[H])C([H])([H])C([H])([H])C([H])([H])C2([H])N([H])C(=O)C1([H])N(C(=O)C([H])(N([H])C(=O)C([H])(N([H])C([H])([H])[H])C([H])([H])[H])C(C([H])([H])[H])(C([H])([H])[H])C([H])([H])[H])C([H])([H])c2c([H])c(OC([H])([H])C(=O)N([H])C([H])([H])C([H])([H])C([H])([H])C([H])([H])N([H])C(=O)C([H])([H])N([H])C(=O)N3C([H])([H])C([H])([H])C([H])([H])C([H])(n4nc(-c5c([H])c([H])c(Oc6c([H])c([H])c(F)c([H])c6F)c([H])c5[H])c(C(=O)N([H])[H])c4N([H])[H])C3([H])[H])c([H])c([H])c2C1([H])[H]

$$$$
89:0:0
     RDKit          3D

 95102  0  0  1  0  0  0  0  0999 V2000
  -25.3380  -22.2600   20.3560 C   0  0  0  0  0  2  0  0  0  0  0  0
  -25.5860  -23.7400   20.0350 C   0  0  0  0  0  2  0  0  0  0  0  0
  -27.9120  -24.4630   20.5290 C   0  0  0  0  0  0  0  0  0  0  0  0
  -26.6200  -24.3470   20.8670 N   0  0  0  0  0  0  0  0  0  0  0  0
  -28.4300  -23.7960   19.6290 O   0  0  0  0  0  0  0  0  0  0  0  0
  -26.3020  -24.9410   21.6210 H   0  0  0  0  0  0  0  0  0  0  0  0
  -28.7150  -25.5630   21.2470 C   0  0  0  0  0  2  0  0  0  0  0  0
  -28.7550  -26.7710   20.4680 O   0  0  0  0  0  0  0  0  0  0  0  0
  -24.6400  -31.8910   23.2140 C   0  0  0  0  0  0  0  0  0  0  0  0
  -27.5690  -27.4630   20.4070 C   0  0  0  0  0  0  0  0  0  0  0  0
  -23.5520  -30.3760   21.5900 C   0  0  0  0  0  3  0  0  0  0  0  0
  -25.1190  -28.8520   20.2770 C   0  0  0  0  0  0  0  0  0  0  0  0
  -26.0640  -30.8340   21.4690 C   0  0  0  0  0  2  0  0  0  0  0  0
  -26.2300  -29.4450   20.8920 C   0  0  0  0  0  0  0  0  0  0  0  0
  -27.4570  -28.7530   20.9690 C   0  0  0  0  0  3  0  0  0  0  0  0
  -26.4560  -26.8980   19.7520 C   0  0  0  0  0  3  0  0  0  0  0  0
  -25.2230  -27.5710   19.7110 C   0  0  0  0  0  3  0  0  0  0  0  0
  -23.8380  -29.6540   20.2460 C   0  0  0  0  0  2  0  0  0  0  0  0
  -24.7670  -31.0490   22.1500 N   0  0  0  0  0  0  0  0  0  0  0  0
  -23.5290  -32.1420   23.7010 O   0  0  0  0  0  0  0  0  0  0  0  0
  -22.9090  -29.3640   22.5640 C   0  0  0  0  0  0  0  0  0  0  0  0
  -21.6030  -29.1110   22.3850 N   0  0  0  0  0  0  0  0  0  0  0  0
  -23.5840  -28.8090   23.4350 O   0  0  0  0  0  0  0  0  0  0  0  0
  -21.1230  -29.6080   21.6490 H   0  0  0  0  0  0  0  0  0  0  0  0
  -18.2540  -27.8340   22.8310 C   0  0  0  0  0  0  0  0  0  0  0  0
  -20.7960  -28.1710   23.1600 C   0  0  0  0  0  3  0  0  0  0  0  0
  -20.9540  -26.7300   22.6260 C   0  0  0  0  0  2  0  0  0  0  0  0
  -19.8870  -26.3480   21.5950 C   0  0  0  0  0  2  0  0  0  0  0  0
  -18.4850  -26.4710   22.1990 C   0  0  0  0  0  2  0  0  0  0  0  0
  -19.3400  -28.6380   23.2680 C   0  0  0  0  0  0  0  0  0  0  0  0
  -19.0710  -29.9120   23.8170 C   0  0  0  0  0  3  0  0  0  0  0  0
  -17.7500  -30.3810   23.9350 C   0  0  0  0  0  3  0  0  0  0  0  0
  -16.6770  -29.5730   23.5150 C   0  0  0  0  0  3  0  0  0  0  0  0
  -16.9300  -28.3020   22.9700 C   0  0  0  0  0  3  0  0  0  0  0  0
  -25.8780  -32.5950   23.8510 C   0  0  0  0  0  3  0  0  0  0  0  0
  -26.3330  -31.9420   25.2130 C   0  0  1  0  0  0  0  0  0  0  0  0
  -25.1740  -31.7250   26.2130 C   0  0  0  0  0  1  0  0  0  0  0  0
  -27.0050  -30.5720   24.9650 C   0  0  0  0  0  1  0  0  0  0  0  0
  -27.3980  -32.8360   25.8920 C   0  0  0  0  0  1  0  0  0  0  0  0
  -25.5320  -34.0100   24.0380 N   0  0  0  0  0  0  0  0  0  0  0  0
  -25.8790  -34.9940   23.1970 C   0  0  0  0  0  0  0  0  0  0  0  0
  -26.5920  -34.8100   22.2070 O   0  0  0  0  0  0  0  0  0  0  0  0
  -24.9030  -34.2260   24.7970 H   0  0  0  0  0  0  0  0  0  0  0  0
  -24.1250  -36.6970   22.6160 C   0  0  0  0  0  1  0  0  0  0  0  0
  -25.3460  -36.4060   23.5010 C   0  0  0  0  0  3  0  0  0  0  0  0
  -27.4320  -37.4130   24.3100 C   0  0  0  0  0  1  0  0  0  0  0  0
  -26.3590  -37.4670   23.3210 N   0  0  0  0  0  0  0  0  0  0  0  0
  -25.9310  -38.3870   23.3700 H   0  0  0  0  0  0  0  0  0  0  0  0
  -24.5650  -21.5880   19.2080 C   0  0  0  0  0  2  0  0  0  0  0  0
  -24.5580  -20.0490   19.2290 C   0  0  0  0  0  2  0  0  0  0  0  0
  -25.9460  -19.3850   19.1560 C   0  0  0  0  0  2  0  0  0  0  0  0
  -26.8220  -19.8870   17.9950 C   0  0  0  0  0  2  0  0  0  0  0  0
  -28.0180  -18.9840   17.6840 C   0  0  0  0  0  2  0  0  0  0  0  0
  -28.9780  -18.7650   18.8670 C   0  0  0  0  0  2  0  0  0  0  0  0
  -30.1990  -17.9430   18.4320 C   0  0  0  0  0  2  0  0  0  0  0  0
  -31.5670  -15.1930   20.2340 C   0  0  0  0  0  0  0  0  0  0  0  0
  -31.2900  -12.9060   19.4240 C   0  0  0  0  0  2  0  0  0  0  0  0
  -30.4210  -12.9780   18.1490 C   0  0  0  0  0  2  0  0  0  0  0  0
  -28.9210  -12.9220   18.5050 C   0  0  0  0  0  2  0  0  0  0  0  0
  -28.5260  -13.9350   19.6140 C   0  0  0  0  0  3  0  0  0  0  0  0
  -29.5150  -13.8540   20.8030 C   0  0  0  0  0  2  0  0  0  0  0  0
  -30.8850  -14.0220   20.2850 N   0  0  0  0  0  0  0  0  0  0  0  0
  -32.7800  -15.2630   20.0230 O   0  0  0  0  0  0  0  0  0  0  0  0
  -31.0740  -17.4430   19.5810 C   0  0  0  0  0  0  0  0  0  0  0  0
  -30.7410  -16.2360   20.0560 N   0  0  0  0  0  0  0  0  0  0  0  0
  -32.0470  -18.1080   19.9520 O   0  0  0  0  0  0  0  0  0  0  0  0
  -29.7830  -15.9590   19.9350 H   0  0  0  0  0  0  0  0  0  0  0  0
  -26.1410  -14.6990   20.2040 C   0  0  0  0  0  0  0  0  0  0  0  0
  -25.0120  -14.0030   20.5430 C   0  0  0  0  0  0  0  0  0  0  0  0
  -25.3960  -12.6270   20.5650 C   0  0  0  0  0  0  0  0  0  0  0  0
  -27.1420  -13.7540   20.0430 N   0  0  0  0  0  0  0  0  0  0  0  0
  -26.6930  -12.5040   20.3170 N   0  0  0  0  0  0  0  0  0  0  0  0
  -24.5910  -11.4140   20.7440 C   0  0  0  0  0  0  0  0  0  0  0  0
  -24.9260  -10.4410   21.7110 C   0  0  0  0  0  3  0  0  0  0  0  0
  -24.1250   -9.2910   21.8780 C   0  0  0  0  0  3  0  0  0  0  0  0
  -22.9740   -9.1070   21.0760 C   0  0  0  0  0  0  0  0  0  0  0  0
  -22.6590  -10.0640   20.0950 C   0  0  0  0  0  3  0  0  0  0  0  0
  -23.4610  -11.2060   19.9260 C   0  0  0  0  0  3  0  0  0  0  0  0
  -22.1520   -8.0090   21.1510 O   0  0  0  0  0  0  0  0  0  0  0  0
  -21.9730   -7.3230   22.3260 C   0  0  0  0  0  0  0  0  0  0  0  0
  -21.4960   -7.9600   23.4930 C   0  0  0  0  0  3  0  0  0  0  0  0
  -21.2620   -7.2050   24.6590 C   0  0  0  0  0  3  0  0  0  0  0  0
  -21.4910   -5.8150   24.6580 C   0  0  0  0  0  0  0  0  0  0  0  0
  -21.9570   -5.1790   23.4950 C   0  0  0  0  0  3  0  0  0  0  0  0
  -22.1950   -5.9320   22.3310 C   0  0  0  0  0  0  0  0  0  0  0  0
  -22.6270   -5.3120   21.2060 F   0  0  0  0  0  0  0  0  0  0  0  0
  -21.2560   -5.0880   25.7750 F   0  0  0  0  0  0  0  0  0  0  0  0
  -23.6360  -14.5670   20.7390 C   0  0  0  0  0  0  0  0  0  0  0  0
  -22.8340  -13.9450   21.5970 N   0  0  0  0  0  0  0  0  0  0  0  0
  -23.2780  -15.5970   20.1670 O   0  0  0  0  0  0  0  0  0  0  0  0
  -23.1340  -13.1120   22.0800 H   0  0  0  0  0  0  0  0  0  0  0  0
  -21.9070  -14.3050   21.7770 H   0  0  0  0  0  0  0  0  0  0  0  0
  -26.3890  -16.0510   20.0030 N   0  0  0  0  0  0  0  0  0  0  0  0
  -25.6390  -16.7310   20.0370 H   0  0  0  0  0  0  0  0  0  0  0  0
  -27.2550  -16.4340   19.6550 H   0  0  0  0  0  0  0  0  0  0  0  0
  2  1  1  0
  2  4  1  0
  3  4  1  0
  3  7  1  0
  4  6  1  0
  5  3  2  0
  8  7  1  0
  9 20  2  0
 10  8  1  0
 10 15  1  0
 11 19  1  0
 11 21  1  0
 12 14  1  0
 13 19  1  0
 14 15  2  0
 14 13  1  0
 16 10  2  0
 17 16  1  0
 17 12  2  0
 18 12  1  0
 18 11  1  0
 19  9  1  0
 21 23  2  0
 22 21  1  0
 24 22  1  0
 25 34  2  0
 25 30  1  0
 26 22  1  0
 26 30  1  0
 27 26  1  0
 28 29  1  0
 28 27  1  0
 29 25  1  0
 30 31  2  0
 31 32  1  0
 33 32  2  0
 34 33  1  0
 35  9  1  0
 35 40  1  0
 35 36  1  0
 36 39  1  1
 36 37  1  0
 38 36  1  0
 40 43  1  0
 41 45  1  0
 41 40  1  0
 42 41  2  0
 45 44  1  0
 47 48  1  0
 47 45  1  0
 47 46  1  0
 49 50  1  0
 49  1  1  0
 51 50  1  0
 52 51  1  0
 53 52  1  0
 53 54  1  0
 55 54  1  0
 55 64  1  0
 56 62  1  0
 57 62  1  0
 58 59  1  0
 58 57  1  0
 60 59  1  0
 60 71  1  0
 60 61  1  0
 62 61  1  0
 63 56  2  0
 64 66  2  0
 64 65  1  0
 65 56  1  0
 67 65  1  0
 68 69  2  0
 69 70  1  0
 69 88  1  0
 70 73  1  0
 71 68  1  0
 71 72  1  0
 72 70  2  0
 73 74  1  0
 74 75  2  0
 76 79  1  0
 76 75  1  0
 77 76  2  0
 78 77  1  0
 78 73  2  0
 79 80  1  0
 80 85  2  0
 80 81  1  0
 81 82  2  0
 83 82  1  0
 83 87  1  0
 84 83  2  0
 85 84  1  0
 86 85  1  0
 88 89  1  0
 89 92  1  0
 89 91  1  0
 90 88  2  0
 93 94  1  0
 93 68  1  0
 95 93  1  0
M  ISO  4   7 101   8 101  56 100  65 100
M  END
>  <TORSDO>  (87) 
F 26

>  <SCORE>  (87) 
-7.692

>  <name>  (87) 
89

>  <ligand_id>  (87) 
89

>  <original_smiles>  (87) 
[H]c1c([H])c([H])c2c(c1[H])C([H])([H])C([H])([H])C([H])([H])C2([H])N([H])C(=O)C1([H])N(C(=O)C([H])(N([H])C(=O)C([H])(N([H])C([H])([H])[H])C([H])([H])[H])C(C([H])([H])[H])(C([H])([H])[H])C([H])([H])[H])C([H])([H])c2c([H])c(OC([H])([H])C(=O)N([H])C([H])([H])C([H])([H])C([H])([H])C([H])([H])C([H])([H])C([H])([H])C([H])([H])C([H])([H])C([H])([H])C(=O)N([H])C(=O)N3C([H])([H])C([H])([H])C([H])([H])C([H])(n4nc(-c5c([H])c([H])c(Oc6c([H])c([H])c(F)c([H])c6F)c([H])c5[H])c(C(=O)N([H])[H])c4N([H])[H])C3([H])[H])c([H])c([H])c2C1([H])[H]

>  <smiles>  (87) 
[H]c1c([H])c([H])c2c(c1[H])C([H])([H])C([H])([H])C([H])([H])C2([H])N([H])C(=O)C1([H])N(C(=O)C([H])(N([H])C(=O)C([H])(N([H])C([H])([H])[H])C([H])([H])[H])C(C([H])([H])[H])(C([H])([H])[H])C([H])([H])[H])C([H])([H])c2c([H])c(OC([H])([H])C(=O)N([H])C([H])([H])C([H])([H])C([H])([H])C([H])([H])C([H])([H])C([H])([H])C([H])([H])C([H])([H])C([H])([H])C(=O)N([H])C(=O)N3C([H])([H])C([H])([H])C([H])([H])C([H])(n4nc(-c5c([H])c([H])c(Oc6c([H])c([H])c(F)c([H])c6F)c([H])c5[H])c(C(=O)N([H])[H])c4N([H])[H])C3([H])[H])c([H])c([H])c2C1([H])[H]

$$$$
90:0:0
     RDKit          3D

104112  0  0  1  0  0  0  0  0999 V2000
  -25.3550  -24.9510   22.4780 C   0  0  0  0  0  3  0  0  0  0  0  0
  -25.2580  -24.8000   23.8020 N   0  0  0  0  0  0  0  0  0  0  0  0
  -26.0490  -25.8240   21.9540 O   0  0  0  0  0  0  0  0  0  0  0  0
  -24.8340  -23.9480   24.1460 H   0  0  0  0  0  0  0  0  0  0  0  0
  -25.7510  -25.7430   24.7960 C   0  0  0  0  0  2  0  0  0  0  0  0
  -27.2540  -25.6020   25.0180 C   0  0  0  0  0  0  0  0  0  0  0  0
  -28.0180  -25.4980   23.9280 N   0  0  0  0  0  0  0  0  0  0  0  0
  -27.7070  -25.6230   26.1640 O   0  0  0  0  0  0  0  0  0  0  0  0
  -27.5400  -25.4620   23.0320 H   0  0  0  0  0  0  0  0  0  0  0  0
  -29.4710  -25.6430   23.9220 C   0  0  0  0  0  2  0  0  0  0  0  0
  -29.8380  -26.9370   23.1820 C   0  0  0  0  0  2  0  0  0  0  0  0
  -29.3290  -26.8890   21.8500 O   0  0  0  0  0  0  0  0  0  0  0  0
  -24.6330  -32.0380   23.4090 C   0  0  0  0  0  0  0  0  0  0  0  0
  -28.1410  -27.5280   21.5920 C   0  0  0  0  0  0  0  0  0  0  0  0
  -23.8740  -30.3120   21.8040 C   0  0  0  0  0  3  0  0  0  0  0  0
  -25.6880  -28.7460   20.9230 C   0  0  0  0  0  0  0  0  0  0  0  0
  -26.3510  -30.8930   22.0260 C   0  0  0  0  0  2  0  0  0  0  0  0
  -26.6530  -29.4630   21.6360 C   0  0  0  0  0  0  0  0  0  0  0  0
  -27.8820  -28.8630   21.9730 C   0  0  0  0  0  3  0  0  0  0  0  0
  -27.1630  -26.8150   20.8760 C   0  0  0  0  0  0  0  0  0  0  0  0
  -25.9370  -27.4160   20.5350 C   0  0  0  0  0  3  0  0  0  0  0  0
  -24.3990  -29.4700   20.6080 C   0  0  0  0  0  2  0  0  0  0  0  0
  -24.9580  -31.1060   22.4690 N   0  0  0  0  0  0  0  0  0  0  0  0
  -23.4510  -32.2790   23.6840 O   0  0  0  0  0  0  0  0  0  0  0  0
  -23.1170  -29.3740   22.7730 C   0  0  0  0  0  0  0  0  0  0  0  0
  -21.8230  -29.1510   22.4920 N   0  0  0  0  0  0  0  0  0  0  0  0
  -23.6960  -28.8460   23.7240 O   0  0  0  0  0  0  0  0  0  0  0  0
  -21.4170  -29.6390   21.7090 H   0  0  0  0  0  0  0  0  0  0  0  0
  -18.3530  -28.2280   22.8810 C   0  0  0  0  0  0  0  0  0  0  0  0
  -20.9150  -28.2750   23.2300 C   0  0  0  0  0  3  0  0  0  0  0  0
  -20.9220  -26.8470   22.6350 C   0  0  0  0  0  2  0  0  0  0  0  0
  -19.8260  -26.6280   21.5920 C   0  0  0  0  0  2  0  0  0  0  0  0
  -18.4420  -26.8690   22.2010 C   0  0  0  0  0  2  0  0  0  0  0  0
  -19.5180  -28.8940   23.3490 C   0  0  0  0  0  0  0  0  0  0  0  0
  -19.3900  -30.1710   23.9410 C   0  0  0  0  0  3  0  0  0  0  0  0
  -18.1280  -30.7830   24.0670 C   0  0  0  0  0  3  0  0  0  0  0  0
  -16.9760  -30.1060   23.6290 C   0  0  0  0  0  3  0  0  0  0  0  0
  -17.0890  -28.8330   23.0440 C   0  0  0  0  0  3  0  0  0  0  0  0
  -25.7300  -32.8550   24.1610 C   0  0  0  0  0  3  0  0  0  0  0  0
  -26.1640  -32.2050   25.5320 C   0  0  1  0  0  0  0  0  0  0  0  0
  -24.9760  -31.6950   26.3790 C   0  0  0  0  0  1  0  0  0  0  0  0
  -27.1210  -31.0110   25.2940 C   0  0  0  0  0  1  0  0  0  0  0  0
  -26.9460  -33.2400   26.3770 C   0  0  0  0  0  1  0  0  0  0  0  0
  -25.2040  -34.2130   24.3660 N   0  0  0  0  0  0  0  0  0  0  0  0
  -25.5130  -35.2690   23.6030 C   0  0  0  0  0  0  0  0  0  0  0  0
  -26.3370  -35.2160   22.6850 O   0  0  0  0  0  0  0  0  0  0  0  0
  -24.4820  -34.3210   25.0610 H   0  0  0  0  0  0  0  0  0  0  0  0
  -23.6280  -36.7870   22.9190 C   0  0  0  0  0  1  0  0  0  0  0  0
  -24.7900  -36.5960   23.9050 C   0  0  0  0  0  3  0  0  0  0  0  0
  -26.6860  -37.7760   24.9220 C   0  0  0  0  0  1  0  0  0  0  0  0
  -25.6810  -37.7750   23.8620 N   0  0  0  0  0  0  0  0  0  0  0  0
  -25.1460  -38.6350   23.9310 H   0  0  0  0  0  0  0  0  0  0  0  0
  -24.5230  -23.9940   21.6280 C   0  0  0  0  0  2  0  0  0  0  0  0
  -24.9430  -22.5650   19.6650 C   0  0  0  0  0  0  0  0  0  0  0  0
  -25.2160  -23.6530   20.3920 N   0  0  0  0  0  0  0  0  0  0  0  0
  -24.0730  -21.7560   19.9930 O   0  0  0  0  0  0  0  0  0  0  0  0
  -26.0000  -24.2450   20.1470 H   0  0  0  0  0  0  0  0  0  0  0  0
  -25.7710  -22.3160   18.4030 C   0  0  0  0  0  2  0  0  0  0  0  0
  -26.6070  -21.0300   18.5300 C   0  0  0  0  0  2  0  0  0  0  0  0
  -27.5910  -20.8460   17.3670 C   0  0  0  0  0  2  0  0  0  0  0  0
  -28.7870  -19.9710   17.7470 C   0  0  0  0  0  2  0  0  0  0  0  0
  -29.2540  -19.1120   16.5690 C   0  0  0  0  0  2  0  0  0  0  0  0
  -30.6130  -18.4710   16.8450 C   0  0  0  0  0  2  0  0  0  0  0  0
  -30.6000  -16.9540   16.6210 C   0  0  0  0  0  2  0  0  0  0  0  0
  -31.9430  -16.2980   16.9870 C   0  0  0  0  0  2  0  0  0  0  0  0
  -32.5350  -16.7850   18.3270 C   0  0  0  0  0  2  0  0  0  0  0  0
  -32.6230  -14.9880   20.0030 C   0  0  0  0  0  0  0  0  0  0  0  0
  -32.5560  -13.1810   21.6640 C   0  0  0  0  0  2  0  0  0  0  0  0
  -32.0950  -11.8530   21.0400 C   0  0  0  0  0  2  0  0  0  0  0  0
  -30.5600  -11.7470   21.0810 C   0  0  0  0  0  2  0  0  0  0  0  0
  -29.8600  -13.0110   20.5160 C   0  0  0  0  0  3  0  0  0  0  0  0
  -30.4600  -14.3020   21.1210 C   0  0  0  0  0  2  0  0  0  0  0  0
  -31.9250  -14.2860   20.9310 N   0  0  0  0  0  0  0  0  0  0  0  0
  -33.7930  -14.7320   19.6980 O   0  0  0  0  0  0  0  0  0  0  0  0
  -31.9900  -16.0190   19.4470 N   0  0  0  0  0  0  0  0  0  0  0  0
  -31.0490  -16.2210   19.7540 H   0  0  0  0  0  0  0  0  0  0  0  0
  -27.4680  -13.9560   20.6580 C   0  0  0  0  0  0  0  0  0  0  0  0
  -26.2500  -13.3480   20.8400 C   0  0  0  0  0  0  0  0  0  0  0  0
  -26.5240  -11.9550   20.9800 C   0  0  0  0  0  0  0  0  0  0  0  0
  -28.4110  -12.9420   20.7120 N   0  0  0  0  0  0  0  0  0  0  0  0
  -27.8330  -11.7370   20.9550 N   0  0  0  0  0  0  0  0  0  0  0  0
  -25.6110  -10.8070   21.0810 C   0  0  0  0  0  0  0  0  0  0  0  0
  -25.6570   -9.9230   22.1810 C   0  0  0  0  0  3  0  0  0  0  0  0
  -24.7570   -8.8390   22.2650 C   0  0  0  0  0  3  0  0  0  0  0  0
  -23.7970   -8.6320   21.2450 C   0  0  0  0  0  0  0  0  0  0  0  0
  -23.7710   -9.5020   20.1410 C   0  0  0  0  0  3  0  0  0  0  0  0
  -24.6710  -10.5780   20.0560 C   0  0  0  0  0  3  0  0  0  0  0  0
  -22.9000   -7.5910   21.2290 O   0  0  0  0  0  0  0  0  0  0  0  0
  -22.3750   -7.0770   22.3870 C   0  0  0  0  0  0  0  0  0  0  0  0
  -21.6180   -7.8690   23.2780 C   0  0  0  0  0  3  0  0  0  0  0  0
  -21.0370   -7.2850   24.4210 C   0  0  0  0  0  3  0  0  0  0  0  0
  -21.2020   -5.9090   24.6710 C   0  0  0  0  0  0  0  0  0  0  0  0
  -21.9500   -5.1170   23.7810 C   0  0  0  0  0  3  0  0  0  0  0  0
  -22.5320   -5.7000   22.6410 C   0  0  0  0  0  0  0  0  0  0  0  0
  -23.2330   -4.9270   21.7770 F   0  0  0  0  0  0  0  0  0  0  0  0
  -20.6380   -5.3450   25.7640 F   0  0  0  0  0  0  0  0  0  0  0  0
  -24.9060  -14.0130   20.7890 C   0  0  0  0  0  0  0  0  0  0  0  0
  -23.9420  -13.5020   21.5510 N   0  0  0  0  0  0  0  0  0  0  0  0
  -24.7110  -15.0190   20.1080 O   0  0  0  0  0  0  0  0  0  0  0  0
  -24.1070  -12.6900   22.1250 H   0  0  0  0  0  0  0  0  0  0  0  0
  -23.0300  -13.9350   21.5610 H   0  0  0  0  0  0  0  0  0  0  0  0
  -27.8430  -15.2740   20.4350 N   0  0  0  0  0  0  0  0  0  0  0  0
  -27.1650  -16.0240   20.3590 H   0  0  0  0  0  0  0  0  0  0  0  0
  -28.7970  -15.5800   20.2880 H   0  0  0  0  0  0  0  0  0  0  0  0
  1 53  1  0
  1  2  1  0
  2  4  1  0
  2  5  1  0
  3  1  1  0
  5  6  1  0
  6  8  2  0
  7  6  1  0
  9  7  1  0
 10  7  1  0
 11 10  1  0
 12 11  1  0
 13 24  2  0
 14 12  1  0
 14 19  1  0
 15 23  1  0
 15 25  1  0
 16 18  1  0
 17 23  1  0
 18 19  2  0
 18 17  1  0
 20 14  2  0
 20  3  1  0
 21 20  1  0
 21 16  2  0
 22 16  1  0
 22 15  1  0
 23 13  1  0
 25 27  2  0
 26 25  1  0
 28 26  1  0
 29 38  2  0
 29 34  1  0
 30 26  1  0
 30 34  1  0
 31 30  1  0
 32 33  1  0
 32 31  1  0
 33 29  1  0
 34 35  2  0
 35 36  1  0
 37 36  2  0
 38 37  1  0
 39 13  1  0
 39 44  1  0
 39 40  1  0
 40 43  1  1
 40 41  1  0
 42 40  1  0
 44 47  1  0
 45 49  1  0
 45 44  1  0
 46 45  2  0
 49 48  1  0
 51 49  1  0
 51 52  1  0
 51 50  1  0
 54 56  2  0
 54 55  1  0
 55 53  1  0
 57 55  1  0
 58 59  1  0
 58 54  1  0
 60 61  1  0
 60 59  1  0
 62 63  1  0
 62 61  1  0
 64 63  1  0
 64 65  1  0
 65 66  1  0
 66 75  1  0
 67 73  1  0
 69 70  1  0
 69 68  1  0
 71 80  1  0
 71 70  1  0
 71 72  1  0
 73 72  1  0
 73 68  1  0
 74 67  2  0
 75 76  1  0
 75 67  1  0
 77 80  1  0
 77 78  2  0
 78 79  1  0
 79 82  1  0
 80 81  1  0
 81 79  2  0
 82 83  1  0
 83 84  2  0
 85 84  1  0
 86 85  2  0
 87 86  1  0
 87 82  2  0
 88 85  1  0
 88 89  1  0
 89 94  2  0
 89 90  1  0
 90 91  2  0
 91 92  1  0
 92 96  1  0
 93 92  2  0
 94 93  1  0
 95 94  1  0
 97 78  1  0
 97 98  1  0
 98101  1  0
 98100  1  0
 99 97  2  0
102 77  1  0
103102  1  0
104102  1  0
M  ISO  4  11 101  12 101  67 100  75 100
M  END
>  <TORSDO>  (88) 
F 31

>  <SCORE>  (88) 
-6.378

>  <name>  (88) 
90

>  <ligand_id>  (88) 
90

>  <original_smiles>  (88) 
[H]c1c([H])c([H])c2c(c1[H])C([H])([H])C([H])([H])C([H])([H])C2([H])N([H])C(=O)C1([H])N(C(=O)C([H])(N([H])C(=O)C([H])(N([H])C([H])([H])[H])C([H])([H])[H])C(C([H])([H])[H])(C([H])([H])[H])C([H])([H])[H])C([H])([H])c2c([H])c(OC([H])([H])C([H])([H])N([H])C(=O)C([H])([H])N([H])C(=O)C([H])([H])N([H])C(=O)C([H])([H])C([H])([H])C([H])([H])C([H])([H])C([H])([H])C([H])([H])C([H])([H])C([H])([H])C([H])([H])N([H])C(=O)N3C([H])([H])C([H])([H])C([H])([H])C([H])(n4nc(-c5c([H])c([H])c(Oc6c([H])c([H])c(F)c([H])c6F)c([H])c5[H])c(C(=O)N([H])[H])c4N([H])[H])C3([H])[H])c([H])c([H])c2C1([H])[H]

>  <smiles>  (88) 
[H]c1c([H])c([H])c2c(c1[H])C([H])([H])C([H])([H])C([H])([H])C2([H])N([H])C(=O)C1([H])N(C(=O)C([H])(N([H])C(=O)C([H])(N([H])C([H])([H])[H])C([H])([H])[H])C(C([H])([H])[H])(C([H])([H])[H])C([H])([H])[H])C([H])([H])c2c([H])c(OC([H])([H])C([H])([H])N([H])C(=O)C([H])([H])N([H])C(=O)C([H])([H])N([H])C(=O)C([H])([H])C([H])([H])C([H])([H])C([H])([H])C([H])([H])C([H])([H])C([H])([H])C([H])([H])C([H])([H])N([H])C(=O)N3C([H])([H])C([H])([H])C([H])([H])C([H])(n4nc(-c5c([H])c([H])c(Oc6c([H])c([H])c(F)c([H])c6F)c([H])c5[H])c(C(=O)N([H])[H])c4N([H])[H])C3([H])[H])c([H])c([H])c2C1([H])[H]

$$$$
91:0:0
     RDKit          3D

 97105  0  0  1  0  0  0  0  0999 V2000
  -29.3170  -20.2200   18.6800 C   0  0  0  0  0  2  0  0  0  0  0  0
  -28.3200  -20.8030   19.7040 C   0  0  0  0  0  2  0  0  0  0  0  0
  -28.0680  -22.3060   19.5460 C   0  0  0  0  0  0  0  0  0  0  0  0
  -28.4410  -23.0920   20.5620 N   0  0  0  0  0  0  0  0  0  0  0  0
  -27.4940  -22.7350   18.5440 O   0  0  0  0  0  0  0  0  0  0  0  0
  -28.9270  -22.6450   21.3280 H   0  0  0  0  0  0  0  0  0  0  0  0
  -28.0750  -24.4940   20.7670 C   0  0  0  0  0  2  0  0  0  0  0  0
  -28.5880  -25.4580   19.6780 C   0  0  0  0  0  2  0  0  0  0  0  0
  -28.5040  -26.8120   20.1320 O   0  0  0  0  0  0  0  0  0  0  0  0
  -24.6220  -31.8990   23.2310 C   0  0  0  0  0  0  0  0  0  0  0  0
  -27.2880  -27.4650   20.1490 C   0  0  0  0  0  0  0  0  0  0  0  0
  -23.4200  -30.4830   21.6000 C   0  0  0  0  0  3  0  0  0  0  0  0
  -24.8740  -28.9410   20.1860 C   0  0  0  0  0  0  0  0  0  0  0  0
  -25.9410  -30.8570   21.3890 C   0  0  0  0  0  2  0  0  0  0  0  0
  -26.0310  -29.4810   20.7600 C   0  0  0  0  0  0  0  0  0  0  0  0
  -27.2380  -28.7480   20.7390 C   0  0  0  0  0  3  0  0  0  0  0  0
  -26.1020  -26.9290   19.5910 C   0  0  0  0  0  3  0  0  0  0  0  0
  -24.9000  -27.6620   19.6090 C   0  0  0  0  0  3  0  0  0  0  0  0
  -23.6300  -29.7970   20.2240 C   0  0  0  0  0  2  0  0  0  0  0  0
  -24.6800  -31.0950   22.1310 N   0  0  0  0  0  0  0  0  0  0  0  0
  -23.5400  -32.1670   23.7720 O   0  0  0  0  0  0  0  0  0  0  0  0
  -22.7810  -29.4600   22.5650 C   0  0  0  0  0  0  0  0  0  0  0  0
  -21.4570  -29.2710   22.4410 N   0  0  0  0  0  0  0  0  0  0  0  0
  -23.4710  -28.8410   23.3800 O   0  0  0  0  0  0  0  0  0  0  0  0
  -20.9650  -29.8240   21.7540 H   0  0  0  0  0  0  0  0  0  0  0  0
  -18.0880  -28.0670   22.9500 C   0  0  0  0  0  0  0  0  0  0  0  0
  -20.6450  -28.3340   23.2180 C   0  0  0  0  0  3  0  0  0  0  0  0
  -20.7520  -26.9010   22.6500 C   0  0  0  0  0  2  0  0  0  0  0  0
  -19.6500  -26.5680   21.6390 C   0  0  0  0  0  2  0  0  0  0  0  0
  -18.2680  -26.7130   22.2830 C   0  0  0  0  0  2  0  0  0  0  0  0
  -19.2040  -28.8340   23.3750 C   0  0  0  0  0  0  0  0  0  0  0  0
  -18.9830  -30.1000   23.9590 C   0  0  0  0  0  3  0  0  0  0  0  0
  -17.6770  -30.5990   24.1230 C   0  0  0  0  0  3  0  0  0  0  0  0
  -16.5740  -29.8280   23.7160 C   0  0  0  0  0  3  0  0  0  0  0  0
  -16.7810  -28.5640   23.1350 C   0  0  0  0  0  3  0  0  0  0  0  0
  -25.9060  -32.5420   23.8440 C   0  0  0  0  0  3  0  0  0  0  0  0
  -25.5850  -33.9360   24.1790 N   0  0  0  0  0  0  0  0  0  0  0  0
  -25.9020  -34.9910   23.4170 C   0  0  0  0  0  0  0  0  0  0  0  0
  -26.5670  -34.8950   22.3810 O   0  0  0  0  0  0  0  0  0  0  0  0
  -24.9980  -34.0840   24.9870 H   0  0  0  0  0  0  0  0  0  0  0  0
  -24.1550  -36.7640   23.0680 C   0  0  0  0  0  1  0  0  0  0  0  0
  -25.4020  -36.3740   23.8770 C   0  0  0  0  0  3  0  0  0  0  0  0
  -27.5340  -37.2740   24.6960 C   0  0  0  0  0  1  0  0  0  0  0  0
  -26.4230  -37.4370   23.7610 N   0  0  0  0  0  0  0  0  0  0  0  0
  -26.0100  -38.3530   23.9160 H   0  0  0  0  0  0  0  0  0  0  0  0
  -26.4440  -31.7710   25.1110 C   0  0  1  0  0  0  0  0  0  0  0  0
  -25.3660  -31.5110   26.1890 C   0  0  0  0  0  1  0  0  0  0  0  0
  -27.0410  -30.4030   24.7020 C   0  0  0  0  0  1  0  0  0  0  0  0
  -27.5940  -32.5750   25.7620 C   0  0  0  0  0  1  0  0  0  0  0  0
  -29.0260  -18.7520   18.3060 C   0  0  0  0  0  2  0  0  0  0  0  0
  -30.3170  -17.1900   19.8380 C   0  0  0  0  0  0  0  0  0  0  0  0
  -31.4770  -17.3520   19.1800 N   0  0  0  0  0  4  0  0  0  0  0  0
  -29.1980  -17.8360   19.4480 N   0  0  0  0  0  0  0  0  0  0  0  0
  -32.2830  -16.7940   19.4360 H   0  0  0  0  0  0  0  0  0  0  0  0
  -31.5760  -17.9220   18.3540 H   0  0  0  0  0  0  0  0  0  0  0  0
  -28.3790  -17.7350   20.0340 H   0  0  0  0  0  0  0  0  0  0  0  0
  -30.6960  -14.2360   19.8380 C   0  0  0  0  0  0  0  0  0  0  0  0
  -30.0860  -12.2850   18.4510 C   0  0  0  0  0  2  0  0  0  0  0  0
  -29.0300  -12.6590   17.3950 C   0  0  0  0  0  2  0  0  0  0  0  0
  -27.6120  -12.5290   17.9800 C   0  0  0  0  0  2  0  0  0  0  0  0
  -27.4630  -13.2520   19.3430 C   0  0  0  0  0  3  0  0  0  0  0  0
  -28.6170  -12.8790   20.3010 C   0  0  0  0  0  2  0  0  0  0  0  0
  -29.8970  -13.1560   19.6210 N   0  0  0  0  0  0  0  0  0  0  0  0
  -31.6250  -14.5440   19.0850 O   0  0  0  0  0  0  0  0  0  0  0  0
  -31.3360  -15.6840   23.1050 C   0  0  0  0  0  2  0  0  0  0  0  0
  -31.2240  -16.8640   22.1540 C   0  0  0  0  0  2  0  0  0  0  0  0
  -31.1830  -14.4620   22.1930 C   0  0  0  0  0  2  0  0  0  0  0  0
  -30.2410  -16.3550   21.0970 C   0  0  0  0  0  3  0  0  0  0  0  0
  -30.4710  -14.9040   20.9860 N   0  0  0  0  0  0  0  0  0  0  0  0
  -25.1560  -13.8840   20.2970 C   0  0  0  0  0  0  0  0  0  0  0  0
  -24.1160  -13.1230   20.7580 C   0  0  0  0  0  0  0  0  0  0  0  0
  -24.5450  -11.7650   20.6550 C   0  0  0  0  0  0  0  0  0  0  0  0
  -26.1560  -12.9910   19.9460 N   0  0  0  0  0  0  0  0  0  0  0  0
  -25.7970  -11.7100   20.2160 N   0  0  0  0  0  0  0  0  0  0  0  0
  -23.8180  -10.5120   20.8950 C   0  0  0  0  0  0  0  0  0  0  0  0
  -24.3140   -9.5260   21.7760 C   0  0  0  0  0  3  0  0  0  0  0  0
  -23.5880   -8.3370   22.0030 C   0  0  0  0  0  3  0  0  0  0  0  0
  -22.3500   -8.1250   21.3490 C   0  0  0  0  0  0  0  0  0  0  0  0
  -21.8720   -9.1000   20.4560 C   0  0  0  0  0  3  0  0  0  0  0  0
  -22.5990  -10.2800   20.2260 C   0  0  0  0  0  3  0  0  0  0  0  0
  -21.5890   -6.9890   21.4870 O   0  0  0  0  0  0  0  0  0  0  0  0
  -21.6180   -6.2400   22.6360 C   0  0  0  0  0  0  0  0  0  0  0  0
  -21.3180   -6.8000   23.8970 C   0  0  0  0  0  3  0  0  0  0  0  0
  -21.2900   -5.9780   25.0420 C   0  0  0  0  0  3  0  0  0  0  0  0
  -21.5530   -4.6000   24.9270 C   0  0  0  0  0  0  0  0  0  0  0  0
  -21.8480   -4.0410   23.6710 C   0  0  0  0  0  3  0  0  0  0  0  0
  -21.8770   -4.8590   22.5290 C   0  0  0  0  0  0  0  0  0  0  0  0
  -22.1400   -4.3120   21.3180 F   0  0  0  0  0  0  0  0  0  0  0  0
  -21.5200   -3.8100   26.0260 F   0  0  0  0  0  0  0  0  0  0  0  0
  -22.7630  -13.6180   21.1810 C   0  0  0  0  0  0  0  0  0  0  0  0
  -22.1220  -12.9270   22.1160 N   0  0  0  0  0  0  0  0  0  0  0  0
  -22.2870  -14.6530   20.7170 O   0  0  0  0  0  0  0  0  0  0  0  0
  -22.5220  -12.0900   22.5130 H   0  0  0  0  0  0  0  0  0  0  0  0
  -21.2180  -13.2400   22.4410 H   0  0  0  0  0  0  0  0  0  0  0  0
  -25.3260  -15.2560   20.1250 N   0  0  0  0  0  0  0  0  0  0  0  0
  -24.5750  -15.9130   20.2990 H   0  0  0  0  0  0  0  0  0  0  0  0
  -26.1170  -15.6710   19.6500 H   0  0  0  0  0  0  0  0  0  0  0  0
  1  2  1  0
  3  2  1  0
  3  4  1  0
  4  7  1  0
  4  6  1  0
  5  3  2  0
  8  9  1  0
  8  7  1  0
  9 11  1  0
 10 21  2  0
 11 16  1  0
 12 20  1  0
 12 22  1  0
 13 19  1  0
 13 15  1  0
 14 20  1  0
 15 14  1  0
 16 15  2  0
 17 18  1  0
 17 11  2  0
 18 13  2  0
 19 12  1  0
 20 10  1  0
 22 24  2  0
 23 22  1  0
 25 23  1  0
 26 35  2  0
 26 31  1  0
 27 23  1  0
 27 31  1  0
 28 27  1  0
 29 30  1  0
 29 28  1  0
 30 26  1  0
 31 32  2  0
 32 33  1  0
 34 33  2  0
 35 34  1  0
 36 10  1  0
 36 37  1  0
 36 46  1  0
 37 40  1  0
 38 42  1  0
 38 37  1  0
 39 38  2  0
 42 41  1  0
 44 42  1  0
 44 45  1  0
 44 43  1  0
 46 49  1  1
 46 47  1  0
 48 46  1  0
 50  1  1  0
 50 53  1  0
 52 54  1  0
 52 51  2  0
 53 51  1  0
 53 56  1  0
 55 52  1  0
 57 69  1  0
 58 63  1  0
 59 60  1  0
 59 58  1  0
 61 60  1  0
 61 73  1  0
 61 62  1  0
 63 57  1  0
 63 62  1  0
 64 57  2  0
 66 65  1  0
 67 65  1  0
 68 51  1  0
 68 66  1  0
 69 68  1  0
 69 67  1  0
 70 71  2  0
 71 90  1  0
 72 71  1  0
 72 75  1  0
 73 74  1  0
 73 70  1  0
 74 72  2  0
 75 76  1  0
 76 77  2  0
 78 81  1  0
 78 77  1  0
 79 78  2  0
 80 79  1  0
 80 75  2  0
 81 82  1  0
 82 83  1  0
 83 84  2  0
 85 84  1  0
 85 89  1  0
 86 85  2  0
 87 82  2  0
 87 86  1  0
 88 87  1  0
 90 91  1  0
 91 94  1  0
 91 93  1  0
 92 90  2  0
 95 70  1  0
 95 96  1  0
 97 95  1  0
M  ISO  4   8 101   9 101  57 100  69 100
M  END
>  <TORSDO>  (89) 
F 22

>  <SCORE>  (89) 
-10.189

>  <name>  (89) 
91

>  <ligand_id>  (89) 
91

>  <original_smiles>  (89) 
[H]c1c([H])c([H])c2c(c1[H])C([H])([H])C([H])([H])C([H])([H])C2([H])N([H])C(=O)C1([H])N(C(=O)C([H])(N([H])C(=O)C([H])(N([H])C([H])([H])[H])C([H])([H])[H])C(C([H])([H])[H])(C([H])([H])[H])C([H])([H])[H])C([H])([H])c2c([H])c(OC([H])([H])C([H])([H])N([H])C(=O)C([H])([H])C([H])([H])C([H])([H])[N+]([H])=C(N([H])[H])C3([H])N(C(=O)N4C([H])([H])C([H])([H])C([H])([H])C([H])(n5nc(-c6c([H])c([H])c(Oc7c([H])c([H])c(F)c([H])c7F)c([H])c6[H])c(C(=O)N([H])[H])c5N([H])[H])C4([H])[H])C([H])([H])C([H])([H])C3([H])[H])c([H])c([H])c2C1([H])[H]

>  <smiles>  (89) 
[H]c1c([H])c([H])c2c(c1[H])C([H])([H])C([H])([H])C([H])([H])C2([H])N([H])C(=O)C1([H])N(C(=O)C([H])(N([H])C(=O)C([H])(N([H])C([H])([H])[H])C([H])([H])[H])C(C([H])([H])[H])(C([H])([H])[H])C([H])([H])[H])C([H])([H])c2c([H])c(OC([H])([H])C([H])([H])N([H])C(=O)C([H])([H])C([H])([H])C([H])([H])[N+]([H])=C(N([H])[H])C3([H])N(C(=O)N4C([H])([H])C([H])([H])C([H])([H])C([H])(n5nc(-c6c([H])c([H])c(Oc7c([H])c([H])c(F)c([H])c7F)c([H])c6[H])c(C(=O)N([H])[H])c5N([H])[H])C4([H])[H])C([H])([H])C([H])([H])C3([H])[H])c([H])c([H])c2C1([H])[H]

$$$$
92:0:0
     RDKit          3D

 92 99  0  0  1  0  0  0  0  0999 V2000
  -28.1130  -23.7320   23.1490 C   0  0  0  0  0  2  0  0  0  0  0  0
  -28.5080  -25.4600   21.3950 C   0  0  0  0  0  0  0  0  0  0  0  0
  -28.8460  -24.8350   22.5320 N   0  0  0  0  0  0  0  0  0  0  0  0
  -27.6290  -25.0250   20.6460 O   0  0  0  0  0  0  0  0  0  0  0  0
  -29.5990  -25.2420   23.0720 H   0  0  0  0  0  0  0  0  0  0  0  0
  -29.2630  -26.7650   21.0750 C   0  0  0  0  0  2  0  0  0  0  0  0
  -28.7690  -27.3740   19.8790 O   0  0  0  0  0  0  0  0  0  0  0  0
  -24.6620  -32.0300   23.4030 C   0  0  0  0  0  0  0  0  0  0  0  0
  -27.5740  -28.0400   19.9950 C   0  0  0  0  0  0  0  0  0  0  0  0
  -23.5370  -30.6760   21.6630 C   0  0  0  0  0  3  0  0  0  0  0  0
  -25.0810  -29.3510   20.1260 C   0  0  0  0  0  0  0  0  0  0  0  0
  -26.0300  -31.2210   21.4890 C   0  0  0  0  0  2  0  0  0  0  0  0
  -26.2010  -29.9080   20.7570 C   0  0  0  0  0  0  0  0  0  0  0  0
  -27.4500  -29.2550   20.7010 C   0  0  0  0  0  3  0  0  0  0  0  0
  -26.4460  -27.4970   19.3490 C   0  0  0  0  0  3  0  0  0  0  0  0
  -25.1940  -28.1390   19.4240 C   0  0  0  0  0  3  0  0  0  0  0  0
  -23.7820  -30.1140   20.2360 C   0  0  0  0  0  2  0  0  0  0  0  0
  -24.7610  -31.3200   22.2440 N   0  0  0  0  0  0  0  0  0  0  0  0
  -23.5700  -32.1890   23.9640 O   0  0  0  0  0  0  0  0  0  0  0  0
  -22.9640  -29.5460   22.5450 C   0  0  0  0  0  0  0  0  0  0  0  0
  -21.6650  -29.2540   22.3710 N   0  0  0  0  0  0  0  0  0  0  0  0
  -23.6830  -28.9370   23.3410 O   0  0  0  0  0  0  0  0  0  0  0  0
  -21.1410  -29.8050   21.7040 H   0  0  0  0  0  0  0  0  0  0  0  0
  -18.4120  -27.7100   22.6660 C   0  0  0  0  0  0  0  0  0  0  0  0
  -20.9180  -28.2030   23.0640 C   0  0  0  0  0  3  0  0  0  0  0  0
  -21.1880  -26.8190   22.4310 C   0  0  0  0  0  2  0  0  0  0  0  0
  -20.1650  -26.4380   21.3550 C   0  0  0  0  0  2  0  0  0  0  0  0
  -18.7500  -26.4170   21.9420 C   0  0  0  0  0  2  0  0  0  0  0  0
  -19.4310  -28.5560   23.1790 C   0  0  0  0  0  0  0  0  0  0  0  0
  -19.0640  -29.7640   23.8120 C   0  0  0  0  0  3  0  0  0  0  0  0
  -17.7100  -30.1280   23.9400 C   0  0  0  0  0  3  0  0  0  0  0  0
  -16.7050  -29.2770   23.4460 C   0  0  0  0  0  3  0  0  0  0  0  0
  -17.0560  -28.0720   22.8140 C   0  0  0  0  0  3  0  0  0  0  0  0
  -25.9110  -32.6940   24.0640 C   0  0  0  0  0  3  0  0  0  0  0  0
  -26.3710  -31.9710   25.3890 C   0  0  1  0  0  0  0  0  0  0  0  0
  -25.2240  -31.7360   26.3990 C   0  0  0  0  0  1  0  0  0  0  0  0
  -27.0090  -30.6000   25.0660 C   0  0  0  0  0  1  0  0  0  0  0  0
  -27.4640  -32.8110   26.0920 C   0  0  0  0  0  1  0  0  0  0  0  0
  -25.5770  -34.1000   24.3270 N   0  0  0  0  0  0  0  0  0  0  0  0
  -25.9360  -35.1250   23.5430 C   0  0  0  0  0  0  0  0  0  0  0  0
  -26.6530  -34.9890   22.5480 O   0  0  0  0  0  0  0  0  0  0  0  0
  -24.9470  -34.2800   25.0950 H   0  0  0  0  0  0  0  0  0  0  0  0
  -24.2040  -36.8770   23.0440 C   0  0  0  0  0  1  0  0  0  0  0  0
  -25.4150  -36.5250   23.9230 C   0  0  0  0  0  3  0  0  0  0  0  0
  -27.5040  -37.4670   24.8030 C   0  0  0  0  0  1  0  0  0  0  0  0
  -26.4400  -37.5850   23.8100 N   0  0  0  0  0  0  0  0  0  0  0  0
  -26.0190  -38.5060   23.9000 H   0  0  0  0  0  0  0  0  0  0  0  0
  -27.9780  -22.4760   22.2650 C   0  0  0  0  0  2  0  0  0  0  0  0
  -29.2960  -21.9740   21.6550 C   0  0  0  0  0  2  0  0  0  0  0  0
  -29.1430  -20.5520   21.0940 C   0  0  0  0  0  2  0  0  0  0  0  0
  -30.4670  -19.9530   20.6090 C   0  0  0  0  0  2  0  0  0  0  0  0
  -30.4380  -18.4170   20.6110 C   0  0  0  0  0  2  0  0  0  0  0  0
  -31.7700  -17.8120   20.1460 C   0  0  0  0  0  2  0  0  0  0  0  0
  -32.0790  -16.4440   20.7770 C   0  0  0  0  0  2  0  0  0  0  0  0
  -31.2810  -14.5390   19.3990 C   0  0  0  0  0  0  0  0  0  0  0  0
  -30.8850  -12.1990   18.7360 C   0  0  0  0  0  2  0  0  0  0  0  0
  -29.8470  -12.0400   17.6150 C   0  0  0  0  0  2  0  0  0  0  0  0
  -28.4250  -11.9700   18.2000 C   0  0  0  0  0  2  0  0  0  0  0  0
  -28.1380  -13.1250   19.1940 C   0  0  0  0  0  3  0  0  0  0  0  0
  -29.2740  -13.2620   20.2330 C   0  0  0  0  0  2  0  0  0  0  0  0
  -30.5570  -13.4000   19.5180 N   0  0  0  0  0  0  0  0  0  0  0  0
  -32.1520  -14.7070   18.5400 O   0  0  0  0  0  0  0  0  0  0  0  0
  -31.1270  -15.3980   20.4130 N   0  0  0  0  0  0  0  0  0  0  0  0
  -30.4100  -15.1710   21.0870 H   0  0  0  0  0  0  0  0  0  0  0  0
  -25.9290  -13.9190   20.2560 C   0  0  0  0  0  0  0  0  0  0  0  0
  -24.8420  -13.2330   20.7270 C   0  0  0  0  0  0  0  0  0  0  0  0
  -25.1480  -11.8480   20.5610 C   0  0  0  0  0  0  0  0  0  0  0  0
  -26.8360  -12.9570   19.8380 N   0  0  0  0  0  0  0  0  0  0  0  0
  -26.3740  -11.7020   20.0760 N   0  0  0  0  0  0  0  0  0  0  0  0
  -24.3220  -10.6540   20.7830 C   0  0  0  0  0  0  0  0  0  0  0  0
  -24.7090   -9.6470   21.6960 C   0  0  0  0  0  3  0  0  0  0  0  0
  -23.8910   -8.5170   21.9060 C   0  0  0  0  0  3  0  0  0  0  0  0
  -22.6690   -8.3850   21.2030 C   0  0  0  0  0  0  0  0  0  0  0  0
  -22.2990   -9.3780   20.2790 C   0  0  0  0  0  3  0  0  0  0  0  0
  -23.1180  -10.5000   20.0670 C   0  0  0  0  0  3  0  0  0  0  0  0
  -21.8230   -7.3100   21.3240 O   0  0  0  0  0  0  0  0  0  0  0  0
  -21.6820   -6.6330   22.5080 C   0  0  0  0  0  0  0  0  0  0  0  0
  -21.2610   -7.2800   23.6910 C   0  0  0  0  0  3  0  0  0  0  0  0
  -21.0620   -6.5330   24.8700 C   0  0  0  0  0  3  0  0  0  0  0  0
  -21.2750   -5.1410   24.8670 C   0  0  0  0  0  0  0  0  0  0  0  0
  -21.6890   -4.4940   23.6880 C   0  0  0  0  0  3  0  0  0  0  0  0
  -21.8890   -5.2380   22.5120 C   0  0  0  0  0  0  0  0  0  0  0  0
  -22.2670   -4.6070   21.3750 F   0  0  0  0  0  0  0  0  0  0  0  0
  -21.0770   -4.4210   25.9950 F   0  0  0  0  0  0  0  0  0  0  0  0
  -23.5520  -13.8260   21.2160 C   0  0  0  0  0  0  0  0  0  0  0  0
  -22.8920  -13.1660   22.1620 N   0  0  0  0  0  0  0  0  0  0  0  0
  -23.1450  -14.9080   20.7950 O   0  0  0  0  0  0  0  0  0  0  0  0
  -23.2370  -12.2890   22.5240 H   0  0  0  0  0  0  0  0  0  0  0  0
  -22.0300  -13.5440   22.5290 H   0  0  0  0  0  0  0  0  0  0  0  0
  -26.2140  -15.2750   20.1310 N   0  0  0  0  0  0  0  0  0  0  0  0
  -25.5490  -15.9960   20.3870 H   0  0  0  0  0  0  0  0  0  0  0  0
  -27.0670  -15.6460   19.7290 H   0  0  0  0  0  0  0  0  0  0  0  0
  2  3  1  0
  3  5  1  0
  3  1  1  0
  4  2  2  0
  6  2  1  0
  7  9  1  0
  7  6  1  0
  8 19  2  0
  9 14  1  0
 10 18  1  0
 10 20  1  0
 11 17  1  0
 11 13  1  0
 12 18  1  0
 13 12  1  0
 14 13  2  0
 15 16  1  0
 15  9  2  0
 16 11  2  0
 17 10  1  0
 18  8  1  0
 20 22  2  0
 21 20  1  0
 23 21  1  0
 24 33  2  0
 24 29  1  0
 25 21  1  0
 25 29  1  0
 26 25  1  0
 27 28  1  0
 27 26  1  0
 28 24  1  0
 29 30  2  0
 30 31  1  0
 32 31  2  0
 33 32  1  0
 34  8  1  0
 34 39  1  0
 34 35  1  0
 35 38  1  1
 35 36  1  0
 37 35  1  0
 39 42  1  0
 40 44  1  0
 40 39  1  0
 41 40  2  0
 44 43  1  0
 46 47  1  0
 46 44  1  0
 46 45  1  0
 48  1  1  0
 49 48  1  0
 50 49  1  0
 51 52  1  0
 51 50  1  0
 53 52  1  0
 53 54  1  0
 55 61  1  0
 55 63  1  0
 56 61  1  0
 57 58  1  0
 57 56  1  0
 59 58  1  0
 59 68  1  0
 59 60  1  0
 61 60  1  0
 62 55  2  0
 63 54  1  0
 63 64  1  0
 65 66  2  0
 66 85  1  0
 67 66  1  0
 67 70  1  0
 68 69  1  0
 68 65  1  0
 69 67  2  0
 70 71  1  0
 71 72  2  0
 73 76  1  0
 73 72  1  0
 74 73  2  0
 75 74  1  0
 75 70  2  0
 76 77  1  0
 77 82  2  0
 77 78  1  0
 78 79  2  0
 80 79  1  0
 80 84  1  0
 81 80  2  0
 82 81  1  0
 83 82  1  0
 85 86  1  0
 86 88  1  0
 86 89  1  0
 87 85  2  0
 90 65  1  0
 90 91  1  0
 92 90  1  0
M  ISO  4   6 101   7 101  55 100  63 100
M  END
>  <TORSDO>  (90) 
F 25

>  <SCORE>  (90) 
-9.928

>  <name>  (90) 
92

>  <ligand_id>  (90) 
92

>  <original_smiles>  (90) 
[H]c1c([H])c([H])c2c(c1[H])C([H])([H])C([H])([H])C([H])([H])C2([H])N([H])C(=O)C1([H])N(C(=O)C([H])(N([H])C(=O)C([H])(N([H])C([H])([H])[H])C([H])([H])[H])C(C([H])([H])[H])(C([H])([H])[H])C([H])([H])[H])C([H])([H])c2c([H])c(OC([H])([H])C(=O)N([H])C([H])([H])C([H])([H])C([H])([H])C([H])([H])C([H])([H])C([H])([H])C([H])([H])C([H])([H])N([H])C(=O)N3C([H])([H])C([H])([H])C([H])([H])C([H])(n4nc(-c5c([H])c([H])c(Oc6c([H])c([H])c(F)c([H])c6F)c([H])c5[H])c(C(=O)N([H])[H])c4N([H])[H])C3([H])[H])c([H])c([H])c2C1([H])[H]

>  <smiles>  (90) 
[H]c1c([H])c([H])c2c(c1[H])C([H])([H])C([H])([H])C([H])([H])C2([H])N([H])C(=O)C1([H])N(C(=O)C([H])(N([H])C(=O)C([H])(N([H])C([H])([H])[H])C([H])([H])[H])C(C([H])([H])[H])(C([H])([H])[H])C([H])([H])[H])C([H])([H])c2c([H])c(OC([H])([H])C(=O)N([H])C([H])([H])C([H])([H])C([H])([H])C([H])([H])C([H])([H])C([H])([H])C([H])([H])C([H])([H])N([H])C(=O)N3C([H])([H])C([H])([H])C([H])([H])C([H])(n4nc(-c5c([H])c([H])c(Oc6c([H])c([H])c(F)c([H])c6F)c([H])c5[H])c(C(=O)N([H])[H])c4N([H])[H])C3([H])[H])c([H])c([H])c2C1([H])[H]

$$$$
93:0:0
     RDKit          3D

 86 93  0  0  1  0  0  0  0  0999 V2000
  -28.8370  -22.7640   20.5210 C   0  0  0  0  0  3  0  0  0  0  0  0
  -29.3040  -19.8370   20.4720 C   0  0  0  0  0  0  0  0  0  0  0  0
  -29.1010  -21.2080   19.9240 N   0  0  0  0  0  0  0  0  0  0  0  0
  -29.0370  -19.7210   21.6680 O   0  0  0  0  0  0  0  0  0  0  0  0
  -29.2830  -21.2270   18.9280 H   0  0  0  0  0  0  0  0  0  0  0  0
  -29.9160  -18.3420   19.7690 C   0  0  0  0  0  2  0  0  0  0  0  0
  -30.5450  -15.4350   19.9120 C   0  0  0  0  0  0  0  0  0  0  0  0
  -30.4730  -13.0020   18.9930 C   0  0  0  0  0  2  0  0  0  0  0  0
  -29.4800  -12.8250   17.8150 C   0  0  0  0  0  2  0  0  0  0  0  0
  -28.0620  -12.5370   18.3380 C   0  0  0  0  0  2  0  0  0  0  0  0
  -27.6820  -13.4660   19.5160 C   0  0  0  0  0  3  0  0  0  0  0  0
  -28.7990  -13.5920   20.5770 C   0  0  0  0  0  2  0  0  0  0  0  0
  -29.9860  -14.1210   19.8860 N   0  0  0  0  0  0  0  0  0  0  0  0
  -31.7310  -15.4470   19.5520 O   0  0  0  0  0  0  0  0  0  0  0  0
  -29.7910  -16.7020   20.1270 N   0  0  0  0  0  0  0  0  0  0  0  0
  -28.8680  -16.4950   20.4780 H   0  0  0  0  0  0  0  0  0  0  0  0
  -25.3690  -13.9960   20.4450 C   0  0  0  0  0  0  0  0  0  0  0  0
  -24.3330  -13.2060   20.8550 C   0  0  0  0  0  0  0  0  0  0  0  0
  -24.7930  -11.8580   20.7430 C   0  0  0  0  0  0  0  0  0  0  0  0
  -26.3910  -13.1300   20.1000 N   0  0  0  0  0  0  0  0  0  0  0  0
  -26.0610  -11.8360   20.3460 N   0  0  0  0  0  0  0  0  0  0  0  0
  -24.0760  -10.5890   20.9320 C   0  0  0  0  0  0  0  0  0  0  0  0
  -24.5270   -9.6140   21.8480 C   0  0  0  0  0  3  0  0  0  0  0  0
  -23.8060   -8.4140   22.0280 C   0  0  0  0  0  3  0  0  0  0  0  0
  -22.6190   -8.1800   21.2940 C   0  0  0  0  0  0  0  0  0  0  0  0
  -22.1860   -9.1460   20.3670 C   0  0  0  0  0  3  0  0  0  0  0  0
  -22.9080  -10.3370   20.1840 C   0  0  0  0  0  3  0  0  0  0  0  0
  -21.8680   -7.0330   21.3840 O   0  0  0  0  0  0  0  0  0  0  0  0
  -21.8000   -6.3070   22.5460 C   0  0  0  0  0  0  0  0  0  0  0  0
  -21.3120   -6.8670   23.7470 C   0  0  0  0  0  3  0  0  0  0  0  0
  -21.1940   -6.0650   24.9000 C   0  0  0  0  0  3  0  0  0  0  0  0
  -21.5530   -4.7060   24.8530 C   0  0  0  0  0  0  0  0  0  0  0  0
  -22.0340   -4.1450   23.6560 C   0  0  0  0  0  3  0  0  0  0  0  0
  -22.1530   -4.9440   22.5060 C   0  0  0  0  0  0  0  0  0  0  0  0
  -22.5970   -4.3930   21.3500 F   0  0  0  0  0  0  0  0  0  0  0  0
  -21.4340   -3.9340   25.9590 F   0  0  0  0  0  0  0  0  0  0  0  0
  -22.9580  -13.6740   21.2300 C   0  0  0  0  0  0  0  0  0  0  0  0
  -22.2850  -12.9510   22.1170 N   0  0  0  0  0  0  0  0  0  0  0  0
  -22.4910  -14.7170   20.7720 O   0  0  0  0  0  0  0  0  0  0  0  0
  -22.6760  -12.1070   22.5080 H   0  0  0  0  0  0  0  0  0  0  0  0
  -21.3640  -13.2450   22.4110 H   0  0  0  0  0  0  0  0  0  0  0  0
  -25.5210  -15.3730   20.3060 N   0  0  0  0  0  0  0  0  0  0  0  0
  -24.7590  -16.0170   20.4850 H   0  0  0  0  0  0  0  0  0  0  0  0
  -26.3290  -15.8220   19.8970 H   0  0  0  0  0  0  0  0  0  0  0  0
  -28.1150  -24.3050   19.8790 C   0  0  0  0  0  3  0  0  0  0  0  0
  -28.1940  -25.9180   20.2780 O   0  0  0  0  0  0  0  0  0  0  0  0
  -24.5950  -31.8880   23.1940 C   0  0  0  0  0  0  0  0  0  0  0  0
  -27.1750  -27.0110   20.1740 C   0  0  0  0  0  0  0  0  0  0  0  0
  -23.4050  -30.4810   21.5610 C   0  0  0  0  0  3  0  0  0  0  0  0
  -24.8610  -28.8830   20.1320 C   0  0  0  0  0  0  0  0  0  0  0  0
  -25.9690  -30.7060   21.4070 C   0  0  0  0  0  2  0  0  0  0  0  0
  -26.0460  -29.2950   20.7520 C   0  0  0  0  0  0  0  0  0  0  0  0
  -27.1940  -28.3790   20.7500 C   0  0  0  0  0  3  0  0  0  0  0  0
  -25.9610  -26.7580   19.4960 C   0  0  0  0  0  3  0  0  0  0  0  0
  -24.8440  -27.6370   19.4830 C   0  0  0  0  0  3  0  0  0  0  0  0
  -23.6350  -29.7950   20.1850 C   0  0  0  0  0  2  0  0  0  0  0  0
  -24.6780  -31.0530   22.1080 N   0  0  0  0  0  0  0  0  0  0  0  0
  -23.5050  -32.1710   23.7190 O   0  0  0  0  0  0  0  0  0  0  0  0
  -22.7210  -29.4820   22.5320 C   0  0  0  0  0  0  0  0  0  0  0  0
  -21.3910  -29.3080   22.4130 N   0  0  0  0  0  0  0  0  0  0  0  0
  -23.3930  -28.8650   23.3630 O   0  0  0  0  0  0  0  0  0  0  0  0
  -20.9010  -29.8570   21.7200 H   0  0  0  0  0  0  0  0  0  0  0  0
  -18.0190  -28.0780   22.9440 C   0  0  0  0  0  0  0  0  0  0  0  0
  -20.5790  -28.3650   23.1900 C   0  0  0  0  0  3  0  0  0  0  0  0
  -20.6870  -26.9330   22.6150 C   0  0  0  0  0  2  0  0  0  0  0  0
  -19.5810  -26.6030   21.6070 C   0  0  0  0  0  2  0  0  0  0  0  0
  -18.2020  -26.7330   22.2610 C   0  0  0  0  0  2  0  0  0  0  0  0
  -19.1340  -28.8510   23.3650 C   0  0  0  0  0  0  0  0  0  0  0  0
  -18.9060  -30.1080   23.9670 C   0  0  0  0  0  3  0  0  0  0  0  0
  -17.5960  -30.5930   24.1480 C   0  0  0  0  0  3  0  0  0  0  0  0
  -16.4970  -29.8180   23.7400 C   0  0  0  0  0  3  0  0  0  0  0  0
  -16.7080  -28.5620   23.1440 C   0  0  0  0  0  3  0  0  0  0  0  0
  -25.8630  -32.5410   23.8220 C   0  0  0  0  0  3  0  0  0  0  0  0
  -26.3680  -31.7940   25.1190 C   0  0  1  0  0  0  0  0  0  0  0  0
  -25.2640  -31.5700   26.1790 C   0  0  0  0  0  1  0  0  0  0  0  0
  -26.9610  -30.4120   24.7640 C   0  0  0  0  0  1  0  0  0  0  0  0
  -27.5080  -32.6040   25.7790 C   0  0  0  0  0  1  0  0  0  0  0  0
  -25.5400  -33.9440   24.1420 N   0  0  0  0  0  0  0  0  0  0  0  0
  -25.8640  -35.0000   23.3830 C   0  0  0  0  0  0  0  0  0  0  0  0
  -26.5290  -34.8960   22.3480 O   0  0  0  0  0  0  0  0  0  0  0  0
  -24.9480  -34.0970   24.9440 H   0  0  0  0  0  0  0  0  0  0  0  0
  -24.1290  -36.7940   23.0420 C   0  0  0  0  0  1  0  0  0  0  0  0
  -25.3790  -36.3910   23.8420 C   0  0  0  0  0  3  0  0  0  0  0  0
  -27.5130  -37.2930   24.6600 C   0  0  0  0  0  1  0  0  0  0  0  0
  -26.4080  -37.4470   23.7170 N   0  0  0  0  0  0  0  0  0  0  0  0
  -25.9980  -38.3670   23.8570 H   0  0  0  0  0  0  0  0  0  0  0  0
  2  4  2  0
  3  2  1  0
  3  1  1  0
  5  3  1  0
  6 15  1  0
  6  2  1  0
  7 15  1  0
  8 13  1  0
  9 10  1  0
  9  8  1  0
 11 10  1  0
 11 20  1  0
 11 12  1  0
 13  7  1  0
 13 12  1  0
 14  7  2  0
 15 16  1  0
 17 18  2  0
 18 37  1  0
 19 18  1  0
 19 22  1  0
 20 21  1  0
 20 17  1  0
 21 19  2  0
 22 23  1  0
 23 24  2  0
 25 28  1  0
 25 24  1  0
 26 25  2  0
 27 26  1  0
 27 22  2  0
 28 29  1  0
 29 30  1  0
 30 31  2  0
 32 31  1  0
 32 36  1  0
 33 32  2  0
 34 29  2  0
 34 33  1  0
 35 34  1  0
 37 38  1  0
 38 41  1  0
 38 40  1  0
 39 37  2  0
 42 17  1  0
 42 43  1  0
 44 42  1  0
 45 46  1  0
 45  1  2  0
 47 58  2  0
 48 46  1  0
 48 53  1  0
 49 57  1  0
 49 59  1  0
 50 56  1  0
 50 52  1  0
 51 57  1  0
 52 51  1  0
 53 52  2  0
 54 48  2  0
 55 54  1  0
 55 50  2  0
 56 49  1  0
 57 47  1  0
 59 61  2  0
 60 59  1  0
 62 60  1  0
 63 72  2  0
 63 68  1  0
 64 60  1  0
 64 68  1  0
 65 64  1  0
 66 67  1  0
 66 65  1  0
 67 63  1  0
 68 69  2  0
 69 70  1  0
 71 70  2  0
 72 71  1  0
 73 47  1  0
 73 78  1  0
 73 74  1  0
 74 77  1  1
 74 75  1  0
 76 74  1  0
 78 81  1  0
 79 83  1  0
 79 78  1  0
 80 79  2  0
 83 82  1  0
 85 83  1  0
 85 86  1  0
 85 84  1  0
M  ISO  4   7 100  15 100  45 101  46 101
M  END
>  <TORSDO>  (91) 
F 19

>  <SCORE>  (91) 
-15.612

>  <name>  (91) 
93

>  <ligand_id>  (91) 
93

>  <original_smiles>  (91) 
[H]c1c([H])c([H])c2c(c1[H])C([H])([H])C([H])([H])C([H])([H])C2([H])N([H])C(=O)C1([H])N(C(=O)C([H])(N([H])C(=O)C([H])(N([H])C([H])([H])[H])C([H])([H])[H])C(C([H])([H])[H])(C([H])([H])[H])C([H])([H])[H])C([H])([H])c2c([H])c(OC([H])([H])C([H])([H])N([H])C(=O)C([H])([H])N([H])C(=O)N3C([H])([H])C([H])([H])C([H])([H])C([H])(n4nc(-c5c([H])c([H])c(Oc6c([H])c([H])c(F)c([H])c6F)c([H])c5[H])c(C(=O)N([H])[H])c4N([H])[H])C3([H])[H])c([H])c([H])c2C1([H])[H]

>  <smiles>  (91) 
[H]c1c([H])c([H])c2c(c1[H])C([H])([H])C([H])([H])C([H])([H])C2([H])N([H])C(=O)C1([H])N(C(=O)C([H])(N([H])C(=O)C([H])(N([H])C([H])([H])[H])C([H])([H])[H])C(C([H])([H])[H])(C([H])([H])[H])C([H])([H])[H])C([H])([H])c2c([H])c(OC([H])([H])C([H])([H])N([H])C(=O)C([H])([H])N([H])C(=O)N3C([H])([H])C([H])([H])C([H])([H])C([H])(n4nc(-c5c([H])c([H])c(Oc6c([H])c([H])c(F)c([H])c6F)c([H])c5[H])c(C(=O)N([H])[H])c4N([H])[H])C3([H])[H])c([H])c([H])c2C1([H])[H]

$$$$
94:0:0
     RDKit          3D

 86 93  0  0  1  0  0  0  0  0999 V2000
  -28.7190  -22.8550   20.5990 C   0  0  0  0  0  0  0  0  0  0  0  0
  -29.0450  -22.9570   21.8160 N   0  0  0  0  0  0  0  0  0  0  0  0
  -29.4350  -22.0890   22.1680 H   0  0  0  0  0  0  0  0  0  0  0  0
  -29.0390  -21.2660   19.8970 C   0  0  0  0  0  2  0  0  0  0  0  0
  -29.1600  -19.6230   20.6050 C   0  0  0  0  0  3  0  0  0  0  0  0
  -29.8660  -18.0960   19.9960 C   0  0  0  0  0  3  0  0  0  0  0  0
  -30.4260  -15.2350   20.2450 C   0  0  0  0  0  0  0  0  0  0  0  0
  -30.3660  -12.8040   19.3670 C   0  0  0  0  0  2  0  0  0  0  0  0
  -29.4400  -12.6450   18.1350 C   0  0  0  0  0  2  0  0  0  0  0  0
  -27.9890  -12.3910   18.5760 C   0  0  0  0  0  2  0  0  0  0  0  0
  -27.5560  -13.3430   19.7220 C   0  0  0  0  0  3  0  0  0  0  0  0
  -28.6100  -13.4560   20.8450 C   0  0  0  0  0  2  0  0  0  0  0  0
  -29.8510  -13.9370   20.2180 N   0  0  0  0  0  0  0  0  0  0  0  0
  -31.6290  -15.2440   19.9460 O   0  0  0  0  0  0  0  0  0  0  0  0
  -29.6740  -16.4960   20.4010 N   0  0  0  0  0  0  0  0  0  0  0  0
  -28.7270  -16.2980   20.6900 H   0  0  0  0  0  0  0  0  0  0  0  0
  -25.1840  -13.9050   20.4700 C   0  0  0  0  0  0  0  0  0  0  0  0
  -24.1240  -13.1290   20.8480 C   0  0  0  0  0  0  0  0  0  0  0  0
  -24.5930  -11.7800   20.8260 C   0  0  0  0  0  0  0  0  0  0  0  0
  -26.2280  -13.0290   20.2310 N   0  0  0  0  0  0  0  0  0  0  0  0
  -25.8850  -11.7450   20.5140 N   0  0  0  0  0  0  0  0  0  0  0  0
  -23.8680  -10.5170   21.0250 C   0  0  0  0  0  0  0  0  0  0  0  0
  -24.3110   -9.5470   21.9510 C   0  0  0  0  0  3  0  0  0  0  0  0
  -23.5830   -8.3530   22.1410 C   0  0  0  0  0  3  0  0  0  0  0  0
  -22.3970   -8.1190   21.4040 C   0  0  0  0  0  0  0  0  0  0  0  0
  -21.9730   -9.0780   20.4670 C   0  0  0  0  0  3  0  0  0  0  0  0
  -22.7010  -10.2630   20.2760 C   0  0  0  0  0  3  0  0  0  0  0  0
  -21.6400   -6.9770   21.5030 O   0  0  0  0  0  0  0  0  0  0  0  0
  -21.6210   -6.2230   22.6490 C   0  0  0  0  0  0  0  0  0  0  0  0
  -21.2500   -6.7710   23.8960 C   0  0  0  0  0  3  0  0  0  0  0  0
  -21.1770   -5.9440   25.0350 C   0  0  0  0  0  3  0  0  0  0  0  0
  -21.4640   -4.5710   24.9280 C   0  0  0  0  0  0  0  0  0  0  0  0
  -21.8290   -4.0220   23.6860 C   0  0  0  0  0  3  0  0  0  0  0  0
  -21.9030   -4.8460   22.5500 C   0  0  0  0  0  0  0  0  0  0  0  0
  -22.2340   -4.3070   21.3510 F   0  0  0  0  0  0  0  0  0  0  0  0
  -21.3870   -3.7750   26.0210 F   0  0  0  0  0  0  0  0  0  0  0  0
  -22.7260  -13.6060   21.1120 C   0  0  0  0  0  0  0  0  0  0  0  0
  -22.0000  -12.9200   21.9880 N   0  0  0  0  0  0  0  0  0  0  0  0
  -22.2870  -14.6230   20.5770 O   0  0  0  0  0  0  0  0  0  0  0  0
  -22.3700  -12.0980   22.4430 H   0  0  0  0  0  0  0  0  0  0  0  0
  -21.0620  -13.2240   22.2090 H   0  0  0  0  0  0  0  0  0  0  0  0
  -25.3420  -15.2740   20.2810 N   0  0  0  0  0  0  0  0  0  0  0  0
  -24.5680  -15.9230   20.3820 H   0  0  0  0  0  0  0  0  0  0  0  0
  -26.1750  -15.7110   19.9100 H   0  0  0  0  0  0  0  0  0  0  0  0
  -28.0260  -24.3200   19.8950 C   0  0  0  0  0  2  0  0  0  0  0  0
  -28.1910  -25.8960   20.3130 O   0  0  0  0  0  0  0  0  0  0  0  0
  -24.6410  -31.8610   23.1940 C   0  0  0  0  0  0  0  0  0  0  0  0
  -27.1850  -26.9840   20.2010 C   0  0  0  0  0  0  0  0  0  0  0  0
  -23.4400  -30.4560   21.5690 C   0  0  0  0  0  3  0  0  0  0  0  0
  -24.8830  -28.8470   20.1490 C   0  0  0  0  0  0  0  0  0  0  0  0
  -26.0040  -30.6690   21.4130 C   0  0  0  0  0  2  0  0  0  0  0  0
  -26.0700  -29.2590   20.7670 C   0  0  0  0  0  0  0  0  0  0  0  0
  -27.2130  -28.3450   20.7740 C   0  0  0  0  0  3  0  0  0  0  0  0
  -25.9730  -26.7240   19.5210 C   0  0  0  0  0  3  0  0  0  0  0  0
  -24.8580  -27.5990   19.5050 C   0  0  0  0  0  3  0  0  0  0  0  0
  -23.6630  -29.7640   20.1960 C   0  0  0  0  0  2  0  0  0  0  0  0
  -24.7170  -31.0220   22.1130 N   0  0  0  0  0  0  0  0  0  0  0  0
  -23.5550  -32.1550   23.7180 O   0  0  0  0  0  0  0  0  0  0  0  0
  -22.7500  -29.4650   22.5440 C   0  0  0  0  0  0  0  0  0  0  0  0
  -21.4180  -29.3080   22.4310 N   0  0  0  0  0  0  0  0  0  0  0  0
  -23.4190  -28.8400   23.3700 O   0  0  0  0  0  0  0  0  0  0  0  0
  -20.9320  -29.8640   21.7410 H   0  0  0  0  0  0  0  0  0  0  0  0
  -18.0340  -28.1150   22.9640 C   0  0  0  0  0  0  0  0  0  0  0  0
  -20.5960  -28.3790   23.2130 C   0  0  0  0  0  3  0  0  0  0  0  0
  -20.6920  -26.9420   22.6490 C   0  0  0  0  0  2  0  0  0  0  0  0
  -19.5840  -26.6140   21.6430 C   0  0  0  0  0  2  0  0  0  0  0  0
  -18.2060  -26.7620   22.2930 C   0  0  0  0  0  2  0  0  0  0  0  0
  -19.1560  -28.8810   23.3810 C   0  0  0  0  0  0  0  0  0  0  0  0
  -18.9380  -30.1450   23.9720 C   0  0  0  0  0  3  0  0  0  0  0  0
  -17.6330  -30.6440   24.1470 C   0  0  0  0  0  3  0  0  0  0  0  0
  -16.5280  -29.8760   23.7430 C   0  0  0  0  0  3  0  0  0  0  0  0
  -16.7290  -28.6140   23.1580 C   0  0  0  0  0  3  0  0  0  0  0  0
  -25.9160  -32.5060   23.8180 C   0  0  0  0  0  3  0  0  0  0  0  0
  -26.4370  -31.7380   25.0950 C   0  0  1  0  0  0  0  0  0  0  0  0
  -25.3490  -31.5030   26.1690 C   0  0  0  0  0  1  0  0  0  0  0  0
  -27.0210  -30.3590   24.7120 C   0  0  0  0  0  1  0  0  0  0  0  0
  -27.5910  -32.5340   25.7520 C   0  0  0  0  0  1  0  0  0  0  0  0
  -25.5950  -33.9030   24.1630 N   0  0  0  0  0  0  0  0  0  0  0  0
  -25.9120  -34.9700   23.4180 C   0  0  0  0  0  0  0  0  0  0  0  0
  -26.5670  -34.8830   22.3760 O   0  0  0  0  0  0  0  0  0  0  0  0
  -25.0100  -34.0420   24.9720 H   0  0  0  0  0  0  0  0  0  0  0  0
  -24.1630  -36.7590   23.1260 C   0  0  0  0  0  1  0  0  0  0  0  0
  -25.4260  -36.3520   23.9010 C   0  0  0  0  0  3  0  0  0  0  0  0
  -27.5760  -37.2450   24.6880 C   0  0  0  0  0  1  0  0  0  0  0  0
  -26.4490  -37.4140   23.7740 N   0  0  0  0  0  0  0  0  0  0  0  0
  -26.0400  -38.3300   23.9400 H   0  0  0  0  0  0  0  0  0  0  0  0
  1  2  2  0
  2  3  1  0
  4  1  1  0
  4  5  1  0
  6 15  1  0
  6  5  2  0
  7 15  1  0
  8 13  1  0
  9 10  1  0
  9  8  1  0
 11 10  1  0
 11 20  1  0
 11 12  1  0
 13  7  1  0
 13 12  1  0
 14  7  2  0
 15 16  1  0
 17 18  2  0
 18 37  1  0
 19 18  1  0
 19 22  1  0
 20 17  1  0
 20 21  1  0
 21 19  2  0
 22 23  1  0
 23 24  2  0
 25 28  1  0
 25 24  1  0
 26 25  2  0
 27 26  1  0
 27 22  2  0
 28 29  1  0
 29 30  1  0
 30 31  2  0
 32 31  1  0
 32 36  1  0
 33 32  2  0
 34 29  2  0
 34 33  1  0
 35 34  1  0
 37 38  1  0
 38 41  1  0
 38 40  1  0
 39 37  2  0
 42 43  1  0
 42 17  1  0
 44 42  1  0
 45 46  1  0
 45  1  1  0
 47 58  2  0
 48 46  1  0
 48 53  1  0
 49 57  1  0
 49 59  1  0
 50 56  1  0
 50 52  1  0
 51 57  1  0
 52 53  2  0
 52 51  1  0
 54 48  2  0
 55 54  1  0
 55 50  2  0
 56 49  1  0
 57 47  1  0
 59 61  2  0
 60 59  1  0
 62 60  1  0
 63 72  2  0
 63 68  1  0
 64 60  1  0
 64 68  1  0
 65 64  1  0
 66 67  1  0
 66 65  1  0
 67 63  1  0
 68 69  2  0
 69 70  1  0
 71 70  2  0
 72 71  1  0
 73 47  1  0
 73 78  1  0
 73 74  1  0
 74 77  1  1
 74 75  1  0
 76 74  1  0
 78 81  1  0
 79 83  1  0
 79 78  1  0
 80 79  2  0
 83 82  1  0
 85 83  1  0
 85 86  1  0
 85 84  1  0
M  ISO  4   7 100  15 100  45 101  46 101
M  END
>  <TORSDO>  (92) 
F 20

>  <SCORE>  (92) 
-15.602

>  <name>  (92) 
94

>  <ligand_id>  (92) 
94

>  <original_smiles>  (92) 
[H]N=C(C([H])([H])Oc1c([H])c([H])c2c(c1[H])C([H])([H])N(C(=O)C([H])(N([H])C(=O)C([H])(N([H])C([H])([H])[H])C([H])([H])[H])C(C([H])([H])[H])(C([H])([H])[H])C([H])([H])[H])C([H])(C(=O)N([H])C1([H])c3c([H])c([H])c([H])c([H])c3C([H])([H])C([H])([H])C1([H])[H])C2([H])[H])C([H])([H])C([H])([H])C([H])([H])N([H])C(=O)N1C([H])([H])C([H])([H])C([H])([H])C([H])(n2nc(-c3c([H])c([H])c(Oc4c([H])c([H])c(F)c([H])c4F)c([H])c3[H])c(C(=O)N([H])[H])c2N([H])[H])C1([H])[H]

>  <smiles>  (92) 
[H]N=C(C([H])([H])Oc1c([H])c([H])c2c(c1[H])C([H])([H])N(C(=O)C([H])(N([H])C(=O)C([H])(N([H])C([H])([H])[H])C([H])([H])[H])C(C([H])([H])[H])(C([H])([H])[H])C([H])([H])[H])C([H])(C(=O)N([H])C1([H])c3c([H])c([H])c([H])c([H])c3C([H])([H])C([H])([H])C1([H])[H])C2([H])[H])C([H])([H])C([H])([H])C([H])([H])N([H])C(=O)N1C([H])([H])C([H])([H])C([H])([H])C([H])(n2nc(-c3c([H])c([H])c(Oc4c([H])c([H])c(F)c([H])c4F)c([H])c3[H])c(C(=O)N([H])[H])c2N([H])[H])C1([H])[H]

$$$$
95:0:0
     RDKit          3D

 95102  0  0  1  0  0  0  0  0999 V2000
  -28.5050  -21.7830   18.5790 C   0  0  0  0  0  2  0  0  0  0  0  0
  -28.3570  -20.6500   17.5420 C   0  0  0  0  0  2  0  0  0  0  0  0
  -29.0530  -19.3200   17.8970 C   0  0  0  0  0  2  0  0  0  0  0  0
  -30.5840  -19.3760   18.1070 C   0  0  0  0  0  2  0  0  0  0  0  0
  -31.0250  -19.6870   19.5480 C   0  0  0  0  0  0  0  0  0  0  0  0
  -30.9070  -18.7670   20.5130 N   0  0  0  0  0  0  0  0  0  0  0  0
  -31.5330  -20.7760   19.8030 O   0  0  0  0  0  0  0  0  0  0  0  0
  -31.2750  -19.0210   21.4200 H   0  0  0  0  0  0  0  0  0  0  0  0
  -30.3010  -17.4480   20.4270 C   0  0  0  0  0  2  0  0  0  0  0  0
  -30.7460  -16.5830   21.6260 C   0  0  0  0  0  2  0  0  0  0  0  0
  -30.7670  -14.3390   20.6200 C   0  0  0  0  0  0  0  0  0  0  0  0
  -30.3680  -12.2640   19.3630 C   0  0  0  0  0  2  0  0  0  0  0  0
  -29.4730  -12.5930   18.1540 C   0  0  0  0  0  2  0  0  0  0  0  0
  -27.9840  -12.5040   18.5390 C   0  0  0  0  0  2  0  0  0  0  0  0
  -27.6520  -13.2750   19.8450 C   0  0  0  0  0  3  0  0  0  0  0  0
  -28.6800  -12.9610   20.9590 C   0  0  0  0  0  2  0  0  0  0  0  0
  -30.0340  -13.2140   20.4310 N   0  0  0  0  0  0  0  0  0  0  0  0
  -31.8070  -14.5870   20.0060 O   0  0  0  0  0  0  0  0  0  0  0  0
  -30.2580  -15.2180   21.4870 N   0  0  0  0  0  0  0  0  0  0  0  0
  -29.4300  -14.9520   21.9990 H   0  0  0  0  0  0  0  0  0  0  0  0
  -25.2320  -13.9010   20.4690 C   0  0  0  0  0  0  0  0  0  0  0  0
  -24.1500  -13.1420   20.8200 C   0  0  0  0  0  0  0  0  0  0  0  0
  -24.6000  -11.7850   20.8180 C   0  0  0  0  0  0  0  0  0  0  0  0
  -26.2800  -13.0140   20.2820 N   0  0  0  0  0  0  0  0  0  0  0  0
  -25.8970  -11.7350   20.5370 N   0  0  0  0  0  0  0  0  0  0  0  0
  -23.8570  -10.5350   21.0130 C   0  0  0  0  0  0  0  0  0  0  0  0
  -24.2770   -9.5620   21.9450 C   0  0  0  0  0  3  0  0  0  0  0  0
  -23.5370   -8.3750   22.1290 C   0  0  0  0  0  3  0  0  0  0  0  0
  -22.3610   -8.1500   21.3760 C   0  0  0  0  0  0  0  0  0  0  0  0
  -21.9560   -9.1100   20.4300 C   0  0  0  0  0  3  0  0  0  0  0  0
  -22.6980  -10.2890   20.2470 C   0  0  0  0  0  3  0  0  0  0  0  0
  -21.5950   -7.0120   21.4650 O   0  0  0  0  0  0  0  0  0  0  0  0
  -21.5560   -6.2570   22.6080 C   0  0  0  0  0  0  0  0  0  0  0  0
  -21.1840   -6.8090   23.8530 C   0  0  0  0  0  3  0  0  0  0  0  0
  -21.0910   -5.9830   24.9900 C   0  0  0  0  0  3  0  0  0  0  0  0
  -21.3590   -4.6050   24.8840 C   0  0  0  0  0  0  0  0  0  0  0  0
  -21.7250   -4.0530   23.6460 C   0  0  0  0  0  3  0  0  0  0  0  0
  -21.8220   -4.8760   22.5110 C   0  0  0  0  0  0  0  0  0  0  0  0
  -22.1540   -4.3360   21.3130 F   0  0  0  0  0  0  0  0  0  0  0  0
  -21.2640   -3.8090   25.9750 F   0  0  0  0  0  0  0  0  0  0  0  0
  -22.7530  -13.6310   21.0650 C   0  0  0  0  0  0  0  0  0  0  0  0
  -22.0090  -12.9550   21.9300 N   0  0  0  0  0  0  0  0  0  0  0  0
  -22.3310  -14.6550   20.5260 O   0  0  0  0  0  0  0  0  0  0  0  0
  -22.3650  -12.1290   22.3880 H   0  0  0  0  0  0  0  0  0  0  0  0
  -21.0720  -13.2650   22.1440 H   0  0  0  0  0  0  0  0  0  0  0  0
  -25.4080  -15.2670   20.2780 N   0  0  0  0  0  0  0  0  0  0  0  0
  -24.6370  -15.9230   20.3330 H   0  0  0  0  0  0  0  0  0  0  0  0
  -26.2700  -15.7020   19.9760 H   0  0  0  0  0  0  0  0  0  0  0  0
  -27.5890  -22.9860   18.2780 C   0  0  0  0  0  2  0  0  0  0  0  0
  -27.8120  -24.3460   20.3900 C   0  0  0  0  0  0  0  0  0  0  0  0
  -27.9340  -24.1710   19.0640 N   0  0  0  0  0  0  0  0  0  0  0  0
  -27.2980  -23.4970   21.1220 O   0  0  0  0  0  0  0  0  0  0  0  0
  -28.3000  -24.9650   18.5550 H   0  0  0  0  0  0  0  0  0  0  0  0
  -28.3780  -25.6540   20.9820 C   0  0  0  0  0  2  0  0  0  0  0  0
  -28.3250  -26.7380   20.0520 O   0  0  0  0  0  0  0  0  0  0  0  0
  -24.5660  -31.8800   23.2400 C   0  0  0  0  0  0  0  0  0  0  0  0
  -27.1630  -27.4640   20.1070 C   0  0  0  0  0  0  0  0  0  0  0  0
  -23.3380  -30.4820   21.6100 C   0  0  0  0  0  3  0  0  0  0  0  0
  -24.7730  -28.9520   20.1670 C   0  0  0  0  0  0  0  0  0  0  0  0
  -25.8640  -30.8390   21.3920 C   0  0  0  0  0  2  0  0  0  0  0  0
  -25.9380  -29.4730   20.7440 C   0  0  0  0  0  0  0  0  0  0  0  0
  -27.1400  -28.7340   20.7170 C   0  0  0  0  0  3  0  0  0  0  0  0
  -25.9850  -26.9510   19.5240 C   0  0  0  0  0  3  0  0  0  0  0  0
  -24.7890  -27.6860   19.5590 C   0  0  0  0  0  3  0  0  0  0  0  0
  -23.5310  -29.8100   20.2260 C   0  0  0  0  0  2  0  0  0  0  0  0
  -24.6070  -31.0820   22.1370 N   0  0  0  0  0  0  0  0  0  0  0  0
  -23.4920  -32.1550   23.7920 O   0  0  0  0  0  0  0  0  0  0  0  0
  -22.7010  -29.4550   22.5700 C   0  0  0  0  0  0  0  0  0  0  0  0
  -21.3750  -29.2710   22.4550 N   0  0  0  0  0  0  0  0  0  0  0  0
  -23.3940  -28.8280   23.3750 O   0  0  0  0  0  0  0  0  0  0  0  0
  -20.8770  -29.8280   21.7760 H   0  0  0  0  0  0  0  0  0  0  0  0
  -18.0110  -28.0690   22.9690 C   0  0  0  0  0  0  0  0  0  0  0  0
  -20.5680  -28.3330   23.2340 C   0  0  0  0  0  3  0  0  0  0  0  0
  -20.6740  -26.8990   22.6650 C   0  0  0  0  0  2  0  0  0  0  0  0
  -19.5710  -26.5680   21.6560 C   0  0  0  0  0  2  0  0  0  0  0  0
  -18.1900  -26.7160   22.3030 C   0  0  0  0  0  2  0  0  0  0  0  0
  -19.1280  -28.8350   23.3940 C   0  0  0  0  0  0  0  0  0  0  0  0
  -18.9100  -30.1030   23.9750 C   0  0  0  0  0  3  0  0  0  0  0  0
  -17.6060  -30.6040   24.1380 C   0  0  0  0  0  3  0  0  0  0  0  0
  -16.5010  -29.8340   23.7310 C   0  0  0  0  0  3  0  0  0  0  0  0
  -16.7050  -28.5680   23.1540 C   0  0  0  0  0  3  0  0  0  0  0  0
  -25.8650  -32.5020   23.8430 C   0  0  0  0  0  3  0  0  0  0  0  0
  -26.4030  -31.7220   25.1040 C   0  0  1  0  0  0  0  0  0  0  0  0
  -25.3220  -31.4840   26.1840 C   0  0  0  0  0  1  0  0  0  0  0  0
  -26.9770  -30.3430   24.6980 C   0  0  0  0  0  1  0  0  0  0  0  0
  -27.5630  -32.5090   25.7550 C   0  0  0  0  0  1  0  0  0  0  0  0
  -25.5610  -33.8980   24.1860 N   0  0  0  0  0  0  0  0  0  0  0  0
  -25.8810  -34.9540   23.4260 C   0  0  0  0  0  0  0  0  0  0  0  0
  -26.5360  -34.8570   22.3840 O   0  0  0  0  0  0  0  0  0  0  0  0
  -24.9680  -34.0470   24.9880 H   0  0  0  0  0  0  0  0  0  0  0  0
  -24.1370  -36.7380   23.1090 C   0  0  0  0  0  1  0  0  0  0  0  0
  -25.3930  -36.3370   23.8960 C   0  0  0  0  0  3  0  0  0  0  0  0
  -27.5410  -37.2230   24.6890 C   0  0  0  0  0  1  0  0  0  0  0  0
  -26.4190  -37.3940   23.7710 N   0  0  0  0  0  0  0  0  0  0  0  0
  -26.0100  -38.3110   23.9330 H   0  0  0  0  0  0  0  0  0  0  0  0
  2  3  1  0
  2  1  1  0
  3  4  1  0
  4  5  1  0
  5  7  2  0
  5  6  1  0
  6  8  1  0
  9  6  1  0
  9 10  1  0
 11 19  1  0
 12 17  1  0
 13 14  1  0
 13 12  1  0
 15 14  1  0
 15 24  1  0
 15 16  1  0
 17 11  1  0
 17 16  1  0
 18 11  2  0
 19 10  1  0
 19 20  1  0
 21 22  2  0
 22 41  1  0
 23 22  1  0
 23 26  1  0
 24 21  1  0
 24 25  1  0
 25 23  2  0
 26 27  1  0
 27 28  2  0
 29 32  1  0
 29 28  1  0
 30 29  2  0
 31 30  1  0
 31 26  2  0
 32 33  1  0
 33 34  1  0
 34 35  2  0
 36 35  1  0
 36 40  1  0
 37 36  2  0
 38 33  2  0
 38 37  1  0
 39 38  1  0
 41 42  1  0
 42 45  1  0
 42 44  1  0
 43 41  2  0
 46 47  1  0
 46 21  1  0
 48 46  1  0
 49  1  1  0
 49 51  1  0
 50 54  1  0
 50 52  2  0
 51 50  1  0
 53 51  1  0
 55 57  1  0
 55 54  1  0
 56 67  2  0
 57 62  1  0
 58 66  1  0
 58 68  1  0
 59 65  1  0
 59 61  1  0
 60 66  1  0
 61 60  1  0
 62 61  2  0
 63 64  1  0
 63 57  2  0
 64 59  2  0
 65 58  1  0
 66 56  1  0
 68 70  2  0
 69 68  1  0
 71 69  1  0
 72 81  2  0
 72 77  1  0
 73 69  1  0
 73 77  1  0
 74 73  1  0
 75 76  1  0
 75 74  1  0
 76 72  1  0
 77 78  2  0
 78 79  1  0
 80 79  2  0
 81 80  1  0
 82 56  1  0
 82 87  1  0
 82 83  1  0
 83 86  1  1
 83 84  1  0
 85 83  1  0
 87 90  1  0
 88 92  1  0
 88 87  1  0
 89 88  2  0
 92 91  1  0
 94 92  1  0
 94 95  1  0
 94 93  1  0
M  ISO  4  11 100  19 100  54 101  55 101
M  END
>  <TORSDO>  (93) 
F 25

>  <SCORE>  (93) 
-12.318

>  <name>  (93) 
95

>  <ligand_id>  (93) 
95

>  <original_smiles>  (93) 
[H]c1c([H])c([H])c2c(c1[H])C([H])([H])C([H])([H])C([H])([H])C2([H])N([H])C(=O)C1([H])N(C(=O)C([H])(N([H])C(=O)C([H])(N([H])C([H])([H])[H])C([H])([H])[H])C(C([H])([H])[H])(C([H])([H])[H])C([H])([H])[H])C([H])([H])c2c([H])c(OC([H])([H])C(=O)N([H])C([H])([H])C([H])([H])C([H])([H])C([H])([H])C([H])([H])C(=O)N([H])C([H])([H])C([H])([H])N([H])C(=O)N3C([H])([H])C([H])([H])C([H])([H])C([H])(n4nc(-c5c([H])c([H])c(Oc6c([H])c([H])c(F)c([H])c6F)c([H])c5[H])c(C(=O)N([H])[H])c4N([H])[H])C3([H])[H])c([H])c([H])c2C1([H])[H]

>  <smiles>  (93) 
[H]c1c([H])c([H])c2c(c1[H])C([H])([H])C([H])([H])C([H])([H])C2([H])N([H])C(=O)C1([H])N(C(=O)C([H])(N([H])C(=O)C([H])(N([H])C([H])([H])[H])C([H])([H])[H])C(C([H])([H])[H])(C([H])([H])[H])C([H])([H])[H])C([H])([H])c2c([H])c(OC([H])([H])C(=O)N([H])C([H])([H])C([H])([H])C([H])([H])C([H])([H])C([H])([H])C(=O)N([H])C([H])([H])C([H])([H])N([H])C(=O)N3C([H])([H])C([H])([H])C([H])([H])C([H])(n4nc(-c5c([H])c([H])c(Oc6c([H])c([H])c(F)c([H])c6F)c([H])c5[H])c(C(=O)N([H])[H])c4N([H])[H])C3([H])[H])c([H])c([H])c2C1([H])[H]

$$$$
96:0:0
     RDKit          3D

 96103  0  0  1  0  0  0  0  0999 V2000
  -32.1920  -26.3430   17.6760 C   0  0  0  0  0  0  0  0  0  0  0  0
  -31.8270  -25.0510   17.6910 N   0  0  0  0  0  0  0  0  0  0  0  0
  -33.3760  -26.6780   17.8000 O   0  0  0  0  0  0  0  0  0  0  0  0
  -30.8350  -24.8490   17.6830 H   0  0  0  0  0  0  0  0  0  0  0  0
  -31.4330  -28.6120   18.4000 C   0  0  0  0  0  1  0  0  0  0  0  0
  -29.7240  -26.8780   17.8080 C   0  0  0  0  0  1  0  0  0  0  0  0
  -31.1160  -27.4390   17.4440 C   0  0  2  0  0  0  0  0  0  0  0  0
  -31.0580  -27.9840   15.9920 C   0  0  0  0  0  2  0  0  0  0  0  0
  -30.5590  -26.9680   15.1280 O   0  0  0  0  0  0  0  0  0  0  0  0
  -32.1180  -20.3800   13.0770 C   0  0  0  0  0  0  0  0  0  0  0  0
  -31.4450  -26.1910   14.4190 C   0  0  0  0  0  0  0  0  0  0  0  0
  -33.8520  -22.0770   12.5970 C   0  0  0  0  0  3  0  0  0  0  0  0
  -33.1450  -24.5030   12.9240 C   0  0  0  0  0  0  0  0  0  0  0  0
  -31.3860  -22.7370   12.7350 C   0  0  0  0  0  2  0  0  0  0  0  0
  -31.8410  -24.0940   13.2220 C   0  0  0  0  0  0  0  0  0  0  0  0
  -30.9860  -24.9390   13.9590 C   0  0  0  0  0  3  0  0  0  0  0  0
  -32.7720  -26.5850   14.1230 C   0  0  0  0  0  3  0  0  0  0  0  0
  -33.6180  -25.7470   13.3740 C   0  0  0  0  0  3  0  0  0  0  0  0
  -33.9930  -23.5470   12.1170 C   0  0  0  0  0  2  0  0  0  0  0  0
  -32.4260  -21.6860   12.8390 N   0  0  0  0  0  0  0  0  0  0  0  0
  -32.9910  -19.5030   13.0530 O   0  0  0  0  0  0  0  0  0  0  0  0
  -34.7620  -21.8750   13.8300 C   0  0  0  0  0  0  0  0  0  0  0  0
  -35.9580  -21.3090   13.6040 N   0  0  0  0  0  0  0  0  0  0  0  0
  -34.4020  -22.2480   14.9510 O   0  0  0  0  0  0  0  0  0  0  0  0
  -36.1750  -21.0230   12.6590 H   0  0  0  0  0  0  0  0  0  0  0  0
  -38.3530  -18.8610   14.7510 C   0  0  0  0  0  0  0  0  0  0  0  0
  -36.9930  -21.0530   14.6040 C   0  0  0  0  0  3  0  0  0  0  0  0
  -38.3250  -21.7340   14.2130 C   0  0  0  0  0  2  0  0  0  0  0  0
  -39.2630  -20.8140   13.4260 C   0  0  0  0  0  2  0  0  0  0  0  0
  -39.6000  -19.5640   14.2430 C   0  0  0  0  0  2  0  0  0  0  0  0
  -37.1250  -19.5570   14.9050 C   0  0  0  0  0  0  0  0  0  0  0  0
  -35.9870  -18.8490   15.3470 C   0  0  0  0  0  3  0  0  0  0  0  0
  -36.0610  -17.4730   15.6350 C   0  0  0  0  0  3  0  0  0  0  0  0
  -37.2820  -16.7910   15.4940 C   0  0  0  0  0  3  0  0  0  0  0  0
  -38.4250  -17.4860   15.0580 C   0  0  0  0  0  3  0  0  0  0  0  0
  -30.6540  -19.9240   13.3660 C   0  0  0  0  0  3  0  0  0  0  0  0
  -30.3170  -18.8850   12.3810 N   0  0  0  0  0  0  0  0  0  0  0  0
  -29.7800  -19.1240   11.1770 C   0  0  0  0  0  0  0  0  0  0  0  0
  -29.4470  -20.2540   10.8040 O   0  0  0  0  0  0  0  0  0  0  0  0
  -30.6090  -17.9440   12.5990 H   0  0  0  0  0  0  0  0  0  0  0  0
  -30.7370  -16.9260   10.4210 C   0  0  0  0  0  1  0  0  0  0  0  0
  -29.5800  -17.9200   10.2380 C   0  0  0  0  0  3  0  0  0  0  0  0
  -28.1390  -18.0680    8.2550 C   0  0  0  0  0  1  0  0  0  0  0  0
  -29.4700  -18.2970    8.8120 N   0  0  0  0  0  0  0  0  0  0  0  0
  -30.1410  -17.7800    8.2500 H   0  0  0  0  0  0  0  0  0  0  0  0
  -30.4460  -19.3920   14.8360 C   0  0  1  0  0  0  0  0  0  0  0  0
  -31.2410  -18.1030   15.1490 C   0  0  0  0  0  1  0  0  0  0  0  0
  -30.8610  -20.4660   15.8670 C   0  0  0  0  0  1  0  0  0  0  0  0
  -28.9470  -19.0970   15.0790 C   0  0  0  0  0  1  0  0  0  0  0  0
  -32.7410  -23.9060   17.6460 C   0  0  0  0  0  2  0  0  0  0  0  0
  -33.2320  -23.5260   19.0570 C   0  0  0  0  0  2  0  0  0  0  0  0
  -32.7690  -22.1320   19.5360 C   0  0  0  0  0  2  0  0  0  0  0  0
  -33.3200  -20.9930   18.6680 C   0  0  0  0  0  2  0  0  0  0  0  0
  -34.8260  -21.1320   18.4140 C   0  0  0  0  0  2  0  0  0  0  0  0
  -35.6570  -20.2760   19.3800 C   0  0  0  0  0  2  0  0  0  0  0  0
  -36.5540  -21.0920   20.3190 C   0  0  0  0  0  2  0  0  0  0  0  0
  -35.8690  -21.5510   21.6170 C   0  0  0  0  0  2  0  0  0  0  0  0
  -36.7650  -22.5390   22.3670 C   0  0  0  0  0  2  0  0  0  0  0  0
  -38.8980  -22.4090   23.5260 C   0  0  0  0  0  0  0  0  0  0  0  0
  -40.1940  -24.1970   24.6270 C   0  0  0  0  0  2  0  0  0  0  0  0
  -39.2860  -25.0830   25.5040 C   0  0  0  0  0  2  0  0  0  0  0  0
  -38.6160  -26.1970   24.6750 C   0  0  0  0  0  2  0  0  0  0  0  0
  -37.9840  -25.6690   23.3590 C   0  0  0  0  0  3  0  0  0  0  0  0
  -38.9940  -24.7710   22.6070 C   0  0  0  0  0  2  0  0  0  0  0  0
  -39.3900  -23.6780   23.5120 N   0  0  0  0  0  0  0  0  0  0  0  0
  -39.1910  -21.5730   24.3820 O   0  0  0  0  0  0  0  0  0  0  0  0
  -38.1370  -22.0540   22.4840 N   0  0  0  0  0  0  0  0  0  0  0  0
  -38.2080  -21.0640   22.2900 H   0  0  0  0  0  0  0  0  0  0  0  0
  -36.3200  -26.8530   21.7880 C   0  0  0  0  0  0  0  0  0  0  0  0
  -36.3150  -28.1100   21.2420 C   0  0  0  0  0  0  0  0  0  0  0  0
  -37.5100  -28.7420   21.7050 C   0  0  0  0  0  0  0  0  0  0  0  0
  -37.4930  -26.7610   22.5230 N   0  0  0  0  0  0  0  0  0  0  0  0
  -38.2290  -27.8960   22.4300 N   0  0  0  0  0  0  0  0  0  0  0  0
  -37.9840  -30.1220   21.5470 C   0  0  0  0  0  0  0  0  0  0  0  0
  -38.5610  -30.5680   20.3380 C   0  0  0  0  0  3  0  0  0  0  0  0
  -38.9930  -31.9040   20.2010 C   0  0  0  0  0  3  0  0  0  0  0  0
  -38.8450  -32.8090   21.2780 C   0  0  0  0  0  0  0  0  0  0  0  0
  -38.2930  -32.3530   22.4880 C   0  0  0  0  0  3  0  0  0  0  0  0
  -37.8680  -31.0210   22.6250 C   0  0  0  0  0  3  0  0  0  0  0  0
  -39.2600  -34.1170   21.2470 O   0  0  0  0  0  0  0  0  0  0  0  0
  -38.8590  -34.9770   20.2540 C   0  0  0  0  0  0  0  0  0  0  0  0
  -37.5700  -35.5570   20.2460 C   0  0  0  0  0  3  0  0  0  0  0  0
  -37.2230  -36.4840   19.2440 C   0  0  0  0  0  3  0  0  0  0  0  0
  -38.1630  -36.8450   18.2600 C   0  0  0  0  0  0  0  0  0  0  0  0
  -39.4490  -36.2770   18.2740 C   0  0  0  0  0  3  0  0  0  0  0  0
  -39.7960  -35.3470   19.2700 C   0  0  0  0  0  0  0  0  0  0  0  0
  -41.0440  -34.8170   19.2900 F   0  0  0  0  0  0  0  0  0  0  0  0
  -37.8340  -37.7410   17.3020 F   0  0  0  0  0  0  0  0  0  0  0  0
  -35.2190  -28.7290   20.4220 C   0  0  0  0  0  0  0  0  0  0  0  0
  -35.3660  -28.7360   19.1000 N   0  0  0  0  0  0  0  0  0  0  0  0
  -34.2020  -29.1740   20.9490 O   0  0  0  0  0  0  0  0  0  0  0  0
  -36.1920  -28.3540   18.6650 H   0  0  0  0  0  0  0  0  0  0  0  0
  -34.6400  -29.1310   18.5170 H   0  0  0  0  0  0  0  0  0  0  0  0
  -35.4170  -25.7960   21.7390 N   0  0  0  0  0  0  0  0  0  0  0  0
  -34.5300  -25.8740   21.2530 H   0  0  0  0  0  0  0  0  0  0  0  0
  -35.5120  -24.9290   22.2530 H   0  0  0  0  0  0  0  0  0  0  0  0
  1  2  1  0
  1  3  2  0
  4  2  1  0
  7  1  1  0
  7  6  1  1
  7  5  1  0
  8  7  1  0
  9  8  1  0
 11  9  1  0
 12 20  1  0
 12 22  1  0
 13 15  2  0
 13 18  1  0
 14 20  1  0
 14 15  1  0
 15 16  1  0
 16 11  2  0
 17 11  1  0
 18 17  2  0
 19 12  1  0
 19 13  1  0
 20 10  1  0
 21 10  2  0
 22 24  2  0
 23 22  1  0
 25 23  1  0
 26 31  2  0
 26 35  1  0
 27 23  1  0
 27 31  1  0
 28 27  1  0
 29 28  1  0
 29 30  1  0
 30 26  1  0
 31 32  1  0
 32 33  2  0
 34 33  1  0
 35 34  2  0
 36 10  1  0
 36 46  1  0
 37 40  1  0
 37 36  1  0
 38 37  1  0
 39 38  2  0
 42 41  1  0
 42 38  1  0
 43 44  1  0
 44 42  1  0
 45 44  1  0
 46 49  1  6
 46 47  1  0
 46 48  1  0
 50  2  1  0
 50 51  1  0
 51 52  1  0
 53 52  1  0
 54 53  1  0
 54 55  1  0
 55 56  1  0
 56 57  1  0
 57 58  1  0
 58 67  1  0
 59 66  2  0
 60 61  1  0
 62 61  1  0
 63 72  1  0
 63 62  1  0
 64 63  1  0
 64 65  1  0
 65 59  1  0
 65 60  1  0
 67 59  1  0
 68 67  1  0
 69 72  1  0
 70 71  1  0
 70 69  2  0
 71 73  2  0
 73 72  1  0
 74 71  1  0
 74 79  1  0
 75 74  2  0
 76 75  1  0
 76 77  2  0
 77 78  1  0
 78 79  2  0
 80 77  1  0
 81 80  1  0
 82 81  1  0
 83 82  2  0
 84 85  2  0
 84 83  1  0
 85 86  1  0
 86 87  1  0
 86 81  2  0
 88 84  1  0
 89 91  2  0
 89 70  1  0
 90 89  1  0
 92 90  1  0
 93 90  1  0
 94 69  1  0
 94 96  1  0
 95 94  1  0
M  ISO  4   8 101   9 101  59 100  67 100
M  END
>  <TORSDO>  (94) 
F 27

>  <SCORE>  (94) 
-2.718

>  <name>  (94) 
96

>  <ligand_id>  (94) 
96

>  <original_smiles>  (94) 
[H]c1c([H])c([H])c2c(c1[H])C([H])([H])C([H])([H])C([H])([H])C2([H])N([H])C(=O)C1([H])N(C(=O)C([H])(N([H])C(=O)C([H])(N([H])C([H])([H])[H])C([H])([H])[H])C(C([H])([H])[H])(C([H])([H])[H])C([H])([H])[H])C([H])([H])c2c([H])c(OC([H])([H])C(C(=O)N([H])C([H])([H])C([H])([H])C([H])([H])C([H])([H])C([H])([H])C([H])([H])C([H])([H])C([H])([H])C([H])([H])N([H])C(=O)N3C([H])([H])C([H])([H])C([H])([H])C([H])(n4nc(-c5c([H])c([H])c(Oc6c([H])c([H])c(F)c([H])c6F)c([H])c5[H])c(C(=O)N([H])[H])c4N([H])[H])C3([H])[H])(C([H])([H])[H])C([H])([H])[H])c([H])c([H])c2C1([H])[H]

>  <smiles>  (94) 
[H]c1c([H])c([H])c2c(c1[H])C([H])([H])C([H])([H])C([H])([H])C2([H])N([H])C(=O)C1([H])N(C(=O)C([H])(N([H])C(=O)C([H])(N([H])C([H])([H])[H])C([H])([H])[H])C(C([H])([H])[H])(C([H])([H])[H])C([H])([H])[H])C([H])([H])c2c([H])c(OC([H])([H])C(C(=O)N([H])C([H])([H])C([H])([H])C([H])([H])C([H])([H])C([H])([H])C([H])([H])C([H])([H])C([H])([H])C([H])([H])N([H])C(=O)N3C([H])([H])C([H])([H])C([H])([H])C([H])(n4nc(-c5c([H])c([H])c(Oc6c([H])c([H])c(F)c([H])c6F)c([H])c5[H])c(C(=O)N([H])[H])c4N([H])[H])C3([H])[H])(C([H])([H])[H])C([H])([H])[H])c([H])c([H])c2C1([H])[H]

$$$$
97:0:0
     RDKit          3D

 97104  0  0  1  0  0  0  0  0999 V2000
  -28.8300  -19.6260   20.5710 C   0  0  0  0  0  3  0  0  0  0  0  0
  -27.3630  -19.3310   20.2120 C   0  0  0  0  0  0  0  0  0  0  0  0
  -26.4100  -19.6700   21.0990 N   0  0  0  0  0  0  0  0  0  0  0  0
  -27.0840  -18.8910   19.0940 O   0  0  0  0  0  0  0  0  0  0  0  0
  -26.7140  -20.0110   22.0020 H   0  0  0  0  0  0  0  0  0  0  0  0
  -24.9750  -19.7650   20.8090 C   0  0  0  0  0  2  0  0  0  0  0  0
  -24.2140  -18.4380   21.0030 C   0  0  0  0  0  2  0  0  0  0  0  0
  -22.7100  -18.5670   20.6680 C   0  0  0  0  0  2  0  0  0  0  0  0
  -21.9220  -17.3640   21.0070 N   0  0  0  0  0  4  0  0  0  0  0  0
  -22.2640  -16.5200   20.5690 H   0  0  0  0  0  0  0  0  0  0  0  0
  -20.9710  -17.4910   20.7060 H   0  0  0  0  0  0  0  0  0  0  0  0
  -21.9060  -17.2170   22.0000 H   0  0  0  0  0  0  0  0  0  0  0  0
  -29.0420  -21.1950   20.0440 N   0  0  0  0  0  4  0  0  0  0  0  0
  -28.6420  -21.1590   19.1200 H   0  0  0  0  0  0  0  0  0  0  0  0
  -30.0340  -21.2910   19.8970 H   0  0  0  0  0  0  0  0  0  0  0  0
  -28.5400  -22.6610   20.6800 C   0  0  0  0  0  2  0  0  0  0  0  0
  -28.2100  -24.2460   19.8850 C   0  0  0  0  0  2  0  0  0  0  0  0
  -28.2230  -25.8420   20.3230 O   0  0  0  0  0  0  0  0  0  0  0  0
  -24.6620  -31.8240   23.1710 C   0  0  0  0  0  0  0  0  0  0  0  0
  -27.2160  -26.9320   20.1850 C   0  0  0  0  0  0  0  0  0  0  0  0
  -23.4760  -30.4350   21.5190 C   0  0  0  0  0  3  0  0  0  0  0  0
  -24.9290  -28.8240   20.1050 C   0  0  0  0  0  0  0  0  0  0  0  0
  -26.0420  -30.6310   21.4000 C   0  0  0  0  0  2  0  0  0  0  0  0
  -26.1090  -29.2220   20.7450 C   0  0  0  0  0  0  0  0  0  0  0  0
  -27.2430  -28.2940   20.7650 C   0  0  0  0  0  3  0  0  0  0  0  0
  -26.0130  -26.6900   19.4820 C   0  0  0  0  0  3  0  0  0  0  0  0
  -24.9080  -27.5800   19.4510 C   0  0  0  0  0  3  0  0  0  0  0  0
  -23.7140  -29.7510   20.1430 C   0  0  0  0  0  2  0  0  0  0  0  0
  -24.7480  -30.9900   22.0840 N   0  0  0  0  0  0  0  0  0  0  0  0
  -23.5700  -32.1220   23.6790 O   0  0  0  0  0  0  0  0  0  0  0  0
  -22.7660  -29.4440   22.4790 C   0  0  0  0  0  0  0  0  0  0  0  0
  -21.4330  -29.3050   22.3560 N   0  0  0  0  0  0  0  0  0  0  0  0
  -23.4220  -28.8010   23.3020 O   0  0  0  0  0  0  0  0  0  0  0  0
  -20.9570  -29.8710   21.6680 H   0  0  0  0  0  0  0  0  0  0  0  0
  -18.0340  -28.1380   22.8460 C   0  0  0  0  0  0  0  0  0  0  0  0
  -20.5950  -28.3750   23.1210 C   0  0  0  0  0  3  0  0  0  0  0  0
  -20.6830  -26.9450   22.5390 C   0  0  0  0  0  2  0  0  0  0  0  0
  -19.5800  -26.6350   21.5220 C   0  0  0  0  0  2  0  0  0  0  0  0
  -18.1970  -26.7920   22.1600 C   0  0  0  0  0  2  0  0  0  0  0  0
  -19.1580  -28.8890   23.2820 C   0  0  0  0  0  0  0  0  0  0  0  0
  -18.9490  -30.1460   23.8870 C   0  0  0  0  0  3  0  0  0  0  0  0
  -17.6480  -30.6580   24.0540 C   0  0  0  0  0  3  0  0  0  0  0  0
  -16.5380  -29.9050   23.6320 C   0  0  0  0  0  3  0  0  0  0  0  0
  -16.7320  -28.6480   23.0350 C   0  0  0  0  0  3  0  0  0  0  0  0
  -25.9310  -32.4590   23.8170 C   0  0  0  0  0  3  0  0  0  0  0  0
  -26.4570  -31.6530   25.0690 C   0  0  1  0  0  0  0  0  0  0  0  0
  -25.3690  -31.3780   26.1340 C   0  0  0  0  0  1  0  0  0  0  0  0
  -27.0460  -30.2910   24.6410 C   0  0  0  0  0  1  0  0  0  0  0  0
  -27.6060  -32.4340   25.7490 C   0  0  0  0  0  1  0  0  0  0  0  0
  -25.5980  -33.8400   24.2080 N   0  0  0  0  0  0  0  0  0  0  0  0
  -25.9100  -34.9350   23.5010 C   0  0  0  0  0  0  0  0  0  0  0  0
  -26.5700  -34.8890   22.4600 O   0  0  0  0  0  0  0  0  0  0  0  0
  -25.0080  -33.9490   25.0200 H   0  0  0  0  0  0  0  0  0  0  0  0
  -24.1490  -36.7210   23.2650 C   0  0  0  0  0  1  0  0  0  0  0  0
  -25.4130  -36.2970   24.0300 C   0  0  0  0  0  3  0  0  0  0  0  0
  -27.5570  -37.1760   24.8470 C   0  0  0  0  0  1  0  0  0  0  0  0
  -26.4280  -37.3700   23.9410 N   0  0  0  0  0  0  0  0  0  0  0  0
  -26.0130  -38.2760   24.1410 H   0  0  0  0  0  0  0  0  0  0  0  0
  -29.8090  -18.1490   20.1760 C   0  0  0  0  0  2  0  0  0  0  0  0
  -30.4150  -15.2550   20.3700 C   0  0  0  0  0  0  0  0  0  0  0  0
  -30.4370  -12.7980   19.5350 C   0  0  0  0  0  2  0  0  0  0  0  0
  -29.5400  -12.5750   18.2910 C   0  0  0  0  0  2  0  0  0  0  0  0
  -28.0870  -12.2960   18.7130 C   0  0  0  0  0  2  0  0  0  0  0  0
  -27.6130  -13.2660   19.8220 C   0  0  0  0  0  3  0  0  0  0  0  0
  -28.6390  -13.4370   20.9620 C   0  0  0  0  0  2  0  0  0  0  0  0
  -29.8740  -13.9400   20.3450 N   0  0  0  0  0  0  0  0  0  0  0  0
  -31.6280  -15.2780   20.1200 O   0  0  0  0  0  0  0  0  0  0  0  0
  -29.6230  -16.5060   20.4760 N   0  0  0  0  0  0  0  0  0  0  0  0
  -28.6630  -16.2800   20.6910 H   0  0  0  0  0  0  0  0  0  0  0  0
  -25.2460  -13.8160   20.5730 C   0  0  0  0  0  0  0  0  0  0  0  0
  -24.1770  -13.0420   20.9240 C   0  0  0  0  0  0  0  0  0  0  0  0
  -24.6390  -11.6910   20.8740 C   0  0  0  0  0  0  0  0  0  0  0  0
  -26.2830  -12.9430   20.3160 N   0  0  0  0  0  0  0  0  0  0  0  0
  -25.9330  -11.6550   20.5680 N   0  0  0  0  0  0  0  0  0  0  0  0
  -23.9070  -10.4290   21.0400 C   0  0  0  0  0  0  0  0  0  0  0  0
  -24.3630   -9.4210   21.9170 C   0  0  0  0  0  3  0  0  0  0  0  0
  -23.6300   -8.2260   22.0760 C   0  0  0  0  0  3  0  0  0  0  0  0
  -22.4270   -8.0290   21.3550 C   0  0  0  0  0  0  0  0  0  0  0  0
  -21.9910   -9.0270   20.4650 C   0  0  0  0  0  3  0  0  0  0  0  0
  -22.7250  -10.2140   20.3040 C   0  0  0  0  0  3  0  0  0  0  0  0
  -21.6640   -6.8880   21.4240 O   0  0  0  0  0  0  0  0  0  0  0  0
  -21.6860   -6.0730   22.5270 C   0  0  0  0  0  0  0  0  0  0  0  0
  -21.4030   -6.5640   23.8210 C   0  0  0  0  0  3  0  0  0  0  0  0
  -21.3650   -5.6790   24.9170 C   0  0  0  0  0  3  0  0  0  0  0  0
  -21.6040   -4.3050   24.7230 C   0  0  0  0  0  0  0  0  0  0  0  0
  -21.8820   -3.8140   23.4350 C   0  0  0  0  0  3  0  0  0  0  0  0
  -21.9200   -4.6960   22.3410 C   0  0  0  0  0  0  0  0  0  0  0  0
  -22.1670   -4.2150   21.0980 F   0  0  0  0  0  0  0  0  0  0  0  0
  -21.5620   -3.4530   25.7740 F   0  0  0  0  0  0  0  0  0  0  0  0
  -22.7830  -13.5260   21.1890 C   0  0  0  0  0  0  0  0  0  0  0  0
  -22.0400  -12.8230   22.0340 N   0  0  0  0  0  0  0  0  0  0  0  0
  -22.3660  -14.5730   20.6860 O   0  0  0  0  0  0  0  0  0  0  0  0
  -22.3930  -11.9790   22.4610 H   0  0  0  0  0  0  0  0  0  0  0  0
  -21.1020  -13.1270   22.2550 H   0  0  0  0  0  0  0  0  0  0  0  0
  -25.4240  -15.1870   20.4200 N   0  0  0  0  0  0  0  0  0  0  0  0
  -24.6820  -15.8510   20.5750 H   0  0  0  0  0  0  0  0  0  0  0  0
  -26.2670  -15.6100   20.0570 H   0  0  0  0  0  0  0  0  0  0  0  0
  1 59  1  0
  2  1  1  0
  2  3  1  0
  3  5  1  0
  4  2  2  0
  6  7  1  0
  6  3  1  0
  8  7  1  0
  8  9  1  0
  9 12  1  0
 10  9  1  0
 11  9  1  0
 13  1  1  0
 13 16  1  0
 14 13  1  0
 15 13  1  0
 17 18  1  0
 17 16  1  0
 19 30  2  0
 20 18  1  0
 20 25  1  0
 21 29  1  0
 21 31  1  0
 22 28  1  0
 22 24  1  0
 23 29  1  0
 24 25  2  0
 24 23  1  0
 26 20  2  0
 27 26  1  0
 27 22  2  0
 28 21  1  0
 29 19  1  0
 31 33  2  0
 32 31  1  0
 34 32  1  0
 35 44  2  0
 35 40  1  0
 36 32  1  0
 36 40  1  0
 37 36  1  0
 38 39  1  0
 38 37  1  0
 39 35  1  0
 40 41  2  0
 41 42  1  0
 43 42  2  0
 44 43  1  0
 45 19  1  0
 45 50  1  0
 45 46  1  0
 46 49  1  1
 46 47  1  0
 48 46  1  0
 50 53  1  0
 51 55  1  0
 51 50  1  0
 52 51  2  0
 55 54  1  0
 57 55  1  0
 57 58  1  0
 57 56  1  0
 59 68  1  0
 60 68  1  0
 61 66  1  0
 62 63  1  0
 62 61  1  0
 64 63  1  0
 64 73  1  0
 64 65  1  0
 66 60  1  0
 66 65  1  0
 67 60  2  0
 68 69  1  0
 70 71  2  0
 71 90  1  0
 72 71  1  0
 72 75  1  0
 73 74  1  0
 73 70  1  0
 74 72  2  0
 75 76  1  0
 76 77  2  0
 78 81  1  0
 78 77  1  0
 79 78  2  0
 80 79  1  0
 80 75  2  0
 81 82  1  0
 82 83  1  0
 83 84  2  0
 85 84  1  0
 85 89  1  0
 86 85  2  0
 87 82  2  0
 87 86  1  0
 88 87  1  0
 90 91  1  0
 91 94  1  0
 91 93  1  0
 92 90  2  0
 95 70  1  0
 95 96  1  0
 97 95  1  0
M  ISO  4  17 101  18 101  60 100  68 100
M  END
>  <TORSDO>  (95) 
F 25

>  <SCORE>  (95) 
9.715

>  <name>  (95) 
97

>  <ligand_id>  (95) 
97

>  <original_smiles>  (95) 
[H]c1c([H])c([H])c2c(c1[H])C([H])([H])C([H])([H])C([H])([H])C2([H])N([H])C(=O)C1([H])N(C(=O)C([H])(N([H])C(=O)C([H])(N([H])C([H])([H])[H])C([H])([H])[H])C(C([H])([H])[H])(C([H])([H])[H])C([H])([H])[H])C([H])([H])c2c([H])c(OC([H])([H])C([H])([H])[N+]([H])([H])C([H])(C(=O)N([H])C([H])([H])C([H])([H])C([H])([H])[N+]([H])([H])[H])C([H])([H])N([H])C(=O)N3C([H])([H])C([H])([H])C([H])([H])C([H])(n4nc(-c5c([H])c([H])c(Oc6c([H])c([H])c(F)c([H])c6F)c([H])c5[H])c(C(=O)N([H])[H])c4N([H])[H])C3([H])[H])c([H])c([H])c2C1([H])[H]

>  <smiles>  (95) 
[H]c1c([H])c([H])c2c(c1[H])C([H])([H])C([H])([H])C([H])([H])C2([H])N([H])C(=O)C1([H])N(C(=O)C([H])(N([H])C(=O)C([H])(N([H])C([H])([H])[H])C([H])([H])[H])C(C([H])([H])[H])(C([H])([H])[H])C([H])([H])[H])C([H])([H])c2c([H])c(OC([H])([H])C([H])([H])[N+]([H])([H])C([H])(C(=O)N([H])C([H])([H])C([H])([H])C([H])([H])[N+]([H])([H])[H])C([H])([H])N([H])C(=O)N3C([H])([H])C([H])([H])C([H])([H])C([H])(n4nc(-c5c([H])c([H])c(Oc6c([H])c([H])c(F)c([H])c6F)c([H])c5[H])c(C(=O)N([H])[H])c4N([H])[H])C3([H])[H])c([H])c([H])c2C1([H])[H]

$$$$
