0:0:0
     RDKit          3D

 92 99  0  0  1  0  0  0  0  0999 V2000
  -28.7150  -22.8730   20.6390 C   0  0  0  0  0  3  0  0  0  0  0  0
  -29.8630  -23.2250   21.4980 N   0  0  0  0  0  4  0  0  0  0  0  0
  -30.6880  -23.4060   20.9520 H   0  0  0  0  0  0  0  0  0  0  0  0
  -30.0680  -22.4890   22.1500 H   0  0  0  0  0  0  0  0  0  0  0  0
  -29.6600  -24.0570   22.0260 H   0  0  0  0  0  0  0  0  0  0  0  0
  -29.0740  -21.2680   19.9400 C   0  0  0  0  0  3  0  0  0  0  0  0
  -29.2030  -19.6140   20.6030 C   0  0  0  0  0  3  0  0  0  0  0  0
  -29.9720  -18.1290   19.9830 C   0  0  0  0  0  0  0  0  0  0  0  0
  -30.5190  -15.2760   20.1940 C   0  0  0  0  0  0  0  0  0  0  0  0
  -30.4410  -12.8680   19.2700 C   0  0  0  0  0  2  0  0  0  0  0  0
  -29.5080  -12.7560   18.0400 C   0  0  0  0  0  2  0  0  0  0  0  0
  -28.0540  -12.5010   18.4770 C   0  0  0  0  0  2  0  0  0  0  0  0
  -27.6360  -13.4180   19.6550 C   0  0  0  0  0  3  0  0  0  0  0  0
  -28.6980  -13.4990   20.7730 C   0  0  0  0  0  2  0  0  0  0  0  0
  -29.9390  -13.9840   20.1500 N   0  0  0  0  0  0  0  0  0  0  0  0
  -31.7190  -15.2880   19.8910 O   0  0  0  0  0  0  0  0  0  0  0  0
  -29.7710  -16.5310   20.3720 N   0  0  0  0  0  4  0  0  0  0  0  0
  -28.8290  -16.3370   20.6840 H   0  0  0  0  0  0  0  0  0  0  0  0
  -25.2620  -13.9650   20.4070 C   0  0  0  0  0  0  0  0  0  0  0  0
  -24.2080  -13.1840   20.7870 C   0  0  0  0  0  0  0  0  0  0  0  0
  -24.6840  -11.8360   20.7650 C   0  0  0  0  0  0  0  0  0  0  0  0
  -26.3100  -13.0960   20.1670 N   0  0  0  0  0  0  0  0  0  0  0  0
  -25.9750  -11.8100   20.4500 N   0  0  0  0  0  0  0  0  0  0  0  0
  -23.9670  -10.5700   20.9670 C   0  0  0  0  0  0  0  0  0  0  0  0
  -24.4050   -9.6130   21.9070 C   0  0  0  0  0  3  0  0  0  0  0  0
  -23.6840   -8.4160   22.1000 C   0  0  0  0  0  3  0  0  0  0  0  0
  -22.5100   -8.1640   21.3520 C   0  0  0  0  0  0  0  0  0  0  0  0
  -22.0910   -9.1100   20.3990 C   0  0  0  0  0  3  0  0  0  0  0  0
  -22.8120  -10.2990   20.2050 C   0  0  0  0  0  3  0  0  0  0  0  0
  -21.7620   -7.0170   21.4500 O   0  0  0  0  0  0  0  0  0  0  0  0
  -21.7200   -6.2820   22.6080 C   0  0  0  0  0  0  0  0  0  0  0  0
  -21.2990   -6.8440   23.8330 C   0  0  0  0  0  3  0  0  0  0  0  0
  -21.2060   -6.0370   24.9830 C   0  0  0  0  0  3  0  0  0  0  0  0
  -21.5240   -4.6670   24.9110 C   0  0  0  0  0  0  0  0  0  0  0  0
  -21.9360   -4.1030   23.6900 C   0  0  0  0  0  3  0  0  0  0  0  0
  -22.0310   -4.9090   22.5430 C   0  0  0  0  0  0  0  0  0  0  0  0
  -22.4090   -4.3550   21.3650 F   0  0  0  0  0  0  0  0  0  0  0  0
  -21.4260   -3.8890   26.0150 F   0  0  0  0  0  0  0  0  0  0  0  0
  -22.8080  -13.6520   21.0530 C   0  0  0  0  0  0  0  0  0  0  0  0
  -22.0870  -12.9630   21.9300 N   0  0  0  0  0  0  0  0  0  0  0  0
  -22.3630  -14.6660   20.5170 O   0  0  0  0  0  0  0  0  0  0  0  0
  -22.4620  -12.1430   22.3850 H   0  0  0  0  0  0  0  0  0  0  0  0
  -21.1480  -13.2590   22.1520 H   0  0  0  0  0  0  0  0  0  0  0  0
  -25.4120  -15.3360   20.2160 N   0  0  0  0  0  0  0  0  0  0  0  0
  -24.6380  -15.9820   20.3210 H   0  0  0  0  0  0  0  0  0  0  0  0
  -26.2420  -15.7760   19.8390 H   0  0  0  0  0  0  0  0  0  0  0  0
  -29.9210  -18.2130   18.4350 C   0  0  0  0  0  2  0  0  0  0  0  0
  -31.2020  -18.0830   16.2420 C   0  0  0  0  0  1  0  0  0  0  0  0
  -31.9480  -19.7120   18.0110 C   0  0  0  0  0  1  0  0  0  0  0  0
  -31.3020  -18.3390   17.7540 C   0  0  0  0  0  3  0  0  0  0  0  0
  -28.1650  -24.3970   19.8970 C   0  0  0  0  0  2  0  0  0  0  0  0
  -28.2150  -25.9710   20.3380 O   0  0  0  0  0  0  0  0  0  0  0  0
  -24.6240  -31.8900   23.2080 C   0  0  0  0  0  0  0  0  0  0  0  0
  -27.1880  -27.0320   20.2150 C   0  0  0  0  0  0  0  0  0  0  0  0
  -23.4280  -30.4810   21.5800 C   0  0  0  0  0  3  0  0  0  0  0  0
  -24.8760  -28.8790   20.1590 C   0  0  0  0  0  0  0  0  0  0  0  0
  -25.9910  -30.7060   21.4270 C   0  0  0  0  0  2  0  0  0  0  0  0
  -26.0600  -29.2970   20.7780 C   0  0  0  0  0  0  0  0  0  0  0  0
  -27.2070  -28.3920   20.7890 C   0  0  0  0  0  3  0  0  0  0  0  0
  -25.9790  -26.7600   19.5350 C   0  0  0  0  0  3  0  0  0  0  0  0
  -24.8590  -27.6290   19.5180 C   0  0  0  0  0  3  0  0  0  0  0  0
  -23.6530  -29.7900   20.2060 C   0  0  0  0  0  2  0  0  0  0  0  0
  -24.7020  -31.0530   22.1250 N   0  0  0  0  0  0  0  0  0  0  0  0
  -23.5350  -32.1810   23.7310 O   0  0  0  0  0  0  0  0  0  0  0  0
  -22.7400  -29.4880   22.5520 C   0  0  0  0  0  0  0  0  0  0  0  0
  -21.4100  -29.3230   22.4350 N   0  0  0  0  0  0  0  0  0  0  0  0
  -23.4110  -28.8650   23.3800 O   0  0  0  0  0  0  0  0  0  0  0  0
  -20.9230  -29.8780   21.7440 H   0  0  0  0  0  0  0  0  0  0  0  0
  -18.0310  -28.1180   22.9600 C   0  0  0  0  0  0  0  0  0  0  0  0
  -20.5900  -28.3910   23.2150 C   0  0  0  0  0  3  0  0  0  0  0  0
  -20.6920  -26.9540   22.6500 C   0  0  0  0  0  2  0  0  0  0  0  0
  -19.5890  -26.6220   21.6410 C   0  0  0  0  0  2  0  0  0  0  0  0
  -18.2080  -26.7660   22.2890 C   0  0  0  0  0  2  0  0  0  0  0  0
  -19.1480  -28.8870   23.3800 C   0  0  0  0  0  0  0  0  0  0  0  0
  -18.9260  -30.1490   23.9720 C   0  0  0  0  0  3  0  0  0  0  0  0
  -17.6210  -30.6440   24.1450 C   0  0  0  0  0  3  0  0  0  0  0  0
  -16.5170  -29.8730   23.7390 C   0  0  0  0  0  3  0  0  0  0  0  0
  -16.7230  -28.6120   23.1530 C   0  0  0  0  0  3  0  0  0  0  0  0
  -25.8960  -32.5380   23.8340 C   0  0  0  0  0  3  0  0  0  0  0  0
  -26.4110  -31.7780   25.1190 C   0  0  1  0  0  0  0  0  0  0  0  0
  -25.3170  -31.5450   26.1870 C   0  0  0  0  0  1  0  0  0  0  0  0
  -26.9990  -30.3970   24.7470 C   0  0  0  0  0  1  0  0  0  0  0  0
  -27.5600  -32.5800   25.7780 C   0  0  0  0  0  1  0  0  0  0  0  0
  -25.5750  -33.9370   24.1680 N   0  0  0  0  0  0  0  0  0  0  0  0
  -25.8980  -35.0000   23.4190 C   0  0  0  0  0  0  0  0  0  0  0  0
  -26.5630  -34.9050   22.3840 O   0  0  0  0  0  0  0  0  0  0  0  0
  -24.9840  -34.0820   24.9730 H   0  0  0  0  0  0  0  0  0  0  0  0
  -24.1610  -36.7920   23.0950 C   0  0  0  0  0  1  0  0  0  0  0  0
  -25.4110  -36.3850   23.8900 C   0  0  0  0  0  3  0  0  0  0  0  0
  -27.5490  -37.2750   24.7070 C   0  0  0  0  0  1  0  0  0  0  0  0
  -26.4390  -37.4430   23.7750 N   0  0  0  0  0  0  0  0  0  0  0  0
  -26.0300  -38.3610   23.9300 H   0  0  0  0  0  0  0  0  0  0  0  0
  1 51  1  0
  1  2  1  0
  2  5  1  0
  2  4  1  0
  3  2  1  0
  6  7  2  0
  6  1  1  0
  8 17  2  0
  8  7  1  0
  9 17  1  0
 10 15  1  0
 11 12  1  0
 11 10  1  0
 13 12  1  0
 13 22  1  0
 13 14  1  0
 15  9  1  0
 15 14  1  0
 16  9  2  0
 17 18  1  0
 19 20  2  0
 20 39  1  0
 21 20  1  0
 21 24  1  0
 22 19  1  0
 22 23  1  0
 23 21  2  0
 24 25  1  0
 25 26  2  0
 27 30  1  0
 27 26  1  0
 28 27  2  0
 29 28  1  0
 29 24  2  0
 30 31  1  0
 31 32  1  0
 32 33  2  0
 34 33  1  0
 34 38  1  0
 35 34  2  0
 36 31  2  0
 36 35  1  0
 37 36  1  0
 39 40  1  0
 40 43  1  0
 40 42  1  0
 41 39  2  0
 44 45  1  0
 44 19  1  0
 46 44  1  0
 47  8  1  0
 48 50  1  0
 50 49  1  0
 50 47  1  0
 51 52  1  0
 53 64  2  0
 54 52  1  0
 54 59  1  0
 55 63  1  0
 55 65  1  0
 56 62  1  0
 56 58  1  0
 57 63  1  0
 58 59  2  0
 58 57  1  0
 60 54  2  0
 61 60  1  0
 61 56  2  0
 62 55  1  0
 63 53  1  0
 65 67  2  0
 66 65  1  0
 68 66  1  0
 69 78  2  0
 69 74  1  0
 70 66  1  0
 70 74  1  0
 71 70  1  0
 72 73  1  0
 72 71  1  0
 73 69  1  0
 74 75  2  0
 75 76  1  0
 77 76  2  0
 78 77  1  0
 79 53  1  0
 79 84  1  0
 79 80  1  0
 80 83  1  1
 80 81  1  0
 82 80  1  0
 84 87  1  0
 85 89  1  0
 85 84  1  0
 86 85  2  0
 89 88  1  0
 91 89  1  0
 91 92  1  0
 91 90  1  0
M  ISO  4   9 100  17 100  51 101  52 101
M  END
>  <TORSDO>  (1) 
F 23

>  <SCORE>  (1) 
-14.720

>  <name>  (1) 
0

>  <ligand_id>  (1) 
0

>  <original_smiles>  (1) 
[H]c1c([H])c([H])c2c(c1[H])C([H])([H])C([H])([H])C([H])([H])C2([H])N([H])C(=O)C1([H])N(C(=O)C([H])(N([H])C(=O)C([H])(N([H])C([H])([H])[H])C([H])([H])[H])C(C([H])([H])[H])(C([H])([H])[H])C([H])([H])[H])C([H])([H])c2c([H])c(OC([H])([H])C([H])(C([H])([H])C([H])([H])C([H])(N([H])C(=O)N3C([H])([H])C([H])([H])C([H])([H])C([H])(n4nc(-c5c([H])c([H])c(Oc6c([H])c([H])c(F)c([H])c6F)c([H])c5[H])c(C(=O)N([H])[H])c4N([H])[H])C3([H])[H])C([H])([H])C([H])(C([H])([H])[H])C([H])([H])[H])[N+]([H])([H])[H])c([H])c([H])c2C1([H])[H]

>  <smiles>  (1) 
[H]c1c([H])c([H])c2c(c1[H])C([H])([H])C([H])([H])C([H])([H])C2([H])N([H])C(=O)C1([H])N(C(=O)C([H])(N([H])C(=O)C([H])(N([H])C([H])([H])[H])C([H])([H])[H])C(C([H])([H])[H])(C([H])([H])[H])C([H])([H])[H])C([H])([H])c2c([H])c(OC([H])([H])C([H])(C([H])([H])C([H])([H])C([H])(N([H])C(=O)N3C([H])([H])C([H])([H])C([H])([H])C([H])(n4nc(-c5c([H])c([H])c(Oc6c([H])c([H])c(F)c([H])c6F)c([H])c5[H])c(C(=O)N([H])[H])c4N([H])[H])C3([H])[H])C([H])([H])C([H])(C([H])([H])[H])C([H])([H])[H])[N+]([H])([H])[H])c([H])c([H])c2C1([H])[H]

$$$$
1:0:0
     RDKit          3D

 91 98  0  0  1  0  0  0  0  0999 V2000
  -30.4010  -21.6940   19.1920 C   0  0  0  0  0  1  0  0  0  0  0  0
  -29.2550  -21.5200   20.2000 C   0  0  0  0  0  3  0  0  0  0  0  0
  -29.5790  -19.8940   20.9420 C   0  0  0  0  0  2  0  0  0  0  0  0
  -30.0620  -18.2650   20.2890 C   0  0  0  0  0  0  0  0  0  0  0  0
  -30.9000  -15.4950   20.8790 C   0  0  0  0  0  0  0  0  0  0  0  0
  -30.9160  -13.0340   20.0750 C   0  0  0  0  0  2  0  0  0  0  0  0
  -30.1180  -12.8560   18.7570 C   0  0  0  0  0  2  0  0  0  0  0  0
  -28.6260  -12.6250   19.0510 C   0  0  0  0  0  2  0  0  0  0  0  0
  -28.0930  -13.6050   20.1260 C   0  0  0  0  0  3  0  0  0  0  0  0
  -29.0270  -13.7320   21.3520 C   0  0  0  0  0  2  0  0  0  0  0  0
  -30.3320  -14.1900   20.8540 N   0  0  0  0  0  0  0  0  0  0  0  0
  -32.1140  -15.4980   20.6330 O   0  0  0  0  0  0  0  0  0  0  0  0
  -30.1370  -16.7580   21.0090 N   0  0  0  0  0  4  0  0  0  0  0  0
  -29.2490  -16.5460   21.4380 H   0  0  0  0  0  0  0  0  0  0  0  0
  -25.6650  -14.2080   20.6150 C   0  0  0  0  0  0  0  0  0  0  0  0
  -24.5620  -13.4520   20.9000 C   0  0  0  0  0  0  0  0  0  0  0  0
  -25.0140  -12.0970   20.9570 C   0  0  0  0  0  0  0  0  0  0  0  0
  -26.7160  -13.3170   20.5040 N   0  0  0  0  0  0  0  0  0  0  0  0
  -26.3300  -12.0420   20.7780 N   0  0  0  0  0  0  0  0  0  0  0  0
  -24.2570  -10.8480   21.1110 C   0  0  0  0  0  0  0  0  0  0  0  0
  -24.5950   -9.8920   22.0950 C   0  0  0  0  0  3  0  0  0  0  0  0
  -23.8350   -8.7100   22.2360 C   0  0  0  0  0  3  0  0  0  0  0  0
  -22.7250   -8.4740   21.3900 C   0  0  0  0  0  0  0  0  0  0  0  0
  -22.4090   -9.4170   20.3960 C   0  0  0  0  0  3  0  0  0  0  0  0
  -23.1690  -10.5900   20.2540 C   0  0  0  0  0  3  0  0  0  0  0  0
  -21.9470   -7.3430   21.4380 O   0  0  0  0  0  0  0  0  0  0  0  0
  -21.8000   -6.6170   22.5930 C   0  0  0  0  0  0  0  0  0  0  0  0
  -21.3060   -7.2000   23.7810 C   0  0  0  0  0  3  0  0  0  0  0  0
  -21.1030   -6.4030   24.9250 C   0  0  0  0  0  3  0  0  0  0  0  0
  -21.3880   -5.0240   24.8820 C   0  0  0  0  0  0  0  0  0  0  0  0
  -21.8750   -4.4420   23.6990 C   0  0  0  0  0  3  0  0  0  0  0  0
  -22.0770   -5.2360   22.5570 C   0  0  0  0  0  0  0  0  0  0  0  0
  -22.5260   -4.6660   21.4130 F   0  0  0  0  0  0  0  0  0  0  0  0
  -21.1870   -4.2560   25.9780 F   0  0  0  0  0  0  0  0  0  0  0  0
  -23.1510  -13.9500   21.0120 C   0  0  0  0  0  0  0  0  0  0  0  0
  -22.3340  -13.2970   21.8310 N   0  0  0  0  0  0  0  0  0  0  0  0
  -22.7790  -14.9550   20.4090 O   0  0  0  0  0  0  0  0  0  0  0  0
  -22.6480  -12.4830   22.3410 H   0  0  0  0  0  0  0  0  0  0  0  0
  -21.3840  -13.6150   21.9520 H   0  0  0  0  0  0  0  0  0  0  0  0
  -25.8600  -15.5710   20.4110 N   0  0  0  0  0  0  0  0  0  0  0  0
  -25.0890  -16.2290   20.4160 H   0  0  0  0  0  0  0  0  0  0  0  0
  -26.7350  -15.9860   20.1230 H   0  0  0  0  0  0  0  0  0  0  0  0
  -29.3660  -17.8210   18.9350 C   0  0  0  0  0  2  0  0  0  0  0  0
  -29.2600  -19.6880   17.1580 C   0  0  0  0  0  1  0  0  0  0  0  0
  -27.8780  -17.6760   16.9350 C   0  0  0  0  0  1  0  0  0  0  0  0
  -27.2400  -19.2820   18.6900 C   0  0  0  0  0  1  0  0  0  0  0  0
  -28.4610  -18.6610   17.9790 C   0  0  1  0  0  0  0  0  0  0  0  0
  -29.0030  -23.2020   20.8050 C   0  0  0  0  0  2  0  0  0  0  0  0
  -28.2270  -24.4610   20.1130 N   0  0  0  0  0  0  0  0  0  0  0  0
  -27.2240  -24.3170   20.1850 H   0  0  0  0  0  0  0  0  0  0  0  0
  -28.4870  -26.0930   20.4840 O   0  0  0  0  0  0  0  0  0  0  0  0
  -24.7530  -31.9730   23.3340 C   0  0  0  0  0  0  0  0  0  0  0  0
  -27.4440  -27.1490   20.3630 C   0  0  0  0  0  0  0  0  0  0  0  0
  -23.6100  -30.5550   21.6790 C   0  0  0  0  0  3  0  0  0  0  0  0
  -25.1090  -28.9780   20.2760 C   0  0  0  0  0  0  0  0  0  0  0  0
  -26.1720  -30.8130   21.5750 C   0  0  0  0  0  2  0  0  0  0  0  0
  -26.2750  -29.4060   20.9220 C   0  0  0  0  0  0  0  0  0  0  0  0
  -27.4310  -28.5070   20.9510 C   0  0  0  0  0  3  0  0  0  0  0  0
  -26.2540  -26.8750   19.6530 C   0  0  0  0  0  3  0  0  0  0  0  0
  -25.1220  -27.7320   19.6230 C   0  0  0  0  0  3  0  0  0  0  0  0
  -23.8730  -29.8760   20.3060 C   0  0  0  0  0  2  0  0  0  0  0  0
  -24.8650  -31.1410   22.2500 N   0  0  0  0  0  0  0  0  0  0  0  0
  -23.6510  -32.2450   23.8390 O   0  0  0  0  0  0  0  0  0  0  0  0
  -22.9210  -29.5460   22.6340 C   0  0  0  0  0  0  0  0  0  0  0  0
  -21.5980  -29.3530   22.4840 N   0  0  0  0  0  0  0  0  0  0  0  0
  -23.5840  -28.9390   23.4780 O   0  0  0  0  0  0  0  0  0  0  0  0
  -21.1170  -29.8950   21.7800 H   0  0  0  0  0  0  0  0  0  0  0  0
  -18.2360  -28.0600   22.9160 C   0  0  0  0  0  0  0  0  0  0  0  0
  -20.7810  -28.4020   23.2430 C   0  0  0  0  0  3  0  0  0  0  0  0
  -20.9380  -26.9680   22.6860 C   0  0  0  0  0  2  0  0  0  0  0  0
  -19.8710  -26.6050   21.6460 C   0  0  0  0  0  2  0  0  0  0  0  0
  -18.4700  -26.7130   22.2530 C   0  0  0  0  0  2  0  0  0  0  0  0
  -19.3210  -28.8600   23.3650 C   0  0  0  0  0  0  0  0  0  0  0  0
  -19.0490  -30.1170   23.9480 C   0  0  0  0  0  3  0  0  0  0  0  0
  -17.7250  -30.5760   24.0830 C   0  0  0  0  0  3  0  0  0  0  0  0
  -16.6550  -29.7750   23.6490 C   0  0  0  0  0  3  0  0  0  0  0  0
  -16.9110  -28.5190   23.0700 C   0  0  0  0  0  3  0  0  0  0  0  0
  -26.0030  -32.6390   23.9860 C   0  0  0  0  0  3  0  0  0  0  0  0
  -25.6490  -34.0280   24.3320 N   0  0  0  0  0  0  0  0  0  0  0  0
  -25.9760  -35.1080   23.6090 C   0  0  0  0  0  0  0  0  0  0  0  0
  -26.6690  -35.0400   22.5910 O   0  0  0  0  0  0  0  0  0  0  0  0
  -25.0310  -34.1510   25.1210 H   0  0  0  0  0  0  0  0  0  0  0  0
  -24.2160  -36.8770   23.2680 C   0  0  0  0  0  1  0  0  0  0  0  0
  -25.4530  -36.4770   24.0890 C   0  0  0  0  0  3  0  0  0  0  0  0
  -27.5560  -37.3900   24.9700 C   0  0  0  0  0  1  0  0  0  0  0  0
  -26.4650  -37.5550   24.0130 N   0  0  0  0  0  0  0  0  0  0  0  0
  -26.0390  -38.4630   24.1740 H   0  0  0  0  0  0  0  0  0  0  0  0
  -26.5130  -31.8750   25.2700 C   0  0  1  0  0  0  0  0  0  0  0  0
  -25.4050  -31.6100   26.3180 C   0  0  0  0  0  1  0  0  0  0  0  0
  -27.1330  -30.5110   24.8910 C   0  0  0  0  0  1  0  0  0  0  0  0
  -27.6360  -32.6910   25.9540 C   0  0  0  0  0  1  0  0  0  0  0  0
  2  1  1  0
  2 48  1  0
  2  3  1  0
  4  3  1  0
  4 13  2  3
  5 13  1  0
  6 11  1  0
  7  8  1  0
  7  6  1  0
  9  8  1  0
  9 18  1  0
  9 10  1  0
 11  5  1  0
 11 10  1  0
 12  5  2  0
 13 14  1  0
 15 16  2  0
 16 17  1  0
 16 35  1  0
 17 20  1  0
 18 15  1  0
 18 19  1  0
 19 17  2  0
 20 21  1  0
 21 22  2  0
 23 26  1  0
 23 22  1  0
 24 23  2  0
 25 24  1  0
 25 20  2  0
 26 27  1  0
 27 28  1  0
 28 29  2  0
 30 29  1  0
 30 34  1  0
 31 30  2  0
 32 27  2  0
 32 31  1  0
 33 32  1  0
 35 36  1  0
 36 39  1  0
 36 38  1  0
 37 35  2  0
 40 41  1  0
 40 15  1  0
 42 40  1  0
 43  4  1  0
 47 44  1  6
 45 47  1  0
 47 46  1  0
 47 43  1  0
 49 50  1  0
 49 51  1  0
 49 48  1  0
 52 63  2  0
 53 51  1  0
 53 58  1  0
 54 62  1  0
 54 64  1  0
 55 61  1  0
 55 57  1  0
 56 62  1  0
 57 58  2  0
 57 56  1  0
 59 53  2  0
 60 59  1  0
 60 55  2  0
 61 54  1  0
 62 52  1  0
 64 66  2  0
 65 64  1  0
 67 65  1  0
 68 77  2  0
 68 73  1  0
 69 65  1  0
 69 73  1  0
 70 69  1  0
 71 72  1  0
 71 70  1  0
 72 68  1  0
 73 74  2  0
 74 75  1  0
 76 75  2  0
 77 76  1  0
 78 52  1  0
 78 79  1  0
 78 88  1  0
 79 82  1  0
 80 84  1  0
 80 79  1  0
 81 80  2  0
 84 83  1  0
 86 84  1  0
 86 87  1  0
 86 85  1  0
 88 91  1  1
 88 89  1  0
 90 88  1  0
M  ISO  4   5 100  13 100  49 101  51 101
M  END
>  <TORSDO>  (2) 
F 22

>  <SCORE>  (2) 
-14.067

>  <name>  (2) 
1

>  <ligand_id>  (2) 
1

>  <original_smiles>  (2) 
[H]c1c([H])c([H])c2c(c1[H])C([H])([H])C([H])([H])C([H])([H])C2([H])N([H])C(=O)C1([H])N(C(=O)C([H])(N([H])C(=O)C([H])(N([H])C([H])([H])[H])C([H])([H])[H])C(C([H])([H])[H])(C([H])([H])[H])C([H])([H])[H])C([H])([H])c2c([H])c(ON([H])C([H])([H])C([H])(C([H])([H])[H])C([H])([H])C([H])(N([H])C(=O)N3C([H])([H])C([H])([H])C([H])([H])C([H])(n4nc(-c5c([H])c([H])c(Oc6c([H])c([H])c(F)c([H])c6F)c([H])c5[H])c(C(=O)N([H])[H])c4N([H])[H])C3([H])[H])C([H])([H])C(C([H])([H])[H])(C([H])([H])[H])C([H])([H])[H])c([H])c([H])c2C1([H])[H]

>  <smiles>  (2) 
[H]c1c([H])c([H])c2c(c1[H])C([H])([H])C([H])([H])C([H])([H])C2([H])N([H])C(=O)C1([H])N(C(=O)C([H])(N([H])C(=O)C([H])(N([H])C([H])([H])[H])C([H])([H])[H])C(C([H])([H])[H])(C([H])([H])[H])C([H])([H])[H])C([H])([H])c2c([H])c(ON([H])C([H])([H])C([H])(C([H])([H])[H])C([H])([H])C([H])(N([H])C(=O)N3C([H])([H])C([H])([H])C([H])([H])C([H])(n4nc(-c5c([H])c([H])c(Oc6c([H])c([H])c(F)c([H])c6F)c([H])c5[H])c(C(=O)N([H])[H])c4N([H])[H])C3([H])[H])C([H])([H])C(C([H])([H])[H])(C([H])([H])[H])C([H])([H])[H])c([H])c([H])c2C1([H])[H]

$$$$
2:0:0
     RDKit          3D

 96103  0  0  1  0  0  0  0  0999 V2000
  -28.7660  -21.3660   20.1340 C   0  0  0  0  0  0  0  0  0  0  0  0
  -29.1130  -22.7040   20.0820 N   0  0  0  0  0  0  0  0  0  0  0  0
  -27.6080  -21.0230   19.9020 O   0  0  0  0  0  0  0  0  0  0  0  0
  -30.0950  -22.8870   20.2420 H   0  0  0  0  0  0  0  0  0  0  0  0
  -29.8180  -20.2310   20.5490 C   0  0  0  0  0  2  0  0  0  0  0  0
  -29.5560  -18.6480   20.2580 C   0  0  0  0  0  3  0  0  0  0  0  0
  -28.9080  -18.8770   17.7590 C   0  0  0  0  0  1  0  0  0  0  0  0
  -29.8530  -18.2330   18.7850 C   0  0  0  0  0  3  0  0  0  0  0  0
  -31.7680  -17.5610   17.1930 C   0  0  0  0  0  1  0  0  0  0  0  0
  -31.3310  -18.4350   18.3760 C   0  0  0  0  0  2  0  0  0  0  0  0
  -30.2440  -17.5590   21.2430 C   0  0  0  0  0  2  0  0  0  0  0  0
  -30.7350  -14.9770   20.9510 C   0  0  0  0  0  0  0  0  0  0  0  0
  -30.6790  -12.6670   20.0010 C   0  0  0  0  0  2  0  0  0  0  0  0
  -29.8510  -12.6740   18.6970 C   0  0  0  0  0  2  0  0  0  0  0  0
  -28.3520  -12.4720   19.0020 C   0  0  0  0  0  2  0  0  0  0  0  0
  -27.8480  -13.4010   20.1390 C   0  0  0  0  0  3  0  0  0  0  0  0
  -28.8040  -13.3830   21.3520 C   0  0  0  0  0  2  0  0  0  0  0  0
  -30.1430  -13.7400   20.8650 N   0  0  0  0  0  0  0  0  0  0  0  0
  -31.9430  -15.1090   20.7390 O   0  0  0  0  0  0  0  0  0  0  0  0
  -29.9130  -16.0770   21.0910 N   0  0  0  0  0  0  0  0  0  0  0  0
  -28.9350  -15.8460   21.1640 H   0  0  0  0  0  0  0  0  0  0  0  0
  -25.3980  -13.9630   20.6520 C   0  0  0  0  0  0  0  0  0  0  0  0
  -24.3180  -13.1780   20.9440 C   0  0  0  0  0  0  0  0  0  0  0  0
  -24.8030  -11.8350   20.9790 C   0  0  0  0  0  0  0  0  0  0  0  0
  -26.4730  -13.0980   20.5190 N   0  0  0  0  0  0  0  0  0  0  0  0
  -26.1150  -11.8140   20.7760 N   0  0  0  0  0  0  0  0  0  0  0  0
  -24.0820  -10.5650   21.1290 C   0  0  0  0  0  0  0  0  0  0  0  0
  -24.4670   -9.6070   22.0900 C   0  0  0  0  0  3  0  0  0  0  0  0
  -23.7480   -8.3990   22.2290 C   0  0  0  0  0  3  0  0  0  0  0  0
  -22.6270   -8.1410   21.4020 C   0  0  0  0  0  0  0  0  0  0  0  0
  -22.2630   -9.0900   20.4290 C   0  0  0  0  0  3  0  0  0  0  0  0
  -22.9830  -10.2860   20.2890 C   0  0  0  0  0  3  0  0  0  0  0  0
  -21.8830   -6.9880   21.4500 O   0  0  0  0  0  0  0  0  0  0  0  0
  -21.7900   -6.2390   22.5950 C   0  0  0  0  0  0  0  0  0  0  0  0
  -21.3060   -6.7830   23.8040 C   0  0  0  0  0  3  0  0  0  0  0  0
  -21.1590   -5.9570   24.9390 C   0  0  0  0  0  3  0  0  0  0  0  0
  -21.4890   -4.5910   24.8620 C   0  0  0  0  0  0  0  0  0  0  0  0
  -21.9660   -4.0470   23.6580 C   0  0  0  0  0  3  0  0  0  0  0  0
  -22.1140   -4.8680   22.5270 C   0  0  0  0  0  0  0  0  0  0  0  0
  -22.5550   -4.3350   21.3630 F   0  0  0  0  0  0  0  0  0  0  0  0
  -21.3410   -3.7980   25.9490 F   0  0  0  0  0  0  0  0  0  0  0  0
  -22.8930  -13.6330   21.0890 C   0  0  0  0  0  0  0  0  0  0  0  0
  -22.1090  -12.9440   21.9090 N   0  0  0  0  0  0  0  0  0  0  0  0
  -22.4840  -14.6380   20.5070 O   0  0  0  0  0  0  0  0  0  0  0  0
  -22.4520  -12.1260   22.3890 H   0  0  0  0  0  0  0  0  0  0  0  0
  -21.1500  -13.2280   22.0480 H   0  0  0  0  0  0  0  0  0  0  0  0
  -25.5540  -15.3330   20.4600 N   0  0  0  0  0  0  0  0  0  0  0  0
  -24.7690  -15.9740   20.4900 H   0  0  0  0  0  0  0  0  0  0  0  0
  -26.4130  -15.7690   20.1520 H   0  0  0  0  0  0  0  0  0  0  0  0
  -28.2290  -23.9590   20.0920 C   0  0  0  0  0  3  0  0  0  0  0  0
  -28.5010  -23.5020   22.6710 C   0  0  0  0  0  1  0  0  0  0  0  0
  -27.8680  -24.3670   21.5610 C   0  0  0  0  0  3  0  0  0  0  0  0
  -25.4600  -23.3560   21.4750 C   0  0  0  0  0  1  0  0  0  0  0  0
  -26.3510  -24.5670   21.8010 C   0  0  0  0  0  2  0  0  0  0  0  0
  -28.7250  -25.2330   19.2220 C   0  0  0  0  0  2  0  0  0  0  0  0
  -28.5890  -26.6560   19.6600 O   0  0  0  0  0  0  0  0  0  0  0  0
  -24.7290  -31.7200   23.0470 C   0  0  0  0  0  0  0  0  0  0  0  0
  -27.4080  -27.4250   19.6540 C   0  0  0  0  0  0  0  0  0  0  0  0
  -23.5280  -30.3950   21.3400 C   0  0  0  0  0  3  0  0  0  0  0  0
  -24.9880  -28.9700   19.7920 C   0  0  0  0  0  0  0  0  0  0  0  0
  -26.0490  -30.7970   21.1260 C   0  0  0  0  0  2  0  0  0  0  0  0
  -26.1550  -29.4580   20.3940 C   0  0  0  0  0  0  0  0  0  0  0  0
  -27.3590  -28.6970   20.3150 C   0  0  0  0  0  3  0  0  0  0  0  0
  -26.2160  -26.9840   19.0360 C   0  0  0  0  0  3  0  0  0  0  0  0
  -25.0220  -27.7410   19.1060 C   0  0  0  0  0  3  0  0  0  0  0  0
  -23.7290  -29.8070   19.9170 C   0  0  0  0  0  2  0  0  0  0  0  0
  -24.7880  -30.9850   21.8970 N   0  0  0  0  0  0  0  0  0  0  0  0
  -23.6510  -31.9340   23.6210 O   0  0  0  0  0  0  0  0  0  0  0  0
  -22.9110  -29.3070   22.2500 C   0  0  0  0  0  0  0  0  0  0  0  0
  -21.5870  -29.1090   22.1420 N   0  0  0  0  0  0  0  0  0  0  0  0
  -23.6220  -28.6450   23.0100 O   0  0  0  0  0  0  0  0  0  0  0  0
  -21.0730  -29.6990   21.5030 H   0  0  0  0  0  0  0  0  0  0  0  0
  -18.2420  -27.8280   22.6550 C   0  0  0  0  0  0  0  0  0  0  0  0
  -20.8040  -28.1050   22.8650 C   0  0  0  0  0  3  0  0  0  0  0  0
  -20.9060  -26.7230   22.1790 C   0  0  0  0  0  2  0  0  0  0  0  0
  -19.7770  -26.4600   21.1790 C   0  0  0  0  0  2  0  0  0  0  0  0
  -18.4150  -26.5360   21.8740 C   0  0  0  0  0  2  0  0  0  0  0  0
  -19.3640  -28.5740   23.1060 C   0  0  0  0  0  0  0  0  0  0  0  0
  -19.1480  -29.7850   23.7970 C   0  0  0  0  0  3  0  0  0  0  0  0
  -17.8440  -30.2530   24.0400 C   0  0  0  0  0  3  0  0  0  0  0  0
  -16.7360  -29.5040   23.6060 C   0  0  0  0  0  3  0  0  0  0  0  0
  -16.9370  -28.2930   22.9200 C   0  0  0  0  0  3  0  0  0  0  0  0
  -26.0080  -32.3450   23.6860 C   0  0  0  0  0  3  0  0  0  0  0  0
  -26.5830  -31.4950   24.8850 C   0  0  1  0  0  0  0  0  0  0  0  0
  -25.5310  -31.1450   25.9630 C   0  0  0  0  0  1  0  0  0  0  0  0
  -27.1890  -30.1700   24.3700 C   0  0  0  0  0  1  0  0  0  0  0  0
  -27.7320  -32.2670   25.5750 C   0  0  0  0  0  1  0  0  0  0  0  0
  -25.6670  -33.7020   24.1340 N   0  0  0  0  0  0  0  0  0  0  0  0
  -25.9530  -34.8230   23.4590 C   0  0  0  0  0  0  0  0  0  0  0  0
  -26.6040  -34.8240   22.4100 O   0  0  0  0  0  0  0  0  0  0  0  0
  -25.0860  -33.7740   24.9560 H   0  0  0  0  0  0  0  0  0  0  0  0
  -24.1640  -36.5830   23.2840 C   0  0  0  0  0  1  0  0  0  0  0  0
  -25.4340  -36.1540   24.0350 C   0  0  0  0  0  3  0  0  0  0  0  0
  -27.5610  -37.0360   24.8920 C   0  0  0  0  0  1  0  0  0  0  0  0
  -26.4320  -37.2450   23.9880 N   0  0  0  0  0  0  0  0  0  0  0  0
  -26.0040  -38.1360   24.2200 H   0  0  0  0  0  0  0  0  0  0  0  0
  1  5  1  0
  2 50  1  0
  2  1  1  0
  2  4  1  0
  3  1  2  0
  6  5  1  0
  6 11  1  0
  8  7  1  0
  8  6  1  0
  9 10  1  0
 10  8  1  0
 12 20  1  0
 13 18  1  0
 14 15  1  0
 14 13  1  0
 16 15  1  0
 16 25  1  0
 16 17  1  0
 18 12  1  0
 18 17  1  0
 19 12  2  0
 20 21  1  0
 20 11  1  0
 22 23  2  0
 23 24  1  0
 23 42  1  0
 24 27  1  0
 25 22  1  0
 25 26  1  0
 26 24  2  0
 27 28  1  0
 28 29  2  0
 30 33  1  0
 30 29  1  0
 31 30  2  0
 32 31  1  0
 32 27  2  0
 33 34  1  0
 34 35  1  0
 35 36  2  0
 37 36  1  0
 37 41  1  0
 38 37  2  0
 39 34  2  0
 39 38  1  0
 40 39  1  0
 42 43  1  0
 43 46  1  0
 43 45  1  0
 44 42  2  0
 47 48  1  0
 47 22  1  0
 49 47  1  0
 50 55  1  0
 50 52  1  0
 52 54  1  0
 52 51  1  0
 53 54  1  0
 55 56  1  0
 57 68  2  0
 58 56  1  0
 58 63  1  0
 59 67  1  0
 59 69  1  0
 60 66  1  0
 60 62  1  0
 61 67  1  0
 62 61  1  0
 63 62  2  0
 64 65  1  0
 64 58  2  0
 65 60  2  0
 66 59  1  0
 67 57  1  0
 69 71  2  0
 70 69  1  0
 72 70  1  0
 73 82  2  0
 73 78  1  0
 74 70  1  0
 74 78  1  0
 75 74  1  0
 76 77  1  0
 76 75  1  0
 77 73  1  0
 78 79  2  0
 79 80  1  0
 81 80  2  0
 82 81  1  0
 83 57  1  0
 83 88  1  0
 83 84  1  0
 84 87  1  1
 84 85  1  0
 86 84  1  0
 88 91  1  0
 89 93  1  0
 89 88  1  0
 90 89  2  0
 93 92  1  0
 95 93  1  0
 95 96  1  0
 95 94  1  0
M  ISO  4  12 100  20 100  55 101  56 101
M  END
>  <TORSDO>  (3) 
F 25

>  <SCORE>  (3) 
-11.612

>  <name>  (3) 
2

>  <ligand_id>  (3) 
2

>  <original_smiles>  (3) 
[H]c1c([H])c([H])c2c(c1[H])C([H])([H])C([H])([H])C([H])([H])C2([H])N([H])C(=O)C1([H])N(C(=O)C([H])(N([H])C(=O)C([H])(N([H])C([H])([H])[H])C([H])([H])[H])C(C([H])([H])[H])(C([H])([H])[H])C([H])([H])[H])C([H])([H])c2c([H])c(OC([H])([H])C([H])(N([H])C(=O)C([H])([H])C([H])(C([H])([H])N([H])C(=O)N3C([H])([H])C([H])([H])C([H])([H])C([H])(n4nc(-c5c([H])c([H])c(Oc6c([H])c([H])c(F)c([H])c6F)c([H])c5[H])c(C(=O)N([H])[H])c4N([H])[H])C3([H])[H])C([H])(C([H])([H])[H])C([H])([H])C([H])([H])[H])C([H])(C([H])([H])[H])C([H])([H])C([H])([H])[H])c([H])c([H])c2C1([H])[H]

>  <smiles>  (3) 
[H]c1c([H])c([H])c2c(c1[H])C([H])([H])C([H])([H])C([H])([H])C2([H])N([H])C(=O)C1([H])N(C(=O)C([H])(N([H])C(=O)C([H])(N([H])C([H])([H])[H])C([H])([H])[H])C(C([H])([H])[H])(C([H])([H])[H])C([H])([H])[H])C([H])([H])c2c([H])c(OC([H])([H])C([H])(N([H])C(=O)C([H])([H])C([H])(C([H])([H])N([H])C(=O)N3C([H])([H])C([H])([H])C([H])([H])C([H])(n4nc(-c5c([H])c([H])c(Oc6c([H])c([H])c(F)c([H])c6F)c([H])c5[H])c(C(=O)N([H])[H])c4N([H])[H])C3([H])[H])C([H])(C([H])([H])[H])C([H])([H])C([H])([H])[H])C([H])(C([H])([H])[H])C([H])([H])C([H])([H])[H])c([H])c([H])c2C1([H])[H]

$$$$
3:0:0
     RDKit          3D

 99107  0  0  1  0  0  0  0  0999 V2000
  -29.4000  -20.1180   20.5230 C   0  0  0  0  0  2  0  0  0  0  0  0
  -32.4190  -23.1420   19.3390 C   0  0  0  0  0  3  0  0  0  0  0  0
  -32.6610  -21.7700   19.3830 C   0  0  0  0  0  3  0  0  0  0  0  0
  -31.1570  -23.6290   19.7030 C   0  0  0  0  0  3  0  0  0  0  0  0
  -31.6280  -20.9070   19.7710 C   0  0  0  0  0  3  0  0  0  0  0  0
  -30.0590  -22.7930   20.0450 C   0  0  0  0  0  0  0  0  0  0  0  0
  -30.3110  -21.3290   20.0570 C   0  0  0  0  0  0  0  0  0  0  0  0
  -28.7900  -23.6500   20.4780 C   0  0  0  0  0  2  0  0  0  0  0  0
  -28.4300  -25.0290   19.6770 C   0  0  0  0  0  2  0  0  0  0  0  0
  -28.3620  -26.3920   20.3170 O   0  0  0  0  0  0  0  0  0  0  0  0
  -24.6450  -31.9080   23.2230 C   0  0  0  0  0  0  0  0  0  0  0  0
  -27.2390  -27.2530   20.2280 C   0  0  0  0  0  0  0  0  0  0  0  0
  -23.4390  -30.4840   21.6120 C   0  0  0  0  0  3  0  0  0  0  0  0
  -24.8830  -28.9090   20.2050 C   0  0  0  0  0  0  0  0  0  0  0  0
  -25.9840  -30.7810   21.4200 C   0  0  0  0  0  2  0  0  0  0  0  0
  -26.0580  -29.3900   20.7950 C   0  0  0  0  0  0  0  0  0  0  0  0
  -27.2340  -28.5730   20.7970 C   0  0  0  0  0  3  0  0  0  0  0  0
  -26.0280  -26.8370   19.6210 C   0  0  0  0  0  3  0  0  0  0  0  0
  -24.8730  -27.6400   19.6120 C   0  0  0  0  0  3  0  0  0  0  0  0
  -23.6510  -29.7930   20.2420 C   0  0  0  0  0  2  0  0  0  0  0  0
  -24.7110  -31.0780   22.1420 N   0  0  0  0  0  0  0  0  0  0  0  0
  -23.5590  -32.1970   23.7500 O   0  0  0  0  0  0  0  0  0  0  0  0
  -22.7780  -29.4810   22.5880 C   0  0  0  0  0  0  0  0  0  0  0  0
  -21.4530  -29.2970   22.4620 N   0  0  0  0  0  0  0  0  0  0  0  0
  -23.4570  -28.8730   23.4190 O   0  0  0  0  0  0  0  0  0  0  0  0
  -20.9670  -29.8390   21.7600 H   0  0  0  0  0  0  0  0  0  0  0  0
  -18.0750  -28.1060   22.9780 C   0  0  0  0  0  0  0  0  0  0  0  0
  -20.6330  -28.3720   23.2470 C   0  0  0  0  0  3  0  0  0  0  0  0
  -20.7370  -26.9320   22.6960 C   0  0  0  0  0  2  0  0  0  0  0  0
  -19.6370  -26.5900   21.6870 C   0  0  0  0  0  2  0  0  0  0  0  0
  -18.2540  -26.7450   22.3240 C   0  0  0  0  0  2  0  0  0  0  0  0
  -19.1920  -28.8760   23.3940 C   0  0  0  0  0  0  0  0  0  0  0  0
  -18.9700  -30.1490   23.9650 C   0  0  0  0  0  3  0  0  0  0  0  0
  -17.6650  -30.6500   24.1210 C   0  0  0  0  0  3  0  0  0  0  0  0
  -16.5620  -29.8770   23.7210 C   0  0  0  0  0  3  0  0  0  0  0  0
  -16.7670  -28.6060   23.1530 C   0  0  0  0  0  3  0  0  0  0  0  0
  -25.9260  -32.5530   23.8370 C   0  0  0  0  0  3  0  0  0  0  0  0
  -26.4630  -31.7790   25.1040 C   0  0  1  0  0  0  0  0  0  0  0  0
  -25.3800  -31.5090   26.1760 C   0  0  0  0  0  1  0  0  0  0  0  0
  -27.0680  -30.4170   24.6940 C   0  0  0  0  0  1  0  0  0  0  0  0
  -27.6030  -32.5880   25.7650 C   0  0  0  0  0  1  0  0  0  0  0  0
  -25.6010  -33.9440   24.1830 N   0  0  0  0  0  0  0  0  0  0  0  0
  -25.9080  -35.0080   23.4290 C   0  0  0  0  0  0  0  0  0  0  0  0
  -26.5630  -34.9230   22.3860 O   0  0  0  0  0  0  0  0  0  0  0  0
  -25.0170  -34.0840   24.9940 H   0  0  0  0  0  0  0  0  0  0  0  0
  -24.1530  -36.7840   23.1130 C   0  0  0  0  0  1  0  0  0  0  0  0
  -25.4090  -36.3870   23.9060 C   0  0  0  0  0  3  0  0  0  0  0  0
  -27.5390  -37.2910   24.7260 C   0  0  0  0  0  1  0  0  0  0  0  0
  -26.4260  -37.4540   23.7930 N   0  0  0  0  0  0  0  0  0  0  0  0
  -26.0110  -38.3690   23.9490 H   0  0  0  0  0  0  0  0  0  0  0  0
  -29.3170  -18.6080   19.8240 C   0  0  0  0  0  3  0  0  0  0  0  0
  -27.9560  -18.0040   20.2870 C   0  0  0  0  0  2  0  0  0  0  0  0
  -26.7770  -18.6200   19.6460 N   0  0  0  0  0  4  0  0  0  0  0  0
  -25.9390  -18.1580   19.9570 H   0  0  0  0  0  0  0  0  0  0  0  0
  -26.8230  -18.5430   18.6450 H   0  0  0  0  0  0  0  0  0  0  0  0
  -26.7000  -19.5920   19.8810 H   0  0  0  0  0  0  0  0  0  0  0  0
  -30.4980  -17.4430   19.9060 C   0  0  0  0  0  3  0  0  0  0  0  0
  -30.8440  -14.7890   20.2270 C   0  0  0  0  0  0  0  0  0  0  0  0
  -30.6030  -12.4820   19.3170 C   0  0  0  0  0  2  0  0  0  0  0  0
  -29.6730  -12.5210   18.0880 C   0  0  0  0  0  2  0  0  0  0  0  0
  -28.1960  -12.3800   18.5160 C   0  0  0  0  0  2  0  0  0  0  0  0
  -27.8270  -13.3090   19.7040 C   0  0  0  0  0  3  0  0  0  0  0  0
  -28.8870  -13.2770   20.8240 C   0  0  0  0  0  2  0  0  0  0  0  0
  -30.1800  -13.5870   20.2050 N   0  0  0  0  0  0  0  0  0  0  0  0
  -32.0600  -14.7970   20.0620 O   0  0  0  0  0  0  0  0  0  0  0  0
  -30.1010  -15.9660   20.1760 N   0  0  0  0  0  0  0  0  0  0  0  0
  -29.1110  -15.7930   20.2370 H   0  0  0  0  0  0  0  0  0  0  0  0
  -25.4600  -13.9280   20.4730 C   0  0  0  0  0  0  0  0  0  0  0  0
  -24.3870  -13.1680   20.8540 C   0  0  0  0  0  0  0  0  0  0  0  0
  -24.8290  -11.8100   20.8040 C   0  0  0  0  0  0  0  0  0  0  0  0
  -26.4860  -13.0340   20.2100 N   0  0  0  0  0  0  0  0  0  0  0  0
  -26.1150  -11.7540   20.4760 N   0  0  0  0  0  0  0  0  0  0  0  0
  -24.0860  -10.5570   20.9900 C   0  0  0  0  0  0  0  0  0  0  0  0
  -24.4980   -9.5850   21.9280 C   0  0  0  0  0  3  0  0  0  0  0  0
  -23.7560   -8.3980   22.1060 C   0  0  0  0  0  3  0  0  0  0  0  0
  -22.5840   -8.1750   21.3450 C   0  0  0  0  0  0  0  0  0  0  0  0
  -22.1890   -9.1360   20.3980 C   0  0  0  0  0  3  0  0  0  0  0  0
  -22.9320  -10.3140   20.2180 C   0  0  0  0  0  3  0  0  0  0  0  0
  -21.8130   -7.0390   21.4300 O   0  0  0  0  0  0  0  0  0  0  0  0
  -21.7340   -6.3060   22.5870 C   0  0  0  0  0  0  0  0  0  0  0  0
  -21.2710   -6.8710   23.7960 C   0  0  0  0  0  3  0  0  0  0  0  0
  -21.1410   -6.0650   24.9450 C   0  0  0  0  0  3  0  0  0  0  0  0
  -21.4630   -4.6960   24.8840 C   0  0  0  0  0  0  0  0  0  0  0  0
  -21.9190   -4.1320   23.6810 C   0  0  0  0  0  3  0  0  0  0  0  0
  -22.0490   -4.9330   22.5350 C   0  0  0  0  0  0  0  0  0  0  0  0
  -22.4680   -4.3780   21.3710 F   0  0  0  0  0  0  0  0  0  0  0  0
  -21.3350   -3.9200   25.9870 F   0  0  0  0  0  0  0  0  0  0  0  0
  -22.9990  -13.6630   21.1360 C   0  0  0  0  0  0  0  0  0  0  0  0
  -22.2630  -12.9790   22.0040 N   0  0  0  0  0  0  0  0  0  0  0  0
  -22.5770  -14.6950   20.6160 O   0  0  0  0  0  0  0  0  0  0  0  0
  -22.6160  -12.1420   22.4460 H   0  0  0  0  0  0  0  0  0  0  0  0
  -21.3300  -13.2940   22.2260 H   0  0  0  0  0  0  0  0  0  0  0  0
  -25.6360  -15.2960   20.2850 N   0  0  0  0  0  0  0  0  0  0  0  0
  -24.7660  -15.8160   20.2630 H   0  0  0  0  0  0  0  0  0  0  0  0
  -26.2390  -15.5420   19.5140 H   0  0  0  0  0  0  0  0  0  0  0  0
  -31.3050  -17.4810   18.5580 C   0  0  0  0  0  2  0  0  0  0  0  0
  -33.4160  -17.9120   17.2120 C   0  0  0  0  0  1  0  0  0  0  0  0
  -33.5970  -18.1100   19.7150 C   0  0  0  0  0  1  0  0  0  0  0  0
  -32.8630  -17.4070   18.5540 C   0  0  0  0  0  3  0  0  0  0  0  0
  2  3  2  0
  2  4  1  0
  3  5  1  0
  4  6  2  0
  5  7  2  0
  6  7  1  0
  6  8  1  0
  7  1  1  0
  9 10  1  0
  9  8  1  0
 11 22  2  0
 12 10  1  0
 12 17  1  0
 13 21  1  0
 13 23  1  0
 14 20  1  0
 14 16  1  0
 15 21  1  0
 16 17  2  0
 16 15  1  0
 18 12  2  0
 19 18  1  0
 19 14  2  0
 20 13  1  0
 21 11  1  0
 23 25  2  0
 24 23  1  0
 26 24  1  0
 27 36  2  0
 27 32  1  0
 28 24  1  0
 28 32  1  0
 29 28  1  0
 30 31  1  0
 30 29  1  0
 31 27  1  0
 32 33  2  0
 33 34  1  0
 35 34  2  0
 36 35  1  0
 37 11  1  0
 37 42  1  0
 37 38  1  0
 38 41  1  1
 38 39  1  0
 40 38  1  0
 42 45  1  0
 43 47  1  0
 43 42  1  0
 44 43  2  0
 47 46  1  0
 49 47  1  0
 49 50  1  0
 49 48  1  0
 51 57  1  0
 51 52  1  0
 51  1  1  0
 53 56  1  0
 53 54  1  0
 53 52  1  0
 55 53  1  0
 57 96  1  0
 57 66  1  0
 59 64  1  0
 60 61  1  0
 60 59  1  0
 62 61  1  0
 62 71  1  0
 62 63  1  0
 64 58  1  0
 64 63  1  0
 65 58  2  0
 66 58  1  0
 66 67  1  0
 68 69  2  0
 69 88  1  0
 70 69  1  0
 70 73  1  0
 71 68  1  0
 71 72  1  0
 72 70  2  0
 73 74  1  0
 74 75  2  0
 76 79  1  0
 76 75  1  0
 77 76  2  0
 78 77  1  0
 78 73  2  0
 79 80  1  0
 80 81  1  0
 81 82  2  0
 83 82  1  0
 83 87  1  0
 84 83  2  0
 85 80  2  0
 85 84  1  0
 86 85  1  0
 88 89  1  0
 89 92  1  0
 89 91  1  0
 90 88  2  0
 93 68  1  0
 94 93  1  0
 95 93  1  0
 97 99  1  0
 99 96  1  0
 99 98  1  0
M  ISO  4   9 101  10 101  58 100  66 100
M  END
>  <TORSDO>  (4) 
F 25

>  <SCORE>  (4) 
-12.705

>  <name>  (4) 
3

>  <ligand_id>  (4) 
3

>  <original_smiles>  (4) 
[H]c1c([H])c([H])c(C([H])([H])C([H])(C([H])(N([H])C(=O)N2C([H])([H])C([H])([H])C([H])([H])C([H])(n3nc(-c4c([H])c([H])c(Oc5c([H])c([H])c(F)c([H])c5F)c([H])c4[H])c(C(=O)N([H])[H])c3N([H])[H])C2([H])[H])C([H])([H])C([H])(C([H])([H])[H])C([H])([H])[H])C([H])([H])[N+]([H])([H])[H])c(C([H])([H])C([H])([H])Oc2c([H])c([H])c3c(c2[H])C([H])([H])N(C(=O)C([H])(N([H])C(=O)C([H])(N([H])C([H])([H])[H])C([H])([H])[H])C(C([H])([H])[H])(C([H])([H])[H])C([H])([H])[H])C([H])(C(=O)N([H])C2([H])c4c([H])c([H])c([H])c([H])c4C([H])([H])C([H])([H])C2([H])[H])C3([H])[H])c1[H]

>  <smiles>  (4) 
[H]c1c([H])c([H])c(C([H])([H])C([H])(C([H])(N([H])C(=O)N2C([H])([H])C([H])([H])C([H])([H])C([H])(n3nc(-c4c([H])c([H])c(Oc5c([H])c([H])c(F)c([H])c5F)c([H])c4[H])c(C(=O)N([H])[H])c3N([H])[H])C2([H])[H])C([H])([H])C([H])(C([H])([H])[H])C([H])([H])[H])C([H])([H])[N+]([H])([H])[H])c(C([H])([H])C([H])([H])Oc2c([H])c([H])c3c(c2[H])C([H])([H])N(C(=O)C([H])(N([H])C(=O)C([H])(N([H])C([H])([H])[H])C([H])([H])[H])C(C([H])([H])[H])(C([H])([H])[H])C([H])([H])[H])C([H])(C(=O)N([H])C2([H])c4c([H])c([H])c([H])c([H])c4C([H])([H])C([H])([H])C2([H])[H])C3([H])[H])c1[H]

$$$$
4:0:0
     RDKit          3D

103110  0  0  1  0  0  0  0  0999 V2000
  -31.2140  -19.5480   17.2880 C   0  0  0  0  0  3  0  0  0  0  0  0
  -29.8170  -19.4500   17.7580 N   0  0  0  0  0  4  0  0  0  0  0  0
  -29.5880  -18.4960   17.9670 H   0  0  0  0  0  0  0  0  0  0  0  0
  -29.1840  -19.7790   17.0510 H   0  0  0  0  0  0  0  0  0  0  0  0
  -29.6540  -20.0160   18.5750 H   0  0  0  0  0  0  0  0  0  0  0  0
  -32.2710  -19.2840   18.4200 C   0  0  0  0  0  3  0  0  0  0  0  0
  -32.4000  -20.1150   20.8400 C   0  0  0  0  0  0  0  0  0  0  0  0
  -31.7670  -21.1320   23.0090 C   0  0  0  0  0  2  0  0  0  0  0  0
  -30.2590  -20.9170   23.2670 C   0  0  0  0  0  2  0  0  0  0  0  0
  -29.4000  -21.9930   22.5670 C   0  0  0  0  0  2  0  0  0  0  0  0
  -29.8030  -22.2040   21.0840 C   0  0  0  0  0  3  0  0  0  0  0  0
  -31.3330  -22.3910   20.9760 C   0  0  0  0  0  2  0  0  0  0  0  0
  -31.9770  -21.1920   21.5530 N   0  0  0  0  0  0  0  0  0  0  0  0
  -32.8540  -19.0860   21.3440 O   0  0  0  0  0  0  0  0  0  0  0  0
  -32.1560  -20.2450   19.5260 N   0  0  0  0  0  0  0  0  0  0  0  0
  -31.8680  -21.1790   19.2730 H   0  0  0  0  0  0  0  0  0  0  0  0
  -29.0480  -23.7410   19.1560 C   0  0  0  0  0  0  0  0  0  0  0  0
  -28.1530  -24.7760   19.1180 C   0  0  0  0  0  0  0  0  0  0  0  0
  -27.6550  -24.9190   20.4480 C   0  0  0  0  0  0  0  0  0  0  0  0
  -29.0680  -23.3110   20.4770 N   0  0  0  0  0  0  0  0  0  0  0  0
  -28.2600  -24.0640   21.2620 N   0  0  0  0  0  0  0  0  0  0  0  0
  -26.5950  -25.7780   20.9920 C   0  0  0  0  0  0  0  0  0  0  0  0
  -26.7660  -27.1750   21.1030 C   0  0  0  0  0  3  0  0  0  0  0  0
  -25.7290  -27.9870   21.6090 C   0  0  0  0  0  3  0  0  0  0  0  0
  -24.5040  -27.4000   22.0070 C   0  0  0  0  0  0  0  0  0  0  0  0
  -24.3430  -26.0050   21.9140 C   0  0  0  0  0  3  0  0  0  0  0  0
  -25.3810  -25.2000   21.4160 C   0  0  0  0  0  3  0  0  0  0  0  0
  -23.4470  -28.1030   22.5350 O   0  0  0  0  0  0  0  0  0  0  0  0
  -22.1510  -27.8050   22.2060 C   0  0  0  0  0  0  0  0  0  0  0  0
  -21.2330  -27.3100   23.1600 C   0  0  0  0  0  3  0  0  0  0  0  0
  -19.8890  -27.0870   22.7980 C   0  0  0  0  0  3  0  0  0  0  0  0
  -19.4580  -27.3590   21.4840 C   0  0  0  0  0  0  0  0  0  0  0  0
  -20.3710  -27.8530   20.5320 C   0  0  0  0  0  3  0  0  0  0  0  0
  -21.7090  -28.0800   20.8950 C   0  0  0  0  0  0  0  0  0  0  0  0
  -22.5770  -28.5770   19.9830 F   0  0  0  0  0  0  0  0  0  0  0  0
  -18.1680  -27.1490   21.1330 F   0  0  0  0  0  0  0  0  0  0  0  0
  -27.6900  -25.5210   17.8960 C   0  0  0  0  0  0  0  0  0  0  0  0
  -26.8920  -24.8830   17.0500 N   0  0  0  0  0  0  0  0  0  0  0  0
  -27.9940  -26.6990   17.7150 O   0  0  0  0  0  0  0  0  0  0  0  0
  -26.6160  -23.9250   17.2080 H   0  0  0  0  0  0  0  0  0  0  0  0
  -26.5550  -25.3600   16.2240 H   0  0  0  0  0  0  0  0  0  0  0  0
  -29.8170  -23.1040   18.1820 N   0  0  0  0  0  0  0  0  0  0  0  0
  -29.6630  -23.5500   17.2830 H   0  0  0  0  0  0  0  0  0  0  0  0
  -29.5140  -22.1420   18.0980 H   0  0  0  0  0  0  0  0  0  0  0  0
  -33.7310  -19.3780   17.8960 C   0  0  0  0  0  2  0  0  0  0  0  0
  -34.5430  -18.0600   17.8220 C   0  0  0  0  0  2  0  0  0  0  0  0
  -35.6910  -18.1230   16.7870 C   0  0  0  0  0  2  0  0  0  0  0  0
  -35.7020  -19.4190   15.9510 C   0  0  0  0  0  2  0  0  0  0  0  0
  -36.6350  -19.3360   14.8130 N   0  0  0  0  0  4  0  0  0  0  0  0
  -37.5770  -19.1810   15.1260 H   0  0  0  0  0  0  0  0  0  0  0  0
  -36.6200  -20.1920   14.2890 H   0  0  0  0  0  0  0  0  0  0  0  0
  -36.3710  -18.5890   14.1930 H   0  0  0  0  0  0  0  0  0  0  0  0
  -31.4270  -18.7040   16.0100 C   0  0  0  0  0  2  0  0  0  0  0  0
  -31.7330  -19.5870   14.7760 C   0  0  0  0  0  2  0  0  0  0  0  0
  -31.7620  -21.0930   15.0790 C   0  0  0  0  0  2  0  0  0  0  0  0
  -31.8720  -21.9730   13.8130 C   0  0  0  0  0  2  0  0  0  0  0  0
  -33.1700  -21.8250   13.1150 N   0  0  0  0  0  4  0  0  0  0  0  0
  -33.0560  -21.1270   12.3980 H   0  0  0  0  0  0  0  0  0  0  0  0
  -33.8670  -21.4900   13.7620 H   0  0  0  0  0  0  0  0  0  0  0  0
  -33.6700  -23.0720   12.4910 C   0  0  0  0  0  2  0  0  0  0  0  0
  -34.6950  -22.8010   11.3720 C   0  0  0  0  0  2  0  0  0  0  0  0
  -35.6430  -21.6310   11.6820 C   0  0  0  0  0  2  0  0  0  0  0  0
  -36.1970  -21.8030   12.9830 O   0  0  0  0  0  0  0  0  0  0  0  0
  -37.3490  -28.4720   15.1810 C   0  0  0  0  0  0  0  0  0  0  0  0
  -37.0770  -22.8500   13.0850 C   0  0  0  0  0  0  0  0  0  0  0  0
  -39.1000  -27.4890   13.7360 C   0  0  0  0  0  3  0  0  0  0  0  0
  -38.9010  -24.9840   13.3040 C   0  0  0  0  0  0  0  0  0  0  0  0
  -37.6360  -25.9970   15.2110 C   0  0  0  0  0  2  0  0  0  0  0  0
  -37.8000  -24.9120   14.1690 C   0  0  0  0  0  0  0  0  0  0  0  0
  -36.8800  -23.8490   14.0600 C   0  0  0  0  0  3  0  0  0  0  0  0
  -38.1710  -22.9420   12.2020 C   0  0  0  0  0  3  0  0  0  0  0  0
  -39.0890  -24.0040   12.3120 C   0  0  0  0  0  3  0  0  0  0  0  0
  -39.8460  -26.1470   13.4980 C   0  0  0  0  0  2  0  0  0  0  0  0
  -37.9750  -27.3530   14.7180 N   0  0  0  0  0  0  0  0  0  0  0  0
  -37.7180  -29.6030   14.8370 O   0  0  0  0  0  0  0  0  0  0  0  0
  -38.6520  -28.0540   12.3690 C   0  0  0  0  0  0  0  0  0  0  0  0
  -38.3310  -29.3580   12.3380 N   0  0  0  0  0  0  0  0  0  0  0  0
  -38.6280  -27.3380   11.3650 O   0  0  0  0  0  0  0  0  0  0  0  0
  -38.3670  -29.8720   13.2060 H   0  0  0  0  0  0  0  0  0  0  0  0
  -35.7700  -31.5490   11.0380 C   0  0  0  0  0  0  0  0  0  0  0  0
  -37.9170  -30.1140   11.1560 C   0  0  0  0  0  3  0  0  0  0  0  0
  -38.6920  -31.4480   11.0500 C   0  0  0  0  0  2  0  0  0  0  0  0
  -37.9620  -32.6240   11.7040 C   0  0  0  0  0  2  0  0  0  0  0  0
  -36.5880  -32.8290   11.0610 C   0  0  0  0  0  2  0  0  0  0  0  0
  -36.3940  -30.2740   11.0980 C   0  0  0  0  0  0  0  0  0  0  0  0
  -35.5860  -29.1170   11.1080 C   0  0  0  0  0  3  0  0  0  0  0  0
  -34.1830  -29.2170   11.0550 C   0  0  0  0  0  3  0  0  0  0  0  0
  -33.5720  -30.4800   10.9790 C   0  0  0  0  0  3  0  0  0  0  0  0
  -34.3640  -31.6410   10.9670 C   0  0  0  0  0  3  0  0  0  0  0  0
  -36.1560  -28.3830   16.1860 C   0  0  0  0  0  3  0  0  0  0  0  0
  -36.7200  -28.1880   17.5270 N   0  0  0  0  0  0  0  0  0  0  0  0
  -37.8890  -28.6930   17.9410 C   0  0  0  0  0  0  0  0  0  0  0  0
  -38.6470  -29.3230   17.1970 O   0  0  0  0  0  0  0  0  0  0  0  0
  -36.1270  -27.7290   18.2040 H   0  0  0  0  0  0  0  0  0  0  0  0
  -38.7960  -27.0300   19.5930 C   0  0  0  0  0  1  0  0  0  0  0  0
  -38.2780  -28.4660   19.4130 C   0  0  0  0  0  3  0  0  0  0  0  0
  -37.1110  -30.1060   20.8190 C   0  0  0  0  0  1  0  0  0  0  0  0
  -37.1730  -28.7200   20.3610 N   0  0  0  0  0  0  0  0  0  0  0  0
  -37.2530  -28.1200   21.1780 H   0  0  0  0  0  0  0  0  0  0  0  0
  -35.2210  -29.6530   16.1530 C   0  0  1  0  0  0  0  0  0  0  0  0
  -35.8610  -30.9130   16.7820 C   0  0  0  0  0  1  0  0  0  0  0  0
  -34.8210  -30.0000   14.7010 C   0  0  0  0  0  1  0  0  0  0  0  0
  -33.9080  -29.3580   16.9160 C   0  0  0  0  0  1  0  0  0  0  0  0
  1 53  1  0
  1  2  1  0
  1  6  1  0
  2  3  1  0
  2  5  1  0
  4  2  1  0
  6 45  1  0
  6 15  1  0
  7 14  2  0
  7 13  1  0
  8  9  1  0
 10  9  1  0
 11 20  1  0
 11 10  1  0
 12 11  1  0
 12 13  1  0
 13  8  1  0
 15  7  1  0
 16 15  1  0
 17 20  1  0
 18 17  2  0
 18 19  1  0
 19 22  1  0
 19 21  2  0
 20 21  1  0
 22 23  2  0
 22 27  1  0
 23 24  1  0
 24 25  2  0
 25 28  1  0
 26 25  1  0
 27 26  2  0
 29 28  1  0
 29 30  1  0
 31 30  2  0
 32 31  1  0
 33 34  1  0
 33 32  2  0
 34 29  2  0
 35 34  1  0
 36 32  1  0
 37 18  1  0
 38 40  1  0
 38 37  1  0
 39 37  2  0
 41 38  1  0
 42 17  1  0
 43 42  1  0
 44 42  1  0
 46 45  1  0
 47 46  1  0
 48 47  1  0
 49 50  1  0
 49 48  1  0
 51 49  1  0
 52 49  1  0
 54 55  1  0
 54 53  1  0
 56 55  1  0
 57 59  1  0
 57 56  1  0
 58 57  1  0
 60 57  1  0
 61 62  1  0
 61 60  1  0
 62 63  1  0
 63 65  1  0
 65 70  1  0
 66 76  1  0
 66 74  1  0
 67 73  1  0
 67 69  1  0
 69 68  1  0
 70 69  2  0
 71 72  1  0
 71 65  2  0
 72 67  2  0
 73 66  1  0
 74 64  1  0
 74 68  1  0
 75 64  2  0
 77 76  1  0
 77 79  1  0
 78 76  2  0
 80 84  1  0
 80 85  1  0
 81 77  1  0
 82 81  1  0
 82 83  1  0
 84 83  1  0
 85 86  2  0
 85 81  1  0
 87 86  1  0
 88 87  2  0
 89 88  1  0
 89 80  2  0
 90 64  1  0
 90 91  1  0
 91 92  1  0
 91 94  1  0
 92 96  1  0
 93 92  2  0
 96 95  1  0
 96 98  1  0
 98 97  1  0
 98 99  1  0
100 90  1  0
100101  1  1
100103  1  0
102100  1  0
M  ISO  4   7 100  15 100  62 101  63 101
M  END
>  <TORSDO>  (5) 
F 31

>  <SCORE>  (5) 
-2.914

>  <name>  (5) 
4

>  <ligand_id>  (5) 
4

>  <original_smiles>  (5) 
[H]c1c([H])c([H])c2c(c1[H])C([H])([H])C([H])([H])C([H])([H])C2([H])N([H])C(=O)C1([H])N(C(=O)C([H])(N([H])C(=O)C([H])(N([H])C([H])([H])[H])C([H])([H])[H])C(C([H])([H])[H])(C([H])([H])[H])C([H])([H])[H])C([H])([H])c2c([H])c(OC([H])([H])C([H])([H])C([H])([H])[N+]([H])([H])C([H])([H])C([H])([H])C([H])([H])C([H])([H])C([H])(C([H])(N([H])C(=O)N3C([H])([H])C([H])([H])C([H])([H])C([H])(n4nc(-c5c([H])c([H])c(Oc6c([H])c([H])c(F)c([H])c6F)c([H])c5[H])c(C(=O)N([H])[H])c4N([H])[H])C3([H])[H])C([H])([H])C([H])([H])C([H])([H])C([H])([H])[N+]([H])([H])[H])[N+]([H])([H])[H])c([H])c([H])c2C1([H])[H]

>  <smiles>  (5) 
[H]c1c([H])c([H])c2c(c1[H])C([H])([H])C([H])([H])C([H])([H])C2([H])N([H])C(=O)C1([H])N(C(=O)C([H])(N([H])C(=O)C([H])(N([H])C([H])([H])[H])C([H])([H])[H])C(C([H])([H])[H])(C([H])([H])[H])C([H])([H])[H])C([H])([H])c2c([H])c(OC([H])([H])C([H])([H])C([H])([H])[N+]([H])([H])C([H])([H])C([H])([H])C([H])([H])C([H])([H])C([H])(C([H])(N([H])C(=O)N3C([H])([H])C([H])([H])C([H])([H])C([H])(n4nc(-c5c([H])c([H])c(Oc6c([H])c([H])c(F)c([H])c6F)c([H])c5[H])c(C(=O)N([H])[H])c4N([H])[H])C3([H])[H])C([H])([H])C([H])([H])C([H])([H])C([H])([H])[N+]([H])([H])[H])[N+]([H])([H])[H])c([H])c([H])c2C1([H])[H]

$$$$
5:0:0
     RDKit          3D

 95104  0  0  1  0  0  0  0  0999 V2000
  -28.9940  -23.4700   20.1160 C   0  0  0  0  0  3  0  0  0  0  0  0
  -30.0960  -19.3990   19.2020 C   0  0  0  0  0  2  0  0  0  0  0  0
  -28.6430  -19.2580   21.0720 C   0  0  0  0  0  2  0  0  0  0  0  0
  -30.1060  -21.0540   19.4120 C   0  0  0  0  0  2  0  0  0  0  0  0
  -28.5880  -20.9210   21.1900 C   0  0  0  0  0  2  0  0  0  0  0  0
  -29.8720  -18.3900   20.4400 C   0  0  0  0  0  3  0  0  0  0  0  0
  -28.8890  -21.8180   19.9810 N   0  0  1  0  0  4  0  0  0  0  0  0
  -28.1540  -21.6650   19.3070 H   0  0  0  0  0  0  0  0  0  0  0  0
  -30.4990  -15.5190   20.0830 C   0  0  0  0  0  0  0  0  0  0  0  0
  -30.4710  -13.0800   19.2160 C   0  0  0  0  0  2  0  0  0  0  0  0
  -29.5100  -12.8910   18.0150 C   0  0  0  0  0  2  0  0  0  0  0  0
  -28.0770  -12.5930   18.4920 C   0  0  0  0  0  2  0  0  0  0  0  0
  -27.6460  -13.5380   19.6410 C   0  0  0  0  0  3  0  0  0  0  0  0
  -28.7360  -13.7050   20.7290 C   0  0  0  0  0  2  0  0  0  0  0  0
  -29.9520  -14.2090   20.0660 N   0  0  0  0  0  0  0  0  0  0  0  0
  -31.6880  -15.5730   19.7400 O   0  0  0  0  0  0  0  0  0  0  0  0
  -29.7170  -16.7400   20.3050 N   0  0  0  0  0  0  0  0  0  0  0  0
  -28.7760  -16.4660   20.5500 H   0  0  0  0  0  0  0  0  0  0  0  0
  -25.2960  -14.0320   20.5190 C   0  0  0  0  0  0  0  0  0  0  0  0
  -24.2660  -13.2330   20.9210 C   0  0  0  0  0  0  0  0  0  0  0  0
  -24.7500  -11.8890   20.8270 C   0  0  0  0  0  0  0  0  0  0  0  0
  -26.3430  -13.1840   20.2010 N   0  0  0  0  0  0  0  0  0  0  0  0
  -26.0260  -11.8870   20.4500 N   0  0  0  0  0  0  0  0  0  0  0  0
  -24.0500  -10.6130   21.0140 C   0  0  0  0  0  0  0  0  0  0  0  0
  -24.5210   -9.6340   21.9160 C   0  0  0  0  0  3  0  0  0  0  0  0
  -23.8160   -8.4250   22.0980 C   0  0  0  0  0  3  0  0  0  0  0  0
  -22.6200   -8.1840   21.3800 C   0  0  0  0  0  0  0  0  0  0  0  0
  -22.1680   -9.1520   20.4650 C   0  0  0  0  0  3  0  0  0  0  0  0
  -22.8760  -10.3520   20.2790 C   0  0  0  0  0  3  0  0  0  0  0  0
  -21.8810   -7.0280   21.4700 O   0  0  0  0  0  0  0  0  0  0  0  0
  -21.8390   -6.2870   22.6260 C   0  0  0  0  0  0  0  0  0  0  0  0
  -21.3870   -6.8380   23.8450 C   0  0  0  0  0  3  0  0  0  0  0  0
  -21.2930   -6.0250   24.9930 C   0  0  0  0  0  3  0  0  0  0  0  0
  -21.6430   -4.6640   24.9220 C   0  0  0  0  0  0  0  0  0  0  0  0
  -22.0910   -4.1140   23.7090 C   0  0  0  0  0  3  0  0  0  0  0  0
  -22.1860   -4.9220   22.5640 C   0  0  0  0  0  0  0  0  0  0  0  0
  -22.5960   -4.3800   21.3910 F   0  0  0  0  0  0  0  0  0  0  0  0
  -21.5480   -3.8810   26.0250 F   0  0  0  0  0  0  0  0  0  0  0  0
  -22.8730  -13.6760   21.2710 C   0  0  0  0  0  0  0  0  0  0  0  0
  -22.2040  -12.9590   22.1640 N   0  0  0  0  0  0  0  0  0  0  0  0
  -22.3930  -14.7000   20.7850 O   0  0  0  0  0  0  0  0  0  0  0  0
  -22.6110  -12.1340   22.5820 H   0  0  0  0  0  0  0  0  0  0  0  0
  -21.2630  -13.2240   22.4230 H   0  0  0  0  0  0  0  0  0  0  0  0
  -25.4300  -15.4110   20.3640 N   0  0  0  0  0  0  0  0  0  0  0  0
  -24.6600  -16.0500   20.5230 H   0  0  0  0  0  0  0  0  0  0  0  0
  -26.2320  -15.8700   19.9540 H   0  0  0  0  0  0  0  0  0  0  0  0
  -29.7070  -23.9580   21.4210 C   0  0  0  0  0  2  0  0  0  0  0  0
  -27.9550  -27.4830   23.4880 C   0  0  0  0  0  2  0  0  0  0  0  0
  -29.3070  -26.9600   23.9760 C   0  0  0  0  0  2  0  0  0  0  0  0
  -26.9990  -26.3080   23.3140 C   0  0  0  0  0  2  0  0  0  0  0  0
  -29.9030  -25.9500   22.9760 C   0  0  0  0  0  2  0  0  0  0  0  0
  -27.5670  -25.3510   22.2630 C   0  0  0  0  0  2  0  0  0  0  0  0
  -28.9760  -24.7690   22.5660 C   0  0  0  0  0  3  0  0  0  0  0  0
  -27.9530  -24.7280   19.5220 C   0  0  0  0  0  2  0  0  0  0  0  0
  -28.1940  -26.3070   19.5580 O   0  0  0  0  0  0  0  0  0  0  0  0
  -24.6900  -31.8700   23.0920 C   0  0  0  0  0  0  0  0  0  0  0  0
  -27.1370  -27.3090   19.6510 C   0  0  0  0  0  0  0  0  0  0  0  0
  -23.4290  -30.5650   21.4240 C   0  0  0  0  0  3  0  0  0  0  0  0
  -24.8150  -29.0770   19.8490 C   0  0  0  0  0  0  0  0  0  0  0  0
  -25.9770  -30.8370   21.1650 C   0  0  0  0  0  2  0  0  0  0  0  0
  -26.0220  -29.4770   20.4360 C   0  0  0  0  0  0  0  0  0  0  0  0
  -27.1830  -28.6100   20.3200 C   0  0  0  0  0  3  0  0  0  0  0  0
  -25.8930  -27.0200   19.0510 C   0  0  0  0  0  3  0  0  0  0  0  0
  -24.7660  -27.8670   19.1430 C   0  0  0  0  0  3  0  0  0  0  0  0
  -23.5950  -29.9750   19.9980 C   0  0  0  0  0  2  0  0  0  0  0  0
  -24.7220  -31.1120   21.9480 N   0  0  0  0  0  0  0  0  0  0  0  0
  -23.6240  -32.1130   23.6770 O   0  0  0  0  0  0  0  0  0  0  0  0
  -22.7890  -29.5000   22.3530 C   0  0  0  0  0  0  0  0  0  0  0  0
  -21.4550  -29.3330   22.2740 N   0  0  0  0  0  0  0  0  0  0  0  0
  -23.4960  -28.8320   23.1100 O   0  0  0  0  0  0  0  0  0  0  0  0
  -20.9420  -29.9420   21.6520 H   0  0  0  0  0  0  0  0  0  0  0  0
  -18.1040  -28.0480   22.8090 C   0  0  0  0  0  0  0  0  0  0  0  0
  -20.6670  -28.3400   23.0140 C   0  0  0  0  0  3  0  0  0  0  0  0
  -20.7710  -26.9420   22.3610 C   0  0  0  0  0  2  0  0  0  0  0  0
  -19.6440  -26.6540   21.3640 C   0  0  0  0  0  2  0  0  0  0  0  0
  -18.2810  -26.7390   22.0560 C   0  0  0  0  0  2  0  0  0  0  0  0
  -19.2230  -28.8060   23.2440 C   0  0  0  0  0  0  0  0  0  0  0  0
  -19.0030  -30.0300   23.9140 C   0  0  0  0  0  3  0  0  0  0  0  0
  -17.6960  -30.4970   24.1480 C   0  0  0  0  0  3  0  0  0  0  0  0
  -16.5900  -29.7360   23.7250 C   0  0  0  0  0  3  0  0  0  0  0  0
  -16.7970  -28.5120   23.0640 C   0  0  0  0  0  3  0  0  0  0  0  0
  -25.9850  -32.4810   23.7060 C   0  0  0  0  0  3  0  0  0  0  0  0
  -26.5310  -31.6560   24.9350 C   0  0  1  0  0  0  0  0  0  0  0  0
  -25.4740  -31.3950   26.0350 C   0  0  0  0  0  1  0  0  0  0  0  0
  -27.0800  -30.2880   24.4730 C   0  0  0  0  0  1  0  0  0  0  0  0
  -27.7150  -32.4080   25.5870 C   0  0  0  0  0  1  0  0  0  0  0  0
  -25.6840  -33.8650   24.1110 N   0  0  0  0  0  0  0  0  0  0  0  0
  -26.0220  -34.9610   23.4170 C   0  0  0  0  0  0  0  0  0  0  0  0
  -26.6830  -34.9090   22.3770 O   0  0  0  0  0  0  0  0  0  0  0  0
  -25.1020  -33.9750   24.9280 H   0  0  0  0  0  0  0  0  0  0  0  0
  -24.3140  -36.7990   23.1830 C   0  0  0  0  0  1  0  0  0  0  0  0
  -25.5550  -36.3290   23.9580 C   0  0  0  0  0  3  0  0  0  0  0  0
  -27.7060  -37.1460   24.8170 C   0  0  0  0  0  1  0  0  0  0  0  0
  -26.6000  -37.3760   23.8940 N   0  0  0  0  0  0  0  0  0  0  0  0
  -26.2070  -38.2920   24.0920 H   0  0  0  0  0  0  0  0  0  0  0  0
  1 54  1  0
  1 47  1  0
  2  4  1  0
  2  6  1  0
  3  5  1  0
  4  7  1  0
  6 17  1  0
  6  3  1  0
  7  1  1  0
  7  5  1  0
  7  8  1  6
  9 17  1  0
 10 15  1  0
 11 12  1  0
 11 10  1  0
 13 12  1  0
 13 22  1  0
 13 14  1  0
 15  9  1  0
 15 14  1  0
 16  9  2  0
 17 18  1  0
 19 20  2  0
 20 39  1  0
 21 20  1  0
 21 24  1  0
 22 23  1  0
 22 19  1  0
 23 21  2  0
 24 25  1  0
 25 26  2  0
 27 30  1  0
 27 26  1  0
 28 27  2  0
 29 28  1  0
 29 24  2  0
 30 31  1  0
 31 32  1  0
 32 33  2  0
 34 33  1  0
 34 38  1  0
 35 34  2  0
 36 31  2  0
 36 35  1  0
 37 36  1  0
 39 40  1  0
 40 43  1  0
 40 42  1  0
 41 39  2  0
 44 19  1  0
 44 45  1  0
 46 44  1  0
 47 53  1  0
 48 49  1  0
 50 48  1  0
 51 49  1  0
 52 53  1  0
 52 50  1  0
 53 51  1  0
 54 55  1  0
 55 57  1  0
 56 67  2  0
 57 62  1  0
 58 66  1  0
 58 68  1  0
 59 65  1  0
 59 61  1  0
 60 66  1  0
 61 60  1  0
 62 61  2  0
 63 64  1  0
 63 57  2  0
 64 59  2  0
 65 58  1  0
 66 56  1  0
 68 70  2  0
 69 68  1  0
 71 69  1  0
 72 81  2  0
 72 77  1  0
 73 69  1  0
 73 77  1  0
 74 73  1  0
 75 76  1  0
 75 74  1  0
 76 72  1  0
 77 78  2  0
 78 79  1  0
 80 79  2  0
 81 80  1  0
 82 56  1  0
 82 87  1  0
 82 83  1  0
 83 86  1  1
 83 84  1  0
 85 83  1  0
 87 90  1  0
 88 92  1  0
 88 87  1  0
 89 88  2  0
 92 91  1  0
 94 92  1  0
 94 95  1  0
 94 93  1  0
M  ISO  4   9 100  17 100  54 101  55 101
M  END
>  <TORSDO>  (6) 
F 20

>  <SCORE>  (6) 
-13.875

>  <name>  (6) 
5

>  <ligand_id>  (6) 
5

>  <original_smiles>  (6) 
[H]c1c([H])c([H])c2c(c1[H])C([H])([H])C([H])([H])C([H])([H])C2([H])N([H])C(=O)C1([H])N(C(=O)C([H])(N([H])C(=O)C([H])(N([H])C([H])([H])[H])C([H])([H])[H])C(C([H])([H])[H])(C([H])([H])[H])C([H])([H])[H])C([H])([H])c2c([H])c(OC([H])([H])C([H])(C([H])([H])C3([H])C([H])([H])C([H])([H])C([H])([H])C([H])([H])C3([H])[H])[N+]3([H])C([H])([H])C([H])([H])C([H])(N([H])C(=O)N4C([H])([H])C([H])([H])C([H])([H])C([H])(n5nc(-c6c([H])c([H])c(Oc7c([H])c([H])c(F)c([H])c7F)c([H])c6[H])c(C(=O)N([H])[H])c5N([H])[H])C4([H])[H])C([H])([H])C3([H])[H])c([H])c([H])c2C1([H])[H]

>  <smiles>  (6) 
[H]c1c([H])c([H])c2c(c1[H])C([H])([H])C([H])([H])C([H])([H])C2([H])N([H])C(=O)C1([H])N(C(=O)C([H])(N([H])C(=O)C([H])(N([H])C([H])([H])[H])C([H])([H])[H])C(C([H])([H])[H])(C([H])([H])[H])C([H])([H])[H])C([H])([H])c2c([H])c(OC([H])([H])C([H])(C([H])([H])C3([H])C([H])([H])C([H])([H])C([H])([H])C([H])([H])C3([H])[H])[N+]3([H])C([H])([H])C([H])([H])C([H])(N([H])C(=O)N4C([H])([H])C([H])([H])C([H])([H])C([H])(n5nc(-c6c([H])c([H])c(Oc7c([H])c([H])c(F)c([H])c7F)c([H])c6[H])c(C(=O)N([H])[H])c5N([H])[H])C4([H])[H])C([H])([H])C3([H])[H])c([H])c([H])c2C1([H])[H]

$$$$
6:0:0
     RDKit          3D

 90 97  0  0  1  0  0  0  0  0999 V2000
  -30.2870  -23.5190   19.1400 C   0  0  0  0  0  1  0  0  0  0  0  0
  -29.1890  -23.1690   21.3240 C   0  0  0  0  0  1  0  0  0  0  0  0
  -28.9400  -23.1540   19.8030 C   0  0  2  0  0  0  0  0  0  0  0  0
  -28.7570  -21.3800   17.8060 C   0  0  0  0  0  1  0  0  0  0  0  0
  -28.5880  -21.4670   19.3440 C   0  0  2  0  0  0  0  0  0  0  0  0
  -25.9790  -21.9430   19.0130 C   0  0  0  0  0  1  0  0  0  0  0  0
  -27.1060  -21.1360   19.6920 C   0  0  0  0  0  2  0  0  0  0  0  0
  -29.4460  -20.0310   19.8930 C   0  0  0  0  0  2  0  0  0  0  0  0
  -29.2070  -18.2900   19.6500 C   0  0  0  0  0  2  0  0  0  0  0  0
  -31.3230  -17.4830   18.5530 C   0  0  0  0  0  1  0  0  0  0  0  0
  -31.2120  -17.5190   21.0340 C   0  0  0  0  0  1  0  0  0  0  0  0
  -30.4440  -17.0570   19.7700 C   0  0  1  0  0  0  0  0  0  0  0  0
  -30.6590  -15.3040   19.7410 C   0  0  0  0  0  0  0  0  0  0  0  0
  -30.3560  -12.8720   18.9750 C   0  0  0  0  0  2  0  0  0  0  0  0
  -29.3880  -12.6950   17.7880 C   0  0  0  0  0  2  0  0  0  0  0  0
  -27.9680  -12.4630   18.3160 C   0  0  0  0  0  2  0  0  0  0  0  0
  -27.5940  -13.4610   19.4420 C   0  0  0  0  0  3  0  0  0  0  0  0
  -28.7070  -13.6870   20.4900 C   0  0  0  0  0  2  0  0  0  0  0  0
  -29.9270  -14.0880   19.7700 N   0  0  0  0  0  0  0  0  0  0  0  0
  -31.8460  -15.0300   19.5170 O   0  0  0  0  0  0  0  0  0  0  0  0
  -25.3030  -14.0140   20.4090 C   0  0  0  0  0  0  0  0  0  0  0  0
  -24.2620  -13.2390   20.8280 C   0  0  0  0  0  0  0  0  0  0  0  0
  -24.7020  -11.8820   20.7140 C   0  0  0  0  0  0  0  0  0  0  0  0
  -26.3110  -13.1380   20.0530 N   0  0  0  0  0  0  0  0  0  0  0  0
  -25.9680  -11.8450   20.3050 N   0  0  0  0  0  0  0  0  0  0  0  0
  -23.9680  -10.6230   20.9120 C   0  0  0  0  0  0  0  0  0  0  0  0
  -24.4260   -9.6310   21.8060 C   0  0  0  0  0  3  0  0  0  0  0  0
  -23.6890   -8.4420   21.9950 C   0  0  0  0  0  3  0  0  0  0  0  0
  -22.4790   -8.2380   21.2910 C   0  0  0  0  0  0  0  0  0  0  0  0
  -22.0400   -9.2160   20.3800 C   0  0  0  0  0  3  0  0  0  0  0  0
  -22.7770  -10.3970   20.1910 C   0  0  0  0  0  3  0  0  0  0  0  0
  -21.7100   -7.1040   21.3910 O   0  0  0  0  0  0  0  0  0  0  0  0
  -21.6930   -6.3440   22.5330 C   0  0  0  0  0  0  0  0  0  0  0  0
  -21.2930   -6.8790   23.7780 C   0  0  0  0  0  3  0  0  0  0  0  0
  -21.2240   -6.0450   24.9130 C   0  0  0  0  0  3  0  0  0  0  0  0
  -21.5460   -4.6790   24.8050 C   0  0  0  0  0  0  0  0  0  0  0  0
  -21.9390   -4.1440   23.5660 C   0  0  0  0  0  3  0  0  0  0  0  0
  -22.0090   -4.9750   22.4330 C   0  0  0  0  0  0  0  0  0  0  0  0
  -22.3670   -4.4490   21.2370 F   0  0  0  0  0  0  0  0  0  0  0  0
  -21.4720   -3.8760   25.8930 F   0  0  0  0  0  0  0  0  0  0  0  0
  -22.8960  -13.7180   21.2190 C   0  0  0  0  0  0  0  0  0  0  0  0
  -22.2270  -12.9970   22.1090 N   0  0  0  0  0  0  0  0  0  0  0  0
  -22.4360  -14.7690   20.7690 O   0  0  0  0  0  0  0  0  0  0  0  0
  -22.6200  -12.1470   22.4900 H   0  0  0  0  0  0  0  0  0  0  0  0
  -21.3090  -13.2870   22.4100 H   0  0  0  0  0  0  0  0  0  0  0  0
  -25.4790  -15.3890   20.2670 N   0  0  0  0  0  0  0  0  0  0  0  0
  -24.7430  -16.0580   20.4620 H   0  0  0  0  0  0  0  0  0  0  0  0
  -26.3220  -15.8190   19.9080 H   0  0  0  0  0  0  0  0  0  0  0  0
  -27.9950  -24.5940   19.4860 C   0  0  0  0  0  2  0  0  0  0  0  0
  -28.2310  -26.1330   19.8750 O   0  0  0  0  0  0  0  0  0  0  0  0
  -24.5140  -31.7400   23.1250 C   0  0  0  0  0  0  0  0  0  0  0  0
  -27.1820  -27.1560   19.8670 C   0  0  0  0  0  0  0  0  0  0  0  0
  -23.3450  -30.3790   21.4420 C   0  0  0  0  0  3  0  0  0  0  0  0
  -24.8230  -28.9000   19.9310 C   0  0  0  0  0  0  0  0  0  0  0  0
  -25.8960  -30.6930   21.2790 C   0  0  0  0  0  2  0  0  0  0  0  0
  -26.0010  -29.3270   20.5590 C   0  0  0  0  0  0  0  0  0  0  0  0
  -27.1770  -28.4730   20.5140 C   0  0  0  0  0  3  0  0  0  0  0  0
  -25.9750  -26.8570   19.2000 C   0  0  0  0  0  3  0  0  0  0  0  0
  -24.8280  -27.6820   19.2340 C   0  0  0  0  0  3  0  0  0  0  0  0
  -23.5780  -29.7740   20.0310 C   0  0  0  0  0  2  0  0  0  0  0  0
  -24.6070  -30.9570   22.0050 N   0  0  0  0  0  0  0  0  0  0  0  0
  -23.4220  -31.9750   23.6640 O   0  0  0  0  0  0  0  0  0  0  0  0
  -22.7020  -29.3120   22.3630 C   0  0  0  0  0  0  0  0  0  0  0  0
  -21.3820  -29.0900   22.2200 N   0  0  0  0  0  0  0  0  0  0  0  0
  -23.3930  -28.6870   23.1720 O   0  0  0  0  0  0  0  0  0  0  0  0
  -20.8790  -29.6560   21.5530 H   0  0  0  0  0  0  0  0  0  0  0  0
  -18.0550  -27.7110   22.6430 C   0  0  0  0  0  0  0  0  0  0  0  0
  -20.5950  -28.0920   22.9500 C   0  0  0  0  0  3  0  0  0  0  0  0
  -20.7720  -26.6820   22.3390 C   0  0  0  0  0  2  0  0  0  0  0  0
  -19.7000  -26.3350   21.3010 C   0  0  0  0  0  2  0  0  0  0  0  0
  -18.3060  -26.3930   21.9300 C   0  0  0  0  0  2  0  0  0  0  0  0
  -19.1290  -28.5170   23.1060 C   0  0  0  0  0  0  0  0  0  0  0  0
  -18.8390  -29.7490   23.7330 C   0  0  0  0  0  3  0  0  0  0  0  0
  -17.5080  -30.1760   23.8960 C   0  0  0  0  0  3  0  0  0  0  0  0
  -16.4490  -29.3700   23.4460 C   0  0  0  0  0  3  0  0  0  0  0  0
  -16.7230  -28.1380   22.8260 C   0  0  0  0  0  3  0  0  0  0  0  0
  -25.7730  -32.3910   23.7700 C   0  0  0  0  0  3  0  0  0  0  0  0
  -25.4290  -33.7750   24.1360 N   0  0  0  0  0  0  0  0  0  0  0  0
  -25.7230  -34.8570   23.4020 C   0  0  0  0  0  0  0  0  0  0  0  0
  -26.3790  -34.7940   22.3580 O   0  0  0  0  0  0  0  0  0  0  0  0
  -24.8470  -33.8950   24.9520 H   0  0  0  0  0  0  0  0  0  0  0  0
  -23.9390  -36.6090   23.1330 C   0  0  0  0  0  1  0  0  0  0  0  0
  -25.2130  -36.2260   23.9010 C   0  0  0  0  0  3  0  0  0  0  0  0
  -27.3430  -37.1570   24.6970 C   0  0  0  0  0  1  0  0  0  0  0  0
  -26.2150  -37.3090   23.7800 N   0  0  0  0  0  0  0  0  0  0  0  0
  -25.7920  -38.2170   23.9510 H   0  0  0  0  0  0  0  0  0  0  0  0
  -26.2920  -31.6060   25.0360 C   0  0  1  0  0  0  0  0  0  0  0  0
  -25.1930  -31.3200   26.0890 C   0  0  0  0  0  1  0  0  0  0  0  0
  -26.9080  -30.2500   24.6260 C   0  0  0  0  0  1  0  0  0  0  0  0
  -27.4250  -32.4120   25.7170 C   0  0  0  0  0  1  0  0  0  0  0  0
  3  1  1  6
  3  2  1  0
  5  4  1  6
  5  7  1  0
  5  3  1  0
  5  8  1  0
  6  7  1  0
  9 12  1  0
  9  8  1  0
 12 10  1  6
 12 11  1  0
 13 12  1  0
 13 19  1  0
 14 19  1  0
 15 16  1  0
 15 14  1  0
 17 16  1  0
 17 24  1  0
 17 18  1  0
 19 18  1  0
 20 13  2  0
 21 22  2  0
 22 41  1  0
 23 22  1  0
 23 26  1  0
 24 25  1  0
 24 21  1  0
 25 23  2  0
 26 27  1  0
 27 28  2  0
 29 32  1  0
 29 28  1  0
 30 29  2  0
 31 30  1  0
 31 26  2  0
 32 33  1  0
 33 34  1  0
 34 35  2  0
 36 35  1  0
 36 40  1  0
 37 36  2  0
 38 33  2  0
 38 37  1  0
 39 38  1  0
 41 42  1  0
 42 45  1  0
 42 44  1  0
 43 41  2  0
 46 21  1  0
 46 47  1  0
 48 46  1  0
 49  3  1  0
 49 50  1  0
 51 62  2  0
 52 50  1  0
 52 57  1  0
 53 61  1  0
 53 63  1  0
 54 60  1  0
 54 56  1  0
 55 61  1  0
 56 55  1  0
 57 56  2  0
 58 59  1  0
 58 52  2  0
 59 54  2  0
 60 53  1  0
 61 51  1  0
 63 65  2  0
 64 63  1  0
 66 64  1  0
 67 76  2  0
 67 72  1  0
 68 64  1  0
 68 72  1  0
 69 68  1  0
 70 71  1  0
 70 69  1  0
 71 67  1  0
 72 73  2  0
 73 74  1  0
 75 74  2  0
 76 75  1  0
 77 51  1  0
 77 78  1  0
 77 87  1  0
 78 81  1  0
 79 83  1  0
 79 78  1  0
 80 79  2  0
 83 82  1  0
 85 83  1  0
 85 86  1  0
 85 84  1  0
 87 90  1  1
 87 88  1  0
 89 87  1  0
M  ISO  4  12 100  13 100  49 101  50 101
M  END
>  <TORSDO>  (7) 
F 22

>  <SCORE>  (7) 
-15.084

>  <name>  (7) 
6

>  <ligand_id>  (7) 
6

>  <original_smiles>  (7) 
[H]c1c([H])c([H])c2c(c1[H])C([H])([H])C([H])([H])C([H])([H])C2([H])N([H])C(=O)C1([H])N(C(=O)C([H])(N([H])C(=O)C([H])(N([H])C([H])([H])[H])C([H])([H])[H])C(C([H])([H])[H])(C([H])([H])[H])C([H])([H])[H])C([H])([H])c2c([H])c(OC([H])([H])C(C([H])([H])[H])(C([H])([H])[H])C(C([H])([H])[H])(C([H])([H])C([H])([H])[H])C([H])([H])C([H])([H])C(C(=O)N3C([H])([H])C([H])([H])C([H])([H])C([H])(n4nc(-c5c([H])c([H])c(Oc6c([H])c([H])c(F)c([H])c6F)c([H])c5[H])c(C(=O)N([H])[H])c4N([H])[H])C3([H])[H])(C([H])([H])[H])C([H])([H])[H])c([H])c([H])c2C1([H])[H]

>  <smiles>  (7) 
[H]c1c([H])c([H])c2c(c1[H])C([H])([H])C([H])([H])C([H])([H])C2([H])N([H])C(=O)C1([H])N(C(=O)C([H])(N([H])C(=O)C([H])(N([H])C([H])([H])[H])C([H])([H])[H])C(C([H])([H])[H])(C([H])([H])[H])C([H])([H])[H])C([H])([H])c2c([H])c(OC([H])([H])C(C([H])([H])[H])(C([H])([H])[H])C(C([H])([H])[H])(C([H])([H])C([H])([H])[H])C([H])([H])C([H])([H])C(C(=O)N3C([H])([H])C([H])([H])C([H])([H])C([H])(n4nc(-c5c([H])c([H])c(Oc6c([H])c([H])c(F)c([H])c6F)c([H])c5[H])c(C(=O)N([H])[H])c4N([H])[H])C3([H])[H])(C([H])([H])[H])C([H])([H])[H])c([H])c([H])c2C1([H])[H]

$$$$
7:0:0
     RDKit          3D

 94100  0  0  1  0  0  0  0  0999 V2000
  -25.4300  -16.9480   19.7020 C   0  0  0  0  0  0  0  0  0  0  0  0
  -26.3830  -17.9710   19.3250 N   0  0  0  0  0  0  0  0  0  0  0  0
  -24.4510  -17.3690   20.3210 O   0  0  0  0  0  0  0  0  0  0  0  0
  -27.1680  -17.5690   18.8320 H   0  0  0  0  0  0  0  0  0  0  0  0
  -26.3470  -19.5940   19.1140 C   0  0  0  0  0  3  0  0  0  0  0  0
  -27.2550  -20.9010   19.8410 C   0  0  0  0  0  3  0  0  0  0  0  0
  -27.3670  -22.6050   19.4130 C   0  0  0  0  0  3  0  0  0  0  0  0
  -27.8510  -23.9960   20.3520 C   0  0  0  0  0  3  0  0  0  0  0  0
  -28.3390  -25.5080   20.0750 O   0  0  0  0  0  0  0  0  0  0  0  0
  -25.0290  -31.4540   23.1820 C   0  0  0  0  0  0  0  0  0  0  0  0
  -27.4700  -26.6610   20.0830 C   0  0  0  0  0  0  0  0  0  0  0  0
  -23.8770  -30.1410   21.4590 C   0  0  0  0  0  3  0  0  0  0  0  0
  -25.3180  -28.5910   20.0220 C   0  0  0  0  0  0  0  0  0  0  0  0
  -26.4460  -30.3090   21.4170 C   0  0  0  0  0  2  0  0  0  0  0  0
  -26.4910  -28.9330   20.7090 C   0  0  0  0  0  0  0  0  0  0  0  0
  -27.5880  -27.9760   20.7240 C   0  0  0  0  0  3  0  0  0  0  0  0
  -26.2990  -26.4590   19.3570 C   0  0  0  0  0  3  0  0  0  0  0  0
  -25.2450  -27.3780   19.3290 C   0  0  0  0  0  3  0  0  0  0  0  0
  -24.1370  -29.5410   20.0590 C   0  0  0  0  0  2  0  0  0  0  0  0
  -25.1400  -30.6570   22.0740 N   0  0  0  0  0  0  0  0  0  0  0  0
  -23.9220  -31.7470   23.6630 O   0  0  0  0  0  0  0  0  0  0  0  0
  -23.1370  -29.1040   22.3440 C   0  0  0  0  0  0  0  0  0  0  0  0
  -21.8040  -29.0050   22.1940 N   0  0  0  0  0  0  0  0  0  0  0  0
  -23.7650  -28.3980   23.1370 O   0  0  0  0  0  0  0  0  0  0  0  0
  -21.3570  -29.6300   21.5370 H   0  0  0  0  0  0  0  0  0  0  0  0
  -18.3570  -27.9630   22.6160 C   0  0  0  0  0  0  0  0  0  0  0  0
  -20.9260  -28.0660   22.9000 C   0  0  0  0  0  3  0  0  0  0  0  0
  -20.9520  -26.6710   22.2330 C   0  0  0  0  0  2  0  0  0  0  0  0
  -19.8370  -26.4730   21.2020 C   0  0  0  0  0  2  0  0  0  0  0  0
  -18.4620  -26.6530   21.8530 C   0  0  0  0  0  2  0  0  0  0  0  0
  -19.5150  -28.6350   23.0920 C   0  0  0  0  0  0  0  0  0  0  0  0
  -19.3630  -29.8630   23.7710 C   0  0  0  0  0  3  0  0  0  0  0  0
  -18.0870  -30.4220   23.9710 C   0  0  0  0  0  3  0  0  0  0  0  0
  -16.9430  -29.7470   23.5100 C   0  0  0  0  0  3  0  0  0  0  0  0
  -17.0790  -28.5180   22.8390 C   0  0  0  0  0  3  0  0  0  0  0  0
  -26.2820  -32.0470   23.8920 C   0  0  0  0  0  3  0  0  0  0  0  0
  -26.7460  -31.2030   25.1450 C   0  0  1  0  0  0  0  0  0  0  0  0
  -25.6160  -30.9200   26.1650 C   0  0  0  0  0  1  0  0  0  0  0  0
  -27.3310  -29.8450   24.7010 C   0  0  0  0  0  1  0  0  0  0  0  0
  -27.8800  -31.9460   25.8880 C   0  0  0  0  0  1  0  0  0  0  0  0
  -25.9550  -33.4240   24.3070 N   0  0  0  0  0  0  0  0  0  0  0  0
  -26.3220  -34.5310   23.6460 C   0  0  0  0  0  0  0  0  0  0  0  0
  -27.0390  -34.4970   22.6420 O   0  0  0  0  0  0  0  0  0  0  0  0
  -25.3290  -33.5250   25.0940 H   0  0  0  0  0  0  0  0  0  0  0  0
  -24.6190  -36.3580   23.3400 C   0  0  0  0  0  1  0  0  0  0  0  0
  -25.8150  -35.8870   24.1820 C   0  0  0  0  0  3  0  0  0  0  0  0
  -27.9100  -36.6870   25.1810 C   0  0  0  0  0  1  0  0  0  0  0  0
  -26.8560  -36.9370   24.2010 N   0  0  0  0  0  0  0  0  0  0  0  0
  -26.4500  -37.8480   24.3950 H   0  0  0  0  0  0  0  0  0  0  0  0
  -25.3590  -15.2630   19.3050 C   0  0  0  0  0  3  0  0  0  0  0  0
  -24.0330  -14.7770   18.6500 C   0  0  0  0  0  2  0  0  0  0  0  0
  -22.7960  -15.6300   18.3280 C   0  0  0  0  0  2  0  0  0  0  0  0
  -20.3020  -15.4120   17.7510 C   0  0  0  0  0  1  0  0  0  0  0  0
  -21.7600  -13.3770   17.4930 C   0  0  0  0  0  1  0  0  0  0  0  0
  -21.5450  -14.6950   18.2820 C   0  0  0  0  0  3  0  0  0  0  0  0
  -25.9170  -13.7410   20.0460 C   0  0  0  0  0  2  0  0  0  0  0  0
  -28.9800  -14.6010   20.7870 C   0  0  0  0  0  0  0  0  0  0  0  0
  -30.4190  -12.7370   20.0830 C   0  0  0  0  0  2  0  0  0  0  0  0
  -29.4840  -12.3050   18.9510 C   0  0  0  0  0  2  0  0  0  0  0  0
  -28.3380  -11.5110   19.6500 C   0  0  0  0  0  2  0  0  0  0  0  0
  -27.9290  -12.0970   21.1140 C   0  0  0  0  0  3  0  0  0  0  0  0
  -28.9480  -12.6190   22.0040 C   0  0  0  0  0  2  0  0  0  0  0  0
  -29.5810  -13.4380   21.0760 N   0  0  0  0  0  0  0  0  0  0  0  0
  -29.9090  -15.4480   20.7810 O   0  0  0  0  0  0  0  0  0  0  0  0
  -27.4730  -14.6550   20.4070 N   0  0  0  0  0  0  0  0  0  0  0  0
  -27.2650  -15.6390   20.3370 H   0  0  0  0  0  0  0  0  0  0  0  0
  -25.1680  -13.7960   22.0400 C   0  0  0  0  0  2  0  0  0  0  0  0
  -23.8620  -13.0650   21.1630 C   0  0  0  0  0  3  0  0  0  0  0  0
  -24.3370  -11.5310   20.4680 C   0  0  0  0  0  3  0  0  0  0  0  0
  -26.6740  -12.4460   21.6490 N   0  0  0  0  0  2  0  0  0  0  0  0
  -25.8980  -11.2960   20.6450 N   0  0  0  0  0  2  0  0  0  0  0  0
  -23.7630  -10.1400   21.0080 C   0  0  0  0  0  0  0  0  0  0  0  0
  -24.2790   -9.2970   22.0870 C   0  0  0  0  0  3  0  0  0  0  0  0
  -23.7480   -7.9970   22.4270 C   0  0  0  0  0  3  0  0  0  0  0  0
  -22.6250   -7.4870   21.7210 C   0  0  0  0  0  0  0  0  0  0  0  0
  -22.0780   -8.3320   20.7360 C   0  0  0  0  0  3  0  0  0  0  0  0
  -22.6120   -9.6000   20.4070 C   0  0  0  0  0  3  0  0  0  0  0  0
  -22.0670   -6.2160   21.8190 O   0  0  0  0  0  0  0  0  0  0  0  0
  -21.9650   -5.4730   22.9750 C   0  0  0  0  0  0  0  0  0  0  0  0
  -21.3420   -5.9800   24.1350 C   0  0  0  0  0  3  0  0  0  0  0  0
  -21.1760   -5.1600   25.2690 C   0  0  0  0  0  3  0  0  0  0  0  0
  -21.6160   -3.8210   25.2500 C   0  0  0  0  0  0  0  0  0  0  0  0
  -22.2150   -3.3020   24.0880 C   0  0  0  0  0  3  0  0  0  0  0  0
  -22.3790   -4.1190   22.9550 C   0  0  0  0  0  0  0  0  0  0  0  0
  -22.9240   -3.5880   21.8310 F   0  0  0  0  0  0  0  0  0  0  0  0
  -21.4670   -3.0320   26.3430 F   0  0  0  0  0  0  0  0  0  0  0  0
  -22.4080  -13.1740   21.5040 C   0  0  0  0  0  0  0  0  0  0  0  0
  -21.8780  -12.2780   22.3430 N   0  0  0  0  0  0  0  0  0  0  0  0
  -21.7250  -14.0250   20.9640 O   0  0  0  0  0  0  0  0  0  0  0  0
  -22.4420  -11.5610   22.7790 H   0  0  0  0  0  0  0  0  0  0  0  0
  -20.8940  -12.3320   22.5650 H   0  0  0  0  0  0  0  0  0  0  0  0
  -25.2920  -15.1390   22.2160 N   0  0  0  0  0  0  0  0  0  0  0  0
  -24.5140  -15.7920   22.2030 H   0  0  0  0  0  0  0  0  0  0  0  0
  -26.1390  -15.5320   22.6080 H   0  0  0  0  0  0  0  0  0  0  0  0
  1  3  2  0
  2  1  1  0
  4  2  1  0
  5  2  1  0
  5  6  2  0
  7  6  1  0
  7  8  2  0
  9 11  1  0
  9  8  1  0
 10 21  2  0
 11 16  1  0
 12 20  1  0
 12 22  1  0
 13 19  1  0
 13 15  1  0
 14 20  1  0
 15 16  2  0
 15 14  1  0
 17 11  2  0
 18 17  1  0
 18 13  2  0
 19 12  1  0
 20 10  1  0
 22 24  2  0
 23 22  1  0
 25 23  1  0
 26 35  2  0
 26 31  1  0
 27 23  1  0
 27 31  1  0
 28 27  1  0
 29 30  1  0
 29 28  1  0
 30 26  1  0
 31 32  2  0
 32 33  1  0
 34 33  2  0
 35 34  1  0
 36 10  1  0
 36 41  1  0
 36 37  1  0
 37 40  1  1
 37 38  1  0
 39 37  1  0
 41 44  1  0
 42 46  1  0
 42 41  1  0
 43 42  2  0
 46 45  1  0
 46 48  1  0
 48 49  1  0
 48 47  1  0
 50 51  1  0
 50  1  1  0
 50 56  1  0
 52 51  1  0
 53 55  1  0
 54 55  1  0
 55 52  1  0
 56 65  1  0
 57 63  1  0
 58 63  1  0
 59 60  1  0
 59 58  1  0
 60 61  1  0
 61 70  1  0
 61 62  1  0
 63 62  1  0
 64 57  2  0
 65 57  1  0
 66 65  1  0
 67 92  1  0
 68 87  1  0
 68 67  1  0
 69 71  1  0
 69 72  1  0
 69 68  1  0
 71 70  1  0
 72 73  1  0
 73 74  2  0
 75 78  1  0
 75 74  1  0
 76 75  2  0
 77 76  1  0
 77 72  2  0
 78 79  1  0
 79 80  1  0
 80 81  2  0
 82 81  1  0
 82 86  1  0
 83 82  2  0
 84 79  2  0
 84 83  1  0
 85 84  1  0
 87 88  1  0
 88 91  1  0
 88 90  1  0
 89 87  2  0
 92 94  1  0
 93 92  1  0
M  ISO  4   8 101   9 101  57 100  65 100
M  END
>  <TORSDO>  (8) 
F 25

>  <SCORE>  (8) 
4.226

>  <name>  (8) 
7

>  <ligand_id>  (8) 
7

>  <original_smiles>  (8) 
[H]c1c([H])c([H])c2c(c1[H])C([H])([H])C([H])([H])C([H])([H])C2([H])N([H])C(=O)C1([H])N(C(=O)C([H])(N([H])C(=O)C([H])(N([H])C([H])([H])[H])C([H])([H])[H])C(C([H])([H])[H])(C([H])([H])[H])C([H])([H])[H])C([H])([H])c2c([H])c(OC([H])([H])C([H])([H])C([H])([H])C([H])([H])N([H])C(=O)C([H])(C([H])([H])N([H])C(=O)N3C([H])([H])C([H])([H])C([H])([H])C([H])(n4nc(-c5c([H])c([H])c(Oc6c([H])c([H])c(F)c([H])c6F)c([H])c5[H])c(C(=O)N([H])[H])c4N([H])[H])C3([H])[H])C([H])([H])C([H])([H])C([H])(C([H])([H])[H])C([H])([H])[H])c([H])c([H])c2C1([H])[H]

>  <smiles>  (8) 
[H]c1c([H])c([H])c2c(c1[H])C([H])([H])C([H])([H])C([H])([H])C2([H])N([H])C(=O)C1([H])N(C(=O)C([H])(N([H])C(=O)C([H])(N([H])C([H])([H])[H])C([H])([H])[H])C(C([H])([H])[H])(C([H])([H])[H])C([H])([H])[H])C([H])([H])c2c([H])c(OC([H])([H])C([H])([H])C([H])([H])C([H])([H])N([H])C(=O)C([H])(C([H])([H])N([H])C(=O)N3C([H])([H])C([H])([H])C([H])([H])C([H])(n4nc(-c5c([H])c([H])c(Oc6c([H])c([H])c(F)c([H])c6F)c([H])c5[H])c(C(=O)N([H])[H])c4N([H])[H])C3([H])[H])C([H])([H])C([H])([H])C([H])(C([H])([H])[H])C([H])([H])[H])c([H])c([H])c2C1([H])[H]

$$$$
8:0:0
     RDKit          3D

 93100  0  0  1  0  0  0  0  0999 V2000
  -29.4800  -20.3410   19.4580 C   0  0  0  0  0  2  0  0  0  0  0  0
  -29.6430  -21.8880   19.7770 N   0  0  0  0  0  4  0  0  0  0  0  0
  -29.6480  -21.9680   20.7790 H   0  0  0  0  0  0  0  0  0  0  0  0
  -30.5850  -22.1130   19.4880 H   0  0  0  0  0  0  0  0  0  0  0  0
  -28.7140  -23.0560   19.2010 C   0  0  0  0  0  2  0  0  0  0  0  0
  -28.2590  -24.4620   20.0360 C   0  0  0  0  0  2  0  0  0  0  0  0
  -28.3090  -25.9570   19.5750 O   0  0  0  0  0  0  0  0  0  0  0  0
  -24.7290  -31.4830   22.9520 C   0  0  0  0  0  0  0  0  0  0  0  0
  -27.2060  -26.8800   19.6790 C   0  0  0  0  0  0  0  0  0  0  0  0
  -23.4510  -30.0770   21.3800 C   0  0  0  0  0  3  0  0  0  0  0  0
  -24.8330  -28.5540   19.8360 C   0  0  0  0  0  0  0  0  0  0  0  0
  -25.9760  -30.4150   21.0340 C   0  0  0  0  0  2  0  0  0  0  0  0
  -26.0400  -29.0290   20.3640 C   0  0  0  0  0  0  0  0  0  0  0  0
  -27.2280  -28.2120   20.2600 C   0  0  0  0  0  3  0  0  0  0  0  0
  -25.9690  -26.4980   19.1230 C   0  0  0  0  0  3  0  0  0  0  0  0
  -24.8090  -27.3020   19.1980 C   0  0  0  0  0  3  0  0  0  0  0  0
  -23.5920  -29.4190   19.9800 C   0  0  0  0  0  2  0  0  0  0  0  0
  -24.7420  -30.6820   21.8430 N   0  0  0  0  0  0  0  0  0  0  0  0
  -23.6770  -31.7320   23.5620 O   0  0  0  0  0  0  0  0  0  0  0  0
  -22.8660  -29.0420   22.3740 C   0  0  0  0  0  0  0  0  0  0  0  0
  -21.5420  -28.8120   22.3130 N   0  0  0  0  0  0  0  0  0  0  0  0
  -23.6050  -28.4470   23.1610 O   0  0  0  0  0  0  0  0  0  0  0  0
  -20.9990  -29.3450   21.6460 H   0  0  0  0  0  0  0  0  0  0  0  0
  -18.2550  -27.4230   22.9380 C   0  0  0  0  0  0  0  0  0  0  0  0
  -20.8050  -27.8350   23.1170 C   0  0  0  0  0  3  0  0  0  0  0  0
  -20.9700  -26.4060   22.5460 C   0  0  0  0  0  2  0  0  0  0  0  0
  -19.8510  -26.0080   21.5770 C   0  0  0  0  0  2  0  0  0  0  0  0
  -18.4900  -26.0770   22.2720 C   0  0  0  0  0  2  0  0  0  0  0  0
  -19.3420  -28.2530   23.3230 C   0  0  0  0  0  0  0  0  0  0  0  0
  -19.0680  -29.5060   23.9120 C   0  0  0  0  0  3  0  0  0  0  0  0
  -17.7420  -29.9290   24.1240 C   0  0  0  0  0  3  0  0  0  0  0  0
  -16.6740  -29.0980   23.7500 C   0  0  0  0  0  3  0  0  0  0  0  0
  -16.9300  -27.8460   23.1630 C   0  0  0  0  0  3  0  0  0  0  0  0
  -26.0320  -32.1420   23.4980 C   0  0  0  0  0  3  0  0  0  0  0  0
  -25.7050  -33.5170   23.9050 N   0  0  0  0  0  0  0  0  0  0  0  0
  -25.9930  -34.6150   23.1920 C   0  0  0  0  0  0  0  0  0  0  0  0
  -26.6310  -34.5760   22.1380 O   0  0  0  0  0  0  0  0  0  0  0  0
  -25.1400  -33.6210   24.7360 H   0  0  0  0  0  0  0  0  0  0  0  0
  -24.2310  -36.4000   22.9750 C   0  0  0  0  0  1  0  0  0  0  0  0
  -25.4970  -35.9710   23.7350 C   0  0  0  0  0  3  0  0  0  0  0  0
  -27.6380  -36.8470   24.5640 C   0  0  0  0  0  1  0  0  0  0  0  0
  -26.5140  -37.0450   23.6540 N   0  0  0  0  0  0  0  0  0  0  0  0
  -26.0990  -37.9510   23.8570 H   0  0  0  0  0  0  0  0  0  0  0  0
  -26.6670  -31.3470   24.7060 C   0  0  1  0  0  0  0  0  0  0  0  0
  -25.6630  -31.0340   25.8410 C   0  0  0  0  0  1  0  0  0  0  0  0
  -27.2620  -30.0040   24.2270 C   0  0  0  0  0  1  0  0  0  0  0  0
  -27.8390  -32.1590   25.3100 C   0  0  0  0  0  1  0  0  0  0  0  0
  -30.7210  -19.3770   18.8790 C   0  0  0  0  0  0  0  0  0  0  0  0
  -30.9320  -19.4870   17.6670 O   0  0  0  0  0  0  0  0  0  0  0  0
  -31.7250  -18.2810   19.7270 C   0  0  0  0  0  3  0  0  0  0  0  0
  -32.7300  -15.6050   19.8140 C   0  0  0  0  0  0  0  0  0  0  0  0
  -32.7010  -13.0830   19.4450 C   0  0  0  0  0  2  0  0  0  0  0  0
  -31.8320  -12.7000   18.2230 C   0  0  0  0  0  2  0  0  0  0  0  0
  -30.3450  -12.5860   18.6170 C   0  0  0  0  0  2  0  0  0  0  0  0
  -29.8730  -13.7800   19.4870 C   0  0  0  0  0  3  0  0  0  0  0  0
  -30.8600  -14.0710   20.6330 C   0  0  0  0  0  2  0  0  0  0  0  0
  -32.1510  -14.3500   19.9950 N   0  0  0  0  0  0  0  0  0  0  0  0
  -33.9620  -15.6510   19.7400 O   0  0  0  0  0  0  0  0  0  0  0  0
  -31.9000  -16.7130   19.4470 N   0  0  0  0  0  0  0  0  0  0  0  0
  -31.0200  -16.3370   19.1350 H   0  0  0  0  0  0  0  0  0  0  0  0
  -27.5610  -14.5990   20.2210 C   0  0  0  0  0  0  0  0  0  0  0  0
  -26.4200  -13.9390   20.5690 C   0  0  0  0  0  0  0  0  0  0  0  0
  -26.7360  -12.5470   20.5140 C   0  0  0  0  0  0  0  0  0  0  0  0
  -28.5070  -13.6190   19.9690 N   0  0  0  0  0  0  0  0  0  0  0  0
  -28.0180  -12.3770   20.2130 N   0  0  0  0  0  0  0  0  0  0  0  0
  -25.8750  -11.3670   20.6650 C   0  0  0  0  0  0  0  0  0  0  0  0
  -26.0760  -10.4320   21.7050 C   0  0  0  0  0  3  0  0  0  0  0  0
  -25.2190   -9.3200   21.8420 C   0  0  0  0  0  3  0  0  0  0  0  0
  -24.1480   -9.1320   20.9340 C   0  0  0  0  0  0  0  0  0  0  0  0
  -23.9680  -10.0530   19.8860 C   0  0  0  0  0  3  0  0  0  0  0  0
  -24.8260  -11.1570   19.7470 C   0  0  0  0  0  3  0  0  0  0  0  0
  -23.2820   -8.0670   20.9740 O   0  0  0  0  0  0  0  0  0  0  0  0
  -22.8620   -7.5260   22.1640 C   0  0  0  0  0  0  0  0  0  0  0  0
  -22.1920   -8.2960   23.1380 C   0  0  0  0  0  3  0  0  0  0  0  0
  -21.7140   -7.6830   24.3140 C   0  0  0  0  0  3  0  0  0  0  0  0
  -21.9000   -6.3030   24.5120 C   0  0  0  0  0  0  0  0  0  0  0  0
  -22.5640   -5.5330   23.5410 C   0  0  0  0  0  3  0  0  0  0  0  0
  -23.0410   -6.1440   22.3690 C   0  0  0  0  0  0  0  0  0  0  0  0
  -23.6610   -5.3940   21.4240 F   0  0  0  0  0  0  0  0  0  0  0  0
  -21.4360   -5.7110   25.6380 F   0  0  0  0  0  0  0  0  0  0  0  0
  -25.0760  -14.5580   20.8320 C   0  0  0  0  0  0  0  0  0  0  0  0
  -24.2890  -13.9690   21.7240 N   0  0  0  0  0  0  0  0  0  0  0  0
  -24.7400  -15.6050   20.2790 O   0  0  0  0  0  0  0  0  0  0  0  0
  -24.5750  -13.1240   22.1980 H   0  0  0  0  0  0  0  0  0  0  0  0
  -23.3900  -14.3740   21.9410 H   0  0  0  0  0  0  0  0  0  0  0  0
  -27.8650  -15.9480   20.0620 N   0  0  0  0  0  0  0  0  0  0  0  0
  -27.1650  -16.6650   20.2080 H   0  0  0  0  0  0  0  0  0  0  0  0
  -28.6940  -16.2970   19.6050 H   0  0  0  0  0  0  0  0  0  0  0  0
  -31.3440  -18.4030   21.2430 C   0  0  0  0  0  2  0  0  0  0  0  0
  -32.2080  -20.8600   21.6130 C   0  0  0  0  0  1  0  0  0  0  0  0
  -33.4960  -18.8720   22.4680 C   0  0  0  0  0  1  0  0  0  0  0  0
  -31.3180  -19.5120   23.4960 C   0  0  0  0  0  1  0  0  0  0  0  0
  -32.0910  -19.4200   22.1640 C   0  0  2  0  0  0  0  0  0  0  0  0
  1  2  1  0
  2  3  1  0
  4  2  1  0
  5  2  1  0
  5  6  1  0
  7  9  1  0
  7  6  1  0
  8 19  2  0
  9 14  1  0
 10 18  1  0
 10 20  1  0
 11 17  1  0
 11 13  1  0
 12 18  1  0
 13 12  1  0
 14 13  2  0
 15 16  1  0
 15  9  2  0
 16 11  2  0
 17 10  1  0
 18  8  1  0
 20 22  2  0
 21 20  1  0
 23 21  1  0
 24 33  2  0
 24 29  1  0
 25 21  1  0
 25 29  1  0
 26 25  1  0
 27 28  1  0
 27 26  1  0
 28 24  1  0
 29 30  2  0
 30 31  1  0
 32 31  2  0
 33 32  1  0
 34  8  1  0
 34 35  1  0
 34 44  1  0
 35 38  1  0
 36 40  1  0
 36 35  1  0
 37 36  2  0
 40 39  1  0
 42 40  1  0
 42 43  1  0
 42 41  1  0
 44 47  1  1
 44 45  1  0
 46 44  1  0
 48  1  1  0
 48 50  1  0
 49 48  2  0
 50 89  1  0
 51 57  1  0
 52 57  1  0
 53 54  1  0
 53 52  1  0
 55 54  1  0
 55 64  1  0
 55 56  1  0
 57 56  1  0
 58 51  2  0
 59 50  1  0
 59 51  1  0
 60 59  1  0
 61 62  2  0
 62 81  1  0
 63 62  1  0
 63 66  1  0
 64 65  1  0
 64 61  1  0
 65 63  2  0
 66 67  1  0
 67 68  2  0
 69 72  1  0
 69 68  1  0
 70 69  2  0
 71 70  1  0
 71 66  2  0
 72 73  1  0
 73 78  2  0
 73 74  1  0
 74 75  2  0
 75 76  1  0
 76 80  1  0
 77 76  2  0
 78 77  1  0
 79 78  1  0
 81 82  1  0
 82 85  1  0
 82 84  1  0
 83 81  2  0
 86 87  1  0
 86 61  1  0
 88 86  1  0
 89 93  1  0
 93 90  1  6
 93 91  1  0
 93 92  1  0
M  ISO  4   6 101   7 101  51 100  59 100
M  END
>  <TORSDO>  (9) 
F 23

>  <SCORE>  (9) 
-8.311

>  <name>  (9) 
8

>  <ligand_id>  (9) 
8

>  <original_smiles>  (9) 
[H]c1c([H])c([H])c2c(c1[H])C([H])([H])C([H])([H])C([H])([H])C2([H])N([H])C(=O)C1([H])N(C(=O)C([H])(N([H])C(=O)C([H])(N([H])C([H])([H])[H])C([H])([H])[H])C(C([H])([H])[H])(C([H])([H])[H])C([H])([H])[H])C([H])([H])c2c([H])c(OC([H])([H])C([H])([H])[N+]([H])([H])C([H])([H])C(=O)C([H])(N([H])C(=O)N3C([H])([H])C([H])([H])C([H])([H])C([H])(n4nc(-c5c([H])c([H])c(Oc6c([H])c([H])c(F)c([H])c6F)c([H])c5[H])c(C(=O)N([H])[H])c4N([H])[H])C3([H])[H])C([H])([H])C(C([H])([H])[H])(C([H])([H])[H])C([H])([H])[H])c([H])c([H])c2C1([H])[H]

>  <smiles>  (9) 
[H]c1c([H])c([H])c2c(c1[H])C([H])([H])C([H])([H])C([H])([H])C2([H])N([H])C(=O)C1([H])N(C(=O)C([H])(N([H])C(=O)C([H])(N([H])C([H])([H])[H])C([H])([H])[H])C(C([H])([H])[H])(C([H])([H])[H])C([H])([H])[H])C([H])([H])c2c([H])c(OC([H])([H])C([H])([H])[N+]([H])([H])C([H])([H])C(=O)C([H])(N([H])C(=O)N3C([H])([H])C([H])([H])C([H])([H])C([H])(n4nc(-c5c([H])c([H])c(Oc6c([H])c([H])c(F)c([H])c6F)c([H])c5[H])c(C(=O)N([H])[H])c4N([H])[H])C3([H])[H])C([H])([H])C(C([H])([H])[H])(C([H])([H])[H])C([H])([H])[H])c([H])c([H])c2C1([H])[H]

$$$$
9:0:0
     RDKit          3D

 96103  0  0  1  0  0  0  0  0999 V2000
  -29.0780  -21.3750   19.7620 C   0  0  0  0  0  0  0  0  0  0  0  0
  -30.5270  -21.7690   19.4100 C   0  0  0  0  0  2  0  0  0  0  0  0
  -32.0840  -23.1500   17.9560 C   0  0  0  0  0  1  0  0  0  0  0  0
  -30.6810  -21.3340   16.8950 C   0  0  0  0  0  1  0  0  0  0  0  0
  -30.7410  -22.4020   18.0120 C   0  0  0  0  0  3  0  0  0  0  0  0
  -28.9150  -19.6420   20.2260 C   0  0  0  0  0  3  0  0  0  0  0  0
  -29.9960  -18.1970   20.1820 C   0  0  0  0  0  3  0  0  0  0  0  0
  -30.3730  -15.3160   19.9170 C   0  0  0  0  0  0  0  0  0  0  0  0
  -30.2760  -12.9250   18.9370 C   0  0  0  0  0  2  0  0  0  0  0  0
  -29.2660  -12.7970   17.7700 C   0  0  0  0  0  2  0  0  0  0  0  0
  -27.8640  -12.4820   18.3160 C   0  0  0  0  0  2  0  0  0  0  0  0
  -27.4890  -13.4020   19.5060 C   0  0  0  0  0  3  0  0  0  0  0  0
  -28.6180  -13.4800   20.5550 C   0  0  0  0  0  2  0  0  0  0  0  0
  -29.8000  -14.0200   19.8590 N   0  0  0  0  0  0  0  0  0  0  0  0
  -31.5620  -15.3320   19.5720 O   0  0  0  0  0  0  0  0  0  0  0  0
  -29.6360  -16.5720   20.1590 N   0  0  0  0  0  0  0  0  0  0  0  0
  -28.6730  -16.3910   20.3820 H   0  0  0  0  0  0  0  0  0  0  0  0
  -25.1730  -13.9110   20.4530 C   0  0  0  0  0  0  0  0  0  0  0  0
  -24.1490  -13.1090   20.8730 C   0  0  0  0  0  0  0  0  0  0  0  0
  -24.6230  -11.7660   20.7520 C   0  0  0  0  0  0  0  0  0  0  0  0
  -26.2020  -13.0570   20.0970 N   0  0  0  0  0  0  0  0  0  0  0  0
  -25.8870  -11.7580   20.3450 N   0  0  0  0  0  0  0  0  0  0  0  0
  -23.9230  -10.4880   20.9430 C   0  0  0  0  0  0  0  0  0  0  0  0
  -24.3910   -9.5190   21.8570 C   0  0  0  0  0  3  0  0  0  0  0  0
  -23.6880   -8.3090   22.0390 C   0  0  0  0  0  3  0  0  0  0  0  0
  -22.5040   -8.0570   21.3060 C   0  0  0  0  0  0  0  0  0  0  0  0
  -22.0540   -9.0170   20.3810 C   0  0  0  0  0  3  0  0  0  0  0  0
  -22.7580  -10.2190   20.1970 C   0  0  0  0  0  3  0  0  0  0  0  0
  -21.7730   -6.8980   21.3970 O   0  0  0  0  0  0  0  0  0  0  0  0
  -21.7270   -6.1640   22.5550 C   0  0  0  0  0  0  0  0  0  0  0  0
  -21.2410   -6.7100   23.7640 C   0  0  0  0  0  3  0  0  0  0  0  0
  -21.1470   -5.9010   24.9140 C   0  0  0  0  0  3  0  0  0  0  0  0
  -21.5280   -4.5480   24.8570 C   0  0  0  0  0  0  0  0  0  0  0  0
  -22.0080   -4.0010   23.6540 C   0  0  0  0  0  3  0  0  0  0  0  0
  -22.1030   -4.8070   22.5050 C   0  0  0  0  0  0  0  0  0  0  0  0
  -22.5470   -4.2700   21.3420 F   0  0  0  0  0  0  0  0  0  0  0  0
  -21.4300   -3.7690   25.9590 F   0  0  0  0  0  0  0  0  0  0  0  0
  -22.7680  -13.5590   21.2570 C   0  0  0  0  0  0  0  0  0  0  0  0
  -22.1020  -12.8240   22.1370 N   0  0  0  0  0  0  0  0  0  0  0  0
  -22.2910  -14.6020   20.8080 O   0  0  0  0  0  0  0  0  0  0  0  0
  -22.5020  -11.9860   22.5330 H   0  0  0  0  0  0  0  0  0  0  0  0
  -21.1730  -13.1040   22.4160 H   0  0  0  0  0  0  0  0  0  0  0  0
  -25.3080  -15.2880   20.3110 N   0  0  0  0  0  0  0  0  0  0  0  0
  -24.5430  -15.9270   20.5010 H   0  0  0  0  0  0  0  0  0  0  0  0
  -26.0910  -15.7370   19.8520 H   0  0  0  0  0  0  0  0  0  0  0  0
  -32.0660  -19.4190   21.2140 C   0  0  0  0  0  1  0  0  0  0  0  0
  -31.0240  -18.3040   21.3580 C   0  0  0  0  0  3  0  0  0  0  0  0
  -31.2970  -18.2670   23.9310 C   0  0  0  0  0  1  0  0  0  0  0  0
  -30.3300  -18.3390   22.7400 C   0  0  0  0  0  2  0  0  0  0  0  0
  -28.0970  -22.8710   19.9520 C   0  0  0  0  0  3  0  0  0  0  0  0
  -26.7630  -22.4450   20.4200 N   0  0  0  0  0  4  0  0  0  0  0  0
  -26.7800  -22.1880   21.3930 H   0  0  0  0  0  0  0  0  0  0  0  0
  -26.4290  -21.6570   19.8950 H   0  0  0  0  0  0  0  0  0  0  0  0
  -26.0920  -23.1860   20.3100 H   0  0  0  0  0  0  0  0  0  0  0  0
  -28.3610  -24.5190   20.5800 C   0  0  0  0  0  2  0  0  0  0  0  0
  -28.2470  -26.0840   20.1140 O   0  0  0  0  0  0  0  0  0  0  0  0
  -24.6050  -31.9200   23.2340 C   0  0  0  0  0  0  0  0  0  0  0  0
  -27.1720  -27.0890   20.2040 C   0  0  0  0  0  0  0  0  0  0  0  0
  -23.4120  -30.5190   21.5990 C   0  0  0  0  0  3  0  0  0  0  0  0
  -24.8550  -28.9180   20.1790 C   0  0  0  0  0  0  0  0  0  0  0  0
  -25.9700  -30.7490   21.4380 C   0  0  0  0  0  2  0  0  0  0  0  0
  -26.0420  -29.3440   20.7850 C   0  0  0  0  0  0  0  0  0  0  0  0
  -27.2030  -28.4540   20.7630 C   0  0  0  0  0  3  0  0  0  0  0  0
  -25.9500  -26.7970   19.5620 C   0  0  0  0  0  3  0  0  0  0  0  0
  -24.8280  -27.6630   19.5490 C   0  0  0  0  0  3  0  0  0  0  0  0
  -23.6310  -29.8300   20.2270 C   0  0  0  0  0  2  0  0  0  0  0  0
  -24.6840  -31.0900   22.1420 N   0  0  0  0  0  0  0  0  0  0  0  0
  -23.5190  -32.2070   23.7590 O   0  0  0  0  0  0  0  0  0  0  0  0
  -22.7260  -29.5220   22.5700 C   0  0  0  0  0  0  0  0  0  0  0  0
  -21.3990  -29.3450   22.4380 N   0  0  0  0  0  0  0  0  0  0  0  0
  -23.3940  -28.9080   23.4050 O   0  0  0  0  0  0  0  0  0  0  0  0
  -20.9150  -29.8840   21.7320 H   0  0  0  0  0  0  0  0  0  0  0  0
  -18.0290  -28.1070   22.9500 C   0  0  0  0  0  0  0  0  0  0  0  0
  -20.5840  -28.4050   23.2150 C   0  0  0  0  0  3  0  0  0  0  0  0
  -20.7060  -26.9740   22.6440 C   0  0  0  0  0  2  0  0  0  0  0  0
  -19.6080  -26.6350   21.6300 C   0  0  0  0  0  2  0  0  0  0  0  0
  -18.2240  -26.7600   22.2720 C   0  0  0  0  0  2  0  0  0  0  0  0
  -19.1370  -28.8870   23.3770 C   0  0  0  0  0  0  0  0  0  0  0  0
  -18.8990  -30.1430   23.9740 C   0  0  0  0  0  3  0  0  0  0  0  0
  -17.5890  -30.6250   24.1450 C   0  0  0  0  0  3  0  0  0  0  0  0
  -16.4960  -29.8450   23.7290 C   0  0  0  0  0  3  0  0  0  0  0  0
  -16.7150  -28.5900   23.1360 C   0  0  0  0  0  3  0  0  0  0  0  0
  -25.8780  -32.5620   23.8630 C   0  0  0  0  0  3  0  0  0  0  0  0
  -26.3790  -31.8050   25.1570 C   0  0  1  0  0  0  0  0  0  0  0  0
  -25.2710  -31.5650   26.2130 C   0  0  0  0  0  1  0  0  0  0  0  0
  -26.9730  -30.4240   24.7980 C   0  0  0  0  0  1  0  0  0  0  0  0
  -27.5210  -32.6100   25.8180 C   0  0  0  0  0  1  0  0  0  0  0  0
  -25.5550  -33.9640   24.1830 N   0  0  0  0  0  0  0  0  0  0  0  0
  -25.8900  -35.0220   23.4320 C   0  0  0  0  0  0  0  0  0  0  0  0
  -26.5640  -34.9160   22.4040 O   0  0  0  0  0  0  0  0  0  0  0  0
  -24.9230  -34.1080   24.9600 H   0  0  0  0  0  0  0  0  0  0  0  0
  -24.1640  -36.8320   23.0970 C   0  0  0  0  0  1  0  0  0  0  0  0
  -25.4100  -36.4150   23.8920 C   0  0  0  0  0  3  0  0  0  0  0  0
  -27.5510  -37.3080   24.7100 C   0  0  0  0  0  1  0  0  0  0  0  0
  -26.4480  -37.4640   23.7680 N   0  0  0  0  0  0  0  0  0  0  0  0
  -26.0450  -38.3880   23.9010 H   0  0  0  0  0  0  0  0  0  0  0  0
  1 50  1  0
  1  6  2  0
  2  1  1  0
  3  5  1  0
  4  5  1  0
  5  2  1  0
  7  6  1  0
  7 47  1  0
  8 16  1  0
  9 14  1  0
 10 11  1  0
 10  9  1  0
 12 11  1  0
 12 21  1  0
 12 13  1  0
 14  8  1  0
 14 13  1  0
 15  8  2  0
 16  7  1  0
 16 17  1  0
 18 19  2  0
 19 38  1  0
 20 19  1  0
 20 23  1  0
 21 22  1  0
 21 18  1  0
 22 20  2  0
 23 24  1  0
 24 25  2  0
 26 29  1  0
 26 25  1  0
 27 26  2  0
 28 27  1  0
 28 23  2  0
 29 30  1  0
 30 31  1  0
 31 32  2  0
 33 32  1  0
 33 37  1  0
 34 33  2  0
 35 30  2  0
 35 34  1  0
 36 35  1  0
 38 39  1  0
 39 42  1  0
 39 41  1  0
 40 38  2  0
 43 18  1  0
 43 44  1  0
 45 43  1  0
 47 46  1  0
 47 49  1  0
 49 48  1  0
 50 51  1  0
 50 55  1  0
 51 52  1  0
 53 51  1  0
 54 51  1  0
 56 58  1  0
 56 55  1  0
 57 68  2  0
 58 63  1  0
 59 67  1  0
 59 69  1  0
 60 66  1  0
 60 62  1  0
 61 67  1  0
 62 61  1  0
 63 62  2  0
 64 58  2  0
 65 64  1  0
 65 60  2  0
 66 59  1  0
 67 57  1  0
 69 71  2  0
 70 69  1  0
 72 70  1  0
 73 82  2  0
 73 78  1  0
 74 70  1  0
 74 78  1  0
 75 74  1  0
 76 77  1  0
 76 75  1  0
 77 73  1  0
 78 79  2  0
 79 80  1  0
 81 80  2  0
 82 81  1  0
 83 57  1  0
 83 88  1  0
 83 84  1  0
 84 87  1  1
 84 85  1  0
 86 84  1  0
 88 91  1  0
 89 93  1  0
 89 88  1  0
 90 89  2  0
 93 92  1  0
 95 93  1  0
 95 96  1  0
 95 94  1  0
M  ISO  4   8 100  16 100  55 101  56 101
M  END
>  <TORSDO>  (10) 
F 25

>  <SCORE>  (10) 
-12.980

>  <name>  (10) 
9

>  <ligand_id>  (10) 
9

>  <original_smiles>  (10) 
[H]c1c([H])c([H])c2c(c1[H])C([H])([H])C([H])([H])C([H])([H])C2([H])N([H])C(=O)C1([H])N(C(=O)C([H])(N([H])C(=O)C([H])(N([H])C([H])([H])[H])C([H])([H])[H])C(C([H])([H])[H])(C([H])([H])[H])C([H])([H])[H])C([H])([H])c2c([H])c(OC([H])([H])C([H])(C([H])(C([H])([H])C([H])(N([H])C(=O)N3C([H])([H])C([H])([H])C([H])([H])C([H])(n4nc(-c5c([H])c([H])c(Oc6c([H])c([H])c(F)c([H])c6F)c([H])c5[H])c(C(=O)N([H])[H])c4N([H])[H])C3([H])[H])C([H])(C([H])([H])[H])C([H])([H])C([H])([H])[H])C([H])([H])C([H])(C([H])([H])[H])C([H])([H])[H])[N+]([H])([H])[H])c([H])c([H])c2C1([H])[H]

>  <smiles>  (10) 
[H]c1c([H])c([H])c2c(c1[H])C([H])([H])C([H])([H])C([H])([H])C2([H])N([H])C(=O)C1([H])N(C(=O)C([H])(N([H])C(=O)C([H])(N([H])C([H])([H])[H])C([H])([H])[H])C(C([H])([H])[H])(C([H])([H])[H])C([H])([H])[H])C([H])([H])c2c([H])c(OC([H])([H])C([H])(C([H])(C([H])([H])C([H])(N([H])C(=O)N3C([H])([H])C([H])([H])C([H])([H])C([H])(n4nc(-c5c([H])c([H])c(Oc6c([H])c([H])c(F)c([H])c6F)c([H])c5[H])c(C(=O)N([H])[H])c4N([H])[H])C3([H])[H])C([H])(C([H])([H])[H])C([H])([H])C([H])([H])[H])C([H])([H])C([H])(C([H])([H])[H])C([H])([H])[H])[N+]([H])([H])[H])c([H])c([H])c2C1([H])[H]

$$$$
10:0:0
     RDKit          3D

 99106  0  0  1  0  0  0  0  0999 V2000
  -30.0380  -19.4620   20.7920 C   0  0  0  0  0  3  0  0  0  0  0  0
  -28.8810  -22.0620   20.7860 C   0  0  0  0  0  0  0  0  0  0  0  0
  -29.5680  -20.9170   20.2320 N   0  0  0  0  0  0  0  0  0  0  0  0
  -28.2150  -21.8460   21.7990 O   0  0  0  0  0  0  0  0  0  0  0  0
  -30.0370  -21.1660   19.3730 H   0  0  0  0  0  0  0  0  0  0  0  0
  -28.2920  -24.7230   20.6790 C   0  0  0  0  0  3  0  0  0  0  0  0
  -28.9880  -23.5430   20.2260 C   0  0  0  0  0  0  0  0  0  0  0  0
  -29.8630  -23.7150   19.2220 O   0  0  0  0  0  0  0  0  0  0  0  0
  -29.8520  -24.6400   18.9990 H   0  0  0  0  0  0  0  0  0  0  0  0
  -28.4260  -26.1780   20.3610 O   0  0  0  0  0  0  0  0  0  0  0  0
  -24.6700  -31.9780   23.2710 C   0  0  0  0  0  0  0  0  0  0  0  0
  -27.3610  -27.1750   20.3820 C   0  0  0  0  0  0  0  0  0  0  0  0
  -23.5280  -30.5360   21.6360 C   0  0  0  0  0  3  0  0  0  0  0  0
  -25.0200  -28.9320   20.2850 C   0  0  0  0  0  0  0  0  0  0  0  0
  -26.0870  -30.8100   21.5250 C   0  0  0  0  0  2  0  0  0  0  0  0
  -26.1900  -29.3980   20.9010 C   0  0  0  0  0  0  0  0  0  0  0  0
  -27.3630  -28.5340   20.9260 C   0  0  0  0  0  3  0  0  0  0  0  0
  -26.1550  -26.8250   19.7390 C   0  0  0  0  0  3  0  0  0  0  0  0
  -25.0160  -27.6600   19.6950 C   0  0  0  0  0  3  0  0  0  0  0  0
  -23.7920  -29.8350   20.2790 C   0  0  0  0  0  2  0  0  0  0  0  0
  -24.7800  -31.1340   22.1990 N   0  0  0  0  0  0  0  0  0  0  0  0
  -23.5660  -32.2580   23.7630 O   0  0  0  0  0  0  0  0  0  0  0  0
  -22.8340  -29.5400   22.6030 C   0  0  0  0  0  0  0  0  0  0  0  0
  -21.5130  -29.3340   22.4390 N   0  0  0  0  0  0  0  0  0  0  0  0
  -23.4900  -28.9540   23.4670 O   0  0  0  0  0  0  0  0  0  0  0  0
  -21.0320  -29.8560   21.7190 H   0  0  0  0  0  0  0  0  0  0  0  0
  -18.1470  -28.0610   22.8780 C   0  0  0  0  0  0  0  0  0  0  0  0
  -20.6900  -28.3940   23.2100 C   0  0  0  0  0  3  0  0  0  0  0  0
  -20.8440  -26.9510   22.6760 C   0  0  0  0  0  2  0  0  0  0  0  0
  -19.7820  -26.5750   21.6380 C   0  0  0  0  0  2  0  0  0  0  0  0
  -18.3790  -26.7020   22.2400 C   0  0  0  0  0  2  0  0  0  0  0  0
  -19.2350  -28.8620   23.3200 C   0  0  0  0  0  0  0  0  0  0  0  0
  -18.9650  -30.1310   23.8790 C   0  0  0  0  0  3  0  0  0  0  0  0
  -17.6440  -30.6020   23.9920 C   0  0  0  0  0  3  0  0  0  0  0  0
  -16.5720  -29.7980   23.5700 C   0  0  0  0  0  3  0  0  0  0  0  0
  -16.8230  -28.5290   23.0200 C   0  0  0  0  0  3  0  0  0  0  0  0
  -25.9230  -32.6460   23.9140 C   0  0  0  0  0  3  0  0  0  0  0  0
  -26.4190  -31.9090   25.2180 C   0  0  1  0  0  0  0  0  0  0  0  0
  -25.2970  -31.6410   26.2490 C   0  0  0  0  0  1  0  0  0  0  0  0
  -27.0720  -30.5510   24.8740 C   0  0  0  0  0  1  0  0  0  0  0  0
  -27.5120  -32.7570   25.9160 C   0  0  0  0  0  1  0  0  0  0  0  0
  -25.5810  -34.0440   24.2160 N   0  0  0  0  0  0  0  0  0  0  0  0
  -25.9010  -35.0950   23.4490 C   0  0  0  0  0  0  0  0  0  0  0  0
  -26.5810  -34.9910   22.4250 O   0  0  0  0  0  0  0  0  0  0  0  0
  -24.9820  -34.1990   25.0140 H   0  0  0  0  0  0  0  0  0  0  0  0
  -24.1360  -36.8530   23.0800 C   0  0  0  0  0  1  0  0  0  0  0  0
  -25.3870  -36.4800   23.8910 C   0  0  0  0  0  3  0  0  0  0  0  0
  -27.5110  -37.4150   24.6970 C   0  0  0  0  0  1  0  0  0  0  0  0
  -26.3970  -37.5540   23.7640 N   0  0  0  0  0  0  0  0  0  0  0  0
  -25.9720  -38.4640   23.9150 H   0  0  0  0  0  0  0  0  0  0  0  0
  -31.5690  -19.5040   21.0330 C   0  0  0  0  0  2  0  0  0  0  0  0
  -32.1530  -20.6900   21.8430 C   0  0  0  0  0  2  0  0  0  0  0  0
  -34.6410  -20.2470   21.2890 C   0  0  0  0  0  1  0  0  0  0  0  0
  -33.3110  -21.8900   19.8960 C   0  0  0  0  0  1  0  0  0  0  0  0
  -33.4830  -21.2620   21.2860 C   0  0  0  0  0  3  0  0  0  0  0  0
  -29.7760  -17.9230   20.0600 C   0  0  0  0  0  0  0  0  0  0  0  0
  -30.9200  -15.2350   20.2870 C   0  0  0  0  0  0  0  0  0  0  0  0
  -30.8640  -12.8430   19.4020 C   0  0  0  0  0  2  0  0  0  0  0  0
  -29.9550  -12.7930   18.1480 C   0  0  0  0  0  2  0  0  0  0  0  0
  -28.4810  -12.5930   18.5500 C   0  0  0  0  0  2  0  0  0  0  0  0
  -28.0650  -13.4960   19.7380 C   0  0  0  0  0  3  0  0  0  0  0  0
  -29.0980  -13.5020   20.8830 C   0  0  0  0  0  2  0  0  0  0  0  0
  -30.3780  -13.9380   20.3000 N   0  0  0  0  0  0  0  0  0  0  0  0
  -32.0960  -15.3120   19.9010 O   0  0  0  0  0  0  0  0  0  0  0  0
  -30.1070  -16.4010   20.5490 N   0  0  0  0  0  4  0  0  0  0  0  0
  -29.3220  -16.0790   21.1000 H   0  0  0  0  0  0  0  0  0  0  0  0
  -25.6890  -14.1350   20.4400 C   0  0  0  0  0  0  0  0  0  0  0  0
  -24.5940  -13.3890   20.7720 C   0  0  0  0  0  0  0  0  0  0  0  0
  -25.0190  -12.0220   20.7280 C   0  0  0  0  0  0  0  0  0  0  0  0
  -26.7110  -13.2280   20.2010 N   0  0  0  0  0  0  0  0  0  0  0  0
  -26.3130  -11.9490   20.4350 N   0  0  0  0  0  0  0  0  0  0  0  0
  -24.2540  -10.7790   20.8940 C   0  0  0  0  0  0  0  0  0  0  0  0
  -24.6240   -9.8020   21.8430 C   0  0  0  0  0  3  0  0  0  0  0  0
  -23.8620   -8.6220   21.9910 C   0  0  0  0  0  3  0  0  0  0  0  0
  -22.7110   -8.4180   21.1930 C   0  0  0  0  0  0  0  0  0  0  0  0
  -22.3620   -9.3810   20.2310 C   0  0  0  0  0  3  0  0  0  0  0  0
  -23.1250  -10.5500   20.0800 C   0  0  0  0  0  3  0  0  0  0  0  0
  -21.9190   -7.2960   21.2570 O   0  0  0  0  0  0  0  0  0  0  0  0
  -21.7760   -6.5830   22.4170 C   0  0  0  0  0  0  0  0  0  0  0  0
  -21.3050   -7.1790   23.6090 C   0  0  0  0  0  3  0  0  0  0  0  0
  -21.1050   -6.3900   24.7580 C   0  0  0  0  0  3  0  0  0  0  0  0
  -21.3680   -5.0070   24.7170 C   0  0  0  0  0  0  0  0  0  0  0  0
  -21.8420   -4.4140   23.5340 C   0  0  0  0  0  3  0  0  0  0  0  0
  -22.0440   -5.2000   22.3850 C   0  0  0  0  0  0  0  0  0  0  0  0
  -22.4780   -4.6190   21.2400 F   0  0  0  0  0  0  0  0  0  0  0  0
  -21.1680   -4.2480   25.8210 F   0  0  0  0  0  0  0  0  0  0  0  0
  -23.2060  -13.9040   21.0260 C   0  0  0  0  0  0  0  0  0  0  0  0
  -22.4540  -13.2260   21.8900 N   0  0  0  0  0  0  0  0  0  0  0  0
  -22.8020  -14.9430   20.5060 O   0  0  0  0  0  0  0  0  0  0  0  0
  -22.8080  -12.3940   22.3380 H   0  0  0  0  0  0  0  0  0  0  0  0
  -21.5270  -13.5500   22.1160 H   0  0  0  0  0  0  0  0  0  0  0  0
  -25.9010  -15.5070   20.3080 N   0  0  0  0  0  0  0  0  0  0  0  0
  -25.1730  -16.1800   20.5150 H   0  0  0  0  0  0  0  0  0  0  0  0
  -26.7680  -15.9390   20.0160 H   0  0  0  0  0  0  0  0  0  0  0  0
  -29.8450  -18.0270   18.5140 C   0  0  0  0  0  2  0  0  0  0  0  0
  -28.4700  -18.1530   17.8010 C   0  0  0  0  0  2  0  0  0  0  0  0
  -29.4660  -18.8660   15.5380 C   0  0  0  0  0  1  0  0  0  0  0  0
  -27.0150  -19.2200   16.0070 C   0  0  0  0  0  1  0  0  0  0  0  0
  -28.4230  -19.1600   16.6330 C   0  0  0  0  0  3  0  0  0  0  0  0
  1 51  1  0
  2  4  2  0
  3  2  1  0
  3  1  1  0
  5  3  1  0
  7  6  2  0
  7  2  1  0
  8  7  1  0
  9  8  1  0
 10 12  1  0
 10  6  1  0
 11 22  2  0
 12 17  1  0
 13 21  1  0
 13 23  1  0
 14 16  1  0
 15 21  1  0
 16 17  2  0
 16 15  1  0
 18 12  2  0
 19 18  1  0
 19 14  2  0
 20 14  1  0
 20 13  1  0
 21 11  1  0
 23 25  2  0
 24 23  1  0
 26 24  1  0
 27 36  2  0
 27 32  1  0
 28 24  1  0
 28 32  1  0
 29 28  1  0
 30 31  1  0
 30 29  1  0
 31 27  1  0
 32 33  2  0
 33 34  1  0
 35 34  2  0
 36 35  1  0
 37 11  1  0
 37 42  1  0
 37 38  1  0
 38 41  1  1
 38 39  1  0
 40 38  1  0
 42 45  1  0
 43 47  1  0
 43 42  1  0
 44 43  2  0
 47 46  1  0
 49 47  1  0
 49 50  1  0
 49 48  1  0
 51 52  1  0
 54 55  1  0
 55 53  1  0
 55 52  1  0
 56 65  2  0
 56  1  1  0
 57 63  1  0
 57 65  1  0
 58 63  1  0
 59 60  1  0
 59 58  1  0
 61 60  1  0
 61 70  1  0
 61 62  1  0
 63 62  1  0
 64 57  2  0
 65 66  1  0
 67 68  2  0
 68 87  1  0
 69 68  1  0
 69 72  1  0
 70 71  1  0
 70 67  1  0
 71 69  2  0
 72 73  1  0
 73 74  2  0
 75 78  1  0
 75 74  1  0
 76 75  2  0
 77 76  1  0
 77 72  2  0
 78 79  1  0
 79 80  1  0
 80 81  2  0
 82 81  1  0
 82 86  1  0
 83 82  2  0
 84 79  2  0
 84 83  1  0
 85 84  1  0
 87 88  1  0
 88 91  1  0
 88 90  1  0
 89 87  2  0
 92 67  1  0
 92 93  1  0
 94 92  1  0
 95 56  1  0
 96 95  1  0
 97 99  1  0
 98 99  1  0
 99 96  1  0
M  ISO  4   6 101  10 101  57 100  65 100
M  END
>  <TORSDO>  (11) 
F 26

>  <SCORE>  (11) 
-12.385

>  <name>  (11) 
10

>  <ligand_id>  (11) 
10

>  <original_smiles>  (11) 
[H]OC(C(=O)N([H])C([H])(C([H])([H])C([H])([H])C([H])(C([H])([H])[H])C([H])([H])[H])C([H])(N([H])C(=O)N1C([H])([H])C([H])([H])C([H])([H])C([H])(n2nc(-c3c([H])c([H])c(Oc4c([H])c([H])c(F)c([H])c4F)c([H])c3[H])c(C(=O)N([H])[H])c2N([H])[H])C1([H])[H])C([H])([H])C([H])([H])C([H])(C([H])([H])[H])C([H])([H])[H])=C([H])Oc1c([H])c([H])c2c(c1[H])C([H])([H])N(C(=O)C([H])(N([H])C(=O)C([H])(N([H])C([H])([H])[H])C([H])([H])[H])C(C([H])([H])[H])(C([H])([H])[H])C([H])([H])[H])C([H])(C(=O)N([H])C1([H])c3c([H])c([H])c([H])c([H])c3C([H])([H])C([H])([H])C1([H])[H])C2([H])[H]

>  <smiles>  (11) 
[H]OC(C(=O)N([H])C([H])(C([H])([H])C([H])([H])C([H])(C([H])([H])[H])C([H])([H])[H])C([H])(N([H])C(=O)N1C([H])([H])C([H])([H])C([H])([H])C([H])(n2nc(-c3c([H])c([H])c(Oc4c([H])c([H])c(F)c([H])c4F)c([H])c3[H])c(C(=O)N([H])[H])c2N([H])[H])C1([H])[H])C([H])([H])C([H])([H])C([H])(C([H])([H])[H])C([H])([H])[H])=C([H])Oc1c([H])c([H])c2c(c1[H])C([H])([H])N(C(=O)C([H])(N([H])C(=O)C([H])(N([H])C([H])([H])[H])C([H])([H])[H])C(C([H])([H])[H])(C([H])([H])[H])C([H])([H])[H])C([H])(C(=O)N([H])C1([H])c3c([H])c([H])c([H])c([H])c3C([H])([H])C([H])([H])C1([H])[H])C2([H])[H]

$$$$
11:0:0
     RDKit          3D

101109  0  0  1  0  0  0  0  0999 V2000
  -28.7890  -19.7810   21.7140 C   0  0  0  0  0  1  0  0  0  0  0  0
  -30.0530  -20.0290   20.8710 C   0  0  0  0  0  3  0  0  0  0  0  0
  -30.2820  -21.5240   20.5580 N   0  0  0  0  0  4  0  0  0  0  0  0
  -30.7640  -21.8650   21.3740 H   0  0  0  0  0  0  0  0  0  0  0  0
  -30.9500  -21.5940   19.8070 H   0  0  0  0  0  0  0  0  0  0  0  0
  -29.1780  -22.5590   20.3130 C   0  0  0  0  0  2  0  0  0  0  0  0
  -30.8020  -24.4440   19.5900 C   0  0  0  0  0  1  0  0  0  0  0  0
  -29.9250  -24.3880   21.9500 C   0  0  0  0  0  1  0  0  0  0  0  0
  -29.5770  -24.1290   20.4710 C   0  0  2  0  0  0  0  0  0  0  0  0
  -28.4310  -25.1870   20.0700 C   0  0  0  0  0  2  0  0  0  0  0  0
  -28.6350  -26.6610   20.2400 O   0  0  0  0  0  0  0  0  0  0  0  0
  -24.6790  -31.9100   23.3020 C   0  0  0  0  0  0  0  0  0  0  0  0
  -27.5010  -27.5010   20.1860 C   0  0  0  0  0  0  0  0  0  0  0  0
  -23.5570  -30.5140   21.6050 C   0  0  0  0  0  3  0  0  0  0  0  0
  -25.0880  -29.0550   20.1690 C   0  0  0  0  0  0  0  0  0  0  0  0
  -26.0920  -30.9180   21.4840 C   0  0  0  0  0  2  0  0  0  0  0  0
  -26.2320  -29.5580   20.8030 C   0  0  0  0  0  0  0  0  0  0  0  0
  -27.4410  -28.7940   20.8010 C   0  0  0  0  0  3  0  0  0  0  0  0
  -26.3300  -27.0630   19.5230 C   0  0  0  0  0  3  0  0  0  0  0  0
  -25.1410  -27.8140   19.5190 C   0  0  0  0  0  3  0  0  0  0  0  0
  -23.8230  -29.8870   20.2130 C   0  0  0  0  0  2  0  0  0  0  0  0
  -24.7940  -31.1330   22.1870 N   0  0  0  0  0  0  0  0  0  0  0  0
  -23.5760  -32.1350   23.8200 O   0  0  0  0  0  0  0  0  0  0  0  0
  -22.9150  -29.4470   22.5230 C   0  0  0  0  0  0  0  0  0  0  0  0
  -21.6060  -29.2020   22.3410 N   0  0  0  0  0  0  0  0  0  0  0  0
  -23.5950  -28.8430   23.3570 O   0  0  0  0  0  0  0  0  0  0  0  0
  -21.1160  -29.7440   21.6430 H   0  0  0  0  0  0  0  0  0  0  0  0
  -18.2780  -27.8260   22.6950 C   0  0  0  0  0  0  0  0  0  0  0  0
  -20.8080  -28.2150   23.0680 C   0  0  0  0  0  3  0  0  0  0  0  0
  -21.0090  -26.7980   22.4820 C   0  0  0  0  0  2  0  0  0  0  0  0
  -19.9640  -26.4320   21.4210 C   0  0  0  0  0  2  0  0  0  0  0  0
  -18.5510  -26.4980   22.0100 C   0  0  0  0  0  2  0  0  0  0  0  0
  -19.3380  -28.6400   23.1770 C   0  0  0  0  0  0  0  0  0  0  0  0
  -19.0290  -29.8820   23.7740 C   0  0  0  0  0  3  0  0  0  0  0  0
  -17.6930  -30.3100   23.8920 C   0  0  0  0  0  3  0  0  0  0  0  0
  -16.6490  -29.4940   23.4260 C   0  0  0  0  0  3  0  0  0  0  0  0
  -16.9430  -28.2530   22.8320 C   0  0  0  0  0  3  0  0  0  0  0  0
  -25.9240  -32.5720   23.9670 C   0  0  0  0  0  3  0  0  0  0  0  0
  -26.3960  -31.8340   25.2790 C   0  0  1  0  0  0  0  0  0  0  0  0
  -25.2530  -31.5700   26.2880 C   0  0  0  0  0  1  0  0  0  0  0  0
  -27.0470  -30.4730   24.9360 C   0  0  0  0  0  1  0  0  0  0  0  0
  -27.4860  -32.6720   25.9890 C   0  0  0  0  0  1  0  0  0  0  0  0
  -25.5830  -33.9710   24.2580 N   0  0  0  0  0  0  0  0  0  0  0  0
  -25.9200  -35.0140   23.4860 C   0  0  0  0  0  0  0  0  0  0  0  0
  -26.6170  -34.8990   22.4750 O   0  0  0  0  0  0  0  0  0  0  0  0
  -24.9660  -34.1350   25.0400 H   0  0  0  0  0  0  0  0  0  0  0  0
  -24.1680  -36.7660   23.0520 C   0  0  0  0  0  1  0  0  0  0  0  0
  -25.3970  -36.4030   23.9010 C   0  0  0  0  0  3  0  0  0  0  0  0
  -27.4870  -37.3490   24.7700 C   0  0  0  0  0  1  0  0  0  0  0  0
  -26.4130  -37.4710   23.7880 N   0  0  0  0  0  0  0  0  0  0  0  0
  -25.9880  -38.3860   23.9010 H   0  0  0  0  0  0  0  0  0  0  0  0
  -30.2430  -18.9710   19.6710 C   0  0  0  0  0  3  0  0  0  0  0  0
  -29.0450  -19.0040   18.6860 C   0  0  0  0  0  2  0  0  0  0  0  0
  -26.5850  -18.5880   18.3270 C   0  0  0  0  0  1  0  0  0  0  0  0
  -27.8790  -18.0460   18.9500 C   0  0  0  0  0  2  0  0  0  0  0  0
  -31.0670  -17.5490   19.7900 C   0  0  0  0  0  3  0  0  0  0  0  0
  -31.1870  -15.0500   20.4900 C   0  0  0  0  0  0  0  0  0  0  0  0
  -30.9430  -12.7680   19.5440 C   0  0  0  0  0  2  0  0  0  0  0  0
  -30.0580  -12.8350   18.2810 C   0  0  0  0  0  2  0  0  0  0  0  0
  -28.5690  -12.7010   18.6590 C   0  0  0  0  0  2  0  0  0  0  0  0
  -28.1600  -13.6170   19.8440 C   0  0  0  0  0  3  0  0  0  0  0  0
  -29.1800  -13.5650   21.0020 C   0  0  0  0  0  2  0  0  0  0  0  0
  -30.4980  -13.8620   20.4360 N   0  0  0  0  0  0  0  0  0  0  0  0
  -32.4090  -15.0500   20.3270 O   0  0  0  0  0  0  0  0  0  0  0  0
  -30.4930  -16.2490   20.3760 N   0  0  0  0  0  0  0  0  0  0  0  0
  -29.4960  -16.2060   20.5070 H   0  0  0  0  0  0  0  0  0  0  0  0
  -25.7640  -14.2340   20.5170 C   0  0  0  0  0  0  0  0  0  0  0  0
  -24.6730  -13.4770   20.8330 C   0  0  0  0  0  0  0  0  0  0  0  0
  -25.1120  -12.1190   20.7930 C   0  0  0  0  0  0  0  0  0  0  0  0
  -26.8000  -13.3430   20.2950 N   0  0  0  0  0  0  0  0  0  0  0  0
  -26.4120  -12.0630   20.5280 N   0  0  0  0  0  0  0  0  0  0  0  0
  -24.3530  -10.8710   20.9330 C   0  0  0  0  0  0  0  0  0  0  0  0
  -24.7010   -9.9000   21.8980 C   0  0  0  0  0  3  0  0  0  0  0  0
  -23.9420   -8.7170   22.0280 C   0  0  0  0  0  3  0  0  0  0  0  0
  -22.8230   -8.4950   21.1910 C   0  0  0  0  0  0  0  0  0  0  0  0
  -22.4950   -9.4550   20.2170 C   0  0  0  0  0  3  0  0  0  0  0  0
  -23.2540  -10.6290   20.0860 C   0  0  0  0  0  3  0  0  0  0  0  0
  -22.0440   -7.3650   21.2290 O   0  0  0  0  0  0  0  0  0  0  0  0
  -21.8630   -6.6550   22.3890 C   0  0  0  0  0  0  0  0  0  0  0  0
  -21.2680   -7.2350   23.5320 C   0  0  0  0  0  3  0  0  0  0  0  0
  -21.0360   -6.4500   24.6790 C   0  0  0  0  0  3  0  0  0  0  0  0
  -21.3910   -5.0880   24.6850 C   0  0  0  0  0  0  0  0  0  0  0  0
  -21.9800   -4.5090   23.5480 C   0  0  0  0  0  3  0  0  0  0  0  0
  -22.2120   -5.2900   22.4020 C   0  0  0  0  0  0  0  0  0  0  0  0
  -22.7600   -4.7230   21.3000 F   0  0  0  0  0  0  0  0  0  0  0  0
  -21.1630   -4.3300   25.7840 F   0  0  0  0  0  0  0  0  0  0  0  0
  -23.2780  -13.9820   21.0610 C   0  0  0  0  0  0  0  0  0  0  0  0
  -22.5100  -13.2970   21.9000 N   0  0  0  0  0  0  0  0  0  0  0  0
  -22.8780  -15.0170   20.5280 O   0  0  0  0  0  0  0  0  0  0  0  0
  -22.8470  -12.4590   22.3520 H   0  0  0  0  0  0  0  0  0  0  0  0
  -21.5730  -13.6190   22.0980 H   0  0  0  0  0  0  0  0  0  0  0  0
  -25.9510  -15.6010   20.3720 N   0  0  0  0  0  0  0  0  0  0  0  0
  -25.1590  -16.2350   20.4020 H   0  0  0  0  0  0  0  0  0  0  0  0
  -26.7720  -16.0200   19.9630 H   0  0  0  0  0  0  0  0  0  0  0  0
  -31.5890  -17.2080   18.3460 C   0  0  0  0  0  2  0  0  0  0  0  0
  -35.1980  -18.5100   16.1850 C   0  0  0  0  0  2  0  0  0  0  0  0
  -34.9270  -17.0080   16.3290 C   0  0  0  0  0  2  0  0  0  0  0  0
  -34.8580  -19.2440   17.4910 C   0  0  0  0  0  2  0  0  0  0  0  0
  -33.4720  -16.7470   16.7430 C   0  0  0  0  0  2  0  0  0  0  0  0
  -33.4000  -18.9900   17.9170 C   0  0  0  0  0  2  0  0  0  0  0  0
  -33.0800  -17.4830   18.0440 C   0  0  0  0  0  3  0  0  0  0  0  0
  2  1  1  0
  3  2  1  0
  3  4  1  0
  5  3  1  0
  6  9  1  0
  6  3  1  0
  9  7  1  6
  9  8  1  0
 10 11  1  0
 10  9  1  0
 12 23  2  0
 13 11  1  0
 13 18  1  0
 14 22  1  0
 14 24  1  0
 15 21  1  0
 15 17  1  0
 16 22  1  0
 17 16  1  0
 18 17  2  0
 19 13  2  0
 20 19  1  0
 20 15  2  0
 21 14  1  0
 22 12  1  0
 24 26  2  0
 25 24  1  0
 27 25  1  0
 28 37  2  0
 28 33  1  0
 29 25  1  0
 29 33  1  0
 30 29  1  0
 31 32  1  0
 31 30  1  0
 32 28  1  0
 33 34  2  0
 34 35  1  0
 36 35  2  0
 37 36  1  0
 38 12  1  0
 38 43  1  0
 38 39  1  0
 39 42  1  1
 39 40  1  0
 41 39  1  0
 43 46  1  0
 44 48  1  0
 44 43  1  0
 45 44  2  0
 48 47  1  0
 50 48  1  0
 50 51  1  0
 50 49  1  0
 52 53  1  0
 52 56  1  0
 52  2  1  0
 53 55  1  0
 54 55  1  0
 56 95  1  0
 56 65  1  0
 58 63  1  0
 59 60  1  0
 59 58  1  0
 61 60  1  0
 61 70  1  0
 61 62  1  0
 63 57  1  0
 63 62  1  0
 64 57  2  0
 65 57  1  0
 65 66  1  0
 67 68  2  0
 68 87  1  0
 69 68  1  0
 69 72  1  0
 70 67  1  0
 70 71  1  0
 71 69  2  0
 72 73  1  0
 73 74  2  0
 75 78  1  0
 75 74  1  0
 76 75  2  0
 77 76  1  0
 77 72  2  0
 78 79  1  0
 79 84  2  0
 79 80  1  0
 80 81  2  0
 81 82  1  0
 82 86  1  0
 83 82  2  0
 84 83  1  0
 85 84  1  0
 87 88  1  0
 88 91  1  0
 88 90  1  0
 89 87  2  0
 92 93  1  0
 92 67  1  0
 94 92  1  0
 96 97  1  0
 96 98  1  0
 97 99  1  0
 98100  1  0
 99101  1  0
100101  1  0
101 95  1  0
M  ISO  4  10 101  11 101  57 100  65 100
M  END
>  <TORSDO>  (12) 
F 26

>  <SCORE>  (12) 
-10.474

>  <name>  (12) 
11

>  <ligand_id>  (12) 
11

>  <original_smiles>  (12) 
[H]c1c([H])c([H])c2c(c1[H])C([H])([H])C([H])([H])C([H])([H])C2([H])N([H])C(=O)C1([H])N(C(=O)C([H])(N([H])C(=O)C([H])(N([H])C([H])([H])[H])C([H])([H])[H])C(C([H])([H])[H])(C([H])([H])[H])C([H])([H])[H])C([H])([H])c2c([H])c(OC([H])([H])C(C([H])([H])[H])(C([H])([H])[H])C([H])([H])[N+]([H])([H])C([H])(C([H])([H])[H])C([H])(C([H])([H])C([H])([H])C([H])([H])[H])C([H])(N([H])C(=O)N3C([H])([H])C([H])([H])C([H])([H])C([H])(n4nc(-c5c([H])c([H])c(Oc6c([H])c([H])c(F)c([H])c6F)c([H])c5[H])c(C(=O)N([H])[H])c4N([H])[H])C3([H])[H])C([H])([H])C3([H])C([H])([H])C([H])([H])C([H])([H])C([H])([H])C3([H])[H])c([H])c([H])c2C1([H])[H]

>  <smiles>  (12) 
[H]c1c([H])c([H])c2c(c1[H])C([H])([H])C([H])([H])C([H])([H])C2([H])N([H])C(=O)C1([H])N(C(=O)C([H])(N([H])C(=O)C([H])(N([H])C([H])([H])[H])C([H])([H])[H])C(C([H])([H])[H])(C([H])([H])[H])C([H])([H])[H])C([H])([H])c2c([H])c(OC([H])([H])C(C([H])([H])[H])(C([H])([H])[H])C([H])([H])[N+]([H])([H])C([H])(C([H])([H])[H])C([H])(C([H])([H])C([H])([H])C([H])([H])[H])C([H])(N([H])C(=O)N3C([H])([H])C([H])([H])C([H])([H])C([H])(n4nc(-c5c([H])c([H])c(Oc6c([H])c([H])c(F)c([H])c6F)c([H])c5[H])c(C(=O)N([H])[H])c4N([H])[H])C3([H])[H])C([H])([H])C3([H])C([H])([H])C([H])([H])C([H])([H])C([H])([H])C3([H])[H])c([H])c([H])c2C1([H])[H]

$$$$
12:0:0
     RDKit          3D

 94101  0  0  1  0  0  0  0  0999 V2000
  -28.7020  -21.1890   20.2970 C   0  0  0  0  0  3  0  0  0  0  0  0
  -30.1330  -23.0900   21.4130 C   0  0  0  0  0  1  0  0  0  0  0  0
  -29.0880  -22.9320   20.3050 C   0  0  0  0  0  3  0  0  0  0  0  0
  -28.0340  -24.3730   20.3760 C   0  0  0  0  0  2  0  0  0  0  0  0
  -28.2850  -25.9900   20.4260 O   0  0  0  0  0  0  0  0  0  0  0  0
  -24.6070  -31.9210   23.2770 C   0  0  0  0  0  0  0  0  0  0  0  0
  -27.2520  -27.0520   20.3660 C   0  0  0  0  0  0  0  0  0  0  0  0
  -23.4480  -30.4930   21.6400 C   0  0  0  0  0  3  0  0  0  0  0  0
  -24.9310  -28.8850   20.2680 C   0  0  0  0  0  0  0  0  0  0  0  0
  -26.0130  -30.7330   21.5290 C   0  0  0  0  0  2  0  0  0  0  0  0
  -26.1060  -29.3180   20.8950 C   0  0  0  0  0  0  0  0  0  0  0  0
  -27.2640  -28.4220   20.9180 C   0  0  0  0  0  3  0  0  0  0  0  0
  -26.0430  -26.7610   19.6960 C   0  0  0  0  0  3  0  0  0  0  0  0
  -24.9220  -27.6250   19.6500 C   0  0  0  0  0  3  0  0  0  0  0  0
  -23.7030  -29.7910   20.2790 C   0  0  0  0  0  2  0  0  0  0  0  0
  -24.7090  -31.0760   22.2020 N   0  0  0  0  0  0  0  0  0  0  0  0
  -23.5060  -32.2090   23.7760 O   0  0  0  0  0  0  0  0  0  0  0  0
  -22.7460  -29.5060   22.6080 C   0  0  0  0  0  0  0  0  0  0  0  0
  -21.4190  -29.3330   22.4630 N   0  0  0  0  0  0  0  0  0  0  0  0
  -23.4000  -28.8960   23.4570 O   0  0  0  0  0  0  0  0  0  0  0  0
  -20.9440  -29.8740   21.7550 H   0  0  0  0  0  0  0  0  0  0  0  0
  -18.0310  -28.1270   22.9410 C   0  0  0  0  0  0  0  0  0  0  0  0
  -20.5880  -28.4020   23.2340 C   0  0  0  0  0  3  0  0  0  0  0  0
  -20.6990  -26.9640   22.6750 C   0  0  0  0  0  2  0  0  0  0  0  0
  -19.6100  -26.6280   21.6500 C   0  0  0  0  0  2  0  0  0  0  0  0
  -18.2210  -26.7750   22.2770 C   0  0  0  0  0  2  0  0  0  0  0  0
  -19.1420  -28.8990   23.3740 C   0  0  0  0  0  0  0  0  0  0  0  0
  -18.9100  -30.1640   23.9570 C   0  0  0  0  0  3  0  0  0  0  0  0
  -17.6010  -30.6580   24.1100 C   0  0  0  0  0  3  0  0  0  0  0  0
  -16.5050  -29.8840   23.6910 C   0  0  0  0  0  3  0  0  0  0  0  0
  -16.7200  -28.6200   23.1120 C   0  0  0  0  0  3  0  0  0  0  0  0
  -25.8620  -32.5800   23.9220 C   0  0  0  0  0  3  0  0  0  0  0  0
  -25.5360  -33.9880   24.2110 N   0  0  0  0  0  0  0  0  0  0  0  0
  -25.8790  -35.0300   23.4430 C   0  0  0  0  0  0  0  0  0  0  0  0
  -26.5670  -34.9090   22.4260 O   0  0  0  0  0  0  0  0  0  0  0  0
  -24.9320  -34.1540   25.0020 H   0  0  0  0  0  0  0  0  0  0  0  0
  -24.1640  -36.8260   23.0190 C   0  0  0  0  0  1  0  0  0  0  0  0
  -25.3810  -36.4280   23.8680 C   0  0  0  0  0  3  0  0  0  0  0  0
  -27.4870  -37.3340   24.7510 C   0  0  0  0  0  1  0  0  0  0  0  0
  -26.4170  -37.4800   23.7670 N   0  0  0  0  0  0  0  0  0  0  0  0
  -26.0050  -38.4010   23.8850 H   0  0  0  0  0  0  0  0  0  0  0  0
  -26.3370  -31.8510   25.2390 C   0  0  1  0  0  0  0  0  0  0  0  0
  -25.2100  -31.6440   26.2780 C   0  0  0  0  0  1  0  0  0  0  0  0
  -26.9380  -30.4630   24.9190 C   0  0  0  0  0  1  0  0  0  0  0  0
  -27.4580  -32.6740   25.9150 C   0  0  0  0  0  1  0  0  0  0  0  0
  -27.4930  -21.0510   19.3430 C   0  0  0  0  0  2  0  0  0  0  0  0
  -27.8530  -21.1910   17.8470 C   0  0  0  0  0  2  0  0  0  0  0  0
  -27.2500  -20.0640   17.0590 C   0  0  0  0  0  0  0  0  0  0  0  0
  -28.0490  -19.1400   16.5090 N   0  0  0  0  0  4  0  0  0  0  0  0
  -25.9200  -19.9770   16.9180 N   0  0  0  0  0  0  0  0  0  0  0  0
  -29.0540  -19.2130   16.6010 H   0  0  0  0  0  0  0  0  0  0  0  0
  -27.7080  -18.3570   15.9690 H   0  0  0  0  0  0  0  0  0  0  0  0
  -25.3150  -20.6730   17.3350 H   0  0  0  0  0  0  0  0  0  0  0  0
  -25.4690  -19.2470   16.3850 H   0  0  0  0  0  0  0  0  0  0  0  0
  -29.6620  -19.7090   19.9790 C   0  0  0  0  0  2  0  0  0  0  0  0
  -29.7720  -18.1030   20.7380 C   0  0  0  0  0  2  0  0  0  0  0  0
  -30.4980  -15.2900   20.2080 C   0  0  0  0  0  0  0  0  0  0  0  0
  -30.4320  -12.9050   19.2210 C   0  0  0  0  0  2  0  0  0  0  0  0
  -29.4720  -12.7530   18.0170 C   0  0  0  0  0  2  0  0  0  0  0  0
  -28.0310  -12.4900   18.4930 C   0  0  0  0  0  2  0  0  0  0  0  0
  -27.6170  -13.4220   19.6610 C   0  0  0  0  0  3  0  0  0  0  0  0
  -28.7000  -13.5060   20.7550 C   0  0  0  0  0  2  0  0  0  0  0  0
  -29.9130  -14.0080   20.0930 N   0  0  0  0  0  0  0  0  0  0  0  0
  -31.7300  -15.2990   20.0950 O   0  0  0  0  0  0  0  0  0  0  0  0
  -29.7110  -16.5350   20.2160 N   0  0  0  0  0  0  0  0  0  0  0  0
  -28.7530  -16.2870   20.0180 H   0  0  0  0  0  0  0  0  0  0  0  0
  -25.2560  -13.9760   20.4570 C   0  0  0  0  0  0  0  0  0  0  0  0
  -24.2020  -13.1940   20.8360 C   0  0  0  0  0  0  0  0  0  0  0  0
  -24.6730  -11.8470   20.7900 C   0  0  0  0  0  0  0  0  0  0  0  0
  -26.3000  -13.1060   20.1950 N   0  0  0  0  0  0  0  0  0  0  0  0
  -25.9610  -11.8180   20.4650 N   0  0  0  0  0  0  0  0  0  0  0  0
  -23.9560  -10.5800   20.9780 C   0  0  0  0  0  0  0  0  0  0  0  0
  -24.3850   -9.6210   21.9220 C   0  0  0  0  0  3  0  0  0  0  0  0
  -23.6660   -8.4180   22.0990 C   0  0  0  0  0  3  0  0  0  0  0  0
  -22.5040   -8.1670   21.3330 C   0  0  0  0  0  0  0  0  0  0  0  0
  -22.0940   -9.1140   20.3780 C   0  0  0  0  0  3  0  0  0  0  0  0
  -22.8130  -10.3080   20.1980 C   0  0  0  0  0  3  0  0  0  0  0  0
  -21.7550   -7.0180   21.4190 O   0  0  0  0  0  0  0  0  0  0  0  0
  -21.6740   -6.2980   22.5840 C   0  0  0  0  0  0  0  0  0  0  0  0
  -21.1610   -6.8590   23.7730 C   0  0  0  0  0  3  0  0  0  0  0  0
  -21.0350   -6.0630   24.9300 C   0  0  0  0  0  3  0  0  0  0  0  0
  -21.4080   -4.7070   24.8950 C   0  0  0  0  0  0  0  0  0  0  0  0
  -21.9110   -4.1440   23.7090 C   0  0  0  0  0  3  0  0  0  0  0  0
  -22.0420   -4.9380   22.5560 C   0  0  0  0  0  0  0  0  0  0  0  0
  -22.5090   -4.3850   21.4100 F   0  0  0  0  0  0  0  0  0  0  0  0
  -21.2780   -3.9410   26.0020 F   0  0  0  0  0  0  0  0  0  0  0  0
  -22.8040  -13.6630   21.1200 C   0  0  0  0  0  0  0  0  0  0  0  0
  -22.0840  -12.9560   21.9840 N   0  0  0  0  0  0  0  0  0  0  0  0
  -22.3620  -14.6900   20.6100 O   0  0  0  0  0  0  0  0  0  0  0  0
  -22.4560  -12.1250   22.4190 H   0  0  0  0  0  0  0  0  0  0  0  0
  -21.1440  -13.2480   22.2120 H   0  0  0  0  0  0  0  0  0  0  0  0
  -25.4090  -15.3490   20.2840 N   0  0  0  0  0  0  0  0  0  0  0  0
  -24.6390  -15.9960   20.4080 H   0  0  0  0  0  0  0  0  0  0  0  0
  -26.2460  -15.7980   19.9360 H   0  0  0  0  0  0  0  0  0  0  0  0
  1 46  1  0
  1  3  1  0
  3  4  1  0
  3  2  1  0
  4  5  1  0
  6 17  2  0
  7  5  1  0
  7 12  1  0
  8 16  1  0
  8 18  1  0
  9 15  1  0
  9 11  1  0
 10 16  1  0
 11 12  2  0
 11 10  1  0
 13  7  2  0
 14 13  1  0
 14  9  2  0
 15  8  1  0
 16  6  1  0
 18 20  2  0
 19 18  1  0
 21 19  1  0
 22 31  2  0
 22 27  1  0
 23 19  1  0
 23 27  1  0
 24 23  1  0
 25 26  1  0
 25 24  1  0
 26 22  1  0
 27 28  2  0
 28 29  1  0
 30 29  2  0
 31 30  1  0
 32  6  1  0
 32 33  1  0
 32 42  1  0
 33 36  1  0
 34 38  1  0
 34 33  1  0
 35 34  2  0
 38 37  1  0
 40 38  1  0
 40 41  1  0
 40 39  1  0
 42 45  1  1
 42 43  1  0
 44 42  1  0
 47 46  1  0
 48 47  1  0
 49 51  1  0
 49 48  2  0
 50 48  1  0
 50 53  1  0
 52 49  1  0
 54 50  1  0
 55  1  1  0
 55 56  1  0
 57 65  1  0
 58 63  1  0
 59 60  1  0
 59 58  1  0
 61 60  1  0
 61 70  1  0
 61 62  1  0
 63 57  1  0
 63 62  1  0
 64 57  2  0
 65 56  1  0
 66 65  1  0
 67 68  2  0
 68 87  1  0
 69 68  1  0
 69 72  1  0
 70 67  1  0
 70 71  1  0
 71 69  2  0
 72 73  1  0
 73 74  2  0
 75 78  1  0
 75 74  1  0
 76 75  2  0
 77 76  1  0
 77 72  2  0
 78 79  1  0
 79 80  1  0
 80 81  2  0
 82 81  1  0
 82 86  1  0
 83 82  2  0
 84 79  2  0
 84 83  1  0
 85 84  1  0
 87 88  1  0
 88 91  1  0
 88 90  1  0
 89 87  2  0
 92 93  1  0
 92 67  1  0
 94 92  1  0
M  ISO  4   4 101   5 101  57 100  65 100
M  END
>  <TORSDO>  (13) 
F 23

>  <SCORE>  (13) 
-14.582

>  <name>  (13) 
12

>  <ligand_id>  (13) 
12

>  <original_smiles>  (13) 
[H]c1c([H])c([H])c2c(c1[H])C([H])([H])C([H])([H])C([H])([H])C2([H])N([H])C(=O)C1([H])N(C(=O)C([H])(N([H])C(=O)C([H])(N([H])C([H])([H])[H])C([H])([H])[H])C(C([H])([H])[H])(C([H])([H])[H])C([H])([H])[H])C([H])([H])c2c([H])c(OC([H])([H])C([H])(C([H])([H])[H])C([H])(C([H])([H])C([H])([H])C(N([H])[H])=[N+]([H])[H])C([H])([H])C([H])([H])N([H])C(=O)N3C([H])([H])C([H])([H])C([H])([H])C([H])(n4nc(-c5c([H])c([H])c(Oc6c([H])c([H])c(F)c([H])c6F)c([H])c5[H])c(C(=O)N([H])[H])c4N([H])[H])C3([H])[H])c([H])c([H])c2C1([H])[H]

>  <smiles>  (13) 
[H]c1c([H])c([H])c2c(c1[H])C([H])([H])C([H])([H])C([H])([H])C2([H])N([H])C(=O)C1([H])N(C(=O)C([H])(N([H])C(=O)C([H])(N([H])C([H])([H])[H])C([H])([H])[H])C(C([H])([H])[H])(C([H])([H])[H])C([H])([H])[H])C([H])([H])c2c([H])c(OC([H])([H])C([H])(C([H])([H])[H])C([H])(C([H])([H])C([H])([H])C(N([H])[H])=[N+]([H])[H])C([H])([H])C([H])([H])N([H])C(=O)N3C([H])([H])C([H])([H])C([H])([H])C([H])(n4nc(-c5c([H])c([H])c(Oc6c([H])c([H])c(F)c([H])c6F)c([H])c5[H])c(C(=O)N([H])[H])c4N([H])[H])C3([H])[H])c([H])c([H])c2C1([H])[H]

$$$$
13:0:0
     RDKit          3D

104110  0  0  1  0  0  0  0  0999 V2000
  -28.4460  -21.3160   20.9560 C   0  0  0  0  0  3  0  0  0  0  0  0
  -29.6070  -22.1730   20.5210 N   0  0  0  0  0  4  0  0  0  0  0  0
  -30.3810  -21.5680   20.2980 H   0  0  0  0  0  0  0  0  0  0  0  0
  -29.3290  -22.5970   19.6560 H   0  0  0  0  0  0  0  0  0  0  0  0
  -30.2110  -23.3000   21.3480 C   0  0  0  0  0  2  0  0  0  0  0  0
  -29.4890  -24.3190   23.5530 C   0  0  0  0  0  1  0  0  0  0  0  0
  -29.3150  -24.4060   22.0320 C   0  0  0  0  0  3  0  0  0  0  0  0
  -29.6330  -25.9000   21.6340 C   0  0  0  0  0  2  0  0  0  0  0  0
  -29.1160  -26.3680   20.3730 O   0  0  0  0  0  0  0  0  0  0  0  0
  -24.6860  -31.8990   23.3170 C   0  0  0  0  0  0  0  0  0  0  0  0
  -27.9760  -27.1250   20.2450 C   0  0  0  0  0  0  0  0  0  0  0  0
  -23.4710  -30.0000   21.8790 C   0  0  0  0  0  3  0  0  0  0  0  0
  -25.4420  -28.2660   20.0760 C   0  0  0  0  0  0  0  0  0  0  0  0
  -26.5230  -30.4080   21.9570 C   0  0  0  0  0  3  0  0  0  0  0  0
  -26.7270  -29.0590   20.6900 C   0  0  0  0  0  0  0  0  0  0  0  0
  -27.9660  -28.4780   20.5850 C   0  0  0  0  0  3  0  0  0  0  0  0
  -26.8770  -26.4930   19.6180 C   0  0  0  0  0  3  0  0  0  0  0  0
  -25.6400  -27.0790   19.4160 C   0  0  0  0  0  3  0  0  0  0  0  0
  -23.7200  -28.6490   20.5690 C   0  0  0  0  0  3  0  0  0  0  0  0
  -24.8940  -30.8510   22.5150 N   0  0  0  0  0  0  0  0  0  0  0  0
  -23.5310  -32.2610   23.6030 O   0  0  0  0  0  0  0  0  0  0  0  0
  -22.4840  -29.4430   22.8090 C   0  0  0  0  0  0  0  0  0  0  0  0
  -21.3140  -29.1470   22.3200 N   0  0  0  0  0  0  0  0  0  0  0  0
  -22.7290  -29.1500   23.9420 O   0  0  0  0  0  0  0  0  0  0  0  0
  -21.0630  -29.4480   21.3950 H   0  0  0  0  0  0  0  0  0  0  0  0
  -17.9930  -28.3300   22.7380 C   0  0  0  0  0  0  0  0  0  0  0  0
  -20.4880  -28.2140   23.0380 C   0  0  0  0  0  3  0  0  0  0  0  0
  -20.4770  -26.8910   22.2620 C   0  0  0  0  0  2  0  0  0  0  0  0
  -19.4290  -26.9370   21.1870 C   0  0  0  0  0  2  0  0  0  0  0  0
  -18.0530  -27.1110   21.8270 C   0  0  0  0  0  2  0  0  0  0  0  0
  -19.1730  -28.8820   23.2690 C   0  0  0  0  0  0  0  0  0  0  0  0
  -19.1470  -30.1020   23.9750 C   0  0  0  0  0  3  0  0  0  0  0  0
  -17.9260  -30.7380   24.2350 C   0  0  0  0  0  3  0  0  0  0  0  0
  -16.7360  -30.1590   23.7630 C   0  0  0  0  0  3  0  0  0  0  0  0
  -16.7740  -28.9820   22.9910 C   0  0  0  0  0  3  0  0  0  0  0  0
  -25.8990  -32.6280   23.9480 C   0  0  0  0  0  3  0  0  0  0  0  0
  -25.4660  -34.0230   24.1420 N   0  0  0  0  0  0  0  0  0  0  0  0
  -25.8140  -35.0650   23.3790 C   0  0  0  0  0  0  0  0  0  0  0  0
  -26.5590  -34.9590   22.4060 O   0  0  0  0  0  0  0  0  0  0  0  0
  -24.7780  -34.1860   24.8600 H   0  0  0  0  0  0  0  0  0  0  0  0
  -24.0270  -36.7770   22.8970 C   0  0  0  0  0  1  0  0  0  0  0  0
  -25.2490  -36.4520   23.7710 C   0  0  0  0  0  3  0  0  0  0  0  0
  -27.3000  -37.4290   24.6850 C   0  0  0  0  0  1  0  0  0  0  0  0
  -26.2460  -37.5430   23.6820 N   0  0  0  0  0  0  0  0  0  0  0  0
  -25.8030  -38.4510   23.7970 H   0  0  0  0  0  0  0  0  0  0  0  0
  -26.3930  -32.0200   25.3370 C   0  0  1  0  0  0  0  0  0  0  0  0
  -25.2190  -31.5480   26.2380 C   0  0  0  0  0  1  0  0  0  0  0  0
  -27.4780  -30.8970   25.3180 C   0  0  0  0  0  1  0  0  0  0  0  0
  -27.1780  -33.1090   26.0990 C   0  0  0  0  0  1  0  0  0  0  0  0
  -27.0410  -22.2610   20.4040 C   0  0  0  0  0  3  0  0  0  0  0  0
  -26.2010  -23.8150   20.8530 C   0  0  0  0  0  2  0  0  0  0  0  0
  -24.6870  -24.4590   21.4970 C   0  0  0  0  0  3  0  0  0  0  0  0
  -23.4100  -25.1390   19.0930 C   0  0  0  0  0  1  0  0  0  0  0  0
  -22.1220  -24.1820   21.0550 C   0  0  0  0  0  1  0  0  0  0  0  0
  -23.5150  -24.3320   20.4230 C   0  0  0  0  0  3  0  0  0  0  0  0
  -24.4420  -25.9290   22.5040 C   0  0  0  0  0  2  0  0  0  0  0  0
  -25.3080  -28.4210   26.0970 C   0  0  0  0  0 15  0  0  0  0  0  0
  -24.0930  -24.6810   24.4050 C   0  0  0  0  0  1  0  0  0  0  0  0
  -22.3510  -25.9790   24.3170 C   0  0  0  0  0  1  0  0  0  0  0  0
  -23.9860  -26.3790   24.2580 C   0  0  0  0  0  3  0  0  0  0  0  0
  -27.5300  -22.5400   18.9360 C   0  0  0  0  0  2  0  0  0  0  0  0
  -27.5280  -22.0930   16.4630 C   0  0  0  0  0  1  0  0  0  0  0  0
  -26.0210  -20.6480   17.8850 C   0  0  0  0  0  1  0  0  0  0  0  0
  -27.3350  -21.4520   17.8430 C   0  0  0  0  0  3  0  0  0  0  0  0
  -28.6610  -19.5210   20.5920 C   0  0  0  0  0  3  0  0  0  0  0  0
  -29.8940  -18.1820   20.6950 C   0  0  0  0  0  3  0  0  0  0  0  0
  -30.6080  -15.2840   20.3430 C   0  0  0  0  0  0  0  0  0  0  0  0
  -30.6520  -12.8390   19.4090 C   0  0  0  0  0  2  0  0  0  0  0  0
  -29.7300  -12.6270   18.1770 C   0  0  0  0  0  2  0  0  0  0  0  0
  -28.2690  -12.3850   18.5950 C   0  0  0  0  0  2  0  0  0  0  0  0
  -27.8530  -13.3410   19.7390 C   0  0  0  0  0  3  0  0  0  0  0  0
  -28.8770  -13.4380   20.8820 C   0  0  0  0  0  2  0  0  0  0  0  0
  -30.0990  -13.9530   20.2720 N   0  0  0  0  0  0  0  0  0  0  0  0
  -31.8060  -15.3370   20.0240 O   0  0  0  0  0  0  0  0  0  0  0  0
  -29.7690  -16.4960   20.6130 N   0  0  0  0  0  0  0  0  0  0  0  0
  -28.8380  -16.1890   20.8510 H   0  0  0  0  0  0  0  0  0  0  0  0
  -25.5080  -13.9990   20.4520 C   0  0  0  0  0  0  0  0  0  0  0  0
  -24.4240  -13.2640   20.8250 C   0  0  0  0  0  0  0  0  0  0  0  0
  -24.8370  -11.8990   20.8110 C   0  0  0  0  0  0  0  0  0  0  0  0
  -26.5180  -13.0800   20.2270 N   0  0  0  0  0  0  0  0  0  0  0  0
  -26.1260  -11.8100   20.5050 N   0  0  0  0  0  0  0  0  0  0  0  0
  -24.0700  -10.6650   21.0150 C   0  0  0  0  0  0  0  0  0  0  0  0
  -24.4820   -9.6920   21.9500 C   0  0  0  0  0  3  0  0  0  0  0  0
  -23.7190   -8.5180   22.1370 C   0  0  0  0  0  3  0  0  0  0  0  0
  -22.5350   -8.3160   21.3890 C   0  0  0  0  0  0  0  0  0  0  0  0
  -22.1490   -9.2780   20.4400 C   0  0  0  0  0  3  0  0  0  0  0  0
  -22.9080  -10.4440   20.2530 C   0  0  0  0  0  3  0  0  0  0  0  0
  -21.7420   -7.2000   21.4870 O   0  0  0  0  0  0  0  0  0  0  0  0
  -21.6880   -6.4530   22.6360 C   0  0  0  0  0  0  0  0  0  0  0  0
  -21.2990   -7.0120   23.8740 C   0  0  0  0  0  3  0  0  0  0  0  0
  -21.1890   -6.1890   25.0140 C   0  0  0  0  0  3  0  0  0  0  0  0
  -21.4630   -4.8120   24.9170 C   0  0  0  0  0  0  0  0  0  0  0  0
  -21.8460   -4.2530   23.6850 C   0  0  0  0  0  3  0  0  0  0  0  0
  -21.9570   -5.0720   22.5470 C   0  0  0  0  0  0  0  0  0  0  0  0
  -22.3060   -4.5270   21.3570 F   0  0  0  0  0  0  0  0  0  0  0  0
  -21.3550   -4.0190   26.0100 F   0  0  0  0  0  0  0  0  0  0  0  0
  -23.0460  -13.7990   21.0810 C   0  0  0  0  0  0  0  0  0  0  0  0
  -22.3080  -13.1490   21.9710 N   0  0  0  0  0  0  0  0  0  0  0  0
  -22.6360  -14.8110   20.5220 O   0  0  0  0  0  0  0  0  0  0  0  0
  -22.6650  -12.3300   22.4340 H   0  0  0  0  0  0  0  0  0  0  0  0
  -21.3810  -13.4820   22.1880 H   0  0  0  0  0  0  0  0  0  0  0  0
  -25.7070  -15.3590   20.2520 N   0  0  0  0  0  0  0  0  0  0  0  0
  -24.9100  -15.9840   20.2970 H   0  0  0  0  0  0  0  0  0  0  0  0
  -26.4730  -15.7350   19.7050 H   0  0  0  0  0  0  0  0  0  0  0  0
  1 65  1  0
  2  1  1  0
  2  5  1  0
  3  2  1  0
  4  2  1  0
  5  7  1  0
  7  6  1  0
  8  7  1  0
  9  8  1  0
 10 21  2  0
 11  9  1  0
 11 16  2  0
 12 20  1  0
 12 22  1  0
 13 19  2  0
 13 15  1  0
 14 20  1  0
 15 14  2  0
 16 15  1  0
 17 11  1  0
 18 17  2  0
 18 13  1  0
 19 12  1  0
 20 10  1  0
 22 24  2  0
 23 22  1  0
 25 23  1  0
 26 35  2  0
 26 31  1  0
 27 23  1  0
 27 31  1  0
 28 27  1  0
 29 30  1  0
 29 28  1  0
 30 26  1  0
 31 32  2  0
 32 33  1  0
 34 33  2  0
 35 34  1  0
 36 10  1  0
 36 37  1  0
 36 46  1  0
 37 40  1  0
 38 42  1  0
 38 37  1  0
 39 38  2  0
 42 41  1  0
 44 42  1  0
 44 45  1  0
 44 43  1  0
 46 49  1  1
 46 47  1  0
 48 46  1  0
 50 61  1  0
 50 51  1  0
 50  1  1  0
 52 51  1  0
 52 56  1  0
 53 55  1  0
 55 54  1  0
 55 52  1  0
 56 60  1  0
 60 59  1  0
 60 58  1  0
 62 64  1  0
 64 63  1  0
 64 61  1  0
 65 66  2  0
 67 75  1  0
 68 73  1  0
 69 70  1  0
 69 68  1  0
 71 70  1  0
 71 80  1  0
 71 72  1  0
 73 67  1  0
 73 72  1  0
 74 67  2  0
 75 66  1  0
 75 76  1  0
 77 78  2  0
 78 97  1  0
 79 78  1  0
 79 82  1  0
 80 77  1  0
 80 81  1  0
 81 79  2  0
 82 83  1  0
 83 84  2  0
 85 88  1  0
 85 84  1  0
 86 85  2  0
 87 86  1  0
 87 82  2  0
 88 89  1  0
 89 90  1  0
 90 91  2  0
 92 91  1  0
 92 96  1  0
 93 92  2  0
 94 89  2  0
 94 93  1  0
 95 94  1  0
 97 98  1  0
 98101  1  0
 98100  1  0
 99 97  2  0
102103  1  0
102 77  1  0
104102  1  0
M  ISO  4   8 101   9 101  67 100  75 100
M  END
>  <TORSDO>  (14) 
F 30

>  <SCORE>  (14) 
-11.860

>  <name>  (14) 
13

>  <ligand_id>  (14) 
13

>  <original_smiles>  (14) 
[H]c1c([H])c([H])c2c(c1[H])C([H])([H])C([H])([H])C([H])([H])C2([H])N([H])C(=O)C1([H])N(C(=O)C([H])(N([H])C(=O)C([H])(N([H])C([H])([H])[H])C([H])([H])[H])C(C([H])([H])[H])(C([H])([H])[H])C([H])([H])[H])C([H])([H])c2c([H])c(OC([H])([H])C([H])(C([H])([H])[H])C([H])([H])[N+]([H])([H])C([H])(C([H])([H])C([H])([H])N([H])C(=O)N3C([H])([H])C([H])([H])C([H])([H])C([H])(n4nc(-c5c([H])c([H])c(Oc6c([H])c([H])c(F)c([H])c6F)c([H])c5[H])c(C(=O)N([H])[H])c4N([H])[H])C3([H])[H])C([H])(C([H])([H])C([H])(C([H])([H])[H])C([H])([H])[H])C([H])([H])C([H])(C([H])([H])C(C([H])([H])[H])(C([H])([H])[H])C([H])([H])[H])C([H])(C([H])([H])[H])C([H])([H])[H])c([H])c([H])c2C1([H])[H]

>  <smiles>  (14) 
[H]c1c([H])c([H])c2c(c1[H])C([H])([H])C([H])([H])C([H])([H])C2([H])N([H])C(=O)C1([H])N(C(=O)C([H])(N([H])C(=O)C([H])(N([H])C([H])([H])[H])C([H])([H])[H])C(C([H])([H])[H])(C([H])([H])[H])C([H])([H])[H])C([H])([H])c2c([H])c(OC([H])([H])C([H])(C([H])([H])[H])C([H])([H])[N+]([H])([H])C([H])(C([H])([H])C([H])([H])N([H])C(=O)N3C([H])([H])C([H])([H])C([H])([H])C([H])(n4nc(-c5c([H])c([H])c(Oc6c([H])c([H])c(F)c([H])c6F)c([H])c5[H])c(C(=O)N([H])[H])c4N([H])[H])C3([H])[H])C([H])(C([H])([H])C([H])(C([H])([H])[H])C([H])([H])[H])C([H])([H])C([H])(C([H])([H])C(C([H])([H])[H])(C([H])([H])[H])C([H])([H])[H])C([H])(C([H])([H])[H])C([H])([H])[H])c([H])c([H])c2C1([H])[H]

$$$$
14:0:0
     RDKit          3D

 98105  0  0  1  0  0  0  0  0999 V2000
  -29.6450  -19.7600   19.7720 C   0  0  0  0  0  2  0  0  0  0  0  0
  -28.6830  -20.8850   20.2370 C   0  0  0  0  0  2  0  0  0  0  0  0
  -28.8630  -22.2480   19.5080 C   0  0  0  0  0  2  0  0  0  0  0  0
  -28.2140  -23.3790   20.2270 N   0  0  0  0  0  4  0  0  0  0  0  0
  -28.6670  -23.4750   21.1240 H   0  0  0  0  0  0  0  0  0  0  0  0
  -27.2540  -23.1260   20.4010 H   0  0  0  0  0  0  0  0  0  0  0  0
  -28.2480  -24.7030   19.5310 C   0  0  0  0  0  2  0  0  0  0  0  0
  -27.7390  -25.8570   20.4330 C   0  0  0  0  0  2  0  0  0  0  0  0
  -27.8810  -27.1690   19.8420 O   0  0  0  0  0  0  0  0  0  0  0  0
  -24.5400  -32.2780   23.5220 C   0  0  0  0  0  0  0  0  0  0  0  0
  -26.7690  -27.9720   19.9660 C   0  0  0  0  0  0  0  0  0  0  0  0
  -23.1620  -31.0350   21.8870 C   0  0  0  0  0  3  0  0  0  0  0  0
  -24.4450  -29.5560   20.2520 C   0  0  0  0  0  0  0  0  0  0  0  0
  -25.6760  -31.3260   21.5160 C   0  0  0  0  0  2  0  0  0  0  0  0
  -25.6630  -30.0000   20.7820 C   0  0  0  0  0  0  0  0  0  0  0  0
  -26.8320  -29.2170   20.6330 C   0  0  0  0  0  3  0  0  0  0  0  0
  -25.5360  -27.5460   19.4270 C   0  0  0  0  0  3  0  0  0  0  0  0
  -24.3760  -28.3290   19.5700 C   0  0  0  0  0  3  0  0  0  0  0  0
  -23.2390  -30.4460   20.4540 C   0  0  0  0  0  2  0  0  0  0  0  0
  -24.4820  -31.5570   22.3670 N   0  0  0  0  0  0  0  0  0  0  0  0
  -23.5130  -32.5440   24.1630 O   0  0  0  0  0  0  0  0  0  0  0  0
  -22.5470  -29.9710   22.8250 C   0  0  0  0  0  0  0  0  0  0  0  0
  -21.2420  -29.7010   22.6540 N   0  0  0  0  0  0  0  0  0  0  0  0
  -23.2430  -29.3890   23.6610 O   0  0  0  0  0  0  0  0  0  0  0  0
  -20.7390  -30.2220   21.9490 H   0  0  0  0  0  0  0  0  0  0  0  0
  -17.9860  -28.1610   22.9220 C   0  0  0  0  0  0  0  0  0  0  0  0
  -20.4660  -28.7080   23.3960 C   0  0  0  0  0  3  0  0  0  0  0  0
  -20.7730  -27.2760   22.8990 C   0  0  0  0  0  2  0  0  0  0  0  0
  -19.8070  -26.7970   21.8100 C   0  0  0  0  0  2  0  0  0  0  0  0
  -18.3660  -26.8150   22.3260 C   0  0  0  0  0  2  0  0  0  0  0  0
  -18.9750  -29.0560   23.4110 C   0  0  0  0  0  0  0  0  0  0  0  0
  -18.5740  -30.3080   23.9220 C   0  0  0  0  0  3  0  0  0  0  0  0
  -17.2150  -30.6740   23.9460 C   0  0  0  0  0  3  0  0  0  0  0  0
  -16.2390  -29.7770   23.4780 C   0  0  0  0  0  3  0  0  0  0  0  0
  -16.6230  -28.5220   22.9750 C   0  0  0  0  0  3  0  0  0  0  0  0
  -25.8910  -32.8240   24.0810 C   0  0  0  0  0  3  0  0  0  0  0  0
  -25.6910  -34.2410   24.4160 N   0  0  0  0  0  0  0  0  0  0  0  0
  -26.0600  -35.2670   23.6370 C   0  0  0  0  0  0  0  0  0  0  0  0
  -26.6770  -35.1160   22.5800 O   0  0  0  0  0  0  0  0  0  0  0  0
  -25.1460  -34.4380   25.2420 H   0  0  0  0  0  0  0  0  0  0  0  0
  -24.4360  -37.1650   23.3510 C   0  0  0  0  0  1  0  0  0  0  0  0
  -25.6850  -36.6860   24.1070 C   0  0  0  0  0  3  0  0  0  0  0  0
  -27.9080  -37.4370   24.8310 C   0  0  0  0  0  1  0  0  0  0  0  0
  -26.7760  -37.6700   23.9370 N   0  0  0  0  0  0  0  0  0  0  0  0
  -26.4370  -38.6160   24.0900 H   0  0  0  0  0  0  0  0  0  0  0  0
  -26.4140  -32.0240   25.3370 C   0  0  1  0  0  0  0  0  0  0  0  0
  -25.3480  -31.8320   26.4400 C   0  0  0  0  0  1  0  0  0  0  0  0
  -26.9200  -30.6240   24.9180 C   0  0  0  0  0  1  0  0  0  0  0  0
  -27.6220  -32.7640   25.9610 C   0  0  0  0  0  1  0  0  0  0  0  0
  -29.3450  -18.3630   20.3880 C   0  0  0  0  0  2  0  0  0  0  0  0
  -30.5270  -17.3390   20.3360 C   0  0  0  0  0  3  0  0  0  0  0  0
  -30.8430  -14.8780   20.6410 C   0  0  0  0  0  0  0  0  0  0  0  0
  -30.8470  -12.4160   20.5540 C   0  0  0  0  0  2  0  0  0  0  0  0
  -30.1250  -11.9250   19.2820 C   0  0  0  0  0  2  0  0  0  0  0  0
  -28.6110  -11.7980   19.5320 C   0  0  0  0  0  2  0  0  0  0  0  0
  -28.0060  -13.0630   20.2000 C   0  0  0  0  0  3  0  0  0  0  0  0
  -28.8560  -13.5170   21.4090 C   0  0  0  0  0  2  0  0  0  0  0  0
  -30.2420  -13.6970   20.9480 N   0  0  0  0  0  0  0  0  0  0  0  0
  -32.0080  -14.9490   20.2460 O   0  0  0  0  0  0  0  0  0  0  0  0
  -30.0720  -15.9800   20.7100 N   0  0  0  0  0  0  0  0  0  0  0  0
  -29.1020  -15.8400   20.9530 H   0  0  0  0  0  0  0  0  0  0  0  0
  -25.6030  -13.7880   20.7580 C   0  0  0  0  0  0  0  0  0  0  0  0
  -24.4650  -13.0710   21.0160 C   0  0  0  0  0  0  0  0  0  0  0  0
  -24.8450  -11.6940   20.9550 C   0  0  0  0  0  0  0  0  0  0  0  0
  -26.6070  -12.8530   20.5660 N   0  0  0  0  0  0  0  0  0  0  0  0
  -26.1510  -11.5870   20.7400 N   0  0  0  0  0  0  0  0  0  0  0  0
  -24.0320  -10.4740   21.0350 C   0  0  0  0  0  0  0  0  0  0  0  0
  -24.2950   -9.4760   22.0000 C   0  0  0  0  0  3  0  0  0  0  0  0
  -23.4890   -8.3200   22.0700 C   0  0  0  0  0  3  0  0  0  0  0  0
  -22.4070   -8.1530   21.1740 C   0  0  0  0  0  0  0  0  0  0  0  0
  -22.1630   -9.1390   20.2020 C   0  0  0  0  0  3  0  0  0  0  0  0
  -22.9690  -10.2880   20.1300 C   0  0  0  0  0  3  0  0  0  0  0  0
  -21.5860   -7.0500   21.1510 O   0  0  0  0  0  0  0  0  0  0  0  0
  -21.2830   -6.3560   22.2930 C   0  0  0  0  0  0  0  0  0  0  0  0
  -20.6510   -6.9740   23.3950 C   0  0  0  0  0  3  0  0  0  0  0  0
  -20.2940   -6.2070   24.5220 C   0  0  0  0  0  3  0  0  0  0  0  0
  -20.5560   -4.8240   24.5460 C   0  0  0  0  0  0  0  0  0  0  0  0
  -21.1810   -4.2070   23.4480 C   0  0  0  0  0  3  0  0  0  0  0  0
  -21.5390   -4.9710   22.3250 C   0  0  0  0  0  0  0  0  0  0  0  0
  -22.1200   -4.3670   21.2590 F   0  0  0  0  0  0  0  0  0  0  0  0
  -20.2060   -4.0860   25.6260 F   0  0  0  0  0  0  0  0  0  0  0  0
  -23.0830  -13.6240   21.2090 C   0  0  0  0  0  0  0  0  0  0  0  0
  -22.2600  -12.9520   22.0070 N   0  0  0  0  0  0  0  0  0  0  0  0
  -22.7390  -14.6850   20.6890 O   0  0  0  0  0  0  0  0  0  0  0  0
  -22.5510  -12.0940   22.4530 H   0  0  0  0  0  0  0  0  0  0  0  0
  -21.3290  -13.3010   22.1770 H   0  0  0  0  0  0  0  0  0  0  0  0
  -25.8630  -15.1510   20.6560 N   0  0  0  0  0  0  0  0  0  0  0  0
  -25.1310  -15.8480   20.7270 H   0  0  0  0  0  0  0  0  0  0  0  0
  -26.7620  -15.5450   20.4080 H   0  0  0  0  0  0  0  0  0  0  0  0
  -31.7690  -17.7200   21.2130 C   0  0  0  0  0  3  0  0  0  0  0  0
  -31.5870  -17.2170   22.5890 N   0  0  0  0  0  4  0  0  0  0  0  0
  -30.8350  -17.6930   23.0540 H   0  0  0  0  0  0  0  0  0  0  0  0
  -32.4280  -17.3530   23.1230 H   0  0  0  0  0  0  0  0  0  0  0  0
  -31.3840  -16.2350   22.5760 H   0  0  0  0  0  0  0  0  0  0  0  0
  -32.2590  -19.7970   19.7580 C   0  0  0  0  0  1  0  0  0  0  0  0
  -32.1720  -19.2290   21.1930 C   0  0  0  0  0  3  0  0  0  0  0  0
  -34.7910  -19.2100   21.2380 C   0  0  0  0  0  1  0  0  0  0  0  0
  -33.4790  -19.5660   21.9610 C   0  0  0  0  0  2  0  0  0  0  0  0
  1  2  1  0
  1 50  1  0
  3  4  1  0
  3  2  1  0
  4  6  1  0
  4  5  1  0
  7  4  1  0
  7  8  1  0
  9 11  1  0
  9  8  1  0
 10 21  2  0
 11 16  1  0
 12 20  1  0
 12 22  1  0
 13 19  1  0
 13 15  1  0
 14 20  1  0
 15 14  1  0
 16 15  2  0
 17 18  1  0
 17 11  2  0
 18 13  2  0
 19 12  1  0
 20 10  1  0
 22 24  2  0
 23 22  1  0
 25 23  1  0
 26 35  2  0
 26 31  1  0
 27 23  1  0
 27 31  1  0
 28 27  1  0
 29 30  1  0
 29 28  1  0
 30 26  1  0
 31 32  2  0
 32 33  1  0
 34 33  2  0
 35 34  1  0
 36 10  1  0
 36 37  1  0
 36 46  1  0
 37 40  1  0
 38 42  1  0
 38 37  1  0
 39 38  2  0
 42 41  1  0
 44 45  1  0
 44 42  1  0
 44 43  1  0
 46 49  1  1
 46 47  1  0
 48 46  1  0
 51 50  1  0
 51 60  1  0
 51 90  1  0
 52 60  1  0
 52 58  1  0
 53 58  1  0
 54 55  1  0
 54 53  1  0
 56 55  1  0
 56 65  1  0
 56 57  1  0
 58 57  1  0
 59 52  2  0
 60 61  1  0
 62 63  2  0
 63 82  1  0
 64 63  1  0
 64 67  1  0
 65 66  1  0
 65 62  1  0
 66 64  2  0
 67 68  1  0
 68 69  2  0
 70 69  1  0
 71 70  2  0
 72 71  1  0
 72 67  2  0
 73 70  1  0
 73 74  1  0
 74 79  2  0
 74 75  1  0
 75 76  2  0
 76 77  1  0
 77 81  1  0
 78 77  2  0
 79 78  1  0
 80 79  1  0
 82 83  1  0
 83 86  1  0
 83 85  1  0
 84 82  2  0
 87 88  1  0
 87 62  1  0
 89 87  1  0
 90 91  1  0
 91 92  1  0
 91 93  1  0
 94 91  1  0
 96 95  1  0
 96 90  1  0
 96 98  1  0
 97 98  1  0
M  ISO  4   8 101   9 101  52 100  60 100
M  END
>  <TORSDO>  (15) 
F 27

>  <SCORE>  (15) 
-9.815

>  <name>  (15) 
14

>  <ligand_id>  (15) 
14

>  <original_smiles>  (15) 
[H]c1c([H])c([H])c2c(c1[H])C([H])([H])C([H])([H])C([H])([H])C2([H])N([H])C(=O)C1([H])N(C(=O)C([H])(N([H])C(=O)C([H])(N([H])C([H])([H])[H])C([H])([H])[H])C(C([H])([H])[H])(C([H])([H])[H])C([H])([H])[H])C([H])([H])c2c([H])c(OC([H])([H])C([H])([H])[N+]([H])([H])C([H])([H])C([H])([H])C([H])([H])C([H])([H])C([H])(N([H])C(=O)N3C([H])([H])C([H])([H])C([H])([H])C([H])(n4nc(-c5c([H])c([H])c(Oc6c([H])c([H])c(F)c([H])c6F)c([H])c5[H])c(C(=O)N([H])[H])c4N([H])[H])C3([H])[H])C([H])(C([H])(C([H])([H])[H])C([H])([H])C([H])([H])[H])[N+]([H])([H])[H])c([H])c([H])c2C1([H])[H]

>  <smiles>  (15) 
[H]c1c([H])c([H])c2c(c1[H])C([H])([H])C([H])([H])C([H])([H])C2([H])N([H])C(=O)C1([H])N(C(=O)C([H])(N([H])C(=O)C([H])(N([H])C([H])([H])[H])C([H])([H])[H])C(C([H])([H])[H])(C([H])([H])[H])C([H])([H])[H])C([H])([H])c2c([H])c(OC([H])([H])C([H])([H])[N+]([H])([H])C([H])([H])C([H])([H])C([H])([H])C([H])([H])C([H])(N([H])C(=O)N3C([H])([H])C([H])([H])C([H])([H])C([H])(n4nc(-c5c([H])c([H])c(Oc6c([H])c([H])c(F)c([H])c6F)c([H])c5[H])c(C(=O)N([H])[H])c4N([H])[H])C3([H])[H])C([H])(C([H])(C([H])([H])[H])C([H])([H])C([H])([H])[H])[N+]([H])([H])[H])c([H])c([H])c2C1([H])[H]

$$$$
15:0:0
     RDKit          3D

100107  0  0  1  0  0  0  0  0999 V2000
  -29.7100  -19.0030   21.1870 C   0  0  0  0  0  3  0  0  0  0  0  0
  -28.9040  -18.6830   19.9050 C   0  0  0  0  0  2  0  0  0  0  0  0
  -27.4680  -19.2400   19.9090 C   0  0  0  0  0  2  0  0  0  0  0  0
  -26.5270  -18.4900   18.9470 C   0  0  0  0  0  2  0  0  0  0  0  0
  -25.1980  -19.2170   18.7170 C   0  0  0  0  0  0  0  0  0  0  0  0
  -24.0790  -18.5450   18.9580 N   0  0  0  0  0  0  0  0  0  0  0  0
  -25.1640  -20.3780   18.3170 O   0  0  0  0  0  0  0  0  0  0  0  0
  -24.1120  -17.5860   19.2760 H   0  0  0  0  0  0  0  0  0  0  0  0
  -23.1800  -18.9870   18.8220 H   0  0  0  0  0  0  0  0  0  0  0  0
  -29.5850  -20.5200   21.6230 C   0  0  0  0  0  2  0  0  0  0  0  0
  -29.6740  -21.6990   20.5950 C   0  0  0  0  0  2  0  0  0  0  0  0
  -29.2480  -23.0690   21.2270 C   0  0  0  0  0  2  0  0  0  0  0  0
  -29.3970  -24.3850   20.3860 C   0  0  0  0  0  3  0  0  0  0  0  0
  -28.1110  -25.2580   20.2710 C   0  0  0  0  0  3  0  0  0  0  0  0
  -28.3250  -26.6450   19.8870 O   0  0  0  0  0  0  0  0  0  0  0  0
  -24.5440  -31.7880   23.1100 C   0  0  0  0  0  0  0  0  0  0  0  0
  -27.1810  -27.4280   19.8840 C   0  0  0  0  0  0  0  0  0  0  0  0
  -23.3320  -30.4290   21.4420 C   0  0  0  0  0  3  0  0  0  0  0  0
  -24.7830  -28.9500   19.9530 C   0  0  0  0  0  0  0  0  0  0  0  0
  -25.8580  -30.8070   21.2290 C   0  0  0  0  0  2  0  0  0  0  0  0
  -25.9480  -29.4560   20.5440 C   0  0  0  0  0  0  0  0  0  0  0  0
  -27.1530  -28.7060   20.5030 C   0  0  0  0  0  3  0  0  0  0  0  0
  -25.9980  -26.9600   19.2660 C   0  0  0  0  0  3  0  0  0  0  0  0
  -24.8050  -27.7040   19.3080 C   0  0  0  0  0  3  0  0  0  0  0  0
  -23.5340  -29.8010   20.0380 C   0  0  0  0  0  2  0  0  0  0  0  0
  -24.5980  -31.0200   21.9850 N   0  0  0  0  0  0  0  0  0  0  0  0
  -23.4660  -32.0350   23.6690 O   0  0  0  0  0  0  0  0  0  0  0  0
  -22.7000  -29.3700   22.3730 C   0  0  0  0  0  0  0  0  0  0  0  0
  -21.3720  -29.1940   22.2700 N   0  0  0  0  0  0  0  0  0  0  0  0
  -23.4000  -28.7120   23.1490 O   0  0  0  0  0  0  0  0  0  0  0  0
  -20.8680  -29.7810   21.6210 H   0  0  0  0  0  0  0  0  0  0  0  0
  -18.0050  -27.9980   22.8190 C   0  0  0  0  0  0  0  0  0  0  0  0
  -20.5730  -28.2280   23.0240 C   0  0  0  0  0  3  0  0  0  0  0  0
  -20.6470  -26.8220   22.3830 C   0  0  0  0  0  2  0  0  0  0  0  0
  -19.5120  -26.5510   21.3900 C   0  0  0  0  0  2  0  0  0  0  0  0
  -18.1510  -26.6790   22.0800 C   0  0  0  0  0  2  0  0  0  0  0  0
  -19.1430  -28.7330   23.2480 C   0  0  0  0  0  0  0  0  0  0  0  0
  -18.9530  -29.9710   23.8990 C   0  0  0  0  0  3  0  0  0  0  0  0
  -17.6590  -30.4730   24.1290 C   0  0  0  0  0  3  0  0  0  0  0  0
  -16.5370  -29.7360   23.7140 C   0  0  0  0  0  3  0  0  0  0  0  0
  -16.7100  -28.5000   23.0650 C   0  0  0  0  0  3  0  0  0  0  0  0
  -25.8290  -32.4130   23.7350 C   0  0  0  0  0  3  0  0  0  0  0  0
  -26.3590  -31.6180   24.9920 C   0  0  1  0  0  0  0  0  0  0  0  0
  -25.2760  -31.3630   26.0670 C   0  0  0  0  0  1  0  0  0  0  0  0
  -26.9390  -30.2480   24.5690 C   0  0  0  0  0  1  0  0  0  0  0  0
  -27.5180  -32.3990   25.6540 C   0  0  0  0  0  1  0  0  0  0  0  0
  -25.5180  -33.8020   24.0940 N   0  0  0  0  0  0  0  0  0  0  0  0
  -25.8380  -34.8700   23.3510 C   0  0  0  0  0  0  0  0  0  0  0  0
  -26.5010  -34.7890   22.3130 O   0  0  0  0  0  0  0  0  0  0  0  0
  -24.9300  -33.9410   24.9030 H   0  0  0  0  0  0  0  0  0  0  0  0
  -24.1030  -36.6640   23.0350 C   0  0  0  0  0  1  0  0  0  0  0  0
  -25.3470  -36.2480   23.8360 C   0  0  0  0  0  3  0  0  0  0  0  0
  -27.4750  -37.1280   24.6870 C   0  0  0  0  0  1  0  0  0  0  0  0
  -26.3760  -37.3060   23.7410 N   0  0  0  0  0  0  0  0  0  0  0  0
  -25.9650  -38.2230   23.8990 H   0  0  0  0  0  0  0  0  0  0  0  0
  -31.1150  -18.2680   21.1770 C   0  0  0  0  0  3  0  0  0  0  0  0
  -31.1540  -16.8970   21.9670 C   0  0  0  0  0  2  0  0  0  0  0  0
  -31.0420  -14.7550   20.6390 C   0  0  0  0  0  0  0  0  0  0  0  0
  -30.6940  -12.6830   19.3280 C   0  0  0  0  0  2  0  0  0  0  0  0
  -29.7820  -12.9590   18.1160 C   0  0  0  0  0  2  0  0  0  0  0  0
  -28.2990  -12.8170   18.5100 C   0  0  0  0  0  2  0  0  0  0  0  0
  -27.9510  -13.5990   19.8040 C   0  0  0  0  0  3  0  0  0  0  0  0
  -28.9780  -13.3150   20.9230 C   0  0  0  0  0  2  0  0  0  0  0  0
  -30.3170  -13.6240   20.3980 N   0  0  0  0  0  0  0  0  0  0  0  0
  -32.1630  -14.9300   20.1570 O   0  0  0  0  0  0  0  0  0  0  0  0
  -30.4590  -15.7200   21.3860 N   0  0  0  0  0  0  0  0  0  0  0  0
  -29.5210  -15.5330   21.7100 H   0  0  0  0  0  0  0  0  0  0  0  0
  -25.5290  -14.2080   20.4100 C   0  0  0  0  0  0  0  0  0  0  0  0
  -24.4520  -13.4420   20.7640 C   0  0  0  0  0  0  0  0  0  0  0  0
  -24.9170  -12.0900   20.7810 C   0  0  0  0  0  0  0  0  0  0  0  0
  -26.5850  -13.3260   20.2420 N   0  0  0  0  0  0  0  0  0  0  0  0
  -26.2190  -12.0490   20.5200 N   0  0  0  0  0  0  0  0  0  0  0  0
  -24.1880  -10.8310   20.9720 C   0  0  0  0  0  0  0  0  0  0  0  0
  -24.6030   -9.8740   21.9250 C   0  0  0  0  0  3  0  0  0  0  0  0
  -23.8740   -8.6790   22.1020 C   0  0  0  0  0  3  0  0  0  0  0  0
  -22.7160   -8.4310   21.3280 C   0  0  0  0  0  0  0  0  0  0  0  0
  -22.3210   -9.3760   20.3640 C   0  0  0  0  0  3  0  0  0  0  0  0
  -23.0490  -10.5630   20.1850 C   0  0  0  0  0  3  0  0  0  0  0  0
  -21.9590   -7.2870   21.4150 O   0  0  0  0  0  0  0  0  0  0  0  0
  -21.8580   -6.5800   22.5850 C   0  0  0  0  0  0  0  0  0  0  0  0
  -21.3760   -7.1710   23.7740 C   0  0  0  0  0  3  0  0  0  0  0  0
  -21.2220   -6.3890   24.9360 C   0  0  0  0  0  3  0  0  0  0  0  0
  -21.5380   -5.0180   24.9110 C   0  0  0  0  0  0  0  0  0  0  0  0
  -22.0130   -4.4260   23.7260 C   0  0  0  0  0  3  0  0  0  0  0  0
  -22.1690   -5.2040   22.5670 C   0  0  0  0  0  0  0  0  0  0  0  0
  -22.6060   -4.6250   21.4230 F   0  0  0  0  0  0  0  0  0  0  0  0
  -21.3830   -4.2640   26.0250 F   0  0  0  0  0  0  0  0  0  0  0  0
  -23.0440  -13.9210   20.9770 C   0  0  0  0  0  0  0  0  0  0  0  0
  -22.2960  -13.2580   21.8520 N   0  0  0  0  0  0  0  0  0  0  0  0
  -22.6160  -14.9220   20.4020 O   0  0  0  0  0  0  0  0  0  0  0  0
  -22.6530  -12.4480   22.3370 H   0  0  0  0  0  0  0  0  0  0  0  0
  -21.3520  -13.5630   22.0380 H   0  0  0  0  0  0  0  0  0  0  0  0
  -25.6970  -15.5700   20.1930 N   0  0  0  0  0  0  0  0  0  0  0  0
  -24.9110  -16.2090   20.1920 H   0  0  0  0  0  0  0  0  0  0  0  0
  -26.5430  -15.9800   19.8210 H   0  0  0  0  0  0  0  0  0  0  0  0
  -32.3140  -19.1670   21.5890 C   0  0  0  0  0  2  0  0  0  0  0  0
  -32.3210  -19.5620   23.0130 N   0  0  0  0  0  4  0  0  0  0  0  0
  -31.4810  -20.0560   23.2580 H   0  0  0  0  0  0  0  0  0  0  0  0
  -33.1020  -20.1720   23.1870 H   0  0  0  0  0  0  0  0  0  0  0  0
  -32.4200  -18.7660   23.6180 H   0  0  0  0  0  0  0  0  0  0  0  0
  1  2  1  0
  1 10  1  0
  2  3  1  0
  4  3  1  0
  5  4  1  0
  5  6  1  0
  6  8  1  0
  7  5  2  0
  9  6  1  0
 11 12  1  0
 11 10  1  0
 13 12  1  0
 14 13  2  0
 15 14  1  0
 16 27  2  0
 17 15  1  0
 17 22  1  0
 18 26  1  0
 18 28  1  0
 19 25  1  0
 19 21  1  0
 20 26  1  0
 21 20  1  0
 22 21  2  0
 23 24  1  0
 23 17  2  0
 24 19  2  0
 25 18  1  0
 26 16  1  0
 28 30  2  0
 29 28  1  0
 31 29  1  0
 32 41  2  0
 32 37  1  0
 33 29  1  0
 33 37  1  0
 34 33  1  0
 35 36  1  0
 35 34  1  0
 36 32  1  0
 37 38  2  0
 38 39  1  0
 40 39  2  0
 41 40  1  0
 42 16  1  0
 42 47  1  0
 42 43  1  0
 43 46  1  1
 43 44  1  0
 45 43  1  0
 47 50  1  0
 48 52  1  0
 48 47  1  0
 49 48  2  0
 52 51  1  0
 54 52  1  0
 54 55  1  0
 54 53  1  0
 56  1  1  0
 56 96  1  0
 56 57  1  0
 58 66  1  0
 59 64  1  0
 60 61  1  0
 60 59  1  0
 62 61  1  0
 62 71  1  0
 62 63  1  0
 64 58  1  0
 64 63  1  0
 65 58  2  0
 66 67  1  0
 66 57  1  0
 68 69  2  0
 69 70  1  0
 69 88  1  0
 70 73  1  0
 71 68  1  0
 71 72  1  0
 72 70  2  0
 73 74  1  0
 74 75  2  0
 76 79  1  0
 76 75  1  0
 77 76  2  0
 78 77  1  0
 78 73  2  0
 79 80  1  0
 80 81  1  0
 81 82  2  0
 83 82  1  0
 83 87  1  0
 84 83  2  0
 85 80  2  0
 85 84  1  0
 86 85  1  0
 88 89  1  0
 89 92  1  0
 89 91  1  0
 90 88  2  0
 93 68  1  0
 94 93  1  0
 95 93  1  0
 96 97  1  0
 97 99  1  0
 97 98  1  0
 97100  1  0
M  ISO  4  14 101  15 101  58 100  66 100
M  END
>  <TORSDO>  (16) 
F 29

>  <SCORE>  (16) 
-9.584

>  <name>  (16) 
15

>  <ligand_id>  (16) 
15

>  <original_smiles>  (16) 
[H]c1c([H])c([H])c2c(c1[H])C([H])([H])C([H])([H])C([H])([H])C2([H])N([H])C(=O)C1([H])N(C(=O)C([H])(N([H])C(=O)C([H])(N([H])C([H])([H])[H])C([H])([H])[H])C(C([H])([H])[H])(C([H])([H])[H])C([H])([H])[H])C([H])([H])c2c([H])c(OC([H])([H])C([H])([H])C([H])([H])C([H])([H])C([H])([H])C([H])(C([H])([H])C([H])([H])C([H])([H])C(=O)N([H])[H])C([H])(C([H])([H])N([H])C(=O)N3C([H])([H])C([H])([H])C([H])([H])C([H])(n4nc(-c5c([H])c([H])c(Oc6c([H])c([H])c(F)c([H])c6F)c([H])c5[H])c(C(=O)N([H])[H])c4N([H])[H])C3([H])[H])C([H])([H])[N+]([H])([H])[H])c([H])c([H])c2C1([H])[H]

>  <smiles>  (16) 
[H]c1c([H])c([H])c2c(c1[H])C([H])([H])C([H])([H])C([H])([H])C2([H])N([H])C(=O)C1([H])N(C(=O)C([H])(N([H])C(=O)C([H])(N([H])C([H])([H])[H])C([H])([H])[H])C(C([H])([H])[H])(C([H])([H])[H])C([H])([H])[H])C([H])([H])c2c([H])c(OC([H])([H])C([H])([H])C([H])([H])C([H])([H])C([H])([H])C([H])(C([H])([H])C([H])([H])C([H])([H])C(=O)N([H])[H])C([H])(C([H])([H])N([H])C(=O)N3C([H])([H])C([H])([H])C([H])([H])C([H])(n4nc(-c5c([H])c([H])c(Oc6c([H])c([H])c(F)c([H])c6F)c([H])c5[H])c(C(=O)N([H])[H])c4N([H])[H])C3([H])[H])C([H])([H])[N+]([H])([H])[H])c([H])c([H])c2C1([H])[H]

$$$$
16:0:0
     RDKit          3D

110118  0  0  1  0  0  0  0  0999 V2000
  -29.8570  -19.7930   22.2450 C   0  0  0  0  0  3  0  0  0  0  0  0
  -29.7860  -19.1050   21.0240 C   0  0  0  0  0  3  0  0  0  0  0  0
  -31.1920  -21.5010   21.1930 C   0  0  0  0  0  3  0  0  0  0  0  0
  -30.5910  -20.9950   22.3750 C   0  0  0  0  0  0  0  0  0  0  0  0
  -30.3620  -19.6220   19.8470 C   0  0  0  0  0  0  0  0  0  0  0  0
  -31.0500  -20.8900   19.9240 C   0  0  0  0  0  0  0  0  0  0  0  0
  -30.0420  -18.8200   18.5700 C   0  0  0  0  0  2  0  0  0  0  0  0
  -30.9640  -17.5990   18.1320 C   0  0  0  0  0  3  0  0  0  0  0  0
  -31.4440  -15.1900   18.9590 C   0  0  0  0  0  0  0  0  0  0  0  0
  -31.1510  -12.8230   18.3350 C   0  0  0  0  0  2  0  0  0  0  0  0
  -30.0750  -12.7150   17.2350 C   0  0  0  0  0  2  0  0  0  0  0  0
  -28.6640  -12.6310   17.8510 C   0  0  0  0  0  2  0  0  0  0  0  0
  -28.4140  -13.6850   18.9630 C   0  0  0  0  0  3  0  0  0  0  0  0
  -29.6010  -13.7650   19.9480 C   0  0  0  0  0  2  0  0  0  0  0  0
  -30.8150  -13.9960   19.1590 N   0  0  0  0  0  0  0  0  0  0  0  0
  -32.6340  -15.2370   18.6610 O   0  0  0  0  0  0  0  0  0  0  0  0
  -30.6400  -16.2820   18.7990 N   0  0  0  0  0  0  0  0  0  0  0  0
  -29.6750  -16.1380   19.0480 H   0  0  0  0  0  0  0  0  0  0  0  0
  -26.2210  -14.3730   20.1130 C   0  0  0  0  0  0  0  0  0  0  0  0
  -25.1690  -13.6430   20.5970 C   0  0  0  0  0  0  0  0  0  0  0  0
  -25.5180  -12.2720   20.3980 C   0  0  0  0  0  0  0  0  0  0  0  0
  -27.1460  -13.4510   19.6490 N   0  0  0  0  0  0  0  0  0  0  0  0
  -26.7370  -12.1760   19.8810 N   0  0  0  0  0  0  0  0  0  0  0  0
  -24.7340  -11.0470   20.6140 C   0  0  0  0  0  0  0  0  0  0  0  0
  -25.0850  -10.1120   21.6120 C   0  0  0  0  0  3  0  0  0  0  0  0
  -24.3060   -8.9530   21.8130 C   0  0  0  0  0  3  0  0  0  0  0  0
  -23.1590   -8.7210   21.0180 C   0  0  0  0  0  0  0  0  0  0  0  0
  -22.8270   -9.6430   20.0100 C   0  0  0  0  0  3  0  0  0  0  0  0
  -23.6070  -10.7950   19.8060 C   0  0  0  0  0  3  0  0  0  0  0  0
  -22.3570   -7.6100   21.1250 O   0  0  0  0  0  0  0  0  0  0  0  0
  -22.0570   -7.0550   22.3430 C   0  0  0  0  0  0  0  0  0  0  0  0
  -21.3820   -7.7820   23.3480 C   0  0  0  0  0  3  0  0  0  0  0  0
  -21.0300   -7.1510   24.5570 C   0  0  0  0  0  3  0  0  0  0  0  0
  -21.3420   -5.7930   24.7620 C   0  0  0  0  0  0  0  0  0  0  0  0
  -22.0090   -5.0670   23.7590 C   0  0  0  0  0  3  0  0  0  0  0  0
  -22.3630   -5.6960   22.5530 C   0  0  0  0  0  0  0  0  0  0  0  0
  -22.9860   -4.9840   21.5820 F   0  0  0  0  0  0  0  0  0  0  0  0
  -20.9980   -5.1850   25.9210 F   0  0  0  0  0  0  0  0  0  0  0  0
  -23.8720  -14.1850   21.1190 C   0  0  0  0  0  0  0  0  0  0  0  0
  -23.2520  -13.4940   22.0710 N   0  0  0  0  0  0  0  0  0  0  0  0
  -23.4210  -15.2580   20.7190 O   0  0  0  0  0  0  0  0  0  0  0  0
  -23.6310  -12.6250   22.4190 H   0  0  0  0  0  0  0  0  0  0  0  0
  -22.3880  -13.8430   22.4560 H   0  0  0  0  0  0  0  0  0  0  0  0
  -26.4560  -15.7410   20.0050 N   0  0  0  0  0  0  0  0  0  0  0  0
  -25.7600  -16.4230   20.2840 H   0  0  0  0  0  0  0  0  0  0  0  0
  -27.2440  -16.1580   19.5290 H   0  0  0  0  0  0  0  0  0  0  0  0
  -31.8750  -16.6580   15.8190 C   0  0  0  0  0  1  0  0  0  0  0  0
  -29.4210  -17.2140   16.0830 C   0  0  0  0  0  1  0  0  0  0  0  0
  -30.8500  -17.5310   16.5640 C   0  0  0  0  0  3  0  0  0  0  0  0
  -30.6560  -21.7630   23.7320 C   0  0  2  0  0  0  0  0  0  0  0  0
  -30.6130  -24.0960   22.4840 C   0  0  0  0  0  1  0  0  0  0  0  0
  -29.9610  -23.1500   23.5170 C   0  0  0  0  0  2  0  0  0  0  0  0
  -32.4140  -22.6640   25.5320 C   0  0  0  0  0  1  0  0  0  0  0  0
  -32.1490  -22.0340   24.1500 C   0  0  0  0  0  2  0  0  0  0  0  0
  -29.9340  -21.0040   24.9300 C   0  0  0  0  0  3  0  0  0  0  0  0
  -28.4920  -21.2980   25.0540 N   0  0  0  0  0  4  0  0  0  0  0  0
  -27.9870  -20.9350   24.2660 H   0  0  0  0  0  0  0  0  0  0  0  0
  -28.3430  -22.2900   25.1090 H   0  0  0  0  0  0  0  0  0  0  0  0
  -28.1230  -20.8840   25.8910 H   0  0  0  0  0  0  0  0  0  0  0  0
  -28.9290  -18.7550   25.6250 C   0  0  0  0  0  1  0  0  0  0  0  0
  -30.1930  -19.4660   25.0910 C   0  0  0  0  0  3  0  0  0  0  0  0
  -31.5450  -17.4770   24.1050 C   0  0  0  0  0  1  0  0  0  0  0  0
  -30.7470  -18.7590   23.8240 C   0  0  0  0  0  2  0  0  0  0  0  0
  -31.6620  -21.7110   18.7540 C   0  0  0  0  0  2  0  0  0  0  0  0
  -30.8090  -22.8800   18.3450 N   0  0  0  0  0  4  0  0  0  0  0  0
  -29.9180  -22.7440   18.7950 H   0  0  0  0  0  0  0  0  0  0  0  0
  -30.6430  -22.7830   17.3550 H   0  0  0  0  0  0  0  0  0  0  0  0
  -31.2950  -24.2850   18.6330 C   0  0  0  0  0  2  0  0  0  0  0  0
  -30.1730  -25.3780   18.4780 C   0  0  0  0  0  2  0  0  0  0  0  0
  -30.3190  -26.6950   19.1170 O   0  0  0  0  0  0  0  0  0  0  0  0
  -26.0440  -30.0840   23.8020 C   0  0  0  0  0  0  0  0  0  0  0  0
  -29.1380  -27.4150   19.3280 C   0  0  0  0  0  0  0  0  0  0  0  0
  -25.0260  -29.4510   21.6430 C   0  0  0  0  0  3  0  0  0  0  0  0
  -26.6530  -28.7340   19.8130 C   0  0  0  0  0  0  0  0  0  0  0  0
  -27.5340  -29.9610   21.7960 C   0  0  0  0  0  2  0  0  0  0  0  0
  -27.7510  -28.9890   20.6450 C   0  0  0  0  0  0  0  0  0  0  0  0
  -28.9960  -28.3430   20.4010 C   0  0  0  0  0  3  0  0  0  0  0  0
  -28.0130  -27.2200   18.4890 C   0  0  0  0  0  3  0  0  0  0  0  0
  -26.7860  -27.8570   18.7290 C   0  0  0  0  0  3  0  0  0  0  0  0
  -25.3500  -29.4350   20.1280 C   0  0  0  0  0  2  0  0  0  0  0  0
  -26.2170  -29.8230   22.4740 N   0  0  0  0  0  0  0  0  0  0  0  0
  -24.9200  -30.0530   24.3220 O   0  0  0  0  0  0  0  0  0  0  0  0
  -24.4030  -28.0900   22.0360 C   0  0  0  0  0  0  0  0  0  0  0  0
  -23.1180  -27.8940   21.6970 N   0  0  0  0  0  0  0  0  0  0  0  0
  -25.0780  -27.2300   22.6100 O   0  0  0  0  0  0  0  0  0  0  0  0
  -22.6290  -28.6510   21.2380 H   0  0  0  0  0  0  0  0  0  0  0  0
  -19.8670  -26.3770   21.2430 C   0  0  0  0  0  0  0  0  0  0  0  0
  -22.3410  -26.6750   21.9320 C   0  0  0  0  0  3  0  0  0  0  0  0
  -22.6590  -25.5960   20.8710 C   0  0  0  0  0  2  0  0  0  0  0  0
  -21.7050  -25.6290   19.6720 C   0  0  0  0  0  2  0  0  0  0  0  0
  -20.2590  -25.4180   20.1320 C   0  0  0  0  0  2  0  0  0  0  0  0
  -20.8450  -26.9790   22.0780 C   0  0  0  0  0  0  0  0  0  0  0  0
  -20.4290  -27.8890   23.0740 C   0  0  0  0  0  3  0  0  0  0  0  0
  -19.0650  -28.1980   23.2420 C   0  0  0  0  0  3  0  0  0  0  0  0
  -18.1000  -27.5880   22.4230 C   0  0  0  0  0  3  0  0  0  0  0  0
  -18.5010  -26.6760   21.4290 C   0  0  0  0  0  3  0  0  0  0  0  0
  -27.2460  -30.4570   24.7230 C   0  0  0  0  0  3  0  0  0  0  0  0
  -26.8620  -31.6490   25.4920 N   0  0  0  0  0  0  0  0  0  0  0  0
  -27.2750  -32.8940   25.2210 C   0  0  0  0  0  0  0  0  0  0  0  0
  -28.0860  -33.1490   24.3250 O   0  0  0  0  0  0  0  0  0  0  0  0
  -26.1560  -31.5210   26.2020 H   0  0  0  0  0  0  0  0  0  0  0  0
  -25.6170  -34.7830   25.2790 C   0  0  0  0  0  1  0  0  0  0  0  0
  -26.6990  -34.0370   26.0760 C   0  0  0  0  0  3  0  0  0  0  0  0
  -28.6390  -34.4300   27.5270 C   0  0  0  0  0  1  0  0  0  0  0  0
  -27.7230  -34.9980   26.5430 N   0  0  0  0  0  0  0  0  0  0  0  0
  -27.2850  -35.8170   26.9550 H   0  0  0  0  0  0  0  0  0  0  0  0
  -27.6710  -29.2840   25.6890 C   0  0  1  0  0  0  0  0  0  0  0  0
  -26.4990  -28.6940   26.5060 C   0  0  0  0  0  1  0  0  0  0  0  0
  -28.3190  -28.1290   24.8910 C   0  0  0  0  0  1  0  0  0  0  0  0
  -28.7410  -29.7900   26.6860 C   0  0  0  0  0  1  0  0  0  0  0  0
  1  4  1  0
  2  1  2  0
  3  4  2  0
  4 50  1  0
  5  6  2  0
  5  2  1  0
  6  3  1  0
  7  5  1  0
  8  7  1  0
  8 17  1  0
  9 15  1  0
 10 15  1  0
 11 12  1  0
 11 10  1  0
 13 12  1  0
 13 22  1  0
 13 14  1  0
 15 14  1  0
 16  9  2  0
 17  9  1  0
 17 18  1  0
 19 20  2  0
 20 39  1  0
 21 20  1  0
 21 24  1  0
 22 23  1  0
 22 19  1  0
 23 21  2  0
 24 25  1  0
 25 26  2  0
 27 30  1  0
 27 26  1  0
 28 27  2  0
 29 28  1  0
 29 24  2  0
 30 31  1  0
 31 36  2  0
 31 32  1  0
 32 33  2  0
 33 34  1  0
 34 38  1  0
 35 34  2  0
 36 35  1  0
 37 36  1  0
 39 40  1  0
 40 42  1  0
 40 43  1  0
 41 39  2  0
 44 19  1  0
 44 45  1  0
 46 44  1  0
 47 49  1  0
 48 49  1  0
 49  8  1  0
 50 54  1  1
 51 52  1  0
 52 50  1  0
 54 53  1  0
 55 50  1  0
 55 56  1  0
 55 61  1  0
 56 58  1  0
 56 59  1  0
 57 56  1  0
 61 60  1  0
 63 62  1  0
 63 61  1  0
 64  6  1  0
 65 68  1  0
 65 64  1  0
 65 66  1  0
 67 65  1  0
 69 68  1  0
 69 70  1  0
 70 72  1  0
 71 82  2  0
 72 77  1  0
 73 83  1  0
 73 81  1  0
 74 80  1  0
 74 76  1  0
 75 81  1  0
 76 75  1  0
 77 76  2  0
 78 79  1  0
 78 72  2  0
 79 74  2  0
 80 73  1  0
 81 71  1  0
 83 85  2  0
 84 83  1  0
 86 84  1  0
 87 96  2  0
 87 92  1  0
 88 84  1  0
 88 92  1  0
 89 88  1  0
 90 91  1  0
 90 89  1  0
 91 87  1  0
 92 93  2  0
 93 94  1  0
 95 94  2  0
 96 95  1  0
 97 71  1  0
 97 98  1  0
 97107  1  0
 98101  1  0
 99 98  1  0
 99103  1  0
100 99  2  0
103102  1  0
103105  1  0
105106  1  0
105104  1  0
107108  1  1
107110  1  0
109107  1  0
M  ISO  4   9 100  17 100  69 101  70 101
M  END
>  <TORSDO>  (17) 
F 30

>  <SCORE>  (17) 
5.579

>  <name>  (17) 
16

>  <ligand_id>  (17) 
16

>  <original_smiles>  (17) 
[H]c1c([H])c([H])c2c(c1[H])C([H])([H])C([H])([H])C([H])([H])C2([H])N([H])C(=O)C1([H])N(C(=O)C([H])(N([H])C(=O)C([H])(N([H])C([H])([H])[H])C([H])([H])[H])C(C([H])([H])[H])(C([H])([H])[H])C([H])([H])[H])C([H])([H])c2c([H])c(OC([H])([H])C([H])([H])[N+]([H])([H])C([H])([H])c3c([H])c(C(C([H])([H])C([H])([H])[H])(C([H])([H])C([H])([H])[H])C([H])(C([H])(C([H])([H])[H])C([H])([H])C([H])([H])[H])[N+]([H])([H])[H])c([H])c([H])c3C([H])([H])C([H])(N([H])C(=O)N3C([H])([H])C([H])([H])C([H])([H])C([H])(n4nc(-c5c([H])c([H])c(Oc6c([H])c([H])c(F)c([H])c6F)c([H])c5[H])c(C(=O)N([H])[H])c4N([H])[H])C3([H])[H])C([H])(C([H])([H])[H])C([H])([H])[H])c([H])c([H])c2C1([H])[H]

>  <smiles>  (17) 
[H]c1c([H])c([H])c2c(c1[H])C([H])([H])C([H])([H])C([H])([H])C2([H])N([H])C(=O)C1([H])N(C(=O)C([H])(N([H])C(=O)C([H])(N([H])C([H])([H])[H])C([H])([H])[H])C(C([H])([H])[H])(C([H])([H])[H])C([H])([H])[H])C([H])([H])c2c([H])c(OC([H])([H])C([H])([H])[N+]([H])([H])C([H])([H])c3c([H])c(C(C([H])([H])C([H])([H])[H])(C([H])([H])C([H])([H])[H])C([H])(C([H])(C([H])([H])[H])C([H])([H])C([H])([H])[H])[N+]([H])([H])[H])c([H])c([H])c3C([H])([H])C([H])(N([H])C(=O)N3C([H])([H])C([H])([H])C([H])([H])C([H])(n4nc(-c5c([H])c([H])c(Oc6c([H])c([H])c(F)c([H])c6F)c([H])c5[H])c(C(=O)N([H])[H])c4N([H])[H])C3([H])[H])C([H])(C([H])([H])[H])C([H])([H])[H])c([H])c([H])c2C1([H])[H]

$$$$
17:0:0
     RDKit          3D

100107  0  0  1  0  0  0  0  0999 V2000
  -29.0690  -23.2660   21.1380 N   0  0  0  0  0  0  0  0  0  0  0  0
  -30.2180  -23.5020   22.0430 C   0  0  0  0  0  2  0  0  0  0  0  0
  -29.9230  -23.8790   23.5320 C   0  0  0  0  0  3  0  0  0  0  0  0
  -29.9340  -22.7090   24.4310 N   0  0  0  0  0  4  0  0  0  0  0  0
  -29.1780  -22.0780   24.2330 H   0  0  0  0  0  0  0  0  0  0  0  0
  -29.8440  -23.0240   25.3820 H   0  0  0  0  0  0  0  0  0  0  0  0
  -30.8050  -22.2130   24.3620 H   0  0  0  0  0  0  0  0  0  0  0  0
  -28.6620  -24.7520   23.7760 C   0  0  0  0  0  2  0  0  0  0  0  0
  -28.6640  -26.1220   23.0700 C   0  0  0  0  0  2  0  0  0  0  0  0
  -29.7680  -27.0850   23.5460 C   0  0  0  0  0  2  0  0  0  0  0  0
  -29.6460  -28.4600   22.8630 C   0  0  0  0  0  2  0  0  0  0  0  0
  -30.9720  -29.2170   22.6940 C   0  0  0  0  0  2  0  0  0  0  0  0
  -33.0510  -29.5090   21.2350 C   0  0  0  0  0  1  0  0  0  0  0  0
  -31.8850  -28.5940   21.6220 C   0  0  0  0  0  2  0  0  0  0  0  0
  -29.0280  -24.3890   20.1700 C   0  0  0  0  0  2  0  0  0  0  0  0
  -28.1930  -25.5970   20.6810 C   0  0  0  0  0  2  0  0  0  0  0  0
  -28.2810  -26.7620   19.8330 O   0  0  0  0  0  0  0  0  0  0  0  0
  -24.4770  -31.7710   23.1710 C   0  0  0  0  0  0  0  0  0  0  0  0
  -27.1370  -27.5310   19.8480 C   0  0  0  0  0  0  0  0  0  0  0  0
  -23.2680  -30.4330   21.4790 C   0  0  0  0  0  3  0  0  0  0  0  0
  -24.7250  -29.0040   19.9490 C   0  0  0  0  0  0  0  0  0  0  0  0
  -25.7850  -30.8480   21.2630 C   0  0  0  0  0  2  0  0  0  0  0  0
  -25.8850  -29.5180   20.5460 C   0  0  0  0  0  0  0  0  0  0  0  0
  -27.1010  -28.7940   20.4820 C   0  0  0  0  0  3  0  0  0  0  0  0
  -25.9640  -27.0350   19.2400 C   0  0  0  0  0  3  0  0  0  0  0  0
  -24.7630  -27.7650   19.2850 C   0  0  0  0  0  3  0  0  0  0  0  0
  -23.4620  -29.8290   20.0640 C   0  0  0  0  0  2  0  0  0  0  0  0
  -24.5280  -31.0300   22.0290 N   0  0  0  0  0  0  0  0  0  0  0  0
  -23.4030  -31.9880   23.7480 O   0  0  0  0  0  0  0  0  0  0  0  0
  -22.6580  -29.3500   22.4010 C   0  0  0  0  0  0  0  0  0  0  0  0
  -21.3400  -29.1270   22.2740 N   0  0  0  0  0  0  0  0  0  0  0  0
  -23.3700  -28.7160   23.1830 O   0  0  0  0  0  0  0  0  0  0  0  0
  -20.8300  -29.6930   21.6110 H   0  0  0  0  0  0  0  0  0  0  0  0
  -18.0180  -27.7710   22.6950 C   0  0  0  0  0  0  0  0  0  0  0  0
  -20.5600  -28.1320   23.0090 C   0  0  0  0  0  3  0  0  0  0  0  0
  -20.7330  -26.7250   22.3910 C   0  0  0  0  0  2  0  0  0  0  0  0
  -19.6570  -26.3830   21.3560 C   0  0  0  0  0  2  0  0  0  0  0  0
  -18.2620  -26.4490   21.9850 C   0  0  0  0  0  2  0  0  0  0  0  0
  -19.0980  -28.5670   23.1620 C   0  0  0  0  0  0  0  0  0  0  0  0
  -18.8170  -29.8040   23.7820 C   0  0  0  0  0  3  0  0  0  0  0  0
  -17.4900  -30.2450   23.9450 C   0  0  0  0  0  3  0  0  0  0  0  0
  -16.4250  -29.4430   23.5020 C   0  0  0  0  0  3  0  0  0  0  0  0
  -16.6890  -28.2090   22.8790 C   0  0  0  0  0  3  0  0  0  0  0  0
  -25.7630  -32.4000   23.7910 C   0  0  0  0  0  3  0  0  0  0  0  0
  -26.2760  -31.6260   25.0660 C   0  0  1  0  0  0  0  0  0  0  0  0
  -25.1950  -31.4240   26.1530 C   0  0  0  0  0  1  0  0  0  0  0  0
  -26.8120  -30.2330   24.6730 C   0  0  0  0  0  1  0  0  0  0  0  0
  -27.4560  -32.3950   25.7070 C   0  0  0  0  0  1  0  0  0  0  0  0
  -25.4580  -33.7950   24.1300 N   0  0  0  0  0  0  0  0  0  0  0  0
  -25.8210  -34.8530   23.3930 C   0  0  0  0  0  0  0  0  0  0  0  0
  -26.5180  -34.7520   22.3790 O   0  0  0  0  0  0  0  0  0  0  0  0
  -24.8470  -33.9480   24.9180 H   0  0  0  0  0  0  0  0  0  0  0  0
  -24.1210  -36.6620   23.0010 C   0  0  0  0  0  1  0  0  0  0  0  0
  -25.3300  -36.2390   23.8480 C   0  0  0  0  0  3  0  0  0  0  0  0
  -27.4460  -37.0960   24.7530 C   0  0  0  0  0  1  0  0  0  0  0  0
  -26.3740  -37.2840   23.7780 N   0  0  0  0  0  0  0  0  0  0  0  0
  -25.9730  -38.2070   23.9220 H   0  0  0  0  0  0  0  0  0  0  0  0
  -29.1540  -22.0020   20.3780 C   0  0  0  0  0  2  0  0  0  0  0  0
  -29.0330  -20.6950   21.2070 C   0  0  0  0  0  2  0  0  0  0  0  0
  -29.5600  -19.4710   20.4270 C   0  0  0  0  0  2  0  0  0  0  0  0
  -29.4570  -18.0980   21.1350 C   0  0  0  0  0  2  0  0  0  0  0  0
  -30.4370  -17.0810   20.4920 C   0  0  0  0  0  2  0  0  0  0  0  0
  -30.8240  -14.6560   20.1690 C   0  0  0  0  0  0  0  0  0  0  0  0
  -30.4730  -12.5370   18.9570 C   0  0  0  0  0  2  0  0  0  0  0  0
  -29.4930  -12.8150   17.7980 C   0  0  0  0  0  2  0  0  0  0  0  0
  -28.0290  -12.7160   18.2680 C   0  0  0  0  0  2  0  0  0  0  0  0
  -27.7650  -13.4880   19.5880 C   0  0  0  0  0  3  0  0  0  0  0  0
  -28.8490  -13.1720   20.6410 C   0  0  0  0  0  2  0  0  0  0  0  0
  -30.1560  -13.4800   20.0410 N   0  0  0  0  0  0  0  0  0  0  0  0
  -31.9340  -14.8570   19.6610 O   0  0  0  0  0  0  0  0  0  0  0  0
  -30.1110  -15.6660   20.7100 N   0  0  0  0  0  0  0  0  0  0  0  0
  -29.2060  -15.4370   21.0910 H   0  0  0  0  0  0  0  0  0  0  0  0
  -25.4140  -14.1190   20.4190 C   0  0  0  0  0  0  0  0  0  0  0  0
  -24.3460  -13.3550   20.7980 C   0  0  0  0  0  0  0  0  0  0  0  0
  -24.7700  -11.9950   20.6850 C   0  0  0  0  0  0  0  0  0  0  0  0
  -26.4270  -13.2260   20.1040 N   0  0  0  0  0  0  0  0  0  0  0  0
  -26.0440  -11.9410   20.3180 N   0  0  0  0  0  0  0  0  0  0  0  0
  -24.0240  -10.7420   20.8440 C   0  0  0  0  0  0  0  0  0  0  0  0
  -24.4800   -9.7100   21.6940 C   0  0  0  0  0  3  0  0  0  0  0  0
  -23.7320   -8.5230   21.8450 C   0  0  0  0  0  3  0  0  0  0  0  0
  -22.5130   -8.3600   21.1450 C   0  0  0  0  0  0  0  0  0  0  0  0
  -22.0740   -9.3790   20.2830 C   0  0  0  0  0  3  0  0  0  0  0  0
  -22.8230  -10.5590   20.1290 C   0  0  0  0  0  3  0  0  0  0  0  0
  -21.7330   -7.2310   21.2090 O   0  0  0  0  0  0  0  0  0  0  0  0
  -21.7290   -6.4230   22.3190 C   0  0  0  0  0  0  0  0  0  0  0  0
  -21.3960   -6.9160   23.5990 C   0  0  0  0  0  3  0  0  0  0  0  0
  -21.3350   -6.0370   24.6980 C   0  0  0  0  0  3  0  0  0  0  0  0
  -21.5960   -4.6660   24.5190 C   0  0  0  0  0  0  0  0  0  0  0  0
  -21.9220   -4.1710   23.2430 C   0  0  0  0  0  3  0  0  0  0  0  0
  -21.9830   -5.0480   22.1470 C   0  0  0  0  0  0  0  0  0  0  0  0
  -22.2780   -4.5620   20.9150 F   0  0  0  0  0  0  0  0  0  0  0  0
  -21.5300   -3.8200   25.5730 F   0  0  0  0  0  0  0  0  0  0  0  0
  -22.9730  -13.8490   21.1550 C   0  0  0  0  0  0  0  0  0  0  0  0
  -22.2750  -13.1370   22.0320 N   0  0  0  0  0  0  0  0  0  0  0  0
  -22.5300  -14.9000   20.6930 O   0  0  0  0  0  0  0  0  0  0  0  0
  -22.6470  -12.2830   22.4200 H   0  0  0  0  0  0  0  0  0  0  0  0
  -21.3570  -13.4450   22.3170 H   0  0  0  0  0  0  0  0  0  0  0  0
  -25.6070  -15.4940   20.2990 N   0  0  0  0  0  0  0  0  0  0  0  0
  -24.8580  -16.1590   20.4610 H   0  0  0  0  0  0  0  0  0  0  0  0
  -26.4430  -15.9240   19.9270 H   0  0  0  0  0  0  0  0  0  0  0  0
  1  2  1  0
  3  2  1  0
  3  8  1  0
  3  4  1  0
  4  6  1  0
  5  4  1  0
  7  4  1  0
  9 10  1  0
  9  8  1  0
 11 10  1  0
 12 11  1  0
 13 14  1  0
 14 12  1  0
 15 16  1  0
 15  1  1  0
 17 19  1  0
 17 16  1  0
 18 29  2  0
 19 24  1  0
 20 28  1  0
 20 30  1  0
 21 27  1  0
 21 23  1  0
 22 28  1  0
 23 22  1  0
 24 23  2  0
 25 26  1  0
 25 19  2  0
 26 21  2  0
 27 20  1  0
 28 18  1  0
 30 32  2  0
 31 30  1  0
 33 31  1  0
 34 43  2  0
 34 39  1  0
 35 31  1  0
 35 39  1  0
 36 35  1  0
 37 38  1  0
 37 36  1  0
 38 34  1  0
 39 40  2  0
 40 41  1  0
 42 41  2  0
 43 42  1  0
 44 18  1  0
 44 49  1  0
 44 45  1  0
 45 48  1  1
 45 46  1  0
 47 45  1  0
 49 52  1  0
 50 54  1  0
 50 49  1  0
 51 50  2  0
 54 53  1  0
 56 54  1  0
 56 57  1  0
 56 55  1  0
 58  1  1  0
 58 59  1  0
 60 61  1  0
 60 59  1  0
 62 71  1  0
 62 61  1  0
 63 71  1  0
 64 69  1  0
 65 66  1  0
 65 64  1  0
 67 66  1  0
 67 76  1  0
 67 68  1  0
 69 63  1  0
 69 68  1  0
 70 63  2  0
 71 72  1  0
 73 74  2  0
 74 93  1  0
 75 74  1  0
 75 78  1  0
 76 77  1  0
 76 73  1  0
 77 75  2  0
 78 79  1  0
 79 80  2  0
 81 84  1  0
 81 80  1  0
 82 81  2  0
 83 82  1  0
 83 78  2  0
 84 85  1  0
 85 86  1  0
 86 87  2  0
 88 87  1  0
 88 92  1  0
 89 88  2  0
 90 85  2  0
 90 89  1  0
 91 90  1  0
 93 94  1  0
 94 97  1  0
 94 96  1  0
 95 93  2  0
 98 73  1  0
 98 99  1  0
100 98  1  0
M  ISO  4  16 101  17 101  63 100  71 100
M  END
>  <TORSDO>  (18) 
F 32

>  <SCORE>  (18) 
-10.109

>  <name>  (18) 
17

>  <ligand_id>  (18) 
17

>  <original_smiles>  (18) 
[H]c1c([H])c([H])c2c(c1[H])C([H])([H])C([H])([H])C([H])([H])C2([H])N([H])C(=O)C1([H])N(C(=O)C([H])(N([H])C(=O)C([H])(N([H])C([H])([H])[H])C([H])([H])[H])C(C([H])([H])[H])(C([H])([H])[H])C([H])([H])[H])C([H])([H])c2c([H])c(OC([H])([H])C([H])([H])N(C([H])([H])C([H])([H])C([H])([H])C([H])([H])C([H])([H])N([H])C(=O)N3C([H])([H])C([H])([H])C([H])([H])C([H])(n4nc(-c5c([H])c([H])c(Oc6c([H])c([H])c(F)c([H])c6F)c([H])c5[H])c(C(=O)N([H])[H])c4N([H])[H])C3([H])[H])C([H])([H])C([H])(C([H])([H])C([H])([H])C([H])([H])C([H])([H])C([H])([H])C([H])([H])C([H])([H])[H])[N+]([H])([H])[H])c([H])c([H])c2C1([H])[H]

>  <smiles>  (18) 
[H]c1c([H])c([H])c2c(c1[H])C([H])([H])C([H])([H])C([H])([H])C2([H])N([H])C(=O)C1([H])N(C(=O)C([H])(N([H])C(=O)C([H])(N([H])C([H])([H])[H])C([H])([H])[H])C(C([H])([H])[H])(C([H])([H])[H])C([H])([H])[H])C([H])([H])c2c([H])c(OC([H])([H])C([H])([H])N(C([H])([H])C([H])([H])C([H])([H])C([H])([H])C([H])([H])N([H])C(=O)N3C([H])([H])C([H])([H])C([H])([H])C([H])(n4nc(-c5c([H])c([H])c(Oc6c([H])c([H])c(F)c([H])c6F)c([H])c5[H])c(C(=O)N([H])[H])c4N([H])[H])C3([H])[H])C([H])([H])C([H])(C([H])([H])C([H])([H])C([H])([H])C([H])([H])C([H])([H])C([H])([H])C([H])([H])[H])[N+]([H])([H])[H])c([H])c([H])c2C1([H])[H]

$$$$
18:0:0
     RDKit          3D

 94101  0  0  1  0  0  0  0  0999 V2000
  -29.5360  -21.2410   20.0410 C   0  0  0  0  0  2  0  0  0  0  0  0
  -28.9710  -22.5040   20.8520 C   0  0  0  0  0  2  0  0  0  0  0  0
  -29.3020  -24.0500   20.5310 C   0  0  0  0  0  3  0  0  0  0  0  0
  -31.8660  -23.8270   20.4770 C   0  0  0  0  0  1  0  0  0  0  0  0
  -30.5970  -24.2520   19.7170 C   0  0  0  0  0  2  0  0  0  0  0  0
  -28.1220  -25.0080   20.0290 C   0  0  0  0  0  2  0  0  0  0  0  0
  -28.2890  -26.4760   20.1980 O   0  0  0  0  0  0  0  0  0  0  0  0
  -24.5610  -31.8690   23.2260 C   0  0  0  0  0  0  0  0  0  0  0  0
  -27.1540  -27.3060   20.1550 C   0  0  0  0  0  0  0  0  0  0  0  0
  -23.3440  -30.4670   21.6010 C   0  0  0  0  0  3  0  0  0  0  0  0
  -24.7820  -28.9120   20.1650 C   0  0  0  0  0  0  0  0  0  0  0  0
  -25.8810  -30.7830   21.3970 C   0  0  0  0  0  2  0  0  0  0  0  0
  -25.9530  -29.4020   20.7530 C   0  0  0  0  0  0  0  0  0  0  0  0
  -27.1410  -28.6120   20.7370 C   0  0  0  0  0  3  0  0  0  0  0  0
  -25.9570  -26.8670   19.5460 C   0  0  0  0  0  3  0  0  0  0  0  0
  -24.7850  -27.6490   19.5510 C   0  0  0  0  0  3  0  0  0  0  0  0
  -23.5460  -29.7880   20.2210 C   0  0  0  0  0  2  0  0  0  0  0  0
  -24.6140  -31.0600   22.1300 N   0  0  0  0  0  0  0  0  0  0  0  0
  -23.4830  -32.1490   23.7710 O   0  0  0  0  0  0  0  0  0  0  0  0
  -22.6890  -29.4530   22.5690 C   0  0  0  0  0  0  0  0  0  0  0  0
  -21.3630  -29.2760   22.4510 N   0  0  0  0  0  0  0  0  0  0  0  0
  -23.3730  -28.8300   23.3850 O   0  0  0  0  0  0  0  0  0  0  0  0
  -20.8740  -29.8360   21.7670 H   0  0  0  0  0  0  0  0  0  0  0  0
  -17.9850  -28.0800   22.9640 C   0  0  0  0  0  0  0  0  0  0  0  0
  -20.5450  -28.3430   23.2280 C   0  0  0  0  0  3  0  0  0  0  0  0
  -20.6480  -26.9140   22.6470 C   0  0  0  0  0  2  0  0  0  0  0  0
  -19.5400  -26.5890   21.6440 C   0  0  0  0  0  2  0  0  0  0  0  0
  -18.1620  -26.7290   22.2940 C   0  0  0  0  0  2  0  0  0  0  0  0
  -19.1050  -28.8450   23.3890 C   0  0  0  0  0  0  0  0  0  0  0  0
  -18.8840  -30.1110   23.9720 C   0  0  0  0  0  3  0  0  0  0  0  0
  -17.5780  -30.6110   24.1390 C   0  0  0  0  0  3  0  0  0  0  0  0
  -16.4750  -29.8420   23.7290 C   0  0  0  0  0  3  0  0  0  0  0  0
  -16.6800  -28.5790   23.1470 C   0  0  0  0  0  3  0  0  0  0  0  0
  -25.8490  -32.5000   23.8400 C   0  0  0  0  0  3  0  0  0  0  0  0
  -26.3790  -31.7250   25.1090 C   0  0  1  0  0  0  0  0  0  0  0  0
  -25.2980  -31.4810   26.1880 C   0  0  0  0  0  1  0  0  0  0  0  0
  -26.9590  -30.3500   24.7060 C   0  0  0  0  0  1  0  0  0  0  0  0
  -27.5310  -32.5210   25.7650 C   0  0  0  0  0  1  0  0  0  0  0  0
  -25.5390  -33.8950   24.1790 N   0  0  0  0  0  0  0  0  0  0  0  0
  -25.8650  -34.9530   23.4250 C   0  0  0  0  0  0  0  0  0  0  0  0
  -26.5280  -34.8590   22.3880 O   0  0  0  0  0  0  0  0  0  0  0  0
  -24.9500  -34.0420   24.9850 H   0  0  0  0  0  0  0  0  0  0  0  0
  -24.1400  -36.7560   23.0860 C   0  0  0  0  0  1  0  0  0  0  0  0
  -25.3790  -36.3390   23.8950 C   0  0  0  0  0  3  0  0  0  0  0  0
  -27.5130  -37.2160   24.7400 C   0  0  0  0  0  1  0  0  0  0  0  0
  -26.4130  -37.3920   23.7950 N   0  0  0  0  0  0  0  0  0  0  0  0
  -26.0080  -38.3110   23.9480 H   0  0  0  0  0  0  0  0  0  0  0  0
  -29.8250  -19.8900   20.8630 C   0  0  0  0  0  2  0  0  0  0  0  0
  -29.8200  -18.4490   20.1500 C   0  0  0  0  0  3  0  0  0  0  0  0
  -30.0950  -17.1920   21.1200 C   0  0  0  0  0  2  0  0  0  0  0  0
  -30.6760  -14.6980   20.4210 C   0  0  0  0  0  0  0  0  0  0  0  0
  -30.5050  -12.4510   19.3460 C   0  0  0  0  0  2  0  0  0  0  0  0
  -29.5610  -12.5600   18.1270 C   0  0  0  0  0  2  0  0  0  0  0  0
  -28.0830  -12.4050   18.5430 C   0  0  0  0  0  2  0  0  0  0  0  0
  -27.7160  -13.2670   19.7790 C   0  0  0  0  0  3  0  0  0  0  0  0
  -28.7660  -13.1110   20.8980 C   0  0  0  0  0  2  0  0  0  0  0  0
  -30.0720  -13.4680   20.3250 N   0  0  0  0  0  0  0  0  0  0  0  0
  -31.8600  -14.8580   20.1130 O   0  0  0  0  0  0  0  0  0  0  0  0
  -29.8410  -15.7590   20.6940 N   0  0  0  0  0  0  0  0  0  0  0  0
  -28.8850  -15.4680   20.8170 H   0  0  0  0  0  0  0  0  0  0  0  0
  -25.3240  -13.8780   20.4750 C   0  0  0  0  0  0  0  0  0  0  0  0
  -24.2520  -13.1120   20.8470 C   0  0  0  0  0  0  0  0  0  0  0  0
  -24.7100  -11.7610   20.8280 C   0  0  0  0  0  0  0  0  0  0  0  0
  -26.3640  -12.9920   20.2540 N   0  0  0  0  0  0  0  0  0  0  0  0
  -26.0010  -11.7130   20.5250 N   0  0  0  0  0  0  0  0  0  0  0  0
  -23.9750  -10.5030   21.0200 C   0  0  0  0  0  0  0  0  0  0  0  0
  -24.3970   -9.5380   21.9610 C   0  0  0  0  0  3  0  0  0  0  0  0
  -23.6640   -8.3450   22.1410 C   0  0  0  0  0  3  0  0  0  0  0  0
  -22.4950   -8.1110   21.3800 C   0  0  0  0  0  0  0  0  0  0  0  0
  -22.0920   -9.0630   20.4280 C   0  0  0  0  0  3  0  0  0  0  0  0
  -22.8250  -10.2480   20.2470 C   0  0  0  0  0  3  0  0  0  0  0  0
  -21.7320   -6.9720   21.4690 O   0  0  0  0  0  0  0  0  0  0  0  0
  -21.6710   -6.2360   22.6240 C   0  0  0  0  0  0  0  0  0  0  0  0
  -21.2320   -6.7990   23.8430 C   0  0  0  0  0  3  0  0  0  0  0  0
  -21.1180   -5.9890   24.9900 C   0  0  0  0  0  3  0  0  0  0  0  0
  -21.4320   -4.6180   24.9200 C   0  0  0  0  0  0  0  0  0  0  0  0
  -21.8620   -4.0560   23.7060 C   0  0  0  0  0  3  0  0  0  0  0  0
  -21.9780   -4.8620   22.5620 C   0  0  0  0  0  0  0  0  0  0  0  0
  -22.3750   -4.3110   21.3880 F   0  0  0  0  0  0  0  0  0  0  0  0
  -21.3130   -3.8390   26.0210 F   0  0  0  0  0  0  0  0  0  0  0  0
  -22.8540  -13.5990   21.1000 C   0  0  0  0  0  0  0  0  0  0  0  0
  -22.1160  -12.9100   21.9640 N   0  0  0  0  0  0  0  0  0  0  0  0
  -22.4260  -14.6220   20.5710 O   0  0  0  0  0  0  0  0  0  0  0  0
  -22.4770  -12.0800   22.4100 H   0  0  0  0  0  0  0  0  0  0  0  0
  -21.1780  -13.2180   22.1800 H   0  0  0  0  0  0  0  0  0  0  0  0
  -25.4920  -15.2430   20.2780 N   0  0  0  0  0  0  0  0  0  0  0  0
  -24.6820  -15.8520   20.2840 H   0  0  0  0  0  0  0  0  0  0  0  0
  -26.2670  -15.6020   19.7390 H   0  0  0  0  0  0  0  0  0  0  0  0
  -28.5630  -18.2890   19.2550 C   0  0  0  0  0  2  0  0  0  0  0  0
  -27.2030  -18.5550   19.9470 C   0  0  0  0  0  2  0  0  0  0  0  0
  -26.1050  -18.7500   18.9810 N   0  0  0  0  0  4  0  0  0  0  0  0
  -26.2750  -19.5480   18.3900 H   0  0  0  0  0  0  0  0  0  0  0  0
  -25.2400  -18.9030   19.4680 H   0  0  0  0  0  0  0  0  0  0  0  0
  -25.9910  -17.9410   18.4030 H   0  0  0  0  0  0  0  0  0  0  0  0
  1  2  1  0
  1 48  1  0
  3  5  1  0
  3  2  1  0
  5  4  1  0
  6  7  1  0
  6  3  1  0
  8 19  2  0
  9  7  1  0
  9 14  1  0
 10 18  1  0
 10 20  1  0
 11 17  1  0
 11 13  1  0
 12 18  1  0
 13 12  1  0
 14 13  2  0
 15 16  1  0
 15  9  2  0
 16 11  2  0
 17 10  1  0
 18  8  1  0
 20 22  2  0
 21 20  1  0
 23 21  1  0
 24 33  2  0
 24 29  1  0
 25 21  1  0
 25 29  1  0
 26 25  1  0
 27 28  1  0
 27 26  1  0
 28 24  1  0
 29 30  2  0
 30 31  1  0
 32 31  2  0
 33 32  1  0
 34  8  1  0
 34 39  1  0
 34 35  1  0
 35 38  1  1
 35 36  1  0
 37 35  1  0
 39 42  1  0
 40 44  1  0
 40 39  1  0
 41 40  2  0
 44 43  1  0
 46 44  1  0
 46 47  1  0
 46 45  1  0
 49 89  1  0
 49 48  1  0
 49 50  1  0
 51 59  1  0
 52 57  1  0
 53 54  1  0
 53 52  1  0
 55 54  1  0
 55 64  1  0
 55 56  1  0
 57 51  1  0
 57 56  1  0
 58 51  2  0
 59 60  1  0
 59 50  1  0
 61 62  2  0
 62 81  1  0
 63 62  1  0
 63 66  1  0
 64 61  1  0
 64 65  1  0
 65 63  2  0
 66 67  1  0
 67 68  2  0
 69 72  1  0
 69 68  1  0
 70 69  2  0
 71 70  1  0
 71 66  2  0
 72 73  1  0
 73 74  1  0
 74 75  2  0
 76 75  1  0
 76 80  1  0
 77 76  2  0
 78 73  2  0
 78 77  1  0
 79 78  1  0
 81 82  1  0
 82 85  1  0
 82 84  1  0
 83 81  2  0
 86 87  1  0
 86 61  1  0
 88 86  1  0
 89 90  1  0
 91 93  1  0
 91 90  1  0
 92 91  1  0
 94 91  1  0
M  ISO  4   6 101   7 101  51 100  59 100
M  END
>  <TORSDO>  (19) 
F 26

>  <SCORE>  (19) 
-11.857

>  <name>  (19) 
18

>  <ligand_id>  (19) 
18

>  <original_smiles>  (19) 
[H]c1c([H])c([H])c2c(c1[H])C([H])([H])C([H])([H])C([H])([H])C2([H])N([H])C(=O)C1([H])N(C(=O)C([H])(N([H])C(=O)C([H])(N([H])C([H])([H])[H])C([H])([H])[H])C(C([H])([H])[H])(C([H])([H])[H])C([H])([H])[H])C([H])([H])c2c([H])c(OC([H])([H])C([H])(C([H])([H])C([H])([H])[H])C([H])([H])C([H])([H])C([H])([H])C([H])(C([H])([H])N([H])C(=O)N3C([H])([H])C([H])([H])C([H])([H])C([H])(n4nc(-c5c([H])c([H])c(Oc6c([H])c([H])c(F)c([H])c6F)c([H])c5[H])c(C(=O)N([H])[H])c4N([H])[H])C3([H])[H])C([H])([H])C([H])([H])[N+]([H])([H])[H])c([H])c([H])c2C1([H])[H]

>  <smiles>  (19) 
[H]c1c([H])c([H])c2c(c1[H])C([H])([H])C([H])([H])C([H])([H])C2([H])N([H])C(=O)C1([H])N(C(=O)C([H])(N([H])C(=O)C([H])(N([H])C([H])([H])[H])C([H])([H])[H])C(C([H])([H])[H])(C([H])([H])[H])C([H])([H])[H])C([H])([H])c2c([H])c(OC([H])([H])C([H])(C([H])([H])C([H])([H])[H])C([H])([H])C([H])([H])C([H])([H])C([H])(C([H])([H])N([H])C(=O)N3C([H])([H])C([H])([H])C([H])([H])C([H])(n4nc(-c5c([H])c([H])c(Oc6c([H])c([H])c(F)c([H])c6F)c([H])c5[H])c(C(=O)N([H])[H])c4N([H])[H])C3([H])[H])C([H])([H])C([H])([H])[N+]([H])([H])[H])c([H])c([H])c2C1([H])[H]

$$$$
19:0:0
     RDKit          3D

 94101  0  0  1  0  0  0  0  0999 V2000
  -29.0960  -20.9430   22.5190 N   0  0  0  0  0  4  0  0  0  0  0  0
  -28.1360  -20.8950   22.8190 H   0  0  0  0  0  0  0  0  0  0  0  0
  -29.6530  -20.4930   23.2290 H   0  0  0  0  0  0  0  0  0  0  0  0
  -29.2490  -20.1580   21.2700 C   0  0  0  0  0  2  0  0  0  0  0  0
  -29.0170  -18.6330   21.4570 C   0  0  0  0  0  2  0  0  0  0  0  0
  -30.2710  -17.7840   21.7970 C   0  0  0  0  0  2  0  0  0  0  0  0
  -30.8120  -16.9290   20.6170 C   0  0  0  0  0  3  0  0  0  0  0  0
  -32.0790  -14.7800   20.4170 C   0  0  0  0  0  0  0  0  0  0  0  0
  -31.5980  -12.6220   19.3210 C   0  0  0  0  0  2  0  0  0  0  0  0
  -30.6870  -12.7520   18.0840 C   0  0  0  0  0  2  0  0  0  0  0  0
  -29.2010  -12.7870   18.4840 C   0  0  0  0  0  2  0  0  0  0  0  0
  -28.9040  -13.7620   19.6520 C   0  0  0  0  0  3  0  0  0  0  0  0
  -29.9050  -13.5560   20.8060 C   0  0  0  0  0  2  0  0  0  0  0  0
  -31.2650  -13.7030   20.2670 N   0  0  0  0  0  0  0  0  0  0  0  0
  -33.2070  -14.8430   19.9220 O   0  0  0  0  0  0  0  0  0  0  0  0
  -31.6160  -15.8090   21.1490 N   0  0  0  0  0  0  0  0  0  0  0  0
  -32.3540  -16.1660   21.7350 H   0  0  0  0  0  0  0  0  0  0  0  0
  -26.5780  -14.6340   20.3310 C   0  0  0  0  0  0  0  0  0  0  0  0
  -25.4220  -13.9830   20.6630 C   0  0  0  0  0  0  0  0  0  0  0  0
  -25.7280  -12.5880   20.6160 C   0  0  0  0  0  0  0  0  0  0  0  0
  -27.5220  -13.6430   20.1060 N   0  0  0  0  0  0  0  0  0  0  0  0
  -27.0110  -12.4080   20.3340 N   0  0  0  0  0  0  0  0  0  0  0  0
  -24.8630  -11.4110   20.7660 C   0  0  0  0  0  0  0  0  0  0  0  0
  -25.1710  -10.3760   21.6780 C   0  0  0  0  0  3  0  0  0  0  0  0
  -24.3110   -9.2670   21.8190 C   0  0  0  0  0  3  0  0  0  0  0  0
  -23.1290   -9.1820   21.0460 C   0  0  0  0  0  0  0  0  0  0  0  0
  -22.8380  -10.2040   20.1230 C   0  0  0  0  0  3  0  0  0  0  0  0
  -23.6990  -11.3040   19.9820 C   0  0  0  0  0  3  0  0  0  0  0  0
  -22.2500   -8.1270   21.0950 O   0  0  0  0  0  0  0  0  0  0  0  0
  -22.0720   -7.3920   22.2390 C   0  0  0  0  0  0  0  0  0  0  0  0
  -21.6790   -7.9930   23.4560 C   0  0  0  0  0  3  0  0  0  0  0  0
  -21.4410   -7.1930   24.5920 C   0  0  0  0  0  3  0  0  0  0  0  0
  -21.5860   -5.7950   24.5100 C   0  0  0  0  0  0  0  0  0  0  0  0
  -21.9750   -5.1940   23.3000 C   0  0  0  0  0  3  0  0  0  0  0  0
  -22.2120   -5.9920   22.1660 C   0  0  0  0  0  0  0  0  0  0  0  0
  -22.5640   -5.4080   20.9950 F   0  0  0  0  0  0  0  0  0  0  0  0
  -21.3520   -5.0250   25.5980 F   0  0  0  0  0  0  0  0  0  0  0  0
  -24.0820  -14.6110   20.9160 C   0  0  0  0  0  0  0  0  0  0  0  0
  -23.2720  -13.9960   21.7700 N   0  0  0  0  0  0  0  0  0  0  0  0
  -23.7660  -15.6790   20.3920 O   0  0  0  0  0  0  0  0  0  0  0  0
  -23.5330  -13.1280   22.2130 H   0  0  0  0  0  0  0  0  0  0  0  0
  -22.3720  -14.3970   21.9860 H   0  0  0  0  0  0  0  0  0  0  0  0
  -26.9040  -15.9800   20.1840 N   0  0  0  0  0  0  0  0  0  0  0  0
  -26.2320  -16.7320   20.2910 H   0  0  0  0  0  0  0  0  0  0  0  0
  -27.8160  -16.2990   19.8900 H   0  0  0  0  0  0  0  0  0  0  0  0
  -31.5920  -17.8190   19.6090 C   0  0  0  0  0  2  0  0  0  0  0  0
  -30.1450  -17.8860   17.5070 C   0  0  0  0  0  1  0  0  0  0  0  0
  -32.6710  -17.8540   17.3060 C   0  0  0  0  0  1  0  0  0  0  0  0
  -31.4620  -17.3980   18.1290 C   0  0  0  0  0  3  0  0  0  0  0  0
  -29.5330  -22.3670   22.4520 C   0  0  0  0  0  2  0  0  0  0  0  0
  -28.7790  -23.2220   21.4010 C   0  0  0  0  0  2  0  0  0  0  0  0
  -29.2590  -24.6930   21.2630 C   0  0  0  0  0  2  0  0  0  0  0  0
  -28.4640  -25.4490   20.1760 C   0  0  0  0  0  2  0  0  0  0  0  0
  -28.6380  -26.8800   20.1970 O   0  0  0  0  0  0  0  0  0  0  0  0
  -24.6860  -31.9240   23.2840 C   0  0  0  0  0  0  0  0  0  0  0  0
  -27.4740  -27.6240   20.1270 C   0  0  0  0  0  0  0  0  0  0  0  0
  -23.5350  -30.5320   21.6010 C   0  0  0  0  0  3  0  0  0  0  0  0
  -25.0440  -29.0860   20.1390 C   0  0  0  0  0  0  0  0  0  0  0  0
  -26.0560  -30.9620   21.4390 C   0  0  0  0  0  2  0  0  0  0  0  0
  -26.1860  -29.6150   20.7590 C   0  0  0  0  0  0  0  0  0  0  0  0
  -27.4030  -28.8930   20.7480 C   0  0  0  0  0  3  0  0  0  0  0  0
  -26.3210  -27.1350   19.4640 C   0  0  0  0  0  3  0  0  0  0  0  0
  -25.1110  -27.8470   19.4830 C   0  0  0  0  0  3  0  0  0  0  0  0
  -23.7740  -29.9090   20.2040 C   0  0  0  0  0  2  0  0  0  0  0  0
  -24.7780  -31.1490   22.1680 N   0  0  0  0  0  0  0  0  0  0  0  0
  -23.5940  -32.1540   23.8160 O   0  0  0  0  0  0  0  0  0  0  0  0
  -22.9090  -29.4610   22.5220 C   0  0  0  0  0  0  0  0  0  0  0  0
  -21.5920  -29.2460   22.3780 N   0  0  0  0  0  0  0  0  0  0  0  0
  -23.6040  -28.8300   23.3250 O   0  0  0  0  0  0  0  0  0  0  0  0
  -21.0900  -29.8130   21.7100 H   0  0  0  0  0  0  0  0  0  0  0  0
  -18.2480  -27.9550   22.8330 C   0  0  0  0  0  0  0  0  0  0  0  0
  -20.7980  -28.2640   23.1140 C   0  0  0  0  0  3  0  0  0  0  0  0
  -20.9390  -26.8540   22.4930 C   0  0  0  0  0  2  0  0  0  0  0  0
  -19.8370  -26.5130   21.4880 C   0  0  0  0  0  2  0  0  0  0  0  0
  -18.4570  -26.6180   22.1430 C   0  0  0  0  0  2  0  0  0  0  0  0
  -19.3470  -28.7300   23.2810 C   0  0  0  0  0  0  0  0  0  0  0  0
  -19.1030  -29.9740   23.9000 C   0  0  0  0  0  3  0  0  0  0  0  0
  -17.7890  -30.4430   24.0790 C   0  0  0  0  0  3  0  0  0  0  0  0
  -16.7010  -29.6630   23.6470 C   0  0  0  0  0  3  0  0  0  0  0  0
  -16.9320  -28.4200   23.0280 C   0  0  0  0  0  3  0  0  0  0  0  0
  -25.9500  -32.5780   23.9290 C   0  0  0  0  0  3  0  0  0  0  0  0
  -26.4490  -31.8190   25.2180 C   0  0  1  0  0  0  0  0  0  0  0  0
  -25.3290  -31.5500   26.2510 C   0  0  0  0  0  1  0  0  0  0  0  0
  -27.0830  -30.4600   24.8430 C   0  0  0  0  0  1  0  0  0  0  0  0
  -27.5570  -32.6450   25.9140 C   0  0  0  0  0  1  0  0  0  0  0  0
  -25.6120  -33.9710   24.2430 N   0  0  0  0  0  0  0  0  0  0  0  0
  -25.9460  -35.0240   23.4850 C   0  0  0  0  0  0  0  0  0  0  0  0
  -26.6450  -34.9260   22.4720 O   0  0  0  0  0  0  0  0  0  0  0  0
  -24.9940  -34.1230   25.0260 H   0  0  0  0  0  0  0  0  0  0  0  0
  -24.1970  -36.7830   23.0740 C   0  0  0  0  0  1  0  0  0  0  0  0
  -25.4240  -36.4060   23.9210 C   0  0  0  0  0  3  0  0  0  0  0  0
  -27.5200  -37.3290   24.8040 C   0  0  0  0  0  1  0  0  0  0  0  0
  -26.4390  -37.4770   23.8310 N   0  0  0  0  0  0  0  0  0  0  0  0
  -26.0130  -38.3910   23.9660 H   0  0  0  0  0  0  0  0  0  0  0  0
  1  2  1  0
  1  3  1  0
  4  5  1  0
  4  1  1  0
  5  6  1  0
  7 46  1  0
  7 16  1  0
  7  6  1  0
  8 16  1  0
  9 14  1  0
 10 11  1  0
 10  9  1  0
 12 11  1  0
 12 21  1  0
 12 13  1  0
 14  8  1  0
 14 13  1  0
 15  8  2  0
 16 17  1  0
 18 19  2  0
 19 38  1  0
 20 19  1  0
 20 23  1  0
 21 18  1  0
 21 22  1  0
 22 20  2  0
 23 24  1  0
 24 25  2  0
 26 29  1  0
 26 25  1  0
 27 26  2  0
 28 27  1  0
 28 23  2  0
 29 30  1  0
 30 31  1  0
 31 32  2  0
 33 32  1  0
 33 37  1  0
 34 33  2  0
 35 30  2  0
 35 34  1  0
 36 35  1  0
 38 39  1  0
 39 42  1  0
 39 41  1  0
 40 38  2  0
 43 44  1  0
 43 18  1  0
 45 43  1  0
 47 49  1  0
 48 49  1  0
 49 46  1  0
 50  1  1  0
 51 50  1  0
 52 51  1  0
 53 54  1  0
 53 52  1  0
 55 66  2  0
 56 54  1  0
 56 61  1  0
 57 65  1  0
 57 67  1  0
 58 64  1  0
 58 60  1  0
 59 65  1  0
 60 59  1  0
 61 60  2  0
 62 63  1  0
 62 56  2  0
 63 58  2  0
 64 57  1  0
 65 55  1  0
 67 69  2  0
 68 67  1  0
 70 68  1  0
 71 80  2  0
 71 76  1  0
 72 68  1  0
 72 76  1  0
 73 72  1  0
 74 75  1  0
 74 73  1  0
 75 71  1  0
 76 77  2  0
 77 78  1  0
 79 78  2  0
 80 79  1  0
 81 55  1  0
 81 86  1  0
 81 82  1  0
 82 85  1  1
 82 83  1  0
 84 82  1  0
 86 89  1  0
 87 91  1  0
 87 86  1  0
 88 87  2  0
 91 90  1  0
 93 91  1  0
 93 94  1  0
 93 92  1  0
M  ISO  4   8 100  16 100  53 101  54 101
M  END
>  <TORSDO>  (20) 
F 26

>  <SCORE>  (20) 
-9.436

>  <name>  (20) 
19

>  <ligand_id>  (20) 
19

>  <original_smiles>  (20) 
[H]c1c([H])c([H])c2c(c1[H])C([H])([H])C([H])([H])C([H])([H])C2([H])N([H])C(=O)C1([H])N(C(=O)C([H])(N([H])C(=O)C([H])(N([H])C([H])([H])[H])C([H])([H])[H])C(C([H])([H])[H])(C([H])([H])[H])C([H])([H])[H])C([H])([H])c2c([H])c(OC([H])([H])C([H])([H])C([H])([H])C([H])([H])[N+]([H])([H])C([H])([H])C([H])([H])C([H])([H])C([H])(N([H])C(=O)N3C([H])([H])C([H])([H])C([H])([H])C([H])(n4nc(-c5c([H])c([H])c(Oc6c([H])c([H])c(F)c([H])c6F)c([H])c5[H])c(C(=O)N([H])[H])c4N([H])[H])C3([H])[H])C([H])([H])C([H])(C([H])([H])[H])C([H])([H])[H])c([H])c([H])c2C1([H])[H]

>  <smiles>  (20) 
[H]c1c([H])c([H])c2c(c1[H])C([H])([H])C([H])([H])C([H])([H])C2([H])N([H])C(=O)C1([H])N(C(=O)C([H])(N([H])C(=O)C([H])(N([H])C([H])([H])[H])C([H])([H])[H])C(C([H])([H])[H])(C([H])([H])[H])C([H])([H])[H])C([H])([H])c2c([H])c(OC([H])([H])C([H])([H])C([H])([H])C([H])([H])[N+]([H])([H])C([H])([H])C([H])([H])C([H])([H])C([H])(N([H])C(=O)N3C([H])([H])C([H])([H])C([H])([H])C([H])(n4nc(-c5c([H])c([H])c(Oc6c([H])c([H])c(F)c([H])c6F)c([H])c5[H])c(C(=O)N([H])[H])c4N([H])[H])C3([H])[H])C([H])([H])C([H])(C([H])([H])[H])C([H])([H])[H])c([H])c([H])c2C1([H])[H]

$$$$
20:0:0
     RDKit          3D

 94101  0  0  1  0  0  0  0  0999 V2000
  -31.6190  -21.4440   20.4840 C   0  0  0  0  0  2  0  0  0  0  0  0
  -30.5440  -22.2520   21.1110 N   0  0  0  0  0  4  0  0  0  0  0  0
  -30.9540  -22.7990   21.8500 H   0  0  0  0  0  0  0  0  0  0  0  0
  -29.8570  -21.6420   21.5250 H   0  0  0  0  0  0  0  0  0  0  0  0
  -29.8520  -23.1500   20.1520 C   0  0  0  0  0  2  0  0  0  0  0  0
  -29.3200  -24.4530   20.7790 C   0  0  0  0  0  2  0  0  0  0  0  0
  -28.3730  -25.2110   19.8290 C   0  0  0  0  0  2  0  0  0  0  0  0
  -28.3430  -26.5940   20.1900 O   0  0  0  0  0  0  0  0  0  0  0  0
  -24.5700  -31.8010   23.1730 C   0  0  0  0  0  0  0  0  0  0  0  0
  -27.1540  -27.2940   20.1420 C   0  0  0  0  0  0  0  0  0  0  0  0
  -23.3440  -30.3970   21.5480 C   0  0  0  0  0  3  0  0  0  0  0  0
  -24.7750  -28.8270   20.1370 C   0  0  0  0  0  0  0  0  0  0  0  0
  -25.8730  -30.7210   21.3450 C   0  0  0  0  0  2  0  0  0  0  0  0
  -25.9360  -29.3400   20.7240 C   0  0  0  0  0  0  0  0  0  0  0  0
  -27.1250  -28.5800   20.7270 C   0  0  0  0  0  3  0  0  0  0  0  0
  -25.9770  -26.8010   19.5290 C   0  0  0  0  0  3  0  0  0  0  0  0
  -24.7900  -27.5570   19.5370 C   0  0  0  0  0  3  0  0  0  0  0  0
  -23.5440  -29.7030   20.1740 C   0  0  0  0  0  2  0  0  0  0  0  0
  -24.6140  -30.9880   22.0810 N   0  0  0  0  0  0  0  0  0  0  0  0
  -23.4910  -32.0960   23.7100 O   0  0  0  0  0  0  0  0  0  0  0  0
  -22.6790  -29.3940   22.5180 C   0  0  0  0  0  0  0  0  0  0  0  0
  -21.3540  -29.2210   22.3840 N   0  0  0  0  0  0  0  0  0  0  0  0
  -23.3530  -28.7740   23.3460 O   0  0  0  0  0  0  0  0  0  0  0  0
  -20.8740  -29.7720   21.6850 H   0  0  0  0  0  0  0  0  0  0  0  0
  -17.9700  -28.0520   22.8530 C   0  0  0  0  0  0  0  0  0  0  0  0
  -20.5250  -28.3030   23.1600 C   0  0  0  0  0  3  0  0  0  0  0  0
  -20.6300  -26.8600   22.6140 C   0  0  0  0  0  2  0  0  0  0  0  0
  -19.5420  -26.5220   21.5900 C   0  0  0  0  0  2  0  0  0  0  0  0
  -18.1510  -26.6880   22.2100 C   0  0  0  0  0  2  0  0  0  0  0  0
  -19.0860  -28.8160   23.2860 C   0  0  0  0  0  0  0  0  0  0  0  0
  -18.8640  -30.0940   23.8450 C   0  0  0  0  0  3  0  0  0  0  0  0
  -17.5610  -30.6050   23.9790 C   0  0  0  0  0  3  0  0  0  0  0  0
  -16.4590  -29.8370   23.5660 C   0  0  0  0  0  3  0  0  0  0  0  0
  -16.6650  -28.5640   23.0070 C   0  0  0  0  0  3  0  0  0  0  0  0
  -25.8640  -32.4190   23.7870 C   0  0  0  0  0  3  0  0  0  0  0  0
  -26.3900  -31.6340   25.0500 C   0  0  1  0  0  0  0  0  0  0  0  0
  -25.3040  -31.3930   26.1240 C   0  0  0  0  0  1  0  0  0  0  0  0
  -26.9630  -30.2570   24.6380 C   0  0  0  0  0  1  0  0  0  0  0  0
  -27.5520  -32.4160   25.7080 C   0  0  0  0  0  1  0  0  0  0  0  0
  -25.5690  -33.8170   24.1290 N   0  0  0  0  0  0  0  0  0  0  0  0
  -25.8960  -34.8700   23.3680 C   0  0  0  0  0  0  0  0  0  0  0  0
  -26.5520  -34.7670   22.3280 O   0  0  0  0  0  0  0  0  0  0  0  0
  -24.9880  -33.9710   24.9390 H   0  0  0  0  0  0  0  0  0  0  0  0
  -24.1690  -36.6690   23.0440 C   0  0  0  0  0  1  0  0  0  0  0  0
  -25.4200  -36.2590   23.8380 C   0  0  0  0  0  3  0  0  0  0  0  0
  -27.5710  -37.1310   24.6390 C   0  0  0  0  0  1  0  0  0  0  0  0
  -26.4550  -37.3070   23.7130 N   0  0  0  0  0  0  0  0  0  0  0  0
  -26.0560  -38.2290   23.8690 H   0  0  0  0  0  0  0  0  0  0  0  0
  -31.8830  -20.0790   21.1610 C   0  0  0  0  0  2  0  0  0  0  0  0
  -30.9400  -18.9680   20.6640 C   0  0  0  0  0  2  0  0  0  0  0  0
  -31.3970  -17.5250   20.9560 C   0  0  0  0  0  2  0  0  0  0  0  0
  -30.6190  -16.4570   20.1380 C   0  0  0  0  0  3  0  0  0  0  0  0
  -31.4120  -14.0960   19.8660 C   0  0  0  0  0  0  0  0  0  0  0  0
  -30.9470  -11.8640   18.9130 C   0  0  0  0  0  2  0  0  0  0  0  0
  -29.9750  -12.0230   17.7250 C   0  0  0  0  0  2  0  0  0  0  0  0
  -28.5060  -12.0280   18.1920 C   0  0  0  0  0  2  0  0  0  0  0  0
  -28.2710  -13.0080   19.3710 C   0  0  0  0  0  3  0  0  0  0  0  0
  -29.3390  -12.7920   20.4720 C   0  0  0  0  0  2  0  0  0  0  0  0
  -30.6800  -12.9460   19.8720 N   0  0  0  0  0  0  0  0  0  0  0  0
  -32.4280  -14.2550   19.1840 O   0  0  0  0  0  0  0  0  0  0  0  0
  -30.8850  -15.0870   20.6020 N   0  0  0  0  0  0  0  0  0  0  0  0
  -30.2060  -14.7530   21.2690 H   0  0  0  0  0  0  0  0  0  0  0  0
  -25.9930  -13.8880   20.2000 C   0  0  0  0  0  0  0  0  0  0  0  0
  -24.8600  -13.2430   20.6200 C   0  0  0  0  0  0  0  0  0  0  0  0
  -25.1550  -11.8470   20.5520 C   0  0  0  0  0  0  0  0  0  0  0  0
  -26.9140  -12.8920   19.9080 N   0  0  0  0  0  0  0  0  0  0  0  0
  -26.4120  -11.6560   20.1760 N   0  0  0  0  0  0  0  0  0  0  0  0
  -24.2900  -10.6780   20.7680 C   0  0  0  0  0  0  0  0  0  0  0  0
  -24.6500   -9.6510   21.6660 C   0  0  0  0  0  3  0  0  0  0  0  0
  -23.7960   -8.5450   21.8670 C   0  0  0  0  0  3  0  0  0  0  0  0
  -22.5670   -8.4610   21.1720 C   0  0  0  0  0  0  0  0  0  0  0  0
  -22.2250   -9.4770   20.2600 C   0  0  0  0  0  3  0  0  0  0  0  0
  -23.0790  -10.5730   20.0560 C   0  0  0  0  0  3  0  0  0  0  0  0
  -21.6850   -7.4150   21.2860 O   0  0  0  0  0  0  0  0  0  0  0  0
  -21.5970   -6.6740   22.4370 C   0  0  0  0  0  0  0  0  0  0  0  0
  -21.3040   -7.2630   23.6860 C   0  0  0  0  0  3  0  0  0  0  0  0
  -21.1510   -6.4510   24.8290 C   0  0  0  0  0  3  0  0  0  0  0  0
  -21.2850   -5.0530   24.7240 C   0  0  0  0  0  0  0  0  0  0  0  0
  -21.5730   -4.4650   23.4800 C   0  0  0  0  0  3  0  0  0  0  0  0
  -21.7250   -5.2730   22.3390 C   0  0  0  0  0  0  0  0  0  0  0  0
  -21.9800   -4.6980   21.1400 F   0  0  0  0  0  0  0  0  0  0  0  0
  -21.1360   -4.2730   25.8210 F   0  0  0  0  0  0  0  0  0  0  0  0
  -23.5450  -13.8790   20.9700 C   0  0  0  0  0  0  0  0  0  0  0  0
  -22.7930  -13.2650   21.8760 N   0  0  0  0  0  0  0  0  0  0  0  0
  -23.1970  -14.9490   20.4710 O   0  0  0  0  0  0  0  0  0  0  0  0
  -23.0900  -12.3950   22.2890 H   0  0  0  0  0  0  0  0  0  0  0  0
  -21.9040  -13.6580   22.1480 H   0  0  0  0  0  0  0  0  0  0  0  0
  -26.3070  -15.2300   20.0270 N   0  0  0  0  0  0  0  0  0  0  0  0
  -25.6550  -15.9770   20.2310 H   0  0  0  0  0  0  0  0  0  0  0  0
  -27.2050  -15.5710   19.7070 H   0  0  0  0  0  0  0  0  0  0  0  0
  -28.4520  -16.7190   21.5200 C   0  0  0  0  0  1  0  0  0  0  0  0
  -29.0640  -16.6260   20.1080 C   0  0  0  0  0  3  0  0  0  0  0  0
  -28.9820  -17.7210   17.7250 C   0  0  0  0  0  1  0  0  0  0  0  0
  -28.4720  -17.7190   19.1790 C   0  0  0  0  0  2  0  0  0  0  0  0
  1  2  1  0
  1 49  1  0
  2  4  1  0
  2  3  1  0
  5  6  1  0
  5  2  1  0
  7  8  1  0
  7  6  1  0
  9 20  2  0
 10  8  1  0
 10 15  1  0
 11 19  1  0
 11 21  1  0
 12 18  1  0
 12 14  1  0
 13 19  1  0
 14 15  2  0
 14 13  1  0
 16 17  1  0
 16 10  2  0
 17 12  2  0
 18 11  1  0
 19  9  1  0
 21 23  2  0
 22 21  1  0
 24 22  1  0
 25 34  2  0
 25 30  1  0
 26 22  1  0
 26 30  1  0
 27 26  1  0
 28 29  1  0
 28 27  1  0
 29 25  1  0
 30 31  2  0
 31 32  1  0
 33 32  2  0
 34 33  1  0
 35  9  1  0
 35 40  1  0
 35 36  1  0
 36 39  1  1
 36 37  1  0
 38 36  1  0
 40 43  1  0
 41 45  1  0
 41 40  1  0
 42 41  2  0
 45 44  1  0
 47 45  1  0
 47 48  1  0
 47 46  1  0
 50 51  1  0
 50 49  1  0
 52 61  1  0
 52 51  1  0
 53 59  1  0
 53 61  1  0
 54 59  1  0
 55 56  1  0
 55 54  1  0
 57 56  1  0
 57 66  1  0
 57 58  1  0
 59 58  1  0
 60 53  2  0
 61 62  1  0
 63 64  2  0
 64 83  1  0
 65 64  1  0
 65 68  1  0
 66 67  1  0
 66 63  1  0
 67 65  2  0
 68 69  1  0
 69 70  2  0
 71 74  1  0
 71 70  1  0
 72 71  2  0
 73 72  1  0
 73 68  2  0
 74 75  1  0
 75 76  1  0
 76 77  2  0
 78 77  1  0
 78 82  1  0
 79 78  2  0
 80 75  2  0
 80 79  1  0
 81 80  1  0
 83 84  1  0
 84 87  1  0
 84 86  1  0
 85 83  2  0
 88 63  1  0
 88 89  1  0
 90 88  1  0
 92 52  1  0
 92 91  1  0
 93 94  1  0
 94 92  1  0
M  ISO  4   7 101   8 101  53 100  61 100
M  END
>  <TORSDO>  (21) 
F 26

>  <SCORE>  (21) 
-10.678

>  <name>  (21) 
20

>  <ligand_id>  (21) 
20

>  <original_smiles>  (21) 
[H]c1c([H])c([H])c2c(c1[H])C([H])([H])C([H])([H])C([H])([H])C2([H])N([H])C(=O)C1([H])N(C(=O)C([H])(N([H])C(=O)C([H])(N([H])C([H])([H])[H])C([H])([H])[H])C(C([H])([H])[H])(C([H])([H])[H])C([H])([H])[H])C([H])([H])c2c([H])c(OC([H])([H])C([H])([H])C([H])([H])[N+]([H])([H])C([H])([H])C([H])([H])C([H])([H])C([H])([H])C([H])(N([H])C(=O)N3C([H])([H])C([H])([H])C([H])([H])C([H])(n4nc(-c5c([H])c([H])c(Oc6c([H])c([H])c(F)c([H])c6F)c([H])c5[H])c(C(=O)N([H])[H])c4N([H])[H])C3([H])[H])C([H])(C([H])([H])[H])C([H])([H])C([H])([H])[H])c([H])c([H])c2C1([H])[H]

>  <smiles>  (21) 
[H]c1c([H])c([H])c2c(c1[H])C([H])([H])C([H])([H])C([H])([H])C2([H])N([H])C(=O)C1([H])N(C(=O)C([H])(N([H])C(=O)C([H])(N([H])C([H])([H])[H])C([H])([H])[H])C(C([H])([H])[H])(C([H])([H])[H])C([H])([H])[H])C([H])([H])c2c([H])c(OC([H])([H])C([H])([H])C([H])([H])[N+]([H])([H])C([H])([H])C([H])([H])C([H])([H])C([H])([H])C([H])(N([H])C(=O)N3C([H])([H])C([H])([H])C([H])([H])C([H])(n4nc(-c5c([H])c([H])c(Oc6c([H])c([H])c(F)c([H])c6F)c([H])c5[H])c(C(=O)N([H])[H])c4N([H])[H])C3([H])[H])C([H])(C([H])([H])[H])C([H])([H])C([H])([H])[H])c([H])c([H])c2C1([H])[H]

$$$$
21:0:0
     RDKit          3D

 87 95  0  0  1  0  0  0  0  0999 V2000
  -28.8420  -22.4040   22.0220 C   0  0  0  0  0  1  0  0  0  0  0  0
  -28.8850  -22.4040   20.4860 C   0  0  0  0  0  3  0  0  0  0  0  0
  -30.3720  -15.6020   20.0180 C   0  0  0  0  0  0  0  0  0  0  0  0
  -30.3270  -13.1050   19.1660 C   0  0  0  0  0  2  0  0  0  0  0  0
  -29.3890  -12.7650   17.9790 C   0  0  0  0  0  2  0  0  0  0  0  0
  -27.9800  -12.4330   18.4900 C   0  0  0  0  0  2  0  0  0  0  0  0
  -27.5260  -13.4210   19.5890 C   0  0  0  0  0  3  0  0  0  0  0  0
  -28.6030  -13.7100   20.6620 C   0  0  0  0  0  2  0  0  0  0  0  0
  -29.7600  -14.2900   19.9500 N   0  0  0  0  0  0  0  0  0  0  0  0
  -31.5880  -15.4700   19.7900 O   0  0  0  0  0  0  0  0  0  0  0  0
  -28.4850  -17.8130   20.4080 C   0  0  0  0  0  2  0  0  0  0  0  0
  -30.4870  -18.3160   19.4400 C   0  0  0  0  0  2  0  0  0  0  0  0
  -28.2720  -19.5060   20.7590 C   0  0  0  0  0  2  0  0  0  0  0  0
  -30.2780  -19.9720   19.8350 C   0  0  0  0  0  2  0  0  0  0  0  0
  -29.7940  -17.0390   20.0250 N   0  0  0  0  0  0  0  0  0  0  0  0
  -28.9150  -20.7260   19.9850 N   0  0  2  0  0  4  0  0  0  0  0  0
  -28.5080  -20.7210   19.0610 H   0  0  0  0  0  0  0  0  0  0  0  0
  -25.1980  -13.9350   20.4640 C   0  0  0  0  0  0  0  0  0  0  0  0
  -24.1570  -13.1430   20.8590 C   0  0  0  0  0  0  0  0  0  0  0  0
  -24.6310  -11.7960   20.7830 C   0  0  0  0  0  0  0  0  0  0  0  0
  -26.2340  -13.0730   20.1610 N   0  0  0  0  0  0  0  0  0  0  0  0
  -25.9100  -11.7780   20.4210 N   0  0  0  0  0  0  0  0  0  0  0  0
  -23.9180  -10.5260   20.9770 C   0  0  0  0  0  0  0  0  0  0  0  0
  -24.3640   -9.5600   21.9050 C   0  0  0  0  0  3  0  0  0  0  0  0
  -23.6450   -8.3590   22.0890 C   0  0  0  0  0  3  0  0  0  0  0  0
  -22.4650   -8.1150   21.3460 C   0  0  0  0  0  0  0  0  0  0  0  0
  -22.0390   -9.0700   20.4060 C   0  0  0  0  0  3  0  0  0  0  0  0
  -22.7580  -10.2620   20.2200 C   0  0  0  0  0  3  0  0  0  0  0  0
  -21.7190   -6.9660   21.4400 O   0  0  0  0  0  0  0  0  0  0  0  0
  -21.6520   -6.2430   22.6040 C   0  0  0  0  0  0  0  0  0  0  0  0
  -21.1800   -6.8100   23.8070 C   0  0  0  0  0  3  0  0  0  0  0  0
  -21.0620   -6.0130   24.9630 C   0  0  0  0  0  3  0  0  0  0  0  0
  -21.4070   -4.6490   24.9170 C   0  0  0  0  0  0  0  0  0  0  0  0
  -21.8740   -4.0800   23.7180 C   0  0  0  0  0  3  0  0  0  0  0  0
  -21.9920   -4.8750   22.5640 C   0  0  0  0  0  0  0  0  0  0  0  0
  -22.4210   -4.3180   21.4070 F   0  0  0  0  0  0  0  0  0  0  0  0
  -21.2880   -3.8800   26.0250 F   0  0  0  0  0  0  0  0  0  0  0  0
  -22.7690  -13.6080   21.1850 C   0  0  0  0  0  0  0  0  0  0  0  0
  -22.0760  -12.8960   22.0650 N   0  0  0  0  0  0  0  0  0  0  0  0
  -22.3110  -14.6390   20.6960 O   0  0  0  0  0  0  0  0  0  0  0  0
  -22.4600  -12.0620   22.4840 H   0  0  0  0  0  0  0  0  0  0  0  0
  -21.1460  -13.1900   22.3280 H   0  0  0  0  0  0  0  0  0  0  0  0
  -25.3460  -15.3100   20.3060 N   0  0  0  0  0  0  0  0  0  0  0  0
  -24.5790  -15.9560   20.4560 H   0  0  0  0  0  0  0  0  0  0  0  0
  -26.1760  -15.7560   19.9380 H   0  0  0  0  0  0  0  0  0  0  0  0
  -28.0160  -24.0120   19.9820 C   0  0  0  0  0  2  0  0  0  0  0  0
  -28.1460  -25.7070   20.3000 O   0  0  0  0  0  0  0  0  0  0  0  0
  -24.6590  -31.8840   23.2530 C   0  0  0  0  0  0  0  0  0  0  0  0
  -27.1650  -26.8830   20.2210 C   0  0  0  0  0  0  0  0  0  0  0  0
  -23.4590  -30.4990   21.6140 C   0  0  0  0  0  3  0  0  0  0  0  0
  -24.8950  -28.8700   20.1820 C   0  0  0  0  0  0  0  0  0  0  0  0
  -26.0330  -30.6590   21.4740 C   0  0  0  0  0  2  0  0  0  0  0  0
  -26.0900  -29.2370   20.8100 C   0  0  0  0  0  0  0  0  0  0  0  0
  -27.2140  -28.2680   20.8000 C   0  0  0  0  0  3  0  0  0  0  0  0
  -25.9400  -26.7070   19.5350 C   0  0  0  0  0  3  0  0  0  0  0  0
  -24.8540  -27.6310   19.5200 C   0  0  0  0  0  3  0  0  0  0  0  0
  -23.6870  -29.8120   20.2360 C   0  0  0  0  0  2  0  0  0  0  0  0
  -24.7400  -31.0450   22.1660 N   0  0  0  0  0  0  0  0  0  0  0  0
  -23.5700  -32.1800   23.7740 O   0  0  0  0  0  0  0  0  0  0  0  0
  -22.7510  -29.5130   22.5810 C   0  0  0  0  0  0  0  0  0  0  0  0
  -21.4200  -29.3510   22.4530 N   0  0  0  0  0  0  0  0  0  0  0  0
  -23.4100  -28.8890   23.4170 O   0  0  0  0  0  0  0  0  0  0  0  0
  -20.9390  -29.9050   21.7580 H   0  0  0  0  0  0  0  0  0  0  0  0
  -18.0380  -28.1220   22.9500 C   0  0  0  0  0  0  0  0  0  0  0  0
  -20.5950  -28.4110   23.2220 C   0  0  0  0  0  3  0  0  0  0  0  0
  -20.7080  -26.9770   22.6540 C   0  0  0  0  0  2  0  0  0  0  0  0
  -19.6140  -26.6440   21.6350 C   0  0  0  0  0  2  0  0  0  0  0  0
  -18.2280  -26.7760   22.2720 C   0  0  0  0  0  2  0  0  0  0  0  0
  -19.1480  -28.8970   23.3810 C   0  0  0  0  0  0  0  0  0  0  0  0
  -18.9120  -30.1530   23.9800 C   0  0  0  0  0  3  0  0  0  0  0  0
  -17.6000  -30.6390   24.1460 C   0  0  0  0  0  3  0  0  0  0  0  0
  -16.5060  -29.8630   23.7260 C   0  0  0  0  0  3  0  0  0  0  0  0
  -16.7250  -28.6060   23.1370 C   0  0  0  0  0  3  0  0  0  0  0  0
  -25.9280  -32.5250   23.8920 C   0  0  0  0  0  3  0  0  0  0  0  0
  -25.6160  -33.9290   24.2220 N   0  0  0  0  0  0  0  0  0  0  0  0
  -25.9350  -34.9880   23.4650 C   0  0  0  0  0  0  0  0  0  0  0  0
  -26.5820  -34.8860   22.4200 O   0  0  0  0  0  0  0  0  0  0  0  0
  -25.0360  -34.0810   25.0330 H   0  0  0  0  0  0  0  0  0  0  0  0
  -24.1910  -36.7860   23.1860 C   0  0  0  0  0  1  0  0  0  0  0  0
  -25.4680  -36.3800   23.9400 C   0  0  0  0  0  3  0  0  0  0  0  0
  -27.6310  -37.2840   24.6780 C   0  0  0  0  0  1  0  0  0  0  0  0
  -26.4920  -37.4360   23.7760 N   0  0  0  0  0  0  0  0  0  0  0  0
  -26.0890  -38.3570   23.9270 H   0  0  0  0  0  0  0  0  0  0  0  0
  -26.4190  -31.7670   25.1880 C   0  0  1  0  0  0  0  0  0  0  0  0
  -25.3080  -31.5510   26.2440 C   0  0  0  0  0  1  0  0  0  0  0  0
  -26.9960  -30.3790   24.8320 C   0  0  0  0  0  1  0  0  0  0  0  0
  -27.5670  -32.5610   25.8560 C   0  0  0  0  0  1  0  0  0  0  0  0
  2  1  1  0
  3 15  1  0
  4  9  1  0
  5  6  1  0
  5  4  1  0
  7  6  1  0
  7 21  1  0
  7  8  1  0
  9  3  1  0
  9  8  1  0
 10  3  2  0
 11 13  1  0
 12 14  1  0
 12 15  1  0
 14 16  1  0
 15 11  1  0
 16  2  1  0
 16 13  1  0
 16 17  1  6
 18 19  2  0
 19 38  1  0
 20 19  1  0
 20 23  1  0
 21 22  1  0
 21 18  1  0
 22 20  2  0
 23 24  1  0
 24 25  2  0
 26 29  1  0
 26 25  1  0
 27 26  2  0
 28 27  1  0
 28 23  2  0
 29 30  1  0
 30 31  1  0
 31 32  2  0
 33 32  1  0
 33 37  1  0
 34 33  2  0
 35 30  2  0
 35 34  1  0
 36 35  1  0
 38 39  1  0
 39 42  1  0
 39 41  1  0
 40 38  2  0
 43 44  1  0
 43 18  1  0
 45 43  1  0
 46 47  1  0
 46  2  1  0
 48 59  2  0
 49 47  1  0
 49 54  1  0
 50 58  1  0
 50 60  1  0
 51 57  1  0
 51 53  1  0
 52 58  1  0
 53 52  1  0
 54 53  2  0
 55 49  2  0
 56 55  1  0
 56 51  2  0
 57 50  1  0
 58 48  1  0
 60 62  2  0
 61 60  1  0
 63 61  1  0
 64 73  2  0
 64 69  1  0
 65 61  1  0
 65 69  1  0
 66 65  1  0
 67 68  1  0
 67 66  1  0
 68 64  1  0
 69 70  2  0
 70 71  1  0
 72 71  2  0
 73 72  1  0
 74 48  1  0
 74 75  1  0
 74 84  1  0
 75 78  1  0
 76 80  1  0
 76 75  1  0
 77 76  2  0
 80 79  1  0
 82 83  1  0
 82 80  1  0
 82 81  1  0
 84 87  1  1
 84 85  1  0
 86 84  1  0
M  ISO  4   3 100  15 100  46 101  47 101
M  END
>  <TORSDO>  (22) 
F 17

>  <SCORE>  (22) 
-16.540

>  <name>  (22) 
21

>  <ligand_id>  (22) 
21

>  <original_smiles>  (22) 
[H]c1c([H])c([H])c2c(c1[H])C([H])([H])C([H])([H])C([H])([H])C2([H])N([H])C(=O)C1([H])N(C(=O)C([H])(N([H])C(=O)C([H])(N([H])C([H])([H])[H])C([H])([H])[H])C(C([H])([H])[H])(C([H])([H])[H])C([H])([H])[H])C([H])([H])c2c([H])c(OC([H])([H])C([H])(C([H])([H])[H])[N+]3([H])C([H])([H])C([H])([H])N(C(=O)N4C([H])([H])C([H])([H])C([H])([H])C([H])(n5nc(-c6c([H])c([H])c(Oc7c([H])c([H])c(F)c([H])c7F)c([H])c6[H])c(C(=O)N([H])[H])c5N([H])[H])C4([H])[H])C([H])([H])C3([H])[H])c([H])c([H])c2C1([H])[H]

>  <smiles>  (22) 
[H]c1c([H])c([H])c2c(c1[H])C([H])([H])C([H])([H])C([H])([H])C2([H])N([H])C(=O)C1([H])N(C(=O)C([H])(N([H])C(=O)C([H])(N([H])C([H])([H])[H])C([H])([H])[H])C(C([H])([H])[H])(C([H])([H])[H])C([H])([H])[H])C([H])([H])c2c([H])c(OC([H])([H])C([H])(C([H])([H])[H])[N+]3([H])C([H])([H])C([H])([H])N(C(=O)N4C([H])([H])C([H])([H])C([H])([H])C([H])(n5nc(-c6c([H])c([H])c(Oc7c([H])c([H])c(F)c([H])c7F)c([H])c6[H])c(C(=O)N([H])[H])c5N([H])[H])C4([H])[H])C([H])([H])C3([H])[H])c([H])c([H])c2C1([H])[H]

$$$$
22:0:0
     RDKit          3D

 85 90  0  0  1  0  0  0  0  0999 V2000
  -27.9500  -21.2260   21.5520 C   0  0  0  0  0  1  0  0  0  0  0  0
  -28.8640  -21.5240   20.3590 C   0  0  0  0  0  1  0  0  0  0  0  0
  -30.1990  -16.2460   19.9600 C   0  0  0  0  0  0  0  0  0  0  0  0
  -30.4010  -13.6050   19.1680 C   0  0  0  0  0  2  0  0  0  0  0  0
  -29.5160  -13.0060   18.0230 C   0  0  0  0  0  2  0  0  0  0  0  0
  -28.1470  -12.5520   18.5450 C   0  0  0  0  0  2  0  0  0  0  0  0
  -27.6050  -13.5730   19.5620 C   0  0  0  0  0  3  0  0  0  0  0  0
  -28.6450  -14.0480   20.6190 C   0  0  0  0  0  2  0  0  0  0  0  0
  -29.7260  -14.8060   19.9040 N   0  0  0  0  0  0  0  0  0  0  0  0
  -31.4340  -16.1220   19.7610 O   0  0  0  0  0  0  0  0  0  0  0  0
  -27.2540  -18.5250   19.1930 C   0  0  0  0  0  2  0  0  0  0  0  0
  -28.3000  -19.4450   18.5780 C   0  0  0  0  0  2  0  0  0  0  0  0
  -27.9750  -17.4820   20.0690 C   0  0  0  0  0  2  0  0  0  0  0  0
  -29.3350  -19.5890   19.6800 C   0  0  0  0  0  2  0  0  0  0  0  0
  -29.4210  -17.7140   20.0420 N   0  0  0  0  0  0  0  0  0  0  0  0
  -25.2650  -14.0450   20.4150 C   0  0  0  0  0  0  0  0  0  0  0  0
  -24.2300  -13.2490   20.8080 C   0  0  0  0  0  0  0  0  0  0  0  0
  -24.7180  -11.9080   20.7470 C   0  0  0  0  0  0  0  0  0  0  0  0
  -26.3170  -13.1960   20.1330 N   0  0  0  0  0  0  0  0  0  0  0  0
  -26.0030  -11.8980   20.3940 N   0  0  0  0  0  0  0  0  0  0  0  0
  -24.0070  -10.6370   20.9460 C   0  0  0  0  0  0  0  0  0  0  0  0
  -24.4550   -9.6760   21.8780 C   0  0  0  0  0  3  0  0  0  0  0  0
  -23.7360   -8.4760   22.0710 C   0  0  0  0  0  3  0  0  0  0  0  0
  -22.5550   -8.2280   21.3320 C   0  0  0  0  0  0  0  0  0  0  0  0
  -22.1250   -9.1780   20.3900 C   0  0  0  0  0  3  0  0  0  0  0  0
  -22.8440  -10.3700   20.1960 C   0  0  0  0  0  3  0  0  0  0  0  0
  -21.8080   -7.0800   21.4350 O   0  0  0  0  0  0  0  0  0  0  0  0
  -21.7590   -6.3530   22.5970 C   0  0  0  0  0  0  0  0  0  0  0  0
  -21.2940   -6.9130   23.8070 C   0  0  0  0  0  3  0  0  0  0  0  0
  -21.1960   -6.1110   24.9610 C   0  0  0  0  0  3  0  0  0  0  0  0
  -21.5510   -4.7510   24.9070 C   0  0  0  0  0  0  0  0  0  0  0  0
  -22.0080   -4.1890   23.7020 C   0  0  0  0  0  3  0  0  0  0  0  0
  -22.1080   -4.9880   22.5500 C   0  0  0  0  0  0  0  0  0  0  0  0
  -22.5290   -4.4370   21.3860 F   0  0  0  0  0  0  0  0  0  0  0  0
  -21.4490   -3.9780   26.0140 F   0  0  0  0  0  0  0  0  0  0  0  0
  -22.8360  -13.7100   21.1170 C   0  0  0  0  0  0  0  0  0  0  0  0
  -22.1420  -13.0110   22.0050 N   0  0  0  0  0  0  0  0  0  0  0  0
  -22.3750  -14.7320   20.6060 O   0  0  0  0  0  0  0  0  0  0  0  0
  -22.5290  -12.1870   22.4400 H   0  0  0  0  0  0  0  0  0  0  0  0
  -21.2080  -13.3040   22.2540 H   0  0  0  0  0  0  0  0  0  0  0  0
  -25.3820  -15.4190   20.2430 N   0  0  0  0  0  0  0  0  0  0  0  0
  -24.5930  -16.0410   20.3810 H   0  0  0  0  0  0  0  0  0  0  0  0
  -26.1970  -15.8900   19.8770 H   0  0  0  0  0  0  0  0  0  0  0  0
  -28.2620  -23.4800   19.8470 C   0  0  0  0  0 15  0  0  0  0  0  0
  -28.1570  -25.3310   20.2490 O   0  0  0  0  0  1  0  0  0  0  0  0
  -24.6260  -31.8920   23.1550 C   0  0  0  0  0  0  0  0  0  0  0  0
  -27.2000  -26.6470   20.1540 C   0  0  0  0  0  0  0  0  0  0  0  0
  -23.4590  -30.4840   21.5160 C   0  0  0  0  0  3  0  0  0  0  0  0
  -24.9260  -28.8090   20.1030 C   0  0  0  0  0  0  0  0  0  0  0  0
  -26.0470  -30.5820   21.4180 C   0  0  0  0  0  2  0  0  0  0  0  0
  -26.1230  -29.1280   20.7550 C   0  0  0  0  0  0  0  0  0  0  0  0
  -27.2250  -28.0810   20.7460 C   0  0  0  0  0  3  0  0  0  0  0  0
  -25.9660  -26.6060   19.4340 C   0  0  0  0  0  3  0  0  0  0  0  0
  -24.9020  -27.5780   19.4180 C   0  0  0  0  0  3  0  0  0  0  0  0
  -23.7170  -29.7760   20.1480 C   0  0  0  0  0  2  0  0  0  0  0  0
  -24.7370  -31.0250   22.0830 N   0  0  0  0  0  0  0  0  0  0  0  0
  -23.5250  -32.1910   23.6540 O   0  0  0  0  0  0  0  0  0  0  0  0
  -22.7310  -29.5170   22.4910 C   0  0  0  0  0  0  0  0  0  0  0  0
  -21.3990  -29.3550   22.3630 N   0  0  0  0  0  0  0  0  0  0  0  0
  -23.3810  -28.9070   23.3420 O   0  0  0  0  0  0  0  0  0  0  0  0
  -20.9190  -29.8990   21.6590 H   0  0  0  0  0  0  0  0  0  0  0  0
  -18.0260  -28.0790   22.8600 C   0  0  0  0  0  0  0  0  0  0  0  0
  -20.5790  -28.4080   23.1340 C   0  0  0  0  0  3  0  0  0  0  0  0
  -20.7130  -26.9730   22.5700 C   0  0  0  0  0  2  0  0  0  0  0  0
  -19.6260  -26.6220   21.5480 C   0  0  0  0  0  2  0  0  0  0  0  0
  -18.2370  -26.7360   22.1810 C   0  0  0  0  0  2  0  0  0  0  0  0
  -19.1240  -28.8720   23.2910 C   0  0  0  0  0  0  0  0  0  0  0  0
  -18.8680  -30.1230   23.8920 C   0  0  0  0  0  3  0  0  0  0  0  0
  -17.5490  -30.5860   24.0600 C   0  0  0  0  0  3  0  0  0  0  0  0
  -16.4670  -29.7940   23.6410 C   0  0  0  0  0  3  0  0  0  0  0  0
  -16.7050  -28.5420   23.0470 C   0  0  0  0  0  3  0  0  0  0  0  0
  -25.8720  -32.5660   23.8070 C   0  0  0  0  0  3  0  0  0  0  0  0
  -25.5350  -33.9710   24.1270 N   0  0  0  0  0  0  0  0  0  0  0  0
  -25.8770  -35.0410   23.3950 C   0  0  0  0  0  0  0  0  0  0  0  0
  -26.5600  -34.9490   22.3720 O   0  0  0  0  0  0  0  0  0  0  0  0
  -24.9300  -34.1150   24.9220 H   0  0  0  0  0  0  0  0  0  0  0  0
  -24.1550  -36.8520   23.0500 C   0  0  0  0  0  1  0  0  0  0  0  0
  -25.3890  -36.4290   23.8640 C   0  0  0  0  0  3  0  0  0  0  0  0
  -27.5110  -37.3180   24.7260 C   0  0  0  0  0  1  0  0  0  0  0  0
  -26.4220  -37.4850   23.7690 N   0  0  0  0  0  0  0  0  0  0  0  0
  -26.0110  -38.4030   23.9130 H   0  0  0  0  0  0  0  0  0  0  0  0
  -26.3520  -31.8310   25.1210 C   0  0  1  0  0  0  0  0  0  0  0  0
  -25.2310  -31.6200   26.1660 C   0  0  0  0  0  1  0  0  0  0  0  0
  -26.9490  -30.4440   24.7970 C   0  0  0  0  0  1  0  0  0  0  0  0
  -27.4830  -32.6460   25.7930 C   0  0  0  0  0  1  0  0  0  0  0  0
  2  1  1  0
  3 15  1  0
  4  9  1  0
  5  6  1  0
  5  4  1  0
  7  6  1  0
  7 19  1  0
  7  8  1  0
  9  3  1  0
  9  8  1  0
 10  3  2  0
 11 13  1  0
 12 11  1  0
 12 14  1  0
 14 15  1  0
 15 13  1  0
 16 17  2  0
 17 36  1  0
 18 17  1  0
 18 21  1  0
 19 20  1  0
 19 16  1  0
 20 18  2  0
 21 22  1  0
 22 23  2  0
 24 27  1  0
 24 23  1  0
 25 24  2  0
 26 25  1  0
 26 21  2  0
 27 28  1  0
 28 29  1  0
 29 30  2  0
 31 30  1  0
 31 35  1  0
 32 31  2  0
 33 28  2  0
 33 32  1  0
 34 33  1  0
 36 37  1  0
 37 40  1  0
 37 39  1  0
 38 36  2  0
 41 42  1  0
 41 16  1  0
 43 41  1  0
 46 57  2  0
 47 45  1  0
 47 52  1  0
 48 56  1  0
 48 58  1  0
 49 55  1  0
 49 51  1  0
 50 56  1  0
 51 50  1  0
 52 51  2  0
 53 47  2  0
 54 53  1  0
 54 49  2  0
 55 48  1  0
 56 46  1  0
 58 60  2  0
 59 58  1  0
 61 59  1  0
 62 71  2  0
 62 67  1  0
 63 59  1  0
 63 67  1  0
 64 63  1  0
 65 66  1  0
 65 64  1  0
 66 62  1  0
 67 68  2  0
 68 69  1  0
 70 69  2  0
 71 70  1  0
 72 46  1  0
 72 73  1  0
 72 82  1  0
 73 76  1  0
 74 78  1  0
 74 73  1  0
 75 74  2  0
 78 77  1  0
 80 78  1  0
 80 81  1  0
 80 79  1  0
 82 85  1  1
 82 83  1  0
 84 82  1  0
M  ISO  4   3 100  15 100  44 101  45 101
M  END
>  <TORSDO>  (23) 
F 17

>  <SCORE>  (23) 
-16.161

>  <name>  (23) 
22

>  <ligand_id>  (23) 
22

>  <original_smiles>  (23) 
[H]c1c([H])c([H])c2c(c1[H])C([H])([H])C([H])([H])C([H])([H])C2([H])N([H])C(=O)C1([H])N(C(=O)C([H])(N([H])C(=O)C([H])(N([H])C([H])([H])[H])C([H])([H])[H])C(C([H])([H])[H])(C([H])([H])[H])C([H])([H])[H])C([H])([H])c2c([H])c(OC([H])([H])C([H])(C([H])([H])[H])C3([H])N(C(=O)N4C([H])([H])C([H])([H])C([H])([H])C([H])(n5nc(-c6c([H])c([H])c(Oc7c([H])c([H])c(F)c([H])c7F)c([H])c6[H])c(C(=O)N([H])[H])c5N([H])[H])C4([H])[H])C([H])([H])C([H])([H])C3([H])[H])c([H])c([H])c2C1([H])[H]

>  <smiles>  (23) 
[H]c1c([H])c([H])c2c(c1[H])C([H])([H])C([H])([H])C([H])([H])C2([H])N([H])C(=O)C1([H])N(C(=O)C([H])(N([H])C(=O)C([H])(N([H])C([H])([H])[H])C([H])([H])[H])C(C([H])([H])[H])(C([H])([H])[H])C([H])([H])[H])C([H])([H])c2c([H])c(OC([H])([H])C([H])(C([H])([H])[H])C3([H])N(C(=O)N4C([H])([H])C([H])([H])C([H])([H])C([H])(n5nc(-c6c([H])c([H])c(Oc7c([H])c([H])c(F)c([H])c7F)c([H])c6[H])c(C(=O)N([H])[H])c5N([H])[H])C4([H])[H])C([H])([H])C([H])([H])C3([H])[H])c([H])c([H])c2C1([H])[H]

$$$$
23:0:0
     RDKit          3D

 90 97  0  0  1  0  0  0  0  0999 V2000
  -29.2820  -19.9220   19.6460 C   0  0  0  0  0  0  0  0  0  0  0  0
  -29.1970  -21.3090   20.1800 N   0  0  0  0  0  0  0  0  0  0  0  0
  -28.6840  -19.7400   18.5850 O   0  0  0  0  0  0  0  0  0  0  0  0
  -29.6590  -21.3760   21.0770 H   0  0  0  0  0  0  0  0  0  0  0  0
  -28.7250  -22.8350   19.6380 C   0  0  0  0  0  2  0  0  0  0  0  0
  -28.1290  -24.3640   20.4230 C   0  0  0  0  0  2  0  0  0  0  0  0
  -28.2760  -26.0010   20.1760 O   0  0  0  0  0  0  0  0  0  0  0  0
  -24.6370  -31.9240   23.2490 C   0  0  0  0  0  0  0  0  0  0  0  0
  -27.2360  -27.0760   20.2020 C   0  0  0  0  0  0  0  0  0  0  0  0
  -23.4580  -30.5320   21.5970 C   0  0  0  0  0  3  0  0  0  0  0  0
  -24.9210  -28.9440   20.1700 C   0  0  0  0  0  0  0  0  0  0  0  0
  -26.0220  -30.7620   21.4550 C   0  0  0  0  0  2  0  0  0  0  0  0
  -26.1060  -29.3550   20.7910 C   0  0  0  0  0  0  0  0  0  0  0  0
  -27.2610  -28.4450   20.7750 C   0  0  0  0  0  3  0  0  0  0  0  0
  -26.0120  -26.8150   19.5480 C   0  0  0  0  0  3  0  0  0  0  0  0
  -24.8980  -27.6940   19.5280 C   0  0  0  0  0  3  0  0  0  0  0  0
  -23.6980  -29.8590   20.2160 C   0  0  0  0  0  2  0  0  0  0  0  0
  -24.7280  -31.1000   22.1550 N   0  0  0  0  0  0  0  0  0  0  0  0
  -23.5450  -32.2000   23.7700 O   0  0  0  0  0  0  0  0  0  0  0  0
  -22.7690  -29.5240   22.5530 C   0  0  0  0  0  0  0  0  0  0  0  0
  -21.4500  -29.3130   22.3940 N   0  0  0  0  0  0  0  0  0  0  0  0
  -23.4310  -28.9320   23.4090 O   0  0  0  0  0  0  0  0  0  0  0  0
  -20.9670  -29.8430   21.6810 H   0  0  0  0  0  0  0  0  0  0  0  0
  -18.1120  -27.9440   22.7800 C   0  0  0  0  0  0  0  0  0  0  0  0
  -20.6390  -28.3550   23.1540 C   0  0  0  0  0  3  0  0  0  0  0  0
  -20.8430  -26.9150   22.6280 C   0  0  0  0  0  2  0  0  0  0  0  0
  -19.8100  -26.5060   21.5730 C   0  0  0  0  0  2  0  0  0  0  0  0
  -18.3930  -26.5910   22.1470 C   0  0  0  0  0  2  0  0  0  0  0  0
  -19.1670  -28.7790   23.2380 C   0  0  0  0  0  0  0  0  0  0  0  0
  -18.8500  -30.0370   23.7940 C   0  0  0  0  0  3  0  0  0  0  0  0
  -17.5140  -30.4690   23.8870 C   0  0  0  0  0  3  0  0  0  0  0  0
  -16.4740  -29.6330   23.4440 C   0  0  0  0  0  3  0  0  0  0  0  0
  -16.7730  -28.3720   22.8990 C   0  0  0  0  0  3  0  0  0  0  0  0
  -25.9010  -32.5740   23.8900 C   0  0  0  0  0  3  0  0  0  0  0  0
  -25.5880  -33.9830   24.1850 N   0  0  0  0  0  0  0  0  0  0  0  0
  -25.9560  -35.0270   23.4280 C   0  0  0  0  0  0  0  0  0  0  0  0
  -26.6550  -34.9020   22.4210 O   0  0  0  0  0  0  0  0  0  0  0  0
  -24.9680  -34.1520   24.9650 H   0  0  0  0  0  0  0  0  0  0  0  0
  -24.2720  -36.8470   22.9910 C   0  0  0  0  0  1  0  0  0  0  0  0
  -25.4740  -36.4280   23.8540 C   0  0  0  0  0  3  0  0  0  0  0  0
  -27.5820  -37.2970   24.7670 C   0  0  0  0  0  1  0  0  0  0  0  0
  -26.5280  -37.4650   23.7720 N   0  0  0  0  0  0  0  0  0  0  0  0
  -26.1290  -38.3940   23.8860 H   0  0  0  0  0  0  0  0  0  0  0  0
  -26.3730  -31.8400   25.2060 C   0  0  1  0  0  0  0  0  0  0  0  0
  -25.2460  -31.6430   26.2480 C   0  0  0  0  0  1  0  0  0  0  0  0
  -26.9600  -30.4490   24.8820 C   0  0  0  0  0  1  0  0  0  0  0  0
  -27.5110  -32.6470   25.8770 C   0  0  0  0  0  1  0  0  0  0  0  0
  -30.1510  -18.4850   20.1990 C   0  0  0  0  0  0  0  0  0  0  0  0
  -30.7400  -15.5530   20.0310 C   0  0  0  0  0  0  0  0  0  0  0  0
  -30.7460  -13.0490   19.2900 C   0  0  0  0  0  2  0  0  0  0  0  0
  -29.8280  -12.7350   18.0820 C   0  0  0  0  0  2  0  0  0  0  0  0
  -28.3840  -12.4720   18.5470 C   0  0  0  0  0  2  0  0  0  0  0  0
  -27.9200  -13.5040   19.6020 C   0  0  0  0  0  3  0  0  0  0  0  0
  -28.9670  -13.7550   20.7070 C   0  0  0  0  0  2  0  0  0  0  0  0
  -30.1800  -14.2390   20.0280 N   0  0  0  0  0  0  0  0  0  0  0  0
  -31.9710  -15.5390   19.8890 O   0  0  0  0  0  0  0  0  0  0  0  0
  -29.9600  -16.8220   20.0010 N   0  0  0  0  0  4  0  0  0  0  0  0
  -28.9790  -16.6070   19.9250 H   0  0  0  0  0  0  0  0  0  0  0  0
  -25.5700  -14.0940   20.3910 C   0  0  0  0  0  0  0  0  0  0  0  0
  -24.5020  -13.3320   20.7710 C   0  0  0  0  0  0  0  0  0  0  0  0
  -24.9520  -11.9750   20.7380 C   0  0  0  0  0  0  0  0  0  0  0  0
  -26.5980  -13.2050   20.1340 N   0  0  0  0  0  0  0  0  0  0  0  0
  -26.2400  -11.9250   20.4130 N   0  0  0  0  0  0  0  0  0  0  0  0
  -24.2100  -10.7230   20.9350 C   0  0  0  0  0  0  0  0  0  0  0  0
  -24.6070   -9.7690   21.8990 C   0  0  0  0  0  3  0  0  0  0  0  0
  -23.8610   -8.5860   22.0850 C   0  0  0  0  0  3  0  0  0  0  0  0
  -22.7040   -8.3470   21.3060 C   0  0  0  0  0  0  0  0  0  0  0  0
  -22.3250   -9.2890   20.3330 C   0  0  0  0  0  3  0  0  0  0  0  0
  -23.0730  -10.4630   20.1440 C   0  0  0  0  0  3  0  0  0  0  0  0
  -21.9340   -7.2120   21.3970 O   0  0  0  0  0  0  0  0  0  0  0  0
  -21.8160   -6.5160   22.5730 C   0  0  0  0  0  0  0  0  0  0  0  0
  -21.2820   -7.1070   23.7390 C   0  0  0  0  0  3  0  0  0  0  0  0
  -21.1110   -6.3360   24.9050 C   0  0  0  0  0  3  0  0  0  0  0  0
  -21.4700   -4.9740   24.9060 C   0  0  0  0  0  0  0  0  0  0  0  0
  -22.0000   -4.3830   23.7470 C   0  0  0  0  0  3  0  0  0  0  0  0
  -22.1700   -5.1530   22.5820 C   0  0  0  0  0  0  0  0  0  0  0  0
  -22.6610   -4.5720   21.4600 F   0  0  0  0  0  0  0  0  0  0  0  0
  -21.2990   -4.2310   26.0260 F   0  0  0  0  0  0  0  0  0  0  0  0
  -23.1140  -13.8300   21.0460 C   0  0  0  0  0  0  0  0  0  0  0  0
  -22.3790  -13.1510   21.9170 N   0  0  0  0  0  0  0  0  0  0  0  0
  -22.6910  -14.8610   20.5250 O   0  0  0  0  0  0  0  0  0  0  0  0
  -22.7300  -12.3140   22.3570 H   0  0  0  0  0  0  0  0  0  0  0  0
  -21.4510  -13.4770   22.1500 H   0  0  0  0  0  0  0  0  0  0  0  0
  -25.7440  -15.4630   20.2120 N   0  0  0  0  0  0  0  0  0  0  0  0
  -24.9760  -16.1150   20.3240 H   0  0  0  0  0  0  0  0  0  0  0  0
  -26.5770  -15.8980   19.8400 H   0  0  0  0  0  0  0  0  0  0  0  0
  -30.5690  -18.7340   21.6700 C   0  0  0  0  0  2  0  0  0  0  0  0
  -32.9790  -19.5570   21.7880 C   0  0  0  0  0  1  0  0  0  0  0  0
  -31.2210  -20.6910   23.2000 C   0  0  0  0  0  1  0  0  0  0  0  0
  -31.5000  -19.9590   21.8780 C   0  0  0  0  0  3  0  0  0  0  0  0
  1  2  1  0
  1 48  1  0
  2  4  1  0
  3  1  2  0
  5  2  1  0
  5  6  1  0
  7  9  1  0
  7  6  1  0
  8 19  2  0
  9 14  1  0
 10 18  1  0
 10 20  1  0
 11 17  1  0
 11 13  1  0
 12 18  1  0
 13 12  1  0
 14 13  2  0
 15  9  2  0
 16 15  1  0
 16 11  2  0
 17 10  1  0
 18  8  1  0
 20 22  2  0
 21 20  1  0
 23 21  1  0
 24 33  2  0
 24 29  1  0
 25 21  1  0
 25 29  1  0
 26 25  1  0
 27 28  1  0
 27 26  1  0
 28 24  1  0
 29 30  2  0
 30 31  1  0
 32 31  2  0
 33 32  1  0
 34  8  1  0
 34 35  1  0
 34 44  1  0
 35 38  1  0
 36 40  1  0
 36 35  1  0
 37 36  2  0
 40 39  1  0
 42 40  1  0
 42 43  1  0
 42 41  1  0
 44 47  1  1
 44 45  1  0
 46 44  1  0
 48 87  1  0
 50 55  1  0
 51 52  1  0
 51 50  1  0
 53 52  1  0
 53 62  1  0
 53 54  1  0
 55 49  1  0
 55 54  1  0
 56 49  2  0
 57 49  1  0
 57 48  2  0
 58 57  1  0
 59 60  2  0
 60 79  1  0
 61 60  1  0
 61 64  1  0
 62 59  1  0
 62 63  1  0
 63 61  2  0
 64 65  1  0
 65 66  2  0
 67 70  1  0
 67 66  1  0
 68 67  2  0
 69 68  1  0
 69 64  2  0
 70 71  1  0
 71 76  2  0
 71 72  1  0
 72 73  2  0
 73 74  1  0
 74 78  1  0
 75 74  2  0
 76 75  1  0
 77 76  1  0
 79 80  1  0
 80 83  1  0
 80 82  1  0
 81 79  2  0
 84 85  1  0
 84 59  1  0
 86 84  1  0
 87 90  1  0
 88 90  1  0
 90 89  1  0
M  ISO  4   6 101   7 101  49 100  57 100
M  END
>  <TORSDO>  (24) 
F 21

>  <SCORE>  (24) 
-15.820

>  <name>  (24) 
23

>  <ligand_id>  (24) 
23

>  <original_smiles>  (24) 
[H]c1c([H])c([H])c2c(c1[H])C([H])([H])C([H])([H])C([H])([H])C2([H])N([H])C(=O)C1([H])N(C(=O)C([H])(N([H])C(=O)C([H])(N([H])C([H])([H])[H])C([H])([H])[H])C(C([H])([H])[H])(C([H])([H])[H])C([H])([H])[H])C([H])([H])c2c([H])c(OC([H])([H])C([H])([H])N([H])C(=O)C([H])(N([H])C(=O)N3C([H])([H])C([H])([H])C([H])([H])C([H])(n4nc(-c5c([H])c([H])c(Oc6c([H])c([H])c(F)c([H])c6F)c([H])c5[H])c(C(=O)N([H])[H])c4N([H])[H])C3([H])[H])C([H])([H])C([H])(C([H])([H])[H])C([H])([H])[H])c([H])c([H])c2C1([H])[H]

>  <smiles>  (24) 
[H]c1c([H])c([H])c2c(c1[H])C([H])([H])C([H])([H])C([H])([H])C2([H])N([H])C(=O)C1([H])N(C(=O)C([H])(N([H])C(=O)C([H])(N([H])C([H])([H])[H])C([H])([H])[H])C(C([H])([H])[H])(C([H])([H])[H])C([H])([H])[H])C([H])([H])c2c([H])c(OC([H])([H])C([H])([H])N([H])C(=O)C([H])(N([H])C(=O)N3C([H])([H])C([H])([H])C([H])([H])C([H])(n4nc(-c5c([H])c([H])c(Oc6c([H])c([H])c(F)c([H])c6F)c([H])c5[H])c(C(=O)N([H])[H])c4N([H])[H])C3([H])[H])C([H])([H])C([H])(C([H])([H])[H])C([H])([H])[H])c([H])c([H])c2C1([H])[H]

$$$$
24:0:0
     RDKit          3D

 86 94  0  0  1  0  0  0  0  0999 V2000
  -30.2360  -22.6050   18.7160 C   0  0  0  0  0  1  0  0  0  0  0  0
  -29.2130  -22.3330   19.8240 C   0  0  0  0  0  3  0  0  0  0  0  0
  -30.5750  -15.7800   19.6380 C   0  0  0  0  0  0  0  0  0  0  0  0
  -30.5940  -13.2390   18.7820 C   0  0  0  0  0  2  0  0  0  0  0  0
  -29.5960  -12.8720   17.6430 C   0  0  0  0  0  2  0  0  0  0  0  0
  -28.2310  -12.4910   18.2310 C   0  0  0  0  0  2  0  0  0  0  0  0
  -27.8200  -13.4660   19.3580 C   0  0  0  0  0  3  0  0  0  0  0  0
  -28.9560  -13.7430   20.3700 C   0  0  0  0  0  2  0  0  0  0  0  0
  -30.0520  -14.4080   19.6230 N   0  0  0  0  0  0  0  0  0  0  0  0
  -31.7440  -15.7230   19.2120 O   0  0  0  0  0  0  0  0  0  0  0  0
  -28.0470  -18.4010   21.2450 C   0  0  0  0  0  2  0  0  0  0  0  0
  -28.3940  -19.9340   21.1830 C   0  0  0  0  0  2  0  0  0  0  0  0
  -29.2250  -17.3590   21.1990 C   0  0  0  0  0  2  0  0  0  0  0  0
  -30.0540  -18.8610   19.4930 C   0  0  0  0  0  2  0  0  0  0  0  0
  -29.0100  -20.4050   19.8470 C   0  0  0  0  0  3  0  0  0  0  0  0
  -29.8710  -17.1660   19.8810 N   0  0  0  0  0  0  0  0  0  0  0  0
  -25.5860  -13.9540   20.4630 C   0  0  0  0  0  0  0  0  0  0  0  0
  -24.5560  -13.1570   20.8790 C   0  0  0  0  0  0  0  0  0  0  0  0
  -24.9800  -11.8130   20.6490 C   0  0  0  0  0  0  0  0  0  0  0  0
  -26.5650  -13.0960   19.9970 N   0  0  0  0  0  0  0  0  0  0  0  0
  -26.2240  -11.7930   20.1790 N   0  0  0  0  0  0  0  0  0  0  0  0
  -24.2430  -10.5510   20.8040 C   0  0  0  0  0  0  0  0  0  0  0  0
  -24.6500   -9.5690   21.7350 C   0  0  0  0  0  3  0  0  0  0  0  0
  -23.9140   -8.3730   21.8830 C   0  0  0  0  0  3  0  0  0  0  0  0
  -22.7590   -8.1490   21.0970 C   0  0  0  0  0  0  0  0  0  0  0  0
  -22.3690   -9.1180   20.1560 C   0  0  0  0  0  3  0  0  0  0  0  0
  -23.1040  -10.3050   20.0090 C   0  0  0  0  0  3  0  0  0  0  0  0
  -21.9990   -7.0050   21.1490 O   0  0  0  0  0  0  0  0  0  0  0  0
  -21.7650   -6.3520   22.3320 C   0  0  0  0  0  0  0  0  0  0  0  0
  -21.1210   -6.9830   23.4160 C   0  0  0  0  0  3  0  0  0  0  0  0
  -20.8400   -6.2550   24.5880 C   0  0  0  0  0  3  0  0  0  0  0  0
  -21.1870   -4.8930   24.6750 C   0  0  0  0  0  0  0  0  0  0  0  0
  -21.8220   -4.2600   23.5920 C   0  0  0  0  0  3  0  0  0  0  0  0
  -22.1070   -4.9880   22.4230 C   0  0  0  0  0  0  0  0  0  0  0  0
  -22.7030   -4.3690   21.3750 F   0  0  0  0  0  0  0  0  0  0  0  0
  -20.9080   -4.1890   25.7960 F   0  0  0  0  0  0  0  0  0  0  0  0
  -23.2170  -13.6290   21.3660 C   0  0  0  0  0  0  0  0  0  0  0  0
  -22.5850  -12.8750   22.2600 N   0  0  0  0  0  0  0  0  0  0  0  0
  -22.7460  -14.7020   20.9930 O   0  0  0  0  0  0  0  0  0  0  0  0
  -22.9760  -12.0040   22.5850 H   0  0  0  0  0  0  0  0  0  0  0  0
  -21.6960  -13.1790   22.6300 H   0  0  0  0  0  0  0  0  0  0  0  0
  -25.7610  -15.3320   20.4090 N   0  0  0  0  0  0  0  0  0  0  0  0
  -25.0320  -15.9750   20.7010 H   0  0  0  0  0  0  0  0  0  0  0  0
  -26.5790  -15.7920   20.0310 H   0  0  0  0  0  0  0  0  0  0  0  0
  -28.1720  -23.9600   19.8250 C   0  0  0  0  0  2  0  0  0  0  0  0
  -28.3600  -25.6980   19.8620 O   0  0  0  0  0  0  0  0  0  0  0  0
  -24.7690  -31.7200   23.1300 C   0  0  0  0  0  0  0  0  0  0  0  0
  -27.3670  -26.8810   19.8780 C   0  0  0  0  0  0  0  0  0  0  0  0
  -23.6040  -30.4160   21.3980 C   0  0  0  0  0  3  0  0  0  0  0  0
  -25.0780  -28.8660   19.9090 C   0  0  0  0  0  0  0  0  0  0  0  0
  -26.1760  -30.6020   21.3000 C   0  0  0  0  0  2  0  0  0  0  0  0
  -26.2650  -29.2080   20.5710 C   0  0  0  0  0  0  0  0  0  0  0  0
  -27.3940  -28.2420   20.5260 C   0  0  0  0  0  3  0  0  0  0  0  0
  -26.1460  -26.7420   19.1720 C   0  0  0  0  0  3  0  0  0  0  0  0
  -25.0510  -27.6550   19.1950 C   0  0  0  0  0  3  0  0  0  0  0  0
  -23.8620  -29.8000   19.9900 C   0  0  0  0  0  2  0  0  0  0  0  0
  -24.8730  -30.9390   22.0000 N   0  0  0  0  0  0  0  0  0  0  0  0
  -23.6710  -31.9760   23.6510 O   0  0  0  0  0  0  0  0  0  0  0  0
  -22.8850  -29.3780   22.3000 C   0  0  0  0  0  0  0  0  0  0  0  0
  -21.5520  -29.2460   22.1760 N   0  0  0  0  0  0  0  0  0  0  0  0
  -23.5430  -28.6860   23.0830 O   0  0  0  0  0  0  0  0  0  0  0  0
  -21.0680  -29.8530   21.5310 H   0  0  0  0  0  0  0  0  0  0  0  0
  -18.1510  -28.0930   22.7030 C   0  0  0  0  0  0  0  0  0  0  0  0
  -20.7260  -28.2610   22.8890 C   0  0  0  0  0  3  0  0  0  0  0  0
  -20.7580  -26.8870   22.1790 C   0  0  0  0  0  2  0  0  0  0  0  0
  -19.6120  -26.6990   21.1780 C   0  0  0  0  0  2  0  0  0  0  0  0
  -18.2600  -26.8160   21.8890 C   0  0  0  0  0  2  0  0  0  0  0  0
  -19.3080  -28.7800   23.1610 C   0  0  0  0  0  0  0  0  0  0  0  0
  -19.1480  -29.9780   23.8910 C   0  0  0  0  0  3  0  0  0  0  0  0
  -17.8640  -30.4910   24.1590 C   0  0  0  0  0  3  0  0  0  0  0  0
  -16.7230  -29.8000   23.7160 C   0  0  0  0  0  3  0  0  0  0  0  0
  -16.8680  -28.6030   22.9940 C   0  0  0  0  0  3  0  0  0  0  0  0
  -26.0230  -32.3430   23.8160 C   0  0  0  0  0  3  0  0  0  0  0  0
  -25.6800  -33.7100   24.2520 N   0  0  0  0  0  0  0  0  0  0  0  0
  -25.9610  -34.8280   23.5680 C   0  0  0  0  0  0  0  0  0  0  0  0
  -26.5920  -34.8180   22.5100 O   0  0  0  0  0  0  0  0  0  0  0  0
  -25.1090  -33.7890   25.0800 H   0  0  0  0  0  0  0  0  0  0  0  0
  -24.1690  -36.5930   23.4440 C   0  0  0  0  0  1  0  0  0  0  0  0
  -25.4660  -36.1710   24.1490 C   0  0  0  0  0  3  0  0  0  0  0  0
  -27.6130  -37.0800   24.9260 C   0  0  0  0  0  1  0  0  0  0  0  0
  -26.4610  -37.2600   24.0490 N   0  0  0  0  0  0  0  0  0  0  0  0
  -26.0350  -38.1570   24.2690 H   0  0  0  0  0  0  0  0  0  0  0  0
  -26.5270  -31.4970   25.0500 C   0  0  1  0  0  0  0  0  0  0  0  0
  -25.4210  -31.1800   26.0830 C   0  0  0  0  0  1  0  0  0  0  0  0
  -27.1230  -30.1500   24.5880 C   0  0  0  0  0  1  0  0  0  0  0  0
  -27.6630  -32.2520   25.7810 C   0  0  0  0  0  1  0  0  0  0  0  0
  2  1  1  0
  2 45  1  0
  3 16  1  0
  4  9  1  0
  5  6  1  0
  5  4  1  0
  7  6  1  0
  7 20  1  0
  7  8  1  0
  9  3  1  0
  9  8  1  0
 10  3  2  0
 12 11  1  0
 13 11  1  0
 14 15  1  0
 14 16  1  0
 15  2  1  0
 15 12  1  0
 16 13  1  0
 17 18  2  0
 18 37  1  0
 19 22  1  0
 19 18  1  0
 20 21  1  0
 20 17  1  0
 21 19  2  0
 22 23  1  0
 23 24  2  0
 25 28  1  0
 25 24  1  0
 26 25  2  0
 27 26  1  0
 27 22  2  0
 28 29  1  0
 29 34  2  0
 29 30  1  0
 30 31  2  0
 31 32  1  0
 32 36  1  0
 33 32  2  0
 34 33  1  0
 35 34  1  0
 37 38  1  0
 38 40  1  0
 38 41  1  0
 39 37  2  0
 42 17  1  0
 42 43  1  0
 44 42  1  0
 45 46  1  0
 46 48  1  0
 47 58  2  0
 48 53  1  0
 49 57  1  0
 49 59  1  0
 50 56  1  0
 50 52  1  0
 51 57  1  0
 52 51  1  0
 53 52  2  0
 54 55  1  0
 54 48  2  0
 55 50  2  0
 56 49  1  0
 57 47  1  0
 59 61  2  0
 60 59  1  0
 62 60  1  0
 63 72  2  0
 63 68  1  0
 64 60  1  0
 64 68  1  0
 65 64  1  0
 66 67  1  0
 66 65  1  0
 67 63  1  0
 68 69  2  0
 69 70  1  0
 71 70  2  0
 72 71  1  0
 73 47  1  0
 73 74  1  0
 73 83  1  0
 74 77  1  0
 75 79  1  0
 75 74  1  0
 76 75  2  0
 79 78  1  0
 81 79  1  0
 81 82  1  0
 81 80  1  0
 83 86  1  1
 83 84  1  0
 85 83  1  0
M  ISO  4   3 100  16 100  45 101  46 101
M  END
>  <TORSDO>  (25) 
F 17

>  <SCORE>  (25) 
-13.149

>  <name>  (25) 
24

>  <ligand_id>  (25) 
24

>  <original_smiles>  (25) 
[H]c1c([H])c([H])c2c(c1[H])C([H])([H])C([H])([H])C([H])([H])C2([H])N([H])C(=O)C1([H])N(C(=O)C([H])(N([H])C(=O)C([H])(N([H])C([H])([H])[H])C([H])([H])[H])C(C([H])([H])[H])(C([H])([H])[H])C([H])([H])[H])C([H])([H])c2c([H])c(OC([H])([H])C([H])(C([H])([H])[H])C3([H])C([H])([H])N(C(=O)N4C([H])([H])C([H])([H])C([H])([H])C([H])(n5nc(-c6c([H])c([H])c(Oc7c([H])c([H])c(F)c([H])c7F)c([H])c6[H])c(C(=O)N([H])[H])c5N([H])[H])C4([H])[H])C([H])([H])C([H])([H])C3([H])[H])c([H])c([H])c2C1([H])[H]

>  <smiles>  (25) 
[H]c1c([H])c([H])c2c(c1[H])C([H])([H])C([H])([H])C([H])([H])C2([H])N([H])C(=O)C1([H])N(C(=O)C([H])(N([H])C(=O)C([H])(N([H])C([H])([H])[H])C([H])([H])[H])C(C([H])([H])[H])(C([H])([H])[H])C([H])([H])[H])C([H])([H])c2c([H])c(OC([H])([H])C([H])(C([H])([H])[H])C3([H])C([H])([H])N(C(=O)N4C([H])([H])C([H])([H])C([H])([H])C([H])(n5nc(-c6c([H])c([H])c(Oc7c([H])c([H])c(F)c([H])c7F)c([H])c6[H])c(C(=O)N([H])[H])c5N([H])[H])C4([H])[H])C([H])([H])C([H])([H])C3([H])[H])c([H])c([H])c2C1([H])[H]

$$$$
25:0:0
     RDKit          3D

102110  0  0  1  0  0  0  0  0999 V2000
  -30.1120  -21.8120   20.8390 C   0  0  0  0  0  0  0  0  0  0  0  0
  -29.4560  -22.8700   20.2720 N   0  0  0  0  0  0  0  0  0  0  0  0
  -30.6480  -21.9100   21.9410 O   0  0  0  0  0  0  0  0  0  0  0  0
  -29.0290  -22.6950   19.3730 H   0  0  0  0  0  0  0  0  0  0  0  0
  -31.1090  -18.1860   21.0740 C   0  0  0  0  0  0  0  0  0  0  0  0
  -32.3550  -20.8900   18.9610 C   0  0  0  0  0  2  0  0  0  0  0  0
  -30.8620  -20.8080   18.6510 C   0  0  0  0  0  2  0  0  0  0  0  0
  -32.5520  -19.7190   19.9260 C   0  0  0  0  0  2  0  0  0  0  0  0
  -30.2480  -20.4690   20.0220 C   0  0  0  0  0  3  0  0  0  0  0  0
  -31.2340  -19.4460   20.5330 N   0  0  0  0  0  0  0  0  0  0  0  0
  -32.0300  -17.7030   21.7440 O   0  0  0  0  0  0  0  0  0  0  0  0
  -29.8900  -17.2570   20.7600 C   0  0  0  0  0  3  0  0  0  0  0  0
  -30.7560  -14.7660   20.6610 C   0  0  0  0  0  0  0  0  0  0  0  0
  -30.5560  -12.5870   19.4830 C   0  0  0  0  0  2  0  0  0  0  0  0
  -29.6220  -12.6910   18.2550 C   0  0  0  0  0  2  0  0  0  0  0  0
  -28.1350  -12.5670   18.6510 C   0  0  0  0  0  2  0  0  0  0  0  0
  -27.7620  -13.3810   19.9190 C   0  0  0  0  0  3  0  0  0  0  0  0
  -28.8050  -13.1940   21.0470 C   0  0  0  0  0  2  0  0  0  0  0  0
  -30.1260  -13.5580   20.5090 N   0  0  0  0  0  0  0  0  0  0  0  0
  -31.8910  -14.9530   20.2240 O   0  0  0  0  0  0  0  0  0  0  0  0
  -29.9810  -15.7870   21.1290 N   0  0  0  0  0  0  0  0  0  0  0  0
  -29.1470  -15.4530   21.5840 H   0  0  0  0  0  0  0  0  0  0  0  0
  -25.3270  -13.9350   20.5770 C   0  0  0  0  0  0  0  0  0  0  0  0
  -24.2710  -13.1410   20.9200 C   0  0  0  0  0  0  0  0  0  0  0  0
  -24.7660  -11.8050   20.9010 C   0  0  0  0  0  0  0  0  0  0  0  0
  -26.4020  -13.0830   20.3680 N   0  0  0  0  0  0  0  0  0  0  0  0
  -26.0650  -11.7940   20.6270 N   0  0  0  0  0  0  0  0  0  0  0  0
  -24.0630  -10.5300   21.0620 C   0  0  0  0  0  0  0  0  0  0  0  0
  -24.4670   -9.5900   22.0350 C   0  0  0  0  0  3  0  0  0  0  0  0
  -23.7650   -8.3760   22.1890 C   0  0  0  0  0  3  0  0  0  0  0  0
  -22.6470   -8.0950   21.3670 C   0  0  0  0  0  0  0  0  0  0  0  0
  -22.2620   -9.0270   20.3870 C   0  0  0  0  0  3  0  0  0  0  0  0
  -22.9650  -10.2320   20.2320 C   0  0  0  0  0  3  0  0  0  0  0  0
  -21.9130   -6.9360   21.4340 O   0  0  0  0  0  0  0  0  0  0  0  0
  -21.7760   -6.2360   22.6070 C   0  0  0  0  0  0  0  0  0  0  0  0
  -21.1540   -6.7980   23.7420 C   0  0  0  0  0  3  0  0  0  0  0  0
  -20.9700   -6.0160   24.9010 C   0  0  0  0  0  3  0  0  0  0  0  0
  -21.4040   -4.6770   24.9240 C   0  0  0  0  0  0  0  0  0  0  0  0
  -22.0180   -4.1150   23.7910 C   0  0  0  0  0  3  0  0  0  0  0  0
  -22.2010   -4.8930   22.6350 C   0  0  0  0  0  0  0  0  0  0  0  0
  -22.7750   -4.3390   21.5400 F   0  0  0  0  0  0  0  0  0  0  0  0
  -21.2190   -3.9260   26.0340 F   0  0  0  0  0  0  0  0  0  0  0  0
  -22.8570  -13.5920   21.1540 C   0  0  0  0  0  0  0  0  0  0  0  0
  -22.1200  -12.8790   21.9970 N   0  0  0  0  0  0  0  0  0  0  0  0
  -22.4140  -14.6110   20.6250 O   0  0  0  0  0  0  0  0  0  0  0  0
  -22.4830  -12.0460   22.4400 H   0  0  0  0  0  0  0  0  0  0  0  0
  -21.1720  -13.1630   22.1980 H   0  0  0  0  0  0  0  0  0  0  0  0
  -25.4340  -15.3060   20.4110 N   0  0  0  0  0  0  0  0  0  0  0  0
  -24.6290  -15.9140   20.5010 H   0  0  0  0  0  0  0  0  0  0  0  0
  -26.2470  -15.7780   20.0440 H   0  0  0  0  0  0  0  0  0  0  0  0
  -30.1310  -16.7640   18.1720 C   0  0  0  0  0  1  0  0  0  0  0  0
  -29.3400  -17.4420   19.3010 C   0  0  0  0  0  3  0  0  0  0  0  0
  -26.9160  -18.2380   19.6790 C   0  0  0  0  0  1  0  0  0  0  0  0
  -27.8480  -17.1010   19.2390 C   0  0  0  0  0  2  0  0  0  0  0  0
  -29.5700  -24.3170   20.6430 C   0  0  0  0  0  3  0  0  0  0  0  0
  -30.9130  -24.7940   20.0620 C   0  0  0  0  0  0  0  0  0  0  0  0
  -31.8240  -25.2600   20.9040 N   0  0  0  0  0  0  0  0  0  0  0  0
  -31.1410  -24.7180   18.8550 O   0  0  0  0  0  0  0  0  0  0  0  0
  -31.6380  -25.2820   21.8970 H   0  0  0  0  0  0  0  0  0  0  0  0
  -32.7170  -25.5870   20.5600 H   0  0  0  0  0  0  0  0  0  0  0  0
  -28.4170  -25.2250   20.0290 C   0  0  0  0  0  2  0  0  0  0  0  0
  -28.4930  -26.6750   20.2730 O   0  0  0  0  0  0  0  0  0  0  0  0
  -24.5480  -31.8790   23.2590 C   0  0  0  0  0  0  0  0  0  0  0  0
  -27.3340  -27.4530   20.1900 C   0  0  0  0  0  0  0  0  0  0  0  0
  -23.4120  -30.4860   21.5640 C   0  0  0  0  0  3  0  0  0  0  0  0
  -24.9260  -28.9880   20.1500 C   0  0  0  0  0  0  0  0  0  0  0  0
  -25.9450  -30.8640   21.4470 C   0  0  0  0  0  2  0  0  0  0  0  0
  -26.0670  -29.5000   20.7810 C   0  0  0  0  0  0  0  0  0  0  0  0
  -27.2720  -28.7450   20.7910 C   0  0  0  0  0  3  0  0  0  0  0  0
  -26.1710  -26.9850   19.5350 C   0  0  0  0  0  3  0  0  0  0  0  0
  -24.9800  -27.7360   19.5160 C   0  0  0  0  0  3  0  0  0  0  0  0
  -23.6690  -29.8330   20.1780 C   0  0  0  0  0  2  0  0  0  0  0  0
  -24.6500  -31.0950   22.1470 N   0  0  0  0  0  0  0  0  0  0  0  0
  -23.4450  -32.1280   23.7710 O   0  0  0  0  0  0  0  0  0  0  0  0
  -22.7440  -29.4440   22.4920 C   0  0  0  0  0  0  0  0  0  0  0  0
  -21.4280  -29.2440   22.3270 N   0  0  0  0  0  0  0  0  0  0  0  0
  -23.4160  -28.8150   23.3150 O   0  0  0  0  0  0  0  0  0  0  0  0
  -20.9520  -29.8090   21.6360 H   0  0  0  0  0  0  0  0  0  0  0  0
  -18.0520  -28.0050   22.7310 C   0  0  0  0  0  0  0  0  0  0  0  0
  -20.6020  -28.2820   23.0590 C   0  0  0  0  0  3  0  0  0  0  0  0
  -20.7290  -26.8680   22.4490 C   0  0  0  0  0  2  0  0  0  0  0  0
  -19.6490  -26.5570   21.4080 C   0  0  0  0  0  2  0  0  0  0  0  0
  -18.2540  -26.6750   22.0270 C   0  0  0  0  0  2  0  0  0  0  0  0
  -19.1540  -28.7690   23.1990 C   0  0  0  0  0  0  0  0  0  0  0  0
  -18.9120  -30.0150   23.8160 C   0  0  0  0  0  3  0  0  0  0  0  0
  -17.6000  -30.4970   23.9730 C   0  0  0  0  0  3  0  0  0  0  0  0
  -16.5100  -29.7330   23.5180 C   0  0  0  0  0  3  0  0  0  0  0  0
  -16.7380  -28.4880   22.9050 C   0  0  0  0  0  3  0  0  0  0  0  0
  -25.8040  -32.5190   23.9280 C   0  0  0  0  0  3  0  0  0  0  0  0
  -25.4810  -33.9200   24.2320 N   0  0  0  0  0  0  0  0  0  0  0  0
  -25.8630  -34.9670   23.4880 C   0  0  0  0  0  0  0  0  0  0  0  0
  -26.5920  -34.8580   22.5000 O   0  0  0  0  0  0  0  0  0  0  0  0
  -24.8390  -34.0790   24.9950 H   0  0  0  0  0  0  0  0  0  0  0  0
  -24.1910  -36.7810   22.9950 C   0  0  0  0  0  1  0  0  0  0  0  0
  -25.3530  -36.3600   23.9090 C   0  0  0  0  0  3  0  0  0  0  0  0
  -27.4070  -37.2260   24.9370 C   0  0  0  0  0  1  0  0  0  0  0  0
  -26.4030  -37.4010   23.8910 N   0  0  0  0  0  0  0  0  0  0  0  0
  -25.9970  -38.3280   23.9900 H   0  0  0  0  0  0  0  0  0  0  0  0
  -26.2690  -31.7610   25.2310 C   0  0  1  0  0  0  0  0  0  0  0  0
  -25.1310  -31.5260   26.2530 C   0  0  0  0  0  1  0  0  0  0  0  0
  -26.8760  -30.3850   24.8750 C   0  0  0  0  0  1  0  0  0  0  0  0
  -27.3870  -32.5670   25.9330 C   0  0  0  0  0  1  0  0  0  0  0  0
  1  3  2  0
  2 55  1  0
  2  1  1  0
  4  2  1  0
  5 11  2  0
  6  8  1  0
  7  6  1  0
  7  9  1  0
  8 10  1  0
  9 10  1  0
  9  1  1  0
 10  5  1  0
 12  5  1  0
 12 21  1  0
 13 21  1  0
 14 19  1  0
 15 16  1  0
 15 14  1  0
 17 16  1  0
 17 26  1  0
 17 18  1  0
 19 13  1  0
 19 18  1  0
 20 13  2  0
 21 22  1  0
 23 24  2  0
 24 43  1  0
 25 24  1  0
 25 28  1  0
 26 23  1  0
 26 27  1  0
 27 25  2  0
 28 29  1  0
 29 30  2  0
 31 34  1  0
 31 30  1  0
 32 31  2  0
 33 32  1  0
 33 28  2  0
 34 35  1  0
 35 40  2  0
 35 36  1  0
 36 37  2  0
 37 38  1  0
 38 42  1  0
 39 38  2  0
 40 39  1  0
 41 40  1  0
 43 44  1  0
 44 47  1  0
 44 46  1  0
 45 43  2  0
 48 49  1  0
 48 23  1  0
 50 48  1  0
 52 51  1  0
 52 12  1  0
 54 52  1  0
 54 53  1  0
 55 61  1  0
 56 55  1  0
 56 57  1  0
 57 59  1  0
 58 56  2  0
 60 57  1  0
 61 62  1  0
 63 74  2  0
 64 62  1  0
 64 69  1  0
 65 73  1  0
 65 75  1  0
 66 72  1  0
 66 68  1  0
 67 73  1  0
 68 69  2  0
 68 67  1  0
 70 64  2  0
 71 70  1  0
 71 66  2  0
 72 65  1  0
 73 63  1  0
 75 77  2  0
 76 75  1  0
 78 76  1  0
 79 88  2  0
 79 84  1  0
 80 76  1  0
 80 84  1  0
 81 80  1  0
 82 83  1  0
 82 81  1  0
 83 79  1  0
 84 85  2  0
 85 86  1  0
 87 86  2  0
 88 87  1  0
 89 63  1  0
 89 90  1  0
 89 99  1  0
 90 93  1  0
 91 95  1  0
 91 90  1  0
 92 91  2  0
 95 94  1  0
 97 95  1  0
 97 98  1  0
 97 96  1  0
 99102  1  1
 99100  1  0
101 99  1  0
M  ISO  4  13 100  21 100  61 101  62 101
M  END
>  <TORSDO>  (26) 
F 23

>  <SCORE>  (26) 
-13.166

>  <name>  (26) 
25

>  <ligand_id>  (26) 
25

>  <original_smiles>  (26) 
[H]c1c([H])c([H])c2c(c1[H])C([H])([H])C([H])([H])C([H])([H])C2([H])N([H])C(=O)C1([H])N(C(=O)C([H])(N([H])C(=O)C([H])(N([H])C([H])([H])[H])C([H])([H])[H])C(C([H])([H])[H])(C([H])([H])[H])C([H])([H])[H])C([H])([H])c2c([H])c(OC([H])([H])C([H])(C(=O)N([H])[H])N([H])C(=O)C3([H])N(C(=O)C([H])(N([H])C(=O)N4C([H])([H])C([H])([H])C([H])([H])C([H])(n5nc(-c6c([H])c([H])c(Oc7c([H])c([H])c(F)c([H])c7F)c([H])c6[H])c(C(=O)N([H])[H])c5N([H])[H])C4([H])[H])C([H])(C([H])([H])[H])C([H])([H])C([H])([H])[H])C([H])([H])C([H])([H])C3([H])[H])c([H])c([H])c2C1([H])[H]

>  <smiles>  (26) 
[H]c1c([H])c([H])c2c(c1[H])C([H])([H])C([H])([H])C([H])([H])C2([H])N([H])C(=O)C1([H])N(C(=O)C([H])(N([H])C(=O)C([H])(N([H])C([H])([H])[H])C([H])([H])[H])C(C([H])([H])[H])(C([H])([H])[H])C([H])([H])[H])C([H])([H])c2c([H])c(OC([H])([H])C([H])(C(=O)N([H])[H])N([H])C(=O)C3([H])N(C(=O)C([H])(N([H])C(=O)N4C([H])([H])C([H])([H])C([H])([H])C([H])(n5nc(-c6c([H])c([H])c(Oc7c([H])c([H])c(F)c([H])c7F)c([H])c6[H])c(C(=O)N([H])[H])c5N([H])[H])C4([H])[H])C([H])(C([H])([H])[H])C([H])([H])C([H])([H])[H])C([H])([H])C([H])([H])C3([H])[H])c([H])c([H])c2C1([H])[H]

$$$$
26:0:0
     RDKit          3D

 96103  0  0  1  0  0  0  0  0999 V2000
  -29.3920  -22.5830   19.6270 C   0  0  0  0  0  3  0  0  0  0  0  0
  -28.8730  -22.6770   18.1440 C   0  0  0  0  0  3  0  0  0  0  0  0
  -28.8350  -21.3660   17.4640 N   0  0  0  0  0  4  0  0  0  0  0  0
  -29.7610  -20.9960   17.3330 H   0  0  0  0  0  0  0  0  0  0  0  0
  -28.3960  -21.4510   16.5630 H   0  0  0  0  0  0  0  0  0  0  0  0
  -28.2970  -20.7130   18.0050 H   0  0  0  0  0  0  0  0  0  0  0  0
  -29.6210  -23.7250   17.2460 C   0  0  0  0  0  3  0  0  0  0  0  0
  -31.9100  -24.2820   16.1660 C   0  0  0  0  0  1  0  0  0  0  0  0
  -30.9490  -23.1830   16.6520 C   0  0  0  0  0  2  0  0  0  0  0  0
  -27.5870  -25.2450   16.6310 C   0  0  0  0  0  1  0  0  0  0  0  0
  -28.7130  -24.3210   16.1350 C   0  0  0  0  0  2  0  0  0  0  0  0
  -29.2730  -23.9960   20.4080 C   0  0  0  0  0  2  0  0  0  0  0  0
  -28.0790  -25.0310   20.1790 C   0  0  0  0  0  2  0  0  0  0  0  0
  -28.2970  -26.4810   20.4220 O   0  0  0  0  0  0  0  0  0  0  0  0
  -24.5550  -31.9470   23.2960 C   0  0  0  0  0  0  0  0  0  0  0  0
  -27.1860  -27.3390   20.3340 C   0  0  0  0  0  0  0  0  0  0  0  0
  -23.3670  -30.5280   21.6650 C   0  0  0  0  0  3  0  0  0  0  0  0
  -24.8280  -28.9620   20.2740 C   0  0  0  0  0  0  0  0  0  0  0  0
  -25.9090  -30.8410   21.5040 C   0  0  0  0  0  2  0  0  0  0  0  0
  -25.9930  -29.4540   20.8750 C   0  0  0  0  0  0  0  0  0  0  0  0
  -27.1760  -28.6550   20.8940 C   0  0  0  0  0  3  0  0  0  0  0  0
  -25.9940  -26.9060   19.7060 C   0  0  0  0  0  3  0  0  0  0  0  0
  -24.8320  -27.6930   19.6810 C   0  0  0  0  0  3  0  0  0  0  0  0
  -23.5930  -29.8370   20.2960 C   0  0  0  0  0  2  0  0  0  0  0  0
  -24.6290  -31.1230   22.2100 N   0  0  0  0  0  0  0  0  0  0  0  0
  -23.4660  -32.2340   23.8150 O   0  0  0  0  0  0  0  0  0  0  0  0
  -22.6930  -29.5240   22.6300 C   0  0  0  0  0  0  0  0  0  0  0  0
  -21.3760  -29.3180   22.4650 N   0  0  0  0  0  0  0  0  0  0  0  0
  -23.3560  -28.9320   23.4860 O   0  0  0  0  0  0  0  0  0  0  0  0
  -20.8990  -29.8480   21.7480 H   0  0  0  0  0  0  0  0  0  0  0  0
  -18.0090  -28.0600   22.8760 C   0  0  0  0  0  0  0  0  0  0  0  0
  -20.5490  -28.3870   23.2340 C   0  0  0  0  0  3  0  0  0  0  0  0
  -20.7040  -26.9400   22.7120 C   0  0  0  0  0  2  0  0  0  0  0  0
  -19.6500  -26.5580   21.6670 C   0  0  0  0  0  2  0  0  0  0  0  0
  -18.2410  -26.6930   22.2530 C   0  0  0  0  0  2  0  0  0  0  0  0
  -19.0940  -28.8610   23.3220 C   0  0  0  0  0  0  0  0  0  0  0  0
  -18.8260  -30.1380   23.8630 C   0  0  0  0  0  3  0  0  0  0  0  0
  -17.5050  -30.6140   23.9620 C   0  0  0  0  0  3  0  0  0  0  0  0
  -16.4340  -29.8110   23.5330 C   0  0  0  0  0  3  0  0  0  0  0  0
  -16.6870  -28.5350   22.9960 C   0  0  0  0  0  3  0  0  0  0  0  0
  -25.8320  -32.5860   23.9240 C   0  0  0  0  0  3  0  0  0  0  0  0
  -26.3230  -31.8420   25.2270 C   0  0  1  0  0  0  0  0  0  0  0  0
  -25.2090  -31.6260   26.2780 C   0  0  0  0  0  1  0  0  0  0  0  0
  -26.9130  -30.4550   24.8760 C   0  0  0  0  0  1  0  0  0  0  0  0
  -27.4620  -32.6490   25.8940 C   0  0  0  0  0  1  0  0  0  0  0  0
  -25.5250  -33.9930   24.2180 N   0  0  0  0  0  0  0  0  0  0  0  0
  -25.8530  -35.0250   23.4290 C   0  0  0  0  0  0  0  0  0  0  0  0
  -26.5170  -34.8930   22.3970 O   0  0  0  0  0  0  0  0  0  0  0  0
  -24.9360  -34.1690   25.0190 H   0  0  0  0  0  0  0  0  0  0  0  0
  -24.1120  -36.8020   23.0530 C   0  0  0  0  0  1  0  0  0  0  0  0
  -25.3690  -36.4250   23.8530 C   0  0  0  0  0  3  0  0  0  0  0  0
  -27.5130  -37.3470   24.6190 C   0  0  0  0  0  1  0  0  0  0  0  0
  -26.3960  -37.4770   23.6870 N   0  0  0  0  0  0  0  0  0  0  0  0
  -25.9900  -38.4010   23.8070 H   0  0  0  0  0  0  0  0  0  0  0  0
  -28.9440  -21.2270   20.3720 C   0  0  0  0  0  3  0  0  0  0  0  0
  -29.8440  -19.9100   20.1530 C   0  0  0  0  0  3  0  0  0  0  0  0
  -29.3060  -18.4480   20.5180 C   0  0  0  0  0  3  0  0  0  0  0  0
  -30.3170  -17.2350   20.2720 C   0  0  0  0  0  3  0  0  0  0  0  0
  -30.5930  -14.6880   20.2140 C   0  0  0  0  0  0  0  0  0  0  0  0
  -30.3010  -12.4700   19.1440 C   0  0  0  0  0  2  0  0  0  0  0  0
  -29.3250  -12.6260   17.9590 C   0  0  0  0  0  2  0  0  0  0  0  0
  -27.8700  -12.4600   18.4380 C   0  0  0  0  0  2  0  0  0  0  0  0
  -27.5530  -13.3100   19.6990 C   0  0  0  0  0  3  0  0  0  0  0  0
  -28.6480  -13.1610   20.7760 C   0  0  0  0  0  2  0  0  0  0  0  0
  -29.9350  -13.4890   20.1510 N   0  0  0  0  0  0  0  0  0  0  0  0
  -31.7550  -14.7980   19.8140 O   0  0  0  0  0  0  0  0  0  0  0  0
  -29.8620  -15.8140   20.5060 N   0  0  0  0  0  0  0  0  0  0  0  0
  -28.9050  -15.6720   20.7900 H   0  0  0  0  0  0  0  0  0  0  0  0
  -25.1930  -13.8970   20.5250 C   0  0  0  0  0  0  0  0  0  0  0  0
  -24.1370  -13.1200   20.9140 C   0  0  0  0  0  0  0  0  0  0  0  0
  -24.5910  -11.7670   20.8340 C   0  0  0  0  0  0  0  0  0  0  0  0
  -26.2220  -13.0210   20.2280 N   0  0  0  0  0  0  0  0  0  0  0  0
  -25.8680  -11.7320   20.4750 N   0  0  0  0  0  0  0  0  0  0  0  0
  -23.8660  -10.5030   21.0220 C   0  0  0  0  0  0  0  0  0  0  0  0
  -24.3050   -9.5300   21.9450 C   0  0  0  0  0  3  0  0  0  0  0  0
  -23.5800   -8.3310   22.1210 C   0  0  0  0  0  3  0  0  0  0  0  0
  -22.4010   -8.0980   21.3730 C   0  0  0  0  0  0  0  0  0  0  0  0
  -21.9800   -9.0610   20.4380 C   0  0  0  0  0  3  0  0  0  0  0  0
  -22.7070  -10.2510   20.2610 C   0  0  0  0  0  3  0  0  0  0  0  0
  -21.6490   -6.9520   21.4560 O   0  0  0  0  0  0  0  0  0  0  0  0
  -21.5870   -6.2140   22.6120 C   0  0  0  0  0  0  0  0  0  0  0  0
  -21.1220   -6.7670   23.8240 C   0  0  0  0  0  3  0  0  0  0  0  0
  -21.0070   -5.9570   24.9700 C   0  0  0  0  0  3  0  0  0  0  0  0
  -21.3470   -4.5920   24.9060 C   0  0  0  0  0  0  0  0  0  0  0  0
  -21.8060   -4.0380   23.6970 C   0  0  0  0  0  3  0  0  0  0  0  0
  -21.9210   -4.8470   22.5540 C   0  0  0  0  0  0  0  0  0  0  0  0
  -22.3430   -4.3030   21.3870 F   0  0  0  0  0  0  0  0  0  0  0  0
  -21.2320   -3.8100   26.0040 F   0  0  0  0  0  0  0  0  0  0  0  0
  -22.7520  -13.5960   21.2490 C   0  0  0  0  0  0  0  0  0  0  0  0
  -22.0510  -12.8810   22.1200 N   0  0  0  0  0  0  0  0  0  0  0  0
  -22.3030  -14.6380   20.7740 O   0  0  0  0  0  0  0  0  0  0  0  0
  -22.4270  -12.0410   22.5320 H   0  0  0  0  0  0  0  0  0  0  0  0
  -21.1220  -13.1820   22.3840 H   0  0  0  0  0  0  0  0  0  0  0  0
  -25.3530  -15.2710   20.3770 N   0  0  0  0  0  0  0  0  0  0  0  0
  -24.5860  -15.9160   20.5310 H   0  0  0  0  0  0  0  0  0  0  0  0
  -26.1800  -15.7200   20.0060 H   0  0  0  0  0  0  0  0  0  0  0  0
  1 55  1  0
  1 12  1  0
  2  7  1  0
  2  1  1  0
  3  6  1  0
  3  2  1  0
  4  3  1  0
  5  3  1  0
  8  9  1  0
  9  7  1  0
 11 10  1  0
 11  7  1  0
 13 12  1  0
 13 14  1  0
 15 26  2  0
 16 14  1  0
 16 21  1  0
 17 25  1  0
 17 27  1  0
 18 24  1  0
 18 20  1  0
 19 25  1  0
 20 21  2  0
 20 19  1  0
 22 16  2  0
 23 22  1  0
 23 18  2  0
 24 17  1  0
 25 15  1  0
 27 29  2  0
 28 27  1  0
 30 28  1  0
 31 40  2  0
 31 36  1  0
 32 28  1  0
 32 36  1  0
 33 32  1  0
 34 35  1  0
 34 33  1  0
 35 31  1  0
 36 37  2  0
 37 38  1  0
 39 38  2  0
 40 39  1  0
 41 15  1  0
 41 46  1  0
 41 42  1  0
 42 45  1  1
 42 43  1  0
 44 42  1  0
 46 49  1  0
 47 51  1  0
 47 46  1  0
 48 47  2  0
 51 50  1  0
 53 54  1  0
 53 51  1  0
 53 52  1  0
 56 55  2  0
 56 57  1  0
 58 67  1  0
 58 57  2  0
 59 67  1  0
 60 65  1  0
 61 62  1  0
 61 60  1  0
 63 62  1  0
 63 72  1  0
 63 64  1  0
 65 59  1  0
 65 64  1  0
 66 59  2  0
 67 68  1  0
 69 70  2  0
 70 89  1  0
 71 70  1  0
 71 74  1  0
 72 73  1  0
 72 69  1  0
 73 71  2  0
 74 75  1  0
 75 76  2  0
 77 80  1  0
 77 76  1  0
 78 77  2  0
 79 78  1  0
 79 74  2  0
 80 81  1  0
 81 82  1  0
 82 83  2  0
 84 83  1  0
 84 88  1  0
 85 84  2  0
 86 81  2  0
 86 85  1  0
 87 86  1  0
 89 90  1  0
 90 93  1  0
 90 92  1  0
 91 89  2  0
 94 69  1  0
 94 95  1  0
 96 94  1  0
M  ISO  4  13 101  14 101  59 100  67 100
M  END
>  <TORSDO>  (27) 
F 27

>  <SCORE>  (27) 
-11.588

>  <name>  (27) 
26

>  <ligand_id>  (27) 
26

>  <original_smiles>  (27) 
[H]c1c([H])c([H])c2c(c1[H])C([H])([H])C([H])([H])C([H])([H])C2([H])N([H])C(=O)C1([H])N(C(=O)C([H])(N([H])C(=O)C([H])(N([H])C([H])([H])[H])C([H])([H])[H])C(C([H])([H])[H])(C([H])([H])[H])C([H])([H])[H])C([H])([H])c2c([H])c(OC([H])([H])C([H])([H])C([H])(C([H])([H])C([H])([H])C([H])([H])C([H])([H])N([H])C(=O)N3C([H])([H])C([H])([H])C([H])([H])C([H])(n4nc(-c5c([H])c([H])c(Oc6c([H])c([H])c(F)c([H])c6F)c([H])c5[H])c(C(=O)N([H])[H])c4N([H])[H])C3([H])[H])C([H])(C([H])(C([H])([H])C([H])([H])[H])C([H])([H])C([H])([H])[H])[N+]([H])([H])[H])c([H])c([H])c2C1([H])[H]

>  <smiles>  (27) 
[H]c1c([H])c([H])c2c(c1[H])C([H])([H])C([H])([H])C([H])([H])C2([H])N([H])C(=O)C1([H])N(C(=O)C([H])(N([H])C(=O)C([H])(N([H])C([H])([H])[H])C([H])([H])[H])C(C([H])([H])[H])(C([H])([H])[H])C([H])([H])[H])C([H])([H])c2c([H])c(OC([H])([H])C([H])([H])C([H])(C([H])([H])C([H])([H])C([H])([H])C([H])([H])N([H])C(=O)N3C([H])([H])C([H])([H])C([H])([H])C([H])(n4nc(-c5c([H])c([H])c(Oc6c([H])c([H])c(F)c([H])c6F)c([H])c5[H])c(C(=O)N([H])[H])c4N([H])[H])C3([H])[H])C([H])(C([H])(C([H])([H])C([H])([H])[H])C([H])([H])C([H])([H])[H])[N+]([H])([H])[H])c([H])c([H])c2C1([H])[H]

$$$$
27:0:0
     RDKit          3D

 86 90  0  0  1  0  0  0  0  0999 V2000
  -28.7250  -21.3430   20.4330 C   0  0  0  0  0 15  0  0  0  0  0  0
  -28.0990  -23.3320   20.0650 C   0  0  0  0  0 15  0  0  0  0  0  0
  -28.1310  -25.1990   20.3670 O   0  0  0  0  0  1  0  0  0  0  0  0
  -24.6780  -31.8470   23.1700 C   0  0  0  0  0  0  0  0  0  0  0  0
  -27.1940  -26.5260   20.2680 C   0  0  0  0  0  0  0  0  0  0  0  0
  -23.4990  -30.4220   21.5550 C   0  0  0  0  0  3  0  0  0  0  0  0
  -24.9490  -28.7100   20.1750 C   0  0  0  0  0  0  0  0  0  0  0  0
  -26.0880  -30.4940   21.4610 C   0  0  0  0  0  2  0  0  0  0  0  0
  -26.1480  -29.0280   20.8220 C   0  0  0  0  0  0  0  0  0  0  0  0
  -27.2390  -27.9700   20.8310 C   0  0  0  0  0  3  0  0  0  0  0  0
  -25.9600  -26.4830   19.5510 C   0  0  0  0  0  3  0  0  0  0  0  0
  -24.9080  -27.4660   19.5150 C   0  0  0  0  0  3  0  0  0  0  0  0
  -23.7510  -29.6890   20.2000 C   0  0  0  0  0  2  0  0  0  0  0  0
  -24.7820  -30.9610   22.1120 N   0  0  0  0  0  0  0  0  0  0  0  0
  -23.5810  -32.1640   23.6640 O   0  0  0  0  0  0  0  0  0  0  0  0
  -22.7610  -29.4790   22.5440 C   0  0  0  0  0  0  0  0  0  0  0  0
  -21.4250  -29.3410   22.4260 N   0  0  0  0  0  0  0  0  0  0  0  0
  -23.4060  -28.8650   23.3960 O   0  0  0  0  0  0  0  0  0  0  0  0
  -20.9500  -29.8860   21.7200 H   0  0  0  0  0  0  0  0  0  0  0  0
  -18.0300  -28.1430   22.9660 C   0  0  0  0  0  0  0  0  0  0  0  0
  -20.5930  -28.4180   23.2130 C   0  0  0  0  0  3  0  0  0  0  0  0
  -20.6890  -26.9770   22.6590 C   0  0  0  0  0  2  0  0  0  0  0  0
  -19.5850  -26.6420   21.6510 C   0  0  0  0  0  2  0  0  0  0  0  0
  -18.2060  -26.7900   22.2980 C   0  0  0  0  0  2  0  0  0  0  0  0
  -19.1490  -28.9150   23.3810 C   0  0  0  0  0  0  0  0  0  0  0  0
  -18.9260  -30.1750   23.9740 C   0  0  0  0  0  3  0  0  0  0  0  0
  -17.6180  -30.6680   24.1510 C   0  0  0  0  0  3  0  0  0  0  0  0
  -16.5150  -29.8960   23.7480 C   0  0  0  0  0  3  0  0  0  0  0  0
  -16.7220  -28.6350   23.1620 C   0  0  0  0  0  3  0  0  0  0  0  0
  -25.9300  -32.5170   23.8130 C   0  0  0  0  0  3  0  0  0  0  0  0
  -26.4260  -31.7750   25.1180 C   0  0  1  0  0  0  0  0  0  0  0  0
  -25.3170  -31.5620   26.1760 C   0  0  0  0  0  1  0  0  0  0  0  0
  -27.0140  -30.3870   24.7810 C   0  0  0  0  0  1  0  0  0  0  0  0
  -27.5690  -32.5820   25.7790 C   0  0  0  0  0  1  0  0  0  0  0  0
  -25.5950  -33.9200   24.1440 N   0  0  0  0  0  0  0  0  0  0  0  0
  -25.9260  -34.9920   23.4100 C   0  0  0  0  0  0  0  0  0  0  0  0
  -26.5950  -34.9050   22.3780 O   0  0  0  0  0  0  0  0  0  0  0  0
  -24.9960  -34.0590   24.9440 H   0  0  0  0  0  0  0  0  0  0  0  0
  -24.1920  -36.7980   23.1020 C   0  0  0  0  0  1  0  0  0  0  0  0
  -25.4420  -36.3790   23.8910 C   0  0  0  0  0  3  0  0  0  0  0  0
  -27.5820  -37.2700   24.7100 C   0  0  0  0  0  1  0  0  0  0  0  0
  -26.4720  -37.4380   23.7780 N   0  0  0  0  0  0  0  0  0  0  0  0
  -26.0630  -38.3560   23.9320 H   0  0  0  0  0  0  0  0  0  0  0  0
  -29.4930  -19.4230   19.9540 C   0  0  0  0  0  2  0  0  0  0  0  0
  -30.1410  -16.0630   20.2070 C   0  0  0  0  0  0  0  0  0  0  0  0
  -30.3260  -13.4320   19.4200 C   0  0  0  0  0  2  0  0  0  0  0  0
  -29.4750  -12.8700   18.2330 C   0  0  0  0  0  2  0  0  0  0  0  0
  -28.0820  -12.4360   18.7030 C   0  0  0  0  0  2  0  0  0  0  0  0
  -27.5210  -13.4530   19.7160 C   0  0  0  0  0  3  0  0  0  0  0  0
  -28.5280  -13.9090   20.8110 C   0  0  0  0  0  2  0  0  0  0  0  0
  -29.6440  -14.6400   20.1350 N   0  0  0  0  0  0  0  0  0  0  0  0
  -31.3760  -15.9230   20.0380 O   0  0  0  0  0  0  0  0  0  0  0  0
  -29.4140  -17.5390   20.2760 N   0  0  0  0  0  0  0  0  0  0  0  0
  -28.4450  -17.3300   20.4730 H   0  0  0  0  0  0  0  0  0  0  0  0
  -25.1630  -13.9430   20.4880 C   0  0  0  0  0  0  0  0  0  0  0  0
  -24.1100  -13.1530   20.8510 C   0  0  0  0  0  0  0  0  0  0  0  0
  -24.5910  -11.8080   20.8180 C   0  0  0  0  0  0  0  0  0  0  0  0
  -26.2150  -13.0830   20.2430 N   0  0  0  0  0  0  0  0  0  0  0  0
  -25.8870  -11.7890   20.5060 N   0  0  0  0  0  0  0  0  0  0  0  0
  -23.8690  -10.5400   21.0050 C   0  0  0  0  0  0  0  0  0  0  0  0
  -24.3010   -9.5710   21.9360 C   0  0  0  0  0  3  0  0  0  0  0  0
  -23.5720   -8.3750   22.1150 C   0  0  0  0  0  3  0  0  0  0  0  0
  -22.3970   -8.1390   21.3630 C   0  0  0  0  0  0  0  0  0  0  0  0
  -21.9840   -9.0960   20.4200 C   0  0  0  0  0  3  0  0  0  0  0  0
  -22.7130  -10.2840   20.2390 C   0  0  0  0  0  3  0  0  0  0  0  0
  -21.6400   -6.9950   21.4510 O   0  0  0  0  0  0  0  0  0  0  0  0
  -21.5950   -6.2470   22.6010 C   0  0  0  0  0  0  0  0  0  0  0  0
  -21.1720   -6.7970   23.8310 C   0  0  0  0  0  3  0  0  0  0  0  0
  -21.0730   -5.9760   24.9710 C   0  0  0  0  0  3  0  0  0  0  0  0
  -21.3890   -4.6070   24.8850 C   0  0  0  0  0  0  0  0  0  0  0  0
  -21.8070   -4.0580   23.6600 C   0  0  0  0  0  3  0  0  0  0  0  0
  -21.9050   -4.8750   22.5210 C   0  0  0  0  0  0  0  0  0  0  0  0
  -22.2860   -4.3340   21.3390 F   0  0  0  0  0  0  0  0  0  0  0  0
  -21.2880   -3.8170   25.9790 F   0  0  0  0  0  0  0  0  0  0  0  0
  -22.7080  -13.6220   21.1090 C   0  0  0  0  0  0  0  0  0  0  0  0
  -21.9790  -12.9280   21.9740 N   0  0  0  0  0  0  0  0  0  0  0  0
  -22.2700  -14.6430   20.5790 O   0  0  0  0  0  0  0  0  0  0  0  0
  -22.3470  -12.1040   22.4270 H   0  0  0  0  0  0  0  0  0  0  0  0
  -21.0390  -13.2270   22.1920 H   0  0  0  0  0  0  0  0  0  0  0  0
  -25.3090  -15.3150   20.3090 N   0  0  0  0  0  0  0  0  0  0  0  0
  -24.5310  -15.9570   20.4140 H   0  0  0  0  0  0  0  0  0  0  0  0
  -26.1470  -15.7610   19.9620 H   0  0  0  0  0  0  0  0  0  0  0  0
  -31.1770  -20.3900   18.2300 C   0  0  0  0  0  1  0  0  0  0  0  0
  -28.7560  -20.1800   17.5870 C   0  0  0  0  0  1  0  0  0  0  0  0
  -30.2020  -18.2000   17.7110 C   0  0  0  0  0  1  0  0  0  0  0  0
  -29.8930  -19.5450   18.4140 C   0  0  2  0  0  0  0  0  0  0  0  0
  4 15  2  0
  5  3  1  0
  5 10  1  0
  6 14  1  0
  6 16  1  0
  7 13  1  0
  7  9  1  0
  8 14  1  0
  9 10  2  0
  9  8  1  0
 11  5  2  0
 12 11  1  0
 12  7  2  0
 13  6  1  0
 14  4  1  0
 16 18  2  0
 17 16  1  0
 19 17  1  0
 20 29  2  0
 20 25  1  0
 21 17  1  0
 21 25  1  0
 22 21  1  0
 23 24  1  0
 23 22  1  0
 24 20  1  0
 25 26  2  0
 26 27  1  0
 28 27  2  0
 29 28  1  0
 30  4  1  0
 30 35  1  0
 30 31  1  0
 31 34  1  1
 31 32  1  0
 33 31  1  0
 35 38  1  0
 36 40  1  0
 36 35  1  0
 37 36  2  0
 40 39  1  0
 42 40  1  0
 42 43  1  0
 42 41  1  0
 44 53  1  0
 45 53  1  0
 46 51  1  0
 47 48  1  0
 47 46  1  0
 49 48  1  0
 49 58  1  0
 49 50  1  0
 51 45  1  0
 51 50  1  0
 52 45  2  0
 53 54  1  0
 55 56  2  0
 56 75  1  0
 57 56  1  0
 57 60  1  0
 58 55  1  0
 58 59  1  0
 59 57  2  0
 60 61  1  0
 61 62  2  0
 63 66  1  0
 63 62  1  0
 64 63  2  0
 65 64  1  0
 65 60  2  0
 66 67  1  0
 67 68  1  0
 68 69  2  0
 70 69  1  0
 70 74  1  0
 71 70  2  0
 72 67  2  0
 72 71  1  0
 73 72  1  0
 75 76  1  0
 76 79  1  0
 76 78  1  0
 77 75  2  0
 80 81  1  0
 80 55  1  0
 82 80  1  0
 86 83  1  1
 84 86  1  0
 85 86  1  0
 86 44  1  0
M  ISO  4   2 101   3 101  45 100  53 100
M  END
>  <TORSDO>  (28) 
F 19

>  <SCORE>  (28) 
-16.091

>  <name>  (28) 
27

>  <ligand_id>  (28) 
27

>  <original_smiles>  (28) 
[H]c1c([H])c([H])c2c(c1[H])C([H])([H])C([H])([H])C([H])([H])C2([H])N([H])C(=O)C1([H])N(C(=O)C([H])(N([H])C(=O)C([H])(N([H])C([H])([H])[H])C([H])([H])[H])C(C([H])([H])[H])(C([H])([H])[H])C([H])([H])[H])C([H])([H])c2c([H])c(OC([H])([H])C([H])([H])C([H])(N([H])C(=O)N3C([H])([H])C([H])([H])C([H])([H])C([H])(n4nc(-c5c([H])c([H])c(Oc6c([H])c([H])c(F)c([H])c6F)c([H])c5[H])c(C(=O)N([H])[H])c4N([H])[H])C3([H])[H])C(C([H])([H])[H])(C([H])([H])[H])C([H])([H])[H])c([H])c([H])c2C1([H])[H]

>  <smiles>  (28) 
[H]c1c([H])c([H])c2c(c1[H])C([H])([H])C([H])([H])C([H])([H])C2([H])N([H])C(=O)C1([H])N(C(=O)C([H])(N([H])C(=O)C([H])(N([H])C([H])([H])[H])C([H])([H])[H])C(C([H])([H])[H])(C([H])([H])[H])C([H])([H])[H])C([H])([H])c2c([H])c(OC([H])([H])C([H])([H])C([H])(N([H])C(=O)N3C([H])([H])C([H])([H])C([H])([H])C([H])(n4nc(-c5c([H])c([H])c(Oc6c([H])c([H])c(F)c([H])c6F)c([H])c5[H])c(C(=O)N([H])[H])c4N([H])[H])C3([H])[H])C(C([H])([H])[H])(C([H])([H])[H])C([H])([H])[H])c([H])c([H])c2C1([H])[H]

$$$$
28:0:0
     RDKit          3D

 96103  0  0  1  0  0  0  0  0999 V2000
  -28.5460  -22.4280   20.5730 C   0  0  0  0  0  2  0  0  0  0  0  0
  -29.3530  -21.1860   20.0250 C   0  0  0  0  0  0  0  0  0  0  0  0
  -29.6840  -21.1800   18.8400 O   0  0  0  0  0  0  0  0  0  0  0  0
  -29.7620  -19.9780   20.9600 C   0  0  0  0  0  2  0  0  0  0  0  0
  -29.3300  -18.4640   20.6460 C   0  0  0  0  0  2  0  0  0  0  0  0
  -30.4170  -17.3300   20.3060 C   0  0  0  0  0  3  0  0  0  0  0  0
  -30.6740  -14.7350   20.3940 C   0  0  0  0  0  0  0  0  0  0  0  0
  -30.4070  -12.5060   19.3460 C   0  0  0  0  0  2  0  0  0  0  0  0
  -29.4720  -12.6340   18.1250 C   0  0  0  0  0  2  0  0  0  0  0  0
  -28.0000  -12.4730   18.5520 C   0  0  0  0  0  2  0  0  0  0  0  0
  -27.6340  -13.3380   19.7880 C   0  0  0  0  0  3  0  0  0  0  0  0
  -28.6950  -13.2280   20.9050 C   0  0  0  0  0  2  0  0  0  0  0  0
  -29.9980  -13.5460   20.3100 N   0  0  0  0  0  0  0  0  0  0  0  0
  -31.8810  -14.7830   20.1510 O   0  0  0  0  0  0  0  0  0  0  0  0
  -29.9380  -15.8960   20.4860 N   0  0  0  0  0  0  0  0  0  0  0  0
  -28.9510  -15.7720   20.6400 H   0  0  0  0  0  0  0  0  0  0  0  0
  -25.2360  -13.9130   20.5040 C   0  0  0  0  0  0  0  0  0  0  0  0
  -24.1730  -13.1300   20.8680 C   0  0  0  0  0  0  0  0  0  0  0  0
  -24.6460  -11.7820   20.8450 C   0  0  0  0  0  0  0  0  0  0  0  0
  -26.2880  -13.0410   20.2760 N   0  0  0  0  0  0  0  0  0  0  0  0
  -25.9390  -11.7550   20.5460 N   0  0  0  0  0  0  0  0  0  0  0  0
  -23.9270  -10.5160   21.0320 C   0  0  0  0  0  0  0  0  0  0  0  0
  -24.3600   -9.5510   21.9690 C   0  0  0  0  0  3  0  0  0  0  0  0
  -23.6390   -8.3500   22.1440 C   0  0  0  0  0  3  0  0  0  0  0  0
  -22.4720   -8.1050   21.3820 C   0  0  0  0  0  0  0  0  0  0  0  0
  -22.0580   -9.0590   20.4360 C   0  0  0  0  0  3  0  0  0  0  0  0
  -22.7800  -10.2500   20.2590 C   0  0  0  0  0  3  0  0  0  0  0  0
  -21.7230   -6.9570   21.4680 O   0  0  0  0  0  0  0  0  0  0  0  0
  -21.6730   -6.2130   22.6210 C   0  0  0  0  0  0  0  0  0  0  0  0
  -21.2280   -6.7600   23.8430 C   0  0  0  0  0  3  0  0  0  0  0  0
  -21.1260   -5.9430   24.9860 C   0  0  0  0  0  3  0  0  0  0  0  0
  -21.4610   -4.5780   24.9080 C   0  0  0  0  0  0  0  0  0  0  0  0
  -21.8980   -4.0290   23.6890 C   0  0  0  0  0  3  0  0  0  0  0  0
  -22.0010   -4.8440   22.5480 C   0  0  0  0  0  0  0  0  0  0  0  0
  -22.4030   -4.3040   21.3720 F   0  0  0  0  0  0  0  0  0  0  0  0
  -21.3560   -3.7900   26.0040 F   0  0  0  0  0  0  0  0  0  0  0  0
  -22.7700  -13.5980   21.1280 C   0  0  0  0  0  0  0  0  0  0  0  0
  -22.0380  -12.8970   21.9860 N   0  0  0  0  0  0  0  0  0  0  0  0
  -22.3310  -14.6210   20.6040 O   0  0  0  0  0  0  0  0  0  0  0  0
  -22.4050  -12.0690   22.4310 H   0  0  0  0  0  0  0  0  0  0  0  0
  -21.0960  -13.1920   22.2010 H   0  0  0  0  0  0  0  0  0  0  0  0
  -25.3850  -15.2840   20.3200 N   0  0  0  0  0  0  0  0  0  0  0  0
  -24.6010  -15.9210   20.4140 H   0  0  0  0  0  0  0  0  0  0  0  0
  -26.2180  -15.7340   19.9640 H   0  0  0  0  0  0  0  0  0  0  0  0
  -29.9920  -17.7530   17.7850 C   0  0  0  0  0  1  0  0  0  0  0  0
  -31.0480  -17.5210   18.8800 C   0  0  0  0  0  3  0  0  0  0  0  0
  -33.4710  -18.1380   19.5170 C   0  0  0  0  0  1  0  0  0  0  0  0
  -32.1830  -18.5670   18.7980 C   0  0  0  0  0  2  0  0  0  0  0  0
  -29.0850  -23.9350   20.3910 C   0  0  0  0  0  3  0  0  0  0  0  0
  -29.8350  -24.3870   21.6690 C   0  0  0  0  0  2  0  0  0  0  0  0
  -31.1060  -23.6760   21.9060 N   0  0  0  0  0  4  0  0  0  0  0  0
  -31.5740  -24.0910   22.6950 H   0  0  0  0  0  0  0  0  0  0  0  0
  -31.7190  -23.7570   21.1120 H   0  0  0  0  0  0  0  0  0  0  0  0
  -30.9640  -22.7060   22.1160 H   0  0  0  0  0  0  0  0  0  0  0  0
  -27.9630  -25.0190   20.0480 C   0  0  0  0  0  2  0  0  0  0  0  0
  -28.2280  -26.4830   20.1500 O   0  0  0  0  0  0  0  0  0  0  0  0
  -24.5360  -31.8940   23.2280 C   0  0  0  0  0  0  0  0  0  0  0  0
  -27.1180  -27.3450   20.1200 C   0  0  0  0  0  0  0  0  0  0  0  0
  -23.3190  -30.4950   21.5980 C   0  0  0  0  0  3  0  0  0  0  0  0
  -24.7560  -28.9590   20.1510 C   0  0  0  0  0  0  0  0  0  0  0  0
  -25.8580  -30.8210   21.3890 C   0  0  0  0  0  2  0  0  0  0  0  0
  -25.9330  -29.4440   20.7370 C   0  0  0  0  0  0  0  0  0  0  0  0
  -27.1180  -28.6480   20.7090 C   0  0  0  0  0  3  0  0  0  0  0  0
  -25.9130  -26.9200   19.5130 C   0  0  0  0  0  3  0  0  0  0  0  0
  -24.7490  -27.7040   19.5300 C   0  0  0  0  0  3  0  0  0  0  0  0
  -23.5200  -29.8290   20.2140 C   0  0  0  0  0  2  0  0  0  0  0  0
  -24.5910  -31.0870   22.1270 N   0  0  0  0  0  0  0  0  0  0  0  0
  -23.4550  -32.1630   23.7740 O   0  0  0  0  0  0  0  0  0  0  0  0
  -22.6710  -29.4700   22.5600 C   0  0  0  0  0  0  0  0  0  0  0  0
  -21.3460  -29.2820   22.4430 N   0  0  0  0  0  0  0  0  0  0  0  0
  -23.3590  -28.8520   23.3770 O   0  0  0  0  0  0  0  0  0  0  0  0
  -20.8450  -29.8370   21.7630 H   0  0  0  0  0  0  0  0  0  0  0  0
  -17.9850  -28.0530   22.9550 C   0  0  0  0  0  0  0  0  0  0  0  0
  -20.5410  -28.3410   23.2210 C   0  0  0  0  0  3  0  0  0  0  0  0
  -20.6570  -26.9050   22.6570 C   0  0  0  0  0  2  0  0  0  0  0  0
  -19.5580  -26.5640   21.6460 C   0  0  0  0  0  2  0  0  0  0  0  0
  -18.1750  -26.7010   22.2890 C   0  0  0  0  0  2  0  0  0  0  0  0
  -19.0950  -28.8300   23.3800 C   0  0  0  0  0  0  0  0  0  0  0  0
  -18.8620  -30.0950   23.9640 C   0  0  0  0  0  3  0  0  0  0  0  0
  -17.5500  -30.5830   24.1240 C   0  0  0  0  0  3  0  0  0  0  0  0
  -16.4560  -29.8020   23.7160 C   0  0  0  0  0  3  0  0  0  0  0  0
  -16.6730  -28.5400   23.1380 C   0  0  0  0  0  3  0  0  0  0  0  0
  -25.8210  -32.5310   23.8350 C   0  0  0  0  0  3  0  0  0  0  0  0
  -26.3440  -31.7720   25.1140 C   0  0  1  0  0  0  0  0  0  0  0  0
  -25.2550  -31.5450   26.1880 C   0  0  0  0  0  1  0  0  0  0  0  0
  -26.9230  -30.3910   24.7300 C   0  0  0  0  0  1  0  0  0  0  0  0
  -27.5000  -32.5700   25.7620 C   0  0  0  0  0  1  0  0  0  0  0  0
  -25.5130  -33.9330   24.1540 N   0  0  0  0  0  0  0  0  0  0  0  0
  -25.8510  -34.9790   23.3890 C   0  0  0  0  0  0  0  0  0  0  0  0
  -26.5220  -34.8670   22.3590 O   0  0  0  0  0  0  0  0  0  0  0  0
  -24.9170  -34.0970   24.9510 H   0  0  0  0  0  0  0  0  0  0  0  0
  -24.1370  -36.7800   23.0140 C   0  0  0  0  0  1  0  0  0  0  0  0
  -25.3670  -36.3710   23.8390 C   0  0  0  0  0  3  0  0  0  0  0  0
  -27.4960  -37.2460   24.6920 C   0  0  0  0  0  1  0  0  0  0  0  0
  -26.4070  -37.4170   23.7360 N   0  0  0  0  0  0  0  0  0  0  0  0
  -26.0020  -38.3390   23.8790 H   0  0  0  0  0  0  0  0  0  0  0  0
  2  1  1  0
  2  4  1  0
  3  2  2  0
  5  4  1  0
  6 15  1  0
  6  5  1  0
  7 15  1  0
  8 13  1  0
  9 10  1  0
  9  8  1  0
 11 10  1  0
 11 20  1  0
 11 12  1  0
 13  7  1  0
 13 12  1  0
 14  7  2  0
 15 16  1  0
 17 18  2  0
 18 37  1  0
 19 18  1  0
 19 22  1  0
 20 17  1  0
 20 21  1  0
 21 19  2  0
 22 23  1  0
 23 24  2  0
 25 28  1  0
 25 24  1  0
 26 25  2  0
 27 26  1  0
 27 22  2  0
 28 29  1  0
 29 30  1  0
 30 31  2  0
 32 31  1  0
 32 36  1  0
 33 32  2  0
 34 29  2  0
 34 33  1  0
 35 34  1  0
 37 38  1  0
 38 41  1  0
 38 40  1  0
 39 37  2  0
 42 43  1  0
 42 17  1  0
 44 42  1  0
 46 45  1  0
 46  6  1  0
 48 46  1  0
 48 47  1  0
 49 55  1  0
 49  1  1  0
 49 50  1  0
 50 51  1  0
 51 54  1  0
 51 52  1  0
 53 51  1  0
 55 56  1  0
 57 68  2  0
 58 56  1  0
 58 63  1  0
 59 67  1  0
 59 69  1  0
 60 66  1  0
 60 62  1  0
 61 67  1  0
 62 61  1  0
 63 62  2  0
 64 65  1  0
 64 58  2  0
 65 60  2  0
 66 59  1  0
 67 57  1  0
 69 71  2  0
 70 69  1  0
 72 70  1  0
 73 82  2  0
 73 78  1  0
 74 70  1  0
 74 78  1  0
 75 74  1  0
 76 77  1  0
 76 75  1  0
 77 73  1  0
 78 79  2  0
 79 80  1  0
 81 80  2  0
 82 81  1  0
 83 57  1  0
 83 88  1  0
 83 84  1  0
 84 87  1  1
 84 85  1  0
 86 84  1  0
 88 91  1  0
 89 93  1  0
 89 88  1  0
 90 89  2  0
 93 92  1  0
 95 93  1  0
 95 96  1  0
 95 94  1  0
M  ISO  4   7 100  15 100  55 101  56 101
M  END
>  <TORSDO>  (29) 
F 26

>  <SCORE>  (29) 
-12.127

>  <name>  (29) 
28

>  <ligand_id>  (29) 
28

>  <original_smiles>  (29) 
[H]c1c([H])c([H])c2c(c1[H])C([H])([H])C([H])([H])C([H])([H])C2([H])N([H])C(=O)C1([H])N(C(=O)C([H])(N([H])C(=O)C([H])(N([H])C([H])([H])[H])C([H])([H])[H])C(C([H])([H])[H])(C([H])([H])[H])C([H])([H])[H])C([H])([H])c2c([H])c(OC([H])([H])C([H])(C([H])([H])C(=O)C([H])([H])C([H])([H])C([H])(N([H])C(=O)N3C([H])([H])C([H])([H])C([H])([H])C([H])(n4nc(-c5c([H])c([H])c(Oc6c([H])c([H])c(F)c([H])c6F)c([H])c5[H])c(C(=O)N([H])[H])c4N([H])[H])C3([H])[H])C([H])(C([H])([H])[H])C([H])([H])C([H])([H])[H])C([H])([H])[N+]([H])([H])[H])c([H])c([H])c2C1([H])[H]

>  <smiles>  (29) 
[H]c1c([H])c([H])c2c(c1[H])C([H])([H])C([H])([H])C([H])([H])C2([H])N([H])C(=O)C1([H])N(C(=O)C([H])(N([H])C(=O)C([H])(N([H])C([H])([H])[H])C([H])([H])[H])C(C([H])([H])[H])(C([H])([H])[H])C([H])([H])[H])C([H])([H])c2c([H])c(OC([H])([H])C([H])(C([H])([H])C(=O)C([H])([H])C([H])([H])C([H])(N([H])C(=O)N3C([H])([H])C([H])([H])C([H])([H])C([H])(n4nc(-c5c([H])c([H])c(Oc6c([H])c([H])c(F)c([H])c6F)c([H])c5[H])c(C(=O)N([H])[H])c4N([H])[H])C3([H])[H])C([H])(C([H])([H])[H])C([H])([H])C([H])([H])[H])C([H])([H])[N+]([H])([H])[H])c([H])c([H])c2C1([H])[H]

$$$$
29:0:0
     RDKit          3D

 92 99  0  0  1  0  0  0  0  0999 V2000
  -30.0670  -19.9990   20.4860 C   0  0  0  0  0  3  0  0  0  0  0  0
  -31.3750  -19.7320   18.3030 C   0  0  0  0  0  1  0  0  0  0  0  0
  -31.4590  -20.2780   19.7490 C   0  0  1  0  0  0  0  0  0  0  0  0
  -32.1970  -22.5160   20.9430 C   0  0  0  0  0  1  0  0  0  0  0  0
  -31.7830  -21.8040   19.6380 C   0  0  0  0  0  2  0  0  0  0  0  0
  -34.0630  -19.7930   19.8330 C   0  0  0  0  0  1  0  0  0  0  0  0
  -32.6760  -19.6200   20.4870 C   0  0  0  0  0  2  0  0  0  0  0  0
  -29.5160  -18.4690   20.3790 C   0  0  0  0  0  3  0  0  0  0  0  0
  -30.4400  -17.1910   20.6780 C   0  0  0  0  0  3  0  0  0  0  0  0
  -30.5930  -14.6440   20.4140 C   0  0  0  0  0  0  0  0  0  0  0  0
  -30.3200  -12.4170   19.3500 C   0  0  0  0  0  2  0  0  0  0  0  0
  -29.3780  -12.5540   18.1360 C   0  0  0  0  0  2  0  0  0  0  0  0
  -27.9100  -12.3940   18.5760 C   0  0  0  0  0  2  0  0  0  0  0  0
  -27.5580  -13.2560   19.8170 C   0  0  0  0  0  3  0  0  0  0  0  0
  -28.6250  -13.1270   20.9280 C   0  0  0  0  0  2  0  0  0  0  0  0
  -29.9240  -13.4510   20.3290 N   0  0  0  0  0  0  0  0  0  0  0  0
  -31.7750  -14.7260   20.0700 O   0  0  0  0  0  0  0  0  0  0  0  0
  -29.8770  -15.7870   20.6810 N   0  0  0  0  0  0  0  0  0  0  0  0
  -28.9000  -15.6730   20.9100 H   0  0  0  0  0  0  0  0  0  0  0  0
  -25.1720  -13.8430   20.5570 C   0  0  0  0  0  0  0  0  0  0  0  0
  -24.1090  -13.0660   20.9260 C   0  0  0  0  0  0  0  0  0  0  0  0
  -24.5730  -11.7150   20.8880 C   0  0  0  0  0  0  0  0  0  0  0  0
  -26.2160  -12.9660   20.3120 N   0  0  0  0  0  0  0  0  0  0  0  0
  -25.8620  -11.6810   20.5730 N   0  0  0  0  0  0  0  0  0  0  0  0
  -23.8500  -10.4510   21.0740 C   0  0  0  0  0  0  0  0  0  0  0  0
  -24.2900   -9.4760   21.9960 C   0  0  0  0  0  3  0  0  0  0  0  0
  -23.5660   -8.2770   22.1700 C   0  0  0  0  0  3  0  0  0  0  0  0
  -22.3870   -8.0450   21.4230 C   0  0  0  0  0  0  0  0  0  0  0  0
  -21.9650   -9.0080   20.4900 C   0  0  0  0  0  3  0  0  0  0  0  0
  -22.6900  -10.1990   20.3130 C   0  0  0  0  0  3  0  0  0  0  0  0
  -21.6330   -6.8990   21.5070 O   0  0  0  0  0  0  0  0  0  0  0  0
  -21.5990   -6.1430   22.6520 C   0  0  0  0  0  0  0  0  0  0  0  0
  -21.1830   -6.6830   23.8890 C   0  0  0  0  0  3  0  0  0  0  0  0
  -21.0960   -5.8540   25.0250 C   0  0  0  0  0  3  0  0  0  0  0  0
  -21.4140   -4.4870   24.9250 C   0  0  0  0  0  0  0  0  0  0  0  0
  -21.8210   -3.9450   23.6930 C   0  0  0  0  0  3  0  0  0  0  0  0
  -21.9100   -4.7710   22.5590 C   0  0  0  0  0  0  0  0  0  0  0  0
  -22.2840   -4.2420   21.3700 F   0  0  0  0  0  0  0  0  0  0  0  0
  -21.3220   -3.6880   26.0150 F   0  0  0  0  0  0  0  0  0  0  0  0
  -22.7110  -13.5390   21.2050 C   0  0  0  0  0  0  0  0  0  0  0  0
  -21.9880  -12.8350   22.0690 N   0  0  0  0  0  0  0  0  0  0  0  0
  -22.2700  -14.5680   20.6950 O   0  0  0  0  0  0  0  0  0  0  0  0
  -22.3600  -12.0030   22.5030 H   0  0  0  0  0  0  0  0  0  0  0  0
  -21.0510  -13.1320   22.2980 H   0  0  0  0  0  0  0  0  0  0  0  0
  -25.3340  -15.2150   20.3840 N   0  0  0  0  0  0  0  0  0  0  0  0
  -24.5650  -15.8680   20.4900 H   0  0  0  0  0  0  0  0  0  0  0  0
  -26.1770  -15.6530   20.0330 H   0  0  0  0  0  0  0  0  0  0  0  0
  -28.9380  -21.0830   20.0690 C   0  0  0  0  0  2  0  0  0  0  0  0
  -28.7590  -22.4890   20.8260 C   0  0  0  0  0  2  0  0  0  0  0  0
  -28.6150  -23.8610   20.0120 C   0  0  0  0  0  3  0  0  0  0  0  0
  -28.2250  -25.1630   20.8460 C   0  0  0  0  0  3  0  0  0  0  0  0
  -28.3630  -26.5080   20.2500 O   0  0  0  0  0  0  0  0  0  0  0  0
  -24.5970  -31.8900   23.2360 C   0  0  0  0  0  0  0  0  0  0  0  0
  -27.2360  -27.3340   20.2340 C   0  0  0  0  0  0  0  0  0  0  0  0
  -23.4030  -30.4800   21.5950 C   0  0  0  0  0  3  0  0  0  0  0  0
  -24.8650  -28.9180   20.1920 C   0  0  0  0  0  0  0  0  0  0  0  0
  -25.9400  -30.8080   21.4230 C   0  0  0  0  0  2  0  0  0  0  0  0
  -26.0270  -29.4250   20.7890 C   0  0  0  0  0  0  0  0  0  0  0  0
  -27.2190  -28.6450   20.7980 C   0  0  0  0  0  3  0  0  0  0  0  0
  -26.0550  -26.8670   19.6230 C   0  0  0  0  0  3  0  0  0  0  0  0
  -24.8800  -27.6440   19.6000 C   0  0  0  0  0  3  0  0  0  0  0  0
  -23.6270  -29.7920   20.2220 C   0  0  0  0  0  2  0  0  0  0  0  0
  -24.6650  -31.0770   22.1410 N   0  0  0  0  0  0  0  0  0  0  0  0
  -23.5100  -32.1690   23.7640 O   0  0  0  0  0  0  0  0  0  0  0  0
  -22.7380  -29.4690   22.5580 C   0  0  0  0  0  0  0  0  0  0  0  0
  -21.4120  -29.2970   22.4300 N   0  0  0  0  0  0  0  0  0  0  0  0
  -23.4120  -28.8420   23.3800 O   0  0  0  0  0  0  0  0  0  0  0  0
  -20.9270  -29.8540   21.7400 H   0  0  0  0  0  0  0  0  0  0  0  0
  -18.0260  -28.1290   22.9350 C   0  0  0  0  0  0  0  0  0  0  0  0
  -20.5870  -28.3670   23.2010 C   0  0  0  0  0  3  0  0  0  0  0  0
  -20.6760  -26.9350   22.6250 C   0  0  0  0  0  2  0  0  0  0  0  0
  -19.5680  -26.6220   21.6120 C   0  0  0  0  0  2  0  0  0  0  0  0
  -18.1890  -26.7790   22.2590 C   0  0  0  0  0  2  0  0  0  0  0  0
  -19.1520  -28.8820   23.3630 C   0  0  0  0  0  0  0  0  0  0  0  0
  -18.9440  -30.1470   23.9560 C   0  0  0  0  0  3  0  0  0  0  0  0
  -17.6440  -30.6580   24.1270 C   0  0  0  0  0  3  0  0  0  0  0  0
  -16.5340  -29.9020   23.7130 C   0  0  0  0  0  3  0  0  0  0  0  0
  -16.7250  -28.6410   23.1230 C   0  0  0  0  0  3  0  0  0  0  0  0
  -25.8750  -32.5260   23.8640 C   0  0  0  0  0  3  0  0  0  0  0  0
  -26.3840  -31.7600   25.1460 C   0  0  1  0  0  0  0  0  0  0  0  0
  -25.2850  -31.5270   26.2100 C   0  0  0  0  0  1  0  0  0  0  0  0
  -26.9700  -30.3800   24.7650 C   0  0  0  0  0  1  0  0  0  0  0  0
  -27.5300  -32.5590   25.8120 C   0  0  0  0  0  1  0  0  0  0  0  0
  -25.5620  -33.9250   24.1860 N   0  0  0  0  0  0  0  0  0  0  0  0
  -25.8990  -34.9750   23.4260 C   0  0  0  0  0  0  0  0  0  0  0  0
  -26.5770  -34.8670   22.3990 O   0  0  0  0  0  0  0  0  0  0  0  0
  -24.9600  -34.0830   24.9810 H   0  0  0  0  0  0  0  0  0  0  0  0
  -24.1760  -36.7700   23.0490 C   0  0  0  0  0  1  0  0  0  0  0  0
  -25.4100  -36.3660   23.8750 C   0  0  0  0  0  3  0  0  0  0  0  0
  -27.5370  -37.2520   24.7230 C   0  0  0  0  0  1  0  0  0  0  0  0
  -26.4440  -37.4190   23.7690 N   0  0  0  0  0  0  0  0  0  0  0  0
  -26.0370  -38.3400   23.9090 H   0  0  0  0  0  0  0  0  0  0  0  0
  1 48  1  0
  3  2  1  6
  3  1  1  0
  3  7  1  0
  5  3  1  0
  5  4  1  0
  6  7  1  0
  8  1  1  0
  8  9  2  0
  9 18  1  0
 10 18  1  0
 11 16  1  0
 12 13  1  0
 12 11  1  0
 14 13  1  0
 14 23  1  0
 14 15  1  0
 16 10  1  0
 16 15  1  0
 17 10  2  0
 18 19  1  0
 20 21  2  0
 21 40  1  0
 22 21  1  0
 22 25  1  0
 23 20  1  0
 23 24  1  0
 24 22  2  0
 25 26  1  0
 26 27  2  0
 28 31  1  0
 28 27  1  0
 29 28  2  0
 30 29  1  0
 30 25  2  0
 31 32  1  0
 32 33  1  0
 33 34  2  0
 35 34  1  0
 35 39  1  0
 36 35  2  0
 37 32  2  0
 37 36  1  0
 38 37  1  0
 40 41  1  0
 41 44  1  0
 41 43  1  0
 42 40  2  0
 45 46  1  0
 45 20  1  0
 47 45  1  0
 48 49  1  0
 50 49  1  0
 50 51  2  0
 52 51  1  0
 53 64  2  0
 54 52  1  0
 54 59  1  0
 55 63  1  0
 55 65  1  0
 56 62  1  0
 56 58  1  0
 57 63  1  0
 58 59  2  0
 58 57  1  0
 60 54  2  0
 61 60  1  0
 61 56  2  0
 62 55  1  0
 63 53  1  0
 65 67  2  0
 66 65  1  0
 68 66  1  0
 69 78  2  0
 69 74  1  0
 70 66  1  0
 70 74  1  0
 71 70  1  0
 72 73  1  0
 72 71  1  0
 73 69  1  0
 74 75  2  0
 75 76  1  0
 77 76  2  0
 78 77  1  0
 79 53  1  0
 79 84  1  0
 79 80  1  0
 80 83  1  1
 80 81  1  0
 82 80  1  0
 84 87  1  0
 85 89  1  0
 85 84  1  0
 86 85  2  0
 89 88  1  0
 91 89  1  0
 91 92  1  0
 91 90  1  0
M  ISO  4  10 100  18 100  51 101  52 101
M  END
>  <TORSDO>  (30) 
F 25

>  <SCORE>  (30) 
-12.089

>  <name>  (30) 
29

>  <ligand_id>  (30) 
29

>  <original_smiles>  (30) 
[H]c1c([H])c([H])c2c(c1[H])C([H])([H])C([H])([H])C([H])([H])C2([H])N([H])C(=O)C1([H])N(C(=O)C([H])(N([H])C(=O)C([H])(N([H])C([H])([H])[H])C([H])([H])[H])C(C([H])([H])[H])(C([H])([H])[H])C([H])([H])[H])C([H])([H])c2c([H])c(OC([H])([H])C([H])([H])C([H])([H])C([H])([H])C([H])(C([H])([H])C([H])([H])N([H])C(=O)N3C([H])([H])C([H])([H])C([H])([H])C([H])(n4nc(-c5c([H])c([H])c(Oc6c([H])c([H])c(F)c([H])c6F)c([H])c5[H])c(C(=O)N([H])[H])c4N([H])[H])C3([H])[H])C(C([H])([H])[H])(C([H])([H])C([H])([H])[H])C([H])([H])C([H])([H])[H])c([H])c([H])c2C1([H])[H]

>  <smiles>  (30) 
[H]c1c([H])c([H])c2c(c1[H])C([H])([H])C([H])([H])C([H])([H])C2([H])N([H])C(=O)C1([H])N(C(=O)C([H])(N([H])C(=O)C([H])(N([H])C([H])([H])[H])C([H])([H])[H])C(C([H])([H])[H])(C([H])([H])[H])C([H])([H])[H])C([H])([H])c2c([H])c(OC([H])([H])C([H])([H])C([H])([H])C([H])([H])C([H])(C([H])([H])C([H])([H])N([H])C(=O)N3C([H])([H])C([H])([H])C([H])([H])C([H])(n4nc(-c5c([H])c([H])c(Oc6c([H])c([H])c(F)c([H])c6F)c([H])c5[H])c(C(=O)N([H])[H])c4N([H])[H])C3([H])[H])C(C([H])([H])[H])(C([H])([H])C([H])([H])[H])C([H])([H])C([H])([H])[H])c([H])c([H])c2C1([H])[H]

$$$$
30:0:0
     RDKit          3D

 87 91  0  0  1  0  0  0  0  0999 V2000
  -29.3560  -22.0120   20.0020 C   0  0  0  0  0  2  0  0  0  0  0  0
  -28.3240  -21.8680   22.3620 C   0  0  0  0  0  1  0  0  0  0  0  0
  -30.1370  -23.5530   21.9320 C   0  0  0  0  0  1  0  0  0  0  0  0
  -30.6900  -21.1350   22.0120 C   0  0  0  0  0  1  0  0  0  0  0  0
  -29.6110  -22.1420   21.5530 C   0  0  2  0  0  0  0  0  0  0  0  0
  -28.3740  -23.5490   19.5900 N   0  0  0  0  0  2  0  0  0  0  0  0
  -27.4170  -23.3280   19.8530 H   0  0  0  0  0  0  0  0  0  0  0  0
  -28.4850  -25.5470   19.8070 O   0  0  0  0  0  1  0  0  0  0  0  0
  -24.8090  -31.9080   23.0800 C   0  0  0  0  0  0  0  0  0  0  0  0
  -27.4610  -26.8280   19.8130 C   0  0  0  0  0  0  0  0  0  0  0  0
  -23.6410  -30.5110   21.4350 C   0  0  0  0  0  3  0  0  0  0  0  0
  -25.1160  -28.9420   19.9070 C   0  0  0  0  0  0  0  0  0  0  0  0
  -26.2170  -30.7070   21.2500 C   0  0  0  0  0  2  0  0  0  0  0  0
  -26.3220  -29.2730   20.5340 C   0  0  0  0  0  0  0  0  0  0  0  0
  -27.4520  -28.2520   20.4540 C   0  0  0  0  0  3  0  0  0  0  0  0
  -26.2080  -26.7960   19.1180 C   0  0  0  0  0  3  0  0  0  0  0  0
  -25.1130  -27.7370   19.1720 C   0  0  0  0  0  3  0  0  0  0  0  0
  -23.8750  -29.8610   20.0360 C   0  0  0  0  0  2  0  0  0  0  0  0
  -24.9150  -31.0820   21.9730 N   0  0  0  0  0  0  0  0  0  0  0  0
  -23.7180  -32.1410   23.6300 O   0  0  0  0  0  0  0  0  0  0  0  0
  -22.9870  -29.4830   22.4020 C   0  0  0  0  0  0  0  0  0  0  0  0
  -21.6700  -29.2250   22.2760 N   0  0  0  0  0  0  0  0  0  0  0  0
  -23.6840  -28.9130   23.2440 O   0  0  0  0  0  0  0  0  0  0  0  0
  -21.1470  -29.7390   21.5820 H   0  0  0  0  0  0  0  0  0  0  0  0
  -18.4180  -27.6520   22.7310 C   0  0  0  0  0  0  0  0  0  0  0  0
  -20.9240  -28.2120   23.0390 C   0  0  0  0  0  3  0  0  0  0  0  0
  -21.1940  -26.7950   22.4820 C   0  0  0  0  0  2  0  0  0  0  0  0
  -20.1590  -26.3470   21.4430 C   0  0  0  0  0  2  0  0  0  0  0  0
  -18.7580  -26.3320   22.0590 C   0  0  0  0  0  2  0  0  0  0  0  0
  -19.4320  -28.5420   23.1740 C   0  0  0  0  0  0  0  0  0  0  0  0
  -19.0540  -29.7650   23.7670 C   0  0  0  0  0  3  0  0  0  0  0  0
  -17.6950  -30.1050   23.9180 C   0  0  0  0  0  3  0  0  0  0  0  0
  -16.6970  -29.2160   23.4850 C   0  0  0  0  0  3  0  0  0  0  0  0
  -17.0580  -27.9920   22.8980 C   0  0  0  0  0  3  0  0  0  0  0  0
  -26.0500  -32.6140   23.7090 C   0  0  0  0  0  3  0  0  0  0  0  0
  -26.6040  -31.8620   24.9840 C   0  0  1  0  0  0  0  0  0  0  0  0
  -25.5320  -31.5800   26.0640 C   0  0  0  0  0  1  0  0  0  0  0  0
  -27.2380  -30.5090   24.6000 C   0  0  0  0  0  1  0  0  0  0  0  0
  -27.7300  -32.6960   25.6380 C   0  0  0  0  0  1  0  0  0  0  0  0
  -25.6670  -33.9950   24.0830 N   0  0  0  0  0  0  0  0  0  0  0  0
  -25.9570  -35.1000   23.3840 C   0  0  0  0  0  0  0  0  0  0  0  0
  -26.6250  -35.0690   22.3480 O   0  0  0  0  0  0  0  0  0  0  0  0
  -25.0670  -34.0860   24.8880 H   0  0  0  0  0  0  0  0  0  0  0  0
  -24.1560  -36.8520   23.1490 C   0  0  0  0  0  1  0  0  0  0  0  0
  -25.4300  -36.4540   23.9130 C   0  0  0  0  0  3  0  0  0  0  0  0
  -27.5420  -37.4000   24.7410 C   0  0  0  0  0  1  0  0  0  0  0  0
  -26.4190  -37.5530   23.8220 N   0  0  0  0  0  0  0  0  0  0  0  0
  -25.9770  -38.4500   24.0050 H   0  0  0  0  0  0  0  0  0  0  0  0
  -29.6160  -19.9310   19.5200 C   0  0  0  0  0 15  0  0  0  0  0  0
  -30.5380  -16.5940   20.0260 C   0  0  0  0  0  0  0  0  0  0  0  0
  -30.8370  -13.8850   19.4660 C   0  0  0  0  0  2  0  0  0  0  0  0
  -30.0580  -13.2080   18.2840 C   0  0  0  0  0  2  0  0  0  0  0  0
  -28.6470  -12.7840   18.7090 C   0  0  0  0  0  2  0  0  0  0  0  0
  -28.0290  -13.8520   19.6340 C   0  0  0  0  0  3  0  0  0  0  0  0
  -28.9790  -14.4020   20.7360 C   0  0  0  0  0  2  0  0  0  0  0  0
  -30.1020  -15.1360   20.0680 N   0  0  0  0  0  0  0  0  0  0  0  0
  -31.7730  -16.4720   19.8430 O   0  0  0  0  0  0  0  0  0  0  0  0
  -29.7620  -18.0660   20.0350 N   0  0  0  0  0  2  0  0  0  0  0  0
  -28.8370  -17.8200   20.3600 H   0  0  0  0  0  0  0  0  0  0  0  0
  -25.6760  -14.3700   20.3960 C   0  0  0  0  0  0  0  0  0  0  0  0
  -24.6070  -13.5980   20.7410 C   0  0  0  0  0  0  0  0  0  0  0  0
  -25.0600  -12.2440   20.6840 C   0  0  0  0  0  0  0  0  0  0  0  0
  -26.7120  -13.4940   20.1380 N   0  0  0  0  0  0  0  0  0  0  0  0
  -26.3560  -12.2020   20.3760 N   0  0  0  0  0  0  0  0  0  0  0  0
  -24.3060  -10.9900   20.8450 C   0  0  0  0  0  0  0  0  0  0  0  0
  -24.6870  -10.0090   21.7870 C   0  0  0  0  0  3  0  0  0  0  0  0
  -23.9270   -8.8300   21.9410 C   0  0  0  0  0  3  0  0  0  0  0  0
  -22.7690   -8.6220   21.1540 C   0  0  0  0  0  0  0  0  0  0  0  0
  -22.4060   -9.5920   20.2030 C   0  0  0  0  0  3  0  0  0  0  0  0
  -23.1690  -10.7600   20.0450 C   0  0  0  0  0  3  0  0  0  0  0  0
  -21.9870   -7.4940   21.2140 O   0  0  0  0  0  0  0  0  0  0  0  0
  -21.8760   -6.7550   22.3640 C   0  0  0  0  0  0  0  0  0  0  0  0
  -21.3720   -7.3120   23.5610 C   0  0  0  0  0  3  0  0  0  0  0  0
  -21.2060   -6.5000   24.6990 C   0  0  0  0  0  3  0  0  0  0  0  0
  -21.5370   -5.1310   24.6460 C   0  0  0  0  0  0  0  0  0  0  0  0
  -22.0370   -4.5760   23.4540 C   0  0  0  0  0  3  0  0  0  0  0  0
  -22.2020   -5.3850   22.3160 C   0  0  0  0  0  0  0  0  0  0  0  0
  -22.6640   -4.8390   21.1650 F   0  0  0  0  0  0  0  0  0  0  0  0
  -21.3720   -4.3490   25.7380 F   0  0  0  0  0  0  0  0  0  0  0  0
  -23.2140  -14.0920   20.9960 C   0  0  0  0  0  0  0  0  0  0  0  0
  -22.4590  -13.4050   21.8430 N   0  0  0  0  0  0  0  0  0  0  0  0
  -22.8060  -15.1310   20.4790 O   0  0  0  0  0  0  0  0  0  0  0  0
  -22.8040  -12.5690   22.2920 H   0  0  0  0  0  0  0  0  0  0  0  0
  -21.5220  -13.7240   22.0490 H   0  0  0  0  0  0  0  0  0  0  0  0
  -25.8510  -15.7450   20.2480 N   0  0  0  0  0  0  0  0  0  0  0  0
  -25.0760  -16.3880   20.3620 H   0  0  0  0  0  0  0  0  0  0  0  0
  -26.6950  -16.1900   19.9090 H   0  0  0  0  0  0  0  0  0  0  0  0
  1  5  1  0
  5  3  1  6
  5  4  1  0
  5  2  1  0
  6  7  1  0
  6  1  1  0
  8 10  1  0
  9 20  2  0
 10 15  1  0
 11 19  1  0
 11 21  1  0
 12 18  1  0
 12 14  1  0
 13 19  1  0
 14 13  1  0
 15 14  2  0
 16 17  1  0
 16 10  2  0
 17 12  2  0
 18 11  1  0
 19  9  1  0
 21 23  2  0
 22 21  1  0
 24 22  1  0
 25 34  2  0
 25 30  1  0
 26 22  1  0
 26 30  1  0
 27 26  1  0
 28 29  1  0
 28 27  1  0
 29 25  1  0
 30 31  2  0
 31 32  1  0
 33 32  2  0
 34 33  1  0
 35  9  1  0
 35 40  1  0
 35 36  1  0
 36 39  1  1
 36 37  1  0
 38 36  1  0
 40 43  1  0
 41 45  1  0
 41 40  1  0
 42 41  2  0
 45 44  1  0
 47 45  1  0
 47 48  1  0
 47 46  1  0
 50 58  1  0
 50 56  1  0
 51 56  1  0
 52 53  1  0
 52 51  1  0
 54 53  1  0
 54 63  1  0
 54 55  1  0
 56 55  1  0
 57 50  2  0
 58 59  1  0
 60 61  2  0
 61 80  1  0
 62 61  1  0
 62 65  1  0
 63 64  1  0
 63 60  1  0
 64 62  2  0
 65 66  1  0
 66 67  2  0
 68 71  1  0
 68 67  1  0
 69 68  2  0
 70 69  1  0
 70 65  2  0
 71 72  1  0
 72 73  1  0
 73 74  2  0
 75 74  1  0
 75 79  1  0
 76 75  2  0
 77 72  2  0
 77 76  1  0
 78 77  1  0
 80 81  1  0
 81 84  1  0
 81 83  1  0
 82 80  2  0
 85 86  1  0
 85 60  1  0
 87 85  1  0
M  ISO  4   6 101   8 101  50 100  58 100
M  END
>  <TORSDO>  (31) 
F 19

>  <SCORE>  (31) 
-14.940

>  <name>  (31) 
30

>  <ligand_id>  (31) 
30

>  <original_smiles>  (31) 
[H]c1c([H])c([H])c2c(c1[H])C([H])([H])C([H])([H])C([H])([H])C2([H])N([H])C(=O)C1([H])N(C(=O)C([H])(N([H])C(=O)C([H])(N([H])C([H])([H])[H])C([H])([H])[H])C(C([H])([H])[H])(C([H])([H])[H])C([H])([H])[H])C([H])([H])c2c([H])c(ON([H])C([H])(C([H])([H])N([H])C(=O)N3C([H])([H])C([H])([H])C([H])([H])C([H])(n4nc(-c5c([H])c([H])c(Oc6c([H])c([H])c(F)c([H])c6F)c([H])c5[H])c(C(=O)N([H])[H])c4N([H])[H])C3([H])[H])C(C([H])([H])[H])(C([H])([H])[H])C([H])([H])[H])c([H])c([H])c2C1([H])[H]

>  <smiles>  (31) 
[H]c1c([H])c([H])c2c(c1[H])C([H])([H])C([H])([H])C([H])([H])C2([H])N([H])C(=O)C1([H])N(C(=O)C([H])(N([H])C(=O)C([H])(N([H])C([H])([H])[H])C([H])([H])[H])C(C([H])([H])[H])(C([H])([H])[H])C([H])([H])[H])C([H])([H])c2c([H])c(ON([H])C([H])(C([H])([H])N([H])C(=O)N3C([H])([H])C([H])([H])C([H])([H])C([H])(n4nc(-c5c([H])c([H])c(Oc6c([H])c([H])c(F)c([H])c6F)c([H])c5[H])c(C(=O)N([H])[H])c4N([H])[H])C3([H])[H])C(C([H])([H])[H])(C([H])([H])[H])C([H])([H])[H])c([H])c([H])c2C1([H])[H]

$$$$
31:0:0
     RDKit          3D

 92 99  0  0  1  0  0  0  0  0999 V2000
  -29.4650  -21.7520   20.6130 C   0  0  0  0  0  2  0  0  0  0  0  0
  -28.6840  -22.9520   20.2110 N   0  0  0  0  0  4  0  0  0  0  0  0
  -28.6040  -22.9520   19.2060 H   0  0  0  0  0  0  0  0  0  0  0  0
  -27.7540  -22.8370   20.5850 H   0  0  0  0  0  0  0  0  0  0  0  0
  -29.1930  -24.2960   20.6290 C   0  0  0  0  0  2  0  0  0  0  0  0
  -28.0470  -25.3410   20.7240 C   0  0  0  0  0  2  0  0  0  0  0  0
  -28.2910  -26.6370   20.1270 O   0  0  0  0  0  0  0  0  0  0  0  0
  -24.5450  -31.8780   23.1770 C   0  0  0  0  0  0  0  0  0  0  0  0
  -27.1590  -27.4290   20.0770 C   0  0  0  0  0  0  0  0  0  0  0  0
  -23.3270  -30.4820   21.5410 C   0  0  0  0  0  3  0  0  0  0  0  0
  -24.7700  -28.9540   20.0970 C   0  0  0  0  0  0  0  0  0  0  0  0
  -25.8560  -30.8340   21.3340 C   0  0  0  0  0  2  0  0  0  0  0  0
  -25.9350  -29.4690   20.6840 C   0  0  0  0  0  0  0  0  0  0  0  0
  -27.1340  -28.7150   20.6690 C   0  0  0  0  0  3  0  0  0  0  0  0
  -25.9820  -26.9510   19.4530 C   0  0  0  0  0  3  0  0  0  0  0  0
  -24.7910  -27.6960   19.4760 C   0  0  0  0  0  3  0  0  0  0  0  0
  -23.5270  -29.8120   20.1580 C   0  0  0  0  0  2  0  0  0  0  0  0
  -24.5930  -31.0780   22.0740 N   0  0  0  0  0  0  0  0  0  0  0  0
  -23.4680  -32.1490   23.7260 O   0  0  0  0  0  0  0  0  0  0  0  0
  -22.6820  -29.4570   22.5020 C   0  0  0  0  0  0  0  0  0  0  0  0
  -21.3530  -29.2860   22.3890 N   0  0  0  0  0  0  0  0  0  0  0  0
  -23.3740  -28.8200   23.3020 O   0  0  0  0  0  0  0  0  0  0  0  0
  -20.8570  -29.8540   21.7120 H   0  0  0  0  0  0  0  0  0  0  0  0
  -17.9780  -28.1150   22.9230 C   0  0  0  0  0  0  0  0  0  0  0  0
  -20.5400  -28.3490   23.1660 C   0  0  0  0  0  3  0  0  0  0  0  0
  -20.6240  -26.9210   22.5780 C   0  0  0  0  0  2  0  0  0  0  0  0
  -19.5080  -26.6160   21.5750 C   0  0  0  0  0  2  0  0  0  0  0  0
  -18.1360  -26.7690   22.2380 C   0  0  0  0  0  2  0  0  0  0  0  0
  -19.1060  -28.8640   23.3450 C   0  0  0  0  0  0  0  0  0  0  0  0
  -18.9070  -30.1270   23.9450 C   0  0  0  0  0  3  0  0  0  0  0  0
  -17.6090  -30.6380   24.1290 C   0  0  0  0  0  3  0  0  0  0  0  0
  -16.4940  -29.8850   23.7250 C   0  0  0  0  0  3  0  0  0  0  0  0
  -16.6790  -28.6260   23.1260 C   0  0  0  0  0  3  0  0  0  0  0  0
  -25.8360  -32.5040   23.7900 C   0  0  0  0  0  3  0  0  0  0  0  0
  -25.5300  -33.9000   24.1280 N   0  0  0  0  0  0  0  0  0  0  0  0
  -25.8710  -34.9570   23.3760 C   0  0  0  0  0  0  0  0  0  0  0  0
  -26.5420  -34.8560   22.3470 O   0  0  0  0  0  0  0  0  0  0  0  0
  -24.9300  -34.0530   24.9250 H   0  0  0  0  0  0  0  0  0  0  0  0
  -24.1540  -36.7600   23.0210 C   0  0  0  0  0  1  0  0  0  0  0  0
  -25.3860  -36.3430   23.8420 C   0  0  0  0  0  3  0  0  0  0  0  0
  -27.5190  -37.2090   24.6980 C   0  0  0  0  0  1  0  0  0  0  0  0
  -26.4250  -37.3900   23.7450 N   0  0  0  0  0  0  0  0  0  0  0  0
  -26.0240  -38.3110   23.8940 H   0  0  0  0  0  0  0  0  0  0  0  0
  -26.3680  -31.7240   25.0560 C   0  0  1  0  0  0  0  0  0  0  0  0
  -25.2860  -31.4800   26.1330 C   0  0  0  0  0  1  0  0  0  0  0  0
  -26.9470  -30.3480   24.6490 C   0  0  0  0  0  1  0  0  0  0  0  0
  -27.5250  -32.5150   25.7100 C   0  0  0  0  0  1  0  0  0  0  0  0
  -28.9170  -20.4480   19.9480 C   0  0  0  0  0  2  0  0  0  0  0  0
  -29.5700  -19.1070   20.4010 C   0  0  0  0  0  2  0  0  0  0  0  0
  -29.2360  -17.9120   19.4560 C   0  0  0  0  0  2  0  0  0  0  0  0
  -30.1770  -16.6620   19.3430 C   0  0  0  0  0  0  0  0  0  0  0  0
  -30.9130  -14.5680   20.5280 C   0  0  0  0  0  0  0  0  0  0  0  0
  -30.6250  -12.3600   19.5170 C   0  0  0  0  0  2  0  0  0  0  0  0
  -29.7390  -12.5570   18.2700 C   0  0  0  0  0  2  0  0  0  0  0  0
  -28.2500  -12.4310   18.6490 C   0  0  0  0  0  2  0  0  0  0  0  0
  -27.8670  -13.3020   19.8750 C   0  0  0  0  0  3  0  0  0  0  0  0
  -28.8870  -13.1420   21.0280 C   0  0  0  0  0  2  0  0  0  0  0  0
  -30.2330  -13.3910   20.4910 N   0  0  0  0  0  0  0  0  0  0  0  0
  -32.1190  -14.6300   20.2960 O   0  0  0  0  0  0  0  0  0  0  0  0
  -30.1360  -15.6750   20.4600 N   0  0  0  0  0  4  0  0  0  0  0  0
  -29.2070  -15.5200   20.8210 H   0  0  0  0  0  0  0  0  0  0  0  0
  -25.4480  -13.9260   20.4780 C   0  0  0  0  0  0  0  0  0  0  0  0
  -24.3640  -13.1620   20.8200 C   0  0  0  0  0  0  0  0  0  0  0  0
  -24.8240  -11.8120   20.8410 C   0  0  0  0  0  0  0  0  0  0  0  0
  -26.5010  -13.0380   20.3120 N   0  0  0  0  0  0  0  0  0  0  0  0
  -26.1260  -11.7630   20.5900 N   0  0  0  0  0  0  0  0  0  0  0  0
  -24.0850  -10.5550   21.0300 C   0  0  0  0  0  0  0  0  0  0  0  0
  -24.4910   -9.5970   21.9860 C   0  0  0  0  0  3  0  0  0  0  0  0
  -23.7560   -8.4040   22.1620 C   0  0  0  0  0  3  0  0  0  0  0  0
  -22.6010   -8.1630   21.3800 C   0  0  0  0  0  0  0  0  0  0  0  0
  -22.2130   -9.1090   20.4150 C   0  0  0  0  0  3  0  0  0  0  0  0
  -22.9500  -10.2930   20.2370 C   0  0  0  0  0  3  0  0  0  0  0  0
  -21.8380   -7.0220   21.4660 O   0  0  0  0  0  0  0  0  0  0  0  0
  -21.7720   -6.2860   22.6200 C   0  0  0  0  0  0  0  0  0  0  0  0
  -21.3480   -6.8520   23.8430 C   0  0  0  0  0  3  0  0  0  0  0  0
  -21.2270   -6.0420   24.9900 C   0  0  0  0  0  3  0  0  0  0  0  0
  -21.5200   -4.6660   24.9160 C   0  0  0  0  0  0  0  0  0  0  0  0
  -21.9390   -4.1000   23.6980 C   0  0  0  0  0  3  0  0  0  0  0  0
  -22.0620   -4.9060   22.5540 C   0  0  0  0  0  0  0  0  0  0  0  0
  -22.4440   -4.3530   21.3770 F   0  0  0  0  0  0  0  0  0  0  0  0
  -21.3980   -3.8870   26.0140 F   0  0  0  0  0  0  0  0  0  0  0  0
  -22.9580  -13.6480   21.0210 C   0  0  0  0  0  0  0  0  0  0  0  0
  -22.1920  -12.9770   21.8770 N   0  0  0  0  0  0  0  0  0  0  0  0
  -22.5450  -14.6590   20.4560 O   0  0  0  0  0  0  0  0  0  0  0  0
  -22.5420  -12.1590   22.3530 H   0  0  0  0  0  0  0  0  0  0  0  0
  -21.2480  -13.2850   22.0540 H   0  0  0  0  0  0  0  0  0  0  0  0
  -25.6210  -15.2920   20.2710 N   0  0  0  0  0  0  0  0  0  0  0  0
  -24.8460  -15.9430   20.3240 H   0  0  0  0  0  0  0  0  0  0  0  0
  -26.4810  -15.7250   19.9590 H   0  0  0  0  0  0  0  0  0  0  0  0
  -31.8940  -16.3270   17.5260 C   0  0  0  0  0  2  0  0  0  0  0  0
  -31.5460  -16.9230   18.6830 C   0  0  0  0  0  0  0  0  0  0  0  0
  -32.5090  -17.8800   19.3590 C   0  0  0  0  0  1  0  0  0  0  0  0
  2  4  1  0
  2  1  1  0
  2  5  1  0
  3  2  1  0
  5  6  1  0
  7  6  1  0
  8 19  2  0
  9  7  1  0
  9 14  1  0
 10 18  1  0
 10 20  1  0
 11 17  1  0
 11 13  1  0
 12 18  1  0
 13 12  1  0
 14 13  2  0
 15 16  1  0
 15  9  2  0
 16 11  2  0
 17 10  1  0
 18  8  1  0
 20 22  2  0
 21 20  1  0
 23 21  1  0
 24 33  2  0
 24 29  1  0
 25 21  1  0
 25 29  1  0
 26 25  1  0
 27 28  1  0
 27 26  1  0
 28 24  1  0
 29 30  2  0
 30 31  1  0
 32 31  2  0
 33 32  1  0
 34  8  1  0
 34 35  1  0
 34 44  1  0
 35 38  1  0
 36 40  1  0
 36 35  1  0
 37 36  2  0
 40 39  1  0
 42 40  1  0
 42 43  1  0
 42 41  1  0
 44 47  1  1
 44 45  1  0
 46 44  1  0
 48 49  1  0
 48  1  1  0
 50 49  1  0
 51 50  1  0
 51 60  2  0
 53 58  1  0
 54 55  1  0
 54 53  1  0
 56 55  1  0
 56 65  1  0
 56 57  1  0
 58 52  1  0
 58 57  1  0
 59 52  2  0
 60 52  1  0
 60 61  1  0
 62 63  2  0
 63 64  1  0
 63 82  1  0
 64 67  1  0
 65 62  1  0
 65 66  1  0
 66 64  2  0
 67 68  1  0
 68 69  2  0
 70 73  1  0
 70 69  1  0
 71 70  2  0
 72 71  1  0
 72 67  2  0
 73 74  1  0
 74 75  1  0
 75 76  2  0
 77 76  1  0
 77 81  1  0
 78 77  2  0
 79 74  2  0
 79 78  1  0
 80 79  1  0
 82 83  1  0
 83 86  1  0
 83 85  1  0
 84 82  2  0
 87 88  1  0
 87 62  1  0
 89 87  1  0
 90 91  2  0
 91 51  1  0
 91 92  1  0
M  ISO  4   6 101   7 101  52 100  60 100
M  END
>  <TORSDO>  (32) 
F 24

>  <SCORE>  (32) 
-12.352

>  <name>  (32) 
31

>  <ligand_id>  (32) 
31

>  <original_smiles>  (32) 
[H]C([H])=C(C([H])([H])[H])C([H])(N([H])C(=O)N1C([H])([H])C([H])([H])C([H])([H])C([H])(n2nc(-c3c([H])c([H])c(Oc4c([H])c([H])c(F)c([H])c4F)c([H])c3[H])c(C(=O)N([H])[H])c2N([H])[H])C1([H])[H])C([H])([H])C([H])([H])C([H])([H])C([H])([H])[N+]([H])([H])C([H])([H])C([H])([H])Oc1c([H])c([H])c2c(c1[H])C([H])([H])N(C(=O)C([H])(N([H])C(=O)C([H])(N([H])C([H])([H])[H])C([H])([H])[H])C(C([H])([H])[H])(C([H])([H])[H])C([H])([H])[H])C([H])(C(=O)N([H])C1([H])c3c([H])c([H])c([H])c([H])c3C([H])([H])C([H])([H])C1([H])[H])C2([H])[H]

>  <smiles>  (32) 
[H]C([H])=C(C([H])([H])[H])C([H])(N([H])C(=O)N1C([H])([H])C([H])([H])C([H])([H])C([H])(n2nc(-c3c([H])c([H])c(Oc4c([H])c([H])c(F)c([H])c4F)c([H])c3[H])c(C(=O)N([H])[H])c2N([H])[H])C1([H])[H])C([H])([H])C([H])([H])C([H])([H])C([H])([H])[N+]([H])([H])C([H])([H])C([H])([H])Oc1c([H])c([H])c2c(c1[H])C([H])([H])N(C(=O)C([H])(N([H])C(=O)C([H])(N([H])C([H])([H])[H])C([H])([H])[H])C(C([H])([H])[H])(C([H])([H])[H])C([H])([H])[H])C([H])(C(=O)N([H])C1([H])c3c([H])c([H])c([H])c([H])c3C([H])([H])C([H])([H])C1([H])[H])C2([H])[H]

$$$$
32:0:0
     RDKit          3D

 88 96  0  0  1  0  0  0  0  0999 V2000
  -29.2990  -21.9650   20.0710 C   0  0  0  0  0  2  0  0  0  0  0  0
  -26.8390  -22.9100   20.1740 C   0  0  0  0  0  1  0  0  0  0  0  0
  -28.3100  -23.3110   20.3600 C   0  0  0  0  0  3  0  0  0  0  0  0
  -28.5200  -24.8350   19.6760 C   0  0  0  0  0  2  0  0  0  0  0  0
  -28.3330  -26.2520   20.2760 O   0  0  0  0  0  0  0  0  0  0  0  0
  -24.5290  -31.8280   23.1250 C   0  0  0  0  0  0  0  0  0  0  0  0
  -27.2260  -27.1570   20.1460 C   0  0  0  0  0  0  0  0  0  0  0  0
  -23.3640  -30.3920   21.4900 C   0  0  0  0  0  3  0  0  0  0  0  0
  -24.8520  -28.8270   20.0880 C   0  0  0  0  0  0  0  0  0  0  0  0
  -25.9070  -30.7110   21.3360 C   0  0  0  0  0  2  0  0  0  0  0  0
  -26.0130  -29.3150   20.7010 C   0  0  0  0  0  0  0  0  0  0  0  0
  -27.1950  -28.4890   20.7190 C   0  0  0  0  0  3  0  0  0  0  0  0
  -26.0390  -26.7580   19.4960 C   0  0  0  0  0  3  0  0  0  0  0  0
  -24.8760  -27.5620   19.4730 C   0  0  0  0  0  3  0  0  0  0  0  0
  -23.6040  -29.6970   20.1210 C   0  0  0  0  0  2  0  0  0  0  0  0
  -24.6200  -30.9990   22.0390 N   0  0  0  0  0  0  0  0  0  0  0  0
  -23.4350  -32.0960   23.6450 O   0  0  0  0  0  0  0  0  0  0  0  0
  -22.7020  -29.3830   22.4610 C   0  0  0  0  0  0  0  0  0  0  0  0
  -21.3770  -29.1910   22.3320 N   0  0  0  0  0  0  0  0  0  0  0  0
  -23.3820  -28.7740   23.2900 O   0  0  0  0  0  0  0  0  0  0  0  0
  -20.8830  -29.7380   21.6400 H   0  0  0  0  0  0  0  0  0  0  0  0
  -18.0170  -27.9400   22.8320 C   0  0  0  0  0  0  0  0  0  0  0  0
  -20.5690  -28.2480   23.1080 C   0  0  0  0  0  3  0  0  0  0  0  0
  -20.6980  -26.8120   22.5490 C   0  0  0  0  0  2  0  0  0  0  0  0
  -19.6060  -26.4600   21.5330 C   0  0  0  0  0  2  0  0  0  0  0  0
  -18.2190  -26.5880   22.1690 C   0  0  0  0  0  2  0  0  0  0  0  0
  -19.1190  -28.7260   23.2590 C   0  0  0  0  0  0  0  0  0  0  0  0
  -18.8760  -29.9900   23.8390 C   0  0  0  0  0  3  0  0  0  0  0  0
  -17.5620  -30.4700   23.9960 C   0  0  0  0  0  3  0  0  0  0  0  0
  -16.4730  -29.6820   23.5850 C   0  0  0  0  0  3  0  0  0  0  0  0
  -16.7020  -28.4200   23.0090 C   0  0  0  0  0  3  0  0  0  0  0  0
  -25.7930  -32.4940   23.7520 C   0  0  0  0  0  3  0  0  0  0  0  0
  -26.3150  -31.7450   25.0410 C   0  0  1  0  0  0  0  0  0  0  0  0
  -25.2160  -31.4950   26.1010 C   0  0  0  0  0  1  0  0  0  0  0  0
  -26.9300  -30.3770   24.6700 C   0  0  0  0  0  1  0  0  0  0  0  0
  -27.4420  -32.5690   25.7070 C   0  0  0  0  0  1  0  0  0  0  0  0
  -25.4510  -33.8880   24.0750 N   0  0  0  0  0  0  0  0  0  0  0  0
  -25.7650  -34.9480   23.3190 C   0  0  0  0  0  0  0  0  0  0  0  0
  -26.4420  -34.8570   22.2910 O   0  0  0  0  0  0  0  0  0  0  0  0
  -24.8470  -34.0310   24.8720 H   0  0  0  0  0  0  0  0  0  0  0  0
  -24.0040  -36.7100   22.9580 C   0  0  0  0  0  1  0  0  0  0  0  0
  -25.2500  -36.3280   23.7730 C   0  0  0  0  0  3  0  0  0  0  0  0
  -27.3650  -37.2540   24.6100 C   0  0  0  0  0  1  0  0  0  0  0  0
  -26.2610  -37.4020   23.6650 N   0  0  0  0  0  0  0  0  0  0  0  0
  -25.8360  -38.3120   23.8210 H   0  0  0  0  0  0  0  0  0  0  0  0
  -28.8650  -20.3400   19.9180 C   0  0  0  0  0  2  0  0  0  0  0  0
  -30.6100  -14.9220   19.9190 C   0  0  0  0  0  0  0  0  0  0  0  0
  -30.3770  -12.6090   18.9110 C   0  0  0  0  0  2  0  0  0  0  0  0
  -29.3630  -12.6430   17.7450 C   0  0  0  0  0  2  0  0  0  0  0  0
  -27.9310  -12.4310   18.2720 C   0  0  0  0  0  2  0  0  0  0  0  0
  -27.6260  -13.3160   19.5080 C   0  0  0  0  0  3  0  0  0  0  0  0
  -28.7550  -13.2530   20.5580 C   0  0  0  0  0  2  0  0  0  0  0  0
  -29.9940  -13.6700   19.8890 N   0  0  0  0  0  0  0  0  0  0  0  0
  -31.7230  -15.0120   19.3880 O   0  0  0  0  0  0  0  0  0  0  0  0
  -30.4180  -17.5250   22.3470 C   0  0  0  0  0  2  0  0  0  0  0  0
  -29.7300  -18.8070   21.8490 C   0  0  0  0  0  2  0  0  0  0  0  0
  -29.7420  -16.2460   21.8090 C   0  0  0  0  0  2  0  0  0  0  0  0
  -29.5830  -17.4530   19.6370 C   0  0  0  0  0  2  0  0  0  0  0  0
  -29.7760  -18.9770   20.3210 C   0  0  0  0  0  3  0  0  0  0  0  0
  -29.9180  -16.0910   20.3600 N   0  0  0  0  0  0  0  0  0  0  0  0
  -25.3150  -13.8960   20.4450 C   0  0  0  0  0  0  0  0  0  0  0  0
  -24.2710  -13.1190   20.8650 C   0  0  0  0  0  0  0  0  0  0  0  0
  -24.7140  -11.7650   20.7480 C   0  0  0  0  0  0  0  0  0  0  0  0
  -26.3230  -13.0160   20.0930 N   0  0  0  0  0  0  0  0  0  0  0  0
  -25.9760  -11.7260   20.3400 N   0  0  0  0  0  0  0  0  0  0  0  0
  -23.9870  -10.5040   20.9490 C   0  0  0  0  0  0  0  0  0  0  0  0
  -24.4370   -9.5290   21.8660 C   0  0  0  0  0  3  0  0  0  0  0  0
  -23.7100   -8.3330   22.0530 C   0  0  0  0  0  3  0  0  0  0  0  0
  -22.5200   -8.1040   21.3250 C   0  0  0  0  0  0  0  0  0  0  0  0
  -22.0890   -9.0680   20.3950 C   0  0  0  0  0  3  0  0  0  0  0  0
  -22.8160  -10.2550   20.2050 C   0  0  0  0  0  3  0  0  0  0  0  0
  -21.7620   -6.9620   21.4230 O   0  0  0  0  0  0  0  0  0  0  0  0
  -21.6870   -6.2460   22.5900 C   0  0  0  0  0  0  0  0  0  0  0  0
  -21.2380   -6.8280   23.7960 C   0  0  0  0  0  3  0  0  0  0  0  0
  -21.1110   -6.0380   24.9540 C   0  0  0  0  0  3  0  0  0  0  0  0
  -21.4220   -4.6660   24.9100 C   0  0  0  0  0  0  0  0  0  0  0  0
  -21.8640   -4.0830   23.7090 C   0  0  0  0  0  3  0  0  0  0  0  0
  -21.9930   -4.8700   22.5520 C   0  0  0  0  0  0  0  0  0  0  0  0
  -22.3980   -4.2990   21.3930 F   0  0  0  0  0  0  0  0  0  0  0  0
  -21.2930   -3.9040   26.0210 F   0  0  0  0  0  0  0  0  0  0  0  0
  -22.9050  -13.6000   21.2580 C   0  0  0  0  0  0  0  0  0  0  0  0
  -22.2470  -12.8980   22.1730 N   0  0  0  0  0  0  0  0  0  0  0  0
  -22.4330  -14.6320   20.7860 O   0  0  0  0  0  0  0  0  0  0  0  0
  -22.6440  -12.0630   22.5770 H   0  0  0  0  0  0  0  0  0  0  0  0
  -21.3310  -13.2020   22.4740 H   0  0  0  0  0  0  0  0  0  0  0  0
  -25.4870  -15.2700   20.3090 N   0  0  0  0  0  0  0  0  0  0  0  0
  -24.7500  -15.9350   20.5100 H   0  0  0  0  0  0  0  0  0  0  0  0
  -26.3310  -15.7080   19.9620 H   0  0  0  0  0  0  0  0  0  0  0  0
  1  3  1  0
  3  2  1  0
  4  5  1  0
  4  3  1  0
  6 17  2  0
  7  5  1  0
  7 12  1  0
  8 16  1  0
  8 18  1  0
  9 15  1  0
  9 11  1  0
 10 16  1  0
 11 12  2  0
 11 10  1  0
 13  7  2  0
 14 13  1  0
 14  9  2  0
 15  8  1  0
 16  6  1  0
 18 20  2  0
 19 18  1  0
 21 19  1  0
 22 31  2  0
 22 27  1  0
 23 19  1  0
 23 27  1  0
 24 23  1  0
 25 26  1  0
 25 24  1  0
 26 22  1  0
 27 28  2  0
 28 29  1  0
 30 29  2  0
 31 30  1  0
 32  6  1  0
 32 37  1  0
 32 33  1  0
 33 36  1  1
 33 34  1  0
 35 33  1  0
 37 40  1  0
 38 42  1  0
 38 37  1  0
 39 38  2  0
 42 41  1  0
 44 42  1  0
 44 45  1  0
 44 43  1  0
 46  1  1  0
 47 60  1  0
 48 53  1  0
 49 50  1  0
 49 48  1  0
 51 50  1  0
 51 64  1  0
 51 52  1  0
 53 47  1  0
 53 52  1  0
 54 47  2  0
 56 55  1  0
 57 55  1  0
 58 59  1  0
 58 60  1  0
 59 46  1  0
 59 56  1  0
 60 57  1  0
 61 62  2  0
 62 81  1  0
 63 62  1  0
 63 66  1  0
 64 65  1  0
 64 61  1  0
 65 63  2  0
 66 67  1  0
 67 68  2  0
 69 72  1  0
 69 68  1  0
 70 69  2  0
 71 70  1  0
 71 66  2  0
 72 73  1  0
 73 74  1  0
 74 75  2  0
 76 75  1  0
 76 80  1  0
 77 76  2  0
 78 73  2  0
 78 77  1  0
 79 78  1  0
 81 82  1  0
 82 85  1  0
 82 84  1  0
 83 81  2  0
 86 61  1  0
 86 87  1  0
 88 86  1  0
M  ISO  4   4 101   5 101  47 100  60 100
M  END
>  <TORSDO>  (33) 
F 19

>  <SCORE>  (33) 
-13.642

>  <name>  (33) 
32

>  <ligand_id>  (33) 
32

>  <original_smiles>  (33) 
[H]c1c([H])c([H])c2c(c1[H])C([H])([H])C([H])([H])C([H])([H])C2([H])N([H])C(=O)C1([H])N(C(=O)C([H])(N([H])C(=O)C([H])(N([H])C([H])([H])[H])C([H])([H])[H])C(C([H])([H])[H])(C([H])([H])[H])C([H])([H])[H])C([H])([H])c2c([H])c(OC([H])([H])C([H])(C([H])([H])[H])C([H])([H])C([H])([H])C3([H])C([H])([H])N(C(=O)N4C([H])([H])C([H])([H])C([H])([H])C([H])(n5nc(-c6c([H])c([H])c(Oc7c([H])c([H])c(F)c([H])c7F)c([H])c6[H])c(C(=O)N([H])[H])c5N([H])[H])C4([H])[H])C([H])([H])C([H])([H])C3([H])[H])c([H])c([H])c2C1([H])[H]

>  <smiles>  (33) 
[H]c1c([H])c([H])c2c(c1[H])C([H])([H])C([H])([H])C([H])([H])C2([H])N([H])C(=O)C1([H])N(C(=O)C([H])(N([H])C(=O)C([H])(N([H])C([H])([H])[H])C([H])([H])[H])C(C([H])([H])[H])(C([H])([H])[H])C([H])([H])[H])C([H])([H])c2c([H])c(OC([H])([H])C([H])(C([H])([H])[H])C([H])([H])C([H])([H])C3([H])C([H])([H])N(C(=O)N4C([H])([H])C([H])([H])C([H])([H])C([H])(n5nc(-c6c([H])c([H])c(Oc7c([H])c([H])c(F)c([H])c7F)c([H])c6[H])c(C(=O)N([H])[H])c5N([H])[H])C4([H])[H])C([H])([H])C([H])([H])C3([H])[H])c([H])c([H])c2C1([H])[H]

$$$$
33:0:0
     RDKit          3D

 87 94  0  0  1  0  0  0  0  0999 V2000
  -29.6670  -22.3050   18.7950 C   0  0  0  0  0  1  0  0  0  0  0  0
  -28.9200  -22.1430   20.1200 C   0  0  0  0  0  3  0  0  0  0  0  0
  -28.6840  -20.2290   20.3040 C   0  0  0  0  0  2  0  0  0  0  0  0
  -29.4990  -18.5130   19.8740 C   0  0  0  0  0  0  0  0  0  0  0  0
  -30.2810  -15.5030   20.2050 C   0  0  0  0  0  0  0  0  0  0  0  0
  -30.3140  -12.9920   19.3770 C   0  0  0  0  0  2  0  0  0  0  0  0
  -29.4030  -12.7370   18.1470 C   0  0  0  0  0  2  0  0  0  0  0  0
  -27.9730  -12.4130   18.6000 C   0  0  0  0  0  2  0  0  0  0  0  0
  -27.5150  -13.3600   19.7370 C   0  0  0  0  0  3  0  0  0  0  0  0
  -28.5660  -13.5680   20.8520 C   0  0  0  0  0  2  0  0  0  0  0  0
  -29.7600  -14.1490   20.2050 N   0  0  0  0  0  0  0  0  0  0  0  0
  -31.4780  -15.4740   19.8760 O   0  0  0  0  0  0  0  0  0  0  0  0
  -29.5220  -16.8310   20.3830 N   0  0  0  0  0  4  0  0  0  0  0  0
  -28.6460  -16.6050   20.8300 H   0  0  0  0  0  0  0  0  0  0  0  0
  -25.1550  -13.8870   20.5080 C   0  0  0  0  0  0  0  0  0  0  0  0
  -24.1070  -13.1070   20.8990 C   0  0  0  0  0  0  0  0  0  0  0  0
  -24.5770  -11.7570   20.8510 C   0  0  0  0  0  0  0  0  0  0  0  0
  -26.1990  -13.0200   20.2510 N   0  0  0  0  0  0  0  0  0  0  0  0
  -25.8650  -11.7290   20.5190 N   0  0  0  0  0  0  0  0  0  0  0  0
  -23.8520  -10.4960   21.0450 C   0  0  0  0  0  0  0  0  0  0  0  0
  -24.3020   -9.5200   21.9610 C   0  0  0  0  0  3  0  0  0  0  0  0
  -23.5780   -8.3210   22.1480 C   0  0  0  0  0  3  0  0  0  0  0  0
  -22.3840   -8.0920   21.4220 C   0  0  0  0  0  0  0  0  0  0  0  0
  -21.9510   -9.0590   20.4980 C   0  0  0  0  0  3  0  0  0  0  0  0
  -22.6740  -10.2480   20.3090 C   0  0  0  0  0  3  0  0  0  0  0  0
  -21.6260   -6.9490   21.5220 O   0  0  0  0  0  0  0  0  0  0  0  0
  -21.6160   -6.1890   22.6630 C   0  0  0  0  0  0  0  0  0  0  0  0
  -21.2320   -6.7240   23.9120 C   0  0  0  0  0  3  0  0  0  0  0  0
  -21.1680   -5.8900   25.0470 C   0  0  0  0  0  3  0  0  0  0  0  0
  -21.4710   -4.5200   24.9340 C   0  0  0  0  0  0  0  0  0  0  0  0
  -21.8480   -3.9830   23.6910 C   0  0  0  0  0  3  0  0  0  0  0  0
  -21.9160   -4.8150   22.5590 C   0  0  0  0  0  0  0  0  0  0  0  0
  -22.2540   -4.2870   21.3580 F   0  0  0  0  0  0  0  0  0  0  0  0
  -21.4070   -3.7180   26.0230 F   0  0  0  0  0  0  0  0  0  0  0  0
  -22.7120  -13.5770   21.1910 C   0  0  0  0  0  0  0  0  0  0  0  0
  -21.9960  -12.8850   22.0710 N   0  0  0  0  0  0  0  0  0  0  0  0
  -22.2670  -14.6000   20.6750 O   0  0  0  0  0  0  0  0  0  0  0  0
  -22.3610  -12.0530   22.5110 H   0  0  0  0  0  0  0  0  0  0  0  0
  -21.0630  -13.1920   22.3020 H   0  0  0  0  0  0  0  0  0  0  0  0
  -25.3140  -15.2600   20.3210 N   0  0  0  0  0  0  0  0  0  0  0  0
  -24.5500  -15.9180   20.4270 H   0  0  0  0  0  0  0  0  0  0  0  0
  -26.1440  -15.6790   19.9270 H   0  0  0  0  0  0  0  0  0  0  0  0
  -29.7530  -19.1190   17.3610 C   0  0  0  0  0  1  0  0  0  0  0  0
  -31.8320  -19.1410   18.9580 C   0  0  0  0  0  1  0  0  0  0  0  0
  -30.4360  -18.5730   18.6380 C   0  0  0  0  0  3  0  0  0  0  0  0
  -27.9050  -23.7860   20.1990 C   0  0  0  0  0  2  0  0  0  0  0  0
  -28.1010  -25.5260   20.2190 O   0  0  0  0  0  0  0  0  0  0  0  0
  -24.5850  -31.8070   23.1340 C   0  0  0  0  0  0  0  0  0  0  0  0
  -27.1190  -26.7200   20.1770 C   0  0  0  0  0  0  0  0  0  0  0  0
  -23.4070  -30.3870   21.5110 C   0  0  0  0  0  3  0  0  0  0  0  0
  -24.8600  -28.7380   20.1130 C   0  0  0  0  0  0  0  0  0  0  0  0
  -25.9860  -30.5420   21.3870 C   0  0  0  0  0  2  0  0  0  0  0  0
  -26.0550  -29.1070   20.7440 C   0  0  0  0  0  0  0  0  0  0  0  0
  -27.1740  -28.1200   20.7390 C   0  0  0  0  0  3  0  0  0  0  0  0
  -25.8870  -26.5560   19.4980 C   0  0  0  0  0  3  0  0  0  0  0  0
  -24.8090  -27.4930   19.4710 C   0  0  0  0  0  3  0  0  0  0  0  0
  -23.6550  -29.6840   20.1470 C   0  0  0  0  0  2  0  0  0  0  0  0
  -24.6850  -30.9440   22.0670 N   0  0  0  0  0  0  0  0  0  0  0  0
  -23.4880  -32.1100   23.6340 O   0  0  0  0  0  0  0  0  0  0  0  0
  -22.6950  -29.4120   22.4890 C   0  0  0  0  0  0  0  0  0  0  0  0
  -21.3590  -29.2730   22.3860 N   0  0  0  0  0  0  0  0  0  0  0  0
  -23.3530  -28.7810   23.3200 O   0  0  0  0  0  0  0  0  0  0  0  0
  -20.8750  -29.8360   21.7010 H   0  0  0  0  0  0  0  0  0  0  0  0
  -17.9640  -28.0970   22.9380 C   0  0  0  0  0  0  0  0  0  0  0  0
  -20.5300  -28.3440   23.1660 C   0  0  0  0  0  3  0  0  0  0  0  0
  -20.6080  -26.9100   22.5900 C   0  0  0  0  0  2  0  0  0  0  0  0
  -19.4910  -26.5980   21.5910 C   0  0  0  0  0  2  0  0  0  0  0  0
  -18.1200  -26.7500   22.2530 C   0  0  0  0  0  2  0  0  0  0  0  0
  -19.0930  -28.8530   23.3510 C   0  0  0  0  0  0  0  0  0  0  0  0
  -18.8850  -30.1100   23.9600 C   0  0  0  0  0  3  0  0  0  0  0  0
  -17.5840  -30.6140   24.1480 C   0  0  0  0  0  3  0  0  0  0  0  0
  -16.4710  -29.8570   23.7460 C   0  0  0  0  0  3  0  0  0  0  0  0
  -16.6620  -28.5970   23.1510 C   0  0  0  0  0  3  0  0  0  0  0  0
  -25.8410  -32.4760   23.7730 C   0  0  0  0  0  3  0  0  0  0  0  0
  -26.3610  -31.7100   25.0500 C   0  0  1  0  0  0  0  0  0  0  0  0
  -25.2720  -31.4710   26.1250 C   0  0  0  0  0  1  0  0  0  0  0  0
  -26.9390  -30.3320   24.6650 C   0  0  0  0  0  1  0  0  0  0  0  0
  -27.5220  -32.5000   25.7030 C   0  0  0  0  0  1  0  0  0  0  0  0
  -25.5000  -33.8680   24.1290 N   0  0  0  0  0  0  0  0  0  0  0  0
  -25.8070  -34.9480   23.3980 C   0  0  0  0  0  0  0  0  0  0  0  0
  -26.4620  -34.8770   22.3550 O   0  0  0  0  0  0  0  0  0  0  0  0
  -24.9150  -33.9920   24.9440 H   0  0  0  0  0  0  0  0  0  0  0  0
  -24.0460  -36.7290   23.1290 C   0  0  0  0  0  1  0  0  0  0  0  0
  -25.3150  -36.3230   23.8970 C   0  0  0  0  0  3  0  0  0  0  0  0
  -27.4580  -37.2280   24.6900 C   0  0  0  0  0  1  0  0  0  0  0  0
  -26.3300  -37.3950   23.7760 N   0  0  0  0  0  0  0  0  0  0  0  0
  -25.9170  -38.3070   23.9500 H   0  0  0  0  0  0  0  0  0  0  0  0
  2  1  1  0
  2 46  1  0
  2  3  1  0
  4  3  1  0
  4 13  2  0
  5 13  1  0
  6 11  1  0
  7  8  1  0
  7  6  1  0
  9  8  1  0
  9 18  1  0
  9 10  1  0
 11  5  1  0
 11 10  1  0
 12  5  2  0
 13 14  1  0
 15 16  2  0
 16 35  1  0
 17 16  1  0
 17 20  1  0
 18 15  1  0
 18 19  1  0
 19 17  2  0
 20 21  1  0
 21 22  2  0
 23 26  1  0
 23 22  1  0
 24 23  2  0
 25 24  1  0
 25 20  2  0
 26 27  1  0
 27 28  1  0
 28 29  2  0
 30 29  1  0
 30 34  1  0
 31 30  2  0
 32 27  2  0
 32 31  1  0
 33 32  1  0
 35 36  1  0
 36 39  1  0
 36 38  1  0
 37 35  2  0
 40 41  1  0
 40 15  1  0
 42 40  1  0
 43 45  1  0
 45 44  1  0
 45  4  1  0
 46 47  1  0
 48 59  2  0
 49 47  1  0
 49 54  1  0
 50 58  1  0
 50 60  1  0
 51 57  1  0
 51 53  1  0
 52 58  1  0
 53 52  1  0
 54 53  2  0
 55 49  2  0
 56 55  1  0
 56 51  2  0
 57 50  1  0
 58 48  1  0
 60 62  2  0
 61 60  1  0
 63 61  1  0
 64 73  2  0
 64 69  1  0
 65 61  1  0
 65 69  1  0
 66 65  1  0
 67 68  1  0
 67 66  1  0
 68 64  1  0
 69 70  2  0
 70 71  1  0
 72 71  2  0
 73 72  1  0
 74 48  1  0
 74 79  1  0
 74 75  1  0
 75 78  1  1
 75 76  1  0
 77 75  1  0
 79 82  1  0
 80 84  1  0
 80 79  1  0
 81 80  2  0
 84 83  1  0
 86 84  1  0
 86 87  1  0
 86 85  1  0
M  ISO  4   5 100  13 100  46 101  47 101
M  END
>  <TORSDO>  (34) 
F 20

>  <SCORE>  (34) 
-16.242

>  <name>  (34) 
33

>  <ligand_id>  (34) 
33

>  <original_smiles>  (34) 
[H]c1c([H])c([H])c2c(c1[H])C([H])([H])C([H])([H])C([H])([H])C2([H])N([H])C(=O)C1([H])N(C(=O)C([H])(N([H])C(=O)C([H])(N([H])C([H])([H])[H])C([H])([H])[H])C(C([H])([H])[H])(C([H])([H])[H])C([H])([H])[H])C([H])([H])c2c([H])c(OC([H])([H])C([H])(C([H])([H])[H])C([H])([H])C([H])(N([H])C(=O)N3C([H])([H])C([H])([H])C([H])([H])C([H])(n4nc(-c5c([H])c([H])c(Oc6c([H])c([H])c(F)c([H])c6F)c([H])c5[H])c(C(=O)N([H])[H])c4N([H])[H])C3([H])[H])C([H])(C([H])([H])[H])C([H])([H])[H])c([H])c([H])c2C1([H])[H]

>  <smiles>  (34) 
[H]c1c([H])c([H])c2c(c1[H])C([H])([H])C([H])([H])C([H])([H])C2([H])N([H])C(=O)C1([H])N(C(=O)C([H])(N([H])C(=O)C([H])(N([H])C([H])([H])[H])C([H])([H])[H])C(C([H])([H])[H])(C([H])([H])[H])C([H])([H])[H])C([H])([H])c2c([H])c(OC([H])([H])C([H])(C([H])([H])[H])C([H])([H])C([H])(N([H])C(=O)N3C([H])([H])C([H])([H])C([H])([H])C([H])(n4nc(-c5c([H])c([H])c(Oc6c([H])c([H])c(F)c([H])c6F)c([H])c5[H])c(C(=O)N([H])[H])c4N([H])[H])C3([H])[H])C([H])(C([H])([H])[H])C([H])([H])[H])c([H])c([H])c2C1([H])[H]

$$$$
34:0:0
     RDKit          3D

 92 99  0  0  1  0  0  0  0  0999 V2000
  -29.0340  -22.2990   20.2300 C   0  0  0  0  0  3  0  0  0  0  0  0
  -28.8250  -20.3760   20.1180 C   0  0  0  0  0  2  0  0  0  0  0  0
  -29.8870  -18.7700   19.9280 C   0  0  0  0  0  0  0  0  0  0  0  0
  -30.4090  -15.6650   19.8210 C   0  0  0  0  0  0  0  0  0  0  0  0
  -30.4690  -13.1120   19.0850 C   0  0  0  0  0  2  0  0  0  0  0  0
  -29.5230  -12.6950   17.9260 C   0  0  0  0  0  2  0  0  0  0  0  0
  -28.1190  -12.3600   18.4560 C   0  0  0  0  0  2  0  0  0  0  0  0
  -27.6580  -13.3850   19.5180 C   0  0  0  0  0  3  0  0  0  0  0  0
  -28.7410  -13.7220   20.5700 C   0  0  0  0  0  2  0  0  0  0  0  0
  -29.8810  -14.3090   19.8330 N   0  0  0  0  0  0  0  0  0  0  0  0
  -31.6280  -15.6040   19.5790 O   0  0  0  0  0  0  0  0  0  0  0  0
  -29.6560  -17.0170   19.8900 N   0  0  0  0  0  4  0  0  0  0  0  0
  -28.6730  -16.8120   19.9930 H   0  0  0  0  0  0  0  0  0  0  0  0
  -25.3620  -13.9190   20.4620 C   0  0  0  0  0  0  0  0  0  0  0  0
  -24.3190  -13.1390   20.8710 C   0  0  0  0  0  0  0  0  0  0  0  0
  -24.7660  -11.7870   20.7570 C   0  0  0  0  0  0  0  0  0  0  0  0
  -26.3740  -13.0460   20.1130 N   0  0  0  0  0  0  0  0  0  0  0  0
  -26.0340  -11.7520   20.3570 N   0  0  0  0  0  0  0  0  0  0  0  0
  -24.0330  -10.5270   20.9460 C   0  0  0  0  0  0  0  0  0  0  0  0
  -24.4620   -9.5540   21.8750 C   0  0  0  0  0  3  0  0  0  0  0  0
  -23.7270   -8.3620   22.0560 C   0  0  0  0  0  3  0  0  0  0  0  0
  -22.5470   -8.1350   21.3080 C   0  0  0  0  0  0  0  0  0  0  0  0
  -22.1360   -9.0970   20.3680 C   0  0  0  0  0  3  0  0  0  0  0  0
  -22.8730  -10.2800   20.1860 C   0  0  0  0  0  3  0  0  0  0  0  0
  -21.7830   -6.9970   21.3980 O   0  0  0  0  0  0  0  0  0  0  0  0
  -21.6700   -6.2970   22.5730 C   0  0  0  0  0  0  0  0  0  0  0  0
  -21.1850   -6.8980   23.7550 C   0  0  0  0  0  3  0  0  0  0  0  0
  -21.0180   -6.1260   24.9220 C   0  0  0  0  0  3  0  0  0  0  0  0
  -21.3270   -4.7520   24.9060 C   0  0  0  0  0  0  0  0  0  0  0  0
  -21.8050   -4.1500   23.7300 C   0  0  0  0  0  3  0  0  0  0  0  0
  -21.9730   -4.9200   22.5650 C   0  0  0  0  0  0  0  0  0  0  0  0
  -22.4130   -4.3300   21.4280 F   0  0  0  0  0  0  0  0  0  0  0  0
  -21.1610   -4.0080   26.0250 F   0  0  0  0  0  0  0  0  0  0  0  0
  -22.9480  -13.6220   21.2440 C   0  0  0  0  0  0  0  0  0  0  0  0
  -22.2700  -12.9130   22.1390 N   0  0  0  0  0  0  0  0  0  0  0  0
  -22.4920  -14.6660   20.7790 O   0  0  0  0  0  0  0  0  0  0  0  0
  -22.6550  -12.0690   22.5360 H   0  0  0  0  0  0  0  0  0  0  0  0
  -21.3520  -13.2180   22.4300 H   0  0  0  0  0  0  0  0  0  0  0  0
  -25.5270  -15.2950   20.3260 N   0  0  0  0  0  0  0  0  0  0  0  0
  -24.7730  -15.9470   20.5130 H   0  0  0  0  0  0  0  0  0  0  0  0
  -26.3440  -15.7390   19.9300 H   0  0  0  0  0  0  0  0  0  0  0  0
  -30.7970  -18.0970   22.2290 C   0  0  0  0  0  1  0  0  0  0  0  0
  -31.0200  -18.9660   20.9760 C   0  0  0  0  0  3  0  0  0  0  0  0
  -33.5390  -19.4920   21.2110 C   0  0  0  0  0  1  0  0  0  0  0  0
  -32.4430  -18.7850   20.4010 C   0  0  0  0  0  2  0  0  0  0  0  0
  -29.9650  -22.5670   21.4360 C   0  0  0  0  0  2  0  0  0  0  0  0
  -31.3960  -22.4410   21.1010 N   0  0  0  0  0  4  0  0  0  0  0  0
  -31.6100  -21.5280   20.7450 H   0  0  0  0  0  0  0  0  0  0  0  0
  -31.9530  -22.6070   21.9210 H   0  0  0  0  0  0  0  0  0  0  0  0
  -31.6590  -23.1220   20.4100 H   0  0  0  0  0  0  0  0  0  0  0  0
  -27.9810  -23.9090   20.2050 C   0  0  0  0  0  2  0  0  0  0  0  0
  -28.1680  -25.6390   20.3100 O   0  0  0  0  0  0  0  0  0  0  0  0
  -24.6580  -31.8830   23.2190 C   0  0  0  0  0  0  0  0  0  0  0  0
  -27.1830  -26.8260   20.2540 C   0  0  0  0  0  0  0  0  0  0  0  0
  -23.4660  -30.4770   21.5920 C   0  0  0  0  0  3  0  0  0  0  0  0
  -24.9100  -28.8270   20.1870 C   0  0  0  0  0  0  0  0  0  0  0  0
  -26.0430  -30.6300   21.4600 C   0  0  0  0  0  2  0  0  0  0  0  0
  -26.1060  -29.1980   20.8130 C   0  0  0  0  0  0  0  0  0  0  0  0
  -27.2300  -28.2250   20.8130 C   0  0  0  0  0  3  0  0  0  0  0  0
  -25.9530  -26.6510   19.5730 C   0  0  0  0  0  3  0  0  0  0  0  0
  -24.8690  -27.5790   19.5430 C   0  0  0  0  0  3  0  0  0  0  0  0
  -23.7010  -29.7730   20.2260 C   0  0  0  0  0  2  0  0  0  0  0  0
  -24.7470  -31.0290   22.1430 N   0  0  0  0  0  0  0  0  0  0  0  0
  -23.5670  -32.1860   23.7290 O   0  0  0  0  0  0  0  0  0  0  0  0
  -22.7540  -29.5030   22.5700 C   0  0  0  0  0  0  0  0  0  0  0  0
  -21.4240  -29.3390   22.4400 N   0  0  0  0  0  0  0  0  0  0  0  0
  -23.4110  -28.8920   23.4160 O   0  0  0  0  0  0  0  0  0  0  0  0
  -20.9430  -29.8840   21.7370 H   0  0  0  0  0  0  0  0  0  0  0  0
  -18.0450  -28.1000   22.9380 C   0  0  0  0  0  0  0  0  0  0  0  0
  -20.5990  -28.4060   23.2200 C   0  0  0  0  0  3  0  0  0  0  0  0
  -20.7240  -26.9630   22.6730 C   0  0  0  0  0  2  0  0  0  0  0  0
  -19.6360  -26.6110   21.6520 C   0  0  0  0  0  2  0  0  0  0  0  0
  -18.2460  -26.7450   22.2800 C   0  0  0  0  0  2  0  0  0  0  0  0
  -19.1490  -28.8860   23.3640 C   0  0  0  0  0  0  0  0  0  0  0  0
  -18.9040  -30.1510   23.9420 C   0  0  0  0  0  3  0  0  0  0  0  0
  -17.5900  -30.6300   24.0970 C   0  0  0  0  0  3  0  0  0  0  0  0
  -16.5010  -29.8430   23.6840 C   0  0  0  0  0  3  0  0  0  0  0  0
  -16.7290  -28.5810   23.1090 C   0  0  0  0  0  3  0  0  0  0  0  0
  -25.9250  -32.5360   23.8520 C   0  0  0  0  0  3  0  0  0  0  0  0
  -26.4250  -31.7820   25.1460 C   0  0  1  0  0  0  0  0  0  0  0  0
  -25.3190  -31.5600   26.2050 C   0  0  0  0  0  1  0  0  0  0  0  0
  -27.0120  -30.3980   24.7920 C   0  0  0  0  0  1  0  0  0  0  0  0
  -27.5670  -32.5860   25.8110 C   0  0  0  0  0  1  0  0  0  0  0  0
  -25.6030  -33.9380   24.1830 N   0  0  0  0  0  0  0  0  0  0  0  0
  -25.9250  -35.0010   23.4350 C   0  0  0  0  0  0  0  0  0  0  0  0
  -26.5810  -34.9050   22.3960 O   0  0  0  0  0  0  0  0  0  0  0  0
  -25.0130  -34.0840   24.9910 H   0  0  0  0  0  0  0  0  0  0  0  0
  -24.1840  -36.8000   23.1360 C   0  0  0  0  0  1  0  0  0  0  0  0
  -25.4460  -36.3900   23.9100 C   0  0  0  0  0  3  0  0  0  0  0  0
  -27.5980  -37.2840   24.6910 C   0  0  0  0  0  1  0  0  0  0  0  0
  -26.4720  -37.4480   23.7740 N   0  0  0  0  0  0  0  0  0  0  0  0
  -26.0680  -38.3650   23.9350 H   0  0  0  0  0  0  0  0  0  0  0  0
  1  2  1  0
  1 46  1  0
  3  2  1  0
  3 43  1  0
  4 10  1  0
  4 12  1  0
  5 10  1  0
  6  7  1  0
  6  5  1  0
  8  7  1  0
  8 17  1  0
  8  9  1  0
 10  9  1  0
 11  4  2  0
 12  3  2  0
 12 13  1  0
 14 15  2  0
 15 34  1  0
 16 15  1  0
 16 19  1  0
 17 18  1  0
 17 14  1  0
 18 16  2  0
 19 20  1  0
 20 21  2  0
 22 25  1  0
 22 21  1  0
 23 22  2  0
 24 23  1  0
 24 19  2  0
 25 26  1  0
 26 27  1  0
 27 28  2  0
 29 28  1  0
 29 33  1  0
 30 29  2  0
 31 26  2  0
 31 30  1  0
 32 31  1  0
 34 35  1  0
 35 38  1  0
 35 37  1  0
 36 34  2  0
 39 14  1  0
 39 40  1  0
 41 39  1  0
 43 42  1  0
 45 43  1  0
 45 44  1  0
 47 46  1  0
 47 49  1  0
 48 47  1  0
 50 47  1  0
 51  1  1  0
 51 52  1  0
 53 64  2  0
 54 52  1  0
 54 59  1  0
 55 63  1  0
 55 65  1  0
 56 62  1  0
 56 58  1  0
 57 63  1  0
 58 59  2  0
 58 57  1  0
 60 54  2  0
 61 60  1  0
 61 56  2  0
 62 55  1  0
 63 53  1  0
 65 67  2  0
 66 65  1  0
 68 66  1  0
 69 78  2  0
 69 74  1  0
 70 66  1  0
 70 74  1  0
 71 70  1  0
 72 73  1  0
 72 71  1  0
 73 69  1  0
 74 75  2  0
 75 76  1  0
 77 76  2  0
 78 77  1  0
 79 53  1  0
 79 84  1  0
 79 80  1  0
 80 83  1  1
 80 81  1  0
 82 80  1  0
 84 87  1  0
 85 89  1  0
 85 84  1  0
 86 85  2  0
 89 88  1  0
 91 89  1  0
 91 92  1  0
 91 90  1  0
M  ISO  4   4 100  12 100  51 101  52 101
M  END
>  <TORSDO>  (35) 
F 23

>  <SCORE>  (35) 
-15.560

>  <name>  (35) 
34

>  <ligand_id>  (35) 
34

>  <original_smiles>  (35) 
[H]c1c([H])c([H])c2c(c1[H])C([H])([H])C([H])([H])C([H])([H])C2([H])N([H])C(=O)C1([H])N(C(=O)C([H])(N([H])C(=O)C([H])(N([H])C([H])([H])[H])C([H])([H])[H])C(C([H])([H])[H])(C([H])([H])[H])C([H])([H])[H])C([H])([H])c2c([H])c(OC([H])([H])C([H])(C([H])([H])C([H])(N([H])C(=O)N3C([H])([H])C([H])([H])C([H])([H])C([H])(n4nc(-c5c([H])c([H])c(Oc6c([H])c([H])c(F)c([H])c6F)c([H])c5[H])c(C(=O)N([H])[H])c4N([H])[H])C3([H])[H])C([H])(C([H])([H])[H])C([H])([H])C([H])([H])[H])C([H])([H])[N+]([H])([H])[H])c([H])c([H])c2C1([H])[H]

>  <smiles>  (35) 
[H]c1c([H])c([H])c2c(c1[H])C([H])([H])C([H])([H])C([H])([H])C2([H])N([H])C(=O)C1([H])N(C(=O)C([H])(N([H])C(=O)C([H])(N([H])C([H])([H])[H])C([H])([H])[H])C(C([H])([H])[H])(C([H])([H])[H])C([H])([H])[H])C([H])([H])c2c([H])c(OC([H])([H])C([H])(C([H])([H])C([H])(N([H])C(=O)N3C([H])([H])C([H])([H])C([H])([H])C([H])(n4nc(-c5c([H])c([H])c(Oc6c([H])c([H])c(F)c([H])c6F)c([H])c5[H])c(C(=O)N([H])[H])c4N([H])[H])C3([H])[H])C([H])(C([H])([H])[H])C([H])([H])C([H])([H])[H])C([H])([H])[N+]([H])([H])[H])c([H])c([H])c2C1([H])[H]

$$$$
35:0:0
     RDKit          3D

 96103  0  0  1  0  0  0  0  0999 V2000
  -29.0640  -22.5820   20.2350 C   0  0  0  0  0  2  0  0  0  0  0  0
  -29.2500  -24.1080   20.7020 C   0  0  0  0  0  3  0  0  0  0  0  0
  -30.5940  -24.6400   20.3980 N   0  0  0  0  0  4  0  0  0  0  0  0
  -30.8110  -24.5780   19.4170 H   0  0  0  0  0  0  0  0  0  0  0  0
  -31.3040  -24.1790   20.9430 H   0  0  0  0  0  0  0  0  0  0  0  0
  -30.6030  -25.6180   20.6360 H   0  0  0  0  0  0  0  0  0  0  0  0
  -28.1680  -25.1090   20.1030 C   0  0  0  0  0  2  0  0  0  0  0  0
  -28.3540  -26.5630   20.2870 O   0  0  0  0  0  0  0  0  0  0  0  0
  -24.6090  -31.9270   23.2730 C   0  0  0  0  0  0  0  0  0  0  0  0
  -27.2290  -27.4010   20.1940 C   0  0  0  0  0  0  0  0  0  0  0  0
  -23.4010  -30.5330   21.6290 C   0  0  0  0  0  3  0  0  0  0  0  0
  -24.8550  -29.0030   20.1790 C   0  0  0  0  0  0  0  0  0  0  0  0
  -25.9370  -30.8580   21.4470 C   0  0  0  0  0  2  0  0  0  0  0  0
  -26.0220  -29.4900   20.7840 C   0  0  0  0  0  0  0  0  0  0  0  0
  -27.2090  -28.7040   20.7790 C   0  0  0  0  0  3  0  0  0  0  0  0
  -26.0460  -26.9730   19.5400 C   0  0  0  0  0  3  0  0  0  0  0  0
  -24.8750  -27.7550   19.5360 C   0  0  0  0  0  3  0  0  0  0  0  0
  -23.6150  -29.8680   20.2410 C   0  0  0  0  0  2  0  0  0  0  0  0
  -24.6670  -31.1230   22.1710 N   0  0  0  0  0  0  0  0  0  0  0  0
  -23.5300  -32.2040   23.8140 O   0  0  0  0  0  0  0  0  0  0  0  0
  -22.7440  -29.5110   22.5880 C   0  0  0  0  0  0  0  0  0  0  0  0
  -21.4200  -29.3260   22.4570 N   0  0  0  0  0  0  0  0  0  0  0  0
  -23.4260  -28.8930   23.4100 O   0  0  0  0  0  0  0  0  0  0  0  0
  -20.9350  -29.8760   21.7610 H   0  0  0  0  0  0  0  0  0  0  0  0
  -18.0500  -28.1140   22.9300 C   0  0  0  0  0  0  0  0  0  0  0  0
  -20.6020  -28.3890   23.2260 C   0  0  0  0  0  3  0  0  0  0  0  0
  -20.7220  -26.9560   22.6570 C   0  0  0  0  0  2  0  0  0  0  0  0
  -19.6310  -26.6230   21.6350 C   0  0  0  0  0  2  0  0  0  0  0  0
  -18.2420  -26.7620   22.2640 C   0  0  0  0  0  2  0  0  0  0  0  0
  -19.1590  -28.8860   23.3660 C   0  0  0  0  0  0  0  0  0  0  0  0
  -18.9250  -30.1530   23.9450 C   0  0  0  0  0  3  0  0  0  0  0  0
  -17.6140  -30.6430   24.0980 C   0  0  0  0  0  3  0  0  0  0  0  0
  -16.5200  -29.8660   23.6830 C   0  0  0  0  0  3  0  0  0  0  0  0
  -16.7380  -28.6050   23.0990 C   0  0  0  0  0  3  0  0  0  0  0  0
  -25.8980  -32.5570   23.8890 C   0  0  0  0  0  3  0  0  0  0  0  0
  -26.4090  -31.7970   25.1740 C   0  0  1  0  0  0  0  0  0  0  0  0
  -25.3170  -31.5770   26.2440 C   0  0  0  0  0  1  0  0  0  0  0  0
  -26.9810  -30.4100   24.7980 C   0  0  0  0  0  1  0  0  0  0  0  0
  -27.5590  -32.5930   25.8340 C   0  0  0  0  0  1  0  0  0  0  0  0
  -25.6010  -33.9620   24.2040 N   0  0  0  0  0  0  0  0  0  0  0  0
  -25.9420  -35.0040   23.4350 C   0  0  0  0  0  0  0  0  0  0  0  0
  -26.6100  -34.8860   22.4040 O   0  0  0  0  0  0  0  0  0  0  0  0
  -25.0100  -34.1340   25.0040 H   0  0  0  0  0  0  0  0  0  0  0  0
  -24.2300  -36.8100   23.0590 C   0  0  0  0  0  1  0  0  0  0  0  0
  -25.4630  -36.4000   23.8800 C   0  0  0  0  0  3  0  0  0  0  0  0
  -27.5930  -37.2760   24.7270 C   0  0  0  0  0  1  0  0  0  0  0  0
  -26.5020  -37.4450   23.7710 N   0  0  0  0  0  0  0  0  0  0  0  0
  -26.0980  -38.3660   23.9160 H   0  0  0  0  0  0  0  0  0  0  0  0
  -30.0030  -21.3760   20.7340 C   0  0  0  0  0  3  0  0  0  0  0  0
  -29.4210  -19.9440   20.4310 C   0  0  0  0  0  0  0  0  0  0  0  0
  -28.4860  -19.8590   19.6360 O   0  0  0  0  0  0  0  0  0  0  0  0
  -30.0190  -18.6580   21.1320 C   0  0  0  0  0  2  0  0  0  0  0  0
  -29.6950  -17.1940   20.5850 C   0  0  0  0  0  3  0  0  0  0  0  0
  -27.8960  -16.8040   18.7960 C   0  0  0  0  0  1  0  0  0  0  0  0
  -28.1920  -16.9670   20.2960 C   0  0  0  0  0  2  0  0  0  0  0  0
  -30.2400  -15.9800   21.4680 C   0  0  0  0  0  2  0  0  0  0  0  0
  -30.7980  -14.7210   20.7060 C   0  0  0  0  0  0  0  0  0  0  0  0
  -30.5340  -12.5600   19.5080 C   0  0  0  0  0  2  0  0  0  0  0  0
  -29.6040  -12.7220   18.2870 C   0  0  0  0  0  2  0  0  0  0  0  0
  -28.1290  -12.5310   18.6870 C   0  0  0  0  0  2  0  0  0  0  0  0
  -27.7460  -13.3470   19.9430 C   0  0  0  0  0  3  0  0  0  0  0  0
  -28.7950  -13.1890   21.0710 C   0  0  0  0  0  2  0  0  0  0  0  0
  -30.1210  -13.5400   20.5360 N   0  0  0  0  0  0  0  0  0  0  0  0
  -31.9160  -14.8630   20.2060 O   0  0  0  0  0  0  0  0  0  0  0  0
  -25.3180  -13.9160   20.5980 C   0  0  0  0  0  0  0  0  0  0  0  0
  -24.2550  -13.1260   20.9470 C   0  0  0  0  0  0  0  0  0  0  0  0
  -24.7440  -11.7850   20.9340 C   0  0  0  0  0  0  0  0  0  0  0  0
  -26.3870  -13.0530   20.3990 N   0  0  0  0  0  0  0  0  0  0  0  0
  -26.0440  -11.7660   20.6620 N   0  0  0  0  0  0  0  0  0  0  0  0
  -24.0330  -10.5100   21.1030 C   0  0  0  0  0  0  0  0  0  0  0  0
  -24.4580   -9.5540   22.0530 C   0  0  0  0  0  3  0  0  0  0  0  0
  -23.7530   -8.3430   22.2090 C   0  0  0  0  0  3  0  0  0  0  0  0
  -22.6110   -8.0770   21.4150 C   0  0  0  0  0  0  0  0  0  0  0  0
  -22.2080   -9.0220   20.4560 C   0  0  0  0  0  3  0  0  0  0  0  0
  -22.9130  -10.2260   20.2970 C   0  0  0  0  0  3  0  0  0  0  0  0
  -21.8810   -6.9160   21.4830 O   0  0  0  0  0  0  0  0  0  0  0  0
  -21.8060   -6.1790   22.6380 C   0  0  0  0  0  0  0  0  0  0  0  0
  -21.2980   -6.7250   23.8370 C   0  0  0  0  0  3  0  0  0  0  0  0
  -21.1690   -5.9140   24.9820 C   0  0  0  0  0  3  0  0  0  0  0  0
  -21.5400   -4.5580   24.9300 C   0  0  0  0  0  0  0  0  0  0  0  0
  -22.0400   -4.0100   23.7360 C   0  0  0  0  0  3  0  0  0  0  0  0
  -22.1690   -4.8190   22.5910 C   0  0  0  0  0  0  0  0  0  0  0  0
  -22.6330   -4.2790   21.4380 F   0  0  0  0  0  0  0  0  0  0  0  0
  -21.4090   -3.7770   26.0280 F   0  0  0  0  0  0  0  0  0  0  0  0
  -22.8420  -13.5820   21.1780 C   0  0  0  0  0  0  0  0  0  0  0  0
  -22.1000  -12.8720   22.0220 N   0  0  0  0  0  0  0  0  0  0  0  0
  -22.4010  -14.5980   20.6460 O   0  0  0  0  0  0  0  0  0  0  0  0
  -22.4700  -12.0520   22.4800 H   0  0  0  0  0  0  0  0  0  0  0  0
  -21.1490  -13.1550   22.2150 H   0  0  0  0  0  0  0  0  0  0  0  0
  -25.4470  -15.2860   20.4100 N   0  0  0  0  0  0  0  0  0  0  0  0
  -24.6450  -15.9050   20.4290 H   0  0  0  0  0  0  0  0  0  0  0  0
  -26.2700  -15.7260   20.0180 H   0  0  0  0  0  0  0  0  0  0  0  0
  -31.4670  -21.4580   20.2170 C   0  0  0  0  0  2  0  0  0  0  0  0
  -33.0990  -22.2560   18.4300 C   0  0  0  0  0  1  0  0  0  0  0  0
  -31.2650  -20.6470   17.7560 C   0  0  0  0  0  1  0  0  0  0  0  0
  -31.6660  -21.7880   18.7100 C   0  0  0  0  0  3  0  0  0  0  0  0
  1  2  1  0
  1 49  1  0
  2  7  1  0
  3  6  1  0
  3  2  1  0
  3  5  1  0
  4  3  1  0
  7  8  1  0
  9 20  2  0
 10  8  1  0
 10 15  1  0
 11 19  1  0
 11 21  1  0
 12 18  1  0
 12 14  1  0
 13 19  1  0
 14 13  1  0
 15 14  2  0
 16 10  2  0
 17 16  1  0
 17 12  2  0
 18 11  1  0
 19  9  1  0
 21 23  2  0
 22 21  1  0
 24 22  1  0
 25 34  2  0
 25 30  1  0
 26 22  1  0
 26 30  1  0
 27 26  1  0
 28 29  1  0
 28 27  1  0
 29 25  1  0
 30 31  2  0
 31 32  1  0
 33 32  2  0
 34 33  1  0
 35  9  1  0
 35 40  1  0
 35 36  1  0
 36 39  1  1
 36 37  1  0
 38 36  1  0
 40 43  1  0
 41 45  1  0
 41 40  1  0
 42 41  2  0
 45 44  1  0
 47 45  1  0
 47 48  1  0
 47 46  1  0
 49 93  1  0
 50 49  1  0
 50 52  1  0
 51 50  2  0
 53 55  1  0
 53 52  1  0
 53 56  1  0
 54 55  1  0
 57 56  1  0
 58 63  1  0
 59 60  1  0
 59 58  1  0
 61 60  1  0
 61 68  1  0
 61 62  1  0
 63 57  1  0
 63 62  1  0
 64 57  2  0
 65 66  2  0
 66 85  1  0
 67 66  1  0
 67 70  1  0
 68 65  1  0
 68 69  1  0
 69 67  2  0
 70 71  1  0
 71 72  2  0
 73 76  1  0
 73 72  1  0
 74 73  2  0
 75 74  1  0
 75 70  2  0
 76 77  1  0
 77 78  1  0
 78 79  2  0
 80 79  1  0
 80 84  1  0
 81 80  2  0
 82 77  2  0
 82 81  1  0
 83 82  1  0
 85 86  1  0
 86 89  1  0
 86 88  1  0
 87 85  2  0
 90 91  1  0
 90 65  1  0
 92 90  1  0
 94 96  1  0
 95 96  1  0
 96 93  1  0
M  ISO  4   7 101   8 101  56 100  57 100
M  END
>  <TORSDO>  (36) 
F 27

>  <SCORE>  (36) 
-11.997

>  <name>  (36) 
35

>  <ligand_id>  (36) 
35

>  <original_smiles>  (36) 
[H]c1c([H])c([H])c2c(c1[H])C([H])([H])C([H])([H])C([H])([H])C2([H])N([H])C(=O)C1([H])N(C(=O)C([H])(N([H])C(=O)C([H])(N([H])C([H])([H])[H])C([H])([H])[H])C(C([H])([H])[H])(C([H])([H])[H])C([H])([H])[H])C([H])([H])c2c([H])c(OC([H])([H])C([H])(C([H])([H])C([H])(C(=O)C([H])([H])C([H])(C([H])([H])C(=O)N3C([H])([H])C([H])([H])C([H])([H])C([H])(n4nc(-c5c([H])c([H])c(Oc6c([H])c([H])c(F)c([H])c6F)c([H])c5[H])c(C(=O)N([H])[H])c4N([H])[H])C3([H])[H])C([H])([H])C([H])([H])[H])C([H])([H])C([H])(C([H])([H])[H])C([H])([H])[H])[N+]([H])([H])[H])c([H])c([H])c2C1([H])[H]

>  <smiles>  (36) 
[H]c1c([H])c([H])c2c(c1[H])C([H])([H])C([H])([H])C([H])([H])C2([H])N([H])C(=O)C1([H])N(C(=O)C([H])(N([H])C(=O)C([H])(N([H])C([H])([H])[H])C([H])([H])[H])C(C([H])([H])[H])(C([H])([H])[H])C([H])([H])[H])C([H])([H])c2c([H])c(OC([H])([H])C([H])(C([H])([H])C([H])(C(=O)C([H])([H])C([H])(C([H])([H])C(=O)N3C([H])([H])C([H])([H])C([H])([H])C([H])(n4nc(-c5c([H])c([H])c(Oc6c([H])c([H])c(F)c([H])c6F)c([H])c5[H])c(C(=O)N([H])[H])c4N([H])[H])C3([H])[H])C([H])([H])C([H])([H])[H])C([H])([H])C([H])(C([H])([H])[H])C([H])([H])[H])[N+]([H])([H])[H])c([H])c([H])c2C1([H])[H]

$$$$
36:0:0
     RDKit          3D

 88 96  0  0  1  0  0  0  0  0999 V2000
  -30.4070  -15.5450   20.3330 C   0  0  0  0  0  0  0  0  0  0  0  0
  -30.3570  -13.0550   19.4610 C   0  0  0  0  0  2  0  0  0  0  0  0
  -29.4730  -12.7090   18.2370 C   0  0  0  0  0  2  0  0  0  0  0  0
  -28.0420  -12.3820   18.6850 C   0  0  0  0  0  2  0  0  0  0  0  0
  -27.5450  -13.3770   19.7620 C   0  0  0  0  0  3  0  0  0  0  0  0
  -28.5760  -13.6790   20.8780 C   0  0  0  0  0  2  0  0  0  0  0  0
  -29.7670  -14.2490   20.2120 N   0  0  0  0  0  0  0  0  0  0  0  0
  -31.6330  -15.3730   20.2060 O   0  0  0  0  0  0  0  0  0  0  0  0
  -28.5570  -17.8330   20.4640 C   0  0  0  0  0  2  0  0  0  0  0  0
  -30.7660  -18.2860   20.2270 C   0  0  0  0  0  2  0  0  0  0  0  0
  -28.3170  -19.4850   19.9700 C   0  0  0  0  0  2  0  0  0  0  0  0
  -30.4710  -19.9230   20.7010 C   0  0  0  0  0  3  0  0  0  0  0  0
  -29.8830  -17.0010   20.3550 N   0  0  0  0  0  0  0  0  0  0  0  0
  -29.0990  -20.7060   20.5800 N   0  0  1  0  0  4  0  0  0  0  0  0
  -28.7680  -20.7230   21.5330 H   0  0  0  0  0  0  0  0  0  0  0  0
  -25.1760  -13.9160   20.5030 C   0  0  0  0  0  0  0  0  0  0  0  0
  -24.1140  -13.1390   20.8600 C   0  0  0  0  0  0  0  0  0  0  0  0
  -24.5850  -11.7890   20.8420 C   0  0  0  0  0  0  0  0  0  0  0  0
  -26.2250  -13.0450   20.2740 N   0  0  0  0  0  0  0  0  0  0  0  0
  -25.8810  -11.7580   20.5450 N   0  0  0  0  0  0  0  0  0  0  0  0
  -23.8580  -10.5260   21.0280 C   0  0  0  0  0  0  0  0  0  0  0  0
  -24.2770   -9.5640   21.9720 C   0  0  0  0  0  3  0  0  0  0  0  0
  -23.5490   -8.3680   22.1490 C   0  0  0  0  0  3  0  0  0  0  0  0
  -22.3870   -8.1250   21.3810 C   0  0  0  0  0  0  0  0  0  0  0  0
  -21.9860   -9.0750   20.4250 C   0  0  0  0  0  3  0  0  0  0  0  0
  -22.7140  -10.2620   20.2470 C   0  0  0  0  0  3  0  0  0  0  0  0
  -21.6310   -6.9790   21.4640 O   0  0  0  0  0  0  0  0  0  0  0  0
  -21.5610   -6.2450   22.6200 C   0  0  0  0  0  0  0  0  0  0  0  0
  -21.1190   -6.8070   23.8370 C   0  0  0  0  0  3  0  0  0  0  0  0
  -21.0010   -5.9990   24.9840 C   0  0  0  0  0  3  0  0  0  0  0  0
  -21.3120   -4.6280   24.9180 C   0  0  0  0  0  0  0  0  0  0  0  0
  -21.7450   -4.0630   23.7060 C   0  0  0  0  0  3  0  0  0  0  0  0
  -21.8670   -4.8700   22.5590 C   0  0  0  0  0  0  0  0  0  0  0  0
  -22.2660   -4.3160   21.3890 F   0  0  0  0  0  0  0  0  0  0  0  0
  -21.1910   -3.8500   26.0190 F   0  0  0  0  0  0  0  0  0  0  0  0
  -22.7120  -13.6140   21.1010 C   0  0  0  0  0  0  0  0  0  0  0  0
  -21.9710  -12.9280   21.9630 N   0  0  0  0  0  0  0  0  0  0  0  0
  -22.2800  -14.6310   20.5570 O   0  0  0  0  0  0  0  0  0  0  0  0
  -22.3360  -12.1110   22.4310 H   0  0  0  0  0  0  0  0  0  0  0  0
  -21.0250  -13.2250   22.1580 H   0  0  0  0  0  0  0  0  0  0  0  0
  -25.3390  -15.2870   20.3190 N   0  0  0  0  0  0  0  0  0  0  0  0
  -24.5620  -15.9340   20.4030 H   0  0  0  0  0  0  0  0  0  0  0  0
  -26.1790  -15.7210   19.9640 H   0  0  0  0  0  0  0  0  0  0  0  0
  -33.0440  -20.2370   20.1080 C   0  0  0  0  0  1  0  0  0  0  0  0
  -31.6220  -20.8190   20.1540 C   0  0  0  0  0  2  0  0  0  0  0  0
  -29.0270  -22.4040   20.1400 C   0  0  0  0  0  3  0  0  0  0  0  0
  -28.0360  -23.9680   20.4970 C   0  0  0  0  0  3  0  0  0  0  0  0
  -28.2180  -25.6790   20.3330 O   0  0  0  0  0  0  0  0  0  0  0  0
  -24.6630  -31.8700   23.2010 C   0  0  0  0  0  0  0  0  0  0  0  0
  -27.2180  -26.8360   20.2920 C   0  0  0  0  0  0  0  0  0  0  0  0
  -23.4800  -30.4500   21.5780 C   0  0  0  0  0  3  0  0  0  0  0  0
  -24.9340  -28.8060   20.1910 C   0  0  0  0  0  0  0  0  0  0  0  0
  -26.0540  -30.6270   21.4520 C   0  0  0  0  0  2  0  0  0  0  0  0
  -26.1240  -29.1930   20.8170 C   0  0  0  0  0  0  0  0  0  0  0  0
  -27.2570  -28.2370   20.8320 C   0  0  0  0  0  3  0  0  0  0  0  0
  -25.9940  -26.6340   19.6090 C   0  0  0  0  0  3  0  0  0  0  0  0
  -24.9040  -27.5500   19.5620 C   0  0  0  0  0  3  0  0  0  0  0  0
  -23.7180  -29.7400   20.2160 C   0  0  0  0  0  2  0  0  0  0  0  0
  -24.7540  -31.0150   22.1280 N   0  0  0  0  0  0  0  0  0  0  0  0
  -23.5700  -32.1700   23.7100 O   0  0  0  0  0  0  0  0  0  0  0  0
  -22.7730  -29.4760   22.5590 C   0  0  0  0  0  0  0  0  0  0  0  0
  -21.4420  -29.3160   22.4320 N   0  0  0  0  0  0  0  0  0  0  0  0
  -23.4310  -28.8620   23.4020 O   0  0  0  0  0  0  0  0  0  0  0  0
  -20.9640  -29.8570   21.7270 H   0  0  0  0  0  0  0  0  0  0  0  0
  -18.0520  -28.1160   22.9520 C   0  0  0  0  0  0  0  0  0  0  0  0
  -20.6120  -28.3890   23.2140 C   0  0  0  0  0  3  0  0  0  0  0  0
  -20.7140  -26.9490   22.6560 C   0  0  0  0  0  2  0  0  0  0  0  0
  -19.6130  -26.6150   21.6440 C   0  0  0  0  0  2  0  0  0  0  0  0
  -18.2310  -26.7620   22.2860 C   0  0  0  0  0  2  0  0  0  0  0  0
  -19.1690  -28.8870   23.3710 C   0  0  0  0  0  0  0  0  0  0  0  0
  -18.9450  -30.1530   23.9550 C   0  0  0  0  0  3  0  0  0  0  0  0
  -17.6360  -30.6450   24.1260 C   0  0  0  0  0  3  0  0  0  0  0  0
  -16.5360  -29.8710   23.7200 C   0  0  0  0  0  3  0  0  0  0  0  0
  -16.7440  -28.6090   23.1380 C   0  0  0  0  0  3  0  0  0  0  0  0
  -25.9270  -32.5260   23.8330 C   0  0  0  0  0  3  0  0  0  0  0  0
  -25.5960  -33.9260   24.1650 N   0  0  0  0  0  0  0  0  0  0  0  0
  -25.9130  -34.9920   23.4190 C   0  0  0  0  0  0  0  0  0  0  0  0
  -26.5770  -34.9030   22.3830 O   0  0  0  0  0  0  0  0  0  0  0  0
  -25.0000  -34.0630   24.9680 H   0  0  0  0  0  0  0  0  0  0  0  0
  -24.1640  -36.7800   23.1050 C   0  0  0  0  0  1  0  0  0  0  0  0
  -25.4210  -36.3770   23.8930 C   0  0  0  0  0  3  0  0  0  0  0  0
  -27.5590  -37.2830   24.6950 C   0  0  0  0  0  1  0  0  0  0  0  0
  -26.4410  -37.4420   23.7690 N   0  0  0  0  0  0  0  0  0  0  0  0
  -26.0270  -38.3570   23.9240 H   0  0  0  0  0  0  0  0  0  0  0  0
  -26.4330  -31.7720   25.1270 C   0  0  1  0  0  0  0  0  0  0  0  0
  -25.3330  -31.5470   26.1920 C   0  0  0  0  0  1  0  0  0  0  0  0
  -27.0230  -30.3890   24.7700 C   0  0  0  0  0  1  0  0  0  0  0  0
  -27.5730  -32.5800   25.7880 C   0  0  0  0  0  1  0  0  0  0  0  0
  1 13  1  0
  2  7  1  0
  3  4  1  0
  3  2  1  0
  5  4  1  0
  5 19  1  0
  5  6  1  0
  7  1  1  0
  7  6  1  0
  8  1  2  0
 10 13  1  0
 10 12  1  0
 11  9  1  0
 11 14  1  0
 12 45  1  0
 13  9  1  0
 14 12  1  0
 14 15  1  1
 16 17  2  0
 17 36  1  0
 18 17  1  0
 18 21  1  0
 19 16  1  0
 19 20  1  0
 20 18  2  0
 21 22  1  0
 22 23  2  0
 24 27  1  0
 24 23  1  0
 25 24  2  0
 26 25  1  0
 26 21  2  0
 27 28  1  0
 28 29  1  0
 29 30  2  0
 31 30  1  0
 31 35  1  0
 32 31  2  0
 33 28  2  0
 33 32  1  0
 34 33  1  0
 36 37  1  0
 37 40  1  0
 37 39  1  0
 38 36  2  0
 41 42  1  0
 41 16  1  0
 43 41  1  0
 44 45  1  0
 46 47  2  0
 46 14  1  0
 48 47  1  0
 49 60  2  0
 50 48  1  0
 50 55  1  0
 51 59  1  0
 51 61  1  0
 52 58  1  0
 52 54  1  0
 53 59  1  0
 54 55  2  0
 54 53  1  0
 56 50  2  0
 57 56  1  0
 57 52  2  0
 58 51  1  0
 59 49  1  0
 61 63  2  0
 62 61  1  0
 64 62  1  0
 65 74  2  0
 65 70  1  0
 66 62  1  0
 66 70  1  0
 67 66  1  0
 68 69  1  0
 68 67  1  0
 69 65  1  0
 70 71  2  0
 71 72  1  0
 73 72  2  0
 74 73  1  0
 75 49  1  0
 75 76  1  0
 75 85  1  0
 76 79  1  0
 77 81  1  0
 77 76  1  0
 78 77  2  0
 81 80  1  0
 83 81  1  0
 83 84  1  0
 83 82  1  0
 85 88  1  1
 85 86  1  0
 87 85  1  0
M  ISO  4   1 100  13 100  47 101  48 101
M  END
>  <TORSDO>  (37) 
F 18

>  <SCORE>  (37) 
-16.230

>  <name>  (37) 
36

>  <ligand_id>  (37) 
36

>  <original_smiles>  (37) 
[H]c1c([H])c([H])c2c(c1[H])C([H])([H])C([H])([H])C([H])([H])C2([H])N([H])C(=O)C1([H])N(C(=O)C([H])(N([H])C(=O)C([H])(N([H])C([H])([H])[H])C([H])([H])[H])C(C([H])([H])[H])(C([H])([H])[H])C([H])([H])[H])C([H])([H])c2c([H])c(OC([H])([H])C([H])([H])[N+]3([H])C([H])([H])C([H])([H])N(C(=O)N4C([H])([H])C([H])([H])C([H])([H])C([H])(n5nc(-c6c([H])c([H])c(Oc7c([H])c([H])c(F)c([H])c7F)c([H])c6[H])c(C(=O)N([H])[H])c5N([H])[H])C4([H])[H])C([H])([H])C3([H])C([H])([H])C([H])([H])[H])c([H])c([H])c2C1([H])[H]

>  <smiles>  (37) 
[H]c1c([H])c([H])c2c(c1[H])C([H])([H])C([H])([H])C([H])([H])C2([H])N([H])C(=O)C1([H])N(C(=O)C([H])(N([H])C(=O)C([H])(N([H])C([H])([H])[H])C([H])([H])[H])C(C([H])([H])[H])(C([H])([H])[H])C([H])([H])[H])C([H])([H])c2c([H])c(OC([H])([H])C([H])([H])[N+]3([H])C([H])([H])C([H])([H])N(C(=O)N4C([H])([H])C([H])([H])C([H])([H])C([H])(n5nc(-c6c([H])c([H])c(Oc7c([H])c([H])c(F)c([H])c7F)c([H])c6[H])c(C(=O)N([H])[H])c5N([H])[H])C4([H])[H])C([H])([H])C3([H])C([H])([H])C([H])([H])[H])c([H])c([H])c2C1([H])[H]

$$$$
37:0:0
     RDKit          3D

 97104  0  0  1  0  0  0  0  0999 V2000
  -29.3140  -21.8900   20.1490 C   0  0  0  0  0  3  0  0  0  0  0  0
  -30.7170  -22.2790   20.4040 N   0  0  0  0  0  4  0  0  0  0  0  0
  -30.8850  -22.4420   21.3820 H   0  0  0  0  0  0  0  0  0  0  0  0
  -30.9590  -23.1160   19.9010 H   0  0  0  0  0  0  0  0  0  0  0  0
  -31.3340  -21.5510   20.0940 H   0  0  0  0  0  0  0  0  0  0  0  0
  -29.0010  -20.3710   20.8230 C   0  0  0  0  0  2  0  0  0  0  0  0
  -29.4200  -18.8390   20.2000 C   0  0  0  0  0  3  0  0  0  0  0  0
  -28.1810  -18.2480   19.4720 C   0  0  0  0  0  2  0  0  0  0  0  0
  -28.4190  -18.7010   16.9770 C   0  0  0  0  0  1  0  0  0  0  0  0
  -26.1450  -18.6940   18.0220 C   0  0  0  0  0  1  0  0  0  0  0  0
  -27.6300  -19.0210   18.2560 C   0  0  0  0  0  3  0  0  0  0  0  0
  -30.0820  -17.5550   21.0840 C   0  0  0  0  0  3  0  0  0  0  0  0
  -30.5740  -14.8660   20.4830 C   0  0  0  0  0  0  0  0  0  0  0  0
  -30.4310  -12.5420   19.4850 C   0  0  0  0  0  2  0  0  0  0  0  0
  -29.5100  -12.5370   18.2410 C   0  0  0  0  0  2  0  0  0  0  0  0
  -28.0400  -12.3440   18.6560 C   0  0  0  0  0  2  0  0  0  0  0  0
  -27.6320  -13.2460   19.8480 C   0  0  0  0  0  3  0  0  0  0  0  0
  -28.6770  -13.2180   20.9830 C   0  0  0  0  0  2  0  0  0  0  0  0
  -29.9620  -13.6240   20.3970 N   0  0  0  0  0  0  0  0  0  0  0  0
  -31.7670  -14.9340   20.1710 O   0  0  0  0  0  0  0  0  0  0  0  0
  -29.8090  -16.0280   20.7570 N   0  0  0  0  0  0  0  0  0  0  0  0
  -28.8390  -15.7870   20.8900 H   0  0  0  0  0  0  0  0  0  0  0  0
  -25.2460  -13.8220   20.5740 C   0  0  0  0  0  0  0  0  0  0  0  0
  -24.1790  -13.0440   20.9230 C   0  0  0  0  0  0  0  0  0  0  0  0
  -24.6390  -11.6930   20.8730 C   0  0  0  0  0  0  0  0  0  0  0  0
  -26.2890  -12.9460   20.3280 N   0  0  0  0  0  0  0  0  0  0  0  0
  -25.9330  -11.6580   20.5730 N   0  0  0  0  0  0  0  0  0  0  0  0
  -23.9070  -10.4320   21.0430 C   0  0  0  0  0  0  0  0  0  0  0  0
  -24.3620   -9.4210   21.9200 C   0  0  0  0  0  3  0  0  0  0  0  0
  -23.6290   -8.2260   22.0770 C   0  0  0  0  0  3  0  0  0  0  0  0
  -22.4270   -8.0270   21.3560 C   0  0  0  0  0  0  0  0  0  0  0  0
  -21.9930   -9.0250   20.4640 C   0  0  0  0  0  3  0  0  0  0  0  0
  -22.7260  -10.2140   20.3060 C   0  0  0  0  0  3  0  0  0  0  0  0
  -21.6630   -6.8870   21.4250 O   0  0  0  0  0  0  0  0  0  0  0  0
  -21.6860   -6.0730   22.5280 C   0  0  0  0  0  0  0  0  0  0  0  0
  -21.4010   -6.5660   23.8210 C   0  0  0  0  0  3  0  0  0  0  0  0
  -21.3670   -5.6800   24.9180 C   0  0  0  0  0  3  0  0  0  0  0  0
  -21.6030   -4.3050   24.7230 C   0  0  0  0  0  0  0  0  0  0  0  0
  -21.8830   -3.8150   23.4340 C   0  0  0  0  0  3  0  0  0  0  0  0
  -21.9200   -4.6950   22.3410 C   0  0  0  0  0  0  0  0  0  0  0  0
  -22.1680   -4.2160   21.0990 F   0  0  0  0  0  0  0  0  0  0  0  0
  -21.5630   -3.4530   25.7730 F   0  0  0  0  0  0  0  0  0  0  0  0
  -22.7810  -13.5190   21.1870 C   0  0  0  0  0  0  0  0  0  0  0  0
  -22.0510  -12.8120   22.0410 N   0  0  0  0  0  0  0  0  0  0  0  0
  -22.3470  -14.5500   20.6760 O   0  0  0  0  0  0  0  0  0  0  0  0
  -22.4180  -11.9810   22.4760 H   0  0  0  0  0  0  0  0  0  0  0  0
  -21.1120  -13.1070   22.2650 H   0  0  0  0  0  0  0  0  0  0  0  0
  -25.4110  -15.1960   20.4180 N   0  0  0  0  0  0  0  0  0  0  0  0
  -24.6340  -15.8380   20.5290 H   0  0  0  0  0  0  0  0  0  0  0  0
  -26.2390  -15.6400   20.0470 H   0  0  0  0  0  0  0  0  0  0  0  0
  -31.6060  -17.7450   21.3240 C   0  0  0  0  0  2  0  0  0  0  0  0
  -33.2940  -19.6330   21.7130 C   0  0  0  0  0  1  0  0  0  0  0  0
  -32.0380  -18.9130   22.2300 C   0  0  0  0  0  2  0  0  0  0  0  0
  -28.3010  -23.2640   20.0670 C   0  0  0  0  0  2  0  0  0  0  0  0
  -29.3950  -24.9310   21.8520 C   0  0  0  0  0  1  0  0  0  0  0  0
  -28.2930  -24.7970   20.7960 C   0  0  0  0  0  3  0  0  0  0  0  0
  -28.3020  -26.2010   20.1360 O   0  0  0  0  0  0  0  0  0  0  0  0
  -24.6440  -31.8460   23.1930 C   0  0  0  0  0  0  0  0  0  0  0  0
  -27.2160  -27.1420   20.1790 C   0  0  0  0  0  0  0  0  0  0  0  0
  -23.4470  -30.4660   21.5360 C   0  0  0  0  0  3  0  0  0  0  0  0
  -24.8930  -28.8820   20.1220 C   0  0  0  0  0  0  0  0  0  0  0  0
  -26.0030  -30.7180   21.3950 C   0  0  0  0  0  2  0  0  0  0  0  0
  -26.0700  -29.3290   20.7390 C   0  0  0  0  0  0  0  0  0  0  0  0
  -27.2340  -28.4760   20.7450 C   0  0  0  0  0  3  0  0  0  0  0  0
  -26.0150  -26.7840   19.5330 C   0  0  0  0  0  3  0  0  0  0  0  0
  -24.8780  -27.6230   19.5020 C   0  0  0  0  0  3  0  0  0  0  0  0
  -23.6740  -29.7930   20.1560 C   0  0  0  0  0  2  0  0  0  0  0  0
  -24.7170  -31.0340   22.0950 N   0  0  0  0  0  0  0  0  0  0  0  0
  -23.5560  -32.1350   23.7150 O   0  0  0  0  0  0  0  0  0  0  0  0
  -22.7580  -29.4560   22.4860 C   0  0  0  0  0  0  0  0  0  0  0  0
  -21.4270  -29.3070   22.3630 N   0  0  0  0  0  0  0  0  0  0  0  0
  -23.4200  -28.8120   23.3020 O   0  0  0  0  0  0  0  0  0  0  0  0
  -20.9490  -29.8760   21.6800 H   0  0  0  0  0  0  0  0  0  0  0  0
  -18.0320  -28.1380   22.8490 C   0  0  0  0  0  0  0  0  0  0  0  0
  -20.5940  -28.3730   23.1240 C   0  0  0  0  0  3  0  0  0  0  0  0
  -20.6790  -26.9430   22.5410 C   0  0  0  0  0  2  0  0  0  0  0  0
  -19.5740  -26.6390   21.5230 C   0  0  0  0  0  2  0  0  0  0  0  0
  -18.1930  -26.7940   22.1630 C   0  0  0  0  0  2  0  0  0  0  0  0
  -19.1580  -28.8880   23.2850 C   0  0  0  0  0  0  0  0  0  0  0  0
  -18.9480  -30.1480   23.8870 C   0  0  0  0  0  3  0  0  0  0  0  0
  -17.6460  -30.6590   24.0570 C   0  0  0  0  0  3  0  0  0  0  0  0
  -16.5370  -29.9080   23.6340 C   0  0  0  0  0  3  0  0  0  0  0  0
  -16.7310  -28.6490   23.0370 C   0  0  0  0  0  3  0  0  0  0  0  0
  -25.9250  -32.4690   23.8300 C   0  0  0  0  0  3  0  0  0  0  0  0
  -26.4580  -31.6570   25.0730 C   0  0  1  0  0  0  0  0  0  0  0  0
  -25.3770  -31.3750   26.1430 C   0  0  0  0  0  1  0  0  0  0  0  0
  -27.0480  -30.2970   24.6350 C   0  0  0  0  0  1  0  0  0  0  0  0
  -27.6070  -32.4370   25.7530 C   0  0  0  0  0  1  0  0  0  0  0  0
  -25.6020  -33.8500   24.2220 N   0  0  0  0  0  0  0  0  0  0  0  0
  -25.9090  -34.9400   23.5060 C   0  0  0  0  0  0  0  0  0  0  0  0
  -26.5660  -34.8920   22.4620 O   0  0  0  0  0  0  0  0  0  0  0  0
  -25.0260  -33.9640   25.0440 H   0  0  0  0  0  0  0  0  0  0  0  0
  -24.1480  -36.7200   23.2640 C   0  0  0  0  0  1  0  0  0  0  0  0
  -25.4130  -36.3020   24.0320 C   0  0  0  0  0  3  0  0  0  0  0  0
  -27.5590  -37.1750   24.8460 C   0  0  0  0  0  1  0  0  0  0  0  0
  -26.4270  -37.3760   23.9450 N   0  0  0  0  0  0  0  0  0  0  0  0
  -26.0120  -38.2800   24.1560 H   0  0  0  0  0  0  0  0  0  0  0  0
  1 54  1  0
  1  2  1  0
  1  6  1  0
  2  3  1  0
  4  2  1  0
  5  2  1  0
  7  8  1  0
  7  6  1  0
  7 12  1  0
  9 11  1  0
 10 11  1  0
 11  8  1  0
 12 51  1  0
 13 21  1  0
 14 19  1  0
 15 16  1  0
 15 14  1  0
 17 16  1  0
 17 26  1  0
 17 18  1  0
 19 13  1  0
 19 18  1  0
 20 13  2  0
 21 22  1  0
 21 12  1  0
 23 24  2  0
 24 43  1  0
 25 24  1  0
 25 28  1  0
 26 27  1  0
 26 23  1  0
 27 25  2  0
 28 29  1  0
 29 30  2  0
 31 34  1  0
 31 30  1  0
 32 31  2  0
 33 32  1  0
 33 28  2  0
 34 35  1  0
 35 36  1  0
 36 37  2  0
 38 37  1  0
 38 42  1  0
 39 38  2  0
 40 35  2  0
 40 39  1  0
 41 40  1  0
 43 44  1  0
 44 47  1  0
 44 46  1  0
 45 43  2  0
 48 49  1  0
 48 23  1  0
 50 48  1  0
 51 53  1  0
 52 53  1  0
 54 56  1  0
 56 55  1  0
 57 59  1  0
 57 56  1  0
 58 69  2  0
 59 64  1  0
 60 68  1  0
 60 70  1  0
 61 67  1  0
 61 63  1  0
 62 68  1  0
 63 64  2  0
 63 62  1  0
 65 59  2  0
 66 65  1  0
 66 61  2  0
 67 60  1  0
 68 58  1  0
 70 72  2  0
 71 70  1  0
 73 71  1  0
 74 83  2  0
 74 79  1  0
 75 71  1  0
 75 79  1  0
 76 75  1  0
 77 78  1  0
 77 76  1  0
 78 74  1  0
 79 80  2  0
 80 81  1  0
 82 81  2  0
 83 82  1  0
 84 58  1  0
 84 89  1  0
 84 85  1  0
 85 88  1  1
 85 86  1  0
 87 85  1  0
 89 92  1  0
 90 94  1  0
 90 89  1  0
 91 90  2  0
 94 93  1  0
 96 94  1  0
 96 97  1  0
 96 95  1  0
M  ISO  4  13 100  21 100  56 101  57 101
M  END
>  <TORSDO>  (38) 
F 26

>  <SCORE>  (38) 
-12.462

>  <name>  (38) 
37

>  <ligand_id>  (38) 
37

>  <original_smiles>  (38) 
[H]c1c([H])c([H])c2c(c1[H])C([H])([H])C([H])([H])C([H])([H])C2([H])N([H])C(=O)C1([H])N(C(=O)C([H])(N([H])C(=O)C([H])(N([H])C([H])([H])[H])C([H])([H])[H])C(C([H])([H])[H])(C([H])([H])[H])C([H])([H])[H])C([H])([H])c2c([H])c(OC([H])(C([H])([H])[H])C([H])([H])C([H])(C([H])([H])C([H])(C([H])([H])C([H])(C([H])([H])[H])C([H])([H])[H])C([H])(N([H])C(=O)N3C([H])([H])C([H])([H])C([H])([H])C([H])(n4nc(-c5c([H])c([H])c(Oc6c([H])c([H])c(F)c([H])c6F)c([H])c5[H])c(C(=O)N([H])[H])c4N([H])[H])C3([H])[H])C([H])([H])C([H])([H])C([H])([H])[H])[N+]([H])([H])[H])c([H])c([H])c2C1([H])[H]

>  <smiles>  (38) 
[H]c1c([H])c([H])c2c(c1[H])C([H])([H])C([H])([H])C([H])([H])C2([H])N([H])C(=O)C1([H])N(C(=O)C([H])(N([H])C(=O)C([H])(N([H])C([H])([H])[H])C([H])([H])[H])C(C([H])([H])[H])(C([H])([H])[H])C([H])([H])[H])C([H])([H])c2c([H])c(OC([H])(C([H])([H])[H])C([H])([H])C([H])(C([H])([H])C([H])(C([H])([H])C([H])(C([H])([H])[H])C([H])([H])[H])C([H])(N([H])C(=O)N3C([H])([H])C([H])([H])C([H])([H])C([H])(n4nc(-c5c([H])c([H])c(Oc6c([H])c([H])c(F)c([H])c6F)c([H])c5[H])c(C(=O)N([H])[H])c4N([H])[H])C3([H])[H])C([H])([H])C([H])([H])C([H])([H])[H])[N+]([H])([H])[H])c([H])c([H])c2C1([H])[H]

$$$$
38:0:0
     RDKit          3D

 93100  0  0  1  0  0  0  0  0999 V2000
  -27.9900  -21.2560   18.3820 C   0  0  0  0  0  1  0  0  0  0  0  0
  -29.1110  -21.3510   19.4470 C   0  0  2  0  0  0  0  0  0  0  0  0
  -30.7530  -20.9700   17.3960 C   0  0  0  0  0  1  0  0  0  0  0  0
  -30.4750  -21.6440   18.7530 C   0  0  0  0  0  2  0  0  0  0  0  0
  -29.1640  -19.7110   20.0690 C   0  0  0  0  0  0  0  0  0  0  0  0
  -28.2550  -19.4850   20.8720 O   0  0  0  0  0  0  0  0  0  0  0  0
  -30.2550  -18.3120   19.7990 C   0  0  0  0  0  3  0  0  0  0  0  0
  -30.7120  -15.4250   19.9760 C   0  0  0  0  0  0  0  0  0  0  0  0
  -30.7190  -12.9130   19.3620 C   0  0  0  0  0  2  0  0  0  0  0  0
  -29.8210  -12.5850   18.1450 C   0  0  0  0  0  2  0  0  0  0  0  0
  -28.3730  -12.3350   18.6010 C   0  0  0  0  0  2  0  0  0  0  0  0
  -27.8890  -13.4040   19.6140 C   0  0  0  0  0  3  0  0  0  0  0  0
  -28.9200  -13.6830   20.7280 C   0  0  0  0  0  2  0  0  0  0  0  0
  -30.1540  -14.1230   20.0600 N   0  0  0  0  0  0  0  0  0  0  0  0
  -31.9250  -15.4120   19.7300 O   0  0  0  0  0  0  0  0  0  0  0  0
  -29.9470  -16.6870   19.9760 N   0  0  0  0  0  0  0  0  0  0  0  0
  -28.9620  -16.5150   20.1080 H   0  0  0  0  0  0  0  0  0  0  0  0
  -25.5420  -14.0090   20.4020 C   0  0  0  0  0  0  0  0  0  0  0  0
  -24.4690  -13.2540   20.7810 C   0  0  0  0  0  0  0  0  0  0  0  0
  -24.9090  -11.8940   20.7370 C   0  0  0  0  0  0  0  0  0  0  0  0
  -26.5630  -13.1140   20.1380 N   0  0  0  0  0  0  0  0  0  0  0  0
  -26.1950  -11.8350   20.4090 N   0  0  0  0  0  0  0  0  0  0  0  0
  -24.1590  -10.6440   20.9270 C   0  0  0  0  0  0  0  0  0  0  0  0
  -24.5490   -9.6840   21.8860 C   0  0  0  0  0  3  0  0  0  0  0  0
  -23.7960   -8.5040   22.0660 C   0  0  0  0  0  3  0  0  0  0  0  0
  -22.6380   -8.2750   21.2840 C   0  0  0  0  0  0  0  0  0  0  0  0
  -22.2660   -9.2240   20.3140 C   0  0  0  0  0  3  0  0  0  0  0  0
  -23.0210  -10.3950   20.1340 C   0  0  0  0  0  3  0  0  0  0  0  0
  -21.8600   -7.1460   21.3730 O   0  0  0  0  0  0  0  0  0  0  0  0
  -21.7130   -6.4630   22.5530 C   0  0  0  0  0  0  0  0  0  0  0  0
  -21.2120   -7.0860   23.7190 C   0  0  0  0  0  3  0  0  0  0  0  0
  -21.0110   -6.3290   24.8890 C   0  0  0  0  0  3  0  0  0  0  0  0
  -21.2980   -4.9520   24.8960 C   0  0  0  0  0  0  0  0  0  0  0  0
  -21.7910   -4.3280   23.7360 C   0  0  0  0  0  3  0  0  0  0  0  0
  -21.9930   -5.0820   22.5670 C   0  0  0  0  0  0  0  0  0  0  0  0
  -22.4470   -4.4700   21.4460 F   0  0  0  0  0  0  0  0  0  0  0  0
  -21.0970   -4.2240   26.0190 F   0  0  0  0  0  0  0  0  0  0  0  0
  -23.0840  -13.7580   21.0670 C   0  0  0  0  0  0  0  0  0  0  0  0
  -22.3560  -13.0840   21.9490 N   0  0  0  0  0  0  0  0  0  0  0  0
  -22.6590  -14.7860   20.5420 O   0  0  0  0  0  0  0  0  0  0  0  0
  -22.7130  -12.2520   22.3940 H   0  0  0  0  0  0  0  0  0  0  0  0
  -21.4270  -13.4070   22.1820 H   0  0  0  0  0  0  0  0  0  0  0  0
  -25.7270  -15.3800   20.2300 N   0  0  0  0  0  0  0  0  0  0  0  0
  -24.9720  -16.0420   20.3620 H   0  0  0  0  0  0  0  0  0  0  0  0
  -26.5720  -15.8090   19.8750 H   0  0  0  0  0  0  0  0  0  0  0  0
  -31.4620  -18.6610   20.7150 C   0  0  0  0  0  2  0  0  0  0  0  0
  -32.8820  -18.5400   20.1320 C   0  0  0  0  0  2  0  0  0  0  0  0
  -35.3390  -19.0880   20.4710 C   0  0  0  0  0  1  0  0  0  0  0  0
  -33.6490  -20.9550   20.4860 C   0  0  0  0  0  1  0  0  0  0  0  0
  -33.8970  -19.4760   20.8270 C   0  0  0  0  0  3  0  0  0  0  0  0
  -28.7100  -22.9020   20.2540 C   0  0  0  0  0  2  0  0  0  0  0  0
  -28.1120  -24.4770   19.6400 C   0  0  0  0  0  2  0  0  0  0  0  0
  -28.1980  -26.0520   20.1000 O   0  0  0  0  0  0  0  0  0  0  0  0
  -24.6570  -31.9270   23.1570 C   0  0  0  0  0  0  0  0  0  0  0  0
  -27.1800  -27.1290   20.0190 C   0  0  0  0  0  0  0  0  0  0  0  0
  -23.4410  -30.5470   21.5280 C   0  0  0  0  0  3  0  0  0  0  0  0
  -24.8660  -28.9760   20.0490 C   0  0  0  0  0  0  0  0  0  0  0  0
  -26.0020  -30.7780   21.3300 C   0  0  0  0  0  2  0  0  0  0  0  0
  -26.0620  -29.3830   20.6530 C   0  0  0  0  0  0  0  0  0  0  0  0
  -27.2090  -28.4790   20.6230 C   0  0  0  0  0  3  0  0  0  0  0  0
  -25.9600  -26.8770   19.3530 C   0  0  0  0  0  3  0  0  0  0  0  0
  -24.8380  -27.7410   19.3800 C   0  0  0  0  0  3  0  0  0  0  0  0
  -23.6420  -29.8850   20.1370 C   0  0  0  0  0  2  0  0  0  0  0  0
  -24.7240  -31.1100   22.0570 N   0  0  0  0  0  0  0  0  0  0  0  0
  -23.5770  -32.2000   23.7030 O   0  0  0  0  0  0  0  0  0  0  0  0
  -22.7780  -29.5300   22.4930 C   0  0  0  0  0  0  0  0  0  0  0  0
  -21.4480  -29.3540   22.3890 N   0  0  0  0  0  0  0  0  0  0  0  0
  -23.4650  -28.9010   23.3020 O   0  0  0  0  0  0  0  0  0  0  0  0
  -20.9480  -29.9200   21.7180 H   0  0  0  0  0  0  0  0  0  0  0  0
  -18.0860  -28.0950   22.9270 C   0  0  0  0  0  0  0  0  0  0  0  0
  -20.6440  -28.4000   23.1620 C   0  0  0  0  0  3  0  0  0  0  0  0
  -20.7610  -26.9730   22.5780 C   0  0  0  0  0  2  0  0  0  0  0  0
  -19.6520  -26.6390   21.5760 C   0  0  0  0  0  2  0  0  0  0  0  0
  -18.2750  -26.7540   22.2380 C   0  0  0  0  0  2  0  0  0  0  0  0
  -19.1990  -28.8750   23.3470 C   0  0  0  0  0  0  0  0  0  0  0  0
  -18.9690  -30.1250   23.9580 C   0  0  0  0  0  3  0  0  0  0  0  0
  -17.6590  -30.5990   24.1560 C   0  0  0  0  0  3  0  0  0  0  0  0
  -16.5620  -29.8210   23.7520 C   0  0  0  0  0  3  0  0  0  0  0  0
  -16.7750  -28.5720   23.1420 C   0  0  0  0  0  3  0  0  0  0  0  0
  -25.9360  -32.5700   23.7720 C   0  0  0  0  0  3  0  0  0  0  0  0
  -25.6160  -33.9650   24.1230 N   0  0  0  0  0  0  0  0  0  0  0  0
  -25.9320  -35.0390   23.3860 C   0  0  0  0  0  0  0  0  0  0  0  0
  -26.5870  -34.9590   22.3440 O   0  0  0  0  0  0  0  0  0  0  0  0
  -25.0370  -34.1040   24.9380 H   0  0  0  0  0  0  0  0  0  0  0  0
  -24.1830  -36.8310   23.1060 C   0  0  0  0  0  1  0  0  0  0  0  0
  -25.4440  -36.4170   23.8810 C   0  0  0  0  0  3  0  0  0  0  0  0
  -27.5940  -37.3080   24.6680 C   0  0  0  0  0  1  0  0  0  0  0  0
  -26.4660  -37.4820   23.7580 N   0  0  0  0  0  0  0  0  0  0  0  0
  -26.0560  -38.3970   23.9270 H   0  0  0  0  0  0  0  0  0  0  0  0
  -26.4650  -31.7980   25.0460 C   0  0  1  0  0  0  0  0  0  0  0  0
  -25.3790  -31.5620   26.1220 C   0  0  0  0  0  1  0  0  0  0  0  0
  -27.0480  -30.4200   24.6570 C   0  0  0  0  0  1  0  0  0  0  0  0
  -27.6220  -32.5960   25.6910 C   0  0  0  0  0  1  0  0  0  0  0  0
  2  1  1  6
  2  5  1  0
  2 51  1  0
  3  4  1  0
  4  2  1  0
  5  6  2  0
  7 16  1  0
  7  5  1  0
  7 46  1  0
  8 16  1  0
  8 14  1  0
  9 14  1  0
 10 11  1  0
 10  9  1  0
 12 11  1  0
 12 21  1  0
 12 13  1  0
 14 13  1  0
 15  8  2  0
 16 17  1  0
 18 19  2  0
 19 38  1  0
 20 19  1  0
 20 23  1  0
 21 18  1  0
 21 22  1  0
 22 20  2  0
 23 24  1  0
 24 25  2  0
 26 29  1  0
 26 25  1  0
 27 26  2  0
 28 27  1  0
 28 23  2  0
 29 30  1  0
 30 35  2  0
 30 31  1  0
 31 32  2  0
 32 33  1  0
 33 37  1  0
 34 33  2  0
 35 34  1  0
 36 35  1  0
 38 39  1  0
 39 42  1  0
 39 41  1  0
 40 38  2  0
 43 44  1  0
 43 18  1  0
 45 43  1  0
 47 46  1  0
 47 50  1  0
 48 50  1  0
 49 50  1  0
 52 53  1  0
 52 51  1  0
 54 65  2  0
 55 53  1  0
 55 60  1  0
 56 64  1  0
 56 66  1  0
 57 63  1  0
 57 59  1  0
 58 64  1  0
 59 58  1  0
 60 59  2  0
 61 62  1  0
 61 55  2  0
 62 57  2  0
 63 56  1  0
 64 54  1  0
 66 68  2  0
 67 66  1  0
 69 67  1  0
 70 79  2  0
 70 75  1  0
 71 67  1  0
 71 75  1  0
 72 71  1  0
 73 74  1  0
 73 72  1  0
 74 70  1  0
 75 76  2  0
 76 77  1  0
 78 77  2  0
 79 78  1  0
 80 54  1  0
 80 81  1  0
 80 90  1  0
 81 84  1  0
 82 86  1  0
 82 81  1  0
 83 82  2  0
 86 85  1  0
 88 86  1  0
 88 89  1  0
 88 87  1  0
 90 93  1  1
 90 91  1  0
 92 90  1  0
M  ISO  4   8 100  16 100  52 101  53 101
M  END
>  <TORSDO>  (39) 
F 24

>  <SCORE>  (39) 
-13.977

>  <name>  (39) 
38

>  <ligand_id>  (39) 
38

>  <original_smiles>  (39) 
[H]c1c([H])c([H])c2c(c1[H])C([H])([H])C([H])([H])C([H])([H])C2([H])N([H])C(=O)C1([H])N(C(=O)C([H])(N([H])C(=O)C([H])(N([H])C([H])([H])[H])C([H])([H])[H])C(C([H])([H])[H])(C([H])([H])[H])C([H])([H])[H])C([H])([H])c2c([H])c(OC([H])([H])C([H])([H])C(C(=O)C([H])(N([H])C(=O)N3C([H])([H])C([H])([H])C([H])([H])C([H])(n4nc(-c5c([H])c([H])c(Oc6c([H])c([H])c(F)c([H])c6F)c([H])c5[H])c(C(=O)N([H])[H])c4N([H])[H])C3([H])[H])C([H])([H])C([H])([H])C([H])(C([H])([H])[H])C([H])([H])[H])(C([H])([H])[H])C([H])([H])C([H])([H])[H])c([H])c([H])c2C1([H])[H]

>  <smiles>  (39) 
[H]c1c([H])c([H])c2c(c1[H])C([H])([H])C([H])([H])C([H])([H])C2([H])N([H])C(=O)C1([H])N(C(=O)C([H])(N([H])C(=O)C([H])(N([H])C([H])([H])[H])C([H])([H])[H])C(C([H])([H])[H])(C([H])([H])[H])C([H])([H])[H])C([H])([H])c2c([H])c(OC([H])([H])C([H])([H])C(C(=O)C([H])(N([H])C(=O)N3C([H])([H])C([H])([H])C([H])([H])C([H])(n4nc(-c5c([H])c([H])c(Oc6c([H])c([H])c(F)c([H])c6F)c([H])c5[H])c(C(=O)N([H])[H])c4N([H])[H])C3([H])[H])C([H])([H])C([H])([H])C([H])(C([H])([H])[H])C([H])([H])[H])(C([H])([H])[H])C([H])([H])C([H])([H])[H])c([H])c([H])c2C1([H])[H]

$$$$
39:0:0
     RDKit          3D

106113  0  0  1  0  0  0  0  0999 V2000
  -27.7960  -23.1490   19.2170 C   0  0  0  0  0  3  0  0  0  0  0  0
  -26.4320  -22.4060   19.1260 C   0  0  0  0  0  2  0  0  0  0  0  0
  -25.3920  -23.0060   18.1580 C   0  0  0  0  0  2  0  0  0  0  0  0
  -24.2260  -22.0650   18.0860 C   0  0  0  0  0  0  0  0  0  0  0  0
  -23.2640  -22.1300   19.0140 N   0  0  0  0  0  0  0  0  0  0  0  0
  -24.1920  -21.1280   17.1290 N   0  0  0  0  0  4  0  0  0  0  0  0
  -23.3060  -22.8230   19.7490 H   0  0  0  0  0  0  0  0  0  0  0  0
  -22.4600  -21.5170   19.0300 H   0  0  0  0  0  0  0  0  0  0  0  0
  -24.9340  -21.0730   16.4420 H   0  0  0  0  0  0  0  0  0  0  0  0
  -23.4510  -20.4480   17.0470 H   0  0  0  0  0  0  0  0  0  0  0  0
  -28.8580  -22.3070   19.9900 C   0  0  0  0  0  2  0  0  0  0  0  0
  -29.3160  -21.0250   19.2450 C   0  0  0  0  0  2  0  0  0  0  0  0
  -30.4840  -20.2420   19.8820 C   0  0  0  0  0  2  0  0  0  0  0  0
  -30.0560  -19.1100   20.8450 C   0  0  0  0  0  2  0  0  0  0  0  0
  -31.2380  -18.2200   21.2850 C   0  0  0  0  0  2  0  0  0  0  0  0
  -30.8740  -17.0200   22.1980 C   0  0  0  0  0  2  0  0  0  0  0  0
  -30.8860  -14.9540   20.7750 C   0  0  0  0  0  0  0  0  0  0  0  0
  -30.5850  -12.9190   19.4060 C   0  0  0  0  0  2  0  0  0  0  0  0
  -29.6750  -13.2130   18.1980 C   0  0  0  0  0  2  0  0  0  0  0  0
  -28.1930  -13.0390   18.5810 C   0  0  0  0  0  2  0  0  0  0  0  0
  -27.8190  -13.7840   19.8880 C   0  0  0  0  0  3  0  0  0  0  0  0
  -28.8430  -13.4820   21.0050 C   0  0  0  0  0  2  0  0  0  0  0  0
  -30.1830  -13.8220   20.4970 N   0  0  0  0  0  0  0  0  0  0  0  0
  -32.0150  -15.1710   20.3310 O   0  0  0  0  0  0  0  0  0  0  0  0
  -30.2520  -15.8680   21.5310 N   0  0  0  0  0  0  0  0  0  0  0  0
  -29.3000  -15.6470   21.7870 H   0  0  0  0  0  0  0  0  0  0  0  0
  -25.3880  -14.3360   20.5260 C   0  0  0  0  0  0  0  0  0  0  0  0
  -24.3170  -13.5400   20.8250 C   0  0  0  0  0  0  0  0  0  0  0  0
  -24.7970  -12.1950   20.7630 C   0  0  0  0  0  0  0  0  0  0  0  0
  -26.4540  -13.4780   20.3080 N   0  0  0  0  0  0  0  0  0  0  0  0
  -26.0990  -12.1830   20.5070 N   0  0  0  0  0  0  0  0  0  0  0  0
  -24.0800  -10.9190   20.8780 C   0  0  0  0  0  0  0  0  0  0  0  0
  -24.5060   -9.9090   21.7710 C   0  0  0  0  0  3  0  0  0  0  0  0
  -23.7890   -8.6980   21.8750 C   0  0  0  0  0  3  0  0  0  0  0  0
  -22.6330   -8.4860   21.0880 C   0  0  0  0  0  0  0  0  0  0  0  0
  -22.2280   -9.4840   20.1830 C   0  0  0  0  0  3  0  0  0  0  0  0
  -22.9450  -10.6870   20.0760 C   0  0  0  0  0  3  0  0  0  0  0  0
  -21.8900   -7.3310   21.1040 O   0  0  0  0  0  0  0  0  0  0  0  0
  -21.8340   -6.5270   22.2150 C   0  0  0  0  0  0  0  0  0  0  0  0
  -21.4110   -7.0190   23.4690 C   0  0  0  0  0  3  0  0  0  0  0  0
  -21.3030   -6.1430   24.5690 C   0  0  0  0  0  3  0  0  0  0  0  0
  -21.6040   -4.7770   24.4140 C   0  0  0  0  0  0  0  0  0  0  0  0
  -22.0200   -4.2840   23.1640 C   0  0  0  0  0  3  0  0  0  0  0  0
  -22.1300   -5.1570   22.0660 C   0  0  0  0  0  0  0  0  0  0  0  0
  -22.5100   -4.6740   20.8590 F   0  0  0  0  0  0  0  0  0  0  0  0
  -21.4920   -3.9340   25.4660 F   0  0  0  0  0  0  0  0  0  0  0  0
  -22.9030  -13.9880   21.0580 C   0  0  0  0  0  0  0  0  0  0  0  0
  -22.1550  -13.2600   21.8790 N   0  0  0  0  0  0  0  0  0  0  0  0
  -22.4690  -15.0220   20.5480 O   0  0  0  0  0  0  0  0  0  0  0  0
  -22.5190  -12.4230   22.3100 H   0  0  0  0  0  0  0  0  0  0  0  0
  -21.2060  -13.5410   22.0760 H   0  0  0  0  0  0  0  0  0  0  0  0
  -25.5440  -15.7140   20.4050 N   0  0  0  0  0  0  0  0  0  0  0  0
  -24.7670  -16.3590   20.5050 H   0  0  0  0  0  0  0  0  0  0  0  0
  -26.4050  -16.1710   20.1250 H   0  0  0  0  0  0  0  0  0  0  0  0
  -27.6300  -24.6170   19.7470 C   0  0  0  0  0  3  0  0  0  0  0  0
  -26.7990  -24.9950   22.0640 C   0  0  0  0  0  0  0  0  0  0  0  0
  -27.7970  -24.7620   21.1960 N   0  0  0  0  0  0  0  0  0  0  0  0
  -25.6120  -25.0440   21.7230 O   0  0  0  0  0  0  0  0  0  0  0  0
  -28.7420  -24.7720   21.5530 H   0  0  0  0  0  0  0  0  0  0  0  0
  -27.1760  -25.2220   23.5250 C   0  0  0  0  0  2  0  0  0  0  0  0
  -26.0180  -25.6810   24.3150 N   0  0  0  0  0  4  0  0  0  0  0  0
  -26.3030  -25.9750   25.2290 H   0  0  0  0  0  0  0  0  0  0  0  0
  -25.3430  -24.9410   24.3890 H   0  0  0  0  0  0  0  0  0  0  0  0
  -25.5830  -26.4470   23.8320 H   0  0  0  0  0  0  0  0  0  0  0  0
  -28.4890  -25.6490   18.9570 C   0  0  0  0  0  2  0  0  0  0  0  0
  -28.4610  -27.0010   19.4450 O   0  0  0  0  0  0  0  0  0  0  0  0
  -24.6860  -31.7840   23.1050 C   0  0  0  0  0  0  0  0  0  0  0  0
  -27.2680  -27.6960   19.5120 C   0  0  0  0  0  0  0  0  0  0  0  0
  -23.4340  -30.5140   21.3930 C   0  0  0  0  0  3  0  0  0  0  0  0
  -24.8500  -29.1500   19.7740 C   0  0  0  0  0  0  0  0  0  0  0  0
  -25.9420  -30.9410   21.1230 C   0  0  0  0  0  2  0  0  0  0  0  0
  -26.0230  -29.6320   20.3660 C   0  0  0  0  0  0  0  0  0  0  0  0
  -27.2310  -28.9070   20.2450 C   0  0  0  0  0  3  0  0  0  0  0  0
  -26.0820  -27.2590   18.8790 C   0  0  0  0  0  3  0  0  0  0  0  0
  -24.8760  -27.9600   19.0340 C   0  0  0  0  0  3  0  0  0  0  0  0
  -23.5980  -29.9750   19.9480 C   0  0  0  0  0  2  0  0  0  0  0  0
  -24.7080  -31.0910   21.9320 N   0  0  0  0  0  0  0  0  0  0  0  0
  -23.6240  -31.9820   23.7130 O   0  0  0  0  0  0  0  0  0  0  0  0
  -22.8440  -29.3930   22.2800 C   0  0  0  0  0  0  0  0  0  0  0  0
  -21.5240  -29.1770   22.1720 N   0  0  0  0  0  0  0  0  0  0  0  0
  -23.5720  -28.7240   23.0180 O   0  0  0  0  0  0  0  0  0  0  0  0
  -20.9950  -29.7780   21.5550 H   0  0  0  0  0  0  0  0  0  0  0  0
  -18.2100  -27.8110   22.6410 C   0  0  0  0  0  0  0  0  0  0  0  0
  -20.7620  -28.1520   22.8850 C   0  0  0  0  0  3  0  0  0  0  0  0
  -20.9090  -26.7730   22.2020 C   0  0  0  0  0  2  0  0  0  0  0  0
  -19.8010  -26.4790   21.1850 C   0  0  0  0  0  2  0  0  0  0  0  0
  -18.4260  -26.5210   21.8630 C   0  0  0  0  0  2  0  0  0  0  0  0
  -19.3080  -28.5820   23.1080 C   0  0  0  0  0  0  0  0  0  0  0  0
  -19.0570  -29.7870   23.7980 C   0  0  0  0  0  3  0  0  0  0  0  0
  -17.7400  -30.2240   24.0260 C   0  0  0  0  0  3  0  0  0  0  0  0
  -16.6550  -29.4520   23.5750 C   0  0  0  0  0  3  0  0  0  0  0  0
  -16.8910  -28.2460   22.8880 C   0  0  0  0  0  3  0  0  0  0  0  0
  -25.9860  -32.3850   23.7250 C   0  0  0  0  0  3  0  0  0  0  0  0
  -26.6050  -31.4830   24.8630 C   0  0  1  0  0  0  0  0  0  0  0  0
  -25.5900  -31.0800   25.9570 C   0  0  0  0  0  1  0  0  0  0  0  0
  -27.2050  -30.1840   24.2740 C   0  0  0  0  0  1  0  0  0  0  0  0
  -27.7710  -32.2340   25.5490 C   0  0  0  0  0  1  0  0  0  0  0  0
  -25.6530  -33.7200   24.2400 N   0  0  0  0  0  0  0  0  0  0  0  0
  -25.9080  -34.8680   23.5980 C   0  0  0  0  0  0  0  0  0  0  0  0
  -26.5270  -34.9150   22.5290 O   0  0  0  0  0  0  0  0  0  0  0  0
  -25.0940  -33.7530   25.0820 H   0  0  0  0  0  0  0  0  0  0  0  0
  -24.1080  -36.6260   23.5420 C   0  0  0  0  0  1  0  0  0  0  0  0
  -25.3980  -36.1710   24.2410 C   0  0  0  0  0  3  0  0  0  0  0  0
  -27.5450  -37.0300   25.0710 C   0  0  0  0  0  1  0  0  0  0  0  0
  -26.3900  -37.2670   24.2090 N   0  0  0  0  0  0  0  0  0  0  0  0
  -25.9610  -38.1470   24.4840 H   0  0  0  0  0  0  0  0  0  0  0  0
  1  2  1  0
  1 55  1  0
  1 11  1  0
  3  2  1  0
  4  3  1  0
  4  5  1  0
  5  8  1  0
  5  7  1  0
  6  4  2  0
  9  6  1  0
 10  6  1  0
 12 13  1  0
 12 11  1  0
 13 14  1  0
 14 15  1  0
 15 16  1  0
 17 25  1  0
 18 23  1  0
 19 20  1  0
 19 18  1  0
 21 20  1  0
 21 30  1  0
 21 22  1  0
 23 17  1  0
 23 22  1  0
 24 17  2  0
 25 26  1  0
 25 16  1  0
 27 28  2  0
 28 47  1  0
 29 28  1  0
 29 32  1  0
 30 31  1  0
 30 27  1  0
 31 29  2  0
 32 33  1  0
 33 34  2  0
 35 38  1  0
 35 34  1  0
 36 35  2  0
 37 36  1  0
 37 32  2  0
 38 39  1  0
 39 40  1  0
 40 41  2  0
 42 41  1  0
 42 46  1  0
 43 42  2  0
 44 39  2  0
 44 43  1  0
 45 44  1  0
 47 48  1  0
 48 51  1  0
 48 50  1  0
 49 47  2  0
 52 53  1  0
 52 27  1  0
 54 52  1  0
 55 65  1  0
 55 57  1  0
 56 60  1  0
 57 59  1  0
 57 56  1  0
 58 56  2  0
 60 61  1  0
 61 63  1  0
 61 62  1  0
 64 61  1  0
 65 66  1  0
 66 68  1  0
 67 78  2  0
 68 73  1  0
 69 77  1  0
 69 79  1  0
 70 76  1  0
 70 72  1  0
 71 77  1  0
 72 71  1  0
 73 72  2  0
 74 75  1  0
 74 68  2  0
 75 70  2  0
 76 69  1  0
 77 67  1  0
 79 81  2  0
 80 79  1  0
 82 80  1  0
 83 92  2  0
 83 88  1  0
 84 80  1  0
 84 88  1  0
 85 84  1  0
 86 87  1  0
 86 85  1  0
 87 83  1  0
 88 89  2  0
 89 90  1  0
 91 90  2  0
 92 91  1  0
 93 67  1  0
 93 98  1  0
 93 94  1  0
 94 97  1  1
 94 95  1  0
 96 94  1  0
 98101  1  0
 99 98  1  0
 99103  1  0
100 99  2  0
103102  1  0
105103  1  0
105106  1  0
105104  1  0
M  ISO  4  17 100  25 100  65 101  66 101
M  END
>  <TORSDO>  (40) 
F 30

>  <SCORE>  (40) 
-10.175

>  <name>  (40) 
39

>  <ligand_id>  (40) 
39

>  <original_smiles>  (40) 
[H]c1c([H])c([H])c2c(c1[H])C([H])([H])C([H])([H])C([H])([H])C2([H])N([H])C(=O)C1([H])N(C(=O)C([H])(N([H])C(=O)C([H])(N([H])C([H])([H])[H])C([H])([H])[H])C(C([H])([H])[H])(C([H])([H])[H])C([H])([H])[H])C([H])([H])c2c([H])c(OC([H])([H])C([H])(N([H])C(=O)C([H])([H])[N+]([H])([H])[H])C([H])(C([H])([H])C([H])([H])C(N([H])[H])=[N+]([H])[H])C([H])([H])C([H])([H])C([H])([H])C([H])([H])C([H])([H])C([H])([H])N([H])C(=O)N3C([H])([H])C([H])([H])C([H])([H])C([H])(n4nc(-c5c([H])c([H])c(Oc6c([H])c([H])c(F)c([H])c6F)c([H])c5[H])c(C(=O)N([H])[H])c4N([H])[H])C3([H])[H])c([H])c([H])c2C1([H])[H]

>  <smiles>  (40) 
[H]c1c([H])c([H])c2c(c1[H])C([H])([H])C([H])([H])C([H])([H])C2([H])N([H])C(=O)C1([H])N(C(=O)C([H])(N([H])C(=O)C([H])(N([H])C([H])([H])[H])C([H])([H])[H])C(C([H])([H])[H])(C([H])([H])[H])C([H])([H])[H])C([H])([H])c2c([H])c(OC([H])([H])C([H])(N([H])C(=O)C([H])([H])[N+]([H])([H])[H])C([H])(C([H])([H])C([H])([H])C(N([H])[H])=[N+]([H])[H])C([H])([H])C([H])([H])C([H])([H])C([H])([H])C([H])([H])C([H])([H])N([H])C(=O)N3C([H])([H])C([H])([H])C([H])([H])C([H])(n4nc(-c5c([H])c([H])c(Oc6c([H])c([H])c(F)c([H])c6F)c([H])c5[H])c(C(=O)N([H])[H])c4N([H])[H])C3([H])[H])c([H])c([H])c2C1([H])[H]

$$$$
40:0:0
     RDKit          3D

 95102  0  0  1  0  0  0  0  0999 V2000
  -29.1490  -22.3780   19.8750 C   0  0  0  0  0  3  0  0  0  0  0  0
  -30.3880  -15.6180   20.2700 C   0  0  0  0  0  0  0  0  0  0  0  0
  -30.3940  -13.1200   19.3670 C   0  0  0  0  0  2  0  0  0  0  0  0
  -29.5080  -12.7490   18.1530 C   0  0  0  0  0  2  0  0  0  0  0  0
  -28.0780  -12.4130   18.6080 C   0  0  0  0  0  2  0  0  0  0  0  0
  -27.5770  -13.3980   19.6940 C   0  0  0  0  0  3  0  0  0  0  0  0
  -28.6180  -13.7020   20.7940 C   0  0  0  0  0  2  0  0  0  0  0  0
  -29.7760  -14.3120   20.0990 N   0  0  0  0  0  0  0  0  0  0  0  0
  -31.6220  -15.4300   20.2600 O   0  0  0  0  0  0  0  0  0  0  0  0
  -30.5020  -17.3510   18.5530 C   0  0  0  0  0  2  0  0  0  0  0  0
  -29.1620  -18.6140   20.2600 C   0  0  0  0  0  2  0  0  0  0  0  0
  -31.8660  -18.0470   18.7120 C   0  0  0  0  0  2  0  0  0  0  0  0
  -31.0420  -20.2710   19.4460 C   0  0  0  0  0  2  0  0  0  0  0  0
  -29.6730  -20.4740   20.2210 C   0  0  0  0  0  2  0  0  0  0  0  0
  -29.8890  -17.0420   19.8570 N   0  0  0  0  0  0  0  0  0  0  0  0
  -31.8290  -19.0690   19.7800 N   0  0  0  0  0  4  0  0  0  0  0  0
  -32.7750  -19.3690   19.9520 H   0  0  0  0  0  0  0  0  0  0  0  0
  -31.4750  -18.6650   20.6310 H   0  0  0  0  0  0  0  0  0  0  0  0
  -25.2100  -13.9130   20.4520 C   0  0  0  0  0  0  0  0  0  0  0  0
  -24.1540  -13.1270   20.8150 C   0  0  0  0  0  0  0  0  0  0  0  0
  -24.6390  -11.7810   20.8020 C   0  0  0  0  0  0  0  0  0  0  0  0
  -26.2630  -13.0510   20.2200 N   0  0  0  0  0  0  0  0  0  0  0  0
  -25.9350  -11.7610   20.4990 N   0  0  0  0  0  0  0  0  0  0  0  0
  -23.9230  -10.5120   20.9920 C   0  0  0  0  0  0  0  0  0  0  0  0
  -24.3440   -9.5590   21.9450 C   0  0  0  0  0  3  0  0  0  0  0  0
  -23.6210   -8.3590   22.1250 C   0  0  0  0  0  3  0  0  0  0  0  0
  -22.4640   -8.1020   21.3530 C   0  0  0  0  0  0  0  0  0  0  0  0
  -22.0620   -9.0440   20.3900 C   0  0  0  0  0  3  0  0  0  0  0  0
  -22.7840  -10.2350   20.2070 C   0  0  0  0  0  3  0  0  0  0  0  0
  -21.7180   -6.9500   21.4390 O   0  0  0  0  0  0  0  0  0  0  0  0
  -21.6470   -6.2230   22.6010 C   0  0  0  0  0  0  0  0  0  0  0  0
  -21.1770   -6.7880   23.8070 C   0  0  0  0  0  3  0  0  0  0  0  0
  -21.0560   -5.9870   24.9600 C   0  0  0  0  0  3  0  0  0  0  0  0
  -21.3950   -4.6210   24.9080 C   0  0  0  0  0  0  0  0  0  0  0  0
  -21.8590   -4.0560   23.7070 C   0  0  0  0  0  3  0  0  0  0  0  0
  -21.9800   -4.8550   22.5560 C   0  0  0  0  0  0  0  0  0  0  0  0
  -22.4080   -4.2990   21.3970 F   0  0  0  0  0  0  0  0  0  0  0  0
  -21.2740   -3.8500   26.0140 F   0  0  0  0  0  0  0  0  0  0  0  0
  -22.7460  -13.5910   21.0570 C   0  0  0  0  0  0  0  0  0  0  0  0
  -22.0070  -12.8980   21.9150 N   0  0  0  0  0  0  0  0  0  0  0  0
  -22.3090  -14.6060   20.5160 O   0  0  0  0  0  0  0  0  0  0  0  0
  -22.3680  -12.0830   22.3820 H   0  0  0  0  0  0  0  0  0  0  0  0
  -21.0580  -13.1930   22.1030 H   0  0  0  0  0  0  0  0  0  0  0  0
  -25.3580  -15.2850   20.2630 N   0  0  0  0  0  0  0  0  0  0  0  0
  -24.5830  -15.9310   20.3600 H   0  0  0  0  0  0  0  0  0  0  0  0
  -26.2120  -15.7280   19.9470 H   0  0  0  0  0  0  0  0  0  0  0  0
  -30.8410  -24.5350   20.3000 C   0  0  0  0  0  1  0  0  0  0  0  0
  -30.5790  -23.0380   20.0400 C   0  0  0  0  0  2  0  0  0  0  0  0
  -28.6940  -22.3240   18.3840 C   0  0  0  0  0  2  0  0  0  0  0  0
  -28.9200  -23.5790   17.6350 N   0  0  0  0  0  4  0  0  0  0  0  0
  -28.6010  -24.3800   18.1550 H   0  0  0  0  0  0  0  0  0  0  0  0
  -28.4220  -23.5520   16.7630 H   0  0  0  0  0  0  0  0  0  0  0  0
  -29.8960  -23.7030   17.4230 H   0  0  0  0  0  0  0  0  0  0  0  0
  -28.1430  -23.9160   20.4470 C   0  0  0  0  0  2  0  0  0  0  0  0
  -28.2060  -25.6510   20.2330 O   0  0  0  0  0  0  0  0  0  0  0  0
  -24.6050  -31.8670   23.1320 C   0  0  0  0  0  0  0  0  0  0  0  0
  -27.1890  -26.8080   20.2270 C   0  0  0  0  0  0  0  0  0  0  0  0
  -23.4370  -30.4360   21.5110 C   0  0  0  0  0  3  0  0  0  0  0  0
  -24.9010  -28.7860   20.1330 C   0  0  0  0  0  0  0  0  0  0  0  0
  -26.0120  -30.6130   21.3930 C   0  0  0  0  0  2  0  0  0  0  0  0
  -26.0920  -29.1750   20.7580 C   0  0  0  0  0  0  0  0  0  0  0  0
  -27.2260  -28.2150   20.7670 C   0  0  0  0  0  3  0  0  0  0  0  0
  -25.9600  -26.6110   19.5550 C   0  0  0  0  0  3  0  0  0  0  0  0
  -24.8710  -27.5290   19.5060 C   0  0  0  0  0  3  0  0  0  0  0  0
  -23.6870  -29.7240   20.1530 C   0  0  0  0  0  2  0  0  0  0  0  0
  -24.7090  -31.0050   22.0650 N   0  0  0  0  0  0  0  0  0  0  0  0
  -23.5070  -32.1640   23.6340 O   0  0  0  0  0  0  0  0  0  0  0  0
  -22.7280  -29.4620   22.4920 C   0  0  0  0  0  0  0  0  0  0  0  0
  -21.3930  -29.3150   22.3780 N   0  0  0  0  0  0  0  0  0  0  0  0
  -23.3870  -28.8390   23.3260 O   0  0  0  0  0  0  0  0  0  0  0  0
  -20.9130  -29.8650   21.6810 H   0  0  0  0  0  0  0  0  0  0  0  0
  -17.9990  -28.1440   22.9350 C   0  0  0  0  0  0  0  0  0  0  0  0
  -20.5660  -28.3880   23.1600 C   0  0  0  0  0  3  0  0  0  0  0  0
  -20.6460  -26.9550   22.5830 C   0  0  0  0  0  2  0  0  0  0  0  0
  -19.5250  -26.6430   21.5850 C   0  0  0  0  0  2  0  0  0  0  0  0
  -18.1550  -26.7980   22.2490 C   0  0  0  0  0  2  0  0  0  0  0  0
  -19.1310  -28.8980   23.3470 C   0  0  0  0  0  0  0  0  0  0  0  0
  -18.9270  -30.1570   23.9550 C   0  0  0  0  0  3  0  0  0  0  0  0
  -17.6280  -30.6610   24.1500 C   0  0  0  0  0  3  0  0  0  0  0  0
  -16.5120  -29.9050   23.7500 C   0  0  0  0  0  3  0  0  0  0  0  0
  -16.6990  -28.6490   23.1480 C   0  0  0  0  0  3  0  0  0  0  0  0
  -25.8600  -32.5350   23.7720 C   0  0  0  0  0  3  0  0  0  0  0  0
  -26.3710  -31.7780   25.0610 C   0  0  1  0  0  0  0  0  0  0  0  0
  -25.2680  -31.5330   26.1200 C   0  0  0  0  0  1  0  0  0  0  0  0
  -26.9770  -30.4050   24.6980 C   0  0  0  0  0  1  0  0  0  0  0  0
  -27.5080  -32.5900   25.7270 C   0  0  0  0  0  1  0  0  0  0  0  0
  -25.5180  -33.9290   24.1110 N   0  0  0  0  0  0  0  0  0  0  0  0
  -25.8460  -35.0040   23.3780 C   0  0  0  0  0  0  0  0  0  0  0  0
  -26.5250  -34.9240   22.3520 O   0  0  0  0  0  0  0  0  0  0  0  0
  -24.9110  -34.0620   24.9060 H   0  0  0  0  0  0  0  0  0  0  0  0
  -24.1090  -36.7970   23.0370 C   0  0  0  0  0  1  0  0  0  0  0  0
  -25.3430  -36.3830   23.8560 C   0  0  0  0  0  3  0  0  0  0  0  0
  -27.4590  -37.2740   24.7320 C   0  0  0  0  0  1  0  0  0  0  0  0
  -26.3700  -37.4460   23.7740 N   0  0  0  0  0  0  0  0  0  0  0  0
  -25.9570  -38.3640   23.9250 H   0  0  0  0  0  0  0  0  0  0  0  0
  1 49  1  0
  1 48  1  0
  1 54  1  0
  3  8  1  0
  4  5  1  0
  4  3  1  0
  6  5  1  0
  6 22  1  0
  6  7  1  0
  8  2  1  0
  8  7  1  0
  9  2  2  0
 10 12  1  0
 10 15  1  0
 12 16  1  0
 13 16  1  0
 13 14  1  0
 14 11  1  0
 15 11  1  0
 15  2  1  0
 16 17  1  0
 16 18  1  0
 19 20  2  0
 20 39  1  0
 21 20  1  0
 21 24  1  0
 22 19  1  0
 22 23  1  0
 23 21  2  0
 24 25  1  0
 25 26  2  0
 27 30  1  0
 27 26  1  0
 28 27  2  0
 29 28  1  0
 29 24  2  0
 30 31  1  0
 31 32  1  0
 32 33  2  0
 34 33  1  0
 34 38  1  0
 35 34  2  0
 36 31  2  0
 36 35  1  0
 37 36  1  0
 39 40  1  0
 40 43  1  0
 40 42  1  0
 41 39  2  0
 44 45  1  0
 44 19  1  0
 46 44  1  0
 48 47  1  0
 50 51  1  0
 50 49  1  0
 52 50  1  0
 53 50  1  0
 55 54  1  0
 56 67  2  0
 57 55  1  0
 57 62  1  0
 58 66  1  0
 58 68  1  0
 59 65  1  0
 59 61  1  0
 60 66  1  0
 61 62  2  0
 61 60  1  0
 63 57  2  0
 64 63  1  0
 64 59  2  0
 65 58  1  0
 66 56  1  0
 68 70  2  0
 69 68  1  0
 71 69  1  0
 72 81  2  0
 72 77  1  0
 73 69  1  0
 73 77  1  0
 74 73  1  0
 75 76  1  0
 75 74  1  0
 76 72  1  0
 77 78  2  0
 78 79  1  0
 80 79  2  0
 81 80  1  0
 82 56  1  0
 82 87  1  0
 82 83  1  0
 83 86  1  1
 83 84  1  0
 85 83  1  0
 87 90  1  0
 88 92  1  0
 88 87  1  0
 89 88  2  0
 92 91  1  0
 94 92  1  0
 94 95  1  0
 94 93  1  0
M  ISO  4   2 100  15 100  54 101  55 101
M  END
>  <TORSDO>  (41) 
F 20

>  <SCORE>  (41) 
-15.516

>  <name>  (41) 
40

>  <ligand_id>  (41) 
40

>  <original_smiles>  (41) 
[H]c1c([H])c([H])c2c(c1[H])C([H])([H])C([H])([H])C([H])([H])C2([H])N([H])C(=O)C1([H])N(C(=O)C([H])(N([H])C(=O)C([H])(N([H])C([H])([H])[H])C([H])([H])[H])C(C([H])([H])[H])(C([H])([H])[H])C([H])([H])[H])C([H])([H])c2c([H])c(OC([H])([H])C(C([H])([H])C([H])([H])[H])(C3([H])C([H])([H])N(C(=O)N4C([H])([H])C([H])([H])C([H])([H])C([H])(n5nc(-c6c([H])c([H])c(Oc7c([H])c([H])c(F)c([H])c7F)c([H])c6[H])c(C(=O)N([H])[H])c5N([H])[H])C4([H])[H])C([H])([H])C([H])([H])[N+]([H])([H])C3([H])[H])C([H])([H])[N+]([H])([H])[H])c([H])c([H])c2C1([H])[H]

>  <smiles>  (41) 
[H]c1c([H])c([H])c2c(c1[H])C([H])([H])C([H])([H])C([H])([H])C2([H])N([H])C(=O)C1([H])N(C(=O)C([H])(N([H])C(=O)C([H])(N([H])C([H])([H])[H])C([H])([H])[H])C(C([H])([H])[H])(C([H])([H])[H])C([H])([H])[H])C([H])([H])c2c([H])c(OC([H])([H])C(C([H])([H])C([H])([H])[H])(C3([H])C([H])([H])N(C(=O)N4C([H])([H])C([H])([H])C([H])([H])C([H])(n5nc(-c6c([H])c([H])c(Oc7c([H])c([H])c(F)c([H])c7F)c([H])c6[H])c(C(=O)N([H])[H])c5N([H])[H])C4([H])[H])C([H])([H])C([H])([H])[N+]([H])([H])C3([H])[H])C([H])([H])[N+]([H])([H])[H])c([H])c([H])c2C1([H])[H]

$$$$
41:0:0
     RDKit          3D

 97105  0  0  1  0  0  0  0  0999 V2000
  -28.1720  -19.4020   18.8430 C   0  0  0  0  0  2  0  0  0  0  0  0
  -29.2890  -21.1840   20.2270 C   0  0  0  0  0  2  0  0  0  0  0  0
  -27.3420  -21.9420   18.8400 C   0  0  0  0  0  2  0  0  0  0  0  0
  -28.9340  -19.4500   20.1780 C   0  0  0  0  0  3  0  0  0  0  0  0
  -26.9650  -20.4040   18.6850 C   0  0  1  0  0  0  0  0  0  0  0  0
  -28.1430  -22.5200   20.0640 C   0  0  1  0  0  0  0  0  0  0  0  0
  -30.5150  -15.3170   20.7140 C   0  0  0  0  0  0  0  0  0  0  0  0
  -30.5670  -12.7980   20.1300 C   0  0  0  0  0  2  0  0  0  0  0  0
  -29.7850  -12.4360   18.8450 C   0  0  0  0  0  2  0  0  0  0  0  0
  -28.3070  -12.1760   19.1760 C   0  0  0  0  0  2  0  0  0  0  0  0
  -27.7280  -13.2530   20.1270 C   0  0  0  0  0  3  0  0  0  0  0  0
  -28.6530  -13.5760   21.3200 C   0  0  0  0  0  2  0  0  0  0  0  0
  -29.9330  -14.0190   20.7500 N   0  0  0  0  0  0  0  0  0  0  0  0
  -31.7490  -15.2710   20.6380 O   0  0  0  0  0  0  0  0  0  0  0  0
  -29.9990  -18.0710   20.3280 C   0  0  0  0  0  0  0  0  0  0  0  0
  -29.8240  -16.6230   20.5840 N   0  0  0  0  0  0  0  0  0  0  0  0
  -31.1760  -18.4040   20.2060 O   0  0  0  0  0  0  0  0  0  0  0  0
  -30.8170  -16.8170   20.6300 H   0  0  0  0  0  0  0  0  0  0  0  0
  -25.3100  -13.8360   20.6740 C   0  0  0  0  0  0  0  0  0  0  0  0
  -24.2170  -13.0740   20.9750 C   0  0  0  0  0  0  0  0  0  0  0  0
  -24.6800  -11.7240   21.0270 C   0  0  0  0  0  0  0  0  0  0  0  0
  -26.3640  -12.9530   20.5430 N   0  0  0  0  0  0  0  0  0  0  0  0
  -25.9920  -11.6770   20.8240 N   0  0  0  0  0  0  0  0  0  0  0  0
  -23.9340  -10.4700   21.1940 C   0  0  0  0  0  0  0  0  0  0  0  0
  -24.3160   -9.5030   22.1500 C   0  0  0  0  0  3  0  0  0  0  0  0
  -23.5670   -8.3160   22.3050 C   0  0  0  0  0  3  0  0  0  0  0  0
  -22.4230   -8.0880   21.5050 C   0  0  0  0  0  0  0  0  0  0  0  0
  -22.0600   -9.0440   20.5400 C   0  0  0  0  0  3  0  0  0  0  0  0
  -22.8090  -10.2220   20.3820 C   0  0  0  0  0  3  0  0  0  0  0  0
  -21.6520   -6.9520   21.5680 O   0  0  0  0  0  0  0  0  0  0  0  0
  -21.5880   -6.1880   22.7070 C   0  0  0  0  0  0  0  0  0  0  0  0
  -21.1620   -6.7240   23.9420 C   0  0  0  0  0  3  0  0  0  0  0  0
  -21.0450   -5.8870   25.0690 C   0  0  0  0  0  3  0  0  0  0  0  0
  -21.3420   -4.5160   24.9630 C   0  0  0  0  0  0  0  0  0  0  0  0
  -21.7610   -3.9790   23.7330 C   0  0  0  0  0  3  0  0  0  0  0  0
  -21.8790   -4.8130   22.6070 C   0  0  0  0  0  0  0  0  0  0  0  0
  -22.2630   -4.2860   21.4180 F   0  0  0  0  0  0  0  0  0  0  0  0
  -21.2240   -3.7100   26.0440 F   0  0  0  0  0  0  0  0  0  0  0  0
  -22.8060  -13.5650   21.1100 C   0  0  0  0  0  0  0  0  0  0  0  0
  -22.0060  -12.9100   21.9440 N   0  0  0  0  0  0  0  0  0  0  0  0
  -22.4180  -14.5680   20.5100 O   0  0  0  0  0  0  0  0  0  0  0  0
  -22.3310  -12.1020   22.4520 H   0  0  0  0  0  0  0  0  0  0  0  0
  -21.0540  -13.2240   22.0780 H   0  0  0  0  0  0  0  0  0  0  0  0
  -25.4940  -15.1970   20.4690 N   0  0  0  0  0  0  0  0  0  0  0  0
  -24.7300  -15.8610   20.5030 H   0  0  0  0  0  0  0  0  0  0  0  0
  -26.3810  -15.6200   20.2270 H   0  0  0  0  0  0  0  0  0  0  0  0
  -25.2750  -21.0150   16.7370 C   0  0  0  0  0  1  0  0  0  0  0  0
  -26.4970  -20.2080   17.2080 C   0  0  0  0  0  2  0  0  0  0  0  0
  -25.1990  -18.6310   19.5070 C   0  0  0  0  0  1  0  0  0  0  0  0
  -25.8020  -20.0370   19.6560 C   0  0  0  0  0  2  0  0  0  0  0  0
  -27.3780  -22.4750   21.4290 C   0  0  0  0  0  2  0  0  0  0  0  0
  -26.0080  -23.0290   21.4200 N   0  0  0  0  0  4  0  0  0  0  0  0
  -26.0070  -24.0020   21.1690 H   0  0  0  0  0  0  0  0  0  0  0  0
  -25.6170  -22.9510   22.3430 H   0  0  0  0  0  0  0  0  0  0  0  0
  -25.4100  -22.5270   20.7890 H   0  0  0  0  0  0  0  0  0  0  0  0
  -28.3460  -24.2920   19.6680 C   0  0  0  0  0  2  0  0  0  0  0  0
  -28.2600  -25.8980   20.0500 O   0  0  0  0  0  0  0  0  0  0  0  0
  -24.6560  -31.7650   23.0550 C   0  0  0  0  0  0  0  0  0  0  0  0
  -27.2110  -26.9500   19.9590 C   0  0  0  0  0  0  0  0  0  0  0  0
  -23.4480  -30.3730   21.4190 C   0  0  0  0  0  3  0  0  0  0  0  0
  -24.8890  -28.7920   19.9580 C   0  0  0  0  0  0  0  0  0  0  0  0
  -26.0070  -30.6090   21.2390 C   0  0  0  0  0  2  0  0  0  0  0  0
  -26.0770  -29.2090   20.5690 C   0  0  0  0  0  0  0  0  0  0  0  0
  -27.2280  -28.3050   20.5490 C   0  0  0  0  0  3  0  0  0  0  0  0
  -25.9950  -26.6810   19.2930 C   0  0  0  0  0  3  0  0  0  0  0  0
  -24.8700  -27.5500   19.3010 C   0  0  0  0  0  3  0  0  0  0  0  0
  -23.6620  -29.7000   20.0330 C   0  0  0  0  0  2  0  0  0  0  0  0
  -24.7250  -30.9420   21.9570 N   0  0  0  0  0  0  0  0  0  0  0  0
  -23.5720  -32.0430   23.5930 O   0  0  0  0  0  0  0  0  0  0  0  0
  -22.7760  -29.3650   22.3860 C   0  0  0  0  0  0  0  0  0  0  0  0
  -21.4450  -29.2020   22.2880 N   0  0  0  0  0  0  0  0  0  0  0  0
  -23.4590  -28.7310   23.1950 O   0  0  0  0  0  0  0  0  0  0  0  0
  -20.9470  -29.7660   21.6120 H   0  0  0  0  0  0  0  0  0  0  0  0
  -18.0730  -27.9910   22.8460 C   0  0  0  0  0  0  0  0  0  0  0  0
  -20.6370  -28.2550   23.0640 C   0  0  0  0  0  3  0  0  0  0  0  0
  -20.7270  -26.8290   22.4710 C   0  0  0  0  0  2  0  0  0  0  0  0
  -19.6070  -26.5230   21.4690 C   0  0  0  0  0  2  0  0  0  0  0  0
  -18.2370  -26.6550   22.1410 C   0  0  0  0  0  2  0  0  0  0  0  0
  -19.1980  -28.7490   23.2640 C   0  0  0  0  0  0  0  0  0  0  0  0
  -18.9880  -29.9990   23.8860 C   0  0  0  0  0  3  0  0  0  0  0  0
  -17.6860  -30.4910   24.0920 C   0  0  0  0  0  3  0  0  0  0  0  0
  -16.5750  -29.7300   23.6890 C   0  0  0  0  0  3  0  0  0  0  0  0
  -16.7690  -28.4810   23.0730 C   0  0  0  0  0  3  0  0  0  0  0  0
  -25.9320  -32.4090   23.6750 C   0  0  0  0  0  3  0  0  0  0  0  0
  -25.6070  -33.7990   24.0400 N   0  0  0  0  0  0  0  0  0  0  0  0
  -25.9270  -34.8790   23.3150 C   0  0  0  0  0  0  0  0  0  0  0  0
  -26.5910  -34.8100   22.2780 O   0  0  0  0  0  0  0  0  0  0  0  0
  -25.0140  -33.9260   24.8470 H   0  0  0  0  0  0  0  0  0  0  0  0
  -24.1810  -36.6730   23.0380 C   0  0  0  0  0  1  0  0  0  0  0  0
  -25.4360  -36.2520   23.8180 C   0  0  0  0  0  3  0  0  0  0  0  0
  -27.5730  -37.1370   24.6450 C   0  0  0  0  0  1  0  0  0  0  0  0
  -26.4590  -37.3170   23.7200 N   0  0  0  0  0  0  0  0  0  0  0  0
  -26.0460  -38.2300   23.8930 H   0  0  0  0  0  0  0  0  0  0  0  0
  -26.4680  -31.6290   24.9390 C   0  0  1  0  0  0  0  0  0  0  0  0
  -25.3890  -31.3780   26.0200 C   0  0  0  0  0  1  0  0  0  0  0  0
  -27.0540  -30.2560   24.5370 C   0  0  0  0  0  1  0  0  0  0  0  0
  -27.6220  -32.4240   25.5960 C   0  0  0  0  0  1  0  0  0  0  0  0
  1  4  1  0
  3  6  1  0
  4  2  1  0
  4 15  1  0
  5  3  1  0
  5  1  1  0
  5 50  1  1
  6 56  1  6
  6  2  1  0
  6 51  1  0
  7 13  1  0
  8 13  1  0
  9 10  1  0
  9  8  1  0
 11 10  1  0
 11 22  1  0
 11 12  1  0
 13 12  1  0
 14  7  2  0
 15 16  1  0
 16 18  1  0
 16  7  1  0
 17 15  2  0
 19 20  2  0
 20 21  1  0
 20 39  1  0
 21 24  1  0
 22 19  1  0
 22 23  1  0
 23 21  2  0
 24 25  1  0
 25 26  2  0
 27 30  1  0
 27 26  1  0
 28 27  2  0
 29 28  1  0
 29 24  2  0
 30 31  1  0
 31 32  1  0
 32 33  2  0
 34 33  1  0
 34 38  1  0
 35 34  2  0
 36 31  2  0
 36 35  1  0
 37 36  1  0
 39 40  1  0
 40 43  1  0
 40 42  1  0
 41 39  2  0
 44 45  1  0
 44 19  1  0
 46 44  1  0
 47 48  1  0
 48  5  1  0
 49 50  1  0
 52 51  1  0
 52 54  1  0
 53 52  1  0
 55 52  1  0
 56 57  1  0
 58 69  2  0
 59 57  1  0
 59 64  1  0
 60 68  1  0
 60 70  1  0
 61 67  1  0
 61 63  1  0
 62 68  1  0
 63 62  1  0
 64 63  2  0
 65 66  1  0
 65 59  2  0
 66 61  2  0
 67 60  1  0
 68 58  1  0
 70 72  2  0
 71 70  1  0
 73 71  1  0
 74 83  2  0
 74 79  1  0
 75 71  1  0
 75 79  1  0
 76 75  1  0
 77 78  1  0
 77 76  1  0
 78 74  1  0
 79 80  2  0
 80 81  1  0
 82 81  2  0
 83 82  1  0
 84 58  1  0
 84 85  1  0
 84 94  1  0
 85 88  1  0
 86 90  1  0
 86 85  1  0
 87 86  2  0
 90 89  1  0
 92 90  1  0
 92 93  1  0
 92 91  1  0
 94 97  1  1
 94 95  1  0
 96 94  1  0
M  ISO  4   7 100  16 100  56 101  57 101
M  END
>  <TORSDO>  (42) 
F 21

>  <SCORE>  (42) 
-12.491

>  <name>  (42) 
41

>  <ligand_id>  (42) 
41

>  <original_smiles>  (42) 
[H]c1c([H])c([H])c2c(c1[H])C([H])([H])C([H])([H])C([H])([H])C2([H])N([H])C(=O)C1([H])N(C(=O)C([H])(N([H])C(=O)C([H])(N([H])C([H])([H])[H])C([H])([H])[H])C(C([H])([H])[H])(C([H])([H])[H])C([H])([H])[H])C([H])([H])c2c([H])c(OC([H])([H])C3(C([H])([H])[N+]([H])([H])[H])C([H])([H])C([H])(C(=O)N([H])C(=O)N4C([H])([H])C([H])([H])C([H])([H])C([H])(n5nc(-c6c([H])c([H])c(Oc7c([H])c([H])c(F)c([H])c7F)c([H])c6[H])c(C(=O)N([H])[H])c5N([H])[H])C4([H])[H])C([H])([H])C(C([H])([H])C([H])([H])[H])(C([H])([H])C([H])([H])[H])C3([H])[H])c([H])c([H])c2C1([H])[H]

>  <smiles>  (42) 
[H]c1c([H])c([H])c2c(c1[H])C([H])([H])C([H])([H])C([H])([H])C2([H])N([H])C(=O)C1([H])N(C(=O)C([H])(N([H])C(=O)C([H])(N([H])C([H])([H])[H])C([H])([H])[H])C(C([H])([H])[H])(C([H])([H])[H])C([H])([H])[H])C([H])([H])c2c([H])c(OC([H])([H])C3(C([H])([H])[N+]([H])([H])[H])C([H])([H])C([H])(C(=O)N([H])C(=O)N4C([H])([H])C([H])([H])C([H])([H])C([H])(n5nc(-c6c([H])c([H])c(Oc7c([H])c([H])c(F)c([H])c7F)c([H])c6[H])c(C(=O)N([H])[H])c5N([H])[H])C4([H])[H])C([H])([H])C(C([H])([H])C([H])([H])[H])(C([H])([H])C([H])([H])[H])C3([H])[H])c([H])c([H])c2C1([H])[H]

$$$$
42:0:0
     RDKit          3D

 95102  0  0  1  0  0  0  0  0999 V2000
  -28.7770  -21.4050   21.2560 C   0  0  0  0  0  3  0  0  0  0  0  0
  -29.1680  -21.7680   22.6370 N   0  0  0  0  0  4  0  0  0  0  0  0
  -30.0550  -22.2450   22.6500 H   0  0  0  0  0  0  0  0  0  0  0  0
  -29.2360  -20.9590   23.2310 H   0  0  0  0  0  0  0  0  0  0  0  0
  -28.4790  -22.3770   23.0440 H   0  0  0  0  0  0  0  0  0  0  0  0
  -29.5940  -20.1030   20.7590 C   0  0  0  0  0  2  0  0  0  0  0  0
  -29.4530  -18.6820   21.5090 C   0  0  0  0  0  2  0  0  0  0  0  0
  -29.5840  -17.2470   20.7540 C   0  0  0  0  0  0  0  0  0  0  0  0
  -31.0170  -15.0660   21.0340 C   0  0  0  0  0  0  0  0  0  0  0  0
  -30.8280  -12.8730   19.8670 C   0  0  0  0  0  2  0  0  0  0  0  0
  -29.9870  -13.0470   18.5860 C   0  0  0  0  0  2  0  0  0  0  0  0
  -28.4850  -12.8990   18.8940 C   0  0  0  0  0  2  0  0  0  0  0  0
  -28.0390  -13.6930   20.1520 C   0  0  0  0  0  3  0  0  0  0  0  0
  -29.0170  -13.5240   21.3330 C   0  0  0  0  0  2  0  0  0  0  0  0
  -30.3540  -13.8780   20.8430 N   0  0  0  0  0  0  0  0  0  0  0  0
  -32.2080  -15.1690   20.7340 O   0  0  0  0  0  0  0  0  0  0  0  0
  -30.3530  -16.1750   21.5030 N   0  0  0  0  0  4  0  0  0  0  0  0
  -30.9630  -16.6330   22.1640 H   0  0  0  0  0  0  0  0  0  0  0  0
  -25.6000  -14.2690   20.7070 C   0  0  0  0  0  0  0  0  0  0  0  0
  -24.5100  -13.4850   20.9590 C   0  0  0  0  0  0  0  0  0  0  0  0
  -24.9700  -12.1330   20.9000 C   0  0  0  0  0  0  0  0  0  0  0  0
  -26.6600  -13.3950   20.5180 N   0  0  0  0  0  0  0  0  0  0  0  0
  -26.2810  -12.1040   20.6960 N   0  0  0  0  0  0  0  0  0  0  0  0
  -24.2300  -10.8670   20.9750 C   0  0  0  0  0  0  0  0  0  0  0  0
  -24.6050   -9.8440   21.8740 C   0  0  0  0  0  3  0  0  0  0  0  0
  -23.8660   -8.6430   21.9410 C   0  0  0  0  0  3  0  0  0  0  0  0
  -22.7350   -8.4630   21.1100 C   0  0  0  0  0  0  0  0  0  0  0  0
  -22.3800   -9.4740   20.2010 C   0  0  0  0  0  3  0  0  0  0  0  0
  -23.1200  -10.6660   20.1310 C   0  0  0  0  0  3  0  0  0  0  0  0
  -21.9690   -7.3220   21.0940 O   0  0  0  0  0  0  0  0  0  0  0  0
  -21.8520   -6.5200   22.2000 C   0  0  0  0  0  0  0  0  0  0  0  0
  -21.3440   -7.0050   23.4260 C   0  0  0  0  0  3  0  0  0  0  0  0
  -21.1690   -6.1250   24.5120 C   0  0  0  0  0  3  0  0  0  0  0  0
  -21.4950   -4.7620   24.3780 C   0  0  0  0  0  0  0  0  0  0  0  0
  -22.0030   -4.2770   23.1590 C   0  0  0  0  0  3  0  0  0  0  0  0
  -22.1730   -5.1540   22.0730 C   0  0  0  0  0  0  0  0  0  0  0  0
  -22.6390   -4.6730   20.8930 F   0  0  0  0  0  0  0  0  0  0  0  0
  -21.3250   -3.9180   25.4220 F   0  0  0  0  0  0  0  0  0  0  0  0
  -23.0910  -13.9540   21.1410 C   0  0  0  0  0  0  0  0  0  0  0  0
  -22.2970  -13.2330   21.9240 N   0  0  0  0  0  0  0  0  0  0  0  0
  -22.6970  -15.0010   20.6280 O   0  0  0  0  0  0  0  0  0  0  0  0
  -22.6190  -12.3820   22.3620 H   0  0  0  0  0  0  0  0  0  0  0  0
  -21.3480  -13.5360   22.0910 H   0  0  0  0  0  0  0  0  0  0  0  0
  -25.7790  -15.6480   20.6020 N   0  0  0  0  0  0  0  0  0  0  0  0
  -25.0110  -16.3050   20.6930 H   0  0  0  0  0  0  0  0  0  0  0  0
  -26.6480  -16.0850   20.3350 H   0  0  0  0  0  0  0  0  0  0  0  0
  -29.8950  -17.3550   19.2260 C   0  0  0  0  0  2  0  0  0  0  0  0
  -29.5960  -19.0410   17.2880 C   0  0  0  0  0  1  0  0  0  0  0  0
  -27.7140  -17.5420   17.8670 C   0  0  0  0  0  1  0  0  0  0  0  0
  -28.9250  -18.2930   18.4490 C   0  0  0  0  0  3  0  0  0  0  0  0
  -28.8350  -22.7210   20.3210 C   0  0  0  0  0  2  0  0  0  0  0  0
  -26.6420  -23.8930   21.0230 C   0  0  0  0  0  1  0  0  0  0  0  0
  -28.1390  -24.1120   20.7540 C   0  0  0  0  0  3  0  0  0  0  0  0
  -28.3050  -25.3700   19.7690 C   0  0  0  0  0  2  0  0  0  0  0  0
  -28.2540  -26.7740   20.2600 O   0  0  0  0  0  0  0  0  0  0  0  0
  -24.5150  -32.1090   23.3580 C   0  0  0  0  0  0  0  0  0  0  0  0
  -27.1080  -27.5840   20.2180 C   0  0  0  0  0  0  0  0  0  0  0  0
  -23.3030  -30.7210   21.7180 C   0  0  0  0  0  3  0  0  0  0  0  0
  -24.7380  -29.1900   20.2550 C   0  0  0  0  0  0  0  0  0  0  0  0
  -25.8380  -31.0510   21.5100 C   0  0  0  0  0  2  0  0  0  0  0  0
  -25.9130  -29.6790   20.8420 C   0  0  0  0  0  0  0  0  0  0  0  0
  -27.0980  -28.8850   20.8150 C   0  0  0  0  0  3  0  0  0  0  0  0
  -25.9100  -27.1480   19.6100 C   0  0  0  0  0  3  0  0  0  0  0  0
  -24.7390  -27.9330   19.6320 C   0  0  0  0  0  3  0  0  0  0  0  0
  -23.5020  -30.0640   20.3280 C   0  0  0  0  0  2  0  0  0  0  0  0
  -24.5730  -31.3130   22.2510 N   0  0  0  0  0  0  0  0  0  0  0  0
  -23.4350  -32.3790   23.9020 O   0  0  0  0  0  0  0  0  0  0  0  0
  -22.6580  -29.6910   22.6750 C   0  0  0  0  0  0  0  0  0  0  0  0
  -21.3410  -29.4670   22.5260 N   0  0  0  0  0  0  0  0  0  0  0  0
  -23.3390  -29.0970   23.5140 O   0  0  0  0  0  0  0  0  0  0  0  0
  -20.8450  -30.0160   21.8360 H   0  0  0  0  0  0  0  0  0  0  0  0
  -18.0050  -28.1250   22.9420 C   0  0  0  0  0  0  0  0  0  0  0  0
  -20.5370  -28.5080   23.2840 C   0  0  0  0  0  3  0  0  0  0  0  0
  -20.7180  -27.0720   22.7450 C   0  0  0  0  0  2  0  0  0  0  0  0
  -19.6700  -26.6800   21.7010 C   0  0  0  0  0  2  0  0  0  0  0  0
  -18.2640  -26.7740   22.2980 C   0  0  0  0  0  2  0  0  0  0  0  0
  -19.0740  -28.9470   23.3870 C   0  0  0  0  0  0  0  0  0  0  0  0
  -18.7830  -30.2030   23.9550 C   0  0  0  0  0  3  0  0  0  0  0  0
  -17.4510  -30.6490   24.0710 C   0  0  0  0  0  3  0  0  0  0  0  0
  -16.3970  -29.8330   23.6290 C   0  0  0  0  0  3  0  0  0  0  0  0
  -16.6740  -28.5670   23.0820 C   0  0  0  0  0  3  0  0  0  0  0  0
  -25.8030  -32.7410   23.9730 C   0  0  0  0  0  3  0  0  0  0  0  0
  -26.3090  -31.9840   25.2620 C   0  0  1  0  0  0  0  0  0  0  0  0
  -25.2080  -31.7720   26.3290 C   0  0  0  0  0  1  0  0  0  0  0  0
  -26.9000  -30.5990   24.8980 C   0  0  0  0  0  1  0  0  0  0  0  0
  -27.4560  -32.7880   25.9180 C   0  0  0  0  0  1  0  0  0  0  0  0
  -25.5050  -34.1480   24.2800 N   0  0  0  0  0  0  0  0  0  0  0  0
  -25.8570  -35.1860   23.5130 C   0  0  0  0  0  0  0  0  0  0  0  0
  -26.5430  -35.0580   22.4950 O   0  0  0  0  0  0  0  0  0  0  0  0
  -24.9070  -34.3150   25.0750 H   0  0  0  0  0  0  0  0  0  0  0  0
  -24.1590  -36.9940   23.0930 C   0  0  0  0  0  1  0  0  0  0  0  0
  -25.3790  -36.5880   23.9380 C   0  0  0  0  0  3  0  0  0  0  0  0
  -27.5050  -37.4640   24.8050 C   0  0  0  0  0  1  0  0  0  0  0  0
  -26.4290  -37.6260   23.8290 N   0  0  0  0  0  0  0  0  0  0  0  0
  -26.0290  -38.5540   23.9510 H   0  0  0  0  0  0  0  0  0  0  0  0
  1 51  1  0
  1  2  1  0
  2  3  1  0
  2  5  1  0
  2  4  1  0
  6  1  1  0
  6  7  1  0
  8 17  2  0
  8  7  1  0
  9 17  1  0
 10 15  1  0
 11 12  1  0
 11 10  1  0
 13 12  1  0
 13 22  1  0
 13 14  1  0
 15  9  1  0
 15 14  1  0
 16  9  2  0
 17 18  1  0
 19 20  2  0
 20 39  1  0
 21 20  1  0
 21 24  1  0
 22 23  1  0
 22 19  1  0
 23 21  2  0
 24 25  1  0
 25 26  2  0
 27 26  1  0
 28 27  2  0
 29 28  1  0
 29 24  2  0
 30 27  1  0
 30 31  1  0
 31 32  1  0
 32 33  2  0
 34 33  1  0
 34 38  1  0
 35 34  2  0
 36 31  2  0
 36 35  1  0
 37 36  1  0
 39 40  1  0
 40 43  1  0
 40 42  1  0
 41 39  2  0
 44 45  1  0
 44 19  1  0
 46 44  1  0
 47  8  1  0
 48 50  1  0
 49 50  1  0
 50 47  1  0
 51 53  1  0
 53 52  1  0
 54 55  1  0
 54 53  1  0
 56 67  2  0
 57 55  1  0
 57 62  1  0
 58 66  1  0
 58 68  1  0
 59 65  1  0
 59 61  1  0
 60 66  1  0
 61 60  1  0
 62 61  2  0
 63 64  1  0
 63 57  2  0
 64 59  2  0
 65 58  1  0
 66 56  1  0
 68 70  2  0
 69 68  1  0
 71 69  1  0
 72 81  2  0
 72 77  1  0
 73 69  1  0
 73 77  1  0
 74 73  1  0
 75 76  1  0
 75 74  1  0
 76 72  1  0
 77 78  2  0
 78 79  1  0
 80 79  2  0
 81 80  1  0
 82 56  1  0
 82 87  1  0
 82 83  1  0
 83 86  1  1
 83 84  1  0
 85 83  1  0
 87 90  1  0
 88 92  1  0
 88 87  1  0
 89 88  2  0
 92 91  1  0
 94 92  1  0
 94 95  1  0
 94 93  1  0
M  ISO  4   9 100  17 100  54 101  55 101
M  END
>  <TORSDO>  (43) 
F 25

>  <SCORE>  (43) 
-11.308

>  <name>  (43) 
42

>  <ligand_id>  (43) 
42

>  <original_smiles>  (43) 
[H]c1c([H])c([H])c2c(c1[H])C([H])([H])C([H])([H])C([H])([H])C2([H])N([H])C(=O)C1([H])N(C(=O)C([H])(N([H])C(=O)C([H])(N([H])C([H])([H])[H])C([H])([H])[H])C(C([H])([H])[H])(C([H])([H])[H])C([H])([H])[H])C([H])([H])c2c([H])c(OC([H])([H])C([H])(C([H])([H])[H])C([H])([H])C([H])(C([H])([H])C([H])([H])C([H])(N([H])C(=O)N3C([H])([H])C([H])([H])C([H])([H])C([H])(n4nc(-c5c([H])c([H])c(Oc6c([H])c([H])c(F)c([H])c6F)c([H])c5[H])c(C(=O)N([H])[H])c4N([H])[H])C3([H])[H])C([H])([H])C([H])(C([H])([H])[H])C([H])([H])[H])[N+]([H])([H])[H])c([H])c([H])c2C1([H])[H]

>  <smiles>  (43) 
[H]c1c([H])c([H])c2c(c1[H])C([H])([H])C([H])([H])C([H])([H])C2([H])N([H])C(=O)C1([H])N(C(=O)C([H])(N([H])C(=O)C([H])(N([H])C([H])([H])[H])C([H])([H])[H])C(C([H])([H])[H])(C([H])([H])[H])C([H])([H])[H])C([H])([H])c2c([H])c(OC([H])([H])C([H])(C([H])([H])[H])C([H])([H])C([H])(C([H])([H])C([H])([H])C([H])(N([H])C(=O)N3C([H])([H])C([H])([H])C([H])([H])C([H])(n4nc(-c5c([H])c([H])c(Oc6c([H])c([H])c(F)c([H])c6F)c([H])c5[H])c(C(=O)N([H])[H])c4N([H])[H])C3([H])[H])C([H])([H])C([H])(C([H])([H])[H])C([H])([H])[H])[N+]([H])([H])[H])c([H])c([H])c2C1([H])[H]

$$$$
43:0:0
     RDKit          3D

 91 98  0  0  1  0  0  0  0  0999 V2000
  -29.6230  -19.4440   19.5350 C   0  0  0  0  0  2  0  0  0  0  0  0
  -29.7190  -21.0300   20.3420 C   0  0  0  0  0  2  0  0  0  0  0  0
  -29.3210  -22.7370   19.9490 C   0  0  0  0  0  2  0  0  0  0  0  0
  -28.0170  -23.9400   21.9620 C   0  0  0  0  0  1  0  0  0  0  0  0
  -28.4370  -24.2000   20.5070 C   0  0  0  0  0  3  0  0  0  0  0  0
  -28.6660  -25.8160   20.5040 O   0  0  0  0  0  0  0  0  0  0  0  0
  -24.6540  -31.5710   23.2300 C   0  0  0  0  0  0  0  0  0  0  0  0
  -27.5980  -26.8390   20.3990 C   0  0  0  0  0  0  0  0  0  0  0  0
  -23.6120  -30.1020   21.5520 C   0  0  0  0  0  3  0  0  0  0  0  0
  -25.2030  -28.5660   20.2240 C   0  0  0  0  0  0  0  0  0  0  0  0
  -26.1650  -30.4530   21.5230 C   0  0  0  0  0  2  0  0  0  0  0  0
  -26.3380  -29.0450   20.8920 C   0  0  0  0  0  0  0  0  0  0  0  0
  -27.5320  -28.2020   20.9580 C   0  0  0  0  0  3  0  0  0  0  0  0
  -26.4290  -26.5030   19.6790 C   0  0  0  0  0  3  0  0  0  0  0  0
  -25.2710  -27.3110   19.6020 C   0  0  0  0  0  3  0  0  0  0  0  0
  -23.9360  -29.4150   20.1980 C   0  0  0  0  0  2  0  0  0  0  0  0
  -24.8280  -30.7370   22.1560 N   0  0  0  0  0  0  0  0  0  0  0  0
  -23.5270  -31.8070   23.6940 O   0  0  0  0  0  0  0  0  0  0  0  0
  -22.9230  -29.0800   22.4920 C   0  0  0  0  0  0  0  0  0  0  0  0
  -21.6200  -28.8220   22.2770 N   0  0  0  0  0  0  0  0  0  0  0  0
  -23.5690  -28.5170   23.3790 O   0  0  0  0  0  0  0  0  0  0  0  0
  -21.1540  -29.3260   21.5340 H   0  0  0  0  0  0  0  0  0  0  0  0
  -18.3070  -27.3650   22.5480 C   0  0  0  0  0  0  0  0  0  0  0  0
  -20.8060  -27.8500   23.0140 C   0  0  0  0  0  3  0  0  0  0  0  0
  -21.0690  -26.4110   22.5110 C   0  0  0  0  0  2  0  0  0  0  0  0
  -20.0870  -25.9590   21.4250 C   0  0  0  0  0  2  0  0  0  0  0  0
  -18.6500  -26.0120   21.9460 C   0  0  0  0  0  2  0  0  0  0  0  0
  -19.3200  -28.2330   23.0370 C   0  0  0  0  0  0  0  0  0  0  0  0
  -18.9490  -29.4900   23.5640 C   0  0  0  0  0  3  0  0  0  0  0  0
  -17.5980  -29.8830   23.6070 C   0  0  0  0  0  3  0  0  0  0  0  0
  -16.5980  -29.0150   23.1340 C   0  0  0  0  0  3  0  0  0  0  0  0
  -16.9530  -27.7560   22.6160 C   0  0  0  0  0  3  0  0  0  0  0  0
  -25.8570  -32.2830   23.9160 C   0  0  0  0  0  3  0  0  0  0  0  0
  -25.4710  -33.6830   24.1720 N   0  0  0  0  0  0  0  0  0  0  0  0
  -25.8130  -34.7260   23.4060 C   0  0  0  0  0  0  0  0  0  0  0  0
  -26.5520  -34.6160   22.4250 O   0  0  0  0  0  0  0  0  0  0  0  0
  -24.8240  -33.8340   24.9320 H   0  0  0  0  0  0  0  0  0  0  0  0
  -24.0490  -36.4490   22.8870 C   0  0  0  0  0  1  0  0  0  0  0  0
  -25.2520  -36.1140   23.7850 C   0  0  0  0  0  3  0  0  0  0  0  0
  -27.3020  -37.1030   24.7120 C   0  0  0  0  0  1  0  0  0  0  0  0
  -26.2540  -37.2000   23.6980 N   0  0  0  0  0  0  0  0  0  0  0  0
  -25.8110  -38.1110   23.7850 H   0  0  0  0  0  0  0  0  0  0  0  0
  -26.2960  -31.5870   25.2640 C   0  0  1  0  0  0  0  0  0  0  0  0
  -25.1280  -31.3520   26.2520 C   0  0  0  0  0  1  0  0  0  0  0  0
  -26.9570  -30.2180   24.9870 C   0  0  0  0  0  1  0  0  0  0  0  0
  -27.3640  -32.4510   25.9740 C   0  0  0  0  0  1  0  0  0  0  0  0
  -30.7020  -18.0230   19.5990 C   0  0  0  0  0  3  0  0  0  0  0  0
  -31.1260  -15.1710   19.3800 C   0  0  0  0  0  0  0  0  0  0  0  0
  -30.9410  -12.6890   18.6870 C   0  0  0  0  0  2  0  0  0  0  0  0
  -29.9330  -12.4470   17.5350 C   0  0  0  0  0  2  0  0  0  0  0  0
  -28.4950  -12.3100   18.0740 C   0  0  0  0  0  2  0  0  0  0  0  0
  -28.1690  -13.3720   19.1520 C   0  0  0  0  0  3  0  0  0  0  0  0
  -29.2900  -13.5450   20.1880 C   0  0  0  0  0  2  0  0  0  0  0  0
  -30.5020  -13.9080   19.4460 N   0  0  0  0  0  0  0  0  0  0  0  0
  -32.3450  -15.1330   19.1700 O   0  0  0  0  0  0  0  0  0  0  0  0
  -30.3870  -16.4350   19.3230 N   0  0  0  0  0  0  0  0  0  0  0  0
  -29.3940  -16.2630   19.2720 H   0  0  0  0  0  0  0  0  0  0  0  0
  -25.9570  -14.1250   20.1740 C   0  0  0  0  0  0  0  0  0  0  0  0
  -24.8750  -13.4340   20.6430 C   0  0  0  0  0  0  0  0  0  0  0  0
  -25.2090  -12.0500   20.5300 C   0  0  0  0  0  0  0  0  0  0  0  0
  -26.8790  -13.1650   19.7930 N   0  0  0  0  0  0  0  0  0  0  0  0
  -26.4510  -11.9090   20.0760 N   0  0  0  0  0  0  0  0  0  0  0  0
  -24.3920  -10.8540   20.7570 C   0  0  0  0  0  0  0  0  0  0  0  0
  -24.7760   -9.8580   21.6830 C   0  0  0  0  0  3  0  0  0  0  0  0
  -23.9610   -8.7240   21.8920 C   0  0  0  0  0  3  0  0  0  0  0  0
  -22.7490   -8.5800   21.1770 C   0  0  0  0  0  0  0  0  0  0  0  0
  -22.3840   -9.5600   20.2390 C   0  0  0  0  0  3  0  0  0  0  0  0
  -23.1970  -10.6860   20.0290 C   0  0  0  0  0  3  0  0  0  0  0  0
  -21.9050   -7.5040   21.3010 O   0  0  0  0  0  0  0  0  0  0  0  0
  -21.7710   -6.8280   22.4870 C   0  0  0  0  0  0  0  0  0  0  0  0
  -21.3630   -7.4770   23.6730 C   0  0  0  0  0  3  0  0  0  0  0  0
  -21.1680   -6.7310   24.8530 C   0  0  0  0  0  3  0  0  0  0  0  0
  -21.3710   -5.3380   24.8480 C   0  0  0  0  0  0  0  0  0  0  0  0
  -21.7740   -4.6900   23.6680 C   0  0  0  0  0  3  0  0  0  0  0  0
  -21.9710   -5.4330   22.4910 C   0  0  0  0  0  0  0  0  0  0  0  0
  -22.3370   -4.8000   21.3510 F   0  0  0  0  0  0  0  0  0  0  0  0
  -21.1790   -4.6190   25.9800 F   0  0  0  0  0  0  0  0  0  0  0  0
  -23.5620  -14.0270   21.0620 C   0  0  0  0  0  0  0  0  0  0  0  0
  -22.8670  -13.3870   21.9950 N   0  0  0  0  0  0  0  0  0  0  0  0
  -23.1640  -15.0910   20.5880 O   0  0  0  0  0  0  0  0  0  0  0  0
  -23.1940  -12.5200   22.3950 H   0  0  0  0  0  0  0  0  0  0  0  0
  -21.9890  -13.7680   22.3160 H   0  0  0  0  0  0  0  0  0  0  0  0
  -26.2120  -15.4790   19.9990 N   0  0  0  0  0  0  0  0  0  0  0  0
  -25.4930  -16.1750   20.1610 H   0  0  0  0  0  0  0  0  0  0  0  0
  -26.9910  -15.8380   19.4640 H   0  0  0  0  0  0  0  0  0  0  0  0
  -31.4720  -18.0680   20.9530 C   0  0  0  0  0  0  0  0  0  0  0  0
  -32.6060  -18.5520   20.9920 O   0  0  0  0  0  0  0  0  0  0  0  0
  -29.3700  -17.2520   22.2610 C   0  0  0  0  0  1  0  0  0  0  0  0
  -31.2370  -18.4050   23.4490 C   0  0  0  0  0  1  0  0  0  0  0  0
  -31.5830  -16.1080   22.5720 C   0  0  0  0  0  1  0  0  0  0  0  0
  -30.8990  -17.4630   22.2760 C   0  0  2  0  0  0  0  0  0  0  0  0
  1  2  1  0
  3  2  1  0
  3  5  1  0
  5  4  1  0
  6  5  1  0
  7 18  2  0
  8  6  1  0
  8 13  1  0
  9 17  1  0
  9 19  1  0
 10 12  1  0
 11 17  1  0
 12 13  2  0
 12 11  1  0
 14  8  2  0
 15 14  1  0
 15 10  2  0
 16 10  1  0
 16  9  1  0
 17  7  1  0
 19 21  2  0
 20 19  1  0
 22 20  1  0
 23 32  2  0
 23 28  1  0
 24 20  1  0
 24 28  1  0
 25 24  1  0
 26 27  1  0
 26 25  1  0
 27 23  1  0
 28 29  2  0
 29 30  1  0
 31 30  2  0
 32 31  1  0
 33  7  1  0
 33 34  1  0
 33 43  1  0
 34 37  1  0
 35 39  1  0
 35 34  1  0
 36 35  2  0
 39 38  1  0
 41 39  1  0
 41 42  1  0
 41 40  1  0
 43 46  1  1
 43 44  1  0
 45 43  1  0
 47  1  1  0
 47 86  1  0
 48 54  1  0
 49 54  1  0
 50 51  1  0
 50 49  1  0
 52 51  1  0
 52 61  1  0
 52 53  1  0
 54 53  1  0
 55 48  2  0
 56 48  1  0
 56 47  1  0
 57 56  1  0
 58 59  2  0
 59 78  1  0
 60 59  1  0
 60 63  1  0
 61 62  1  0
 61 58  1  0
 62 60  2  0
 63 64  1  0
 64 65  2  0
 66 69  1  0
 66 65  1  0
 67 66  2  0
 68 67  1  0
 68 63  2  0
 69 70  1  0
 70 75  2  0
 70 71  1  0
 71 72  2  0
 73 72  1  0
 73 77  1  0
 74 73  2  0
 75 74  1  0
 76 75  1  0
 78 79  1  0
 79 82  1  0
 79 81  1  0
 80 78  2  0
 83 84  1  0
 83 58  1  0
 85 83  1  0
 86 87  2  0
 86 91  1  0
 91 88  1  6
 91 90  1  0
 91 89  1  0
M  ISO  4   5 101   6 101  48 100  56 100
M  END
>  <TORSDO>  (44) 
F 22

>  <SCORE>  (44) 
-10.491

>  <name>  (44) 
43

>  <ligand_id>  (44) 
43

>  <original_smiles>  (44) 
[H]c1c([H])c([H])c2c(c1[H])C([H])([H])C([H])([H])C([H])([H])C2([H])N([H])C(=O)C1([H])N(C(=O)C([H])(N([H])C(=O)C([H])(N([H])C([H])([H])[H])C([H])([H])[H])C(C([H])([H])[H])(C([H])([H])[H])C([H])([H])[H])C([H])([H])c2c([H])c(OC([H])(C([H])([H])[H])C([H])([H])C([H])([H])C([H])([H])C([H])(C(=O)C(C([H])([H])[H])(C([H])([H])[H])C([H])([H])[H])N([H])C(=O)N3C([H])([H])C([H])([H])C([H])([H])C([H])(n4nc(-c5c([H])c([H])c(Oc6c([H])c([H])c(F)c([H])c6F)c([H])c5[H])c(C(=O)N([H])[H])c4N([H])[H])C3([H])[H])c([H])c([H])c2C1([H])[H]

>  <smiles>  (44) 
[H]c1c([H])c([H])c2c(c1[H])C([H])([H])C([H])([H])C([H])([H])C2([H])N([H])C(=O)C1([H])N(C(=O)C([H])(N([H])C(=O)C([H])(N([H])C([H])([H])[H])C([H])([H])[H])C(C([H])([H])[H])(C([H])([H])[H])C([H])([H])[H])C([H])([H])c2c([H])c(OC([H])(C([H])([H])[H])C([H])([H])C([H])([H])C([H])([H])C([H])(C(=O)C(C([H])([H])[H])(C([H])([H])[H])C([H])([H])[H])N([H])C(=O)N3C([H])([H])C([H])([H])C([H])([H])C([H])(n4nc(-c5c([H])c([H])c(Oc6c([H])c([H])c(F)c([H])c6F)c([H])c5[H])c(C(=O)N([H])[H])c4N([H])[H])C3([H])[H])c([H])c([H])c2C1([H])[H]

$$$$
44:0:0
     RDKit          3D

 90 97  0  0  1  0  0  0  0  0999 V2000
  -28.8670  -21.9800   20.2570 C   0  0  0  0  0  2  0  0  0  0  0  0
  -29.9350  -23.9550   21.6510 C   0  0  0  0  0  1  0  0  0  0  0  0
  -30.1930  -23.9860   19.1590 C   0  0  0  0  0  1  0  0  0  0  0  0
  -29.2330  -23.6400   20.3170 C   0  0  1  0  0  0  0  0  0  0  0  0
  -28.0420  -24.8020   20.1870 C   0  0  0  0  0  2  0  0  0  0  0  0
  -28.2840  -26.3240   20.2720 O   0  0  0  0  0  0  0  0  0  0  0  0
  -24.6470  -31.9630   23.2510 C   0  0  0  0  0  0  0  0  0  0  0  0
  -27.2030  -27.2660   20.2230 C   0  0  0  0  0  0  0  0  0  0  0  0
  -23.4310  -30.5650   21.6250 C   0  0  0  0  0  3  0  0  0  0  0  0
  -24.8660  -28.9810   20.2040 C   0  0  0  0  0  0  0  0  0  0  0  0
  -25.9810  -30.8330   21.4420 C   0  0  0  0  0  2  0  0  0  0  0  0
  -26.0490  -29.4420   20.7970 C   0  0  0  0  0  0  0  0  0  0  0  0
  -27.2180  -28.5980   20.7890 C   0  0  0  0  0  3  0  0  0  0  0  0
  -25.9890  -26.8920   19.6030 C   0  0  0  0  0  3  0  0  0  0  0  0
  -24.8460  -27.7180   19.5950 C   0  0  0  0  0  3  0  0  0  0  0  0
  -23.6410  -29.8790   20.2500 C   0  0  0  0  0  2  0  0  0  0  0  0
  -24.7060  -31.1410   22.1600 N   0  0  0  0  0  0  0  0  0  0  0  0
  -23.5650  -32.2550   23.7840 O   0  0  0  0  0  0  0  0  0  0  0  0
  -22.7540  -29.5640   22.5940 C   0  0  0  0  0  0  0  0  0  0  0  0
  -21.4270  -29.3840   22.4620 N   0  0  0  0  0  0  0  0  0  0  0  0
  -23.4250  -28.9500   23.4290 O   0  0  0  0  0  0  0  0  0  0  0  0
  -20.9420  -29.9320   21.7660 H   0  0  0  0  0  0  0  0  0  0  0  0
  -18.0510  -28.1730   22.9500 C   0  0  0  0  0  0  0  0  0  0  0  0
  -20.6060  -28.4540   23.2390 C   0  0  0  0  0  3  0  0  0  0  0  0
  -20.7210  -27.0130   22.6870 C   0  0  0  0  0  2  0  0  0  0  0  0
  -19.6300  -26.6690   21.6660 C   0  0  0  0  0  2  0  0  0  0  0  0
  -18.2420  -26.8150   22.2960 C   0  0  0  0  0  2  0  0  0  0  0  0
  -19.1600  -28.9480   23.3790 C   0  0  0  0  0  0  0  0  0  0  0  0
  -18.9270  -30.2180   23.9510 C   0  0  0  0  0  3  0  0  0  0  0  0
  -17.6180  -30.7120   24.0990 C   0  0  0  0  0  3  0  0  0  0  0  0
  -16.5220  -29.9330   23.6860 C   0  0  0  0  0  3  0  0  0  0  0  0
  -16.7400  -28.6660   23.1180 C   0  0  0  0  0  3  0  0  0  0  0  0
  -25.9320  -32.5930   23.8700 C   0  0  0  0  0  3  0  0  0  0  0  0
  -25.6270  -33.9940   24.2030 N   0  0  0  0  0  0  0  0  0  0  0  0
  -25.9370  -35.0460   23.4350 C   0  0  0  0  0  0  0  0  0  0  0  0
  -26.5760  -34.9430   22.3850 O   0  0  0  0  0  0  0  0  0  0  0  0
  -25.0560  -34.1490   25.0210 H   0  0  0  0  0  0  0  0  0  0  0  0
  -24.1910  -36.8360   23.1420 C   0  0  0  0  0  1  0  0  0  0  0  0
  -25.4630  -36.4360   23.9060 C   0  0  0  0  0  3  0  0  0  0  0  0
  -27.6210  -37.3350   24.6590 C   0  0  0  0  0  1  0  0  0  0  0  0
  -26.4880  -37.4920   23.7520 N   0  0  0  0  0  0  0  0  0  0  0  0
  -26.0830  -38.4110   23.9070 H   0  0  0  0  0  0  0  0  0  0  0  0
  -26.4500  -31.8230   25.1470 C   0  0  1  0  0  0  0  0  0  0  0  0
  -25.3590  -31.5910   26.2180 C   0  0  0  0  0  1  0  0  0  0  0  0
  -27.0270  -30.4420   24.7580 C   0  0  0  0  0  1  0  0  0  0  0  0
  -27.6040  -32.6160   25.8040 C   0  0  0  0  0  1  0  0  0  0  0  0
  -30.3420  -20.6510   21.9620 C   0  0  0  0  0  1  0  0  0  0  0  0
  -29.8770  -20.6310   20.4860 C   0  0  2  0  0  0  0  0  0  0  0  0
  -32.4430  -21.1180   20.0370 C   0  0  0  0  0  1  0  0  0  0  0  0
  -31.0640  -20.7220   19.4760 C   0  0  0  0  0  2  0  0  0  0  0  0
  -29.3120  -19.0630   20.2950 C   0  0  0  0  0  3  0  0  0  0  0  0
  -30.2400  -17.6760   20.5660 C   0  0  0  0  0  3  0  0  0  0  0  0
  -30.5730  -15.0060   20.2670 C   0  0  0  0  0  0  0  0  0  0  0  0
  -30.4240  -12.6530   19.3600 C   0  0  0  0  0  2  0  0  0  0  0  0
  -29.4740  -12.5750   18.1420 C   0  0  0  0  0  2  0  0  0  0  0  0
  -28.0110  -12.3880   18.5900 C   0  0  0  0  0  2  0  0  0  0  0  0
  -27.6110  -13.3100   19.7710 C   0  0  0  0  0  3  0  0  0  0  0  0
  -28.6890  -13.3650   20.8730 C   0  0  0  0  0  2  0  0  0  0  0  0
  -29.9470  -13.7610   20.2270 N   0  0  0  0  0  0  0  0  0  0  0  0
  -31.8030  -15.0290   20.1640 O   0  0  0  0  0  0  0  0  0  0  0  0
  -28.9980  -16.3490   18.9530 C   0  0  0  0  0  1  0  0  0  0  0  0
  -29.8240  -16.2190   20.1600 N   0  0  0  0  0  0  0  0  0  0  0  0
  -25.2390  -13.8850   20.5340 C   0  0  0  0  0  0  0  0  0  0  0  0
  -24.1790  -13.1030   20.8980 C   0  0  0  0  0  0  0  0  0  0  0  0
  -24.6500  -11.7560   20.8620 C   0  0  0  0  0  0  0  0  0  0  0  0
  -26.2850  -13.0090   20.2890 N   0  0  0  0  0  0  0  0  0  0  0  0
  -25.9400  -11.7240   20.5520 N   0  0  0  0  0  0  0  0  0  0  0  0
  -23.9330  -10.4890   21.0480 C   0  0  0  0  0  0  0  0  0  0  0  0
  -24.3710   -9.5220   21.9780 C   0  0  0  0  0  3  0  0  0  0  0  0
  -23.6530   -8.3190   22.1520 C   0  0  0  0  0  3  0  0  0  0  0  0
  -22.4850   -8.0760   21.3930 C   0  0  0  0  0  0  0  0  0  0  0  0
  -22.0660   -9.0310   20.4510 C   0  0  0  0  0  3  0  0  0  0  0  0
  -22.7850  -10.2260   20.2760 C   0  0  0  0  0  3  0  0  0  0  0  0
  -21.7380   -6.9250   21.4750 O   0  0  0  0  0  0  0  0  0  0  0  0
  -21.6840   -6.1850   22.6280 C   0  0  0  0  0  0  0  0  0  0  0  0
  -21.2160   -6.7310   23.8430 C   0  0  0  0  0  3  0  0  0  0  0  0
  -21.1110   -5.9160   24.9870 C   0  0  0  0  0  3  0  0  0  0  0  0
  -21.4660   -4.5560   24.9180 C   0  0  0  0  0  0  0  0  0  0  0  0
  -21.9270   -4.0080   23.7080 C   0  0  0  0  0  3  0  0  0  0  0  0
  -22.0330   -4.8210   22.5650 C   0  0  0  0  0  0  0  0  0  0  0  0
  -22.4590   -4.2840   21.3960 F   0  0  0  0  0  0  0  0  0  0  0  0
  -21.3580   -3.7690   26.0150 F   0  0  0  0  0  0  0  0  0  0  0  0
  -22.7800  -13.5710   21.1710 C   0  0  0  0  0  0  0  0  0  0  0  0
  -22.0580  -12.8680   22.0370 N   0  0  0  0  0  0  0  0  0  0  0  0
  -22.3350  -14.5960   20.6550 O   0  0  0  0  0  0  0  0  0  0  0  0
  -22.4320  -12.0380   22.4710 H   0  0  0  0  0  0  0  0  0  0  0  0
  -21.1180  -13.1620   22.2650 H   0  0  0  0  0  0  0  0  0  0  0  0
  -25.3950  -15.2580   20.3650 N   0  0  0  0  0  0  0  0  0  0  0  0
  -24.6270  -15.9080   20.4890 H   0  0  0  0  0  0  0  0  0  0  0  0
  -26.2570  -15.7070   20.0820 H   0  0  0  0  0  0  0  0  0  0  0  0
  1  4  1  0
  1 48  1  0
  4  3  1  6
  4  2  1  0
  5  6  1  0
  5  4  1  0
  7 18  2  0
  8  6  1  0
  8 13  1  0
  9 17  1  0
  9 19  1  0
 10 16  1  0
 10 12  1  0
 11 17  1  0
 12 11  1  0
 13 12  2  0
 14  8  2  0
 15 14  1  0
 15 10  2  0
 16  9  1  0
 17  7  1  0
 19 21  2  0
 20 19  1  0
 22 20  1  0
 23 32  2  0
 23 28  1  0
 24 20  1  0
 24 28  1  0
 25 24  1  0
 26 27  1  0
 26 25  1  0
 27 23  1  0
 28 29  2  0
 29 30  1  0
 31 30  2  0
 32 31  1  0
 33  7  1  0
 33 34  1  0
 33 43  1  0
 34 37  1  0
 35 39  1  0
 35 34  1  0
 36 35  2  0
 39 38  1  0
 41 39  1  0
 41 42  1  0
 41 40  1  0
 43 46  1  1
 43 44  1  0
 45 43  1  0
 48 47  1  1
 50 49  1  0
 50 48  1  0
 51 48  1  0
 51 52  2  0
 54 59  1  0
 55 56  1  0
 55 54  1  0
 57 56  1  0
 57 66  1  0
 57 58  1  0
 59 53  1  0
 59 58  1  0
 60 53  2  0
 61 62  1  0
 62 53  1  0
 62 52  1  0
 63 64  2  0
 64 83  1  0
 65 64  1  0
 65 68  1  0
 66 63  1  0
 66 67  1  0
 67 65  2  0
 68 69  1  0
 69 70  2  0
 71 74  1  0
 71 70  1  0
 72 71  2  0
 73 72  1  0
 73 68  2  0
 74 75  1  0
 75 76  1  0
 76 77  2  0
 78 77  1  0
 78 82  1  0
 79 78  2  0
 80 75  2  0
 80 79  1  0
 81 80  1  0
 83 84  1  0
 84 87  1  0
 84 86  1  0
 85 83  2  0
 88 89  1  0
 88 63  1  0
 90 88  1  0
M  ISO  4   5 101   6 101  53 100  62 100
M  END
>  <TORSDO>  (45) 
F 22

>  <SCORE>  (45) 
-13.828

>  <name>  (45) 
44

>  <ligand_id>  (45) 
44

>  <original_smiles>  (45) 
[H]c1c([H])c([H])c2c(c1[H])C([H])([H])C([H])([H])C([H])([H])C2([H])N([H])C(=O)C1([H])N(C(=O)C([H])(N([H])C(=O)C([H])(N([H])C([H])([H])[H])C([H])([H])[H])C(C([H])([H])[H])(C([H])([H])[H])C([H])([H])[H])C([H])([H])c2c([H])c(OC([H])([H])C(C([H])([H])[H])(C([H])([H])[H])C([H])([H])C(C([H])([H])[H])(C([H])([H])C([H])([H])[H])C([H])([H])C([H])([H])N(C(=O)N3C([H])([H])C([H])([H])C([H])([H])C([H])(n4nc(-c5c([H])c([H])c(Oc6c([H])c([H])c(F)c([H])c6F)c([H])c5[H])c(C(=O)N([H])[H])c4N([H])[H])C3([H])[H])C([H])([H])[H])c([H])c([H])c2C1([H])[H]

>  <smiles>  (45) 
[H]c1c([H])c([H])c2c(c1[H])C([H])([H])C([H])([H])C([H])([H])C2([H])N([H])C(=O)C1([H])N(C(=O)C([H])(N([H])C(=O)C([H])(N([H])C([H])([H])[H])C([H])([H])[H])C(C([H])([H])[H])(C([H])([H])[H])C([H])([H])[H])C([H])([H])c2c([H])c(OC([H])([H])C(C([H])([H])[H])(C([H])([H])[H])C([H])([H])C(C([H])([H])[H])(C([H])([H])C([H])([H])[H])C([H])([H])C([H])([H])N(C(=O)N3C([H])([H])C([H])([H])C([H])([H])C([H])(n4nc(-c5c([H])c([H])c(Oc6c([H])c([H])c(F)c([H])c6F)c([H])c5[H])c(C(=O)N([H])[H])c4N([H])[H])C3([H])[H])C([H])([H])[H])c([H])c([H])c2C1([H])[H]

$$$$
45:0:0
     RDKit          3D

 98105  0  0  1  0  0  0  0  0999 V2000
  -27.7420  -20.5440   19.7190 C   0  0  0  0  0  2  0  0  0  0  0  0
  -26.7450  -22.6130   20.4930 C   0  0  0  0  0  3  0  0  0  0  0  0
  -26.6290  -21.4610   19.9620 N   0  0  0  0  0  0  0  0  0  0  0  0
  -25.5930  -23.6150   20.4020 C   0  0  0  0  0  3  0  0  0  0  0  0
  -26.1460  -24.9580   20.1300 N   0  0  0  0  0  4  0  0  0  0  0  0
  -26.6990  -24.9320   19.2910 H   0  0  0  0  0  0  0  0  0  0  0  0
  -26.7250  -25.2780   20.8860 H   0  0  0  0  0  0  0  0  0  0  0  0
  -25.4040  -25.6220   20.0000 H   0  0  0  0  0  0  0  0  0  0  0  0
  -24.6060  -23.6330   21.6000 C   0  0  0  0  0  2  0  0  0  0  0  0
  -24.1070  -24.9490   21.9350 O   0  0  0  0  0  0  0  0  0  0  0  0
  -17.0010  -24.8950   21.2030 C   0  0  0  0  0  0  0  0  0  0  0  0
  -23.0000  -25.4300   21.2650 C   0  0  0  0  0  0  0  0  0  0  0  0
  -18.2600  -26.1140   19.4610 C   0  0  0  0  0  3  0  0  0  0  0  0
  -20.7300  -26.4990   19.9510 C   0  0  0  0  0  0  0  0  0  0  0  0
  -19.2080  -25.8700   21.8260 C   0  0  0  0  0  2  0  0  0  0  0  0
  -20.5920  -25.9040   21.2120 C   0  0  0  0  0  0  0  0  0  0  0  0
  -21.7220  -25.3670   21.8710 C   0  0  0  0  0  3  0  0  0  0  0  0
  -23.1140  -26.0660   20.0080 C   0  0  0  0  0  3  0  0  0  0  0  0
  -21.9890  -26.5790   19.3420 C   0  0  0  0  0  3  0  0  0  0  0  0
  -19.4830  -27.0560   19.3060 C   0  0  0  0  0  2  0  0  0  0  0  0
  -18.1270  -25.5770   20.8540 N   0  0  0  0  0  0  0  0  0  0  0  0
  -16.0660  -24.7450   20.4020 O   0  0  0  0  0  0  0  0  0  0  0  0
  -18.3520  -25.0080   18.3850 C   0  0  0  0  0  0  0  0  0  0  0  0
  -17.9930  -25.3560   17.1380 N   0  0  0  0  0  0  0  0  0  0  0  0
  -18.7640  -23.8810   18.6700 O   0  0  0  0  0  0  0  0  0  0  0  0
  -17.6610  -26.2990   16.9850 H   0  0  0  0  0  0  0  0  0  0  0  0
  -17.2570  -25.2100   13.6030 C   0  0  0  0  0  0  0  0  0  0  0  0
  -18.0340  -24.4890   15.9610 C   0  0  0  0  0  3  0  0  0  0  0  0
  -19.4580  -24.4290   15.3640 C   0  0  0  0  0  2  0  0  0  0  0  0
  -19.6900  -25.4580   14.2530 C   0  0  0  0  0  2  0  0  0  0  0  0
  -18.6930  -25.2480   13.1090 C   0  0  0  0  0  2  0  0  0  0  0  0
  -16.9480  -24.8670   14.9470 C   0  0  0  0  0  0  0  0  0  0  0  0
  -15.5990  -24.8800   15.3650 C   0  0  0  0  0  3  0  0  0  0  0  0
  -14.5710  -25.2260   14.4690 C   0  0  0  0  0  3  0  0  0  0  0  0
  -14.8810  -25.5500   13.1360 C   0  0  0  0  0  3  0  0  0  0  0  0
  -16.2200  -25.5370   12.7070 C   0  0  0  0  0  3  0  0  0  0  0  0
  -16.8210  -24.2950   22.6320 C   0  0  0  0  0  3  0  0  0  0  0  0
  -16.5620  -22.7370   22.6240 C   0  0  1  0  0  0  0  0  0  0  0  0
  -15.4320  -22.3020   21.6620 C   0  0  0  0  0  1  0  0  0  0  0  0
  -17.8450  -21.9730   22.2240 C   0  0  0  0  0  1  0  0  0  0  0  0
  -16.1840  -22.2630   24.0460 C   0  0  0  0  0  1  0  0  0  0  0  0
  -15.7080  -25.0050   23.2740 N   0  0  0  0  0  0  0  0  0  0  0  0
  -15.8270  -26.1610   23.9410 C   0  0  0  0  0  0  0  0  0  0  0  0
  -16.9140  -26.7070   24.1480 O   0  0  0  0  0  0  0  0  0  0  0  0
  -14.7800  -24.6470   23.0970 H   0  0  0  0  0  0  0  0  0  0  0  0
  -13.9580  -27.7510   23.3950 C   0  0  0  0  0  1  0  0  0  0  0  0
  -14.5340  -26.8120   24.4670 C   0  0  0  0  0  3  0  0  0  0  0  0
  -15.1450  -26.7100   26.8420 C   0  0  0  0  0  1  0  0  0  0  0  0
  -14.7240  -27.5580   25.7290 N   0  0  0  0  0  0  0  0  0  0  0  0
  -13.8660  -28.0310   26.0000 H   0  0  0  0  0  0  0  0  0  0  0  0
  -29.1410  -20.9040   20.2770 C   0  0  0  0  0  2  0  0  0  0  0  0
  -30.1580  -19.8290   19.8180 C   0  0  0  0  0  2  0  0  0  0  0  0
  -31.5650  -20.3190   19.4090 C   0  0  0  0  0  2  0  0  0  0  0  0
  -32.6290  -19.1790   19.4570 C   0  0  0  0  0  3  0  0  0  0  0  0
  -33.8650  -19.0100   17.2830 C   0  0  0  0  0  0  0  0  0  0  0  0
  -34.4110  -17.1670   15.7220 C   0  0  0  0  0  2  0  0  0  0  0  0
  -33.1540  -16.3820   15.3010 C   0  0  0  0  0  2  0  0  0  0  0  0
  -32.8360  -15.2670   16.3140 C   0  0  0  0  0  2  0  0  0  0  0  0
  -32.8460  -15.7830   17.7760 C   0  0  0  0  0  3  0  0  0  0  0  0
  -34.1220  -16.6080   18.0550 C   0  0  0  0  0  2  0  0  0  0  0  0
  -34.1940  -17.7030   17.0780 N   0  0  0  0  0  0  0  0  0  0  0  0
  -33.8130  -19.8350   16.3680 O   0  0  0  0  0  0  0  0  0  0  0  0
  -33.7630  -19.4420   18.5530 N   0  0  0  0  0  0  0  0  0  0  0  0
  -34.0490  -20.4100   18.6200 H   0  0  0  0  0  0  0  0  0  0  0  0
  -31.7140  -14.5000   19.7000 C   0  0  0  0  0  0  0  0  0  0  0  0
  -31.9900  -13.2910   20.2770 C   0  0  0  0  0  0  0  0  0  0  0  0
  -33.1520  -12.7930   19.6110 C   0  0  0  0  0  0  0  0  0  0  0  0
  -32.6920  -14.6930   18.7350 N   0  0  0  0  0  0  0  0  0  0  0  0
  -33.5910  -13.6770   18.7250 N   0  0  0  0  0  0  0  0  0  0  0  0
  -33.8400  -11.5020   19.7250 C   0  0  0  0  0  0  0  0  0  0  0  0
  -35.2320  -11.4230   19.9510 C   0  0  0  0  0  3  0  0  0  0  0  0
  -35.8680  -10.1690   20.0710 C   0  0  0  0  0  3  0  0  0  0  0  0
  -35.1110   -8.9770   19.9700 C   0  0  0  0  0  0  0  0  0  0  0  0
  -33.7300   -9.0610   19.7220 C   0  0  0  0  0  3  0  0  0  0  0  0
  -33.0990  -10.3090   19.5980 C   0  0  0  0  0  3  0  0  0  0  0  0
  -35.6460   -7.7140   20.0530 O   0  0  0  0  0  0  0  0  0  0  0  0
  -36.8000   -7.4660   20.7510 C   0  0  0  0  0  0  0  0  0  0  0  0
  -36.9180   -7.7620   22.1280 C   0  0  0  0  0  3  0  0  0  0  0  0
  -38.0990   -7.4260   22.8200 C   0  0  0  0  0  3  0  0  0  0  0  0
  -39.1550   -6.7870   22.1440 C   0  0  0  0  0  0  0  0  0  0  0  0
  -39.0370   -6.4870   20.7760 C   0  0  0  0  0  3  0  0  0  0  0  0
  -37.8620   -6.8240   20.0830 C   0  0  0  0  0  0  0  0  0  0  0  0
  -37.7440   -6.5140   18.7690 F   0  0  0  0  0  0  0  0  0  0  0  0
  -40.2860   -6.4580   22.8130 F   0  0  0  0  0  0  0  0  0  0  0  0
  -31.1710  -12.5870   21.3200 C   0  0  0  0  0  0  0  0  0  0  0  0
  -31.8150  -11.8100   22.1830 N   0  0  0  0  0  0  0  0  0  0  0  0
  -29.9560  -12.7620   21.4050 O   0  0  0  0  0  0  0  0  0  0  0  0
  -32.8140  -11.6790   22.1220 H   0  0  0  0  0  0  0  0  0  0  0  0
  -31.3040  -11.3370   22.9140 H   0  0  0  0  0  0  0  0  0  0  0  0
  -30.7070  -15.4410   19.8980 N   0  0  0  0  0  0  0  0  0  0  0  0
  -29.9460  -15.2840   20.5490 H   0  0  0  0  0  0  0  0  0  0  0  0
  -30.5850  -16.2760   19.3400 H   0  0  0  0  0  0  0  0  0  0  0  0
  -33.1070  -18.8630   20.9090 C   0  0  0  0  0  2  0  0  0  0  0  0
  -33.6050  -20.0550   21.7420 C   0  0  0  0  0  0  0  0  0  0  0  0
  -33.1390  -20.1910   22.9780 N   0  0  0  0  0  0  0  0  0  0  0  0
  -34.4200  -20.8560   21.2850 O   0  0  0  0  0  0  0  0  0  0  0  0
  -33.4460  -20.9600   23.5570 H   0  0  0  0  0  0  0  0  0  0  0  0
  -32.4580  -19.5420   23.3490 H   0  0  0  0  0  0  0  0  0  0  0  0
  1  3  1  0
  1 51  1  0
  3  2  2  0
  4  2  1  0
  4  9  1  0
  5  4  1  0
  5  7  1  0
  6  5  1  0
  8  5  1  0
  9 10  1  0
 12 17  1  0
 12 10  1  0
 13 23  1  0
 13 21  1  0
 14 16  1  0
 16 15  1  0
 16 17  2  0
 18 12  2  0
 19 14  2  0
 19 18  1  0
 20 13  1  0
 20 14  1  0
 21 11  1  0
 21 15  1  0
 22 11  2  0
 23 25  2  0
 24 23  1  0
 26 24  1  0
 27 32  1  0
 28 24  1  0
 29 28  1  0
 30 29  1  0
 31 27  1  0
 31 30  1  0
 32 33  2  0
 32 28  1  0
 34 33  1  0
 35 34  2  0
 36 35  1  0
 36 27  2  0
 37 11  1  0
 37 42  1  0
 38 37  1  0
 38 41  1  1
 39 38  1  0
 40 38  1  0
 42 43  1  0
 43 44  2  0
 43 47  1  0
 45 42  1  0
 47 46  1  0
 47 49  1  0
 49 50  1  0
 49 48  1  0
 52 51  1  0
 53 52  1  0
 54 53  1  0
 54 93  1  0
 55 63  1  0
 56 61  1  0
 57 56  1  0
 57 58  1  0
 59 58  1  0
 59 60  1  0
 59 68  1  0
 61 55  1  0
 61 60  1  0
 62 55  2  0
 63 64  1  0
 63 54  1  0
 65 90  1  0
 65 66  2  0
 66 85  1  0
 67 70  1  0
 67 66  1  0
 68 65  1  0
 69 68  1  0
 69 67  2  0
 70 71  1  0
 71 72  2  0
 73 76  1  0
 73 72  1  0
 74 73  2  0
 75 74  1  0
 75 70  2  0
 76 77  1  0
 77 78  1  0
 78 79  2  0
 80 84  1  0
 80 79  1  0
 81 80  2  0
 82 77  2  0
 82 81  1  0
 83 82  1  0
 85 87  2  0
 85 86  1  0
 86 89  1  0
 88 86  1  0
 90 91  1  0
 92 90  1  0
 93 94  1  0
 94 95  1  0
 95 98  1  0
 95 97  1  0
 96 94  2  0
M  ISO  4   9 101  10 101  55 100  63 100
M  END
>  <TORSDO>  (46) 
F 26

>  <SCORE>  (46) 
-5.005

>  <name>  (46) 
45

>  <ligand_id>  (46) 
45

>  <original_smiles>  (46) 
[H]C(=NC([H])([H])C([H])([H])C([H])([H])C([H])([H])C([H])(N([H])C(=O)N1C([H])([H])C([H])([H])C([H])([H])C([H])(n2nc(-c3c([H])c([H])c(Oc4c([H])c([H])c(F)c([H])c4F)c([H])c3[H])c(C(=O)N([H])[H])c2N([H])[H])C1([H])[H])C([H])([H])C(=O)N([H])[H])C([H])(C([H])([H])Oc1c([H])c([H])c2c(c1[H])C([H])([H])N(C(=O)C([H])(N([H])C(=O)C([H])(N([H])C([H])([H])[H])C([H])([H])[H])C(C([H])([H])[H])(C([H])([H])[H])C([H])([H])[H])C([H])(C(=O)N([H])C1([H])c3c([H])c([H])c([H])c([H])c3C([H])([H])C([H])([H])C1([H])[H])C2([H])[H])[N+]([H])([H])[H]

>  <smiles>  (46) 
[H]C(=NC([H])([H])C([H])([H])C([H])([H])C([H])([H])C([H])(N([H])C(=O)N1C([H])([H])C([H])([H])C([H])([H])C([H])(n2nc(-c3c([H])c([H])c(Oc4c([H])c([H])c(F)c([H])c4F)c([H])c3[H])c(C(=O)N([H])[H])c2N([H])[H])C1([H])[H])C([H])([H])C(=O)N([H])[H])C([H])(C([H])([H])Oc1c([H])c([H])c2c(c1[H])C([H])([H])N(C(=O)C([H])(N([H])C(=O)C([H])(N([H])C([H])([H])[H])C([H])([H])[H])C(C([H])([H])[H])(C([H])([H])[H])C([H])([H])[H])C([H])(C(=O)N([H])C1([H])c3c([H])c([H])c([H])c([H])c3C([H])([H])C([H])([H])C1([H])[H])C2([H])[H])[N+]([H])([H])[H]

$$$$
46:0:0
     RDKit          3D

 88 92  0  0  1  0  0  0  0  0999 V2000
  -27.5440  -21.2290   21.1750 C   0  0  0  0  0  1  0  0  0  0  0  0
  -28.5210  -21.4560   20.0150 C   0  0  0  0  0  1  0  0  0  0  0  0
  -28.3020  -23.5300   19.6290 C   0  0  0  0  0 15  0  0  0  0  0  0
  -28.1140  -25.3690   20.0740 O   0  0  0  0  0  1  0  0  0  0  0  0
  -24.6600  -31.9100   23.1120 C   0  0  0  0  0  0  0  0  0  0  0  0
  -27.1470  -26.6820   19.9960 C   0  0  0  0  0  0  0  0  0  0  0  0
  -23.4400  -30.4990   21.5110 C   0  0  0  0  0  3  0  0  0  0  0  0
  -24.8630  -28.8360   20.0360 C   0  0  0  0  0  0  0  0  0  0  0  0
  -26.0230  -30.6080   21.3220 C   0  0  0  0  0  2  0  0  0  0  0  0
  -26.0790  -29.1570   20.6470 C   0  0  0  0  0  0  0  0  0  0  0  0
  -27.1840  -28.1140   20.5950 C   0  0  0  0  0  3  0  0  0  0  0  0
  -25.8880  -26.6410   19.3160 C   0  0  0  0  0  3  0  0  0  0  0  0
  -24.8180  -27.6080   19.3470 C   0  0  0  0  0  3  0  0  0  0  0  0
  -23.6540  -29.8010   20.1310 C   0  0  0  0  0  2  0  0  0  0  0  0
  -24.7370  -31.0450   22.0330 N   0  0  0  0  0  0  0  0  0  0  0  0
  -23.5770  -32.2040   23.6500 O   0  0  0  0  0  0  0  0  0  0  0  0
  -22.7510  -29.5290   22.5100 C   0  0  0  0  0  0  0  0  0  0  0  0
  -21.4220  -29.3320   22.4080 N   0  0  0  0  0  0  0  0  0  0  0  0
  -23.4300  -28.9450   23.3590 O   0  0  0  0  0  0  0  0  0  0  0  0
  -20.9190  -29.8550   21.7030 H   0  0  0  0  0  0  0  0  0  0  0  0
  -18.0970  -27.9490   22.9350 C   0  0  0  0  0  0  0  0  0  0  0  0
  -20.6380  -28.3740   23.2000 C   0  0  0  0  0  3  0  0  0  0  0  0
  -20.8220  -26.9310   22.6680 C   0  0  0  0  0  2  0  0  0  0  0  0
  -19.7490  -26.5190   21.6570 C   0  0  0  0  0  2  0  0  0  0  0  0
  -18.3560  -26.5990   22.2870 C   0  0  0  0  0  2  0  0  0  0  0  0
  -19.1670  -28.7900   23.3490 C   0  0  0  0  0  0  0  0  0  0  0  0
  -18.8690  -30.0460   23.9210 C   0  0  0  0  0  3  0  0  0  0  0  0
  -17.5330  -30.4630   24.0830 C   0  0  0  0  0  3  0  0  0  0  0  0
  -16.4800  -29.6220   23.6840 C   0  0  0  0  0  3  0  0  0  0  0  0
  -16.7620  -28.3690   23.1140 C   0  0  0  0  0  3  0  0  0  0  0  0
  -25.9260  -32.5850   23.7200 C   0  0  0  0  0  3  0  0  0  0  0  0
  -26.4640  -31.8380   25.0030 C   0  0  1  0  0  0  0  0  0  0  0  0
  -25.3860  -31.6050   26.0890 C   0  0  0  0  0  1  0  0  0  0  0  0
  -27.0540  -30.4590   24.6360 C   0  0  0  0  0  1  0  0  0  0  0  0
  -27.6190  -32.6530   25.6340 C   0  0  0  0  0  1  0  0  0  0  0  0
  -25.5930  -33.9820   24.0700 N   0  0  0  0  0  0  0  0  0  0  0  0
  -25.9110  -35.0670   23.3500 C   0  0  0  0  0  0  0  0  0  0  0  0
  -26.5710  -34.9970   22.3090 O   0  0  0  0  0  0  0  0  0  0  0  0
  -25.0100  -34.1100   24.8840 H   0  0  0  0  0  0  0  0  0  0  0  0
  -24.1920  -36.8870   23.0640 C   0  0  0  0  0  1  0  0  0  0  0  0
  -25.4290  -36.4430   23.8580 C   0  0  0  0  0  3  0  0  0  0  0  0
  -27.5600  -37.3100   24.7200 C   0  0  0  0  0  1  0  0  0  0  0  0
  -26.4600  -37.4990   23.7790 N   0  0  0  0  0  0  0  0  0  0  0  0
  -26.0520  -38.4140   23.9500 H   0  0  0  0  0  0  0  0  0  0  0  0
  -29.6470  -19.6700   19.9780 C   0  0  0  0  0  2  0  0  0  0  0  0
  -30.2380  -16.2790   19.8410 C   0  0  0  0  0  0  0  0  0  0  0  0
  -30.4260  -13.6470   19.0660 C   0  0  0  0  0  2  0  0  0  0  0  0
  -29.5260  -13.0180   17.9510 C   0  0  0  0  0  2  0  0  0  0  0  0
  -28.1810  -12.5520   18.5210 C   0  0  0  0  0  2  0  0  0  0  0  0
  -27.6380  -13.5920   19.5190 C   0  0  0  0  0  3  0  0  0  0  0  0
  -28.6890  -14.1030   20.5460 C   0  0  0  0  0  2  0  0  0  0  0  0
  -29.7500  -14.8500   19.7970 N   0  0  0  0  0  0  0  0  0  0  0  0
  -31.4660  -16.1360   19.6210 O   0  0  0  0  0  0  0  0  0  0  0  0
  -29.5180  -17.7600   19.9600 N   0  0  0  0  0  0  0  0  0  0  0  0
  -28.5340  -17.5510   20.0570 H   0  0  0  0  0  0  0  0  0  0  0  0
  -25.3310  -14.0470   20.4580 C   0  0  0  0  0  0  0  0  0  0  0  0
  -24.3050  -13.2430   20.8610 C   0  0  0  0  0  0  0  0  0  0  0  0
  -24.7860  -11.9010   20.7530 C   0  0  0  0  0  0  0  0  0  0  0  0
  -26.3690  -13.2020   20.1220 N   0  0  0  0  0  0  0  0  0  0  0  0
  -26.0580  -11.8970   20.3590 N   0  0  0  0  0  0  0  0  0  0  0  0
  -24.0770  -10.6250   20.9460 C   0  0  0  0  0  0  0  0  0  0  0  0
  -24.5210   -9.6640   21.8810 C   0  0  0  0  0  3  0  0  0  0  0  0
  -23.8040   -8.4610   22.0670 C   0  0  0  0  0  3  0  0  0  0  0  0
  -22.6330   -8.2070   21.3170 C   0  0  0  0  0  0  0  0  0  0  0  0
  -22.2030   -9.1580   20.3740 C   0  0  0  0  0  3  0  0  0  0  0  0
  -22.9190  -10.3540   20.1870 C   0  0  0  0  0  3  0  0  0  0  0  0
  -21.8930   -7.0530   21.4090 O   0  0  0  0  0  0  0  0  0  0  0  0
  -21.8130   -6.3400   22.5780 C   0  0  0  0  0  0  0  0  0  0  0  0
  -21.2840   -6.9030   23.7590 C   0  0  0  0  0  3  0  0  0  0  0  0
  -21.1550   -6.1150   24.9200 C   0  0  0  0  0  3  0  0  0  0  0  0
  -21.5460   -4.7620   24.9000 C   0  0  0  0  0  0  0  0  0  0  0  0
  -22.0700   -4.1980   23.7230 C   0  0  0  0  0  3  0  0  0  0  0  0
  -22.1980   -4.9830   22.5650 C   0  0  0  0  0  0  0  0  0  0  0  0
  -22.6830   -4.4280   21.4270 F   0  0  0  0  0  0  0  0  0  0  0  0
  -21.4160   -4.0020   26.0120 F   0  0  0  0  0  0  0  0  0  0  0  0
  -22.9210  -13.6990   21.2220 C   0  0  0  0  0  0  0  0  0  0  0  0
  -22.2490  -12.9810   22.1130 N   0  0  0  0  0  0  0  0  0  0  0  0
  -22.4470  -14.7320   20.7480 O   0  0  0  0  0  0  0  0  0  0  0  0
  -22.6430  -12.1510   22.5300 H   0  0  0  0  0  0  0  0  0  0  0  0
  -21.3240  -13.2770   22.3910 H   0  0  0  0  0  0  0  0  0  0  0  0
  -25.4660  -15.4250   20.3120 N   0  0  0  0  0  0  0  0  0  0  0  0
  -24.6990  -16.0620   20.4890 H   0  0  0  0  0  0  0  0  0  0  0  0
  -26.2840  -15.8800   19.9320 H   0  0  0  0  0  0  0  0  0  0  0  0
  -30.6480  -20.0680   21.1290 C   0  0  0  0  0  2  0  0  0  0  0  0
  -32.8740  -20.3150   22.2930 C   0  0  0  0  0  1  0  0  0  0  0  0
  -32.7960  -19.0290   20.1630 C   0  0  0  0  0  1  0  0  0  0  0  0
  -31.8390  -18.1200   22.3680 C   0  0  0  0  0  1  0  0  0  0  0  0
  -32.0050  -19.3530   21.4470 C   0  0  2  0  0  0  0  0  0  0  0  0
  2  1  1  0
  5 16  2  0
  6  4  1  0
  6 11  1  0
  7 15  1  0
  7 17  1  0
  8 14  1  0
  8 10  1  0
  9 15  1  0
 10  9  1  0
 11 10  2  0
 12 13  1  0
 12  6  2  0
 13  8  2  0
 14  7  1  0
 15  5  1  0
 17 19  2  0
 18 17  1  0
 20 18  1  0
 21 30  2  0
 21 26  1  0
 22 18  1  0
 22 26  1  0
 23 22  1  0
 24 25  1  0
 24 23  1  0
 25 21  1  0
 26 27  2  0
 27 28  1  0
 29 28  2  0
 30 29  1  0
 31  5  1  0
 31 36  1  0
 31 32  1  0
 32 35  1  1
 32 33  1  0
 34 32  1  0
 36 39  1  0
 37 41  1  0
 37 36  1  0
 38 37  2  0
 41 40  1  0
 43 41  1  0
 43 44  1  0
 43 42  1  0
 45 84  1  0
 46 54  1  0
 47 52  1  0
 48 49  1  0
 48 47  1  0
 50 49  1  0
 50 59  1  0
 50 51  1  0
 52 46  1  0
 52 51  1  0
 53 46  2  0
 54 45  1  0
 54 55  1  0
 56 57  2  0
 57 76  1  0
 58 57  1  0
 58 61  1  0
 59 60  1  0
 59 56  1  0
 60 58  2  0
 61 62  1  0
 62 63  2  0
 64 67  1  0
 64 63  1  0
 65 64  2  0
 66 65  1  0
 66 61  2  0
 67 68  1  0
 68 69  1  0
 69 70  2  0
 71 70  1  0
 71 75  1  0
 72 71  2  0
 73 68  2  0
 73 72  1  0
 74 73  1  0
 76 77  1  0
 77 80  1  0
 77 79  1  0
 78 76  2  0
 81 56  1  0
 81 82  1  0
 83 81  1  0
 84 88  1  0
 88 86  1  6
 88 85  1  0
 88 87  1  0
M  ISO  4   3 101   4 101  46 100  54 100
M  END
>  <TORSDO>  (47) 
F 20

>  <SCORE>  (47) 
-14.789

>  <name>  (47) 
46

>  <ligand_id>  (47) 
46

>  <original_smiles>  (47) 
[H]c1c([H])c([H])c2c(c1[H])C([H])([H])C([H])([H])C([H])([H])C2([H])N([H])C(=O)C1([H])N(C(=O)C([H])(N([H])C(=O)C([H])(N([H])C([H])([H])[H])C([H])([H])[H])C(C([H])([H])[H])(C([H])([H])[H])C([H])([H])[H])C([H])([H])c2c([H])c(OC([H])([H])C([H])(C([H])([H])[H])C([H])(N([H])C(=O)N3C([H])([H])C([H])([H])C([H])([H])C([H])(n4nc(-c5c([H])c([H])c(Oc6c([H])c([H])c(F)c([H])c6F)c([H])c5[H])c(C(=O)N([H])[H])c4N([H])[H])C3([H])[H])C([H])([H])C(C([H])([H])[H])(C([H])([H])[H])C([H])([H])[H])c([H])c([H])c2C1([H])[H]

>  <smiles>  (47) 
[H]c1c([H])c([H])c2c(c1[H])C([H])([H])C([H])([H])C([H])([H])C2([H])N([H])C(=O)C1([H])N(C(=O)C([H])(N([H])C(=O)C([H])(N([H])C([H])([H])[H])C([H])([H])[H])C(C([H])([H])[H])(C([H])([H])[H])C([H])([H])[H])C([H])([H])c2c([H])c(OC([H])([H])C([H])(C([H])([H])[H])C([H])(N([H])C(=O)N3C([H])([H])C([H])([H])C([H])([H])C([H])(n4nc(-c5c([H])c([H])c(Oc6c([H])c([H])c(F)c([H])c6F)c([H])c5[H])c(C(=O)N([H])[H])c4N([H])[H])C3([H])[H])C([H])([H])C(C([H])([H])[H])(C([H])([H])[H])C([H])([H])[H])c([H])c([H])c2C1([H])[H]

$$$$
47:0:0
     RDKit          3D

 89 96  0  0  1  0  0  0  0  0999 V2000
  -29.2590  -21.1280   20.1130 C   0  0  0  0  0  3  0  0  0  0  0  0
  -30.1640  -21.2990   18.8870 C   0  0  0  0  0  0  0  0  0  0  0  0
  -29.5000  -21.7100   17.5800 C   0  0  0  0  0  1  0  0  0  0  0  0
  -31.3840  -21.1270   18.9480 O   0  0  0  0  0  0  0  0  0  0  0  0
  -29.6850  -19.8220   20.9500 C   0  0  0  0  0  2  0  0  0  0  0  0
  -29.4810  -18.3490   20.3500 C   0  0  0  0  0  3  0  0  0  0  0  0
  -30.2720  -17.1500   21.0480 C   0  0  0  0  0  3  0  0  0  0  0  0
  -30.6150  -14.6420   20.4170 C   0  0  0  0  0  0  0  0  0  0  0  0
  -30.3780  -12.4150   19.3260 C   0  0  0  0  0  2  0  0  0  0  0  0
  -29.4290  -12.5520   18.1150 C   0  0  0  0  0  2  0  0  0  0  0  0
  -27.9570  -12.3970   18.5460 C   0  0  0  0  0  2  0  0  0  0  0  0
  -27.6070  -13.2500   19.7940 C   0  0  0  0  0  3  0  0  0  0  0  0
  -28.6720  -13.0940   20.9030 C   0  0  0  0  0  2  0  0  0  0  0  0
  -29.9730  -13.4360   20.3130 N   0  0  0  0  0  0  0  0  0  0  0  0
  -31.7880  -14.7740   20.0610 O   0  0  0  0  0  0  0  0  0  0  0  0
  -29.8520  -15.7280   20.7640 N   0  0  0  0  0  0  0  0  0  0  0  0
  -28.8840  -15.5120   20.9600 H   0  0  0  0  0  0  0  0  0  0  0  0
  -25.2110  -13.8460   20.5050 C   0  0  0  0  0  0  0  0  0  0  0  0
  -24.1460  -13.0730   20.8770 C   0  0  0  0  0  0  0  0  0  0  0  0
  -24.6100  -11.7220   20.8520 C   0  0  0  0  0  0  0  0  0  0  0  0
  -26.2590  -12.9680   20.2800 N   0  0  0  0  0  0  0  0  0  0  0  0
  -25.9030  -11.6840   20.5460 N   0  0  0  0  0  0  0  0  0  0  0  0
  -23.8840  -10.4600   21.0460 C   0  0  0  0  0  0  0  0  0  0  0  0
  -24.3270   -9.4910   21.9720 C   0  0  0  0  0  3  0  0  0  0  0  0
  -23.6030   -8.2920   22.1550 C   0  0  0  0  0  3  0  0  0  0  0  0
  -22.4220   -8.0560   21.4110 C   0  0  0  0  0  0  0  0  0  0  0  0
  -22.0000   -9.0150   20.4730 C   0  0  0  0  0  3  0  0  0  0  0  0
  -22.7240  -10.2040   20.2890 C   0  0  0  0  0  3  0  0  0  0  0  0
  -21.6690   -6.9110   21.5050 O   0  0  0  0  0  0  0  0  0  0  0  0
  -21.6430   -6.1580   22.6510 C   0  0  0  0  0  0  0  0  0  0  0  0
  -21.2520   -6.7050   23.8940 C   0  0  0  0  0  3  0  0  0  0  0  0
  -21.1730   -5.8790   25.0320 C   0  0  0  0  0  3  0  0  0  0  0  0
  -21.4730   -4.5070   24.9300 C   0  0  0  0  0  0  0  0  0  0  0  0
  -21.8550   -3.9600   23.6930 C   0  0  0  0  0  3  0  0  0  0  0  0
  -21.9380   -4.7840   22.5560 C   0  0  0  0  0  0  0  0  0  0  0  0
  -22.2860   -4.2470   21.3620 F   0  0  0  0  0  0  0  0  0  0  0  0
  -21.3890   -3.7110   26.0220 F   0  0  0  0  0  0  0  0  0  0  0  0
  -22.7470  -13.5480   21.1440 C   0  0  0  0  0  0  0  0  0  0  0  0
  -22.0220  -12.8540   22.0120 N   0  0  0  0  0  0  0  0  0  0  0  0
  -22.3070  -14.5700   20.6160 O   0  0  0  0  0  0  0  0  0  0  0  0
  -22.3950  -12.0280   22.4570 H   0  0  0  0  0  0  0  0  0  0  0  0
  -21.0810  -13.1500   22.2340 H   0  0  0  0  0  0  0  0  0  0  0  0
  -25.3710  -15.2160   20.3170 N   0  0  0  0  0  0  0  0  0  0  0  0
  -24.5960  -15.8620   20.4140 H   0  0  0  0  0  0  0  0  0  0  0  0
  -26.2090  -15.6570   19.9600 H   0  0  0  0  0  0  0  0  0  0  0  0
  -29.1220  -22.5000   20.9440 C   0  0  0  0  0  2  0  0  0  0  0  0
  -29.3010  -23.9860   20.3380 C   0  0  0  0  0  2  0  0  0  0  0  0
  -28.0730  -24.9950   20.3220 C   0  0  0  0  0  2  0  0  0  0  0  0
  -28.3210  -26.4570   20.2000 O   0  0  0  0  0  0  0  0  0  0  0  0
  -24.6100  -31.8780   23.2310 C   0  0  0  0  0  0  0  0  0  0  0  0
  -27.2030  -27.3110   20.1670 C   0  0  0  0  0  0  0  0  0  0  0  0
  -23.3990  -30.4790   21.5970 C   0  0  0  0  0  3  0  0  0  0  0  0
  -24.8420  -28.9290   20.1710 C   0  0  0  0  0  0  0  0  0  0  0  0
  -25.9390  -30.7940   21.4060 C   0  0  0  0  0  2  0  0  0  0  0  0
  -26.0160  -29.4160   20.7600 C   0  0  0  0  0  0  0  0  0  0  0  0
  -27.2010  -28.6190   20.7440 C   0  0  0  0  0  3  0  0  0  0  0  0
  -26.0040  -26.8830   19.5510 C   0  0  0  0  0  3  0  0  0  0  0  0
  -24.8390  -27.6710   19.5570 C   0  0  0  0  0  3  0  0  0  0  0  0
  -23.6080  -29.8050   20.2180 C   0  0  0  0  0  2  0  0  0  0  0  0
  -24.6680  -31.0680   22.1350 N   0  0  0  0  0  0  0  0  0  0  0  0
  -23.5280  -32.1580   23.7690 O   0  0  0  0  0  0  0  0  0  0  0  0
  -22.7390  -29.4630   22.5610 C   0  0  0  0  0  0  0  0  0  0  0  0
  -21.4130  -29.2840   22.4360 N   0  0  0  0  0  0  0  0  0  0  0  0
  -23.4180  -28.8390   23.3800 O   0  0  0  0  0  0  0  0  0  0  0  0
  -20.9240  -29.8380   21.7470 H   0  0  0  0  0  0  0  0  0  0  0  0
  -18.0390  -28.0770   22.9330 C   0  0  0  0  0  0  0  0  0  0  0  0
  -20.5960  -28.3490   23.2100 C   0  0  0  0  0  3  0  0  0  0  0  0
  -20.7050  -26.9130   22.6480 C   0  0  0  0  0  2  0  0  0  0  0  0
  -19.6090  -26.5770   21.6320 C   0  0  0  0  0  2  0  0  0  0  0  0
  -18.2240  -26.7230   22.2690 C   0  0  0  0  0  2  0  0  0  0  0  0
  -19.1520  -28.8470   23.3610 C   0  0  0  0  0  0  0  0  0  0  0  0
  -18.9270  -30.1130   23.9430 C   0  0  0  0  0  3  0  0  0  0  0  0
  -17.6190  -30.6120   24.0990 C   0  0  0  0  0  3  0  0  0  0  0  0
  -16.5200  -29.8380   23.6870 C   0  0  0  0  0  3  0  0  0  0  0  0
  -16.7300  -28.5720   23.1100 C   0  0  0  0  0  3  0  0  0  0  0  0
  -25.8960  -32.5120   23.8470 C   0  0  0  0  0  3  0  0  0  0  0  0
  -25.5870  -33.9090   24.1810 N   0  0  0  0  0  0  0  0  0  0  0  0
  -25.9150  -34.9630   23.4210 C   0  0  0  0  0  0  0  0  0  0  0  0
  -26.5790  -34.8610   22.3860 O   0  0  0  0  0  0  0  0  0  0  0  0
  -25.0010  -34.0640   24.9890 H   0  0  0  0  0  0  0  0  0  0  0  0
  -24.1850  -36.7570   23.0780 C   0  0  0  0  0  1  0  0  0  0  0  0
  -25.4300  -36.3510   23.8830 C   0  0  0  0  0  3  0  0  0  0  0  0
  -27.5700  -37.2330   24.7020 C   0  0  0  0  0  1  0  0  0  0  0  0
  -26.4620  -37.4050   23.7670 N   0  0  0  0  0  0  0  0  0  0  0  0
  -26.0560  -38.3230   23.9240 H   0  0  0  0  0  0  0  0  0  0  0  0
  -26.4190  -31.7390   25.1210 C   0  0  1  0  0  0  0  0  0  0  0  0
  -25.3330  -31.5000   26.1950 C   0  0  0  0  0  1  0  0  0  0  0  0
  -26.9960  -30.3600   24.7240 C   0  0  0  0  0  1  0  0  0  0  0  0
  -27.5730  -32.5310   25.7770 C   0  0  0  0  0  1  0  0  0  0  0  0
  1 46  1  0
  1  5  1  0
  2  4  2  0
  2  1  1  0
  3  2  1  0
  6  5  1  0
  6  7  2  0
  8 16  1  0
  9 14  1  0
 10 11  1  0
 10  9  1  0
 12 11  1  0
 12 21  1  0
 12 13  1  0
 14  8  1  0
 14 13  1  0
 15  8  2  0
 16 17  1  0
 16  7  1  0
 18 19  2  0
 19 38  1  0
 20 19  1  0
 20 23  1  0
 21 18  1  0
 21 22  1  0
 22 20  2  0
 23 24  1  0
 24 25  2  0
 26 29  1  0
 26 25  1  0
 27 26  2  0
 28 27  1  0
 28 23  2  0
 29 30  1  0
 30 31  1  0
 31 32  2  0
 33 32  1  0
 33 37  1  0
 34 33  2  0
 35 30  2  0
 35 34  1  0
 36 35  1  0
 38 39  1  0
 39 42  1  0
 39 41  1  0
 40 38  2  0
 43 44  1  0
 43 18  1  0
 45 43  1  0
 47 46  1  0
 48 47  1  0
 49 48  1  0
 50 61  2  0
 51 49  1  0
 51 56  1  0
 52 60  1  0
 52 62  1  0
 53 59  1  0
 53 55  1  0
 54 60  1  0
 55 54  1  0
 56 55  2  0
 57 58  1  0
 57 51  2  0
 58 53  2  0
 59 52  1  0
 60 50  1  0
 62 64  2  0
 63 62  1  0
 65 63  1  0
 66 75  2  0
 66 71  1  0
 67 63  1  0
 67 71  1  0
 68 67  1  0
 69 70  1  0
 69 68  1  0
 70 66  1  0
 71 72  2  0
 72 73  1  0
 74 73  2  0
 75 74  1  0
 76 50  1  0
 76 77  1  0
 76 86  1  0
 77 80  1  0
 78 82  1  0
 78 77  1  0
 79 78  2  0
 82 81  1  0
 84 82  1  0
 84 85  1  0
 84 83  1  0
 86 89  1  1
 86 87  1  0
 88 86  1  0
M  ISO  4   8 100  16 100  48 101  49 101
M  END
>  <TORSDO>  (48) 
F 23

>  <SCORE>  (48) 
-12.712

>  <name>  (48) 
47

>  <ligand_id>  (48) 
47

>  <original_smiles>  (48) 
[H]c1c([H])c([H])c2c(c1[H])C([H])([H])C([H])([H])C([H])([H])C2([H])N([H])C(=O)C1([H])N(C(=O)C([H])(N([H])C(=O)C([H])(N([H])C([H])([H])[H])C([H])([H])[H])C(C([H])([H])[H])(C([H])([H])[H])C([H])([H])[H])C([H])([H])c2c([H])c(OC([H])([H])C([H])([H])C([H])([H])C([H])(C(=O)C([H])([H])[H])C([H])([H])C([H])([H])C([H])([H])N([H])C(=O)N3C([H])([H])C([H])([H])C([H])([H])C([H])(n4nc(-c5c([H])c([H])c(Oc6c([H])c([H])c(F)c([H])c6F)c([H])c5[H])c(C(=O)N([H])[H])c4N([H])[H])C3([H])[H])c([H])c([H])c2C1([H])[H]

>  <smiles>  (48) 
[H]c1c([H])c([H])c2c(c1[H])C([H])([H])C([H])([H])C([H])([H])C2([H])N([H])C(=O)C1([H])N(C(=O)C([H])(N([H])C(=O)C([H])(N([H])C([H])([H])[H])C([H])([H])[H])C(C([H])([H])[H])(C([H])([H])[H])C([H])([H])[H])C([H])([H])c2c([H])c(OC([H])([H])C([H])([H])C([H])([H])C([H])(C(=O)C([H])([H])[H])C([H])([H])C([H])([H])C([H])([H])N([H])C(=O)N3C([H])([H])C([H])([H])C([H])([H])C([H])(n4nc(-c5c([H])c([H])c(Oc6c([H])c([H])c(F)c([H])c6F)c([H])c5[H])c(C(=O)N([H])[H])c4N([H])[H])C3([H])[H])c([H])c([H])c2C1([H])[H]

$$$$
48:0:0
     RDKit          3D

 95102  0  0  1  0  0  0  0  0999 V2000
  -27.2260  -23.0730   19.0760 C   0  0  0  0  0  1  0  0  0  0  0  0
  -28.6440  -23.5330   19.4770 C   0  0  2  0  0  0  0  0  0  0  0  0
  -29.3440  -24.0200   18.2690 N   0  0  0  0  0  4  0  0  0  0  0  0
  -29.4980  -23.2890   17.5990 H   0  0  0  0  0  0  0  0  0  0  0  0
  -30.2310  -24.4350   18.5050 H   0  0  0  0  0  0  0  0  0  0  0  0
  -28.7940  -24.7450   17.8320 H   0  0  0  0  0  0  0  0  0  0  0  0
  -29.4450  -22.1440   20.0470 C   0  0  0  0  0  2  0  0  0  0  0  0
  -29.4890  -20.6040   19.3350 C   0  0  0  0  0  3  0  0  0  0  0  0
  -31.1310  -21.2580   17.4100 C   0  0  0  0  0  1  0  0  0  0  0  0
  -29.7390  -20.7410   17.8120 C   0  0  0  0  0  2  0  0  0  0  0  0
  -30.3440  -19.2520   19.9130 C   0  0  0  0  0  3  0  0  0  0  0  0
  -30.3630  -19.1680   21.4630 C   0  0  0  0  0  2  0  0  0  0  0  0
  -31.7570  -19.5860   23.5920 C   0  0  0  0  0  1  0  0  0  0  0  0
  -31.5950  -19.8590   22.0890 C   0  0  0  0  0  2  0  0  0  0  0  0
  -30.2050  -17.7120   19.2410 C   0  0  0  0  0  2  0  0  0  0  0  0
  -30.9070  -15.1490   19.9520 C   0  0  0  0  0  0  0  0  0  0  0  0
  -30.7510  -12.7380   19.2280 C   0  0  0  0  0  2  0  0  0  0  0  0
  -29.8200  -12.6430   17.9980 C   0  0  0  0  0  2  0  0  0  0  0  0
  -28.3540  -12.4830   18.4450 C   0  0  0  0  0  2  0  0  0  0  0  0
  -27.9610  -13.4870   19.5610 C   0  0  0  0  0  3  0  0  0  0  0  0
  -29.0190  -13.5700   20.6830 C   0  0  0  0  0  2  0  0  0  0  0  0
  -30.3040  -13.8980   20.0480 N   0  0  0  0  0  0  0  0  0  0  0  0
  -32.0960  -15.1890   19.6270 O   0  0  0  0  0  0  0  0  0  0  0  0
  -30.1230  -16.3250   19.9870 N   0  0  0  0  0  0  0  0  0  0  0  0
  -29.1910  -16.1310   20.3190 H   0  0  0  0  0  0  0  0  0  0  0  0
  -25.6050  -14.1380   20.3210 C   0  0  0  0  0  0  0  0  0  0  0  0
  -24.5220  -13.3950   20.7030 C   0  0  0  0  0  0  0  0  0  0  0  0
  -24.9460  -12.0320   20.6670 C   0  0  0  0  0  0  0  0  0  0  0  0
  -26.6210  -13.2290   20.0760 N   0  0  0  0  0  0  0  0  0  0  0  0
  -26.2330  -11.9570   20.3500 N   0  0  0  0  0  0  0  0  0  0  0  0
  -24.1860  -10.7920   20.8680 C   0  0  0  0  0  0  0  0  0  0  0  0
  -24.5750   -9.8350   21.8320 C   0  0  0  0  0  3  0  0  0  0  0  0
  -23.8150   -8.6620   22.0210 C   0  0  0  0  0  3  0  0  0  0  0  0
  -22.6530   -8.4350   21.2470 C   0  0  0  0  0  0  0  0  0  0  0  0
  -22.2840   -9.3790   20.2750 C   0  0  0  0  0  3  0  0  0  0  0  0
  -23.0430  -10.5460   20.0850 C   0  0  0  0  0  3  0  0  0  0  0  0
  -21.8690   -7.3110   21.3410 O   0  0  0  0  0  0  0  0  0  0  0  0
  -21.7390   -6.6230   22.5220 C   0  0  0  0  0  0  0  0  0  0  0  0
  -21.2540   -7.2430   23.6930 C   0  0  0  0  0  3  0  0  0  0  0  0
  -21.0670   -6.4830   24.8650 C   0  0  0  0  0  3  0  0  0  0  0  0
  -21.3520   -5.1040   24.8660 C   0  0  0  0  0  0  0  0  0  0  0  0
  -21.8260   -4.4860   23.6960 C   0  0  0  0  0  3  0  0  0  0  0  0
  -22.0150   -5.2420   22.5260 C   0  0  0  0  0  0  0  0  0  0  0  0
  -22.4530   -4.6350   21.3970 F   0  0  0  0  0  0  0  0  0  0  0  0
  -21.1680   -4.3710   25.9890 F   0  0  0  0  0  0  0  0  0  0  0  0
  -23.1440  -13.9150   20.9840 C   0  0  0  0  0  0  0  0  0  0  0  0
  -22.4150  -13.2540   21.8760 N   0  0  0  0  0  0  0  0  0  0  0  0
  -22.7220  -14.9420   20.4490 O   0  0  0  0  0  0  0  0  0  0  0  0
  -22.7660  -12.4190   22.3210 H   0  0  0  0  0  0  0  0  0  0  0  0
  -21.4920  -13.5870   22.1150 H   0  0  0  0  0  0  0  0  0  0  0  0
  -25.8020  -15.5030   20.1390 N   0  0  0  0  0  0  0  0  0  0  0  0
  -25.0530  -16.1760   20.2710 H   0  0  0  0  0  0  0  0  0  0  0  0
  -26.6490  -15.9260   19.7810 H   0  0  0  0  0  0  0  0  0  0  0  0
  -28.4480  -24.9160   20.4070 C   0  0  0  0  0  2  0  0  0  0  0  0
  -28.4300  -26.3830   19.9170 O   0  0  0  0  0  0  0  0  0  0  0  0
  -24.5850  -31.8100   23.0860 C   0  0  0  0  0  0  0  0  0  0  0  0
  -27.2980  -27.2560   19.9740 C   0  0  0  0  0  0  0  0  0  0  0  0
  -23.4230  -30.4100   21.4210 C   0  0  0  0  0  3  0  0  0  0  0  0
  -24.9140  -28.9060   19.9650 C   0  0  0  0  0  0  0  0  0  0  0  0
  -25.9650  -30.7620   21.2570 C   0  0  0  0  0  2  0  0  0  0  0  0
  -26.0740  -29.3840   20.5860 C   0  0  0  0  0  0  0  0  0  0  0  0
  -27.2670  -28.5780   20.5670 C   0  0  0  0  0  3  0  0  0  0  0  0
  -26.1070  -26.8630   19.3290 C   0  0  0  0  0  3  0  0  0  0  0  0
  -24.9450  -27.6610   19.3170 C   0  0  0  0  0  3  0  0  0  0  0  0
  -23.6550  -29.7600   20.0310 C   0  0  0  0  0  2  0  0  0  0  0  0
  -24.6780  -31.0170   21.9750 N   0  0  0  0  0  0  0  0  0  0  0  0
  -23.4910  -32.0550   23.6160 O   0  0  0  0  0  0  0  0  0  0  0  0
  -22.7740  -29.3650   22.3610 C   0  0  0  0  0  0  0  0  0  0  0  0
  -21.4460  -29.1760   22.2390 N   0  0  0  0  0  0  0  0  0  0  0  0
  -23.4620  -28.7280   23.1640 O   0  0  0  0  0  0  0  0  0  0  0  0
  -20.9510  -29.7410   21.5650 H   0  0  0  0  0  0  0  0  0  0  0  0
  -18.0900  -27.9080   22.7130 C   0  0  0  0  0  0  0  0  0  0  0  0
  -20.6430  -28.2070   22.9860 C   0  0  0  0  0  3  0  0  0  0  0  0
  -20.7720  -26.7920   22.3720 C   0  0  0  0  0  2  0  0  0  0  0  0
  -19.6690  -26.4750   21.3540 C   0  0  0  0  0  2  0  0  0  0  0  0
  -18.2860  -26.5800   22.0030 C   0  0  0  0  0  2  0  0  0  0  0  0
  -19.1950  -28.6780   23.1610 C   0  0  0  0  0  0  0  0  0  0  0  0
  -18.9550  -29.9220   23.7850 C   0  0  0  0  0  3  0  0  0  0  0  0
  -17.6420  -30.3910   23.9740 C   0  0  0  0  0  3  0  0  0  0  0  0
  -16.5480  -29.6150   23.5490 C   0  0  0  0  0  3  0  0  0  0  0  0
  -16.7740  -28.3790   22.9210 C   0  0  0  0  0  3  0  0  0  0  0  0
  -25.8440  -32.4620   23.7300 C   0  0  0  0  0  3  0  0  0  0  0  0
  -26.3610  -31.6860   25.0040 C   0  0  1  0  0  0  0  0  0  0  0  0
  -25.2610  -31.4140   26.0560 C   0  0  0  0  0  1  0  0  0  0  0  0
  -26.9770  -30.3250   24.6000 C   0  0  0  0  0  1  0  0  0  0  0  0
  -27.4920  -32.4960   25.6840 C   0  0  0  0  0  1  0  0  0  0  0  0
  -25.5000  -33.8510   24.0850 N   0  0  0  0  0  0  0  0  0  0  0  0
  -25.8130  -34.9250   23.3520 C   0  0  0  0  0  0  0  0  0  0  0  0
  -26.4920  -34.8560   22.3240 O   0  0  0  0  0  0  0  0  0  0  0  0
  -24.9100  -33.9810   24.8940 H   0  0  0  0  0  0  0  0  0  0  0  0
  -24.0510  -36.6920   23.0280 C   0  0  0  0  0  1  0  0  0  0  0  0
  -25.2940  -36.2940   23.8380 C   0  0  0  0  0  3  0  0  0  0  0  0
  -27.4010  -37.2050   24.7060 C   0  0  0  0  0  1  0  0  0  0  0  0
  -26.3070  -37.3690   23.7530 N   0  0  0  0  0  0  0  0  0  0  0  0
  -25.8790  -38.2780   23.9160 H   0  0  0  0  0  0  0  0  0  0  0  0
  2  1  1  6
  2  7  1  0
  2 54  1  0
  3  5  1  0
  3  2  1  0
  4  3  1  0
  6  3  1  0
  8 10  1  0
  8 11  1  0
  8  7  1  0
  9 10  1  0
 11 15  1  0
 11 12  1  0
 12 14  1  0
 14 13  1  0
 15 24  1  0
 16 24  1  0
 16 22  1  0
 17 22  1  0
 18 19  1  0
 18 17  1  0
 20 19  1  0
 20 29  1  0
 20 21  1  0
 22 21  1  0
 23 16  2  0
 24 25  1  0
 26 27  2  0
 27 46  1  0
 28 27  1  0
 28 31  1  0
 29 26  1  0
 29 30  1  0
 30 28  2  0
 31 32  1  0
 32 33  2  0
 34 37  1  0
 34 33  1  0
 35 34  2  0
 36 35  1  0
 36 31  2  0
 37 38  1  0
 38 43  2  0
 38 39  1  0
 39 40  2  0
 40 41  1  0
 41 45  1  0
 42 41  2  0
 43 42  1  0
 44 43  1  0
 46 47  1  0
 47 50  1  0
 47 49  1  0
 48 46  2  0
 51 52  1  0
 51 26  1  0
 53 51  1  0
 55 57  1  0
 55 54  1  0
 56 67  2  0
 57 62  1  0
 58 66  1  0
 58 68  1  0
 59 65  1  0
 59 61  1  0
 60 66  1  0
 61 60  1  0
 62 61  2  0
 63 57  2  0
 64 63  1  0
 64 59  2  0
 65 58  1  0
 66 56  1  0
 68 70  2  0
 69 68  1  0
 71 69  1  0
 72 81  2  0
 72 77  1  0
 73 69  1  0
 73 77  1  0
 74 73  1  0
 75 76  1  0
 75 74  1  0
 76 72  1  0
 77 78  2  0
 78 79  1  0
 80 79  2  0
 81 80  1  0
 82 56  1  0
 82 87  1  0
 82 83  1  0
 83 86  1  1
 83 84  1  0
 85 83  1  0
 87 90  1  0
 88 92  1  0
 88 87  1  0
 89 88  2  0
 92 91  1  0
 94 92  1  0
 94 95  1  0
 94 93  1  0
M  ISO  4  16 100  24 100  54 101  55 101
M  END
>  <TORSDO>  (49) 
F 25

>  <SCORE>  (49) 
-13.020

>  <name>  (49) 
48

>  <ligand_id>  (49) 
48

>  <original_smiles>  (49) 
[H]c1c([H])c([H])c2c(c1[H])C([H])([H])C([H])([H])C([H])([H])C2([H])N([H])C(=O)C1([H])N(C(=O)C([H])(N([H])C(=O)C([H])(N([H])C([H])([H])[H])C([H])([H])[H])C(C([H])([H])[H])(C([H])([H])[H])C([H])([H])[H])C([H])([H])c2c([H])c(OC([H])([H])C(C([H])([H])[H])(C([H])([H])C([H])(C([H])([H])C([H])([H])[H])C([H])(C([H])([H])N([H])C(=O)N3C([H])([H])C([H])([H])C([H])([H])C([H])(n4nc(-c5c([H])c([H])c(Oc6c([H])c([H])c(F)c([H])c6F)c([H])c5[H])c(C(=O)N([H])[H])c4N([H])[H])C3([H])[H])C([H])([H])C([H])([H])C([H])([H])[H])[N+]([H])([H])[H])c([H])c([H])c2C1([H])[H]

>  <smiles>  (49) 
[H]c1c([H])c([H])c2c(c1[H])C([H])([H])C([H])([H])C([H])([H])C2([H])N([H])C(=O)C1([H])N(C(=O)C([H])(N([H])C(=O)C([H])(N([H])C([H])([H])[H])C([H])([H])[H])C(C([H])([H])[H])(C([H])([H])[H])C([H])([H])[H])C([H])([H])c2c([H])c(OC([H])([H])C(C([H])([H])[H])(C([H])([H])C([H])(C([H])([H])C([H])([H])[H])C([H])(C([H])([H])N([H])C(=O)N3C([H])([H])C([H])([H])C([H])([H])C([H])(n4nc(-c5c([H])c([H])c(Oc6c([H])c([H])c(F)c([H])c6F)c([H])c5[H])c(C(=O)N([H])[H])c4N([H])[H])C3([H])[H])C([H])([H])C([H])([H])C([H])([H])[H])[N+]([H])([H])[H])c([H])c([H])c2C1([H])[H]

$$$$
49:0:0
     RDKit          3D

 93100  0  0  1  0  0  0  0  0999 V2000
  -29.8160  -18.7870   20.2960 C   0  0  0  0  0  0  0  0  0  0  0  0
  -30.3120  -15.6790   20.2270 C   0  0  0  0  0  0  0  0  0  0  0  0
  -30.3810  -13.1650   19.3720 C   0  0  0  0  0  2  0  0  0  0  0  0
  -29.4660  -12.7870   18.1740 C   0  0  0  0  0  2  0  0  0  0  0  0
  -28.0450  -12.4430   18.6460 C   0  0  0  0  0  2  0  0  0  0  0  0
  -27.5580  -13.4230   19.7390 C   0  0  0  0  0  3  0  0  0  0  0  0
  -28.6120  -13.7140   20.8330 C   0  0  0  0  0  2  0  0  0  0  0  0
  -29.7740  -14.3290   20.1550 N   0  0  0  0  0  0  0  0  0  0  0  0
  -31.5420  -15.6170   20.0510 O   0  0  0  0  0  0  0  0  0  0  0  0
  -29.5650  -17.0380   20.3000 N   0  0  0  0  0  4  0  0  0  0  0  0
  -28.5770  -16.8400   20.3820 H   0  0  0  0  0  0  0  0  0  0  0  0
  -25.2060  -13.9260   20.5570 C   0  0  0  0  0  0  0  0  0  0  0  0
  -24.1600  -13.1300   20.9280 C   0  0  0  0  0  0  0  0  0  0  0  0
  -24.6420  -11.7870   20.8670 C   0  0  0  0  0  0  0  0  0  0  0  0
  -26.2530  -13.0680   20.2790 N   0  0  0  0  0  0  0  0  0  0  0  0
  -25.9300  -11.7730   20.5350 N   0  0  0  0  0  0  0  0  0  0  0  0
  -23.9290  -10.5140   21.0460 C   0  0  0  0  0  0  0  0  0  0  0  0
  -24.3620   -9.5470   21.9810 C   0  0  0  0  0  3  0  0  0  0  0  0
  -23.6430   -8.3440   22.1500 C   0  0  0  0  0  3  0  0  0  0  0  0
  -22.4770   -8.0990   21.3850 C   0  0  0  0  0  0  0  0  0  0  0  0
  -22.0650   -9.0540   20.4400 C   0  0  0  0  0  3  0  0  0  0  0  0
  -22.7830  -10.2490   20.2700 C   0  0  0  0  0  3  0  0  0  0  0  0
  -21.7320   -6.9460   21.4620 O   0  0  0  0  0  0  0  0  0  0  0  0
  -21.6530   -6.2160   22.6220 C   0  0  0  0  0  0  0  0  0  0  0  0
  -21.1330   -6.7670   23.8140 C   0  0  0  0  0  3  0  0  0  0  0  0
  -21.0060   -5.9600   24.9640 C   0  0  0  0  0  3  0  0  0  0  0  0
  -21.3880   -4.6070   24.9220 C   0  0  0  0  0  0  0  0  0  0  0  0
  -21.9020   -4.0560   23.7340 C   0  0  0  0  0  3  0  0  0  0  0  0
  -22.0290   -4.8590   22.5860 C   0  0  0  0  0  0  0  0  0  0  0  0
  -22.5040   -4.3170   21.4380 F   0  0  0  0  0  0  0  0  0  0  0  0
  -21.2580   -3.8300   26.0230 F   0  0  0  0  0  0  0  0  0  0  0  0
  -22.7620  -13.5900   21.2190 C   0  0  0  0  0  0  0  0  0  0  0  0
  -22.0540  -12.8800   22.0910 N   0  0  0  0  0  0  0  0  0  0  0  0
  -22.3080  -14.6130   20.7090 O   0  0  0  0  0  0  0  0  0  0  0  0
  -22.4380  -12.0520   22.5250 H   0  0  0  0  0  0  0  0  0  0  0  0
  -21.1180  -13.1700   22.3340 H   0  0  0  0  0  0  0  0  0  0  0  0
  -25.3480  -15.3030   20.4010 N   0  0  0  0  0  0  0  0  0  0  0  0
  -24.5740  -15.9420   20.5440 H   0  0  0  0  0  0  0  0  0  0  0  0
  -26.1750  -15.7580   20.0400 H   0  0  0  0  0  0  0  0  0  0  0  0
  -30.9550  -18.9870   19.2670 C   0  0  0  0  0  2  0  0  0  0  0  0
  -31.8920  -20.1660   19.5660 C   0  0  0  0  0  2  0  0  0  0  0  0
  -33.1110  -20.2550   18.6330 C   0  0  0  0  0  2  0  0  0  0  0  0
  -33.9870  -21.5000   18.8900 C   0  0  0  0  0  2  0  0  0  0  0  0
  -33.3100  -22.7640   18.5390 N   0  0  0  0  0  4  0  0  0  0  0  0
  -32.9790  -22.7430   17.5910 H   0  0  0  0  0  0  0  0  0  0  0  0
  -33.9570  -23.5280   18.6210 H   0  0  0  0  0  0  0  0  0  0  0  0
  -32.5390  -22.9460   19.1540 H   0  0  0  0  0  0  0  0  0  0  0  0
  -28.7550  -20.3990   20.2630 C   0  0  0  0  0  2  0  0  0  0  0  0
  -28.9790  -22.3190   20.2650 C   0  0  0  0  0  3  0  0  0  0  0  0
  -29.5850  -22.2860   22.7630 C   0  0  0  0  0  1  0  0  0  0  0  0
  -30.0530  -22.5840   21.3360 C   0  0  0  0  0  2  0  0  0  0  0  0
  -27.9500  -23.9430   20.2630 C   0  0  0  0  0  2  0  0  0  0  0  0
  -28.1570  -25.6730   20.3210 O   0  0  0  0  0  0  0  0  0  0  0  0
  -24.6480  -31.9040   23.2650 C   0  0  0  0  0  0  0  0  0  0  0  0
  -27.1770  -26.8620   20.2740 C   0  0  0  0  0  0  0  0  0  0  0  0
  -23.4600  -30.5170   21.6160 C   0  0  0  0  0  3  0  0  0  0  0  0
  -24.9100  -28.8740   20.2080 C   0  0  0  0  0  0  0  0  0  0  0  0
  -26.0400  -30.6610   21.5060 C   0  0  0  0  0  2  0  0  0  0  0  0
  -26.1030  -29.2330   20.8480 C   0  0  0  0  0  0  0  0  0  0  0  0
  -27.2240  -28.2560   20.8450 C   0  0  0  0  0  3  0  0  0  0  0  0
  -25.9510  -26.6980   19.5830 C   0  0  0  0  0  3  0  0  0  0  0  0
  -24.8720  -27.6300   19.5520 C   0  0  0  0  0  3  0  0  0  0  0  0
  -23.7040  -29.8230   20.2450 C   0  0  0  0  0  2  0  0  0  0  0  0
  -24.7390  -31.0590   22.1810 N   0  0  0  0  0  0  0  0  0  0  0  0
  -23.5530  -32.2040   23.7720 O   0  0  0  0  0  0  0  0  0  0  0  0
  -22.7370  -29.5370   22.5790 C   0  0  0  0  0  0  0  0  0  0  0  0
  -21.4100  -29.3700   22.4290 N   0  0  0  0  0  0  0  0  0  0  0  0
  -23.3820  -28.9240   23.4330 O   0  0  0  0  0  0  0  0  0  0  0  0
  -20.9400  -29.9120   21.7180 H   0  0  0  0  0  0  0  0  0  0  0  0
  -18.0240  -28.1320   22.8770 C   0  0  0  0  0  0  0  0  0  0  0  0
  -20.5750  -28.4330   23.1910 C   0  0  0  0  0  3  0  0  0  0  0  0
  -20.7040  -26.9960   22.6360 C   0  0  0  0  0  2  0  0  0  0  0  0
  -19.6310  -26.6500   21.6000 C   0  0  0  0  0  2  0  0  0  0  0  0
  -18.2340  -26.7810   22.2130 C   0  0  0  0  0  2  0  0  0  0  0  0
  -19.1240  -28.9150   23.3220 C   0  0  0  0  0  0  0  0  0  0  0  0
  -18.8740  -30.1750   23.9080 C   0  0  0  0  0  3  0  0  0  0  0  0
  -17.5570  -30.6550   24.0490 C   0  0  0  0  0  3  0  0  0  0  0  0
  -16.4730  -29.8710   23.6170 C   0  0  0  0  0  3  0  0  0  0  0  0
  -16.7070  -28.6100   23.0390 C   0  0  0  0  0  3  0  0  0  0  0  0
  -25.9110  -32.5430   23.9150 C   0  0  0  0  0  3  0  0  0  0  0  0
  -26.3850  -31.7880   25.2200 C   0  0  1  0  0  0  0  0  0  0  0  0
  -25.2640  -31.5790   26.2650 C   0  0  0  0  0  1  0  0  0  0  0  0
  -26.9610  -30.3950   24.8770 C   0  0  0  0  0  1  0  0  0  0  0  0
  -27.5290  -32.5820   25.8960 C   0  0  0  0  0  1  0  0  0  0  0  0
  -25.6000  -33.9500   24.2390 N   0  0  0  0  0  0  0  0  0  0  0  0
  -25.9160  -35.0050   23.4730 C   0  0  0  0  0  0  0  0  0  0  0  0
  -26.5590  -34.8950   22.4270 O   0  0  0  0  0  0  0  0  0  0  0  0
  -25.0320  -34.1070   25.0570 H   0  0  0  0  0  0  0  0  0  0  0  0
  -24.1710  -36.8000   23.1850 C   0  0  0  0  0  1  0  0  0  0  0  0
  -25.4490  -36.4000   23.9410 C   0  0  0  0  0  3  0  0  0  0  0  0
  -27.6110  -37.3090   24.6740 C   0  0  0  0  0  1  0  0  0  0  0  0
  -26.4720  -37.4560   23.7700 N   0  0  0  0  0  0  0  0  0  0  0  0
  -26.0680  -38.3770   23.9150 H   0  0  0  0  0  0  0  0  0  0  0  0
  1 10  2  0
  2 10  1  0
  3  8  1  0
  4  5  1  0
  4  3  1  0
  6  5  1  0
  6 15  1  0
  6  7  1  0
  8  2  1  0
  8  7  1  0
  9  2  2  0
 10 11  1  0
 12 13  2  0
 13 32  1  0
 14 13  1  0
 14 17  1  0
 15 16  1  0
 15 12  1  0
 16 14  2  0
 17 18  1  0
 18 19  2  0
 20 23  1  0
 20 19  1  0
 21 20  2  0
 22 21  1  0
 22 17  2  0
 23 24  1  0
 24 25  1  0
 25 26  2  0
 27 26  1  0
 27 31  1  0
 28 27  2  0
 29 24  2  0
 29 28  1  0
 30 29  1  0
 32 33  1  0
 33 36  1  0
 33 35  1  0
 34 32  2  0
 37 38  1  0
 37 12  1  0
 39 37  1  0
 40 41  1  0
 40  1  1  0
 42 43  1  0
 42 41  1  0
 44 46  1  0
 44 43  1  0
 44 47  1  0
 45 44  1  0
 48 49  1  0
 48  1  1  0
 49 52  1  0
 49 51  1  0
 51 50  1  0
 52 53  1  0
 54 65  2  0
 55 53  1  0
 55 60  1  0
 56 64  1  0
 56 66  1  0
 57 63  1  0
 57 59  1  0
 58 64  1  0
 59 58  1  0
 60 59  2  0
 61 55  2  0
 62 61  1  0
 62 57  2  0
 63 56  1  0
 64 54  1  0
 66 68  2  0
 67 66  1  0
 69 67  1  0
 70 79  2  0
 70 75  1  0
 71 67  1  0
 71 75  1  0
 72 71  1  0
 73 74  1  0
 73 72  1  0
 74 70  1  0
 75 76  2  0
 76 77  1  0
 78 77  2  0
 79 78  1  0
 80 54  1  0
 80 85  1  0
 80 81  1  0
 81 84  1  1
 81 82  1  0
 83 81  1  0
 85 88  1  0
 86 90  1  0
 86 85  1  0
 87 86  2  0
 90 89  1  0
 92 93  1  0
 92 90  1  0
 92 91  1  0
M  ISO  4   2 100  10 100  52 101  53 101
M  END
>  <TORSDO>  (50) 
F 25

>  <SCORE>  (50) 
-14.647

>  <name>  (50) 
49

>  <ligand_id>  (50) 
49

>  <original_smiles>  (50) 
[H]c1c([H])c([H])c2c(c1[H])C([H])([H])C([H])([H])C([H])([H])C2([H])N([H])C(=O)C1([H])N(C(=O)C([H])(N([H])C(=O)C([H])(N([H])C([H])([H])[H])C([H])([H])[H])C(C([H])([H])[H])(C([H])([H])[H])C([H])([H])[H])C([H])([H])c2c([H])c(OC([H])([H])C([H])(C([H])([H])C([H])([H])[H])C([H])([H])C([H])(N([H])C(=O)N3C([H])([H])C([H])([H])C([H])([H])C([H])(n4nc(-c5c([H])c([H])c(Oc6c([H])c([H])c(F)c([H])c6F)c([H])c5[H])c(C(=O)N([H])[H])c4N([H])[H])C3([H])[H])C([H])([H])C([H])([H])C([H])([H])C([H])([H])[N+]([H])([H])[H])c([H])c([H])c2C1([H])[H]

>  <smiles>  (50) 
[H]c1c([H])c([H])c2c(c1[H])C([H])([H])C([H])([H])C([H])([H])C2([H])N([H])C(=O)C1([H])N(C(=O)C([H])(N([H])C(=O)C([H])(N([H])C([H])([H])[H])C([H])([H])[H])C(C([H])([H])[H])(C([H])([H])[H])C([H])([H])[H])C([H])([H])c2c([H])c(OC([H])([H])C([H])(C([H])([H])C([H])([H])[H])C([H])([H])C([H])(N([H])C(=O)N3C([H])([H])C([H])([H])C([H])([H])C([H])(n4nc(-c5c([H])c([H])c(Oc6c([H])c([H])c(F)c([H])c6F)c([H])c5[H])c(C(=O)N([H])[H])c4N([H])[H])C3([H])[H])C([H])([H])C([H])([H])C([H])([H])C([H])([H])[N+]([H])([H])[H])c([H])c([H])c2C1([H])[H]

$$$$
50:0:0
     RDKit          3D

 89 96  0  0  1  0  0  0  0  0999 V2000
  -28.9530  -21.1670   20.5690 N   0  0  0  0  0  4  0  0  0  0  0  0
  -28.0610  -21.0530   21.0220 H   0  0  0  0  0  0  0  0  0  0  0  0
  -29.6110  -21.2200   21.3310 H   0  0  0  0  0  0  0  0  0  0  0  0
  -28.9280  -22.7240   19.9430 C   0  0  0  0  0  2  0  0  0  0  0  0
  -28.1030  -24.2280   20.5100 C   0  0  0  0  0  2  0  0  0  0  0  0
  -28.2900  -25.8590   20.2880 O   0  0  0  0  0  0  0  0  0  0  0  0
  -24.6490  -31.8220   23.2120 C   0  0  0  0  0  0  0  0  0  0  0  0
  -27.2520  -26.9300   20.2700 C   0  0  0  0  0  0  0  0  0  0  0  0
  -23.4760  -30.4080   21.5750 C   0  0  0  0  0  3  0  0  0  0  0  0
  -24.9440  -28.7950   20.1840 C   0  0  0  0  0  0  0  0  0  0  0  0
  -26.0420  -30.6310   21.4470 C   0  0  0  0  0  2  0  0  0  0  0  0
  -26.1250  -29.2150   20.8070 C   0  0  0  0  0  0  0  0  0  0  0  0
  -27.2760  -28.3050   20.8190 C   0  0  0  0  0  3  0  0  0  0  0  0
  -26.0370  -26.6580   19.6040 C   0  0  0  0  0  3  0  0  0  0  0  0
  -24.9230  -27.5370   19.5600 C   0  0  0  0  0  3  0  0  0  0  0  0
  -23.7210  -29.7120   20.2070 C   0  0  0  0  0  2  0  0  0  0  0  0
  -24.7440  -30.9820   22.1320 N   0  0  0  0  0  0  0  0  0  0  0  0
  -23.5540  -32.1110   23.7210 O   0  0  0  0  0  0  0  0  0  0  0  0
  -22.7790  -29.4170   22.5420 C   0  0  0  0  0  0  0  0  0  0  0  0
  -21.4470  -29.2590   22.4190 N   0  0  0  0  0  0  0  0  0  0  0  0
  -23.4410  -28.7890   23.3710 O   0  0  0  0  0  0  0  0  0  0  0  0
  -20.9660  -29.8160   21.7270 H   0  0  0  0  0  0  0  0  0  0  0  0
  -18.0560  -28.0810   22.9420 C   0  0  0  0  0  0  0  0  0  0  0  0
  -20.6200  -28.3270   23.1920 C   0  0  0  0  0  3  0  0  0  0  0  0
  -20.7070  -26.8950   22.6140 C   0  0  0  0  0  2  0  0  0  0  0  0
  -19.5960  -26.5840   21.6050 C   0  0  0  0  0  2  0  0  0  0  0  0
  -18.2190  -26.7350   22.2570 C   0  0  0  0  0  2  0  0  0  0  0  0
  -19.1820  -28.8350   23.3670 C   0  0  0  0  0  0  0  0  0  0  0  0
  -18.9730  -30.0950   23.9700 C   0  0  0  0  0  3  0  0  0  0  0  0
  -17.6710  -30.6000   24.1500 C   0  0  0  0  0  3  0  0  0  0  0  0
  -16.5600  -29.8430   23.7400 C   0  0  0  0  0  3  0  0  0  0  0  0
  -16.7530  -28.5850   23.1430 C   0  0  0  0  0  3  0  0  0  0  0  0
  -25.9120  -32.4760   23.8510 C   0  0  0  0  0  3  0  0  0  0  0  0
  -25.5890  -33.8790   24.1640 N   0  0  0  0  0  0  0  0  0  0  0  0
  -25.9320  -34.9330   23.4100 C   0  0  0  0  0  0  0  0  0  0  0  0
  -26.6180  -34.8250   22.3910 O   0  0  0  0  0  0  0  0  0  0  0  0
  -24.9810  -34.0360   24.9550 H   0  0  0  0  0  0  0  0  0  0  0  0
  -24.2140  -36.7320   23.0250 C   0  0  0  0  0  1  0  0  0  0  0  0
  -25.4410  -36.3250   23.8560 C   0  0  0  0  0  3  0  0  0  0  0  0
  -27.5620  -37.2150   24.7210 C   0  0  0  0  0  1  0  0  0  0  0  0
  -26.4770  -37.3770   23.7560 N   0  0  0  0  0  0  0  0  0  0  0  0
  -26.0690  -38.2990   23.8900 H   0  0  0  0  0  0  0  0  0  0  0  0
  -26.4010  -31.7310   25.1550 C   0  0  1  0  0  0  0  0  0  0  0  0
  -25.2870  -31.5140   26.2070 C   0  0  0  0  0  1  0  0  0  0  0  0
  -26.9900  -30.3440   24.8100 C   0  0  0  0  0  1  0  0  0  0  0  0
  -27.5390  -32.5370   25.8230 C   0  0  0  0  0  1  0  0  0  0  0  0
  -29.2490  -19.6730   19.8670 C   0  0  0  0  0  3  0  0  0  0  0  0
  -26.8480  -18.7440   19.9150 C   0  0  0  0  0  1  0  0  0  0  0  0
  -27.5380  -20.2760   18.0130 C   0  0  0  0  0  1  0  0  0  0  0  0
  -28.0150  -19.2330   19.0400 C   0  0  0  0  0  3  0  0  0  0  0  0
  -29.9010  -18.1640   20.6170 C   0  0  0  0  0  2  0  0  0  0  0  0
  -30.4920  -15.2680   20.2220 C   0  0  0  0  0  0  0  0  0  0  0  0
  -30.4570  -12.8350   19.3140 C   0  0  0  0  0  2  0  0  0  0  0  0
  -29.5260  -12.6270   18.0930 C   0  0  0  0  0  2  0  0  0  0  0  0
  -28.0770  -12.3650   18.5420 C   0  0  0  0  0  2  0  0  0  0  0  0
  -27.6340  -13.3300   19.6690 C   0  0  0  0  0  3  0  0  0  0  0  0
  -28.6900  -13.4700   20.7850 C   0  0  0  0  0  2  0  0  0  0  0  0
  -29.9140  -13.9720   20.1390 N   0  0  0  0  0  0  0  0  0  0  0  0
  -31.7210  -15.2620   20.0650 O   0  0  0  0  0  0  0  0  0  0  0  0
  -29.7190  -16.5320   20.2800 N   0  0  0  0  0  0  0  0  0  0  0  0
  -28.7380  -16.3050   20.2280 H   0  0  0  0  0  0  0  0  0  0  0  0
  -25.2660  -13.8980   20.4220 C   0  0  0  0  0  0  0  0  0  0  0  0
  -24.2030  -13.1260   20.7990 C   0  0  0  0  0  0  0  0  0  0  0  0
  -24.6690  -11.7760   20.7800 C   0  0  0  0  0  0  0  0  0  0  0  0
  -26.3080  -13.0200   20.1850 N   0  0  0  0  0  0  0  0  0  0  0  0
  -25.9620  -11.7380   20.4700 N   0  0  0  0  0  0  0  0  0  0  0  0
  -23.9410  -10.5160   20.9790 C   0  0  0  0  0  0  0  0  0  0  0  0
  -24.3660   -9.5570   21.9240 C   0  0  0  0  0  3  0  0  0  0  0  0
  -23.6350   -8.3630   22.1120 C   0  0  0  0  0  3  0  0  0  0  0  0
  -22.4650   -8.1200   21.3540 C   0  0  0  0  0  0  0  0  0  0  0  0
  -22.0590   -9.0680   20.3990 C   0  0  0  0  0  3  0  0  0  0  0  0
  -22.7900  -10.2530   20.2090 C   0  0  0  0  0  3  0  0  0  0  0  0
  -21.7060   -6.9790   21.4510 O   0  0  0  0  0  0  0  0  0  0  0  0
  -21.6470   -6.2500   22.6120 C   0  0  0  0  0  0  0  0  0  0  0  0
  -21.2060   -6.8190   23.8270 C   0  0  0  0  0  3  0  0  0  0  0  0
  -21.0950   -6.0160   24.9810 C   0  0  0  0  0  3  0  0  0  0  0  0
  -21.4150   -4.6460   24.9180 C   0  0  0  0  0  0  0  0  0  0  0  0
  -21.8470   -4.0770   23.7090 C   0  0  0  0  0  3  0  0  0  0  0  0
  -21.9600   -4.8770   22.5570 C   0  0  0  0  0  0  0  0  0  0  0  0
  -22.3580   -4.3200   21.3890 F   0  0  0  0  0  0  0  0  0  0  0  0
  -21.3000   -3.8730   26.0240 F   0  0  0  0  0  0  0  0  0  0  0  0
  -22.8060  -13.6080   21.0570 C   0  0  0  0  0  0  0  0  0  0  0  0
  -22.0720  -12.9220   21.9260 N   0  0  0  0  0  0  0  0  0  0  0  0
  -22.3740  -14.6290   20.5240 O   0  0  0  0  0  0  0  0  0  0  0  0
  -22.4360  -12.0970   22.3800 H   0  0  0  0  0  0  0  0  0  0  0  0
  -21.1350  -13.2270   22.1440 H   0  0  0  0  0  0  0  0  0  0  0  0
  -25.4260  -15.2670   20.2290 N   0  0  0  0  0  0  0  0  0  0  0  0
  -24.6480  -15.9120   20.3210 H   0  0  0  0  0  0  0  0  0  0  0  0
  -26.2490  -15.6970   19.8300 H   0  0  0  0  0  0  0  0  0  0  0  0
  1  2  1  0
  1  3  1  0
  4  5  1  0
  4  1  1  0
  6  5  1  0
  7 18  2  0
  8  6  1  0
  8 13  1  0
  9 17  1  0
  9 19  1  0
 10 16  1  0
 10 12  1  0
 11 17  1  0
 12 13  2  0
 12 11  1  0
 14  8  2  0
 15 14  1  0
 15 10  2  0
 16  9  1  0
 17  7  1  0
 19 21  2  0
 20 19  1  0
 22 20  1  0
 23 32  2  0
 23 28  1  0
 24 20  1  0
 24 28  1  0
 25 24  1  0
 26 27  1  0
 26 25  1  0
 27 23  1  0
 28 29  2  0
 29 30  1  0
 31 30  2  0
 32 31  1  0
 33  7  1  0
 33 34  1  0
 33 43  1  0
 34 37  1  0
 35 39  1  0
 35 34  1  0
 36 35  2  0
 39 38  1  0
 41 39  1  0
 41 42  1  0
 41 40  1  0
 43 46  1  1
 43 44  1  0
 45 43  1  0
 47  1  1  0
 47 51  1  0
 49 50  1  0
 50 47  1  0
 50 48  1  0
 52 60  1  0
 53 58  1  0
 54 55  1  0
 54 53  1  0
 56 55  1  0
 56 65  1  0
 56 57  1  0
 58 52  1  0
 58 57  1  0
 59 52  2  0
 60 51  1  0
 61 60  1  0
 62 63  2  0
 63 82  1  0
 64 63  1  0
 64 67  1  0
 65 62  1  0
 65 66  1  0
 66 64  2  0
 67 68  1  0
 68 69  2  0
 70 73  1  0
 70 69  1  0
 71 70  2  0
 72 71  1  0
 72 67  2  0
 73 74  1  0
 74 75  1  0
 75 76  2  0
 77 76  1  0
 77 81  1  0
 78 77  2  0
 79 74  2  0
 79 78  1  0
 80 79  1  0
 82 83  1  0
 83 86  1  0
 83 85  1  0
 84 82  2  0
 87 88  1  0
 87 62  1  0
 89 87  1  0
M  ISO  4   5 101   6 101  52 100  60 100
M  END
>  <TORSDO>  (51) 
F 21

>  <SCORE>  (51) 
-16.161

>  <name>  (51) 
50

>  <ligand_id>  (51) 
50

>  <original_smiles>  (51) 
[H]c1c([H])c([H])c2c(c1[H])C([H])([H])C([H])([H])C([H])([H])C2([H])N([H])C(=O)C1([H])N(C(=O)C([H])(N([H])C(=O)C([H])(N([H])C([H])([H])[H])C([H])([H])[H])C(C([H])([H])[H])(C([H])([H])[H])C([H])([H])[H])C([H])([H])c2c([H])c(OC([H])([H])C([H])([H])[N+]([H])([H])C([H])(C([H])([H])N([H])C(=O)N3C([H])([H])C([H])([H])C([H])([H])C([H])(n4nc(-c5c([H])c([H])c(Oc6c([H])c([H])c(F)c([H])c6F)c([H])c5[H])c(C(=O)N([H])[H])c4N([H])[H])C3([H])[H])C([H])(C([H])([H])[H])C([H])([H])[H])c([H])c([H])c2C1([H])[H]

>  <smiles>  (51) 
[H]c1c([H])c([H])c2c(c1[H])C([H])([H])C([H])([H])C([H])([H])C2([H])N([H])C(=O)C1([H])N(C(=O)C([H])(N([H])C(=O)C([H])(N([H])C([H])([H])[H])C([H])([H])[H])C(C([H])([H])[H])(C([H])([H])[H])C([H])([H])[H])C([H])([H])c2c([H])c(OC([H])([H])C([H])([H])[N+]([H])([H])C([H])(C([H])([H])N([H])C(=O)N3C([H])([H])C([H])([H])C([H])([H])C([H])(n4nc(-c5c([H])c([H])c(Oc6c([H])c([H])c(F)c([H])c6F)c([H])c5[H])c(C(=O)N([H])[H])c4N([H])[H])C3([H])[H])C([H])(C([H])([H])[H])C([H])([H])[H])c([H])c([H])c2C1([H])[H]

$$$$
51:0:0
     RDKit          3D

 86 90  0  0  1  0  0  0  0  0999 V2000
  -28.6900  -21.3400   20.4120 C   0  0  0  0  0 15  0  0  0  0  0  0
  -28.1060  -23.3350   20.0220 C   0  0  0  0  0 15  0  0  0  0  0  0
  -28.0940  -25.1940   20.3720 O   0  0  0  0  0  1  0  0  0  0  0  0
  -24.5980  -31.8100   23.1830 C   0  0  0  0  0  0  0  0  0  0  0  0
  -27.1510  -26.5160   20.2660 C   0  0  0  0  0  0  0  0  0  0  0  0
  -23.4300  -30.3840   21.5600 C   0  0  0  0  0  3  0  0  0  0  0  0
  -24.8930  -28.6860   20.1760 C   0  0  0  0  0  0  0  0  0  0  0  0
  -26.0180  -30.4720   21.4710 C   0  0  0  0  0  2  0  0  0  0  0  0
  -26.0880  -29.0080   20.8270 C   0  0  0  0  0  0  0  0  0  0  0  0
  -27.1850  -27.9570   20.8360 C   0  0  0  0  0  3  0  0  0  0  0  0
  -25.9200  -26.4680   19.5450 C   0  0  0  0  0  3  0  0  0  0  0  0
  -24.8610  -27.4460   19.5100 C   0  0  0  0  0  3  0  0  0  0  0  0
  -23.6880  -29.6580   20.2040 C   0  0  0  0  0  2  0  0  0  0  0  0
  -24.7090  -30.9290   22.1230 N   0  0  0  0  0  0  0  0  0  0  0  0
  -23.4970  -32.1180   23.6770 O   0  0  0  0  0  0  0  0  0  0  0  0
  -22.6950  -29.4330   22.5450 C   0  0  0  0  0  0  0  0  0  0  0  0
  -21.3610  -29.2860   22.4250 N   0  0  0  0  0  0  0  0  0  0  0  0
  -23.3430  -28.8220   23.3980 O   0  0  0  0  0  0  0  0  0  0  0  0
  -20.8820  -29.8300   21.7190 H   0  0  0  0  0  0  0  0  0  0  0  0
  -17.9710  -28.0680   22.9580 C   0  0  0  0  0  0  0  0  0  0  0  0
  -20.5330  -28.3560   23.2070 C   0  0  0  0  0  3  0  0  0  0  0  0
  -20.6370  -26.9180   22.6480 C   0  0  0  0  0  2  0  0  0  0  0  0
  -19.5360  -26.5810   21.6370 C   0  0  0  0  0  2  0  0  0  0  0  0
  -18.1550  -26.7200   22.2840 C   0  0  0  0  0  2  0  0  0  0  0  0
  -19.0870  -28.8440   23.3760 C   0  0  0  0  0  0  0  0  0  0  0  0
  -18.8560  -30.1030   23.9740 C   0  0  0  0  0  3  0  0  0  0  0  0
  -17.5460  -30.5870   24.1530 C   0  0  0  0  0  3  0  0  0  0  0  0
  -16.4470  -29.8110   23.7450 C   0  0  0  0  0  3  0  0  0  0  0  0
  -16.6610  -28.5520   23.1540 C   0  0  0  0  0  3  0  0  0  0  0  0
  -25.8450  -32.4860   23.8300 C   0  0  0  0  0  3  0  0  0  0  0  0
  -26.3360  -31.7500   25.1400 C   0  0  1  0  0  0  0  0  0  0  0  0
  -25.2220  -31.5330   26.1910 C   0  0  0  0  0  1  0  0  0  0  0  0
  -26.9340  -30.3650   24.8100 C   0  0  0  0  0  1  0  0  0  0  0  0
  -27.4700  -32.5650   25.8060 C   0  0  0  0  0  1  0  0  0  0  0  0
  -25.5040  -33.8890   24.1540 N   0  0  0  0  0  0  0  0  0  0  0  0
  -25.8300  -34.9600   23.4160 C   0  0  0  0  0  0  0  0  0  0  0  0
  -26.5000  -34.8720   22.3840 O   0  0  0  0  0  0  0  0  0  0  0  0
  -24.9050  -34.0290   24.9550 H   0  0  0  0  0  0  0  0  0  0  0  0
  -24.0890  -36.7580   23.1010 C   0  0  0  0  0  1  0  0  0  0  0  0
  -25.3410  -36.3460   23.8910 C   0  0  0  0  0  3  0  0  0  0  0  0
  -27.4760  -37.2510   24.7090 C   0  0  0  0  0  1  0  0  0  0  0  0
  -26.3650  -37.4090   23.7740 N   0  0  0  0  0  0  0  0  0  0  0  0
  -25.9520  -38.3250   23.9230 H   0  0  0  0  0  0  0  0  0  0  0  0
  -29.4960  -19.4290   20.0000 C   0  0  0  0  0  2  0  0  0  0  0  0
  -30.1360  -16.0650   20.1470 C   0  0  0  0  0  0  0  0  0  0  0  0
  -30.3070  -13.4370   19.3410 C   0  0  0  0  0  2  0  0  0  0  0  0
  -29.4340  -12.8800   18.1690 C   0  0  0  0  0  2  0  0  0  0  0  0
  -28.0500  -12.4440   18.6620 C   0  0  0  0  0  2  0  0  0  0  0  0
  -27.5090  -13.4550   19.6920 C   0  0  0  0  0  3  0  0  0  0  0  0
  -28.5360  -13.9040   20.7700 C   0  0  0  0  0  2  0  0  0  0  0  0
  -29.6390  -14.6410   20.0770 N   0  0  0  0  0  0  0  0  0  0  0  0
  -31.3670  -15.9290   19.9520 O   0  0  0  0  0  0  0  0  0  0  0  0
  -29.4100  -17.5390   20.2490 N   0  0  0  0  0  0  0  0  0  0  0  0
  -28.4430  -17.3260   20.4550 H   0  0  0  0  0  0  0  0  0  0  0  0
  -25.1650  -13.9380   20.5130 C   0  0  0  0  0  0  0  0  0  0  0  0
  -24.1200  -13.1450   20.8910 C   0  0  0  0  0  0  0  0  0  0  0  0
  -24.6020  -11.8000   20.8370 C   0  0  0  0  0  0  0  0  0  0  0  0
  -26.2130  -13.0820   20.2430 N   0  0  0  0  0  0  0  0  0  0  0  0
  -25.8900  -11.7840   20.5000 N   0  0  0  0  0  0  0  0  0  0  0  0
  -23.8830  -10.5310   21.0270 C   0  0  0  0  0  0  0  0  0  0  0  0
  -24.3240   -9.5600   21.9520 C   0  0  0  0  0  3  0  0  0  0  0  0
  -23.5990   -8.3620   22.1360 C   0  0  0  0  0  3  0  0  0  0  0  0
  -22.4170   -8.1260   21.3940 C   0  0  0  0  0  0  0  0  0  0  0  0
  -21.9930   -9.0850   20.4570 C   0  0  0  0  0  3  0  0  0  0  0  0
  -22.7190  -10.2740   20.2720 C   0  0  0  0  0  3  0  0  0  0  0  0
  -21.6630   -6.9800   21.4860 O   0  0  0  0  0  0  0  0  0  0  0  0
  -21.6200   -6.2370   22.6380 C   0  0  0  0  0  0  0  0  0  0  0  0
  -21.1800   -6.7840   23.8620 C   0  0  0  0  0  3  0  0  0  0  0  0
  -21.0860   -5.9680   25.0070 C   0  0  0  0  0  3  0  0  0  0  0  0
  -21.4230   -4.6030   24.9280 C   0  0  0  0  0  0  0  0  0  0  0  0
  -21.8560   -4.0540   23.7080 C   0  0  0  0  0  3  0  0  0  0  0  0
  -21.9520   -4.8680   22.5660 C   0  0  0  0  0  0  0  0  0  0  0  0
  -22.3490   -4.3290   21.3890 F   0  0  0  0  0  0  0  0  0  0  0  0
  -21.3260   -3.8160   26.0240 F   0  0  0  0  0  0  0  0  0  0  0  0
  -22.7240  -13.6100   21.1810 C   0  0  0  0  0  0  0  0  0  0  0  0
  -22.0130  -12.9070   22.0530 N   0  0  0  0  0  0  0  0  0  0  0  0
  -22.2760  -14.6360   20.6700 O   0  0  0  0  0  0  0  0  0  0  0  0
  -22.3910  -12.0780   22.4870 H   0  0  0  0  0  0  0  0  0  0  0  0
  -21.0770  -13.2010   22.2910 H   0  0  0  0  0  0  0  0  0  0  0  0
  -25.3080  -15.3120   20.3420 N   0  0  0  0  0  0  0  0  0  0  0  0
  -24.5350  -15.9550   20.4670 H   0  0  0  0  0  0  0  0  0  0  0  0
  -26.1400  -15.7570   19.9770 H   0  0  0  0  0  0  0  0  0  0  0  0
  -28.7300  -18.9750   17.6140 C   0  0  0  0  0  1  0  0  0  0  0  0
  -29.8520  -19.5580   18.4920 C   0  0  0  0  0  3  0  0  0  0  0  0
  -31.7590  -19.4150   16.7620 C   0  0  0  0  0  1  0  0  0  0  0  0
  -31.2290  -18.9610   18.1310 C   0  0  0  0  0  2  0  0  0  0  0  0
  4 15  2  0
  5  3  1  0
  5 10  1  0
  6 14  1  0
  6 16  1  0
  7 13  1  0
  7  9  1  0
  8 14  1  0
  9 10  2  0
  9  8  1  0
 11  5  2  0
 12 11  1  0
 12  7  2  0
 13  6  1  0
 14  4  1  0
 16 18  2  0
 17 16  1  0
 19 17  1  0
 20 29  2  0
 20 25  1  0
 21 17  1  0
 21 25  1  0
 22 21  1  0
 23 24  1  0
 23 22  1  0
 24 20  1  0
 25 26  2  0
 26 27  1  0
 28 27  2  0
 29 28  1  0
 30  4  1  0
 30 35  1  0
 30 31  1  0
 31 34  1  1
 31 32  1  0
 33 31  1  0
 35 38  1  0
 36 40  1  0
 36 35  1  0
 37 36  2  0
 40 39  1  0
 42 40  1  0
 42 43  1  0
 42 41  1  0
 44 53  1  0
 45 53  1  0
 46 51  1  0
 47 48  1  0
 47 46  1  0
 49 48  1  0
 49 58  1  0
 49 50  1  0
 51 45  1  0
 51 50  1  0
 52 45  2  0
 53 54  1  0
 55 56  2  0
 56 75  1  0
 57 56  1  0
 57 60  1  0
 58 59  1  0
 58 55  1  0
 59 57  2  0
 60 61  1  0
 61 62  2  0
 63 66  1  0
 63 62  1  0
 64 63  2  0
 65 64  1  0
 65 60  2  0
 66 67  1  0
 67 68  1  0
 68 69  2  0
 70 69  1  0
 70 74  1  0
 71 70  2  0
 72 67  2  0
 72 71  1  0
 73 72  1  0
 75 76  1  0
 76 79  1  0
 76 78  1  0
 77 75  2  0
 80 81  1  0
 80 55  1  0
 82 80  1  0
 84 83  1  0
 84 44  1  0
 85 86  1  0
 86 84  1  0
M  ISO  4   2 101   3 101  45 100  53 100
M  END
>  <TORSDO>  (52) 
F 20

>  <SCORE>  (52) 
-15.633

>  <name>  (52) 
51

>  <ligand_id>  (52) 
51

>  <original_smiles>  (52) 
[H]c1c([H])c([H])c2c(c1[H])C([H])([H])C([H])([H])C([H])([H])C2([H])N([H])C(=O)C1([H])N(C(=O)C([H])(N([H])C(=O)C([H])(N([H])C([H])([H])[H])C([H])([H])[H])C(C([H])([H])[H])(C([H])([H])[H])C([H])([H])[H])C([H])([H])c2c([H])c(OC([H])([H])C([H])([H])C([H])(N([H])C(=O)N3C([H])([H])C([H])([H])C([H])([H])C([H])(n4nc(-c5c([H])c([H])c(Oc6c([H])c([H])c(F)c([H])c6F)c([H])c5[H])c(C(=O)N([H])[H])c4N([H])[H])C3([H])[H])C([H])(C([H])([H])[H])C([H])([H])C([H])([H])[H])c([H])c([H])c2C1([H])[H]

>  <smiles>  (52) 
[H]c1c([H])c([H])c2c(c1[H])C([H])([H])C([H])([H])C([H])([H])C2([H])N([H])C(=O)C1([H])N(C(=O)C([H])(N([H])C(=O)C([H])(N([H])C([H])([H])[H])C([H])([H])[H])C(C([H])([H])[H])(C([H])([H])[H])C([H])([H])[H])C([H])([H])c2c([H])c(OC([H])([H])C([H])([H])C([H])(N([H])C(=O)N3C([H])([H])C([H])([H])C([H])([H])C([H])(n4nc(-c5c([H])c([H])c(Oc6c([H])c([H])c(F)c([H])c6F)c([H])c5[H])c(C(=O)N([H])[H])c4N([H])[H])C3([H])[H])C([H])(C([H])([H])[H])C([H])([H])C([H])([H])[H])c([H])c([H])c2C1([H])[H]

$$$$
52:0:0
     RDKit          3D

 98105  0  0  1  0  0  0  0  0999 V2000
  -29.3190  -19.6340   20.3050 C   0  0  0  0  0  3  0  0  0  0  0  0
  -29.4860  -19.6810   21.7660 N   0  0  0  0  0  4  0  0  0  0  0  0
  -30.4370  -19.8900   22.0110 H   0  0  0  0  0  0  0  0  0  0  0  0
  -29.2510  -18.7870   22.1600 H   0  0  0  0  0  0  0  0  0  0  0  0
  -28.8820  -20.3680   22.1760 H   0  0  0  0  0  0  0  0  0  0  0  0
  -29.3260  -21.3170   19.6780 C   0  0  0  0  0  2  0  0  0  0  0  0
  -28.9590  -22.9330   20.3530 C   0  0  0  0  0  3  0  0  0  0  0  0
  -29.8040  -23.6240   22.6880 C   0  0  0  0  0  1  0  0  0  0  0  0
  -30.1720  -23.3220   21.2280 C   0  0  0  0  0  2  0  0  0  0  0  0
  -28.3920  -24.4450   19.5890 C   0  0  0  0  0  2  0  0  0  0  0  0
  -28.3640  -26.0280   19.9920 O   0  0  0  0  0  0  0  0  0  0  0  0
  -24.6780  -31.7190   23.1370 C   0  0  0  0  0  0  0  0  0  0  0  0
  -27.3060  -27.0600   19.9100 C   0  0  0  0  0  0  0  0  0  0  0  0
  -23.4880  -30.3630   21.4560 C   0  0  0  0  0  3  0  0  0  0  0  0
  -24.9540  -28.8540   19.9520 C   0  0  0  0  0  0  0  0  0  0  0  0
  -26.0450  -30.6500   21.2870 C   0  0  0  0  0  2  0  0  0  0  0  0
  -26.1360  -29.2740   20.5760 C   0  0  0  0  0  0  0  0  0  0  0  0
  -27.3000  -28.3950   20.5340 C   0  0  0  0  0  3  0  0  0  0  0  0
  -26.0970  -26.7830   19.2340 C   0  0  0  0  0  3  0  0  0  0  0  0
  -24.9580  -27.6300   19.2630 C   0  0  0  0  0  3  0  0  0  0  0  0
  -23.7130  -29.7370   20.0510 C   0  0  0  0  0  2  0  0  0  0  0  0
  -24.7570  -30.9350   22.0150 N   0  0  0  0  0  0  0  0  0  0  0  0
  -23.5910  -31.9650   23.6830 O   0  0  0  0  0  0  0  0  0  0  0  0
  -22.8310  -29.3160   22.3920 C   0  0  0  0  0  0  0  0  0  0  0  0
  -21.5070  -29.1090   22.2590 N   0  0  0  0  0  0  0  0  0  0  0  0
  -23.5170  -28.6900   23.2050 O   0  0  0  0  0  0  0  0  0  0  0  0
  -21.0080  -29.6700   21.5820 H   0  0  0  0  0  0  0  0  0  0  0  0
  -18.1730  -27.7480   22.6940 C   0  0  0  0  0  0  0  0  0  0  0  0
  -20.7170  -28.1230   23.0030 C   0  0  0  0  0  3  0  0  0  0  0  0
  -20.8900  -26.7070   22.4070 C   0  0  0  0  0  2  0  0  0  0  0  0
  -19.8180  -26.3550   21.3700 C   0  0  0  0  0  2  0  0  0  0  0  0
  -18.4220  -26.4220   21.9950 C   0  0  0  0  0  2  0  0  0  0  0  0
  -19.2510  -28.5530   23.1530 C   0  0  0  0  0  0  0  0  0  0  0  0
  -18.9650  -29.7880   23.7740 C   0  0  0  0  0  3  0  0  0  0  0  0
  -17.6370  -30.2220   23.9370 C   0  0  0  0  0  3  0  0  0  0  0  0
  -16.5730  -29.4160   23.4940 C   0  0  0  0  0  3  0  0  0  0  0  0
  -16.8430  -28.1810   22.8770 C   0  0  0  0  0  3  0  0  0  0  0  0
  -25.9460  -32.3580   23.7770 C   0  0  0  0  0  3  0  0  0  0  0  0
  -26.4750  -31.5640   25.0360 C   0  0  1  0  0  0  0  0  0  0  0  0
  -25.3870  -31.2940   26.1020 C   0  0  0  0  0  1  0  0  0  0  0  0
  -27.0710  -30.1990   24.6200 C   0  0  0  0  0  1  0  0  0  0  0  0
  -27.6200  -32.3560   25.7100 C   0  0  0  0  0  1  0  0  0  0  0  0
  -25.6120  -33.7430   24.1540 N   0  0  0  0  0  0  0  0  0  0  0  0
  -25.9400  -34.8330   23.4470 C   0  0  0  0  0  0  0  0  0  0  0  0
  -26.6180  -34.7780   22.4190 O   0  0  0  0  0  0  0  0  0  0  0  0
  -25.0060  -33.8560   24.9530 H   0  0  0  0  0  0  0  0  0  0  0  0
  -24.2020  -36.6330   23.1570 C   0  0  0  0  0  1  0  0  0  0  0  0
  -25.4370  -36.1990   23.9610 C   0  0  0  0  0  3  0  0  0  0  0  0
  -27.5490  -37.0700   24.8590 C   0  0  0  0  0  1  0  0  0  0  0  0
  -26.4620  -37.2640   23.9030 N   0  0  0  0  0  0  0  0  0  0  0  0
  -26.0460  -38.1750   24.0790 H   0  0  0  0  0  0  0  0  0  0  0  0
  -30.1830  -18.1570   19.7740 C   0  0  0  0  0  0  0  0  0  0  0  0
  -30.6310  -15.2930   20.0340 C   0  0  0  0  0  0  0  0  0  0  0  0
  -30.5570  -12.8530   19.2020 C   0  0  0  0  0  2  0  0  0  0  0  0
  -29.6170  -12.6470   17.9890 C   0  0  0  0  0  2  0  0  0  0  0  0
  -28.1730  -12.4010   18.4540 C   0  0  0  0  0  2  0  0  0  0  0  0
  -27.7460  -13.3880   19.5680 C   0  0  0  0  0  3  0  0  0  0  0  0
  -28.8100  -13.5390   20.6770 C   0  0  0  0  0  2  0  0  0  0  0  0
  -30.0440  -14.0050   20.0250 N   0  0  0  0  0  0  0  0  0  0  0  0
  -31.8390  -15.2860   19.7610 O   0  0  0  0  0  0  0  0  0  0  0  0
  -29.8900  -16.5640   20.1310 N   0  0  0  0  0  4  0  0  0  0  0  0
  -28.9220  -16.3970   20.3650 H   0  0  0  0  0  0  0  0  0  0  0  0
  -25.3900  -13.9700   20.3540 C   0  0  0  0  0  0  0  0  0  0  0  0
  -24.3290  -13.2020   20.7470 C   0  0  0  0  0  0  0  0  0  0  0  0
  -24.7890  -11.8490   20.7190 C   0  0  0  0  0  0  0  0  0  0  0  0
  -26.4230  -13.0870   20.1010 N   0  0  0  0  0  0  0  0  0  0  0  0
  -26.0760  -11.8070   20.3910 N   0  0  0  0  0  0  0  0  0  0  0  0
  -24.0600  -10.5900   20.9280 C   0  0  0  0  0  0  0  0  0  0  0  0
  -24.4870   -9.6350   21.8770 C   0  0  0  0  0  3  0  0  0  0  0  0
  -23.7540   -8.4440   22.0730 C   0  0  0  0  0  3  0  0  0  0  0  0
  -22.5800   -8.2010   21.3210 C   0  0  0  0  0  0  0  0  0  0  0  0
  -22.1730   -9.1450   20.3620 C   0  0  0  0  0  3  0  0  0  0  0  0
  -22.9070  -10.3260   20.1640 C   0  0  0  0  0  3  0  0  0  0  0  0
  -21.8170   -7.0630   21.4290 O   0  0  0  0  0  0  0  0  0  0  0  0
  -21.7610   -6.3420   22.5940 C   0  0  0  0  0  0  0  0  0  0  0  0
  -21.3020   -6.9110   23.8020 C   0  0  0  0  0  3  0  0  0  0  0  0
  -21.1970   -6.1140   24.9590 C   0  0  0  0  0  3  0  0  0  0  0  0
  -21.5360   -4.7480   24.9090 C   0  0  0  0  0  0  0  0  0  0  0  0
  -21.9850   -4.1790   23.7050 C   0  0  0  0  0  3  0  0  0  0  0  0
  -22.0940   -4.9720   22.5500 C   0  0  0  0  0  0  0  0  0  0  0  0
  -22.5080   -4.4130   21.3870 F   0  0  0  0  0  0  0  0  0  0  0  0
  -21.4250   -3.9810   26.0190 F   0  0  0  0  0  0  0  0  0  0  0  0
  -22.9380  -13.6870   21.0310 C   0  0  0  0  0  0  0  0  0  0  0  0
  -22.2160  -12.9980   21.9070 N   0  0  0  0  0  0  0  0  0  0  0  0
  -22.5020  -14.7120   20.5100 O   0  0  0  0  0  0  0  0  0  0  0  0
  -22.5840  -12.1700   22.3510 H   0  0  0  0  0  0  0  0  0  0  0  0
  -21.2810  -13.3030   22.1390 H   0  0  0  0  0  0  0  0  0  0  0  0
  -25.5580  -15.3390   20.1560 N   0  0  0  0  0  0  0  0  0  0  0  0
  -24.7910  -15.9950   20.2470 H   0  0  0  0  0  0  0  0  0  0  0  0
  -26.3770  -15.7470   19.7240 H   0  0  0  0  0  0  0  0  0  0  0  0
  -30.4080  -18.2060   18.2400 C   0  0  0  0  0  2  0  0  0  0  0  0
  -31.3280  -19.3220   17.6880 C   0  0  0  0  0  2  0  0  0  0  0  0
  -32.7290  -19.3860   18.3390 C   0  0  0  0  0  2  0  0  0  0  0  0
  -33.7510  -20.2350   17.5490 C   0  0  0  0  0  2  0  0  0  0  0  0
  -33.4600  -21.6810   17.5800 N   0  0  0  0  0  4  0  0  0  0  0  0
  -32.5050  -21.8750   17.3430 H   0  0  0  0  0  0  0  0  0  0  0  0
  -34.0450  -22.1520   16.9100 H   0  0  0  0  0  0  0  0  0  0  0  0
  -33.6630  -22.0680   18.4850 H   0  0  0  0  0  0  0  0  0  0  0  0
  1  6  1  0
  1  2  1  0
  2  3  1  0
  2  4  1  0
  2  5  1  0
  6  7  1  0
  7 10  1  0
  7  9  1  0
  9  8  1  0
 10 11  1  0
 12 23  2  0
 13 11  1  0
 13 18  1  0
 14 22  1  0
 14 24  1  0
 15 21  1  0
 15 17  1  0
 16 22  1  0
 17 16  1  0
 18 17  2  0
 19 20  1  0
 19 13  2  0
 20 15  2  0
 21 14  1  0
 22 12  1  0
 24 26  2  0
 25 24  1  0
 27 25  1  0
 28 37  2  0
 28 33  1  0
 29 25  1  0
 29 33  1  0
 30 29  1  0
 31 32  1  0
 31 30  1  0
 32 28  1  0
 33 34  2  0
 34 35  1  0
 36 35  2  0
 37 36  1  0
 38 12  1  0
 38 43  1  0
 38 39  1  0
 39 42  1  1
 39 40  1  0
 41 39  1  0
 43 46  1  0
 44 48  1  0
 44 43  1  0
 45 44  2  0
 48 47  1  0
 50 48  1  0
 50 51  1  0
 50 49  1  0
 52 61  2  0
 52  1  1  0
 53 61  1  0
 54 59  1  0
 55 56  1  0
 55 54  1  0
 57 56  1  0
 57 66  1  0
 57 58  1  0
 59 53  1  0
 59 58  1  0
 60 53  2  0
 61 62  1  0
 63 64  2  0
 64 83  1  0
 65 64  1  0
 65 68  1  0
 66 63  1  0
 66 67  1  0
 67 65  2  0
 68 69  1  0
 69 70  2  0
 71 74  1  0
 71 70  1  0
 72 71  2  0
 73 72  1  0
 73 68  2  0
 74 75  1  0
 75 76  1  0
 76 77  2  0
 78 77  1  0
 78 82  1  0
 79 78  2  0
 80 75  2  0
 80 79  1  0
 81 80  1  0
 83 84  1  0
 84 87  1  0
 84 86  1  0
 85 83  2  0
 88 89  1  0
 88 63  1  0
 90 88  1  0
 91 52  1  0
 92 91  1  0
 92 93  1  0
 94 95  1  0
 94 93  1  0
 95 98  1  0
 96 95  1  0
 97 95  1  0
M  ISO  4  10 101  11 101  53 100  61 100
M  END
>  <TORSDO>  (53) 
F 27

>  <SCORE>  (53) 
-13.212

>  <name>  (53) 
52

>  <ligand_id>  (53) 
52

>  <original_smiles>  (53) 
[H]c1c([H])c([H])c2c(c1[H])C([H])([H])C([H])([H])C([H])([H])C2([H])N([H])C(=O)C1([H])N(C(=O)C([H])(N([H])C(=O)C([H])(N([H])C([H])([H])[H])C([H])([H])[H])C(C([H])([H])[H])(C([H])([H])[H])C([H])([H])[H])C([H])([H])c2c([H])c(OC([H])([H])C([H])(C([H])([H])C([H])([H])[H])C([H])([H])C([H])(C([H])(N([H])C(=O)N3C([H])([H])C([H])([H])C([H])([H])C([H])(n4nc(-c5c([H])c([H])c(Oc6c([H])c([H])c(F)c([H])c6F)c([H])c5[H])c(C(=O)N([H])[H])c4N([H])[H])C3([H])[H])C([H])([H])C([H])([H])C([H])([H])C([H])([H])[N+]([H])([H])[H])[N+]([H])([H])[H])c([H])c([H])c2C1([H])[H]

>  <smiles>  (53) 
[H]c1c([H])c([H])c2c(c1[H])C([H])([H])C([H])([H])C([H])([H])C2([H])N([H])C(=O)C1([H])N(C(=O)C([H])(N([H])C(=O)C([H])(N([H])C([H])([H])[H])C([H])([H])[H])C(C([H])([H])[H])(C([H])([H])[H])C([H])([H])[H])C([H])([H])c2c([H])c(OC([H])([H])C([H])(C([H])([H])C([H])([H])[H])C([H])([H])C([H])(C([H])(N([H])C(=O)N3C([H])([H])C([H])([H])C([H])([H])C([H])(n4nc(-c5c([H])c([H])c(Oc6c([H])c([H])c(F)c([H])c6F)c([H])c5[H])c(C(=O)N([H])[H])c4N([H])[H])C3([H])[H])C([H])([H])C([H])([H])C([H])([H])C([H])([H])[N+]([H])([H])[H])[N+]([H])([H])[H])c([H])c([H])c2C1([H])[H]

$$$$
53:0:0
     RDKit          3D

 95102  0  0  1  0  0  0  0  0999 V2000
  -29.3190  -19.9290   20.7060 C   0  0  0  0  0  0  0  0  0  0  0  0
  -30.3960  -21.4080   19.0030 C   0  0  0  0  0  1  0  0  0  0  0  0
  -29.5080  -21.1930   20.1470 N   0  0  0  0  0  0  0  0  0  0  0  0
  -28.7760  -19.8420   21.8100 O   0  0  0  0  0  0  0  0  0  0  0  0
  -28.8150  -22.4480   20.6800 C   0  0  0  0  0  2  0  0  0  0  0  0
  -29.0420  -23.9090   20.0320 C   0  0  0  0  0  3  0  0  0  0  0  0
  -28.1680  -25.1240   20.6070 C   0  0  0  0  0  3  0  0  0  0  0  0
  -28.3700  -26.5270   20.1420 O   0  0  0  0  0  0  0  0  0  0  0  0
  -24.6070  -31.9300   23.1620 C   0  0  0  0  0  0  0  0  0  0  0  0
  -27.2530  -27.3790   20.1220 C   0  0  0  0  0  0  0  0  0  0  0  0
  -23.4150  -30.5180   21.5250 C   0  0  0  0  0  3  0  0  0  0  0  0
  -24.8780  -28.9760   20.1020 C   0  0  0  0  0  0  0  0  0  0  0  0
  -25.9520  -30.8570   21.3390 C   0  0  0  0  0  2  0  0  0  0  0  0
  -26.0440  -29.4760   20.6970 C   0  0  0  0  0  0  0  0  0  0  0  0
  -27.2370  -28.6910   20.6940 C   0  0  0  0  0  3  0  0  0  0  0  0
  -26.0670  -26.9370   19.4960 C   0  0  0  0  0  3  0  0  0  0  0  0
  -24.8920  -27.7120   19.4930 C   0  0  0  0  0  3  0  0  0  0  0  0
  -23.6340  -29.8420   20.1470 C   0  0  0  0  0  2  0  0  0  0  0  0
  -24.6770  -31.1190   22.0650 N   0  0  0  0  0  0  0  0  0  0  0  0
  -23.5230  -32.2000   23.6970 O   0  0  0  0  0  0  0  0  0  0  0  0
  -22.7600  -29.4980   22.4870 C   0  0  0  0  0  0  0  0  0  0  0  0
  -21.4320  -29.3240   22.3750 N   0  0  0  0  0  0  0  0  0  0  0  0
  -23.4460  -28.8660   23.2950 O   0  0  0  0  0  0  0  0  0  0  0  0
  -20.9370  -29.8850   21.6960 H   0  0  0  0  0  0  0  0  0  0  0  0
  -18.0520  -28.1580   22.9240 C   0  0  0  0  0  0  0  0  0  0  0  0
  -20.6190  -28.3860   23.1500 C   0  0  0  0  0  3  0  0  0  0  0  0
  -20.6960  -26.9600   22.5550 C   0  0  0  0  0  2  0  0  0  0  0  0
  -19.5720  -26.6610   21.5590 C   0  0  0  0  0  2  0  0  0  0  0  0
  -18.2030  -26.8140   22.2290 C   0  0  0  0  0  2  0  0  0  0  0  0
  -19.1880  -28.9020   23.3430 C   0  0  0  0  0  0  0  0  0  0  0  0
  -18.9940  -30.1610   23.9510 C   0  0  0  0  0  3  0  0  0  0  0  0
  -17.6980  -30.6730   24.1490 C   0  0  0  0  0  3  0  0  0  0  0  0
  -16.5780  -29.9250   23.7470 C   0  0  0  0  0  3  0  0  0  0  0  0
  -16.7560  -28.6680   23.1400 C   0  0  0  0  0  3  0  0  0  0  0  0
  -25.8870  -32.5750   23.7810 C   0  0  0  0  0  3  0  0  0  0  0  0
  -26.4210  -31.7980   25.0460 C   0  0  1  0  0  0  0  0  0  0  0  0
  -25.3320  -31.5180   26.1090 C   0  0  0  0  0  1  0  0  0  0  0  0
  -27.0370  -30.4420   24.6310 C   0  0  0  0  0  1  0  0  0  0  0  0
  -27.5530  -32.6080   25.7190 C   0  0  0  0  0  1  0  0  0  0  0  0
  -25.5630  -33.9660   24.1280 N   0  0  0  0  0  0  0  0  0  0  0  0
  -25.8900  -35.0310   23.3850 C   0  0  0  0  0  0  0  0  0  0  0  0
  -26.5650  -34.9490   22.3560 O   0  0  0  0  0  0  0  0  0  0  0  0
  -24.9680  -34.1040   24.9310 H   0  0  0  0  0  0  0  0  0  0  0  0
  -24.1550  -36.8160   23.0390 C   0  0  0  0  0  1  0  0  0  0  0  0
  -25.3870  -36.4080   23.8610 C   0  0  0  0  0  3  0  0  0  0  0  0
  -27.5040  -37.2920   24.7360 C   0  0  0  0  0  1  0  0  0  0  0  0
  -26.4140  -37.4700   23.7800 N   0  0  0  0  0  0  0  0  0  0  0  0
  -25.9990  -38.3840   23.9390 H   0  0  0  0  0  0  0  0  0  0  0  0
  -29.6390  -18.5340   19.9660 C   0  0  0  0  0  3  0  0  0  0  0  0
  -28.3290  -17.9530   19.3550 C   0  0  0  0  0  2  0  0  0  0  0  0
  -27.4410  -18.9060   18.5160 C   0  0  0  0  0  2  0  0  0  0  0  0
  -28.1120  -19.5210   17.2680 C   0  0  0  0  0  2  0  0  0  0  0  0
  -28.4150  -18.5260   16.2240 N   0  0  0  0  0  4  0  0  0  0  0  0
  -29.0870  -17.8500   16.5390 H   0  0  0  0  0  0  0  0  0  0  0  0
  -28.8020  -18.9900   15.4200 H   0  0  0  0  0  0  0  0  0  0  0  0
  -27.5810  -18.0510   15.9270 H   0  0  0  0  0  0  0  0  0  0  0  0
  -30.3730  -17.3820   20.8400 C   0  0  0  0  0  2  0  0  0  0  0  0
  -30.7490  -14.7980   20.4580 C   0  0  0  0  0  0  0  0  0  0  0  0
  -30.5320  -12.5520   19.3980 C   0  0  0  0  0  2  0  0  0  0  0  0
  -29.6090  -12.6590   18.1640 C   0  0  0  0  0  2  0  0  0  0  0  0
  -28.1300  -12.5050   18.5720 C   0  0  0  0  0  2  0  0  0  0  0  0
  -27.7510  -13.3840   19.7930 C   0  0  0  0  0  3  0  0  0  0  0  0
  -28.7910  -13.2570   20.9280 C   0  0  0  0  0  2  0  0  0  0  0  0
  -30.1050  -13.5900   20.3600 N   0  0  0  0  0  0  0  0  0  0  0  0
  -31.9400  -14.9050   20.1550 O   0  0  0  0  0  0  0  0  0  0  0  0
  -29.9790  -15.9120   20.7040 N   0  0  0  0  0  0  0  0  0  0  0  0
  -29.0090  -15.7080   20.8900 H   0  0  0  0  0  0  0  0  0  0  0  0
  -25.3500  -13.9940   20.4630 C   0  0  0  0  0  0  0  0  0  0  0  0
  -24.2730  -13.2280   20.8170 C   0  0  0  0  0  0  0  0  0  0  0  0
  -24.7330  -11.8760   20.8110 C   0  0  0  0  0  0  0  0  0  0  0  0
  -26.3960  -13.1090   20.2580 N   0  0  0  0  0  0  0  0  0  0  0  0
  -26.0300  -11.8310   20.5320 N   0  0  0  0  0  0  0  0  0  0  0  0
  -23.9980  -10.6170   20.9970 C   0  0  0  0  0  0  0  0  0  0  0  0
  -24.4050   -9.6600   21.9520 C   0  0  0  0  0  3  0  0  0  0  0  0
  -23.6710   -8.4660   22.1250 C   0  0  0  0  0  3  0  0  0  0  0  0
  -22.5180   -8.2210   21.3430 C   0  0  0  0  0  0  0  0  0  0  0  0
  -22.1320   -9.1680   20.3770 C   0  0  0  0  0  3  0  0  0  0  0  0
  -22.8650  -10.3530   20.2030 C   0  0  0  0  0  3  0  0  0  0  0  0
  -21.7580   -7.0800   21.4250 O   0  0  0  0  0  0  0  0  0  0  0  0
  -21.6720   -6.3550   22.5870 C   0  0  0  0  0  0  0  0  0  0  0  0
  -21.2100   -6.9300   23.7910 C   0  0  0  0  0  3  0  0  0  0  0  0
  -21.0700   -6.1310   24.9430 C   0  0  0  0  0  3  0  0  0  0  0  0
  -21.3820   -4.7600   24.8920 C   0  0  0  0  0  0  0  0  0  0  0  0
  -21.8350   -4.1840   23.6910 C   0  0  0  0  0  3  0  0  0  0  0  0
  -21.9760   -4.9790   22.5410 C   0  0  0  0  0  0  0  0  0  0  0  0
  -22.3940   -4.4160   21.3820 F   0  0  0  0  0  0  0  0  0  0  0  0
  -21.2390   -3.9900   25.9960 F   0  0  0  0  0  0  0  0  0  0  0  0
  -22.8720  -13.7130   21.0520 C   0  0  0  0  0  0  0  0  0  0  0  0
  -22.1250  -13.0290   21.9130 N   0  0  0  0  0  0  0  0  0  0  0  0
  -22.4470  -14.7320   20.5090 O   0  0  0  0  0  0  0  0  0  0  0  0
  -22.4810  -12.2050   22.3730 H   0  0  0  0  0  0  0  0  0  0  0  0
  -21.1830  -13.3350   22.1140 H   0  0  0  0  0  0  0  0  0  0  0  0
  -25.5210  -15.3620   20.2720 N   0  0  0  0  0  0  0  0  0  0  0  0
  -24.7500  -16.0150   20.3630 H   0  0  0  0  0  0  0  0  0  0  0  0
  -26.3720  -15.7980   19.9500 H   0  0  0  0  0  0  0  0  0  0  0  0
  1  4  2  0
  2  3  1  0
  3  5  1  0
  3  1  1  0
  6  7  2  0
  6  5  1  0
  8  7  1  0
  9 20  2  0
 10  8  1  0
 10 15  1  0
 11 19  1  0
 11 21  1  0
 12 18  1  0
 12 14  1  0
 13 19  1  0
 14 13  1  0
 15 14  2  0
 16 10  2  0
 17 16  1  0
 17 12  2  0
 18 11  1  0
 19  9  1  0
 21 23  2  0
 22 21  1  0
 24 22  1  0
 25 34  2  0
 25 30  1  0
 26 22  1  0
 26 30  1  0
 27 26  1  0
 28 29  1  0
 28 27  1  0
 29 25  1  0
 30 31  2  0
 31 32  1  0
 33 32  2  0
 34 33  1  0
 35  9  1  0
 35 40  1  0
 35 36  1  0
 36 39  1  1
 36 37  1  0
 38 36  1  0
 40 43  1  0
 41 45  1  0
 41 40  1  0
 42 41  2  0
 45 44  1  0
 47 45  1  0
 47 48  1  0
 47 46  1  0
 49 50  1  0
 49  1  1  0
 49 57  1  0
 51 50  1  0
 52 51  1  0
 53 54  1  0
 53 52  1  0
 55 53  1  0
 56 53  1  0
 58 66  1  0
 59 64  1  0
 60 61  1  0
 60 59  1  0
 62 61  1  0
 62 71  1  0
 62 63  1  0
 64 58  1  0
 64 63  1  0
 65 58  2  0
 66 57  1  0
 66 67  1  0
 68 69  2  0
 69 88  1  0
 70 69  1  0
 70 73  1  0
 71 68  1  0
 71 72  1  0
 72 70  2  0
 73 74  1  0
 74 75  2  0
 76 79  1  0
 76 75  1  0
 77 76  2  0
 78 77  1  0
 78 73  2  0
 79 80  1  0
 80 81  1  0
 81 82  2  0
 83 82  1  0
 83 87  1  0
 84 83  2  0
 85 80  2  0
 85 84  1  0
 86 85  1  0
 88 89  1  0
 89 92  1  0
 89 91  1  0
 90 88  2  0
 93 94  1  0
 93 68  1  0
 95 93  1  0
M  ISO  4   7 101   8 101  58 100  66 100
M  END
>  <TORSDO>  (54) 
F 25

>  <SCORE>  (54) 
-11.917

>  <name>  (54) 
53

>  <ligand_id>  (54) 
53

>  <original_smiles>  (54) 
[H]c1c([H])c([H])c2c(c1[H])C([H])([H])C([H])([H])C([H])([H])C2([H])N([H])C(=O)C1([H])N(C(=O)C([H])(N([H])C(=O)C([H])(N([H])C([H])([H])[H])C([H])([H])[H])C(C([H])([H])[H])(C([H])([H])[H])C([H])([H])[H])C([H])([H])c2c([H])c(OC([H])([H])C([H])([H])C([H])([H])N(C(=O)C([H])(C([H])([H])N([H])C(=O)N3C([H])([H])C([H])([H])C([H])([H])C([H])(n4nc(-c5c([H])c([H])c(Oc6c([H])c([H])c(F)c([H])c6F)c([H])c5[H])c(C(=O)N([H])[H])c4N([H])[H])C3([H])[H])C([H])([H])C([H])([H])C([H])([H])[N+]([H])([H])[H])C([H])([H])[H])c([H])c([H])c2C1([H])[H]

>  <smiles>  (54) 
[H]c1c([H])c([H])c2c(c1[H])C([H])([H])C([H])([H])C([H])([H])C2([H])N([H])C(=O)C1([H])N(C(=O)C([H])(N([H])C(=O)C([H])(N([H])C([H])([H])[H])C([H])([H])[H])C(C([H])([H])[H])(C([H])([H])[H])C([H])([H])[H])C([H])([H])c2c([H])c(OC([H])([H])C([H])([H])C([H])([H])N(C(=O)C([H])(C([H])([H])N([H])C(=O)N3C([H])([H])C([H])([H])C([H])([H])C([H])(n4nc(-c5c([H])c([H])c(Oc6c([H])c([H])c(F)c([H])c6F)c([H])c5[H])c(C(=O)N([H])[H])c4N([H])[H])C3([H])[H])C([H])([H])C([H])([H])C([H])([H])[N+]([H])([H])[H])C([H])([H])[H])c([H])c([H])c2C1([H])[H]

$$$$
54:0:0
     RDKit          3D

 86 90  0  0  1  0  0  0  0  0999 V2000
  -28.7250  -21.3430   20.4330 C   0  0  0  0  0 15  0  0  0  0  0  0
  -28.0990  -23.3320   20.0650 C   0  0  0  0  0 15  0  0  0  0  0  0
  -28.1310  -25.1990   20.3670 O   0  0  0  0  0  1  0  0  0  0  0  0
  -24.6780  -31.8470   23.1700 C   0  0  0  0  0  0  0  0  0  0  0  0
  -27.1940  -26.5260   20.2680 C   0  0  0  0  0  0  0  0  0  0  0  0
  -23.4990  -30.4220   21.5550 C   0  0  0  0  0  3  0  0  0  0  0  0
  -24.9490  -28.7100   20.1750 C   0  0  0  0  0  0  0  0  0  0  0  0
  -26.0880  -30.4940   21.4610 C   0  0  0  0  0  2  0  0  0  0  0  0
  -26.1480  -29.0280   20.8220 C   0  0  0  0  0  0  0  0  0  0  0  0
  -27.2390  -27.9700   20.8310 C   0  0  0  0  0  3  0  0  0  0  0  0
  -25.9600  -26.4830   19.5510 C   0  0  0  0  0  3  0  0  0  0  0  0
  -24.9080  -27.4660   19.5150 C   0  0  0  0  0  3  0  0  0  0  0  0
  -23.7510  -29.6890   20.2000 C   0  0  0  0  0  2  0  0  0  0  0  0
  -24.7820  -30.9610   22.1120 N   0  0  0  0  0  0  0  0  0  0  0  0
  -23.5810  -32.1640   23.6640 O   0  0  0  0  0  0  0  0  0  0  0  0
  -22.7610  -29.4790   22.5440 C   0  0  0  0  0  0  0  0  0  0  0  0
  -21.4250  -29.3410   22.4260 N   0  0  0  0  0  0  0  0  0  0  0  0
  -23.4060  -28.8650   23.3960 O   0  0  0  0  0  0  0  0  0  0  0  0
  -20.9500  -29.8860   21.7200 H   0  0  0  0  0  0  0  0  0  0  0  0
  -18.0300  -28.1430   22.9660 C   0  0  0  0  0  0  0  0  0  0  0  0
  -20.5930  -28.4180   23.2130 C   0  0  0  0  0  3  0  0  0  0  0  0
  -20.6890  -26.9770   22.6590 C   0  0  0  0  0  2  0  0  0  0  0  0
  -19.5850  -26.6420   21.6510 C   0  0  0  0  0  2  0  0  0  0  0  0
  -18.2060  -26.7900   22.2980 C   0  0  0  0  0  2  0  0  0  0  0  0
  -19.1490  -28.9150   23.3810 C   0  0  0  0  0  0  0  0  0  0  0  0
  -18.9260  -30.1750   23.9740 C   0  0  0  0  0  3  0  0  0  0  0  0
  -17.6180  -30.6680   24.1510 C   0  0  0  0  0  3  0  0  0  0  0  0
  -16.5150  -29.8960   23.7480 C   0  0  0  0  0  3  0  0  0  0  0  0
  -16.7220  -28.6350   23.1620 C   0  0  0  0  0  3  0  0  0  0  0  0
  -25.9300  -32.5170   23.8130 C   0  0  0  0  0  3  0  0  0  0  0  0
  -26.4260  -31.7750   25.1180 C   0  0  1  0  0  0  0  0  0  0  0  0
  -25.3170  -31.5620   26.1760 C   0  0  0  0  0  1  0  0  0  0  0  0
  -27.0140  -30.3870   24.7810 C   0  0  0  0  0  1  0  0  0  0  0  0
  -27.5690  -32.5820   25.7790 C   0  0  0  0  0  1  0  0  0  0  0  0
  -25.5950  -33.9200   24.1440 N   0  0  0  0  0  0  0  0  0  0  0  0
  -25.9260  -34.9920   23.4100 C   0  0  0  0  0  0  0  0  0  0  0  0
  -26.5950  -34.9050   22.3780 O   0  0  0  0  0  0  0  0  0  0  0  0
  -24.9960  -34.0590   24.9440 H   0  0  0  0  0  0  0  0  0  0  0  0
  -24.1920  -36.7980   23.1020 C   0  0  0  0  0  1  0  0  0  0  0  0
  -25.4420  -36.3790   23.8910 C   0  0  0  0  0  3  0  0  0  0  0  0
  -27.5820  -37.2700   24.7100 C   0  0  0  0  0  1  0  0  0  0  0  0
  -26.4720  -37.4380   23.7780 N   0  0  0  0  0  0  0  0  0  0  0  0
  -26.0630  -38.3560   23.9320 H   0  0  0  0  0  0  0  0  0  0  0  0
  -29.4930  -19.4230   19.9540 C   0  0  0  0  0  2  0  0  0  0  0  0
  -30.1410  -16.0630   20.2070 C   0  0  0  0  0  0  0  0  0  0  0  0
  -30.3260  -13.4320   19.4200 C   0  0  0  0  0  2  0  0  0  0  0  0
  -29.4750  -12.8700   18.2330 C   0  0  0  0  0  2  0  0  0  0  0  0
  -28.0820  -12.4360   18.7030 C   0  0  0  0  0  2  0  0  0  0  0  0
  -27.5210  -13.4530   19.7160 C   0  0  0  0  0  3  0  0  0  0  0  0
  -28.5280  -13.9090   20.8110 C   0  0  0  0  0  2  0  0  0  0  0  0
  -29.6440  -14.6400   20.1350 N   0  0  0  0  0  0  0  0  0  0  0  0
  -31.3760  -15.9230   20.0380 O   0  0  0  0  0  0  0  0  0  0  0  0
  -29.4140  -17.5390   20.2760 N   0  0  0  0  0  0  0  0  0  0  0  0
  -28.4450  -17.3300   20.4730 H   0  0  0  0  0  0  0  0  0  0  0  0
  -25.1630  -13.9430   20.4880 C   0  0  0  0  0  0  0  0  0  0  0  0
  -24.1100  -13.1530   20.8510 C   0  0  0  0  0  0  0  0  0  0  0  0
  -24.5910  -11.8080   20.8180 C   0  0  0  0  0  0  0  0  0  0  0  0
  -26.2150  -13.0830   20.2430 N   0  0  0  0  0  0  0  0  0  0  0  0
  -25.8870  -11.7890   20.5060 N   0  0  0  0  0  0  0  0  0  0  0  0
  -23.8690  -10.5400   21.0050 C   0  0  0  0  0  0  0  0  0  0  0  0
  -24.3010   -9.5710   21.9360 C   0  0  0  0  0  3  0  0  0  0  0  0
  -23.5720   -8.3750   22.1150 C   0  0  0  0  0  3  0  0  0  0  0  0
  -22.3970   -8.1390   21.3630 C   0  0  0  0  0  0  0  0  0  0  0  0
  -21.9840   -9.0960   20.4200 C   0  0  0  0  0  3  0  0  0  0  0  0
  -22.7130  -10.2840   20.2390 C   0  0  0  0  0  3  0  0  0  0  0  0
  -21.6400   -6.9950   21.4510 O   0  0  0  0  0  0  0  0  0  0  0  0
  -21.5950   -6.2470   22.6010 C   0  0  0  0  0  0  0  0  0  0  0  0
  -21.1720   -6.7970   23.8310 C   0  0  0  0  0  3  0  0  0  0  0  0
  -21.0730   -5.9760   24.9710 C   0  0  0  0  0  3  0  0  0  0  0  0
  -21.3890   -4.6070   24.8850 C   0  0  0  0  0  0  0  0  0  0  0  0
  -21.8070   -4.0580   23.6600 C   0  0  0  0  0  3  0  0  0  0  0  0
  -21.9050   -4.8750   22.5210 C   0  0  0  0  0  0  0  0  0  0  0  0
  -22.2860   -4.3340   21.3390 F   0  0  0  0  0  0  0  0  0  0  0  0
  -21.2880   -3.8170   25.9790 F   0  0  0  0  0  0  0  0  0  0  0  0
  -22.7080  -13.6220   21.1090 C   0  0  0  0  0  0  0  0  0  0  0  0
  -21.9790  -12.9280   21.9740 N   0  0  0  0  0  0  0  0  0  0  0  0
  -22.2700  -14.6430   20.5790 O   0  0  0  0  0  0  0  0  0  0  0  0
  -22.3470  -12.1040   22.4270 H   0  0  0  0  0  0  0  0  0  0  0  0
  -21.0390  -13.2270   22.1920 H   0  0  0  0  0  0  0  0  0  0  0  0
  -25.3090  -15.3150   20.3090 N   0  0  0  0  0  0  0  0  0  0  0  0
  -24.5310  -15.9570   20.4140 H   0  0  0  0  0  0  0  0  0  0  0  0
  -26.1470  -15.7610   19.9620 H   0  0  0  0  0  0  0  0  0  0  0  0
  -31.1770  -20.3900   18.2300 C   0  0  0  0  0  1  0  0  0  0  0  0
  -28.7560  -20.1800   17.5870 C   0  0  0  0  0  1  0  0  0  0  0  0
  -30.2020  -18.2000   17.7110 C   0  0  0  0  0  1  0  0  0  0  0  0
  -29.8930  -19.5450   18.4140 C   0  0  2  0  0  0  0  0  0  0  0  0
  4 15  2  0
  5  3  1  0
  5 10  1  0
  6 14  1  0
  6 16  1  0
  7 13  1  0
  7  9  1  0
  8 14  1  0
  9 10  2  0
  9  8  1  0
 11  5  2  0
 12 11  1  0
 12  7  2  0
 13  6  1  0
 14  4  1  0
 16 18  2  0
 17 16  1  0
 19 17  1  0
 20 29  2  0
 20 25  1  0
 21 17  1  0
 21 25  1  0
 22 21  1  0
 23 24  1  0
 23 22  1  0
 24 20  1  0
 25 26  2  0
 26 27  1  0
 28 27  2  0
 29 28  1  0
 30  4  1  0
 30 35  1  0
 30 31  1  0
 31 34  1  1
 31 32  1  0
 33 31  1  0
 35 38  1  0
 36 40  1  0
 36 35  1  0
 37 36  2  0
 40 39  1  0
 42 40  1  0
 42 43  1  0
 42 41  1  0
 44 53  1  0
 45 53  1  0
 46 51  1  0
 47 48  1  0
 47 46  1  0
 49 48  1  0
 49 58  1  0
 49 50  1  0
 51 45  1  0
 51 50  1  0
 52 45  2  0
 53 54  1  0
 55 56  2  0
 56 75  1  0
 57 56  1  0
 57 60  1  0
 58 55  1  0
 58 59  1  0
 59 57  2  0
 60 61  1  0
 61 62  2  0
 63 66  1  0
 63 62  1  0
 64 63  2  0
 65 64  1  0
 65 60  2  0
 66 67  1  0
 67 68  1  0
 68 69  2  0
 70 69  1  0
 70 74  1  0
 71 70  2  0
 72 67  2  0
 72 71  1  0
 73 72  1  0
 75 76  1  0
 76 79  1  0
 76 78  1  0
 77 75  2  0
 80 81  1  0
 80 55  1  0
 82 80  1  0
 86 83  1  1
 84 86  1  0
 85 86  1  0
 86 44  1  0
M  ISO  4   2 101   3 101  45 100  53 100
M  END
>  <TORSDO>  (55) 
F 19

>  <SCORE>  (55) 
-16.091

>  <name>  (55) 
54

>  <ligand_id>  (55) 
54

>  <original_smiles>  (55) 
[H]c1c([H])c([H])c2c(c1[H])C([H])([H])C([H])([H])C([H])([H])C2([H])N([H])C(=O)C1([H])N(C(=O)C([H])(N([H])C(=O)C([H])(N([H])C([H])([H])[H])C([H])([H])[H])C(C([H])([H])[H])(C([H])([H])[H])C([H])([H])[H])C([H])([H])c2c([H])c(OC([H])([H])C([H])([H])C([H])(N([H])C(=O)N3C([H])([H])C([H])([H])C([H])([H])C([H])(n4nc(-c5c([H])c([H])c(Oc6c([H])c([H])c(F)c([H])c6F)c([H])c5[H])c(C(=O)N([H])[H])c4N([H])[H])C3([H])[H])C(C([H])([H])[H])(C([H])([H])[H])C([H])([H])[H])c([H])c([H])c2C1([H])[H]

>  <smiles>  (55) 
[H]c1c([H])c([H])c2c(c1[H])C([H])([H])C([H])([H])C([H])([H])C2([H])N([H])C(=O)C1([H])N(C(=O)C([H])(N([H])C(=O)C([H])(N([H])C([H])([H])[H])C([H])([H])[H])C(C([H])([H])[H])(C([H])([H])[H])C([H])([H])[H])C([H])([H])c2c([H])c(OC([H])([H])C([H])([H])C([H])(N([H])C(=O)N3C([H])([H])C([H])([H])C([H])([H])C([H])(n4nc(-c5c([H])c([H])c(Oc6c([H])c([H])c(F)c([H])c6F)c([H])c5[H])c(C(=O)N([H])[H])c4N([H])[H])C3([H])[H])C(C([H])([H])[H])(C([H])([H])[H])C([H])([H])[H])c([H])c([H])c2C1([H])[H]

$$$$
55:0:0
     RDKit          3D

102109  0  0  1  0  0  0  0  0999 V2000
  -29.8660  -19.0210   20.4720 C   0  0  0  0  0  3  0  0  0  0  0  0
  -30.3970  -17.6600   19.7770 C   0  0  0  0  0  3  0  0  0  0  0  0
  -30.7480  -15.1700   20.2760 C   0  0  0  0  0  0  0  0  0  0  0  0
  -30.5220  -12.8970   19.3280 C   0  0  0  0  0  2  0  0  0  0  0  0
  -29.5960  -12.9730   18.0980 C   0  0  0  0  0  2  0  0  0  0  0  0
  -28.1240  -12.7880   18.5160 C   0  0  0  0  0  2  0  0  0  0  0  0
  -27.7320  -13.6570   19.7450 C   0  0  0  0  0  3  0  0  0  0  0  0
  -28.8020  -13.6190   20.8640 C   0  0  0  0  0  2  0  0  0  0  0  0
  -30.0980  -13.9620   20.2610 N   0  0  0  0  0  0  0  0  0  0  0  0
  -31.9280  -15.2460   19.9340 O   0  0  0  0  0  0  0  0  0  0  0  0
  -30.0130  -16.3260   20.3940 N   0  0  0  0  0  0  0  0  0  0  0  0
  -29.0550  -16.2160   20.6930 H   0  0  0  0  0  0  0  0  0  0  0  0
  -25.3360  -14.1600   20.5170 C   0  0  0  0  0  0  0  0  0  0  0  0
  -24.2920  -13.3480   20.8700 C   0  0  0  0  0  0  0  0  0  0  0  0
  -24.7850  -12.0090   20.7830 C   0  0  0  0  0  0  0  0  0  0  0  0
  -26.3990  -13.3150   20.2400 N   0  0  0  0  0  0  0  0  0  0  0  0
  -26.0740  -12.0130   20.4600 N   0  0  0  0  0  0  0  0  0  0  0  0
  -24.0880  -10.7250   20.9330 C   0  0  0  0  0  0  0  0  0  0  0  0
  -24.5270   -9.7510   21.8570 C   0  0  0  0  0  3  0  0  0  0  0  0
  -23.8280   -8.5320   22.0000 C   0  0  0  0  0  3  0  0  0  0  0  0
  -22.6760   -8.2780   21.2190 C   0  0  0  0  0  0  0  0  0  0  0  0
  -22.2550   -9.2410   20.2850 C   0  0  0  0  0  3  0  0  0  0  0  0
  -22.9550  -10.4500   20.1410 C   0  0  0  0  0  3  0  0  0  0  0  0
  -21.9480   -7.1130   21.2730 O   0  0  0  0  0  0  0  0  0  0  0  0
  -21.8530   -6.3740   22.4250 C   0  0  0  0  0  0  0  0  0  0  0  0
  -21.3350   -6.9180   23.6220 C   0  0  0  0  0  3  0  0  0  0  0  0
  -21.1950   -6.1040   24.7620 C   0  0  0  0  0  3  0  0  0  0  0  0
  -21.5570   -4.7440   24.7070 C   0  0  0  0  0  0  0  0  0  0  0  0
  -22.0680   -4.2000   23.5160 C   0  0  0  0  0  3  0  0  0  0  0  0
  -22.2120   -5.0110   22.3770 C   0  0  0  0  0  0  0  0  0  0  0  0
  -22.6840   -4.4740   21.2270 F   0  0  0  0  0  0  0  0  0  0  0  0
  -21.4140   -3.9610   25.8010 F   0  0  0  0  0  0  0  0  0  0  0  0
  -22.8880  -13.7810   21.1730 C   0  0  0  0  0  0  0  0  0  0  0  0
  -22.1920  -13.0460   22.0300 N   0  0  0  0  0  0  0  0  0  0  0  0
  -22.4190  -14.8060   20.6820 O   0  0  0  0  0  0  0  0  0  0  0  0
  -22.5840  -12.2180   22.4490 H   0  0  0  0  0  0  0  0  0  0  0  0
  -21.2460  -13.3170   22.2670 H   0  0  0  0  0  0  0  0  0  0  0  0
  -25.4610  -15.5390   20.3870 N   0  0  0  0  0  0  0  0  0  0  0  0
  -24.6780  -16.1660   20.5370 H   0  0  0  0  0  0  0  0  0  0  0  0
  -26.2870  -16.0150   20.0460 H   0  0  0  0  0  0  0  0  0  0  0  0
  -30.1580  -17.5850   18.2480 C   0  0  0  0  0  2  0  0  0  0  0  0
  -31.3380  -18.1630   17.4370 C   0  0  0  0  0  2  0  0  0  0  0  0
  -31.0000  -18.4290   15.9580 C   0  0  0  0  0  2  0  0  0  0  0  0
  -31.9810  -19.3990   15.2680 C   0  0  0  0  0  2  0  0  0  0  0  0
  -33.3480  -18.8630   15.1680 N   0  0  0  0  0  4  0  0  0  0  0  0
  -33.7200  -18.6450   16.0760 H   0  0  0  0  0  0  0  0  0  0  0  0
  -33.9480  -19.5490   14.7440 H   0  0  0  0  0  0  0  0  0  0  0  0
  -33.3620  -18.0360   14.6000 H   0  0  0  0  0  0  0  0  0  0  0  0
  -29.2450  -20.1890   19.5350 C   0  0  0  0  0  2  0  0  0  0  0  0
  -28.5810  -21.8940   21.3680 C   0  0  0  0  0  1  0  0  0  0  0  0
  -29.2140  -21.7350   19.9790 C   0  0  0  0  0  3  0  0  0  0  0  0
  -28.4890  -22.7740   18.9980 C   0  0  0  0  0  2  0  0  0  0  0  0
  -28.7390  -24.3460   19.1750 C   0  0  0  0  0  3  0  0  0  0  0  0
  -27.6520  -25.3330   18.5670 C   0  0  0  0  0  3  0  0  0  0  0  0
  -27.7810  -26.7870   18.8310 O   0  0  0  0  0  0  0  0  0  0  0  0
  -24.4910  -31.7630   22.9010 C   0  0  0  0  0  0  0  0  0  0  0  0
  -26.6450  -27.5940   19.0210 C   0  0  0  0  0  0  0  0  0  0  0  0
  -23.0690  -30.5360   21.2980 C   0  0  0  0  0  3  0  0  0  0  0  0
  -24.3040  -29.1660   19.5270 C   0  0  0  0  0  0  0  0  0  0  0  0
  -25.5610  -30.8970   20.8060 C   0  0  0  0  0  2  0  0  0  0  0  0
  -25.5410  -29.5920   20.0160 C   0  0  0  0  0  0  0  0  0  0  0  0
  -26.7090  -28.8110   19.7670 C   0  0  0  0  0  3  0  0  0  0  0  0
  -25.3770  -27.2360   18.5000 C   0  0  0  0  0  3  0  0  0  0  0  0
  -24.2220  -27.9950   18.7570 C   0  0  0  0  0  3  0  0  0  0  0  0
  -23.0880  -30.0130   19.8360 C   0  0  0  0  0  2  0  0  0  0  0  0
  -24.4010  -31.0770   21.7230 N   0  0  0  0  0  0  0  0  0  0  0  0
  -23.4920  -31.9720   23.6010 O   0  0  0  0  0  0  0  0  0  0  0  0
  -22.5330  -29.4200   22.2260 C   0  0  0  0  0  0  0  0  0  0  0  0
  -21.2080  -29.1980   22.2040 N   0  0  0  0  0  0  0  0  0  0  0  0
  -23.3070  -28.7570   22.9240 O   0  0  0  0  0  0  0  0  0  0  0  0
  -20.6400  -29.7870   21.6120 H   0  0  0  0  0  0  0  0  0  0  0  0
  -17.9460  -27.7480   22.8010 C   0  0  0  0  0  0  0  0  0  0  0  0
  -20.4930  -28.1680   22.9610 C   0  0  0  0  0  3  0  0  0  0  0  0
  -20.6590  -26.7790   22.3010 C   0  0  0  0  0  2  0  0  0  0  0  0
  -19.5260  -26.4340   21.3290 C   0  0  0  0  0  2  0  0  0  0  0  0
  -18.1750  -26.4510   22.0440 C   0  0  0  0  0  2  0  0  0  0  0  0
  -19.0330  -28.5630   23.2160 C   0  0  0  0  0  0  0  0  0  0  0  0
  -18.7600  -29.7770   23.8840 C   0  0  0  0  0  3  0  0  0  0  0  0
  -17.4350  -30.1750   24.1410 C   0  0  0  0  0  3  0  0  0  0  0  0
  -16.3640  -29.3570   23.7390 C   0  0  0  0  0  3  0  0  0  0  0  0
  -16.6200  -28.1450   23.0750 C   0  0  0  0  0  3  0  0  0  0  0  0
  -25.8480  -32.3350   23.4130 C   0  0  0  0  0  3  0  0  0  0  0  0
  -26.5480  -31.4070   24.4770 C   0  0  1  0  0  0  0  0  0  0  0  0
  -25.6270  -31.0020   25.6510 C   0  0  0  0  0  1  0  0  0  0  0  0
  -27.0630  -30.1110   23.8090 C   0  0  0  0  0  1  0  0  0  0  0  0
  -27.7870  -32.1260   25.0620 C   0  0  0  0  0  1  0  0  0  0  0  0
  -25.5850  -33.6680   23.9780 N   0  0  0  0  0  0  0  0  0  0  0  0
  -25.8720  -34.8250   23.3670 C   0  0  0  0  0  0  0  0  0  0  0  0
  -26.4550  -34.8810   22.2800 O   0  0  0  0  0  0  0  0  0  0  0  0
  -25.0610  -33.6980   24.8410 H   0  0  0  0  0  0  0  0  0  0  0  0
  -24.1680  -36.6730   23.4140 C   0  0  0  0  0  1  0  0  0  0  0  0
  -25.4460  -36.1280   24.0710 C   0  0  0  0  0  3  0  0  0  0  0  0
  -27.6470  -36.8350   24.8960 C   0  0  0  0  0  1  0  0  0  0  0  0
  -26.4950  -37.1710   24.0640 N   0  0  0  0  0  0  0  0  0  0  0  0
  -26.1200  -38.0610   24.3840 H   0  0  0  0  0  0  0  0  0  0  0  0
  -31.0200  -19.6190   21.3320 C   0  0  0  0  0  2  0  0  0  0  0  0
  -31.4080  -18.8070   22.5860 C   0  0  0  0  0  2  0  0  0  0  0  0
  -31.9280  -19.6660   23.7580 C   0  0  0  0  0  2  0  0  0  0  0  0
  -32.8860  -20.7060   23.3350 N   0  0  0  0  0  4  0  0  0  0  0  0
  -33.6750  -20.3000   22.8630 H   0  0  0  0  0  0  0  0  0  0  0  0
  -33.2310  -21.1940   24.1430 H   0  0  0  0  0  0  0  0  0  0  0  0
  -32.4400  -21.3760   22.7350 H   0  0  0  0  0  0  0  0  0  0  0  0
  1 49  1  0
  1 96  1  0
  2 41  1  0
  2 11  1  0
  2  1  1  0
  3 11  1  0
  4  9  1  0
  5  6  1  0
  5  4  1  0
  7  6  1  0
  7 16  1  0
  7  8  1  0
  9  3  1  0
  9  8  1  0
 10  3  2  0
 11 12  1  0
 13 14  2  0
 14 33  1  0
 15 14  1  0
 15 18  1  0
 16 17  1  0
 16 13  1  0
 17 15  2  0
 18 19  1  0
 19 20  2  0
 21 24  1  0
 21 20  1  0
 22 21  2  0
 23 22  1  0
 23 18  2  0
 24 25  1  0
 25 26  1  0
 26 27  2  0
 28 27  1  0
 28 32  1  0
 29 28  2  0
 30 25  2  0
 30 29  1  0
 31 30  1  0
 33 34  1  0
 34 37  1  0
 34 36  1  0
 35 33  2  0
 38 13  1  0
 38 39  1  0
 40 38  1  0
 42 41  1  0
 43 42  1  0
 44 43  1  0
 45 44  1  0
 45 46  1  0
 47 45  1  0
 48 45  1  0
 49 51  1  0
 51 50  1  0
 52 53  1  0
 52 51  1  0
 54 55  1  0
 54 53  2  0
 55 57  1  0
 56 67  2  0
 57 62  1  0
 58 66  1  0
 58 68  1  0
 59 65  1  0
 59 61  1  0
 60 66  1  0
 61 60  1  0
 62 61  2  0
 63 64  1  0
 63 57  2  0
 64 59  2  0
 65 58  1  0
 66 56  1  0
 68 70  2  0
 69 68  1  0
 71 69  1  0
 72 81  2  0
 72 77  1  0
 73 69  1  0
 73 77  1  0
 74 73  1  0
 75 76  1  0
 75 74  1  0
 76 72  1  0
 77 78  2  0
 78 79  1  0
 80 79  2  0
 81 80  1  0
 82 56  1  0
 82 87  1  0
 82 83  1  0
 83 86  1  1
 83 84  1  0
 85 83  1  0
 87 90  1  0
 88 87  1  0
 88 92  1  0
 89 88  2  0
 92 91  1  0
 94 92  1  0
 94 95  1  0
 94 93  1  0
 96 97  1  0
 97 98  1  0
 99 98  1  0
 99101  1  0
100 99  1  0
102 99  1  0
M  ISO  4   3 100  11 100  54 101  55 101
M  END
>  <TORSDO>  (56) 
F 31

>  <SCORE>  (56) 
-10.069

>  <name>  (56) 
55

>  <ligand_id>  (56) 
55

>  <original_smiles>  (56) 
[H]c1c([H])c([H])c2c(c1[H])C([H])([H])C([H])([H])C([H])([H])C2([H])N([H])C(=O)C1([H])N(C(=O)C([H])(N([H])C(=O)C([H])(N([H])C([H])([H])[H])C([H])([H])[H])C(C([H])([H])[H])(C([H])([H])[H])C([H])([H])[H])C([H])([H])c2c([H])c(OC([H])([H])C([H])([H])C([H])([H])C([H])(C([H])([H])[H])C([H])([H])C([H])(C([H])([H])C([H])([H])C([H])([H])[N+]([H])([H])[H])C([H])(N([H])C(=O)N3C([H])([H])C([H])([H])C([H])([H])C([H])(n4nc(-c5c([H])c([H])c(Oc6c([H])c([H])c(F)c([H])c6F)c([H])c5[H])c(C(=O)N([H])[H])c4N([H])[H])C3([H])[H])C([H])([H])C([H])([H])C([H])([H])C([H])([H])[N+]([H])([H])[H])c([H])c([H])c2C1([H])[H]

>  <smiles>  (56) 
[H]c1c([H])c([H])c2c(c1[H])C([H])([H])C([H])([H])C([H])([H])C2([H])N([H])C(=O)C1([H])N(C(=O)C([H])(N([H])C(=O)C([H])(N([H])C([H])([H])[H])C([H])([H])[H])C(C([H])([H])[H])(C([H])([H])[H])C([H])([H])[H])C([H])([H])c2c([H])c(OC([H])([H])C([H])([H])C([H])([H])C([H])(C([H])([H])[H])C([H])([H])C([H])(C([H])([H])C([H])([H])C([H])([H])[N+]([H])([H])[H])C([H])(N([H])C(=O)N3C([H])([H])C([H])([H])C([H])([H])C([H])(n4nc(-c5c([H])c([H])c(Oc6c([H])c([H])c(F)c([H])c6F)c([H])c5[H])c(C(=O)N([H])[H])c4N([H])[H])C3([H])[H])C([H])([H])C([H])([H])C([H])([H])C([H])([H])[N+]([H])([H])[H])c([H])c([H])c2C1([H])[H]

$$$$
56:0:0
     RDKit          3D

 96103  0  0  1  0  0  0  0  0999 V2000
  -28.3370  -22.3010   20.0160 C   0  0  0  0  0  3  0  0  0  0  0  0
  -28.9940  -24.1010   21.7780 C   0  0  0  0  0  1  0  0  0  0  0  0
  -28.1050  -23.8640   20.5430 C   0  0  1  0  0  0  0  0  0  0  0  0
  -28.3990  -25.1430   19.5860 C   0  0  0  0  0  2  0  0  0  0  0  0
  -28.4190  -26.5580   20.1360 O   0  0  0  0  0  0  0  0  0  0  0  0
  -24.6250  -31.8850   23.3060 C   0  0  0  0  0  0  0  0  0  0  0  0
  -27.3180  -27.4410   20.0950 C   0  0  0  0  0  0  0  0  0  0  0  0
  -23.4650  -30.5290   21.6100 C   0  0  0  0  0  3  0  0  0  0  0  0
  -24.9470  -29.0530   20.1430 C   0  0  0  0  0  0  0  0  0  0  0  0
  -26.0050  -30.8820   21.4630 C   0  0  0  0  0  2  0  0  0  0  0  0
  -26.1080  -29.5240   20.7680 C   0  0  0  0  0  0  0  0  0  0  0  0
  -27.2960  -28.7260   20.7410 C   0  0  0  0  0  3  0  0  0  0  0  0
  -26.1430  -27.0690   19.4150 C   0  0  0  0  0  3  0  0  0  0  0  0
  -24.9680  -27.8350   19.4590 C   0  0  0  0  0  3  0  0  0  0  0  0
  -23.7010  -29.9110   20.2090 C   0  0  0  0  0  2  0  0  0  0  0  0
  -24.7170  -31.1130   22.1830 N   0  0  0  0  0  0  0  0  0  0  0  0
  -23.5290  -32.1250   23.8340 O   0  0  0  0  0  0  0  0  0  0  0  0
  -22.8020  -29.4660   22.5230 C   0  0  0  0  0  0  0  0  0  0  0  0
  -21.4860  -29.2480   22.3480 N   0  0  0  0  0  0  0  0  0  0  0  0
  -23.4720  -28.8440   23.3510 O   0  0  0  0  0  0  0  0  0  0  0  0
  -21.0040  -29.8100   21.6610 H   0  0  0  0  0  0  0  0  0  0  0  0
  -18.1310  -27.9390   22.7210 C   0  0  0  0  0  0  0  0  0  0  0  0
  -20.6720  -28.2650   23.0670 C   0  0  0  0  0  3  0  0  0  0  0  0
  -20.8340  -26.8540   22.4560 C   0  0  0  0  0  2  0  0  0  0  0  0
  -19.7690  -26.5260   21.4060 C   0  0  0  0  0  2  0  0  0  0  0  0
  -18.3670  -26.6120   22.0130 C   0  0  0  0  0  2  0  0  0  0  0  0
  -19.2160  -28.7210   23.2040 C   0  0  0  0  0  0  0  0  0  0  0  0
  -18.9440  -29.9570   23.8270 C   0  0  0  0  0  3  0  0  0  0  0  0
  -17.6230  -30.4180   23.9670 C   0  0  0  0  0  3  0  0  0  0  0  0
  -16.5530  -29.6330   23.5050 C   0  0  0  0  0  3  0  0  0  0  0  0
  -16.8060  -28.3950   22.8900 C   0  0  0  0  0  3  0  0  0  0  0  0
  -25.8870  -32.5160   23.9700 C   0  0  0  0  0  3  0  0  0  0  0  0
  -26.3470  -31.7530   25.2720 C   0  0  1  0  0  0  0  0  0  0  0  0
  -25.2020  -31.4990   26.2820 C   0  0  0  0  0  1  0  0  0  0  0  0
  -26.9660  -30.3830   24.9120 C   0  0  0  0  0  1  0  0  0  0  0  0
  -27.4610  -32.5590   25.9820 C   0  0  0  0  0  1  0  0  0  0  0  0
  -25.5770  -33.9190   24.2740 N   0  0  0  0  0  0  0  0  0  0  0  0
  -25.9190  -34.9570   23.5000 C   0  0  0  0  0  0  0  0  0  0  0  0
  -26.6010  -34.8360   22.4790 O   0  0  0  0  0  0  0  0  0  0  0  0
  -24.9910  -34.0900   25.0790 H   0  0  0  0  0  0  0  0  0  0  0  0
  -24.1860  -36.7360   23.1000 C   0  0  0  0  0  1  0  0  0  0  0  0
  -25.4250  -36.3560   23.9260 C   0  0  0  0  0  3  0  0  0  0  0  0
  -27.5460  -37.2720   24.7540 C   0  0  0  0  0  1  0  0  0  0  0  0
  -26.4540  -37.4090   23.7920 N   0  0  0  0  0  0  0  0  0  0  0  0
  -26.0450  -38.3330   23.9050 H   0  0  0  0  0  0  0  0  0  0  0  0
  -26.6050  -24.0370   20.9830 C   0  0  0  0  0  2  0  0  0  0  0  0
  -25.5080  -23.5860   19.9760 C   0  0  0  0  0  2  0  0  0  0  0  0
  -23.0320  -23.7430   19.3400 C   0  0  0  0  0  1  0  0  0  0  0  0
  -24.0900  -23.9870   20.4260 C   0  0  0  0  0  2  0  0  0  0  0  0
  -27.5250  -21.2270   20.8280 C   0  0  0  0  0  2  0  0  0  0  0  0
  -27.2390  -19.9910   20.0700 N   0  0  0  0  0  4  0  0  0  0  0  0
  -26.7900  -20.1910   19.1940 H   0  0  0  0  0  0  0  0  0  0  0  0
  -26.6150  -19.4120   20.6050 H   0  0  0  0  0  0  0  0  0  0  0  0
  -28.0770  -19.4680   19.8940 H   0  0  0  0  0  0  0  0  0  0  0  0
  -29.8000  -21.6760   19.7080 C   0  0  0  0  0  2  0  0  0  0  0  0
  -30.4120  -20.3020   20.3390 C   0  0  0  0  0  2  0  0  0  0  0  0
  -30.0980  -18.8020   19.8280 C   0  0  0  0  0  3  0  0  0  0  0  0
  -30.9630  -17.6010   20.4760 C   0  0  0  0  0  3  0  0  0  0  0  0
  -31.2710  -15.0200   20.0820 C   0  0  0  0  0  0  0  0  0  0  0  0
  -31.0010  -12.7460   19.0870 C   0  0  0  0  0  2  0  0  0  0  0  0
  -30.0220  -12.8200   17.8920 C   0  0  0  0  0  2  0  0  0  0  0  0
  -28.5600  -12.7000   18.3630 C   0  0  0  0  0  2  0  0  0  0  0  0
  -28.2450  -13.6160   19.5760 C   0  0  0  0  0  3  0  0  0  0  0  0
  -29.3300  -13.5040   20.6700 C   0  0  0  0  0  2  0  0  0  0  0  0
  -30.6170  -13.8130   20.0390 N   0  0  0  0  0  0  0  0  0  0  0  0
  -32.4470  -15.1070   19.7190 O   0  0  0  0  0  0  0  0  0  0  0  0
  -30.5220  -16.1490   20.3470 N   0  0  0  0  0  0  0  0  0  0  0  0
  -29.5700  -15.9520   20.6200 H   0  0  0  0  0  0  0  0  0  0  0  0
  -25.9150  -14.2900   20.4130 C   0  0  0  0  0  0  0  0  0  0  0  0
  -24.8230  -13.5550   20.7850 C   0  0  0  0  0  0  0  0  0  0  0  0
  -25.2120  -12.1850   20.6740 C   0  0  0  0  0  0  0  0  0  0  0  0
  -26.9050  -13.3700   20.1030 N   0  0  0  0  0  0  0  0  0  0  0  0
  -26.4900  -12.0960   20.3190 N   0  0  0  0  0  0  0  0  0  0  0  0
  -24.4270  -10.9550   20.8300 C   0  0  0  0  0  0  0  0  0  0  0  0
  -24.7940   -9.9530   21.7550 C   0  0  0  0  0  3  0  0  0  0  0  0
  -24.0080   -8.7890   21.8980 C   0  0  0  0  0  3  0  0  0  0  0  0
  -22.8430   -8.6190   21.1150 C   0  0  0  0  0  0  0  0  0  0  0  0
  -22.4960   -9.6070   20.1790 C   0  0  0  0  0  3  0  0  0  0  0  0
  -23.2780  -10.7640   20.0340 C   0  0  0  0  0  3  0  0  0  0  0  0
  -22.0330   -7.5110   21.1680 O   0  0  0  0  0  0  0  0  0  0  0  0
  -21.8600   -6.8020   22.3260 C   0  0  0  0  0  0  0  0  0  0  0  0
  -21.3010   -7.3890   23.4830 C   0  0  0  0  0  3  0  0  0  0  0  0
  -21.0770   -6.6050   24.6330 C   0  0  0  0  0  3  0  0  0  0  0  0
  -21.4010   -5.2350   24.6260 C   0  0  0  0  0  0  0  0  0  0  0  0
  -21.9510   -4.6470   23.4730 C   0  0  0  0  0  3  0  0  0  0  0  0
  -22.1770   -5.4290   22.3260 C   0  0  0  0  0  0  0  0  0  0  0  0
  -22.6870   -4.8520   21.2130 F   0  0  0  0  0  0  0  0  0  0  0  0
  -21.1780   -4.4800   25.7290 F   0  0  0  0  0  0  0  0  0  0  0  0
  -23.4620  -14.0920   21.1250 C   0  0  0  0  0  0  0  0  0  0  0  0
  -22.7300  -13.4020   21.9920 N   0  0  0  0  0  0  0  0  0  0  0  0
  -23.0610  -15.1570   20.6590 O   0  0  0  0  0  0  0  0  0  0  0  0
  -23.0660  -12.5360   22.3860 H   0  0  0  0  0  0  0  0  0  0  0  0
  -21.8180  -13.7420   22.2570 H   0  0  0  0  0  0  0  0  0  0  0  0
  -26.1390  -15.6570   20.2790 N   0  0  0  0  0  0  0  0  0  0  0  0
  -25.3570  -16.3040   20.3260 H   0  0  0  0  0  0  0  0  0  0  0  0
  -26.9450  -16.0420   19.8060 H   0  0  0  0  0  0  0  0  0  0  0  0
  1 55  1  0
  1  3  1  0
  1 50  1  0
  3 46  1  0
  3  2  1  1
  4  5  1  0
  4  3  1  0
  6 17  2  0
  7  5  1  0
  7 12  1  0
  8 16  1  0
  8 18  1  0
  9 15  1  0
  9 11  1  0
 10 16  1  0
 11 10  1  0
 12 11  2  0
 13 14  1  0
 13  7  2  0
 14  9  2  0
 15  8  1  0
 16  6  1  0
 18 20  2  0
 19 18  1  0
 21 19  1  0
 22 31  2  0
 22 27  1  0
 23 19  1  0
 23 27  1  0
 24 23  1  0
 25 26  1  0
 25 24  1  0
 26 22  1  0
 27 28  2  0
 28 29  1  0
 30 29  2  0
 31 30  1  0
 32  6  1  0
 32 37  1  0
 32 33  1  0
 33 36  1  1
 33 34  1  0
 35 33  1  0
 37 40  1  0
 38 42  1  0
 38 37  1  0
 39 38  2  0
 42 41  1  0
 44 45  1  0
 44 42  1  0
 44 43  1  0
 47 49  1  0
 47 46  1  0
 48 49  1  0
 51 53  1  0
 51 50  1  0
 52 51  1  0
 54 51  1  0
 55 56  1  0
 57 56  1  0
 57 58  2  0
 59 67  1  0
 60 65  1  0
 61 62  1  0
 61 60  1  0
 63 62  1  0
 63 72  1  0
 63 64  1  0
 65 59  1  0
 65 64  1  0
 66 59  2  0
 67 58  1  0
 67 68  1  0
 69 70  2  0
 70 89  1  0
 71 70  1  0
 71 74  1  0
 72 73  1  0
 72 69  1  0
 73 71  2  0
 74 75  1  0
 75 76  2  0
 77 80  1  0
 77 76  1  0
 78 77  2  0
 79 78  1  0
 79 74  2  0
 80 81  1  0
 81 86  2  0
 81 82  1  0
 82 83  2  0
 84 83  1  0
 84 88  1  0
 85 84  2  0
 86 85  1  0
 87 86  1  0
 89 90  1  0
 90 93  1  0
 90 92  1  0
 91 89  2  0
 94 95  1  0
 94 69  1  0
 96 94  1  0
M  ISO  4   4 101   5 101  59 100  67 100
M  END
>  <TORSDO>  (57) 
F 27

>  <SCORE>  (57) 
-11.100

>  <name>  (57) 
56

>  <ligand_id>  (57) 
56

>  <original_smiles>  (57) 
[H]c1c([H])c([H])c2c(c1[H])C([H])([H])C([H])([H])C([H])([H])C2([H])N([H])C(=O)C1([H])N(C(=O)C([H])(N([H])C(=O)C([H])(N([H])C([H])([H])[H])C([H])([H])[H])C(C([H])([H])[H])(C([H])([H])[H])C([H])([H])[H])C([H])([H])c2c([H])c(OC([H])([H])C(C([H])([H])[H])(C([H])([H])C([H])([H])C([H])([H])C([H])([H])[H])C([H])(C([H])([H])C([H])([H])C([H])([H])C([H])([H])N([H])C(=O)N3C([H])([H])C([H])([H])C([H])([H])C([H])(n4nc(-c5c([H])c([H])c(Oc6c([H])c([H])c(F)c([H])c6F)c([H])c5[H])c(C(=O)N([H])[H])c4N([H])[H])C3([H])[H])C([H])([H])[N+]([H])([H])[H])c([H])c([H])c2C1([H])[H]

>  <smiles>  (57) 
[H]c1c([H])c([H])c2c(c1[H])C([H])([H])C([H])([H])C([H])([H])C2([H])N([H])C(=O)C1([H])N(C(=O)C([H])(N([H])C(=O)C([H])(N([H])C([H])([H])[H])C([H])([H])[H])C(C([H])([H])[H])(C([H])([H])[H])C([H])([H])[H])C([H])([H])c2c([H])c(OC([H])([H])C(C([H])([H])[H])(C([H])([H])C([H])([H])C([H])([H])C([H])([H])[H])C([H])(C([H])([H])C([H])([H])C([H])([H])C([H])([H])N([H])C(=O)N3C([H])([H])C([H])([H])C([H])([H])C([H])(n4nc(-c5c([H])c([H])c(Oc6c([H])c([H])c(F)c([H])c6F)c([H])c5[H])c(C(=O)N([H])[H])c4N([H])[H])C3([H])[H])C([H])([H])[N+]([H])([H])[H])c([H])c([H])c2C1([H])[H]

$$$$
57:0:0
     RDKit          3D

 90 97  0  0  1  0  0  0  0  0999 V2000
  -28.8090  -22.8400   20.5120 C   0  0  0  0  0  3  0  0  0  0  0  0
  -28.0960  -22.6510   21.7930 N   0  0  0  0  0  4  0  0  0  0  0  0
  -28.0710  -23.5190   22.3020 H   0  0  0  0  0  0  0  0  0  0  0  0
  -28.5580  -21.9740   22.3730 H   0  0  0  0  0  0  0  0  0  0  0  0
  -27.1460  -22.3560   21.6420 H   0  0  0  0  0  0  0  0  0  0  0  0
  -29.0600  -21.2100   19.8020 C   0  0  0  0  0  2  0  0  0  0  0  0
  -28.1070  -19.1700   21.2130 C   0  0  0  0  0  1  0  0  0  0  0  0
  -30.4900  -19.8240   21.5440 C   0  0  0  0  0  1  0  0  0  0  0  0
  -29.3980  -19.5880   20.4890 C   0  0  2  0  0  0  0  0  0  0  0  0
  -29.9200  -18.0880   19.6860 C   0  0  0  0  0  2  0  0  0  0  0  0
  -30.5650  -15.2470   19.8720 C   0  0  0  0  0  0  0  0  0  0  0  0
  -30.4150  -12.8440   18.9420 C   0  0  0  0  0  2  0  0  0  0  0  0
  -29.4070  -12.7390   17.7700 C   0  0  0  0  0  2  0  0  0  0  0  0
  -27.9830  -12.4970   18.2970 C   0  0  0  0  0  2  0  0  0  0  0  0
  -27.6440  -13.4190   19.4960 C   0  0  0  0  0  3  0  0  0  0  0  0
  -28.7710  -13.4790   20.5510 C   0  0  0  0  0  2  0  0  0  0  0  0
  -29.9780  -13.9560   19.8600 N   0  0  0  0  0  0  0  0  0  0  0  0
  -31.7370  -15.2630   19.4730 O   0  0  0  0  0  0  0  0  0  0  0  0
  -29.8330  -16.4960   20.1300 N   0  0  0  0  0  0  0  0  0  0  0  0
  -28.9290  -16.2850   20.5280 H   0  0  0  0  0  0  0  0  0  0  0  0
  -25.3360  -13.9920   20.4210 C   0  0  0  0  0  0  0  0  0  0  0  0
  -24.2910  -13.2190   20.8450 C   0  0  0  0  0  0  0  0  0  0  0  0
  -24.7340  -11.8640   20.7470 C   0  0  0  0  0  0  0  0  0  0  0  0
  -26.3460  -13.1090   20.0840 N   0  0  0  0  0  0  0  0  0  0  0  0
  -26.0010  -11.8220   20.3470 N   0  0  0  0  0  0  0  0  0  0  0  0
  -24.0030  -10.6070   20.9550 C   0  0  0  0  0  0  0  0  0  0  0  0
  -24.4570   -9.6290   21.8670 C   0  0  0  0  0  3  0  0  0  0  0  0
  -23.7230   -8.4400   22.0650 C   0  0  0  0  0  3  0  0  0  0  0  0
  -22.5210   -8.2180   21.3520 C   0  0  0  0  0  0  0  0  0  0  0  0
  -22.0870   -9.1840   20.4280 C   0  0  0  0  0  3  0  0  0  0  0  0
  -22.8200  -10.3660   20.2280 C   0  0  0  0  0  3  0  0  0  0  0  0
  -21.7580   -7.0810   21.4610 O   0  0  0  0  0  0  0  0  0  0  0  0
  -21.7090   -6.3560   22.6240 C   0  0  0  0  0  0  0  0  0  0  0  0
  -21.3000   -6.9330   23.8460 C   0  0  0  0  0  3  0  0  0  0  0  0
  -21.1960   -6.1340   25.0020 C   0  0  0  0  0  3  0  0  0  0  0  0
  -21.4930   -4.7600   24.9380 C   0  0  0  0  0  0  0  0  0  0  0  0
  -21.8950   -4.1820   23.7210 C   0  0  0  0  0  3  0  0  0  0  0  0
  -21.9990   -4.9780   22.5670 C   0  0  0  0  0  0  0  0  0  0  0  0
  -22.3670   -4.4120   21.3920 F   0  0  0  0  0  0  0  0  0  0  0  0
  -21.3870   -3.9910   26.0470 F   0  0  0  0  0  0  0  0  0  0  0  0
  -22.9220  -13.7070   21.2190 C   0  0  0  0  0  0  0  0  0  0  0  0
  -22.2470  -13.0040   22.1210 N   0  0  0  0  0  0  0  0  0  0  0  0
  -22.4650  -14.7480   20.7490 O   0  0  0  0  0  0  0  0  0  0  0  0
  -22.6330  -12.1620   22.5210 H   0  0  0  0  0  0  0  0  0  0  0  0
  -21.3310  -13.3120   22.4140 H   0  0  0  0  0  0  0  0  0  0  0  0
  -25.5040  -15.3650   20.2650 N   0  0  0  0  0  0  0  0  0  0  0  0
  -24.7510  -16.0210   20.4390 H   0  0  0  0  0  0  0  0  0  0  0  0
  -26.3190  -15.7990   19.8510 H   0  0  0  0  0  0  0  0  0  0  0  0
  -28.1500  -24.3570   19.8350 C   0  0  0  0  0  2  0  0  0  0  0  0
  -28.2330  -25.9360   20.2590 O   0  0  0  0  0  0  0  0  0  0  0  0
  -24.6110  -31.8360   23.1480 C   0  0  0  0  0  0  0  0  0  0  0  0
  -27.2010  -26.9960   20.1480 C   0  0  0  0  0  0  0  0  0  0  0  0
  -23.4200  -30.4180   21.5240 C   0  0  0  0  0  3  0  0  0  0  0  0
  -24.8770  -28.8260   20.1010 C   0  0  0  0  0  0  0  0  0  0  0  0
  -25.9800  -30.6620   21.3600 C   0  0  0  0  0  2  0  0  0  0  0  0
  -26.0610  -29.2540   20.7140 C   0  0  0  0  0  0  0  0  0  0  0  0
  -27.2140  -28.3570   20.7190 C   0  0  0  0  0  3  0  0  0  0  0  0
  -25.9920  -26.7150   19.4730 C   0  0  0  0  0  3  0  0  0  0  0  0
  -24.8660  -27.5770   19.4590 C   0  0  0  0  0  3  0  0  0  0  0  0
  -23.6470  -29.7290   20.1500 C   0  0  0  0  0  2  0  0  0  0  0  0
  -24.6920  -30.9990   22.0640 N   0  0  0  0  0  0  0  0  0  0  0  0
  -23.5220  -32.1170   23.6740 O   0  0  0  0  0  0  0  0  0  0  0  0
  -22.7440  -29.4190   22.5010 C   0  0  0  0  0  0  0  0  0  0  0  0
  -21.4160  -29.2330   22.3800 N   0  0  0  0  0  0  0  0  0  0  0  0
  -23.4210  -28.8100   23.3330 O   0  0  0  0  0  0  0  0  0  0  0  0
  -20.9240  -29.7760   21.6840 H   0  0  0  0  0  0  0  0  0  0  0  0
  -18.0550  -27.9740   22.8940 C   0  0  0  0  0  0  0  0  0  0  0  0
  -20.6090  -28.2930   23.1620 C   0  0  0  0  0  3  0  0  0  0  0  0
  -20.7390  -26.8540   22.6090 C   0  0  0  0  0  2  0  0  0  0  0  0
  -19.6460  -26.4960   21.5960 C   0  0  0  0  0  2  0  0  0  0  0  0
  -18.2600  -26.6220   22.2340 C   0  0  0  0  0  2  0  0  0  0  0  0
  -19.1570  -28.7660   23.3150 C   0  0  0  0  0  0  0  0  0  0  0  0
  -18.9090  -30.0290   23.8950 C   0  0  0  0  0  3  0  0  0  0  0  0
  -17.5940  -30.5020   24.0570 C   0  0  0  0  0  3  0  0  0  0  0  0
  -16.5070  -29.7090   23.6490 C   0  0  0  0  0  3  0  0  0  0  0  0
  -16.7380  -28.4470   23.0740 C   0  0  0  0  0  3  0  0  0  0  0  0
  -25.8810  -32.4940   23.7690 C   0  0  0  0  0  3  0  0  0  0  0  0
  -25.5540  -33.8930   24.0930 N   0  0  0  0  0  0  0  0  0  0  0  0
  -25.8700  -34.9510   23.3340 C   0  0  0  0  0  0  0  0  0  0  0  0
  -26.5320  -34.8530   22.2980 O   0  0  0  0  0  0  0  0  0  0  0  0
  -24.9640  -34.0420   24.8990 H   0  0  0  0  0  0  0  0  0  0  0  0
  -24.1170  -36.7300   23.0060 C   0  0  0  0  0  1  0  0  0  0  0  0
  -25.3760  -36.3380   23.7960 C   0  0  0  0  0  3  0  0  0  0  0  0
  -27.5140  -37.2520   24.5890 C   0  0  0  0  0  1  0  0  0  0  0  0
  -26.3960  -37.4020   23.6610 N   0  0  0  0  0  0  0  0  0  0  0  0
  -25.9810  -38.3180   23.8100 H   0  0  0  0  0  0  0  0  0  0  0  0
  -26.3990  -31.7450   25.0580 C   0  0  1  0  0  0  0  0  0  0  0  0
  -25.3050  -31.5150   26.1270 C   0  0  0  0  0  1  0  0  0  0  0  0
  -26.9930  -30.3650   24.6950 C   0  0  0  0  0  1  0  0  0  0  0  0
  -27.5420  -32.5560   25.7120 C   0  0  0  0  0  1  0  0  0  0  0  0
  1  6  1  0
  1  2  1  0
  2  3  1  0
  2  4  1  0
  5  2  1  0
  6  9  1  0
  9  7  1  1
  9  8  1  0
 10 19  1  0
 10  9  1  0
 11 19  1  0
 12 17  1  0
 13 14  1  0
 13 12  1  0
 15 14  1  0
 15 24  1  0
 15 16  1  0
 17 11  1  0
 17 16  1  0
 18 11  2  0
 19 20  1  0
 21 22  2  0
 22 41  1  0
 23 22  1  0
 23 26  1  0
 24 25  1  0
 24 21  1  0
 25 23  2  0
 26 27  1  0
 27 28  2  0
 29 32  1  0
 29 28  1  0
 30 29  2  0
 31 30  1  0
 31 26  2  0
 32 33  1  0
 33 34  1  0
 34 35  2  0
 36 35  1  0
 36 40  1  0
 37 36  2  0
 38 33  2  0
 38 37  1  0
 39 38  1  0
 41 42  1  0
 42 45  1  0
 42 44  1  0
 43 41  2  0
 46 21  1  0
 46 47  1  0
 48 46  1  0
 49 50  1  0
 49  1  1  0
 51 62  2  0
 52 50  1  0
 52 57  1  0
 53 61  1  0
 53 63  1  0
 54 60  1  0
 54 56  1  0
 55 61  1  0
 56 57  2  0
 56 55  1  0
 58 52  2  0
 59 58  1  0
 59 54  2  0
 60 53  1  0
 61 51  1  0
 63 65  2  0
 64 63  1  0
 66 64  1  0
 67 76  2  0
 67 72  1  0
 68 64  1  0
 68 72  1  0
 69 68  1  0
 70 71  1  0
 70 69  1  0
 71 67  1  0
 72 73  2  0
 73 74  1  0
 75 74  2  0
 76 75  1  0
 77 51  1  0
 77 78  1  0
 77 87  1  0
 78 81  1  0
 79 83  1  0
 79 78  1  0
 80 79  2  0
 83 82  1  0
 85 83  1  0
 85 86  1  0
 85 84  1  0
 87 90  1  1
 87 88  1  0
 89 87  1  0
M  ISO  4  11 100  19 100  49 101  50 101
M  END
>  <TORSDO>  (58) 
F 21

>  <SCORE>  (58) 
-14.637

>  <name>  (58) 
57

>  <ligand_id>  (58) 
57

>  <original_smiles>  (58) 
[H]c1c([H])c([H])c2c(c1[H])C([H])([H])C([H])([H])C([H])([H])C2([H])N([H])C(=O)C1([H])N(C(=O)C([H])(N([H])C(=O)C([H])(N([H])C([H])([H])[H])C([H])([H])[H])C(C([H])([H])[H])(C([H])([H])[H])C([H])([H])[H])C([H])([H])c2c([H])c(OC([H])([H])C([H])(C([H])([H])C(C([H])([H])[H])(C([H])([H])[H])C([H])([H])N([H])C(=O)N3C([H])([H])C([H])([H])C([H])([H])C([H])(n4nc(-c5c([H])c([H])c(Oc6c([H])c([H])c(F)c([H])c6F)c([H])c5[H])c(C(=O)N([H])[H])c4N([H])[H])C3([H])[H])[N+]([H])([H])[H])c([H])c([H])c2C1([H])[H]

>  <smiles>  (58) 
[H]c1c([H])c([H])c2c(c1[H])C([H])([H])C([H])([H])C([H])([H])C2([H])N([H])C(=O)C1([H])N(C(=O)C([H])(N([H])C(=O)C([H])(N([H])C([H])([H])[H])C([H])([H])[H])C(C([H])([H])[H])(C([H])([H])[H])C([H])([H])[H])C([H])([H])c2c([H])c(OC([H])([H])C([H])(C([H])([H])C(C([H])([H])[H])(C([H])([H])[H])C([H])([H])N([H])C(=O)N3C([H])([H])C([H])([H])C([H])([H])C([H])(n4nc(-c5c([H])c([H])c(Oc6c([H])c([H])c(F)c([H])c6F)c([H])c5[H])c(C(=O)N([H])[H])c4N([H])[H])C3([H])[H])[N+]([H])([H])[H])c([H])c([H])c2C1([H])[H]

$$$$
58:0:0
     RDKit          3D

 99108  0  0  1  0  0  0  0  0999 V2000
  -30.4850  -19.3050   19.1980 C   0  0  0  0  0  3  0  0  0  0  0  0
  -32.5520  -22.0450   19.8880 C   0  0  0  0  0  2  0  0  0  0  0  0
  -31.3960  -22.3250   20.8630 C   0  0  0  0  0  2  0  0  0  0  0  0
  -31.9500  -21.1740   18.7610 C   0  0  0  0  0  2  0  0  0  0  0  0
  -30.1600  -22.1410   19.9810 C   0  0  0  0  0  3  0  0  0  0  0  0
  -30.6020  -20.7770   19.2400 N   0  0  0  0  0  0  0  0  0  0  0  0
  -30.9290  -18.7110   18.0700 N   0  0  0  0  0  0  0  0  0  0  0  0
  -30.9110  -17.7010   18.0030 H   0  0  0  0  0  0  0  0  0  0  0  0
  -31.2840  -19.2290   17.2790 H   0  0  0  0  0  0  0  0  0  0  0  0
  -29.9890  -23.6730   19.1810 C   0  0  0  0  0  0  0  0  0  0  0  0
  -30.7220  -23.9150   18.2190 O   0  0  0  0  0  0  0  0  0  0  0  0
  -28.9200  -24.9110   19.5580 C   0  0  0  0  0  2  0  0  0  0  0  0
  -28.7860  -26.2710   18.7690 O   0  0  0  0  0  0  0  0  0  0  0  0
  -24.7650  -31.2720   22.5200 C   0  0  0  0  0  0  0  0  0  0  0  0
  -27.6520  -27.1640   18.9080 C   0  0  0  0  0  0  0  0  0  0  0  0
  -23.6540  -30.0200   20.7100 C   0  0  0  0  0  3  0  0  0  0  0  0
  -25.2010  -28.7380   19.1000 C   0  0  0  0  0  0  0  0  0  0  0  0
  -26.1850  -30.4780   20.5860 C   0  0  0  0  0  2  0  0  0  0  0  0
  -26.3530  -29.1850   19.7610 C   0  0  0  0  0  0  0  0  0  0  0  0
  -27.5780  -28.4200   19.6440 C   0  0  0  0  0  3  0  0  0  0  0  0
  -26.4610  -26.8170   18.2360 C   0  0  0  0  0  3  0  0  0  0  0  0
  -25.2680  -27.5690   18.3270 C   0  0  0  0  0  3  0  0  0  0  0  0
  -23.9160  -29.5390   19.2570 C   0  0  0  0  0  2  0  0  0  0  0  0
  -24.8870  -30.6070   21.3290 N   0  0  0  0  0  0  0  0  0  0  0  0
  -23.6660  -31.4060   23.0790 O   0  0  0  0  0  0  0  0  0  0  0  0
  -23.0520  -28.8540   21.5330 C   0  0  0  0  0  0  0  0  0  0  0  0
  -21.7210  -28.6670   21.4520 N   0  0  0  0  0  0  0  0  0  0  0  0
  -23.7820  -28.1230   22.2070 O   0  0  0  0  0  0  0  0  0  0  0  0
  -21.1840  -29.3140   20.8910 H   0  0  0  0  0  0  0  0  0  0  0  0
  -18.3880  -27.3900   22.0700 C   0  0  0  0  0  0  0  0  0  0  0  0
  -20.9650  -27.5940   22.1030 C   0  0  0  0  0  3  0  0  0  0  0  0
  -20.9730  -26.3080   21.2440 C   0  0  0  0  0  2  0  0  0  0  0  0
  -19.7630  -26.1980   20.3110 C   0  0  0  0  0  2  0  0  0  0  0  0
  -18.4610  -26.2080   21.1180 C   0  0  0  0  0  2  0  0  0  0  0  0
  -19.5620  -28.0510   22.5200 C   0  0  0  0  0  0  0  0  0  0  0  0
  -19.4330  -29.1650   23.3770 C   0  0  0  0  0  3  0  0  0  0  0  0
  -18.1650  -29.6170   23.7860 C   0  0  0  0  0  3  0  0  0  0  0  0
  -17.0070  -28.9500   23.3500 C   0  0  0  0  0  3  0  0  0  0  0  0
  -17.1190  -27.8370   22.4970 C   0  0  0  0  0  3  0  0  0  0  0  0
  -26.0000  -31.9100   23.2300 C   0  0  0  0  0  3  0  0  0  0  0  0
  -25.5670  -33.1810   23.8310 N   0  0  0  0  0  0  0  0  0  0  0  0
  -25.8120  -34.3930   23.3160 C   0  0  0  0  0  0  0  0  0  0  0  0
  -26.4910  -34.5610   22.3000 O   0  0  0  0  0  0  0  0  0  0  0  0
  -24.9610  -33.1160   24.6360 H   0  0  0  0  0  0  0  0  0  0  0  0
  -23.9470  -36.0820   23.3000 C   0  0  0  0  0  1  0  0  0  0  0  0
  -25.2100  -35.6140   24.0410 C   0  0  0  0  0  3  0  0  0  0  0  0
  -27.2550  -36.4700   25.0960 C   0  0  0  0  0  1  0  0  0  0  0  0
  -26.1540  -36.7450   24.1760 N   0  0  0  0  0  0  0  0  0  0  0  0
  -25.6720  -37.5800   24.4980 H   0  0  0  0  0  0  0  0  0  0  0  0
  -26.6350  -30.9720   24.3300 C   0  0  1  0  0  0  0  0  0  0  0  0
  -25.6100  -30.4380   25.3600 C   0  0  0  0  0  1  0  0  0  0  0  0
  -27.3270  -29.7520   23.6820 C   0  0  0  0  0  1  0  0  0  0  0  0
  -27.7340  -31.7390   25.1030 C   0  0  0  0  0  1  0  0  0  0  0  0
  -29.9870  -18.0690   20.1640 C   0  0  0  0  0  3  0  0  0  0  0  0
  -30.8820  -15.3800   19.6690 C   0  0  0  0  0  0  0  0  0  0  0  0
  -30.8210  -12.9820   18.7830 C   0  0  0  0  0  2  0  0  0  0  0  0
  -29.7940  -12.8220   17.6370 C   0  0  0  0  0  2  0  0  0  0  0  0
  -28.3790  -12.5550   18.1910 C   0  0  0  0  0  2  0  0  0  0  0  0
  -28.0150  -13.5110   19.3580 C   0  0  0  0  0  3  0  0  0  0  0  0
  -29.1570  -13.6200   20.3910 C   0  0  0  0  0  2  0  0  0  0  0  0
  -30.3450  -14.0880   19.6620 N   0  0  0  0  0  0  0  0  0  0  0  0
  -32.0840  -15.4860   19.4050 O   0  0  0  0  0  0  0  0  0  0  0  0
  -30.0110  -16.5150   19.7400 N   0  0  0  0  0  0  0  0  0  0  0  0
  -29.0610  -16.1830   19.7180 H   0  0  0  0  0  0  0  0  0  0  0  0
  -25.7230  -14.0380   20.3660 C   0  0  0  0  0  0  0  0  0  0  0  0
  -24.6980  -13.2400   20.7950 C   0  0  0  0  0  0  0  0  0  0  0  0
  -25.1560  -11.8950   20.6440 C   0  0  0  0  0  0  0  0  0  0  0  0
  -26.7360  -13.1780   19.9740 N   0  0  0  0  0  0  0  0  0  0  0  0
  -26.4110  -11.8800   20.2100 N   0  0  0  0  0  0  0  0  0  0  0  0
  -24.4460  -10.6210   20.8300 C   0  0  0  0  0  0  0  0  0  0  0  0
  -24.8690   -9.6740   21.7870 C   0  0  0  0  0  3  0  0  0  0  0  0
  -24.1590   -8.4660   21.9610 C   0  0  0  0  0  3  0  0  0  0  0  0
  -23.0110   -8.1980   21.1780 C   0  0  0  0  0  0  0  0  0  0  0  0
  -22.6070   -9.1350   20.2110 C   0  0  0  0  0  3  0  0  0  0  0  0
  -23.3190  -10.3340   20.0350 C   0  0  0  0  0  3  0  0  0  0  0  0
  -22.2710   -7.0430   21.2620 O   0  0  0  0  0  0  0  0  0  0  0  0
  -22.0440   -6.4200   22.4610 C   0  0  0  0  0  0  0  0  0  0  0  0
  -21.4110   -7.0800   23.5370 C   0  0  0  0  0  3  0  0  0  0  0  0
  -21.1350   -6.3800   24.7280 C   0  0  0  0  0  3  0  0  0  0  0  0
  -21.4830   -5.0200   24.8430 C   0  0  0  0  0  0  0  0  0  0  0  0
  -22.1060   -4.3590   23.7700 C   0  0  0  0  0  3  0  0  0  0  0  0
  -22.3830   -5.0570   22.5810 C   0  0  0  0  0  0  0  0  0  0  0  0
  -22.9660   -4.4090   21.5450 F   0  0  0  0  0  0  0  0  0  0  0  0
  -21.2090   -4.3450   25.9840 F   0  0  0  0  0  0  0  0  0  0  0  0
  -23.3330  -13.6970   21.2200 C   0  0  0  0  0  0  0  0  0  0  0  0
  -22.7030  -12.9770   22.1410 N   0  0  0  0  0  0  0  0  0  0  0  0
  -22.8360  -14.7270   20.7660 O   0  0  0  0  0  0  0  0  0  0  0  0
  -23.1160  -12.1450   22.5320 H   0  0  0  0  0  0  0  0  0  0  0  0
  -21.7930  -13.2690   22.4640 H   0  0  0  0  0  0  0  0  0  0  0  0
  -25.8680  -15.4190   20.2510 N   0  0  0  0  0  0  0  0  0  0  0  0
  -25.1100  -16.0520   20.4830 H   0  0  0  0  0  0  0  0  0  0  0  0
  -26.6430  -15.8850   19.8020 H   0  0  0  0  0  0  0  0  0  0  0  0
  -28.5760  -18.3240   20.7750 C   0  0  0  0  0  2  0  0  0  0  0  0
  -25.8780  -21.1430   18.8540 C   0  0  0  0  0  3  0  0  0  0  0  0
  -25.9080  -19.8010   18.4260 C   0  0  0  0  0  3  0  0  0  0  0  0
  -26.7080  -21.5610   19.9140 C   0  0  0  0  0  3  0  0  0  0  0  0
  -26.7770  -18.8800   19.0430 C   0  0  0  0  0  3  0  0  0  0  0  0
  -27.5850  -20.6440   20.5250 C   0  0  0  0  0  3  0  0  0  0  0  0
  -27.6440  -19.3030   20.0790 C   0  0  0  0  0  0  0  0  0  0  0  0
  1  7  1  0
  1  6  1  0
  1 54  1  0
  2  3  1  0
  4  6  1  0
  4  2  1  0
  5 10  1  0
  5  3  1  0
  6  5  1  0
  8  7  1  0
  9  7  1  0
 10 12  1  0
 11 10  2  0
 13 15  1  0
 13 12  1  0
 14 25  2  0
 15 20  1  0
 16 24  1  0
 16 26  1  0
 17 23  1  0
 17 19  1  0
 18 24  1  0
 19 18  1  0
 20 19  2  0
 21 22  1  0
 21 15  2  0
 22 17  2  0
 23 16  1  0
 24 14  1  0
 26 28  2  0
 27 26  1  0
 29 27  1  0
 30 39  2  0
 30 35  1  0
 31 27  1  0
 31 35  1  0
 32 31  1  0
 33 34  1  0
 33 32  1  0
 34 30  1  0
 35 36  2  0
 36 37  1  0
 38 37  2  0
 39 38  1  0
 40 14  1  0
 40 41  1  0
 40 50  1  0
 41 44  1  0
 42 41  1  0
 42 46  1  0
 43 42  2  0
 46 45  1  0
 46 48  1  0
 48 49  1  0
 48 47  1  0
 50 53  1  1
 50 51  1  0
 52 50  1  0
 54 93  1  0
 55 63  1  0
 56 61  1  0
 57 58  1  0
 57 56  1  0
 59 58  1  0
 59 68  1  0
 59 60  1  0
 61 55  1  0
 61 60  1  0
 62 55  2  0
 63 54  1  0
 64 63  1  0
 65 66  2  0
 66 85  1  0
 67 66  1  0
 67 70  1  0
 68 69  1  0
 68 65  1  0
 69 67  2  0
 70 71  1  0
 71 72  2  0
 73 76  1  0
 73 72  1  0
 74 73  2  0
 75 74  1  0
 75 70  2  0
 76 77  1  0
 77 82  2  0
 77 78  1  0
 78 79  2  0
 79 80  1  0
 80 84  1  0
 81 80  2  0
 82 81  1  0
 83 82  1  0
 85 86  1  0
 86 89  1  0
 86 88  1  0
 87 85  2  0
 90 65  1  0
 90 91  1  0
 92 90  1  0
 94 96  1  0
 95 94  2  0
 95 97  1  0
 96 98  2  0
 97 99  2  0
 99 98  1  0
 99 93  1  0
M  ISO  4  12 101  13 101  55 100  63 100
M  END
>  <TORSDO>  (59) 
F 21

>  <SCORE>  (59) 
-9.434

>  <name>  (59) 
58

>  <ligand_id>  (59) 
58

>  <original_smiles>  (59) 
[H]c1c([H])c([H])c(C([H])([H])C([H])(C(N2C([H])([H])C([H])([H])C([H])([H])C2([H])C(=O)C([H])([H])Oc2c([H])c([H])c3c(c2[H])C([H])([H])N(C(=O)C([H])(N([H])C(=O)C([H])(N([H])C([H])([H])[H])C([H])([H])[H])C(C([H])([H])[H])(C([H])([H])[H])C([H])([H])[H])C([H])(C(=O)N([H])C2([H])c4c([H])c([H])c([H])c([H])c4C([H])([H])C([H])([H])C2([H])[H])C3([H])[H])=[N+]([H])[H])N([H])C(=O)N2C([H])([H])C([H])([H])C([H])([H])C([H])(n3nc(-c4c([H])c([H])c(Oc5c([H])c([H])c(F)c([H])c5F)c([H])c4[H])c(C(=O)N([H])[H])c3N([H])[H])C2([H])[H])c([H])c1[H]

>  <smiles>  (59) 
[H]c1c([H])c([H])c(C([H])([H])C([H])(C(N2C([H])([H])C([H])([H])C([H])([H])C2([H])C(=O)C([H])([H])Oc2c([H])c([H])c3c(c2[H])C([H])([H])N(C(=O)C([H])(N([H])C(=O)C([H])(N([H])C([H])([H])[H])C([H])([H])[H])C(C([H])([H])[H])(C([H])([H])[H])C([H])([H])[H])C([H])(C(=O)N([H])C2([H])c4c([H])c([H])c([H])c([H])c4C([H])([H])C([H])([H])C2([H])[H])C3([H])[H])=[N+]([H])[H])N([H])C(=O)N2C([H])([H])C([H])([H])C([H])([H])C([H])(n3nc(-c4c([H])c([H])c(Oc5c([H])c([H])c(F)c([H])c5F)c([H])c4[H])c(C(=O)N([H])[H])c3N([H])[H])C2([H])[H])c([H])c1[H]

$$$$
59:0:0
     RDKit          3D

 89 96  0  0  1  0  0  0  0  0999 V2000
  -28.7680  -20.5050   19.8640 C   0  0  0  0  0  2  0  0  0  0  0  0
  -28.5520  -22.3800   21.8360 C   0  0  0  0  0  1  0  0  0  0  0  0
  -28.7640  -22.3840   20.3220 C   0  0  0  0  0  3  0  0  0  0  0  0
  -27.9030  -24.0430   19.8550 C   0  0  0  0  0  2  0  0  0  0  0  0
  -28.0300  -25.7630   20.1370 O   0  0  0  0  0  0  0  0  0  0  0  0
  -24.5920  -31.9670   23.2070 C   0  0  0  0  0  0  0  0  0  0  0  0
  -27.0460  -26.9520   20.0930 C   0  0  0  0  0  0  0  0  0  0  0  0
  -23.3590  -30.5790   21.5940 C   0  0  0  0  0  3  0  0  0  0  0  0
  -24.7660  -28.9540   20.1240 C   0  0  0  0  0  0  0  0  0  0  0  0
  -25.9320  -30.7400   21.3960 C   0  0  0  0  0  2  0  0  0  0  0  0
  -25.9790  -29.3170   20.7230 C   0  0  0  0  0  0  0  0  0  0  0  0
  -27.1010  -28.3430   20.6770 C   0  0  0  0  0  3  0  0  0  0  0  0
  -25.7980  -26.7900   19.4420 C   0  0  0  0  0  3  0  0  0  0  0  0
  -24.7130  -27.7150   19.4610 C   0  0  0  0  0  3  0  0  0  0  0  0
  -23.5560  -29.8940   20.2120 C   0  0  0  0  0  2  0  0  0  0  0  0
  -24.6540  -31.1280   22.1170 N   0  0  0  0  0  0  0  0  0  0  0  0
  -23.5130  -32.2570   23.7530 O   0  0  0  0  0  0  0  0  0  0  0  0
  -22.6770  -29.5890   22.5770 C   0  0  0  0  0  0  0  0  0  0  0  0
  -21.3490  -29.4010   22.4620 N   0  0  0  0  0  0  0  0  0  0  0  0
  -23.3550  -28.9880   23.4130 O   0  0  0  0  0  0  0  0  0  0  0  0
  -20.8530  -29.9330   21.7590 H   0  0  0  0  0  0  0  0  0  0  0  0
  -18.0030  -28.0800   22.9700 C   0  0  0  0  0  0  0  0  0  0  0  0
  -20.5500  -28.4530   23.2480 C   0  0  0  0  0  3  0  0  0  0  0  0
  -20.7100  -27.0120   22.7070 C   0  0  0  0  0  2  0  0  0  0  0  0
  -19.6310  -26.6250   21.6920 C   0  0  0  0  0  2  0  0  0  0  0  0
  -18.2370  -26.7280   22.3200 C   0  0  0  0  0  2  0  0  0  0  0  0
  -19.0870  -28.8970   23.3910 C   0  0  0  0  0  0  0  0  0  0  0  0
  -18.8100  -30.1570   23.9630 C   0  0  0  0  0  3  0  0  0  0  0  0
  -17.4830  -30.6030   24.1160 C   0  0  0  0  0  3  0  0  0  0  0  0
  -16.4140  -29.7860   23.7110 C   0  0  0  0  0  3  0  0  0  0  0  0
  -16.6750  -28.5260   23.1440 C   0  0  0  0  0  3  0  0  0  0  0  0
  -25.8720  -32.6160   23.8150 C   0  0  0  0  0  3  0  0  0  0  0  0
  -25.5620  -34.0180   24.1540 N   0  0  0  0  0  0  0  0  0  0  0  0
  -25.8950  -35.0840   23.4110 C   0  0  0  0  0  0  0  0  0  0  0  0
  -26.5540  -34.9870   22.3730 O   0  0  0  0  0  0  0  0  0  0  0  0
  -24.9760  -34.1680   24.9620 H   0  0  0  0  0  0  0  0  0  0  0  0
  -24.1770  -36.9020   23.1050 C   0  0  0  0  0  1  0  0  0  0  0  0
  -25.4250  -36.4740   23.8930 C   0  0  0  0  0  3  0  0  0  0  0  0
  -27.5750  -37.3370   24.7120 C   0  0  0  0  0  1  0  0  0  0  0  0
  -26.4650  -37.5220   23.7810 N   0  0  0  0  0  0  0  0  0  0  0  0
  -26.0660  -38.4430   23.9410 H   0  0  0  0  0  0  0  0  0  0  0  0
  -26.3950  -31.8620   25.1010 C   0  0  1  0  0  0  0  0  0  0  0  0
  -25.3090  -31.6420   26.1800 C   0  0  0  0  0  1  0  0  0  0  0  0
  -26.9690  -30.4760   24.7320 C   0  0  0  0  0  1  0  0  0  0  0  0
  -27.5560  -32.6590   25.7420 C   0  0  0  0  0  1  0  0  0  0  0  0
  -29.6570  -18.8630   20.3580 C   0  0  0  0  0  0  0  0  0  0  0  0
  -30.2820  -15.7870   20.0130 C   0  0  0  0  0  0  0  0  0  0  0  0
  -30.3590  -13.2600   19.2040 C   0  0  0  0  0  2  0  0  0  0  0  0
  -29.4300  -12.8710   18.0230 C   0  0  0  0  0  2  0  0  0  0  0  0
  -28.0190  -12.5250   18.5250 C   0  0  0  0  0  2  0  0  0  0  0  0
  -27.5410  -13.5200   19.6080 C   0  0  0  0  0  3  0  0  0  0  0  0
  -28.6080  -13.8320   20.6810 C   0  0  0  0  0  2  0  0  0  0  0  0
  -29.7560  -14.4340   19.9680 N   0  0  0  0  0  0  0  0  0  0  0  0
  -31.5130  -15.7350   19.8330 O   0  0  0  0  0  0  0  0  0  0  0  0
  -29.5120  -17.1280   20.0670 N   0  0  0  0  0  4  0  0  0  0  0  0
  -28.5300  -16.8980   20.0110 H   0  0  0  0  0  0  0  0  0  0  0  0
  -25.2090  -14.0260   20.4800 C   0  0  0  0  0  0  0  0  0  0  0  0
  -24.1680  -13.2310   20.8720 C   0  0  0  0  0  0  0  0  0  0  0  0
  -24.6480  -11.8890   20.7990 C   0  0  0  0  0  0  0  0  0  0  0  0
  -26.2470  -13.1680   20.1770 N   0  0  0  0  0  0  0  0  0  0  0  0
  -25.9280  -11.8720   20.4370 N   0  0  0  0  0  0  0  0  0  0  0  0
  -23.9380  -10.6160   20.9920 C   0  0  0  0  0  0  0  0  0  0  0  0
  -24.3950   -9.6440   21.9090 C   0  0  0  0  0  3  0  0  0  0  0  0
  -23.6780   -8.4420   22.0950 C   0  0  0  0  0  3  0  0  0  0  0  0
  -22.4910   -8.2020   21.3630 C   0  0  0  0  0  0  0  0  0  0  0  0
  -22.0530   -9.1620   20.4340 C   0  0  0  0  0  3  0  0  0  0  0  0
  -22.7700  -10.3550   20.2460 C   0  0  0  0  0  3  0  0  0  0  0  0
  -21.7470   -7.0520   21.4560 O   0  0  0  0  0  0  0  0  0  0  0  0
  -21.7060   -6.3120   22.6120 C   0  0  0  0  0  0  0  0  0  0  0  0
  -21.2590   -6.8630   23.8320 C   0  0  0  0  0  3  0  0  0  0  0  0
  -21.1680   -6.0500   24.9790 C   0  0  0  0  0  3  0  0  0  0  0  0
  -21.5140   -4.6870   24.9070 C   0  0  0  0  0  0  0  0  0  0  0  0
  -21.9560   -4.1360   23.6910 C   0  0  0  0  0  3  0  0  0  0  0  0
  -22.0480   -4.9470   22.5450 C   0  0  0  0  0  0  0  0  0  0  0  0
  -22.4520   -4.4070   21.3710 F   0  0  0  0  0  0  0  0  0  0  0  0
  -21.4220   -3.9030   26.0060 F   0  0  0  0  0  0  0  0  0  0  0  0
  -22.7780  -13.6910   21.1930 C   0  0  0  0  0  0  0  0  0  0  0  0
  -22.0880  -12.9820   22.0780 N   0  0  0  0  0  0  0  0  0  0  0  0
  -22.3150  -14.7160   20.6930 O   0  0  0  0  0  0  0  0  0  0  0  0
  -22.4780  -12.1530   22.5000 H   0  0  0  0  0  0  0  0  0  0  0  0
  -21.1540  -13.2700   22.3350 H   0  0  0  0  0  0  0  0  0  0  0  0
  -25.3500  -15.4020   20.3230 N   0  0  0  0  0  0  0  0  0  0  0  0
  -24.5880  -16.0460   20.5030 H   0  0  0  0  0  0  0  0  0  0  0  0
  -26.1700  -15.8540   19.9430 H   0  0  0  0  0  0  0  0  0  0  0  0
  -31.1810  -19.1440   20.4670 C   0  0  0  0  0  2  0  0  0  0  0  0
  -33.3120  -19.5000   21.7840 C   0  0  0  0  0  1  0  0  0  0  0  0
  -31.3010  -20.8260   22.3840 C   0  0  0  0  0  1  0  0  0  0  0  0
  -31.4270  -18.4020   22.9640 C   0  0  0  0  0  1  0  0  0  0  0  0
  -31.7760  -19.4520   21.8870 C   0  0  1  0  0  0  0  0  0  0  0  0
  1  3  1  0
  1 46  1  0
  3  2  1  0
  4  5  1  0
  4  3  1  0
  6 17  2  0
  7  5  1  0
  7 12  1  0
  8 16  1  0
  8 18  1  0
  9 15  1  0
  9 11  1  0
 10 16  1  0
 11 10  1  0
 12 11  2  0
 13 14  1  0
 13  7  2  0
 14  9  2  0
 15  8  1  0
 16  6  1  0
 18 20  2  0
 19 18  1  0
 21 19  1  0
 22 31  2  0
 22 27  1  0
 23 19  1  0
 23 27  1  0
 24 23  1  0
 25 26  1  0
 25 24  1  0
 26 22  1  0
 27 28  2  0
 28 29  1  0
 30 29  2  0
 31 30  1  0
 32  6  1  0
 32 33  1  0
 32 42  1  0
 33 36  1  0
 34 38  1  0
 34 33  1  0
 35 34  2  0
 38 37  1  0
 40 38  1  0
 40 41  1  0
 40 39  1  0
 42 45  1  1
 42 43  1  0
 44 42  1  0
 46 85  1  0
 47 55  1  0
 48 53  1  0
 49 50  1  0
 49 48  1  0
 51 50  1  0
 51 60  1  0
 51 52  1  0
 53 47  1  0
 53 52  1  0
 54 47  2  0
 55 46  2  0
 56 55  1  0
 57 58  2  0
 58 77  1  0
 59 58  1  0
 59 62  1  0
 60 61  1  0
 60 57  1  0
 61 59  2  0
 62 63  1  0
 63 64  2  0
 65 68  1  0
 65 64  1  0
 66 65  2  0
 67 66  1  0
 67 62  2  0
 68 69  1  0
 69 70  1  0
 70 71  2  0
 72 71  1  0
 72 76  1  0
 73 72  2  0
 74 69  2  0
 74 73  1  0
 75 74  1  0
 77 78  1  0
 78 81  1  0
 78 80  1  0
 79 77  2  0
 82 57  1  0
 82 83  1  0
 84 82  1  0
 85 89  1  0
 89 86  1  6
 89 87  1  0
 89 88  1  0
M  ISO  4   4 101   5 101  47 100  55 100
M  END
>  <TORSDO>  (60) 
F 21

>  <SCORE>  (60) 
-15.760

>  <name>  (60) 
59

>  <ligand_id>  (60) 
59

>  <original_smiles>  (60) 
[H]c1c([H])c([H])c2c(c1[H])C([H])([H])C([H])([H])C([H])([H])C2([H])N([H])C(=O)C1([H])N(C(=O)C([H])(N([H])C(=O)C([H])(N([H])C([H])([H])[H])C([H])([H])[H])C(C([H])([H])[H])(C([H])([H])[H])C([H])([H])[H])C([H])([H])c2c([H])c(OC([H])([H])C([H])(C([H])([H])[H])C([H])([H])C([H])(N([H])C(=O)N3C([H])([H])C([H])([H])C([H])([H])C([H])(n4nc(-c5c([H])c([H])c(Oc6c([H])c([H])c(F)c([H])c6F)c([H])c5[H])c(C(=O)N([H])[H])c4N([H])[H])C3([H])[H])C([H])([H])C(C([H])([H])[H])(C([H])([H])[H])C([H])([H])[H])c([H])c([H])c2C1([H])[H]

>  <smiles>  (60) 
[H]c1c([H])c([H])c2c(c1[H])C([H])([H])C([H])([H])C([H])([H])C2([H])N([H])C(=O)C1([H])N(C(=O)C([H])(N([H])C(=O)C([H])(N([H])C([H])([H])[H])C([H])([H])[H])C(C([H])([H])[H])(C([H])([H])[H])C([H])([H])[H])C([H])([H])c2c([H])c(OC([H])([H])C([H])(C([H])([H])[H])C([H])([H])C([H])(N([H])C(=O)N3C([H])([H])C([H])([H])C([H])([H])C([H])(n4nc(-c5c([H])c([H])c(Oc6c([H])c([H])c(F)c([H])c6F)c([H])c5[H])c(C(=O)N([H])[H])c4N([H])[H])C3([H])[H])C([H])([H])C(C([H])([H])[H])(C([H])([H])[H])C([H])([H])[H])c([H])c([H])c2C1([H])[H]

$$$$
60:0:0
     RDKit          3D

 93102  0  0  1  0  0  0  0  0999 V2000
  -27.1100  -20.1410   19.7350 C   0  0  0  0  0  2  0  0  0  0  0  0
  -26.7570  -21.6480   19.6580 C   0  0  0  0  0  2  0  0  0  0  0  0
  -29.6070  -19.8830   19.0410 C   0  0  0  0  0  3  0  0  0  0  0  0
  -28.8820  -22.9180   18.8210 C   0  0  0  0  0  3  0  0  0  0  0  0
  -28.5780  -20.0710   20.1990 C   0  0  0  0  0  3  0  0  0  0  0  0
  -28.0390  -22.4160   20.0470 C   0  0  0  0  0  3  0  0  0  0  0  0
  -29.4190  -21.3850   18.1220 C   0  0  1  0  0  0  0  0  0  0  0  0
  -30.8300  -21.6820   17.5720 C   0  0  0  0  0  1  0  0  0  0  0  0
  -28.5560  -21.0910   16.8730 C   0  0  0  0  0  1  0  0  0  0  0  0
  -28.4980  -21.4270   22.2890 C   0  0  0  0  0  1  0  0  0  0  0  0
  -28.8070  -21.4050   20.8380 N   0  0  1  0  0  4  0  0  0  0  0  0
  -29.7890  -21.6240   20.7750 H   0  0  0  0  0  0  0  0  0  0  0  0
  -29.9220  -18.2050   18.4740 C   0  0  0  0  0  2  0  0  0  0  0  0
  -30.6650  -15.4470   19.1150 C   0  0  0  0  0  0  0  0  0  0  0  0
  -30.6530  -12.9090   18.6190 C   0  0  0  0  0  2  0  0  0  0  0  0
  -29.6330  -12.5190   17.5190 C   0  0  0  0  0  2  0  0  0  0  0  0
  -28.2380  -12.2910   18.1230 C   0  0  0  0  0  2  0  0  0  0  0  0
  -27.8600  -13.3960   19.1440 C   0  0  0  0  0  3  0  0  0  0  0  0
  -28.9980  -13.7140   20.1380 C   0  0  0  0  0  2  0  0  0  0  0  0
  -30.1550  -14.1390   19.3360 N   0  0  0  0  0  0  0  0  0  0  0  0
  -31.8340  -15.4520   18.7040 O   0  0  0  0  0  0  0  0  0  0  0  0
  -29.8660  -16.6880   19.1560 N   0  0  0  0  0  0  0  0  0  0  0  0
  -28.9610  -16.4970   19.5630 H   0  0  0  0  0  0  0  0  0  0  0  0
  -25.6590  -14.0390   20.2600 C   0  0  0  0  0  0  0  0  0  0  0  0
  -24.6090  -13.3000   20.7300 C   0  0  0  0  0  0  0  0  0  0  0  0
  -24.9770  -11.9310   20.5500 C   0  0  0  0  0  0  0  0  0  0  0  0
  -26.5960  -13.1240   19.8150 N   0  0  0  0  0  0  0  0  0  0  0  0
  -26.2070  -11.8440   20.0540 N   0  0  0  0  0  0  0  0  0  0  0  0
  -24.2010  -10.7020   20.7630 C   0  0  0  0  0  0  0  0  0  0  0  0
  -24.6520   -9.6840   21.6310 C   0  0  0  0  0  3  0  0  0  0  0  0
  -23.8760   -8.5220   21.8360 C   0  0  0  0  0  3  0  0  0  0  0  0
  -22.6340   -8.3720   21.1760 C   0  0  0  0  0  0  0  0  0  0  0  0
  -22.2000   -9.3790   20.2960 C   0  0  0  0  0  3  0  0  0  0  0  0
  -22.9750  -10.5310   20.0880 C   0  0  0  0  0  3  0  0  0  0  0  0
  -21.8260   -7.2670   21.2940 O   0  0  0  0  0  0  0  0  0  0  0  0
  -21.7800   -6.5300   22.4510 C   0  0  0  0  0  0  0  0  0  0  0  0
  -21.4160   -7.1050   23.6880 C   0  0  0  0  0  3  0  0  0  0  0  0
  -21.3110   -6.2970   24.8380 C   0  0  0  0  0  3  0  0  0  0  0  0
  -21.5640   -4.9160   24.7520 C   0  0  0  0  0  0  0  0  0  0  0  0
  -21.9240   -4.3400   23.5210 C   0  0  0  0  0  3  0  0  0  0  0  0
  -22.0290   -5.1450   22.3730 C   0  0  0  0  0  0  0  0  0  0  0  0
  -22.3540   -4.5810   21.1860 F   0  0  0  0  0  0  0  0  0  0  0  0
  -21.4570   -4.1370   25.8540 F   0  0  0  0  0  0  0  0  0  0  0  0
  -23.2970  -13.8370   21.2220 C   0  0  0  0  0  0  0  0  0  0  0  0
  -22.6540  -13.1320   22.1430 N   0  0  0  0  0  0  0  0  0  0  0  0
  -22.8620  -14.9180   20.8250 O   0  0  0  0  0  0  0  0  0  0  0  0
  -23.0240  -12.2570   22.4860 H   0  0  0  0  0  0  0  0  0  0  0  0
  -21.7790  -13.4730   22.5130 H   0  0  0  0  0  0  0  0  0  0  0  0
  -25.8830  -15.4080   20.1440 N   0  0  0  0  0  0  0  0  0  0  0  0
  -25.1690  -16.0850   20.3860 H   0  0  0  0  0  0  0  0  0  0  0  0
  -26.6660  -15.8170   19.6510 H   0  0  0  0  0  0  0  0  0  0  0  0
  -28.2040  -24.4090   18.0770 C   0  0  0  0  0  2  0  0  0  0  0  0
  -28.2230  -26.0280   18.3590 O   0  0  0  0  0  0  0  0  0  0  0  0
  -24.6510  -31.1600   22.5070 C   0  0  0  0  0  0  0  0  0  0  0  0
  -27.1270  -27.0200   18.5110 C   0  0  0  0  0  0  0  0  0  0  0  0
  -23.3550  -29.9200   20.8190 C   0  0  0  0  0  3  0  0  0  0  0  0
  -24.7170  -28.6700   19.0090 C   0  0  0  0  0  0  0  0  0  0  0  0
  -25.8600  -30.3710   20.4180 C   0  0  0  0  0  2  0  0  0  0  0  0
  -25.9400  -29.0830   19.5500 C   0  0  0  0  0  0  0  0  0  0  0  0
  -27.1320  -28.2780   19.2860 C   0  0  0  0  0  3  0  0  0  0  0  0
  -25.8630  -26.7600   17.9370 C   0  0  0  0  0  3  0  0  0  0  0  0
  -24.6980  -27.5340   18.1830 C   0  0  0  0  0  3  0  0  0  0  0  0
  -23.4540  -29.4650   19.3370 C   0  0  0  0  0  2  0  0  0  0  0  0
  -24.6480  -30.5030   21.3020 N   0  0  0  0  0  0  0  0  0  0  0  0
  -23.6180  -31.2800   23.1870 O   0  0  0  0  0  0  0  0  0  0  0  0
  -22.8570  -28.7390   21.6930 C   0  0  0  0  0  0  0  0  0  0  0  0
  -21.5450  -28.4460   21.6480 N   0  0  0  0  0  0  0  0  0  0  0  0
  -23.6540  -28.0940   22.3790 O   0  0  0  0  0  0  0  0  0  0  0  0
  -20.9480  -29.0240   21.0730 H   0  0  0  0  0  0  0  0  0  0  0  0
  -18.3800  -26.7440   22.1500 C   0  0  0  0  0  0  0  0  0  0  0  0
  -20.8910  -27.3350   22.3490 C   0  0  0  0  0  3  0  0  0  0  0  0
  -21.1550  -25.9920   21.6300 C   0  0  0  0  0  2  0  0  0  0  0  0
  -20.0590  -25.6200   20.6260 C   0  0  0  0  0  2  0  0  0  0  0  0
  -18.7030  -25.5070   21.3310 C   0  0  0  0  0  2  0  0  0  0  0  0
  -19.4060  -27.6120   22.6150 C   0  0  0  0  0  0  0  0  0  0  0  0
  -19.0470  -28.7640   23.3480 C   0  0  0  0  0  3  0  0  0  0  0  0
  -17.6960  -29.0530   23.6180 C   0  0  0  0  0  3  0  0  0  0  0  0
  -16.6870  -28.1860   23.1650 C   0  0  0  0  0  3  0  0  0  0  0  0
  -17.0290  -27.0330   22.4380 C   0  0  0  0  0  3  0  0  0  0  0  0
  -25.9460  -31.8090   23.0800 C   0  0  0  0  0  3  0  0  0  0  0  0
  -25.5630  -33.0520   23.7730 N   0  0  0  0  0  0  0  0  0  0  0  0
  -25.7340  -34.2870   23.2840 C   0  0  0  0  0  0  0  0  0  0  0  0
  -26.2940  -34.5040   22.2070 O   0  0  0  0  0  0  0  0  0  0  0  0
  -25.0460  -32.9450   24.6340 H   0  0  0  0  0  0  0  0  0  0  0  0
  -23.8580  -35.9490   23.5400 C   0  0  0  0  0  1  0  0  0  0  0  0
  -25.2010  -35.4710   24.1190 C   0  0  0  0  0  3  0  0  0  0  0  0
  -27.3400  -36.3200   24.9770 C   0  0  0  0  0  1  0  0  0  0  0  0
  -26.1410  -36.6110   24.1950 N   0  0  0  0  0  0  0  0  0  0  0  0
  -25.6880  -37.4250   24.6010 H   0  0  0  0  0  0  0  0  0  0  0  0
  -26.7280  -30.8570   24.0690 C   0  0  1  0  0  0  0  0  0  0  0  0
  -25.8480  -30.2780   25.2030 C   0  0  0  0  0  1  0  0  0  0  0  0
  -27.3560  -29.6670   23.3100 C   0  0  0  0  0  1  0  0  0  0  0  0
  -27.9010  -31.6280   24.7210 C   0  0  0  0  0  1  0  0  0  0  0  0
  2  1  1  0
  3 13  1  0
  3  5  1  0
  4 52  1  0
  4  6  1  0
  5  1  1  0
  5 11  1  0
  6  2  1  0
  6 11  1  0
  7  4  1  0
  7  3  1  0
  7  8  1  6
  9  7  1  0
 11 10  1  0
 11 12  1  1
 13 22  1  0
 14 22  1  0
 14 20  1  0
 15 20  1  0
 16 17  1  0
 16 15  1  0
 18 17  1  0
 18 27  1  0
 18 19  1  0
 20 19  1  0
 21 14  2  0
 22 23  1  0
 24 25  2  0
 25 44  1  0
 26 25  1  0
 26 29  1  0
 27 28  1  0
 27 24  1  0
 28 26  2  0
 29 30  1  0
 30 31  2  0
 32 35  1  0
 32 31  1  0
 33 32  2  0
 34 33  1  0
 34 29  2  0
 35 36  1  0
 36 37  1  0
 37 38  2  0
 39 38  1  0
 39 43  1  0
 40 39  2  0
 41 36  2  0
 41 40  1  0
 42 41  1  0
 44 45  1  0
 45 47  1  0
 45 48  1  0
 46 44  2  0
 49 24  1  0
 49 50  1  0
 51 49  1  0
 52 53  1  0
 53 55  1  0
 54 65  2  0
 55 60  1  0
 56 64  1  0
 56 66  1  0
 57 63  1  0
 57 59  1  0
 58 64  1  0
 59 58  1  0
 60 59  2  0
 61 62  1  0
 61 55  2  0
 62 57  2  0
 63 56  1  0
 64 54  1  0
 66 68  2  0
 67 66  1  0
 69 67  1  0
 70 79  2  0
 70 75  1  0
 71 67  1  0
 71 75  1  0
 72 71  1  0
 73 74  1  0
 73 72  1  0
 74 70  1  0
 75 76  2  0
 76 77  1  0
 78 77  2  0
 79 78  1  0
 80 54  1  0
 80 81  1  0
 80 90  1  0
 81 84  1  0
 82 81  1  0
 82 86  1  0
 83 82  2  0
 86 85  1  0
 86 88  1  0
 88 89  1  0
 88 87  1  0
 90 93  1  1
 90 91  1  0
 92 90  1  0
M  ISO  4  14 100  22 100  52 101  53 101
M  END
>  <TORSDO>  (61) 
F 18

>  <SCORE>  (61) 
-11.292

>  <name>  (61) 
60

>  <ligand_id>  (61) 
60

>  <original_smiles>  (61) 
[H]c1c([H])c([H])c2c(c1[H])C([H])([H])C([H])([H])C([H])([H])C2([H])N([H])C(=O)C1([H])N(C(=O)C([H])(N([H])C(=O)C([H])(N([H])C([H])([H])[H])C([H])([H])[H])C(C([H])([H])[H])(C([H])([H])[H])C([H])([H])[H])C([H])([H])c2c([H])c(OC([H])([H])C3([H])C(C([H])([H])[H])(C([H])([H])[H])C([H])(C([H])([H])N([H])C(=O)N4C([H])([H])C([H])([H])C([H])([H])C([H])(n5nc(-c6c([H])c([H])c(Oc7c([H])c([H])c(F)c([H])c7F)c([H])c6[H])c(C(=O)N([H])[H])c5N([H])[H])C4([H])[H])C4([H])C([H])([H])C([H])([H])C3([H])[N+]4([H])C([H])([H])[H])c([H])c([H])c2C1([H])[H]

>  <smiles>  (61) 
[H]c1c([H])c([H])c2c(c1[H])C([H])([H])C([H])([H])C([H])([H])C2([H])N([H])C(=O)C1([H])N(C(=O)C([H])(N([H])C(=O)C([H])(N([H])C([H])([H])[H])C([H])([H])[H])C(C([H])([H])[H])(C([H])([H])[H])C([H])([H])[H])C([H])([H])c2c([H])c(OC([H])([H])C3([H])C(C([H])([H])[H])(C([H])([H])[H])C([H])(C([H])([H])N([H])C(=O)N4C([H])([H])C([H])([H])C([H])([H])C([H])(n5nc(-c6c([H])c([H])c(Oc7c([H])c([H])c(F)c([H])c7F)c([H])c6[H])c(C(=O)N([H])[H])c5N([H])[H])C4([H])[H])C4([H])C([H])([H])C([H])([H])C3([H])[N+]4([H])C([H])([H])[H])c([H])c([H])c2C1([H])[H]

$$$$
61:0:0
     RDKit          3D

 93100  0  0  1  0  0  0  0  0999 V2000
  -29.4440  -19.8880   19.7240 C   0  0  0  0  0  3  0  0  0  0  0  0
  -29.0570  -21.3500   20.4480 N   0  0  0  0  0  4  0  0  0  0  0  0
  -28.1440  -21.1970   20.8440 H   0  0  0  0  0  0  0  0  0  0  0  0
  -29.6730  -21.4120   21.2440 H   0  0  0  0  0  0  0  0  0  0  0  0
  -29.0130  -22.9130   19.8410 C   0  0  0  0  0  3  0  0  0  0  0  0
  -28.2140  -24.4130   20.4560 C   0  0  0  0  0  3  0  0  0  0  0  0
  -28.3640  -26.0450   20.2210 O   0  0  0  0  0  0  0  0  0  0  0  0
  -24.6800  -31.9730   23.1710 C   0  0  0  0  0  0  0  0  0  0  0  0
  -27.3090  -27.0990   20.2210 C   0  0  0  0  0  0  0  0  0  0  0  0
  -23.5000  -30.5260   21.5670 C   0  0  0  0  0  3  0  0  0  0  0  0
  -24.9680  -28.9240   20.1630 C   0  0  0  0  0  0  0  0  0  0  0  0
  -26.0600  -30.7900   21.3910 C   0  0  0  0  0  2  0  0  0  0  0  0
  -26.1540  -29.3700   20.7610 C   0  0  0  0  0  0  0  0  0  0  0  0
  -27.3210  -28.4800   20.7570 C   0  0  0  0  0  3  0  0  0  0  0  0
  -26.0860  -26.8000   19.5800 C   0  0  0  0  0  3  0  0  0  0  0  0
  -24.9580  -27.6610   19.5520 C   0  0  0  0  0  3  0  0  0  0  0  0
  -23.7320  -29.8220   20.2010 C   0  0  0  0  0  2  0  0  0  0  0  0
  -24.7680  -31.1250   22.0950 N   0  0  0  0  0  0  0  0  0  0  0  0
  -23.5900  -32.2500   23.6970 O   0  0  0  0  0  0  0  0  0  0  0  0
  -22.8350  -29.5330   22.5560 C   0  0  0  0  0  0  0  0  0  0  0  0
  -21.5130  -29.3210   22.4310 N   0  0  0  0  0  0  0  0  0  0  0  0
  -23.5190  -28.9520   23.4030 O   0  0  0  0  0  0  0  0  0  0  0  0
  -21.0120  -29.8420   21.7250 H   0  0  0  0  0  0  0  0  0  0  0  0
  -18.1720  -28.0050   22.9530 C   0  0  0  0  0  0  0  0  0  0  0  0
  -20.7180  -28.3760   23.2240 C   0  0  0  0  0  3  0  0  0  0  0  0
  -20.8770  -26.9330   22.6920 C   0  0  0  0  0  2  0  0  0  0  0  0
  -19.7950  -26.5390   21.6800 C   0  0  0  0  0  2  0  0  0  0  0  0
  -18.4050  -26.6470   22.3120 C   0  0  0  0  0  2  0  0  0  0  0  0
  -19.2570  -28.8230   23.3670 C   0  0  0  0  0  0  0  0  0  0  0  0
  -18.9830  -30.0890   23.9290 C   0  0  0  0  0  3  0  0  0  0  0  0
  -17.6570  -30.5390   24.0790 C   0  0  0  0  0  3  0  0  0  0  0  0
  -16.5870  -29.7190   23.6790 C   0  0  0  0  0  3  0  0  0  0  0  0
  -16.8450  -28.4550   23.1220 C   0  0  0  0  0  3  0  0  0  0  0  0
  -25.9440  -32.6510   23.7810 C   0  0  0  0  0  3  0  0  0  0  0  0
  -25.5850  -34.0330   24.1460 N   0  0  0  0  0  0  0  0  0  0  0  0
  -25.8580  -35.1180   23.4060 C   0  0  0  0  0  0  0  0  0  0  0  0
  -26.5000  -35.0620   22.3550 O   0  0  0  0  0  0  0  0  0  0  0  0
  -25.0100  -34.1480   24.9670 H   0  0  0  0  0  0  0  0  0  0  0  0
  -24.0580  -36.8600   23.1530 C   0  0  0  0  0  1  0  0  0  0  0  0
  -25.3390  -36.4790   23.9120 C   0  0  0  0  0  3  0  0  0  0  0  0
  -27.4620  -37.4320   24.7000 C   0  0  0  0  0  1  0  0  0  0  0  0
  -26.3290  -37.5720   23.7900 N   0  0  0  0  0  0  0  0  0  0  0  0
  -25.8930  -38.4740   23.9630 H   0  0  0  0  0  0  0  0  0  0  0  0
  -26.5070  -31.8880   25.0430 C   0  0  1  0  0  0  0  0  0  0  0  0
  -25.4330  -31.5660   26.1080 C   0  0  0  0  0  1  0  0  0  0  0  0
  -27.1710  -30.5550   24.6320 C   0  0  0  0  0  1  0  0  0  0  0  0
  -27.6100  -32.7370   25.7190 C   0  0  0  0  0  1  0  0  0  0  0  0
  -29.0210  -18.3580   21.7930 C   0  0  0  0  0  1  0  0  0  0  0  0
  -29.9330  -18.3470   20.5500 C   0  0  1  0  0  0  0  0  0  0  0  0
  -30.6320  -15.4770   19.9290 C   0  0  0  0  0  0  0  0  0  0  0  0
  -30.5730  -13.0660   18.9580 C   0  0  0  0  0  2  0  0  0  0  0  0
  -29.5790  -12.8750   17.7850 C   0  0  0  0  0  2  0  0  0  0  0  0
  -28.1630  -12.5770   18.3090 C   0  0  0  0  0  2  0  0  0  0  0  0
  -27.7710  -13.5100   19.4820 C   0  0  0  0  0  3  0  0  0  0  0  0
  -28.8840  -13.6410   20.5410 C   0  0  0  0  0  2  0  0  0  0  0  0
  -30.0640  -14.1770   19.8400 N   0  0  0  0  0  0  0  0  0  0  0  0
  -31.8480  -15.4830   19.6930 O   0  0  0  0  0  0  0  0  0  0  0  0
  -29.8460  -16.7300   20.0840 N   0  0  0  0  0  0  0  0  0  0  0  0
  -28.8740  -16.4690   20.0350 H   0  0  0  0  0  0  0  0  0  0  0  0
  -25.4460  -14.0240   20.3930 C   0  0  0  0  0  0  0  0  0  0  0  0
  -24.4130  -13.2270   20.8000 C   0  0  0  0  0  0  0  0  0  0  0  0
  -24.8890  -11.8830   20.7050 C   0  0  0  0  0  0  0  0  0  0  0  0
  -26.4790  -13.1670   20.0630 N   0  0  0  0  0  0  0  0  0  0  0  0
  -26.1620  -11.8710   20.3180 N   0  0  0  0  0  0  0  0  0  0  0  0
  -24.1850  -10.6080   20.8970 C   0  0  0  0  0  0  0  0  0  0  0  0
  -24.5950   -9.6760   21.8750 C   0  0  0  0  0  3  0  0  0  0  0  0
  -23.8860   -8.4690   22.0560 C   0  0  0  0  0  3  0  0  0  0  0  0
  -22.7520   -8.1850   21.2570 C   0  0  0  0  0  0  0  0  0  0  0  0
  -22.3620   -9.1060   20.2690 C   0  0  0  0  0  3  0  0  0  0  0  0
  -23.0720  -10.3040   20.0870 C   0  0  0  0  0  3  0  0  0  0  0  0
  -22.0170   -7.0260   21.3440 O   0  0  0  0  0  0  0  0  0  0  0  0
  -21.8350   -6.3780   22.5400 C   0  0  0  0  0  0  0  0  0  0  0  0
  -21.1950   -7.0000   23.6350 C   0  0  0  0  0  3  0  0  0  0  0  0
  -20.9660   -6.2750   24.8220 C   0  0  0  0  0  3  0  0  0  0  0  0
  -21.3650   -4.9280   24.9120 C   0  0  0  0  0  0  0  0  0  0  0  0
  -21.9960   -4.3050   23.8200 C   0  0  0  0  0  3  0  0  0  0  0  0
  -22.2260   -5.0280   22.6370 C   0  0  0  0  0  0  0  0  0  0  0  0
  -22.8160   -4.4170   21.5810 F   0  0  0  0  0  0  0  0  0  0  0  0
  -21.1380   -4.2290   26.0480 F   0  0  0  0  0  0  0  0  0  0  0  0
  -23.0300  -13.6830   21.1580 C   0  0  0  0  0  0  0  0  0  0  0  0
  -22.3550  -12.9580   22.0440 N   0  0  0  0  0  0  0  0  0  0  0  0
  -22.5570  -14.7170   20.6880 O   0  0  0  0  0  0  0  0  0  0  0  0
  -22.7490  -12.1210   22.4450 H   0  0  0  0  0  0  0  0  0  0  0  0
  -21.4290  -13.2480   22.3260 H   0  0  0  0  0  0  0  0  0  0  0  0
  -25.5830  -15.4020   20.2450 N   0  0  0  0  0  0  0  0  0  0  0  0
  -24.8080  -16.0340   20.4120 H   0  0  0  0  0  0  0  0  0  0  0  0
  -26.3850  -15.8600   19.8360 H   0  0  0  0  0  0  0  0  0  0  0  0
  -31.8470  -18.0480   22.3470 C   0  0  0  0  0  1  0  0  0  0  0  0
  -31.4050  -18.6030   20.9770 C   0  0  0  0  0  2  0  0  0  0  0  0
  -28.3430  -19.6160   18.6650 C   0  0  0  0  0  2  0  0  0  0  0  0
  -30.1180  -19.2140   16.8310 C   0  0  0  0  0  1  0  0  0  0  0  0
  -27.6600  -19.0040   16.3040 C   0  0  0  0  0  1  0  0  0  0  0  0
  -28.7350  -18.8330   17.3870 C   0  0  0  0  0  3  0  0  0  0  0  0
  1 90  1  0
  1  2  1  0
  1 49  1  0
  2  3  1  0
  2  4  1  0
  5  2  1  0
  5  6  2  0
  7  6  1  0
  8 19  2  0
  9  7  1  0
  9 14  1  0
 10 18  1  0
 10 20  1  0
 11 17  1  0
 11 13  1  0
 12 18  1  0
 13 12  1  0
 14 13  2  0
 15  9  2  0
 16 15  1  0
 16 11  2  0
 17 10  1  0
 18  8  1  0
 20 22  2  0
 21 20  1  0
 23 21  1  0
 24 33  2  0
 24 29  1  0
 25 21  1  0
 25 29  1  0
 26 25  1  0
 27 28  1  0
 27 26  1  0
 28 24  1  0
 29 30  2  0
 30 31  1  0
 32 31  2  0
 33 32  1  0
 34  8  1  0
 34 35  1  0
 34 44  1  0
 35 38  1  0
 36 40  1  0
 36 35  1  0
 37 36  2  0
 40 39  1  0
 42 40  1  0
 42 43  1  0
 42 41  1  0
 44 47  1  1
 44 45  1  0
 46 44  1  0
 49 89  1  0
 49 48  1  1
 50 58  1  0
 51 56  1  0
 52 53  1  0
 52 51  1  0
 54 53  1  0
 54 63  1  0
 54 55  1  0
 56 50  1  0
 56 55  1  0
 57 50  2  0
 58 49  1  0
 59 58  1  0
 60 61  2  0
 61 80  1  0
 62 61  1  0
 62 65  1  0
 63 64  1  0
 63 60  1  0
 64 62  2  0
 65 66  1  0
 66 67  2  0
 68 71  1  0
 68 67  1  0
 69 68  2  0
 70 69  1  0
 70 65  2  0
 71 72  1  0
 72 77  2  0
 72 73  1  0
 73 74  2  0
 74 75  1  0
 75 79  1  0
 76 75  2  0
 77 76  1  0
 78 77  1  0
 80 81  1  0
 81 84  1  0
 81 83  1  0
 82 80  2  0
 85 60  1  0
 85 86  1  0
 87 85  1  0
 89 88  1  0
 91 93  1  0
 92 93  1  0
 93 90  1  0
M  ISO  4   6 101   7 101  50 100  58 100
M  END
>  <TORSDO>  (62) 
F 23

>  <SCORE>  (62) 
-13.404

>  <name>  (62) 
61

>  <ligand_id>  (62) 
61

>  <original_smiles>  (62) 
[H]c1c([H])c([H])c2c(c1[H])C([H])([H])C([H])([H])C([H])([H])C2([H])N([H])C(=O)C1([H])N(C(=O)C([H])(N([H])C(=O)C([H])(N([H])C([H])([H])[H])C([H])([H])[H])C(C([H])([H])[H])(C([H])([H])[H])C([H])([H])[H])C([H])([H])c2c([H])c(OC([H])([H])C([H])([H])[N+]([H])([H])C([H])(C([H])([H])C([H])(C([H])([H])[H])C([H])([H])[H])C(N([H])C(=O)N3C([H])([H])C([H])([H])C([H])([H])C([H])(n4nc(-c5c([H])c([H])c(Oc6c([H])c([H])c(F)c([H])c6F)c([H])c5[H])c(C(=O)N([H])[H])c4N([H])[H])C3([H])[H])(C([H])([H])[H])C([H])([H])C([H])([H])[H])c([H])c([H])c2C1([H])[H]

>  <smiles>  (62) 
[H]c1c([H])c([H])c2c(c1[H])C([H])([H])C([H])([H])C([H])([H])C2([H])N([H])C(=O)C1([H])N(C(=O)C([H])(N([H])C(=O)C([H])(N([H])C([H])([H])[H])C([H])([H])[H])C(C([H])([H])[H])(C([H])([H])[H])C([H])([H])[H])C([H])([H])c2c([H])c(OC([H])([H])C([H])([H])[N+]([H])([H])C([H])(C([H])([H])C([H])(C([H])([H])[H])C([H])([H])[H])C(N([H])C(=O)N3C([H])([H])C([H])([H])C([H])([H])C([H])(n4nc(-c5c([H])c([H])c(Oc6c([H])c([H])c(F)c([H])c6F)c([H])c5[H])c(C(=O)N([H])[H])c4N([H])[H])C3([H])[H])(C([H])([H])[H])C([H])([H])C([H])([H])[H])c([H])c([H])c2C1([H])[H]

$$$$
62:0:0
     RDKit          3D

100109  0  0  1  0  0  0  0  0999 V2000
  -25.8120  -18.5120   17.8770 C   0  0  0  0  0  2  0  0  0  0  0  0
  -26.9120  -18.5470   16.8070 C   0  0  0  0  0  2  0  0  0  0  0  0
  -26.2790  -19.1880   19.1720 C   0  0  0  0  0  2  0  0  0  0  0  0
  -27.4540  -19.9760   16.5900 C   0  0  0  0  0  2  0  0  0  0  0  0
  -26.7500  -20.6240   18.8960 C   0  0  0  0  0  2  0  0  0  0  0  0
  -27.9360  -20.7070   17.8860 C   0  0  1  0  0  0  0  0  0  0  0  0
  -30.5410  -20.6120   17.9720 C   0  0  0  0  0  1  0  0  0  0  0  0
  -29.2260  -19.9600   18.4650 C   0  0  0  0  0  3  0  0  0  0  0  0
  -29.2630  -19.7510   20.0130 C   0  0  0  0  0  2  0  0  0  0  0  0
  -30.3930  -18.8510   20.6270 C   0  0  0  0  0  3  0  0  0  0  0  0
  -30.9740  -16.4260   20.2090 C   0  0  0  0  0  0  0  0  0  0  0  0
  -31.2360  -14.0090   19.7510 C   0  0  0  0  0  2  0  0  0  0  0  0
  -30.3860  -13.6080   18.5310 C   0  0  0  0  0  2  0  0  0  0  0  0
  -28.9500  -13.2530   18.9630 C   0  0  0  0  0  2  0  0  0  0  0  0
  -28.3220  -14.3270   19.8910 C   0  0  0  0  0  3  0  0  0  0  0  0
  -29.2950  -14.7190   21.0260 C   0  0  0  0  0  2  0  0  0  0  0  0
  -30.5630  -15.1420   20.4100 N   0  0  0  0  0  0  0  0  0  0  0  0
  -32.0610  -16.6960   19.6920 O   0  0  0  0  0  0  0  0  0  0  0  0
  -30.1020  -17.4000   20.5470 N   0  0  0  0  0  0  0  0  0  0  0  0
  -29.2150  -17.0910   20.9140 H   0  0  0  0  0  0  0  0  0  0  0  0
  -25.9390  -14.6530   20.8020 C   0  0  0  0  0  0  0  0  0  0  0  0
  -24.9540  -13.7650   21.1380 C   0  0  0  0  0  0  0  0  0  0  0  0
  -25.5070  -12.4660   20.9200 C   0  0  0  0  0  0  0  0  0  0  0  0
  -27.0270  -13.8900   20.4120 N   0  0  0  0  0  0  0  0  0  0  0  0
  -26.7740  -12.5620   20.5390 N   0  0  0  0  0  0  0  0  0  0  0  0
  -24.8840  -11.1400   20.9990 C   0  0  0  0  0  0  0  0  0  0  0  0
  -25.2010  -10.2350   22.0360 C   0  0  0  0  0  3  0  0  0  0  0  0
  -24.5740   -8.9730   22.1010 C   0  0  0  0  0  3  0  0  0  0  0  0
  -23.6160   -8.6050   21.1260 C   0  0  0  0  0  0  0  0  0  0  0  0
  -23.3200   -9.5000   20.0840 C   0  0  0  0  0  3  0  0  0  0  0  0
  -23.9490  -10.7550   20.0170 C   0  0  0  0  0  3  0  0  0  0  0  0
  -22.9750   -7.3900   21.0950 O   0  0  0  0  0  0  0  0  0  0  0  0
  -22.4840   -6.8070   22.2360 C   0  0  0  0  0  0  0  0  0  0  0  0
  -21.5090   -7.4410   23.0360 C   0  0  0  0  0  3  0  0  0  0  0  0
  -20.9810   -6.7760   24.1600 C   0  0  0  0  0  3  0  0  0  0  0  0
  -21.4160   -5.4760   24.4810 C   0  0  0  0  0  0  0  0  0  0  0  0
  -22.3840   -4.8410   23.6820 C   0  0  0  0  0  3  0  0  0  0  0  0
  -22.9130   -5.5040   22.5600 C   0  0  0  0  0  0  0  0  0  0  0  0
  -23.8290   -4.8800   21.7810 F   0  0  0  0  0  0  0  0  0  0  0  0
  -20.9040   -4.8340   25.5560 F   0  0  0  0  0  0  0  0  0  0  0  0
  -23.5470  -14.1020   21.5430 C   0  0  0  0  0  0  0  0  0  0  0  0
  -22.9460  -13.2850   22.4010 N   0  0  0  0  0  0  0  0  0  0  0  0
  -22.9920  -15.1210   21.1370 O   0  0  0  0  0  0  0  0  0  0  0  0
  -23.4080  -12.4590   22.7490 H   0  0  0  0  0  0  0  0  0  0  0  0
  -22.0070  -13.4890   22.7120 H   0  0  0  0  0  0  0  0  0  0  0  0
  -25.9890  -16.0390   20.7770 N   0  0  0  0  0  0  0  0  0  0  0  0
  -25.1790  -16.6090   20.9920 H   0  0  0  0  0  0  0  0  0  0  0  0
  -26.7720  -16.5780   20.4300 H   0  0  0  0  0  0  0  0  0  0  0  0
  -32.0990  -19.9060   23.9130 C   0  0  0  0  0  2  0  0  0  0  0  0
  -31.0380  -21.0030   23.7610 C   0  0  0  0  0  2  0  0  0  0  0  0
  -32.0740  -19.1210   22.6020 C   0  0  0  0  0  2  0  0  0  0  0  0
  -30.2440  -20.6640   22.4910 C   0  0  0  0  0  2  0  0  0  0  0  0
  -30.6200  -19.2210   22.1180 C   0  0  0  0  0  3  0  0  0  0  0  0
  -28.2500  -22.2120   17.4990 C   0  0  0  0  0  2  0  0  0  0  0  0
  -26.9870  -23.4250   19.5680 O   0  0  0  0  0  0  0  0  0  0  0  0
  -25.7960  -23.4320   17.3510 O   0  0  0  0  0  0  0  0  0  0  0  0
  -27.0590  -23.5330   18.1010 S   0  0  2  0  0  0  0  0  0  0  0  0
  -27.7680  -25.2020   17.6900 C   0  0  0  0  0  2  0  0  0  0  0  0
  -27.2470  -26.2590   18.7030 C   0  0  0  0  0  2  0  0  0  0  0  0
  -27.3290  -27.6490   18.2990 O   0  0  0  0  0  0  0  0  0  0  0  0
  -24.6980  -31.4800   23.7190 C   0  0  0  0  0  0  0  0  0  0  0  0
  -26.2920  -28.4320   18.7760 C   0  0  0  0  0  0  0  0  0  0  0  0
  -23.0910  -30.8540   21.9480 C   0  0  0  0  0  3  0  0  0  0  0  0
  -24.1140  -29.9270   19.8020 C   0  0  0  0  0  0  0  0  0  0  0  0
  -25.5740  -31.1650   21.4060 C   0  0  0  0  0  2  0  0  0  0  0  0
  -25.4050  -30.1380   20.3030 C   0  0  0  0  0  0  0  0  0  0  0  0
  -26.5000  -29.4000   19.7880 C   0  0  0  0  0  3  0  0  0  0  0  0
  -24.9860  -28.2620   18.2620 C   0  0  0  0  0  3  0  0  0  0  0  0
  -23.9000  -28.9900   18.7760 C   0  0  0  0  0  3  0  0  0  0  0  0
  -22.9930  -30.7460   20.4030 C   0  0  0  0  0  2  0  0  0  0  0  0
  -24.4830  -31.1560   22.4120 N   0  0  0  0  0  0  0  0  0  0  0  0
  -23.7560  -31.5670   24.5200 O   0  0  0  0  0  0  0  0  0  0  0  0
  -22.5020  -29.5680   22.5740 C   0  0  0  0  0  0  0  0  0  0  0  0
  -21.1720  -29.4110   22.4810 N   0  0  0  0  0  0  0  0  0  0  0  0
  -23.2370  -28.7310   23.1030 O   0  0  0  0  0  0  0  0  0  0  0  0
  -20.6390  -30.1460   22.0390 H   0  0  0  0  0  0  0  0  0  0  0  0
  -17.8770  -27.9290   22.5480 C   0  0  0  0  0  0  0  0  0  0  0  0
  -20.4060  -28.2630   22.9640 C   0  0  0  0  0  3  0  0  0  0  0  0
  -20.6140  -27.0300   22.0530 C   0  0  0  0  0  2  0  0  0  0  0  0
  -19.5560  -26.9080   20.9530 C   0  0  0  0  0  2  0  0  0  0  0  0
  -18.1540  -26.8050   21.5640 C   0  0  0  0  0  2  0  0  0  0  0  0
  -18.9340  -28.6240   23.1930 C   0  0  0  0  0  0  0  0  0  0  0  0
  -18.6210  -29.6850   24.0710 C   0  0  0  0  0  3  0  0  0  0  0  0
  -17.2830  -30.0500   24.3100 C   0  0  0  0  0  3  0  0  0  0  0  0
  -16.2400  -29.3480   23.6810 C   0  0  0  0  0  3  0  0  0  0  0  0
  -16.5370  -28.2900   22.8050 C   0  0  0  0  0  3  0  0  0  0  0  0
  -26.1290  -31.7810   24.2640 C   0  0  0  0  0  3  0  0  0  0  0  0
  -26.0940  -33.1060   24.8940 N   0  0  0  0  0  0  0  0  0  0  0  0
  -26.5500  -34.2310   24.3260 C   0  0  0  0  0  0  0  0  0  0  0  0
  -27.1190  -34.2450   23.2310 O   0  0  0  0  0  0  0  0  0  0  0  0
  -25.5940  -33.1790   25.7680 H   0  0  0  0  0  0  0  0  0  0  0  0
  -25.1660  -36.3240   24.4870 C   0  0  0  0  0  1  0  0  0  0  0  0
  -26.3440  -35.5490   25.0960 C   0  0  0  0  0  3  0  0  0  0  0  0
  -28.6320  -35.8670   25.9320 C   0  0  0  0  0  1  0  0  0  0  0  0
  -27.5470  -36.4110   25.1190 N   0  0  0  0  0  0  0  0  0  0  0  0
  -27.3200  -37.3370   25.4720 H   0  0  0  0  0  0  0  0  0  0  0  0
  -26.6490  -30.6920   25.2800 C   0  0  1  0  0  0  0  0  0  0  0  0
  -25.6660  -30.4040   26.4390 C   0  0  0  0  0  1  0  0  0  0  0  0
  -26.9260  -29.3550   24.5530 C   0  0  0  0  0  1  0  0  0  0  0  0
  -27.9920  -31.1480   25.8960 C   0  0  0  0  0  1  0  0  0  0  0  0
  1  3  1  0
  2  1  1  0
  4  2  1  0
  4  6  1  0
  5  3  1  0
  6  8  1  0
  6  5  1  0
  8  7  1  0
  8  9  1  0
 10  9  1  0
 10 53  1  0
 11 17  1  0
 11 19  1  0
 12 17  1  0
 13 14  1  0
 13 12  1  0
 15 14  1  0
 15 24  1  0
 15 16  1  0
 17 16  1  0
 18 11  2  0
 19 10  1  0
 19 20  1  0
 21 22  2  0
 22 41  1  0
 23 26  1  0
 23 22  1  0
 24 25  1  0
 24 21  1  0
 25 23  2  0
 26 27  1  0
 27 28  2  0
 29 28  1  0
 30 29  2  0
 31 30  1  0
 31 26  2  0
 32 29  1  0
 32 33  1  0
 33 38  2  0
 33 34  1  0
 34 35  2  0
 35 36  1  0
 36 40  1  0
 37 36  2  0
 38 37  1  0
 39 38  1  0
 41 42  1  0
 42 45  1  0
 42 44  1  0
 43 41  2  0
 46 21  1  0
 46 47  1  0
 48 46  1  0
 50 49  1  0
 51 49  1  0
 52 50  1  0
 53 52  1  0
 53 51  1  0
  6 54  1  6
 57 54  1  6
 56 57  2  0
 57 55  2  0
 58 57  1  0
 58 59  1  0
 60 59  1  0
 60 62  1  0
 61 72  2  0
 62 67  1  0
 63 71  1  0
 63 73  1  0
 64 66  1  0
 64 70  1  0
 65 71  1  0
 66 65  1  0
 67 66  2  0
 68 69  1  0
 68 62  2  0
 69 64  2  0
 70 63  1  0
 71 61  1  0
 73 75  2  0
 74 73  1  0
 76 74  1  0
 77 86  2  0
 77 82  1  0
 78 74  1  0
 78 82  1  0
 79 78  1  0
 80 81  1  0
 80 79  1  0
 81 77  1  0
 82 83  2  0
 83 84  1  0
 85 84  2  0
 86 85  1  0
 87 61  1  0
 87 88  1  0
 87 97  1  0
 88 91  1  0
 89 88  1  0
 89 93  1  0
 90 89  2  0
 93 92  1  0
 93 95  1  0
 95 96  1  0
 95 94  1  0
 97100  1  1
 97 98  1  0
 99 97  1  0
M  ISO  4  11 100  19 100  59 101  60 101
M  END
>  <TORSDO>  (63) 
F 24

>  <SCORE>  (63) 
-4.898

>  <name>  (63) 
62

>  <ligand_id>  (63) 
62

>  <original_smiles>  (63) 
[H]c1c([H])c([H])c2c(c1[H])C([H])([H])C([H])([H])C([H])([H])C2([H])N([H])C(=O)C1([H])N(C(=O)C([H])(N([H])C(=O)C([H])(N([H])C([H])([H])[H])C([H])([H])[H])C(C([H])([H])[H])(C([H])([H])[H])C([H])([H])[H])C([H])([H])c2c([H])c(OC([H])([H])C([H])([H])S(=O)(=O)C([H])([H])C3(C([H])(C([H])([H])[H])C([H])([H])C([H])(N([H])C(=O)N4C([H])([H])C([H])([H])C([H])([H])C([H])(n5nc(-c6c([H])c([H])c(Oc7c([H])c([H])c(F)c([H])c7F)c([H])c6[H])c(C(=O)N([H])[H])c5N([H])[H])C4([H])[H])C4([H])C([H])([H])C([H])([H])C([H])([H])C4([H])[H])C([H])([H])C([H])([H])C([H])([H])C([H])([H])C3([H])[H])c([H])c([H])c2C1([H])[H]

>  <smiles>  (63) 
[H]c1c([H])c([H])c2c(c1[H])C([H])([H])C([H])([H])C([H])([H])C2([H])N([H])C(=O)C1([H])N(C(=O)C([H])(N([H])C(=O)C([H])(N([H])C([H])([H])[H])C([H])([H])[H])C(C([H])([H])[H])(C([H])([H])[H])C([H])([H])[H])C([H])([H])c2c([H])c(OC([H])([H])C([H])([H])S(=O)(=O)C([H])([H])C3(C([H])(C([H])([H])[H])C([H])([H])C([H])(N([H])C(=O)N4C([H])([H])C([H])([H])C([H])([H])C([H])(n5nc(-c6c([H])c([H])c(Oc7c([H])c([H])c(F)c([H])c7F)c([H])c6[H])c(C(=O)N([H])[H])c5N([H])[H])C4([H])[H])C4([H])C([H])([H])C([H])([H])C([H])([H])C4([H])[H])C([H])([H])C([H])([H])C([H])([H])C([H])([H])C3([H])[H])c([H])c([H])c2C1([H])[H]

$$$$
63:0:0
     RDKit          3D

 89 96  0  0  1  0  0  0  0  0999 V2000
  -29.6090  -21.3500   22.0440 C   0  0  0  0  0  1  0  0  0  0  0  0
  -28.8200  -21.2700   20.7290 C   0  0  0  0  0  3  0  0  0  0  0  0
  -28.7900  -22.9040   20.0220 C   0  0  0  0  0  2  0  0  0  0  0  0
  -28.0330  -24.4240   20.5680 C   0  0  0  0  0  2  0  0  0  0  0  0
  -28.2490  -26.0160   20.2830 O   0  0  0  0  0  0  0  0  0  0  0  0
  -24.6330  -31.9300   23.2320 C   0  0  0  0  0  0  0  0  0  0  0  0
  -27.2110  -27.0700   20.2720 C   0  0  0  0  0  0  0  0  0  0  0  0
  -23.4450  -30.5140   21.6050 C   0  0  0  0  0  3  0  0  0  0  0  0
  -24.9000  -28.9060   20.2050 C   0  0  0  0  0  0  0  0  0  0  0  0
  -26.0070  -30.7480   21.4540 C   0  0  0  0  0  2  0  0  0  0  0  0
  -26.0850  -29.3350   20.8160 C   0  0  0  0  0  0  0  0  0  0  0  0
  -27.2400  -28.4380   20.8200 C   0  0  0  0  0  3  0  0  0  0  0  0
  -25.9960  -26.7770   19.6180 C   0  0  0  0  0  3  0  0  0  0  0  0
  -24.8770  -27.6460   19.5850 C   0  0  0  0  0  3  0  0  0  0  0  0
  -23.6760  -29.8170   20.2370 C   0  0  0  0  0  2  0  0  0  0  0  0
  -24.7160  -31.0900   22.1510 N   0  0  0  0  0  0  0  0  0  0  0  0
  -23.5420  -32.2180   23.7510 O   0  0  0  0  0  0  0  0  0  0  0  0
  -22.7570  -29.5220   22.5790 C   0  0  0  0  0  0  0  0  0  0  0  0
  -21.4280  -29.3480   22.4510 N   0  0  0  0  0  0  0  0  0  0  0  0
  -23.4250  -28.9090   23.4150 O   0  0  0  0  0  0  0  0  0  0  0  0
  -20.9440  -29.8920   21.7500 H   0  0  0  0  0  0  0  0  0  0  0  0
  -18.0500  -28.1290   22.9580 C   0  0  0  0  0  0  0  0  0  0  0  0
  -20.6070  -28.4160   23.2300 C   0  0  0  0  0  3  0  0  0  0  0  0
  -20.7220  -26.9760   22.6730 C   0  0  0  0  0  2  0  0  0  0  0  0
  -19.6260  -26.6340   21.6590 C   0  0  0  0  0  2  0  0  0  0  0  0
  -18.2410  -26.7740   22.2950 C   0  0  0  0  0  2  0  0  0  0  0  0
  -19.1610  -28.9060   23.3830 C   0  0  0  0  0  0  0  0  0  0  0  0
  -18.9280  -30.1700   23.9650 C   0  0  0  0  0  3  0  0  0  0  0  0
  -17.6180  -30.6590   24.1260 C   0  0  0  0  0  3  0  0  0  0  0  0
  -16.5220  -29.8790   23.7160 C   0  0  0  0  0  3  0  0  0  0  0  0
  -16.7400  -28.6170   23.1380 C   0  0  0  0  0  3  0  0  0  0  0  0
  -25.9020  -32.5810   23.8590 C   0  0  0  0  0  3  0  0  0  0  0  0
  -25.5800  -33.9830   24.1770 N   0  0  0  0  0  0  0  0  0  0  0  0
  -25.9140  -35.0370   23.4200 C   0  0  0  0  0  0  0  0  0  0  0  0
  -26.5870  -34.9330   22.3920 O   0  0  0  0  0  0  0  0  0  0  0  0
  -24.9790  -34.1370   24.9730 H   0  0  0  0  0  0  0  0  0  0  0  0
  -24.1850  -36.8330   23.0600 C   0  0  0  0  0  1  0  0  0  0  0  0
  -25.4240  -36.4290   23.8740 C   0  0  0  0  0  3  0  0  0  0  0  0
  -27.5550  -37.3210   24.7100 C   0  0  0  0  0  1  0  0  0  0  0  0
  -26.4560  -37.4830   23.7610 N   0  0  0  0  0  0  0  0  0  0  0  0
  -26.0490  -38.4030   23.9010 H   0  0  0  0  0  0  0  0  0  0  0  0
  -26.4070  -31.8320   25.1550 C   0  0  1  0  0  0  0  0  0  0  0  0
  -25.3020  -31.6110   26.2160 C   0  0  0  0  0  1  0  0  0  0  0  0
  -26.9960  -30.4480   24.7990 C   0  0  0  0  0  1  0  0  0  0  0  0
  -27.5500  -32.6390   25.8140 C   0  0  0  0  0  1  0  0  0  0  0  0
  -28.9210  -19.5820   20.1260 C   0  0  0  0  0  2  0  0  0  0  0  0
  -30.0790  -18.2350   20.2690 C   0  0  0  0  0  0  0  0  0  0  0  0
  -30.4960  -15.3000   20.2200 C   0  0  0  0  0  0  0  0  0  0  0  0
  -30.4280  -12.8780   19.3300 C   0  0  0  0  0  2  0  0  0  0  0  0
  -29.5050  -12.6890   18.1040 C   0  0  0  0  0  2  0  0  0  0  0  0
  -28.0580  -12.4230   18.5520 C   0  0  0  0  0  2  0  0  0  0  0  0
  -27.6110  -13.3840   19.6830 C   0  0  0  0  0  3  0  0  0  0  0  0
  -28.6650  -13.5320   20.8000 C   0  0  0  0  0  2  0  0  0  0  0  0
  -29.8930  -14.0200   20.1540 N   0  0  0  0  0  0  0  0  0  0  0  0
  -31.7180  -15.2420   20.0490 O   0  0  0  0  0  0  0  0  0  0  0  0
  -29.7690  -16.5900   20.2690 N   0  0  0  0  0  4  0  0  0  0  0  0
  -28.7780  -16.4140   20.3330 H   0  0  0  0  0  0  0  0  0  0  0  0
  -25.2360  -13.9250   20.4390 C   0  0  0  0  0  0  0  0  0  0  0  0
  -24.1830  -13.1380   20.8140 C   0  0  0  0  0  0  0  0  0  0  0  0
  -24.6670  -11.7940   20.7930 C   0  0  0  0  0  0  0  0  0  0  0  0
  -26.2880  -13.0580   20.1990 N   0  0  0  0  0  0  0  0  0  0  0  0
  -25.9580  -11.7710   20.4830 N   0  0  0  0  0  0  0  0  0  0  0  0
  -23.9530  -10.5230   20.9900 C   0  0  0  0  0  0  0  0  0  0  0  0
  -24.3910   -9.5680   21.9340 C   0  0  0  0  0  3  0  0  0  0  0  0
  -23.6750   -8.3660   22.1200 C   0  0  0  0  0  3  0  0  0  0  0  0
  -22.5060   -8.1110   21.3640 C   0  0  0  0  0  0  0  0  0  0  0  0
  -22.0880   -9.0550   20.4100 C   0  0  0  0  0  3  0  0  0  0  0  0
  -22.8050  -10.2480   20.2210 C   0  0  0  0  0  3  0  0  0  0  0  0
  -21.7610   -6.9600   21.4590 O   0  0  0  0  0  0  0  0  0  0  0  0
  -21.7140   -6.2280   22.6180 C   0  0  0  0  0  0  0  0  0  0  0  0
  -21.2730   -6.7880   23.8370 C   0  0  0  0  0  3  0  0  0  0  0  0
  -21.1740   -5.9800   24.9880 C   0  0  0  0  0  3  0  0  0  0  0  0
  -21.5060   -4.6140   24.9210 C   0  0  0  0  0  0  0  0  0  0  0  0
  -21.9400   -4.0520   23.7070 C   0  0  0  0  0  3  0  0  0  0  0  0
  -22.0400   -4.8570   22.5580 C   0  0  0  0  0  0  0  0  0  0  0  0
  -22.4380   -4.3070   21.3860 F   0  0  0  0  0  0  0  0  0  0  0  0
  -21.4040   -3.8360   26.0240 F   0  0  0  0  0  0  0  0  0  0  0  0
  -22.7800  -13.6010   21.0740 C   0  0  0  0  0  0  0  0  0  0  0  0
  -22.0550  -12.9050   21.9410 N   0  0  0  0  0  0  0  0  0  0  0  0
  -22.3360  -14.6190   20.5440 O   0  0  0  0  0  0  0  0  0  0  0  0
  -22.4270  -12.0820   22.3920 H   0  0  0  0  0  0  0  0  0  0  0  0
  -21.1130  -13.1990   22.1570 H   0  0  0  0  0  0  0  0  0  0  0  0
  -25.3810  -15.2960   20.2490 N   0  0  0  0  0  0  0  0  0  0  0  0
  -24.6030  -15.9380   20.3540 H   0  0  0  0  0  0  0  0  0  0  0  0
  -26.2160  -15.7400   19.8900 H   0  0  0  0  0  0  0  0  0  0  0  0
  -32.6330  -18.0470   19.8620 C   0  0  0  0  0  1  0  0  0  0  0  0
  -31.0220  -17.9300   17.9040 C   0  0  0  0  0  1  0  0  0  0  0  0
  -31.4870  -20.0710   19.0540 C   0  0  0  0  0  1  0  0  0  0  0  0
  -31.2830  -18.5550   19.2930 C   0  0  1  0  0  0  0  0  0  0  0  0
  2  1  1  0
  3  4  1  0
  3  2  1  0
  5  4  1  0
  6 17  2  0
  7  5  1  0
  7 12  1  0
  8 16  1  0
  8 18  1  0
  9 15  1  0
  9 11  1  0
 10 16  1  0
 11 12  2  0
 11 10  1  0
 13  7  2  0
 14 13  1  0
 14  9  2  0
 15  8  1  0
 16  6  1  0
 18 20  2  0
 19 18  1  0
 21 19  1  0
 22 31  2  0
 22 27  1  0
 23 19  1  0
 23 27  1  0
 24 23  1  0
 25 26  1  0
 25 24  1  0
 26 22  1  0
 27 28  2  0
 28 29  1  0
 30 29  2  0
 31 30  1  0
 32  6  1  0
 32 33  1  0
 32 42  1  0
 33 36  1  0
 34 38  1  0
 34 33  1  0
 35 34  2  0
 38 37  1  0
 40 38  1  0
 40 41  1  0
 40 39  1  0
 42 45  1  1
 42 43  1  0
 44 42  1  0
 46 47  1  0
 46  2  1  0
 48 56  1  0
 49 54  1  0
 50 51  1  0
 50 49  1  0
 52 51  1  0
 52 61  1  0
 52 53  1  0
 54 48  1  0
 54 53  1  0
 55 48  2  0
 56 47  2  0
 56 57  1  0
 58 59  2  0
 59 78  1  0
 60 59  1  0
 60 63  1  0
 61 58  1  0
 61 62  1  0
 62 60  2  0
 63 64  1  0
 64 65  2  0
 66 69  1  0
 66 65  1  0
 67 66  2  0
 68 67  1  0
 68 63  2  0
 69 70  1  0
 70 71  1  0
 71 72  2  0
 73 72  1  0
 73 77  1  0
 74 73  2  0
 75 70  2  0
 75 74  1  0
 76 75  1  0
 78 79  1  0
 79 82  1  0
 79 81  1  0
 80 78  2  0
 83 84  1  0
 83 58  1  0
 85 83  1  0
 89 87  1  6
 88 89  1  0
 89 86  1  0
 89 47  1  0
M  ISO  4   4 101   5 101  48 100  56 100
M  END
>  <TORSDO>  (64) 
F 21

>  <SCORE>  (64) 
-16.126

>  <name>  (64) 
63

>  <ligand_id>  (64) 
63

>  <original_smiles>  (64) 
[H]c1c([H])c([H])c2c(c1[H])C([H])([H])C([H])([H])C([H])([H])C2([H])N([H])C(=O)C1([H])N(C(=O)C([H])(N([H])C(=O)C([H])(N([H])C([H])([H])[H])C([H])([H])[H])C(C([H])([H])[H])(C([H])([H])[H])C([H])([H])[H])C([H])([H])c2c([H])c(OC([H])([H])C([H])([H])C([H])(C([H])([H])[H])C([H])([H])C([H])(N([H])C(=O)N3C([H])([H])C([H])([H])C([H])([H])C([H])(n4nc(-c5c([H])c([H])c(Oc6c([H])c([H])c(F)c([H])c6F)c([H])c5[H])c(C(=O)N([H])[H])c4N([H])[H])C3([H])[H])C(C([H])([H])[H])(C([H])([H])[H])C([H])([H])[H])c([H])c([H])c2C1([H])[H]

>  <smiles>  (64) 
[H]c1c([H])c([H])c2c(c1[H])C([H])([H])C([H])([H])C([H])([H])C2([H])N([H])C(=O)C1([H])N(C(=O)C([H])(N([H])C(=O)C([H])(N([H])C([H])([H])[H])C([H])([H])[H])C(C([H])([H])[H])(C([H])([H])[H])C([H])([H])[H])C([H])([H])c2c([H])c(OC([H])([H])C([H])([H])C([H])(C([H])([H])[H])C([H])([H])C([H])(N([H])C(=O)N3C([H])([H])C([H])([H])C([H])([H])C([H])(n4nc(-c5c([H])c([H])c(Oc6c([H])c([H])c(F)c([H])c6F)c([H])c5[H])c(C(=O)N([H])[H])c4N([H])[H])C3([H])[H])C(C([H])([H])[H])(C([H])([H])[H])C([H])([H])[H])c([H])c([H])c2C1([H])[H]

$$$$
64:0:0
     RDKit          3D

104111  0  0  1  0  0  0  0  0999 V2000
  -29.7950  -19.1370   20.6130 C   0  0  0  0  0  3  0  0  0  0  0  0
  -30.6110  -18.9700   21.9250 C   0  0  0  0  0  2  0  0  0  0  0  0
  -30.0570  -19.7420   23.1340 C   0  0  0  0  0  2  0  0  0  0  0  0
  -30.9580  -19.5860   24.3720 C   0  0  0  0  0  2  0  0  0  0  0  0
  -30.3250  -20.1300   25.6650 C   0  0  0  0  0  2  0  0  0  0  0  0
  -29.1120  -19.3880   26.0500 N   0  0  0  0  0  4  0  0  0  0  0  0
  -28.3880  -19.4930   25.3630 H   0  0  0  0  0  0  0  0  0  0  0  0
  -28.7650  -19.7380   26.9250 H   0  0  0  0  0  0  0  0  0  0  0  0
  -29.3150  -18.4100   26.1630 H   0  0  0  0  0  0  0  0  0  0  0  0
  -29.8170  -20.8290   20.3380 C   0  0  0  0  0  2  0  0  0  0  0  0
  -28.8330  -21.8780   19.4850 C   0  0  0  0  0  2  0  0  0  0  0  0
  -28.0900  -23.3750   19.8700 C   0  0  0  0  0  3  0  0  0  0  0  0
  -26.9670  -23.0970   20.7930 N   0  0  0  0  0  4  0  0  0  0  0  0
  -27.2840  -22.6840   21.6540 H   0  0  0  0  0  0  0  0  0  0  0  0
  -26.3040  -22.4700   20.3700 H   0  0  0  0  0  0  0  0  0  0  0  0
  -26.4770  -23.9450   21.0180 H   0  0  0  0  0  0  0  0  0  0  0  0
  -28.7090  -24.9030   20.2340 C   0  0  0  0  0  2  0  0  0  0  0  0
  -28.4140  -26.3600   19.7360 O   0  0  0  0  0  0  0  0  0  0  0  0
  -24.6910  -31.8180   23.1080 C   0  0  0  0  0  0  0  0  0  0  0  0
  -27.2730  -27.2250   19.8940 C   0  0  0  0  0  0  0  0  0  0  0  0
  -23.4730  -30.4490   21.4540 C   0  0  0  0  0  3  0  0  0  0  0  0
  -24.9110  -28.9220   19.9670 C   0  0  0  0  0  0  0  0  0  0  0  0
  -26.0170  -30.7580   21.2390 C   0  0  0  0  0  2  0  0  0  0  0  0
  -26.0970  -29.3800   20.5570 C   0  0  0  0  0  0  0  0  0  0  0  0
  -27.2790  -28.5490   20.4940 C   0  0  0  0  0  3  0  0  0  0  0  0
  -26.0540  -26.8530   19.2900 C   0  0  0  0  0  3  0  0  0  0  0  0
  -24.9000  -27.6730   19.3220 C   0  0  0  0  0  3  0  0  0  0  0  0
  -23.6790  -29.8090   20.0540 C   0  0  0  0  0  2  0  0  0  0  0  0
  -24.7490  -31.0320   21.9900 N   0  0  0  0  0  0  0  0  0  0  0  0
  -23.6130  -32.0750   23.6680 O   0  0  0  0  0  0  0  0  0  0  0  0
  -22.8340  -29.4090   22.4050 C   0  0  0  0  0  0  0  0  0  0  0  0
  -21.5080  -29.2160   22.2970 N   0  0  0  0  0  0  0  0  0  0  0  0
  -23.5330  -28.7790   23.2010 O   0  0  0  0  0  0  0  0  0  0  0  0
  -21.0030  -29.7810   21.6310 H   0  0  0  0  0  0  0  0  0  0  0  0
  -18.1620  -27.9270   22.8230 C   0  0  0  0  0  0  0  0  0  0  0  0
  -20.7190  -28.2410   23.0580 C   0  0  0  0  0  3  0  0  0  0  0  0
  -20.8440  -26.8250   22.4470 C   0  0  0  0  0  2  0  0  0  0  0  0
  -19.7320  -26.5000   21.4440 C   0  0  0  0  0  2  0  0  0  0  0  0
  -18.3570  -26.5970   22.1120 C   0  0  0  0  0  2  0  0  0  0  0  0
  -19.2710  -28.7030   23.2520 C   0  0  0  0  0  0  0  0  0  0  0  0
  -19.0340  -29.9420   23.8850 C   0  0  0  0  0  3  0  0  0  0  0  0
  -17.7240  -30.4110   24.0890 C   0  0  0  0  0  3  0  0  0  0  0  0
  -16.6290  -29.6330   23.6730 C   0  0  0  0  0  3  0  0  0  0  0  0
  -16.8500  -28.3930   23.0460 C   0  0  0  0  0  3  0  0  0  0  0  0
  -25.9720  -32.4550   23.7260 C   0  0  0  0  0  3  0  0  0  0  0  0
  -26.5260  -31.6560   24.9690 C   0  0  1  0  0  0  0  0  0  0  0  0
  -25.4590  -31.3740   26.0520 C   0  0  0  0  0  1  0  0  0  0  0  0
  -27.1240  -30.2990   24.5300 C   0  0  0  0  0  1  0  0  0  0  0  0
  -27.6790  -32.4500   25.6310 C   0  0  0  0  0  1  0  0  0  0  0  0
  -25.6470  -33.8370   24.1090 N   0  0  0  0  0  0  0  0  0  0  0  0
  -25.9490  -34.9270   23.3890 C   0  0  0  0  0  0  0  0  0  0  0  0
  -26.6010  -34.8740   22.3430 O   0  0  0  0  0  0  0  0  0  0  0  0
  -25.0640  -33.9530   24.9250 H   0  0  0  0  0  0  0  0  0  0  0  0
  -24.1910  -36.7130   23.1400 C   0  0  0  0  0  1  0  0  0  0  0  0
  -25.4510  -36.2900   23.9120 C   0  0  0  0  0  3  0  0  0  0  0  0
  -27.5880  -37.1830   24.7350 C   0  0  0  0  0  1  0  0  0  0  0  0
  -26.4650  -37.3630   23.8180 N   0  0  0  0  0  0  0  0  0  0  0  0
  -26.0470  -38.2710   23.9970 H   0  0  0  0  0  0  0  0  0  0  0  0
  -30.3300  -17.8540   19.6560 C   0  0  0  0  0  3  0  0  0  0  0  0
  -30.8990  -15.1540   19.9020 C   0  0  0  0  0  0  0  0  0  0  0  0
  -30.6950  -12.8060   18.9960 C   0  0  0  0  0  2  0  0  0  0  0  0
  -29.7190  -12.8010   17.7970 C   0  0  0  0  0  2  0  0  0  0  0  0
  -28.2660  -12.6270   18.2770 C   0  0  0  0  0  2  0  0  0  0  0  0
  -27.9250  -13.5540   19.4740 C   0  0  0  0  0  3  0  0  0  0  0  0
  -29.0210  -13.5330   20.5620 C   0  0  0  0  0  2  0  0  0  0  0  0
  -30.2830  -13.9070   19.9110 N   0  0  0  0  0  0  0  0  0  0  0  0
  -32.0820  -15.2050   19.5500 O   0  0  0  0  0  0  0  0  0  0  0  0
  -30.1330  -16.3360   20.0700 N   0  0  0  0  0  0  0  0  0  0  0  0
  -29.1920  -16.1270   20.3670 H   0  0  0  0  0  0  0  0  0  0  0  0
  -25.5820  -14.1730   20.2970 C   0  0  0  0  0  0  0  0  0  0  0  0
  -24.5180  -13.4170   20.7060 C   0  0  0  0  0  0  0  0  0  0  0  0
  -24.9580  -12.0580   20.6620 C   0  0  0  0  0  0  0  0  0  0  0  0
  -26.6010  -13.2770   20.0200 N   0  0  0  0  0  0  0  0  0  0  0  0
  -26.2380  -12.0000   20.3060 N   0  0  0  0  0  0  0  0  0  0  0  0
  -24.2180  -10.8080   20.8780 C   0  0  0  0  0  0  0  0  0  0  0  0
  -24.6350   -9.8570   21.8360 C   0  0  0  0  0  3  0  0  0  0  0  0
  -23.8910   -8.6750   22.0390 C   0  0  0  0  0  3  0  0  0  0  0  0
  -22.7180   -8.4340   21.2860 C   0  0  0  0  0  0  0  0  0  0  0  0
  -22.3210   -9.3740   20.3190 C   0  0  0  0  0  3  0  0  0  0  0  0
  -23.0640  -10.5480   20.1130 C   0  0  0  0  0  3  0  0  0  0  0  0
  -21.9480   -7.3030   21.3970 O   0  0  0  0  0  0  0  0  0  0  0  0
  -21.8590   -6.6050   22.5770 C   0  0  0  0  0  0  0  0  0  0  0  0
  -21.3820   -7.2050   23.7610 C   0  0  0  0  0  3  0  0  0  0  0  0
  -21.2410   -6.4330   24.9330 C   0  0  0  0  0  3  0  0  0  0  0  0
  -21.5680   -5.0640   24.9190 C   0  0  0  0  0  0  0  0  0  0  0  0
  -22.0410   -4.4650   23.7390 C   0  0  0  0  0  3  0  0  0  0  0  0
  -22.1830   -5.2340   22.5700 C   0  0  0  0  0  0  0  0  0  0  0  0
  -22.6160   -4.6460   21.4290 F   0  0  0  0  0  0  0  0  0  0  0  0
  -21.4270   -4.3220   26.0420 F   0  0  0  0  0  0  0  0  0  0  0  0
  -23.1390  -13.9180   21.0220 C   0  0  0  0  0  0  0  0  0  0  0  0
  -22.4350  -13.2480   21.9270 N   0  0  0  0  0  0  0  0  0  0  0  0
  -22.6970  -14.9430   20.5020 O   0  0  0  0  0  0  0  0  0  0  0  0
  -22.8060  -12.4200   22.3680 H   0  0  0  0  0  0  0  0  0  0  0  0
  -21.5110  -13.5670   22.1840 H   0  0  0  0  0  0  0  0  0  0  0  0
  -25.7640  -15.5400   20.1160 N   0  0  0  0  0  0  0  0  0  0  0  0
  -25.0110  -16.2070   20.2500 H   0  0  0  0  0  0  0  0  0  0  0  0
  -26.6070  -15.9570   19.7490 H   0  0  0  0  0  0  0  0  0  0  0  0
  -29.7120  -18.0150   18.2500 C   0  0  0  0  0  2  0  0  0  0  0  0
  -28.1720  -18.1880   18.2660 C   0  0  0  0  0  2  0  0  0  0  0  0
  -27.6960  -19.4930   17.6270 C   0  0  0  0  0  0  0  0  0  0  0  0
  -26.9430  -20.3030   18.3630 N   0  0  0  0  0  0  0  0  0  0  0  0
  -27.9900  -19.7700   16.4670 O   0  0  0  0  0  0  0  0  0  0  0  0
  -26.7000  -20.0620   19.3140 H   0  0  0  0  0  0  0  0  0  0  0  0
  -26.5770  -21.1570   17.9660 H   0  0  0  0  0  0  0  0  0  0  0  0
  1 10  1  0
  1  2  1  0
  2  3  1  0
  3  4  1  0
  4  5  1  0
  5  6  1  0
  6  9  1  0
  6  8  1  0
  7  6  1  0
 11 10  1  0
 12 11  1  0
 12 17  1  0
 12 13  1  0
 13 16  1  0
 13 14  1  0
 15 13  1  0
 18 20  1  0
 18 17  1  0
 19 30  2  0
 20 25  1  0
 21 29  1  0
 21 31  1  0
 22 28  1  0
 22 24  1  0
 23 29  1  0
 24 23  1  0
 25 24  2  0
 26 27  1  0
 26 20  2  0
 27 22  2  0
 28 21  1  0
 29 19  1  0
 31 33  2  0
 32 31  1  0
 34 32  1  0
 35 44  2  0
 35 40  1  0
 36 32  1  0
 36 40  1  0
 37 36  1  0
 38 39  1  0
 38 37  1  0
 39 35  1  0
 40 41  2  0
 41 42  1  0
 43 42  2  0
 44 43  1  0
 45 19  1  0
 45 50  1  0
 45 46  1  0
 46 49  1  1
 46 47  1  0
 48 46  1  0
 50 53  1  0
 51 55  1  0
 51 50  1  0
 52 51  2  0
 55 54  1  0
 57 55  1  0
 57 58  1  0
 57 56  1  0
 59 98  1  0
 59 68  1  0
 59  1  1  0
 60 66  1  0
 60 68  1  0
 61 66  1  0
 62 63  1  0
 62 61  1  0
 64 63  1  0
 64 73  1  0
 64 65  1  0
 66 65  1  0
 67 60  2  0
 68 69  1  0
 70 71  2  0
 71 90  1  0
 72 71  1  0
 72 75  1  0
 73 70  1  0
 73 74  1  0
 74 72  2  0
 75 76  1  0
 76 77  2  0
 78 81  1  0
 78 77  1  0
 79 78  2  0
 80 79  1  0
 80 75  2  0
 81 82  1  0
 82 83  1  0
 83 84  2  0
 85 84  1  0
 85 89  1  0
 86 85  2  0
 87 82  2  0
 87 86  1  0
 88 87  1  0
 90 91  1  0
 91 94  1  0
 91 93  1  0
 92 90  2  0
 95 96  1  0
 95 70  1  0
 97 95  1  0
 98 99  1  0
100 99  1  0
100101  1  0
101103  1  0
102100  2  0
104101  1  0
M  ISO  4  17 101  18 101  60 100  68 100
M  END
>  <TORSDO>  (65) 
F 30

>  <SCORE>  (65) 
-7.724

>  <name>  (65) 
64

>  <ligand_id>  (65) 
64

>  <original_smiles>  (65) 
[H]c1c([H])c([H])c2c(c1[H])C([H])([H])C([H])([H])C([H])([H])C2([H])N([H])C(=O)C1([H])N(C(=O)C([H])(N([H])C(=O)C([H])(N([H])C([H])([H])[H])C([H])([H])[H])C(C([H])([H])[H])(C([H])([H])[H])C([H])([H])[H])C([H])([H])c2c([H])c(OC([H])([H])C([H])(C([H])([H])C([H])([H])C([H])(C([H])([H])C([H])([H])C([H])([H])C([H])([H])[N+]([H])([H])[H])C([H])(N([H])C(=O)N3C([H])([H])C([H])([H])C([H])([H])C([H])(n4nc(-c5c([H])c([H])c(Oc6c([H])c([H])c(F)c([H])c6F)c([H])c5[H])c(C(=O)N([H])[H])c4N([H])[H])C3([H])[H])C([H])([H])C([H])([H])C(=O)N([H])[H])[N+]([H])([H])[H])c([H])c([H])c2C1([H])[H]

>  <smiles>  (65) 
[H]c1c([H])c([H])c2c(c1[H])C([H])([H])C([H])([H])C([H])([H])C2([H])N([H])C(=O)C1([H])N(C(=O)C([H])(N([H])C(=O)C([H])(N([H])C([H])([H])[H])C([H])([H])[H])C(C([H])([H])[H])(C([H])([H])[H])C([H])([H])[H])C([H])([H])c2c([H])c(OC([H])([H])C([H])(C([H])([H])C([H])([H])C([H])(C([H])([H])C([H])([H])C([H])([H])C([H])([H])[N+]([H])([H])[H])C([H])(N([H])C(=O)N3C([H])([H])C([H])([H])C([H])([H])C([H])(n4nc(-c5c([H])c([H])c(Oc6c([H])c([H])c(F)c([H])c6F)c([H])c5[H])c(C(=O)N([H])[H])c4N([H])[H])C3([H])[H])C([H])([H])C([H])([H])C(=O)N([H])[H])[N+]([H])([H])[H])c([H])c([H])c2C1([H])[H]

$$$$
66:0:0
     RDKit          3D

108116  0  0  1  0  0  0  0  0999 V2000
  -24.8370  -25.5510   23.7270 C   0  0  0  0  0  3  0  0  0  0  0  0
  -25.7760  -24.5730   22.9640 C   0  0  0  0  0  0  0  0  0  0  0  0
  -26.9840  -27.1550   20.8760 C   0  0  0  0  0  2  0  0  0  0  0  0
  -27.3980  -27.4500   22.3220 C   0  0  0  0  0  2  0  0  0  0  0  0
  -27.7340  -25.9230   20.3350 C   0  0  0  0  0  2  0  0  0  0  0  0
  -27.7220  -26.1490   23.0900 C   0  0  0  0  0  2  0  0  0  0  0  0
  -27.4580  -24.6290   21.1640 C   0  0  0  0  0  3  0  0  0  0  0  0
  -26.9920  -25.0040   22.5230 N   0  0  0  0  0  0  0  0  0  0  0  0
  -25.3500  -23.4500   22.6870 O   0  0  0  0  0  0  0  0  0  0  0  0
  -28.6270  -23.5690   21.1380 C   0  0  0  0  0  2  0  0  0  0  0  0
  -28.9550  -22.9660   19.8520 O   0  0  0  0  0  0  0  0  0  0  0  0
  -26.1180  -26.8190   14.7410 C   0  0  0  0  0  0  0  0  0  0  0  0
  -27.9130  -22.9750   18.9590 C   0  0  0  0  0  0  0  0  0  0  0  0
  -24.5750  -25.2530   15.8800 C   0  0  0  0  0  3  0  0  0  0  0  0
  -25.6780  -23.4650   17.3270 C   0  0  0  0  0  0  0  0  0  0  0  0
  -27.0610  -24.6890   15.6380 C   0  0  0  0  0  2  0  0  0  0  0  0
  -26.9440  -23.8940   16.9180 C   0  0  0  0  0  0  0  0  0  0  0  0
  -28.0730  -23.6240   17.7180 C   0  0  0  0  0  3  0  0  0  0  0  0
  -26.6430  -22.5090   19.3470 C   0  0  0  0  0  3  0  0  0  0  0  0
  -25.5190  -22.7560   18.5320 C   0  0  0  0  0  3  0  0  0  0  0  0
  -24.5200  -23.7980   16.4170 C   0  0  0  0  0  2  0  0  0  0  0  0
  -25.9470  -25.6460   15.4190 N   0  0  0  0  0  0  0  0  0  0  0  0
  -25.1530  -27.5500   14.4680 O   0  0  0  0  0  0  0  0  0  0  0  0
  -23.9960  -26.2010   16.9480 C   0  0  0  0  0  0  0  0  0  0  0  0
  -22.6940  -26.0490   17.2480 N   0  0  0  0  0  0  0  0  0  0  0  0
  -24.7150  -27.0240   17.5180 O   0  0  0  0  0  0  0  0  0  0  0  0
  -22.1680  -25.3430   16.7510 H   0  0  0  0  0  0  0  0  0  0  0  0
  -19.6000  -26.1720   19.0960 C   0  0  0  0  0  0  0  0  0  0  0  0
  -21.9620  -26.8070   18.2610 C   0  0  0  0  0  3  0  0  0  0  0  0
  -22.4580  -26.4460   19.6800 C   0  0  0  0  0  2  0  0  0  0  0  0
  -21.6370  -25.3460   20.3500 C   0  0  0  0  0  2  0  0  0  0  0  0
  -20.1580  -25.7410   20.4410 C   0  0  0  0  0  2  0  0  0  0  0  0
  -20.4490  -26.6660   18.0730 C   0  0  0  0  0  0  0  0  0  0  0  0
  -19.8850  -27.0300   16.8330 C   0  0  0  0  0  3  0  0  0  0  0  0
  -18.5000  -26.9050   16.6090 C   0  0  0  0  0  3  0  0  0  0  0  0
  -17.6570  -26.4360   17.6310 C   0  0  0  0  0  3  0  0  0  0  0  0
  -18.2100  -26.0690   18.8730 C   0  0  0  0  0  3  0  0  0  0  0  0
  -27.5240  -27.2860   14.2570 C   0  0  0  0  0  3  0  0  0  0  0  0
  -27.3910  -27.7220   12.8620 N   0  0  0  0  0  0  0  0  0  0  0  0
  -27.6700  -26.9610   11.7990 C   0  0  0  0  0  0  0  0  0  0  0  0
  -28.1350  -25.8210   11.8980 O   0  0  0  0  0  0  0  0  0  0  0  0
  -26.9790  -28.6310   12.7090 H   0  0  0  0  0  0  0  0  0  0  0  0
  -26.0370  -27.0140    9.8870 C   0  0  0  0  0  1  0  0  0  0  0  0
  -27.3790  -27.5550   10.4050 C   0  0  0  0  0  3  0  0  0  0  0  0
  -29.6910  -27.9720    9.6980 C   0  0  0  0  0  1  0  0  0  0  0  0
  -28.4390  -27.2770    9.4150 N   0  0  0  0  0  0  0  0  0  0  0  0
  -28.1360  -27.5240    8.4770 H   0  0  0  0  0  0  0  0  0  0  0  0
  -28.1410  -28.4440   15.1330 C   0  0  1  0  0  0  0  0  0  0  0  0
  -27.2200  -29.6820   15.2720 C   0  0  0  0  0  1  0  0  0  0  0  0
  -28.4530  -27.9280   16.5470 C   0  0  0  0  0  1  0  0  0  0  0  0
  -29.4880  -28.9170   14.5350 C   0  0  0  0  0  1  0  0  0  0  0  0
  -23.8510  -26.2040   22.7250 C   0  0  0  0  0  2  0  0  0  0  0  0
  -23.5710  -27.7110   22.9500 C   0  0  0  0  0  2  0  0  0  0  0  0
  -23.3360  -28.4530   21.6150 C   0  0  0  0  0  2  0  0  0  0  0  0
  -23.6190  -29.9060   21.6580 N   0  0  0  0  0  4  0  0  0  0  0  0
  -24.4030  -30.0900   22.2620 H   0  0  0  0  0  0  0  0  0  0  0  0
  -22.8150  -30.3800   22.0380 H   0  0  0  0  0  0  0  0  0  0  0  0
  -23.9290  -30.4960   20.3350 C   0  0  0  0  0  2  0  0  0  0  0  0
  -23.3160  -31.9000   20.1750 C   0  0  0  0  0  2  0  0  0  0  0  0
  -23.6250  -32.4660   18.8730 N   0  0  0  0  0  0  0  0  0  0  0  0
  -24.6270  -32.6380   18.8020 H   0  0  0  0  0  0  0  0  0  0  0  0
  -23.2010  -33.3890   18.7910 H   0  0  0  0  0  0  0  0  0  0  0  0
  -24.1250  -24.8720   24.9270 C   0  0  0  0  0  2  0  0  0  0  0  0
  -25.1040  -24.7520   26.1000 C   0  0  0  0  0  2  0  0  0  0  0  0
  -24.5620  -24.7540   27.5260 C   0  0  0  0  0  2  0  0  0  0  0  0
  -24.9490  -23.3960   28.1280 C   0  0  0  0  0  2  0  0  0  0  0  0
  -23.9040  -22.7350   29.0040 C   0  0  0  0  0  2  0  0  0  0  0  0
  -23.9550  -21.2120   28.8010 C   0  0  0  0  0  2  0  0  0  0  0  0
  -22.5960  -20.5860   29.0740 C   0  0  0  0  0  2  0  0  0  0  0  0
  -22.5550  -19.0530   28.9740 C   0  0  0  0  0  2  0  0  0  0  0  0
  -20.7100  -17.4380   29.4370 C   0  0  0  0  0  0  0  0  0  0  0  0
  -18.5470  -16.2410   29.3430 C   0  0  0  0  0  2  0  0  0  0  0  0
  -18.3030  -15.6280   27.9490 C   0  0  0  0  0  2  0  0  0  0  0  0
  -17.6520  -16.6560   27.0030 C   0  0  0  0  0  2  0  0  0  0  0  0
  -18.4150  -18.0030   26.9870 C   0  0  0  0  0  3  0  0  0  0  0  0
  -18.6590  -18.4930   28.4330 C   0  0  0  0  0  2  0  0  0  0  0  0
  -19.3780  -17.4410   29.1890 N   0  0  0  0  0  0  0  0  0  0  0  0
  -21.3670  -16.4270   29.7090 O   0  0  0  0  0  0  0  0  0  0  0  0
  -21.2350  -18.6630   29.4340 N   0  0  0  0  0  0  0  0  0  0  0  0
  -20.5400  -19.3960   29.4090 H   0  0  0  0  0  0  0  0  0  0  0  0
  -18.0880  -19.6230   25.0020 C   0  0  0  0  0  0  0  0  0  0  0  0
  -17.0350  -20.4290   24.6450 C   0  0  0  0  0  0  0  0  0  0  0  0
  -16.0410  -20.2470   25.6520 C   0  0  0  0  0  0  0  0  0  0  0  0
  -17.7100  -19.0090   26.1890 N   0  0  0  0  0  0  0  0  0  0  0  0
  -16.4870  -19.4330   26.6010 N   0  0  0  0  0  0  0  0  0  0  0  0
  -14.6680  -20.7600   25.7470 C   0  0  0  0  0  0  0  0  0  0  0  0
  -14.1520  -21.2730   26.9570 C   0  0  0  0  0  3  0  0  0  0  0  0
  -12.8350  -21.7770   27.0180 C   0  0  0  0  0  3  0  0  0  0  0  0
  -12.0210  -21.7750   25.8600 C   0  0  0  0  0  0  0  0  0  0  0  0
  -12.5320  -21.2410   24.6630 C   0  0  0  0  0  3  0  0  0  0  0  0
  -13.8410  -20.7360   24.6070 C   0  0  0  0  0  3  0  0  0  0  0  0
  -10.7210  -22.2220   25.8300 O   0  0  0  0  0  0  0  0  0  0  0  0
  -10.1830  -22.9400   26.8680 C   0  0  0  0  0  0  0  0  0  0  0  0
  -10.7450  -24.1600   27.3040 C   0  0  0  0  0  3  0  0  0  0  0  0
  -10.1190  -24.8990   28.3270 C   0  0  0  0  0  3  0  0  0  0  0  0
   -8.9270  -24.4250   28.9090 C   0  0  0  0  0  0  0  0  0  0  0  0
   -8.3630  -23.2130   28.4730 C   0  0  0  0  0  3  0  0  0  0  0  0
   -8.9890  -22.4740   27.4530 C   0  0  0  0  0  0  0  0  0  0  0  0
   -8.4290  -21.3170   27.0230 F   0  0  0  0  0  0  0  0  0  0  0  0
   -8.3200  -25.1370   29.8860 F   0  0  0  0  0  0  0  0  0  0  0  0
  -16.9160  -21.2470   23.3910 C   0  0  0  0  0  0  0  0  0  0  0  0
  -16.1950  -22.3620   23.4540 N   0  0  0  0  0  0  0  0  0  0  0  0
  -17.5040  -20.9270   22.3600 O   0  0  0  0  0  0  0  0  0  0  0  0
  -15.7250  -22.6320   24.3050 H   0  0  0  0  0  0  0  0  0  0  0  0
  -16.1120  -22.9520   22.6380 H   0  0  0  0  0  0  0  0  0  0  0  0
  -19.3180  -19.3500   24.4140 N   0  0  0  0  0  0  0  0  0  0  0  0
  -19.6010  -19.7480   23.5250 H   0  0  0  0  0  0  0  0  0  0  0  0
  -19.9980  -18.7020   24.7920 H   0  0  0  0  0  0  0  0  0  0  0  0
  1 52  1  0
  1 63  1  0
  2  1  1  0
  3  4  1  0
  4  6  1  0
  5  3  1  0
  5  7  1  0
  7 10  1  0
  7  8  1  0
  8  2  1  0
  8  6  1  0
  9  2  2  0
 11 10  1  0
 12 22  1  0
 13 19  1  0
 13 11  1  0
 14 21  1  0
 14 24  1  0
 15 20  1  0
 16 17  1  0
 17 15  2  0
 17 18  1  0
 18 13  2  0
 20 19  2  0
 21 15  1  0
 22 16  1  0
 22 14  1  0
 23 12  2  0
 24 25  1  0
 24 26  2  0
 27 25  1  0
 28 32  1  0
 29 25  1  0
 29 30  1  0
 30 31  1  0
 31 32  1  0
 33 29  1  0
 33 28  2  0
 34 33  1  0
 35 34  2  0
 35 36  1  0
 36 37  2  0
 37 28  1  0
 38 12  1  0
 38 48  1  0
 39 38  1  0
 40 41  2  0
 40 39  1  0
 42 39  1  0
 44 43  1  0
 44 40  1  0
 46 45  1  0
 46 44  1  0
 47 46  1  0
 48 49  1  1
 48 50  1  0
 51 48  1  0
 52 53  1  0
 54 55  1  0
 54 53  1  0
 55 57  1  0
 55 56  1  0
 58 55  1  0
 59 58  1  0
 60 59  1  0
 61 60  1  0
 62 60  1  0
 63 64  1  0
 64 65  1  0
 65 66  1  0
 66 67  1  0
 68 67  1  0
 68 69  1  0
 70 69  1  0
 70 79  1  0
 71 78  2  0
 73 72  1  0
 74 73  1  0
 75 84  1  0
 75 74  1  0
 75 76  1  0
 76 77  1  0
 77 72  1  0
 77 71  1  0
 79 71  1  0
 80 79  1  0
 81 84  1  0
 82 81  2  0
 82 83  1  0
 83 86  1  0
 83 85  2  0
 84 85  1  0
 86 87  1  0
 87 88  2  0
 89 88  1  0
 90 89  2  0
 91 90  1  0
 91 86  2  0
 92 89  1  0
 92 93  1  0
 93 94  2  0
 93 98  1  0
 94 95  1  0
 95 96  2  0
 96100  1  0
 97 96  1  0
 98 97  2  0
 99 98  1  0
101102  1  0
101 82  1  0
102104  1  0
103101  2  0
105102  1  0
106108  1  0
106 81  1  0
107106  1  0
M  ISO  4  10 101  11 101  71 100  79 100
M  END
>  <TORSDO>  (66) 
F 33

>  <SCORE>  (66) 
35.173

>  <name>  (66) 
66

>  <ligand_id>  (66) 
66

>  <original_smiles>  (66) 
[H]c1c([H])c([H])c2c(c1[H])C([H])([H])C([H])([H])C([H])([H])C2([H])N([H])C(=O)C1([H])N(C(=O)C([H])(N([H])C(=O)C([H])(N([H])C([H])([H])[H])C([H])([H])[H])C(C([H])([H])[H])(C([H])([H])[H])C([H])([H])[H])C([H])([H])c2c([H])c(OC([H])([H])C3([H])N(C(=O)C([H])(C([H])([H])C([H])([H])C([H])([H])C([H])([H])C([H])([H])C([H])([H])C([H])([H])C([H])([H])N([H])C(=O)N4C([H])([H])C([H])([H])C([H])([H])C([H])(n5nc(-c6c([H])c([H])c(Oc7c([H])c([H])c(F)c([H])c7F)c([H])c6[H])c(C(=O)N([H])[H])c5N([H])[H])C4([H])[H])C([H])([H])C([H])([H])C([H])([H])[N+]([H])([H])C([H])([H])C([H])([H])N([H])[H])C([H])([H])C([H])([H])C([H])([H])C3([H])[H])c([H])c([H])c2C1([H])[H]

>  <smiles>  (66) 
[H]c1c([H])c([H])c2c(c1[H])C([H])([H])C([H])([H])C([H])([H])C2([H])N([H])C(=O)C1([H])N(C(=O)C([H])(N([H])C(=O)C([H])(N([H])C([H])([H])[H])C([H])([H])[H])C(C([H])([H])[H])(C([H])([H])[H])C([H])([H])[H])C([H])([H])c2c([H])c(OC([H])([H])C3([H])N(C(=O)C([H])(C([H])([H])C([H])([H])C([H])([H])C([H])([H])C([H])([H])C([H])([H])C([H])([H])C([H])([H])N([H])C(=O)N4C([H])([H])C([H])([H])C([H])([H])C([H])(n5nc(-c6c([H])c([H])c(Oc7c([H])c([H])c(F)c([H])c7F)c([H])c6[H])c(C(=O)N([H])[H])c5N([H])[H])C4([H])[H])C([H])([H])C([H])([H])C([H])([H])[N+]([H])([H])C([H])([H])C([H])([H])N([H])[H])C([H])([H])C([H])([H])C([H])([H])C3([H])[H])c([H])c([H])c2C1([H])[H]

$$$$
67:0:0
     RDKit          3D

 88 96  0  0  1  0  0  0  0  0999 V2000
  -28.6430  -21.1690   20.3600 C   0  0  0  0  0  2  0  0  0  0  0  0
  -28.9000  -19.4440   18.2780 C   0  0  0  0  0  1  0  0  0  0  0  0
  -29.3470  -19.6490   19.7310 C   0  0  0  0  0  3  0  0  0  0  0  0
  -30.6260  -15.2260   19.9180 C   0  0  0  0  0  0  0  0  0  0  0  0
  -30.2860  -12.8820   18.9100 C   0  0  0  0  0  2  0  0  0  0  0  0
  -29.2760  -12.6840   17.7640 C   0  0  0  0  0  2  0  0  0  0  0  0
  -27.8780  -12.4220   18.3360 C   0  0  0  0  0  2  0  0  0  0  0  0
  -27.5360  -13.3790   19.5050 C   0  0  0  0  0  3  0  0  0  0  0  0
  -28.6840  -13.5580   20.5220 C   0  0  0  0  0  2  0  0  0  0  0  0
  -29.8330  -14.0620   19.7460 N   0  0  0  0  0  0  0  0  0  0  0  0
  -31.8150  -14.9080   19.7700 O   0  0  0  0  0  0  0  0  0  0  0  0
  -31.5640  -18.1640   21.3010 C   0  0  0  0  0  2  0  0  0  0  0  0
  -30.0970  -18.1690   21.7280 C   0  0  0  0  0  2  0  0  0  0  0  0
  -31.5580  -17.5150   19.8960 C   0  0  0  0  0  2  0  0  0  0  0  0
  -29.4140  -17.9760   20.3870 C   0  0  0  0  0  3  0  0  0  0  0  0
  -30.3140  -16.7020   19.8390 N   0  0  0  0  0  0  0  0  0  0  0  0
  -25.2430  -13.9160   20.4710 C   0  0  0  0  0  0  0  0  0  0  0  0
  -24.2050  -13.1280   20.8850 C   0  0  0  0  0  0  0  0  0  0  0  0
  -24.6660  -11.7790   20.7840 C   0  0  0  0  0  0  0  0  0  0  0  0
  -26.2610  -13.0480   20.1280 N   0  0  0  0  0  0  0  0  0  0  0  0
  -25.9330  -11.7540   20.3850 N   0  0  0  0  0  0  0  0  0  0  0  0
  -23.9510  -10.5110   20.9820 C   0  0  0  0  0  0  0  0  0  0  0  0
  -24.4070   -9.5390   21.9000 C   0  0  0  0  0  3  0  0  0  0  0  0
  -23.6860   -8.3400   22.0910 C   0  0  0  0  0  3  0  0  0  0  0  0
  -22.4940   -8.1060   21.3640 C   0  0  0  0  0  0  0  0  0  0  0  0
  -22.0570   -9.0660   20.4330 C   0  0  0  0  0  3  0  0  0  0  0  0
  -22.7800  -10.2560   20.2410 C   0  0  0  0  0  3  0  0  0  0  0  0
  -21.7420   -6.9610   21.4650 O   0  0  0  0  0  0  0  0  0  0  0  0
  -21.6840   -6.2380   22.6300 C   0  0  0  0  0  0  0  0  0  0  0  0
  -21.2160   -6.8050   23.8360 C   0  0  0  0  0  3  0  0  0  0  0  0
  -21.1110   -6.0090   24.9940 C   0  0  0  0  0  3  0  0  0  0  0  0
  -21.4600   -4.6460   24.9450 C   0  0  0  0  0  0  0  0  0  0  0  0
  -21.9210   -4.0780   23.7440 C   0  0  0  0  0  3  0  0  0  0  0  0
  -22.0290   -4.8730   22.5890 C   0  0  0  0  0  0  0  0  0  0  0  0
  -22.4530   -4.3150   21.4290 F   0  0  0  0  0  0  0  0  0  0  0  0
  -21.3510   -3.8790   26.0540 F   0  0  0  0  0  0  0  0  0  0  0  0
  -22.8310  -13.5980   21.2570 C   0  0  0  0  0  0  0  0  0  0  0  0
  -22.1580  -12.8750   22.1440 N   0  0  0  0  0  0  0  0  0  0  0  0
  -22.3650  -14.6410   20.7990 O   0  0  0  0  0  0  0  0  0  0  0  0
  -22.5460  -12.0270   22.5300 H   0  0  0  0  0  0  0  0  0  0  0  0
  -21.2400  -13.1710   22.4410 H   0  0  0  0  0  0  0  0  0  0  0  0
  -25.4010  -15.2910   20.3210 N   0  0  0  0  0  0  0  0  0  0  0  0
  -24.6540  -15.9520   20.5090 H   0  0  0  0  0  0  0  0  0  0  0  0
  -26.2430  -15.7350   19.9750 H   0  0  0  0  0  0  0  0  0  0  0  0
  -28.5320  -22.9460   18.3720 C   0  0  0  0  0  1  0  0  0  0  0  0
  -28.7850  -22.8870   19.8820 C   0  0  0  0  0  3  0  0  0  0  0  0
  -28.0040  -24.3570   20.5060 C   0  0  0  0  0  2  0  0  0  0  0  0
  -28.2720  -25.9560   20.3380 O   0  0  0  0  0  0  0  0  0  0  0  0
  -24.6730  -31.8960   23.2580 C   0  0  0  0  0  0  0  0  0  0  0  0
  -27.2510  -27.0250   20.3160 C   0  0  0  0  0  0  0  0  0  0  0  0
  -23.4940  -30.4790   21.6310 C   0  0  0  0  0  3  0  0  0  0  0  0
  -24.9500  -28.8680   20.2420 C   0  0  0  0  0  0  0  0  0  0  0  0
  -26.0600  -30.7050   21.4960 C   0  0  0  0  0  2  0  0  0  0  0  0
  -26.1350  -29.2940   20.8540 C   0  0  0  0  0  0  0  0  0  0  0  0
  -27.2900  -28.3950   20.8610 C   0  0  0  0  0  3  0  0  0  0  0  0
  -26.0380  -26.7390   19.6580 C   0  0  0  0  0  3  0  0  0  0  0  0
  -24.9230  -27.6090   19.6240 C   0  0  0  0  0  3  0  0  0  0  0  0
  -23.7280  -29.7820   20.2680 C   0  0  0  0  0  2  0  0  0  0  0  0
  -24.7640  -31.0530   22.1810 N   0  0  0  0  0  0  0  0  0  0  0  0
  -23.5780  -32.1890   23.7680 O   0  0  0  0  0  0  0  0  0  0  0  0
  -22.8010  -29.4890   22.6030 C   0  0  0  0  0  0  0  0  0  0  0  0
  -21.4710  -29.3190   22.4710 N   0  0  0  0  0  0  0  0  0  0  0  0
  -23.4660  -28.8740   23.4410 O   0  0  0  0  0  0  0  0  0  0  0  0
  -20.9910  -29.8650   21.7720 H   0  0  0  0  0  0  0  0  0  0  0  0
  -18.0880  -28.1050   22.9620 C   0  0  0  0  0  0  0  0  0  0  0  0
  -20.6450  -28.3850   23.2440 C   0  0  0  0  0  3  0  0  0  0  0  0
  -20.7540  -26.9450   22.6870 C   0  0  0  0  0  2  0  0  0  0  0  0
  -19.6620  -26.6050   21.6700 C   0  0  0  0  0  2  0  0  0  0  0  0
  -18.2740  -26.7490   22.3020 C   0  0  0  0  0  2  0  0  0  0  0  0
  -19.2000  -28.8810   23.3900 C   0  0  0  0  0  0  0  0  0  0  0  0
  -18.9690  -30.1470   23.9700 C   0  0  0  0  0  3  0  0  0  0  0  0
  -17.6600  -30.6400   24.1270 C   0  0  0  0  0  3  0  0  0  0  0  0
  -16.5620  -29.8630   23.7150 C   0  0  0  0  0  3  0  0  0  0  0  0
  -16.7770  -28.5990   23.1380 C   0  0  0  0  0  3  0  0  0  0  0  0
  -25.9390  -32.5480   23.8930 C   0  0  0  0  0  3  0  0  0  0  0  0
  -26.4280  -31.8080   25.1990 C   0  0  1  0  0  0  0  0  0  0  0  0
  -25.3130  -31.5970   26.2510 C   0  0  0  0  0  1  0  0  0  0  0  0
  -27.0180  -30.4200   24.8620 C   0  0  0  0  0  1  0  0  0  0  0  0
  -27.5670  -32.6190   25.8630 C   0  0  0  0  0  1  0  0  0  0  0  0
  -25.6180  -33.9540   24.1960 N   0  0  0  0  0  0  0  0  0  0  0  0
  -25.9600  -35.0010   23.4340 C   0  0  0  0  0  0  0  0  0  0  0  0
  -26.6410  -34.8870   22.4120 O   0  0  0  0  0  0  0  0  0  0  0  0
  -25.0090  -34.1140   24.9850 H   0  0  0  0  0  0  0  0  0  0  0  0
  -24.2400  -36.8000   23.0480 C   0  0  0  0  0  1  0  0  0  0  0  0
  -25.4730  -36.3970   23.8740 C   0  0  0  0  0  3  0  0  0  0  0  0
  -27.6000  -37.2920   24.7200 C   0  0  0  0  0  1  0  0  0  0  0  0
  -26.5110  -37.4460   23.7580 N   0  0  0  0  0  0  0  0  0  0  0  0
  -26.1040  -38.3690   23.8860 H   0  0  0  0  0  0  0  0  0  0  0  0
  3  2  1  0
  3  1  1  0
  5 10  1  0
  6  7  1  0
  6  5  1  0
  8  7  1  0
  8 20  1  0
  8  9  1  0
 10  4  1  0
 10  9  1  0
 11  4  2  0
 12 13  1  0
 14 12  1  0
 15  3  1  0
 15 13  1  0
 16 14  1  0
 16  4  1  0
 16 15  1  0
 17 18  2  0
 18 37  1  0
 19 18  1  0
 19 22  1  0
 20 21  1  0
 20 17  1  0
 21 19  2  0
 22 23  1  0
 23 24  2  0
 25 28  1  0
 25 24  1  0
 26 25  2  0
 27 26  1  0
 27 22  2  0
 28 29  1  0
 29 30  1  0
 30 31  2  0
 32 31  1  0
 32 36  1  0
 33 32  2  0
 34 29  2  0
 34 33  1  0
 35 34  1  0
 37 38  1  0
 38 41  1  0
 38 40  1  0
 39 37  2  0
 42 17  1  0
 42 43  1  0
 44 42  1  0
 46 45  1  0
 46  1  1  0
 46 47  1  0
 48 47  1  0
 49 60  2  0
 50 48  1  0
 50 55  1  0
 51 59  1  0
 51 61  1  0
 52 58  1  0
 52 54  1  0
 53 59  1  0
 54 55  2  0
 54 53  1  0
 56 50  2  0
 57 56  1  0
 57 52  2  0
 58 51  1  0
 59 49  1  0
 61 63  2  0
 62 61  1  0
 64 62  1  0
 65 74  2  0
 65 70  1  0
 66 62  1  0
 66 70  1  0
 67 66  1  0
 68 69  1  0
 68 67  1  0
 69 65  1  0
 70 71  2  0
 71 72  1  0
 73 72  2  0
 74 73  1  0
 75 49  1  0
 75 80  1  0
 75 76  1  0
 76 79  1  1
 76 77  1  0
 78 76  1  0
 80 83  1  0
 81 85  1  0
 81 80  1  0
 82 81  2  0
 85 84  1  0
 87 85  1  0
 87 88  1  0
 87 86  1  0
M  ISO  4   4 100  16 100  47 101  48 101
M  END
>  <TORSDO>  (67) 
F 19

>  <SCORE>  (67) 
-16.008

>  <name>  (67) 
67

>  <ligand_id>  (67) 
67

>  <original_smiles>  (67) 
[H]c1c([H])c([H])c2c(c1[H])C([H])([H])C([H])([H])C([H])([H])C2([H])N([H])C(=O)C1([H])N(C(=O)C([H])(N([H])C(=O)C([H])(N([H])C([H])([H])[H])C([H])([H])[H])C(C([H])([H])[H])(C([H])([H])[H])C([H])([H])[H])C([H])([H])c2c([H])c(OC([H])([H])C([H])(C([H])([H])[H])C([H])([H])C([H])(C([H])([H])[H])C3([H])N(C(=O)N4C([H])([H])C([H])([H])C([H])([H])C([H])(n5nc(-c6c([H])c([H])c(Oc7c([H])c([H])c(F)c([H])c7F)c([H])c6[H])c(C(=O)N([H])[H])c5N([H])[H])C4([H])[H])C([H])([H])C([H])([H])C3([H])[H])c([H])c([H])c2C1([H])[H]

>  <smiles>  (67) 
[H]c1c([H])c([H])c2c(c1[H])C([H])([H])C([H])([H])C([H])([H])C2([H])N([H])C(=O)C1([H])N(C(=O)C([H])(N([H])C(=O)C([H])(N([H])C([H])([H])[H])C([H])([H])[H])C(C([H])([H])[H])(C([H])([H])[H])C([H])([H])[H])C([H])([H])c2c([H])c(OC([H])([H])C([H])(C([H])([H])[H])C([H])([H])C([H])(C([H])([H])[H])C3([H])N(C(=O)N4C([H])([H])C([H])([H])C([H])([H])C([H])(n5nc(-c6c([H])c([H])c(Oc7c([H])c([H])c(F)c([H])c7F)c([H])c6[H])c(C(=O)N([H])[H])c5N([H])[H])C4([H])[H])C([H])([H])C([H])([H])C3([H])[H])c([H])c([H])c2C1([H])[H]

$$$$
68:0:0
     RDKit          3D

 89 96  0  0  1  0  0  0  0  0999 V2000
  -29.2250  -21.7050   22.4050 C   0  0  0  0  0  1  0  0  0  0  0  0
  -29.3080  -21.4610   20.8650 C   0  0  0  0  0  3  0  0  0  0  0  0
  -28.6800  -22.9570   20.1240 C   0  0  0  0  0  2  0  0  0  0  0  0
  -28.2290  -24.5550   20.7760 C   0  0  0  0  0  2  0  0  0  0  0  0
  -28.2510  -26.1060   20.2550 O   0  0  0  0  0  0  0  0  0  0  0  0
  -24.5980  -31.9710   23.2260 C   0  0  0  0  0  0  0  0  0  0  0  0
  -27.1790  -27.1300   20.2680 C   0  0  0  0  0  0  0  0  0  0  0  0
  -23.3980  -30.5530   21.6030 C   0  0  0  0  0  3  0  0  0  0  0  0
  -24.8480  -28.9510   20.1920 C   0  0  0  0  0  0  0  0  0  0  0  0
  -25.9530  -30.8060   21.4240 C   0  0  0  0  0  2  0  0  0  0  0  0
  -26.0330  -29.3910   20.7920 C   0  0  0  0  0  0  0  0  0  0  0  0
  -27.1970  -28.5060   20.7940 C   0  0  0  0  0  3  0  0  0  0  0  0
  -25.9600  -26.8210   19.6240 C   0  0  0  0  0  3  0  0  0  0  0  0
  -24.8350  -27.6860   19.5760 C   0  0  0  0  0  3  0  0  0  0  0  0
  -23.6160  -29.8520   20.2350 C   0  0  0  0  0  2  0  0  0  0  0  0
  -24.6700  -31.1370   22.1390 N   0  0  0  0  0  0  0  0  0  0  0  0
  -23.5120  -32.2520   23.7580 O   0  0  0  0  0  0  0  0  0  0  0  0
  -22.7190  -29.5630   22.5850 C   0  0  0  0  0  0  0  0  0  0  0  0
  -21.3960  -29.3580   22.4430 N   0  0  0  0  0  0  0  0  0  0  0  0
  -23.3900  -28.9770   23.4360 O   0  0  0  0  0  0  0  0  0  0  0  0
  -20.9090  -29.8750   21.7250 H   0  0  0  0  0  0  0  0  0  0  0  0
  -18.0500  -28.0350   22.9000 C   0  0  0  0  0  0  0  0  0  0  0  0
  -20.5900  -28.4150   23.2230 C   0  0  0  0  0  3  0  0  0  0  0  0
  -20.7650  -26.9710   22.7000 C   0  0  0  0  0  2  0  0  0  0  0  0
  -19.7050  -26.5670   21.6690 C   0  0  0  0  0  2  0  0  0  0  0  0
  -18.3020  -26.6760   22.2710 C   0  0  0  0  0  2  0  0  0  0  0  0
  -19.1240  -28.8590   23.3330 C   0  0  0  0  0  0  0  0  0  0  0  0
  -18.8340  -30.1270   23.8810 C   0  0  0  0  0  3  0  0  0  0  0  0
  -17.5050  -30.5730   24.0040 C   0  0  0  0  0  3  0  0  0  0  0  0
  -16.4460  -29.7480   23.5880 C   0  0  0  0  0  3  0  0  0  0  0  0
  -16.7190  -28.4830   23.0390 C   0  0  0  0  0  3  0  0  0  0  0  0
  -25.8710  -32.6220   23.8410 C   0  0  0  0  0  3  0  0  0  0  0  0
  -25.5490  -34.0210   24.1680 N   0  0  0  0  0  0  0  0  0  0  0  0
  -25.8820  -35.0820   23.4160 C   0  0  0  0  0  0  0  0  0  0  0  0
  -26.5510  -34.9820   22.3860 O   0  0  0  0  0  0  0  0  0  0  0  0
  -24.9490  -34.1680   24.9650 H   0  0  0  0  0  0  0  0  0  0  0  0
  -24.1550  -36.8830   23.0730 C   0  0  0  0  0  1  0  0  0  0  0  0
  -25.3970  -36.4710   23.8810 C   0  0  0  0  0  3  0  0  0  0  0  0
  -27.5320  -37.3600   24.7100 C   0  0  0  0  0  1  0  0  0  0  0  0
  -26.4300  -37.5250   23.7670 N   0  0  0  0  0  0  0  0  0  0  0  0
  -26.0250  -38.4450   23.9100 H   0  0  0  0  0  0  0  0  0  0  0  0
  -26.3880  -31.8660   25.1270 C   0  0  1  0  0  0  0  0  0  0  0  0
  -25.2910  -31.6190   26.1890 C   0  0  0  0  0  1  0  0  0  0  0  0
  -26.9970  -30.4960   24.7550 C   0  0  0  0  0  1  0  0  0  0  0  0
  -27.5180  -32.6840   25.7940 C   0  0  0  0  0  1  0  0  0  0  0  0
  -29.2560  -19.6960   20.4430 C   0  0  0  0  0  2  0  0  0  0  0  0
  -30.3000  -18.2130   20.3030 C   0  0  0  0  0  0  0  0  0  0  0  0
  -30.6020  -15.3040   20.0800 C   0  0  0  0  0  0  0  0  0  0  0  0
  -30.5150  -12.8590   19.2770 C   0  0  0  0  0  2  0  0  0  0  0  0
  -29.5710  -12.6450   18.0680 C   0  0  0  0  0  2  0  0  0  0  0  0
  -28.1350  -12.3870   18.5450 C   0  0  0  0  0  2  0  0  0  0  0  0
  -27.7050  -13.3730   19.6610 C   0  0  0  0  0  3  0  0  0  0  0  0
  -28.7800  -13.5520   20.7580 C   0  0  0  0  0  2  0  0  0  0  0  0
  -29.9980  -14.0250   20.0800 N   0  0  0  0  0  0  0  0  0  0  0  0
  -31.8040  -15.2560   19.8080 O   0  0  0  0  0  0  0  0  0  0  0  0
  -29.8960  -16.5960   20.2020 N   0  0  0  0  0  4  0  0  0  0  0  0
  -28.9120  -16.4400   20.3620 H   0  0  0  0  0  0  0  0  0  0  0  0
  -25.3660  -13.9170   20.5240 C   0  0  0  0  0  0  0  0  0  0  0  0
  -24.3120  -13.1340   20.9040 C   0  0  0  0  0  0  0  0  0  0  0  0
  -24.7690  -11.7840   20.8050 C   0  0  0  0  0  0  0  0  0  0  0  0
  -26.3910  -13.0480   20.2080 N   0  0  0  0  0  0  0  0  0  0  0  0
  -26.0450  -11.7550   20.4400 N   0  0  0  0  0  0  0  0  0  0  0  0
  -24.0400  -10.5200   20.9760 C   0  0  0  0  0  0  0  0  0  0  0  0
  -24.4540   -9.5510   21.9120 C   0  0  0  0  0  3  0  0  0  0  0  0
  -23.7260   -8.3510   22.0730 C   0  0  0  0  0  3  0  0  0  0  0  0
  -22.5680   -8.1130   21.2950 C   0  0  0  0  0  0  0  0  0  0  0  0
  -22.1740   -9.0730   20.3470 C   0  0  0  0  0  3  0  0  0  0  0  0
  -22.9030  -10.2620   20.1860 C   0  0  0  0  0  3  0  0  0  0  0  0
  -21.8140   -6.9670   21.3630 O   0  0  0  0  0  0  0  0  0  0  0  0
  -21.6810   -6.2610   22.5320 C   0  0  0  0  0  0  0  0  0  0  0  0
  -21.1460   -6.8490   23.6990 C   0  0  0  0  0  3  0  0  0  0  0  0
  -20.9600   -6.0690   24.8580 C   0  0  0  0  0  3  0  0  0  0  0  0
  -21.3000   -4.7020   24.8500 C   0  0  0  0  0  0  0  0  0  0  0  0
  -21.8280   -4.1150   23.6880 C   0  0  0  0  0  3  0  0  0  0  0  0
  -22.0160   -4.8920   22.5310 C   0  0  0  0  0  0  0  0  0  0  0  0
  -22.5040   -4.3160   21.4060 F   0  0  0  0  0  0  0  0  0  0  0  0
  -21.1170   -3.9510   25.9610 F   0  0  0  0  0  0  0  0  0  0  0  0
  -22.9300  -13.6080   21.2470 C   0  0  0  0  0  0  0  0  0  0  0  0
  -22.2280  -12.8870   22.1120 N   0  0  0  0  0  0  0  0  0  0  0  0
  -22.4870  -14.6570   20.7860 O   0  0  0  0  0  0  0  0  0  0  0  0
  -22.5980  -12.0400   22.5180 H   0  0  0  0  0  0  0  0  0  0  0  0
  -21.3020  -13.1940   22.3770 H   0  0  0  0  0  0  0  0  0  0  0  0
  -25.5300  -15.2920   20.3880 N   0  0  0  0  0  0  0  0  0  0  0  0
  -24.7720  -15.9470   20.5450 H   0  0  0  0  0  0  0  0  0  0  0  0
  -26.3520  -15.7310   19.9960 H   0  0  0  0  0  0  0  0  0  0  0  0
  -31.4560  -18.6130   19.2800 C   0  0  0  0  0  2  0  0  0  0  0  0
  -33.5250  -19.1470   20.8200 C   0  0  0  0  0  1  0  0  0  0  0  0
  -33.4540  -20.0270   18.4620 C   0  0  0  0  0  1  0  0  0  0  0  0
  -33.0070  -18.8810   19.3910 C   0  0  0  0  0  3  0  0  0  0  0  0
  2  1  1  0
  3  4  1  0
  3  2  1  0
  5  7  1  0
  5  4  1  0
  6 17  2  0
  7 12  1  0
  8 16  1  0
  8 18  1  0
  9 15  1  0
  9 11  1  0
 10 16  1  0
 11 12  2  0
 11 10  1  0
 13  7  2  0
 14 13  1  0
 14  9  2  0
 15  8  1  0
 16  6  1  0
 18 20  2  0
 19 18  1  0
 21 19  1  0
 22 31  2  0
 22 27  1  0
 23 19  1  0
 23 27  1  0
 24 23  1  0
 25 26  1  0
 25 24  1  0
 26 22  1  0
 27 28  2  0
 28 29  1  0
 30 29  2  0
 31 30  1  0
 32  6  1  0
 32 33  1  0
 32 42  1  0
 33 36  1  0
 34 38  1  0
 34 33  1  0
 35 34  2  0
 38 37  1  0
 40 38  1  0
 40 41  1  0
 40 39  1  0
 42 45  1  1
 42 43  1  0
 44 42  1  0
 46  2  1  0
 47 46  1  0
 48 54  1  0
 48 56  1  0
 49 54  1  0
 50 51  1  0
 50 49  1  0
 52 51  1  0
 52 61  1  0
 52 53  1  0
 54 53  1  0
 55 48  2  0
 56 47  2  0
 56 57  1  0
 58 59  2  0
 59 78  1  0
 60 59  1  0
 60 63  1  0
 61 62  1  0
 61 58  1  0
 62 60  2  0
 63 64  1  0
 64 65  2  0
 66 69  1  0
 66 65  1  0
 67 66  2  0
 68 67  1  0
 68 63  2  0
 69 70  1  0
 70 71  1  0
 71 72  2  0
 73 72  1  0
 73 77  1  0
 74 73  2  0
 75 70  2  0
 75 74  1  0
 76 75  1  0
 78 79  1  0
 79 82  1  0
 79 81  1  0
 80 78  2  0
 83 58  1  0
 83 84  1  0
 85 83  1  0
 86 89  1  0
 86 47  1  0
 88 89  1  0
 89 87  1  0
M  ISO  4   4 101   5 101  48 100  56 100
M  END
>  <TORSDO>  (68) 
F 22

>  <SCORE>  (68) 
-14.749

>  <name>  (68) 
68

>  <ligand_id>  (68) 
68

>  <original_smiles>  (68) 
[H]c1c([H])c([H])c2c(c1[H])C([H])([H])C([H])([H])C([H])([H])C2([H])N([H])C(=O)C1([H])N(C(=O)C([H])(N([H])C(=O)C([H])(N([H])C([H])([H])[H])C([H])([H])[H])C(C([H])([H])[H])(C([H])([H])[H])C([H])([H])[H])C([H])([H])c2c([H])c(OC([H])([H])C([H])([H])C([H])(C([H])([H])[H])C([H])([H])C([H])(N([H])C(=O)N3C([H])([H])C([H])([H])C([H])([H])C([H])(n4nc(-c5c([H])c([H])c(Oc6c([H])c([H])c(F)c([H])c6F)c([H])c5[H])c(C(=O)N([H])[H])c4N([H])[H])C3([H])[H])C([H])([H])C([H])(C([H])([H])[H])C([H])([H])[H])c([H])c([H])c2C1([H])[H]

>  <smiles>  (68) 
[H]c1c([H])c([H])c2c(c1[H])C([H])([H])C([H])([H])C([H])([H])C2([H])N([H])C(=O)C1([H])N(C(=O)C([H])(N([H])C(=O)C([H])(N([H])C([H])([H])[H])C([H])([H])[H])C(C([H])([H])[H])(C([H])([H])[H])C([H])([H])[H])C([H])([H])c2c([H])c(OC([H])([H])C([H])([H])C([H])(C([H])([H])[H])C([H])([H])C([H])(N([H])C(=O)N3C([H])([H])C([H])([H])C([H])([H])C([H])(n4nc(-c5c([H])c([H])c(Oc6c([H])c([H])c(F)c([H])c6F)c([H])c5[H])c(C(=O)N([H])[H])c4N([H])[H])C3([H])[H])C([H])([H])C([H])(C([H])([H])[H])C([H])([H])[H])c([H])c([H])c2C1([H])[H]

$$$$
69:0:0
     RDKit          3D

 92 99  0  0  1  0  0  0  0  0999 V2000
  -29.1520  -20.8010   20.0460 C   0  0  0  0  0  2  0  0  0  0  0  0
  -28.2260  -22.0150   19.6110 N   0  0  0  0  0  4  0  0  0  0  0  0
  -28.0790  -21.9140   18.6190 H   0  0  0  0  0  0  0  0  0  0  0  0
  -27.3280  -21.8540   20.0420 H   0  0  0  0  0  0  0  0  0  0  0  0
  -28.6040  -23.5390   19.8680 C   0  0  0  0  0  3  0  0  0  0  0  0
  -27.6130  -24.8410   19.4500 C   0  0  0  0  0  3  0  0  0  0  0  0
  -27.9000  -26.3680   19.6210 O   0  0  0  0  0  0  0  0  0  0  0  0
  -24.4980  -31.9000   23.1110 C   0  0  0  0  0  0  0  0  0  0  0  0
  -26.8420  -27.3480   19.6720 C   0  0  0  0  0  0  0  0  0  0  0  0
  -23.1800  -30.5780   21.5040 C   0  0  0  0  0  3  0  0  0  0  0  0
  -24.5180  -29.0820   19.8990 C   0  0  0  0  0  0  0  0  0  0  0  0
  -25.7150  -30.8620   21.1600 C   0  0  0  0  0  2  0  0  0  0  0  0
  -25.7390  -29.5030   20.4380 C   0  0  0  0  0  0  0  0  0  0  0  0
  -26.9020  -28.6530   20.3100 C   0  0  0  0  0  3  0  0  0  0  0  0
  -25.5910  -27.0320   19.0990 C   0  0  0  0  0  3  0  0  0  0  0  0
  -24.4550  -27.8600   19.2130 C   0  0  0  0  0  3  0  0  0  0  0  0
  -23.2960  -29.9690   20.0810 C   0  0  0  0  0  2  0  0  0  0  0  0
  -24.4870  -31.1330   21.9780 N   0  0  0  0  0  0  0  0  0  0  0  0
  -23.4550  -32.1550   23.7320 O   0  0  0  0  0  0  0  0  0  0  0  0
  -22.5810  -29.5210   22.4650 C   0  0  0  0  0  0  0  0  0  0  0  0
  -21.2680  -29.2570   22.3450 N   0  0  0  0  0  0  0  0  0  0  0  0
  -23.3000  -28.9410   23.2830 O   0  0  0  0  0  0  0  0  0  0  0  0
  -20.7400  -29.7810   21.6600 H   0  0  0  0  0  0  0  0  0  0  0  0
  -18.0080  -27.7380   22.7760 C   0  0  0  0  0  0  0  0  0  0  0  0
  -20.5170  -28.2640   23.1170 C   0  0  0  0  0  3  0  0  0  0  0  0
  -20.7810  -26.8340   22.5900 C   0  0  0  0  0  2  0  0  0  0  0  0
  -19.7530  -26.3740   21.5520 C   0  0  0  0  0  2  0  0  0  0  0  0
  -18.3410  -26.3950   22.1460 C   0  0  0  0  0  2  0  0  0  0  0  0
  -19.0280  -28.6210   23.2170 C   0  0  0  0  0  0  0  0  0  0  0  0
  -18.6640  -29.8700   23.7660 C   0  0  0  0  0  3  0  0  0  0  0  0
  -17.3110  -30.2380   23.8790 C   0  0  0  0  0  3  0  0  0  0  0  0
  -16.3040  -29.3530   23.4530 C   0  0  0  0  0  3  0  0  0  0  0  0
  -16.6520  -28.1070   22.9050 C   0  0  0  0  0  3  0  0  0  0  0  0
  -25.8190  -32.5130   23.6670 C   0  0  0  0  0  3  0  0  0  0  0  0
  -25.5350  -33.9000   24.0670 N   0  0  0  0  0  0  0  0  0  0  0  0
  -25.8380  -34.9840   23.3410 C   0  0  0  0  0  0  0  0  0  0  0  0
  -26.4560  -34.9200   22.2750 O   0  0  0  0  0  0  0  0  0  0  0  0
  -24.9800  -34.0260   24.9010 H   0  0  0  0  0  0  0  0  0  0  0  0
  -24.1170  -36.8120   23.1480 C   0  0  0  0  0  1  0  0  0  0  0  0
  -25.3880  -36.3570   23.8820 C   0  0  0  0  0  3  0  0  0  0  0  0
  -27.5620  -37.1910   24.6600 C   0  0  0  0  0  1  0  0  0  0  0  0
  -26.4250  -37.4040   23.7690 N   0  0  0  0  0  0  0  0  0  0  0  0
  -26.0340  -38.3200   23.9700 H   0  0  0  0  0  0  0  0  0  0  0  0
  -26.4140  -31.7030   24.8860 C   0  0  1  0  0  0  0  0  0  0  0  0
  -25.3790  -31.4010   25.9960 C   0  0  0  0  0  1  0  0  0  0  0  0
  -27.0050  -30.3530   24.4160 C   0  0  0  0  0  1  0  0  0  0  0  0
  -27.5800  -32.4970   25.5200 C   0  0  0  0  0  1  0  0  0  0  0  0
  -28.6950  -18.9220   18.2680 C   0  0  0  0  0  1  0  0  0  0  0  0
  -28.8020  -19.1590   19.7820 C   0  0  0  0  0  3  0  0  0  0  0  0
  -29.7030  -17.8790   20.4370 C   0  0  0  0  0  3  0  0  0  0  0  0
  -30.1310  -15.2080   19.8400 C   0  0  0  0  0  0  0  0  0  0  0  0
  -29.9650  -12.9320   18.7370 C   0  0  0  0  0  2  0  0  0  0  0  0
  -28.8930  -12.9370   17.6240 C   0  0  0  0  0  2  0  0  0  0  0  0
  -27.5010  -12.6330   18.2090 C   0  0  0  0  0  2  0  0  0  0  0  0
  -27.2060  -13.4560   19.4900 C   0  0  0  0  0  3  0  0  0  0  0  0
  -28.3870  -13.4370   20.4830 C   0  0  0  0  0  2  0  0  0  0  0  0
  -29.5620  -13.9400   19.7610 N   0  0  0  0  0  0  0  0  0  0  0  0
  -31.2830  -15.3350   19.4140 O   0  0  0  0  0  0  0  0  0  0  0  0
  -29.3640  -16.3440   20.2200 N   0  0  0  0  0  0  0  0  0  0  0  0
  -28.4160  -16.1030   20.4680 H   0  0  0  0  0  0  0  0  0  0  0  0
  -24.9210  -13.8680   20.5660 C   0  0  0  0  0  0  0  0  0  0  0  0
  -23.9340  -13.0200   20.9840 C   0  0  0  0  0  0  0  0  0  0  0  0
  -24.4280  -11.6960   20.7650 C   0  0  0  0  0  0  0  0  0  0  0  0
  -25.9510  -13.0580   20.1170 N   0  0  0  0  0  0  0  0  0  0  0  0
  -25.6710  -11.7410   20.3000 N   0  0  0  0  0  0  0  0  0  0  0  0
  -23.7650  -10.3940   20.9140 C   0  0  0  0  0  0  0  0  0  0  0  0
  -24.2720   -9.4000   21.7790 C   0  0  0  0  0  3  0  0  0  0  0  0
  -23.6040   -8.1650   21.9210 C   0  0  0  0  0  3  0  0  0  0  0  0
  -22.4140   -7.9150   21.1960 C   0  0  0  0  0  0  0  0  0  0  0  0
  -21.9280   -8.8980   20.3170 C   0  0  0  0  0  3  0  0  0  0  0  0
  -22.5970  -10.1240   20.1740 C   0  0  0  0  0  3  0  0  0  0  0  0
  -21.7120   -6.7340   21.2500 O   0  0  0  0  0  0  0  0  0  0  0  0
  -21.6770   -5.9700   22.3890 C   0  0  0  0  0  0  0  0  0  0  0  0
  -21.1720   -6.4710   23.6090 C   0  0  0  0  0  3  0  0  0  0  0  0
  -21.0910   -5.6310   24.7360 C   0  0  0  0  0  3  0  0  0  0  0  0
  -21.5030   -4.2880   24.6450 C   0  0  0  0  0  0  0  0  0  0  0  0
  -22.0020   -3.7850   23.4300 C   0  0  0  0  0  3  0  0  0  0  0  0
  -22.0850   -4.6240   22.3040 C   0  0  0  0  0  0  0  0  0  0  0  0
  -22.5460   -4.1290   21.1310 F   0  0  0  0  0  0  0  0  0  0  0  0
  -21.4190   -3.4770   25.7250 F   0  0  0  0  0  0  0  0  0  0  0  0
  -22.5680  -13.4130   21.4670 C   0  0  0  0  0  0  0  0  0  0  0  0
  -21.9770  -12.6150   22.3500 N   0  0  0  0  0  0  0  0  0  0  0  0
  -22.0390  -14.4610   21.0990 O   0  0  0  0  0  0  0  0  0  0  0  0
  -22.4210  -11.7650   22.6640 H   0  0  0  0  0  0  0  0  0  0  0  0
  -21.0680  -12.8580   22.7180 H   0  0  0  0  0  0  0  0  0  0  0  0
  -25.0200  -15.2550   20.5060 N   0  0  0  0  0  0  0  0  0  0  0  0
  -24.2490  -15.8570   20.7730 H   0  0  0  0  0  0  0  0  0  0  0  0
  -25.7900  -15.7600   20.0870 H   0  0  0  0  0  0  0  0  0  0  0  0
  -29.8040  -18.1400   21.9660 C   0  0  0  0  0  2  0  0  0  0  0  0
  -30.9960  -17.9160   24.1840 C   0  0  0  0  0  1  0  0  0  0  0  0
  -32.2340  -18.9090   22.2270 C   0  0  0  0  0  1  0  0  0  0  0  0
  -31.1630  -17.8890   22.6570 C   0  0  0  0  0  3  0  0  0  0  0  0
  2  5  1  0
  2  4  1  0
  2  1  1  0
  3  2  1  0
  6  7  1  0
  6  5  2  0
  7  9  1  0
  8 19  2  0
  9 14  1  0
 10 18  1  0
 10 20  1  0
 11 17  1  0
 11 13  1  0
 12 18  1  0
 13 12  1  0
 14 13  2  0
 15 16  1  0
 15  9  2  0
 16 11  2  0
 17 10  1  0
 18  8  1  0
 20 22  2  0
 21 20  1  0
 23 21  1  0
 24 33  2  0
 24 29  1  0
 25 21  1  0
 25 29  1  0
 26 25  1  0
 27 28  1  0
 27 26  1  0
 28 24  1  0
 29 30  2  0
 30 31  1  0
 32 31  2  0
 33 32  1  0
 34  8  1  0
 34 35  1  0
 34 44  1  0
 35 38  1  0
 36 40  1  0
 36 35  1  0
 37 36  2  0
 40 39  1  0
 42 40  1  0
 42 43  1  0
 42 41  1  0
 44 47  1  1
 44 45  1  0
 46 44  1  0
 49 48  1  0
 49  1  1  0
 49 50  1  0
 50 89  1  0
 51 59  1  0
 52 57  1  0
 53 54  1  0
 53 52  1  0
 55 54  1  0
 55 64  1  0
 55 56  1  0
 57 51  1  0
 57 56  1  0
 58 51  2  0
 59 50  1  0
 59 60  1  0
 61 62  2  0
 62 81  1  0
 63 66  1  0
 63 62  1  0
 64 65  1  0
 64 61  1  0
 65 63  2  0
 66 67  1  0
 67 68  2  0
 69 72  1  0
 69 68  1  0
 70 69  2  0
 71 70  1  0
 71 66  2  0
 72 73  1  0
 73 74  1  0
 74 75  2  0
 76 75  1  0
 76 80  1  0
 77 76  2  0
 78 73  2  0
 78 77  1  0
 79 78  1  0
 81 82  1  0
 82 84  1  0
 82 85  1  0
 83 81  2  0
 86 61  1  0
 86 87  1  0
 88 86  1  0
 89 92  1  0
 91 92  1  0
 92 90  1  0
M  ISO  4   6 101   7 101  51 100  59 100
M  END
>  <TORSDO>  (69) 
F 23

>  <SCORE>  (69) 
-10.819

>  <name>  (69) 
69

>  <ligand_id>  (69) 
69

>  <original_smiles>  (69) 
[H]c1c([H])c([H])c2c(c1[H])C([H])([H])C([H])([H])C([H])([H])C2([H])N([H])C(=O)C1([H])N(C(=O)C([H])(N([H])C(=O)C([H])(N([H])C([H])([H])[H])C([H])([H])[H])C(C([H])([H])[H])(C([H])([H])[H])C([H])([H])[H])C([H])([H])c2c([H])c(OC([H])([H])C([H])([H])[N+]([H])([H])C([H])([H])C([H])(C([H])([H])[H])C([H])(N([H])C(=O)N3C([H])([H])C([H])([H])C([H])([H])C([H])(n4nc(-c5c([H])c([H])c(Oc6c([H])c([H])c(F)c([H])c6F)c([H])c5[H])c(C(=O)N([H])[H])c4N([H])[H])C3([H])[H])C([H])([H])C([H])(C([H])([H])[H])C([H])([H])[H])c([H])c([H])c2C1([H])[H]

>  <smiles>  (69) 
[H]c1c([H])c([H])c2c(c1[H])C([H])([H])C([H])([H])C([H])([H])C2([H])N([H])C(=O)C1([H])N(C(=O)C([H])(N([H])C(=O)C([H])(N([H])C([H])([H])[H])C([H])([H])[H])C(C([H])([H])[H])(C([H])([H])[H])C([H])([H])[H])C([H])([H])c2c([H])c(OC([H])([H])C([H])([H])[N+]([H])([H])C([H])([H])C([H])(C([H])([H])[H])C([H])(N([H])C(=O)N3C([H])([H])C([H])([H])C([H])([H])C([H])(n4nc(-c5c([H])c([H])c(Oc6c([H])c([H])c(F)c([H])c6F)c([H])c5[H])c(C(=O)N([H])[H])c4N([H])[H])C3([H])[H])C([H])([H])C([H])(C([H])([H])[H])C([H])([H])[H])c([H])c([H])c2C1([H])[H]

$$$$
70:0:0
     RDKit          3D

101110  0  0  1  0  0  0  0  0999 V2000
  -29.1140  -20.5710   20.1250 C   0  0  0  0  0  3  0  0  0  0  0  0
  -30.4080  -15.8340   20.1950 C   0  0  0  0  0  0  0  0  0  0  0  0
  -30.6600  -13.2530   19.5630 C   0  0  0  0  0  2  0  0  0  0  0  0
  -29.8160  -12.7720   18.3490 C   0  0  0  0  0  2  0  0  0  0  0  0
  -28.3710  -12.4290   18.7600 C   0  0  0  0  0  2  0  0  0  0  0  0
  -27.8120  -13.4440   19.7880 C   0  0  0  0  0  3  0  0  0  0  0  0
  -28.8260  -13.7590   20.9220 C   0  0  0  0  0  2  0  0  0  0  0  0
  -29.9710  -14.4310   20.2590 N   0  0  0  0  0  0  0  0  0  0  0  0
  -31.6290  -15.8370   19.9520 O   0  0  0  0  0  0  0  0  0  0  0  0
  -27.3030  -17.6530   19.5020 C   0  0  0  0  0  2  0  0  0  0  0  0
  -28.2210  -18.4950   18.6380 C   0  0  0  0  0  2  0  0  0  0  0  0
  -28.1750  -17.0740   20.6280 C   0  0  0  0  0  2  0  0  0  0  0  0
  -29.4240  -18.7830   19.5270 C   0  0  0  0  0  3  0  0  0  0  0  0
  -29.5660  -17.1530   20.1880 N   0  0  0  0  0  0  0  0  0  0  0  0
  -25.4120  -13.9310   20.4960 C   0  0  0  0  0  0  0  0  0  0  0  0
  -24.3700  -13.1430   20.8630 C   0  0  0  0  0  0  0  0  0  0  0  0
  -24.8670  -11.8060   20.8490 C   0  0  0  0  0  0  0  0  0  0  0  0
  -26.4860  -13.0860   20.2790 N   0  0  0  0  0  0  0  0  0  0  0  0
  -26.1650  -11.7930   20.5580 N   0  0  0  0  0  0  0  0  0  0  0  0
  -24.1560  -10.5390   21.0330 C   0  0  0  0  0  0  0  0  0  0  0  0
  -24.5770   -9.5850   21.9840 C   0  0  0  0  0  3  0  0  0  0  0  0
  -23.8610   -8.3830   22.1590 C   0  0  0  0  0  3  0  0  0  0  0  0
  -22.7050   -8.1260   21.3830 C   0  0  0  0  0  0  0  0  0  0  0  0
  -22.2980   -9.0690   20.4230 C   0  0  0  0  0  3  0  0  0  0  0  0
  -23.0180  -10.2630   20.2460 C   0  0  0  0  0  3  0  0  0  0  0  0
  -21.9580   -6.9750   21.4660 O   0  0  0  0  0  0  0  0  0  0  0  0
  -21.8820   -6.2500   22.6280 C   0  0  0  0  0  0  0  0  0  0  0  0
  -21.3420   -6.7960   23.8110 C   0  0  0  0  0  3  0  0  0  0  0  0
  -21.2180   -5.9930   24.9630 C   0  0  0  0  0  3  0  0  0  0  0  0
  -21.6260   -4.6470   24.9320 C   0  0  0  0  0  0  0  0  0  0  0  0
  -22.1580   -4.1000   23.7520 C   0  0  0  0  0  3  0  0  0  0  0  0
  -22.2840   -4.9000   22.6030 C   0  0  0  0  0  0  0  0  0  0  0  0
  -22.7760   -4.3610   21.4630 F   0  0  0  0  0  0  0  0  0  0  0  0
  -21.4990   -3.8750   26.0360 F   0  0  0  0  0  0  0  0  0  0  0  0
  -22.9610  -13.6060   21.1010 C   0  0  0  0  0  0  0  0  0  0  0  0
  -22.2240  -12.9190   21.9640 N   0  0  0  0  0  0  0  0  0  0  0  0
  -22.5230  -14.6190   20.5580 O   0  0  0  0  0  0  0  0  0  0  0  0
  -22.5860  -12.1070   22.4410 H   0  0  0  0  0  0  0  0  0  0  0  0
  -21.2770  -13.2170   22.1540 H   0  0  0  0  0  0  0  0  0  0  0  0
  -25.5100  -15.2950   20.3040 N   0  0  0  0  0  0  0  0  0  0  0  0
  -24.7020  -15.9050   20.3690 H   0  0  0  0  0  0  0  0  0  0  0  0
  -26.3300  -15.7580   19.9350 H   0  0  0  0  0  0  0  0  0  0  0  0
  -30.5210  -20.8990   20.4740 N   0  0  0  0  0  4  0  0  0  0  0  0
  -30.9410  -21.4850   19.7710 H   0  0  0  0  0  0  0  0  0  0  0  0
  -31.0040  -20.0090   20.4570 H   0  0  0  0  0  0  0  0  0  0  0  0
  -30.9280  -21.3290   21.8260 C   0  0  0  0  0  3  0  0  0  0  0  0
  -30.1240  -22.5180   22.3950 C   0  0  0  0  0  2  0  0  0  0  0  0
  -30.8320  -26.5830   20.9350 C   0  0  0  0  0  3  0  0  0  0  0  0
  -31.4440  -25.5060   20.2660 C   0  0  0  0  0  3  0  0  0  0  0  0
  -30.0050  -26.3310   22.0450 C   0  0  0  0  0  3  0  0  0  0  0  0
  -31.2410  -24.1840   20.7110 C   0  0  0  0  0  3  0  0  0  0  0  0
  -29.8140  -25.0120   22.4970 C   0  0  0  0  0  3  0  0  0  0  0  0
  -30.4250  -23.9200   21.8420 C   0  0  0  0  0  0  0  0  0  0  0  0
  -31.0060  -20.1010   22.7570 C   0  0  0  0  0  2  0  0  0  0  0  0
  -31.8970  -19.1110   22.1680 N   0  0  0  0  0  0  0  0  0  0  0  0
  -31.5240  -18.1860   22.3570 H   0  0  0  0  0  0  0  0  0  0  0  0
  -32.7510  -19.1210   22.7230 H   0  0  0  0  0  0  0  0  0  0  0  0
  -27.0450  -21.6820   18.6800 C   0  0  0  0  0  1  0  0  0  0  0  0
  -28.2840  -22.1900   19.4330 C   0  0  0  0  0  3  0  0  0  0  0  0
  -27.6740  -23.9360   19.9830 C   0  0  0  0  0  2  0  0  0  0  0  0
  -27.7360  -25.6310   19.5800 O   0  0  0  0  0  0  0  0  0  0  0  0
  -24.5980  -31.7850   23.1050 C   0  0  0  0  0  0  0  0  0  0  0  0
  -26.7780  -26.8320   19.7240 C   0  0  0  0  0  0  0  0  0  0  0  0
  -23.2780  -30.5320   21.4520 C   0  0  0  0  0  3  0  0  0  0  0  0
  -24.5890  -28.9190   19.8860 C   0  0  0  0  0  0  0  0  0  0  0  0
  -25.8490  -30.5970   21.2090 C   0  0  0  0  0  2  0  0  0  0  0  0
  -25.8250  -29.2060   20.4760 C   0  0  0  0  0  0  0  0  0  0  0  0
  -26.9100  -28.1920   20.3600 C   0  0  0  0  0  3  0  0  0  0  0  0
  -25.5090  -26.7430   19.0980 C   0  0  0  0  0  3  0  0  0  0  0  0
  -24.4640  -27.7140   19.1740 C   0  0  0  0  0  3  0  0  0  0  0  0
  -23.4220  -29.9080   20.0350 C   0  0  0  0  0  2  0  0  0  0  0  0
  -24.6020  -30.9970   21.9770 N   0  0  0  0  0  0  0  0  0  0  0  0
  -23.5450  -32.0930   23.6870 O   0  0  0  0  0  0  0  0  0  0  0  0
  -22.5730  -29.5240   22.3990 C   0  0  0  0  0  0  0  0  0  0  0  0
  -21.2300  -29.4350   22.3370 N   0  0  0  0  0  0  0  0  0  0  0  0
  -23.2420  -28.8220   23.1610 O   0  0  0  0  0  0  0  0  0  0  0  0
  -20.7420  -30.0500   21.7020 H   0  0  0  0  0  0  0  0  0  0  0  0
  -17.8230  -28.3090   22.9200 C   0  0  0  0  0  0  0  0  0  0  0  0
  -20.4000  -28.4890   23.0930 C   0  0  0  0  0  3  0  0  0  0  0  0
  -20.4320  -27.0830   22.4480 C   0  0  0  0  0  2  0  0  0  0  0  0
  -19.2820  -26.8440   21.4630 C   0  0  0  0  0  2  0  0  0  0  0  0
  -17.9320  -26.9940   22.1680 C   0  0  0  0  0  2  0  0  0  0  0  0
  -18.9810  -29.0200   23.3410 C   0  0  0  0  0  0  0  0  0  0  0  0
  -18.8200  -30.2510   24.0120 C   0  0  0  0  0  3  0  0  0  0  0  0
  -17.5380  -30.7750   24.2610 C   0  0  0  0  0  3  0  0  0  0  0  0
  -16.3960  -30.0630   23.8540 C   0  0  0  0  0  3  0  0  0  0  0  0
  -16.5400  -28.8310   23.1920 C   0  0  0  0  0  3  0  0  0  0  0  0
  -25.9150  -32.3470   23.7200 C   0  0  0  0  0  3  0  0  0  0  0  0
  -25.6770  -33.7460   24.1210 N   0  0  0  0  0  0  0  0  0  0  0  0
  -26.1190  -34.8260   23.4600 C   0  0  0  0  0  0  0  0  0  0  0  0
  -26.8270  -34.7430   22.4540 O   0  0  0  0  0  0  0  0  0  0  0  0
  -25.0610  -33.8880   24.9080 H   0  0  0  0  0  0  0  0  0  0  0  0
  -24.5700  -36.7890   23.1380 C   0  0  0  0  0  1  0  0  0  0  0  0
  -25.7120  -36.2160   23.9940 C   0  0  0  0  0  3  0  0  0  0  0  0
  -27.8360  -36.8650   25.0450 C   0  0  0  0  0  1  0  0  0  0  0  0
  -26.8300  -37.1850   24.0370 N   0  0  0  0  0  0  0  0  0  0  0  0
  -26.4860  -38.1240   24.2210 H   0  0  0  0  0  0  0  0  0  0  0  0
  -26.4210  -31.5140   24.9630 C   0  0  1  0  0  0  0  0  0  0  0  0
  -25.3510  -31.3220   26.0640 C   0  0  0  0  0  1  0  0  0  0  0  0
  -26.9020  -30.1120   24.5330 C   0  0  0  0  0  1  0  0  0  0  0  0
  -27.6410  -32.2200   25.6070 C   0  0  0  0  0  1  0  0  0  0  0  0
  1 43  1  0
  2  8  1  0
  3  8  1  0
  4  5  1  0
  4  3  1  0
  6  5  1  0
  6 18  1  0
  6  7  1  0
  8  7  1  0
  9  2  2  0
 10 12  1  0
 11 10  1  0
 11 13  1  0
 13  1  1  0
 13 14  1  0
 14  2  1  0
 14 12  1  0
 15 16  2  0
 16 35  1  0
 17 16  1  0
 17 20  1  0
 18 15  1  0
 18 19  1  0
 19 17  2  0
 20 21  1  0
 21 22  2  0
 23 26  1  0
 23 22  1  0
 24 23  2  0
 25 24  1  0
 25 20  2  0
 26 27  1  0
 27 28  1  0
 28 29  2  0
 30 29  1  0
 30 34  1  0
 31 30  2  0
 32 27  2  0
 32 31  1  0
 33 32  1  0
 35 36  1  0
 36 39  1  0
 36 38  1  0
 37 35  2  0
 40 41  1  0
 40 15  1  0
 42 40  1  0
 43 46  1  0
 44 43  1  0
 45 43  1  0
 46 47  1  0
 46 54  1  0
 48 50  1  0
 49 51  1  0
 49 48  2  0
 50 52  2  0
 51 53  2  0
 53 47  1  0
 53 52  1  0
 55 56  1  0
 55 57  1  0
 55 54  1  0
 59 58  1  0
 59 60  1  0
 59  1  1  0
 61 63  1  0
 61 60  1  0
 62 73  2  0
 63 68  1  0
 64 72  1  0
 64 74  1  0
 65 71  1  0
 65 67  1  0
 66 72  1  0
 67 66  1  0
 68 67  2  0
 69 70  1  0
 69 63  2  0
 70 65  2  0
 71 64  1  0
 72 62  1  0
 74 76  2  0
 75 74  1  0
 77 75  1  0
 78 87  2  0
 78 83  1  0
 79 75  1  0
 79 83  1  0
 80 79  1  0
 81 82  1  0
 81 80  1  0
 82 78  1  0
 83 84  2  0
 84 85  1  0
 86 85  2  0
 87 86  1  0
 88 62  1  0
 88 89  1  0
 88 98  1  0
 89 92  1  0
 90 94  1  0
 90 89  1  0
 91 90  2  0
 94 93  1  0
 94 96  1  0
 96 97  1  0
 96 95  1  0
 98101  1  1
 98 99  1  0
100 98  1  0
M  ISO  4   2 100  14 100  60 101  61 101
M  END
>  <TORSDO>  (70) 
F 24

>  <SCORE>  (70) 
-14.490

>  <name>  (70) 
70

>  <ligand_id>  (70) 
70

>  <original_smiles>  (70) 
[H]c1c([H])c([H])c(C([H])([H])C([H])(C([H])([H])N([H])[H])[N+]([H])([H])C([H])(C2([H])N(C(=O)N3C([H])([H])C([H])([H])C([H])([H])C([H])(n4nc(-c5c([H])c([H])c(Oc6c([H])c([H])c(F)c([H])c6F)c([H])c5[H])c(C(=O)N([H])[H])c4N([H])[H])C3([H])[H])C([H])([H])C([H])([H])C2([H])[H])C([H])(C([H])([H])[H])C([H])([H])Oc2c([H])c([H])c3c(c2[H])C([H])([H])N(C(=O)C([H])(N([H])C(=O)C([H])(N([H])C([H])([H])[H])C([H])([H])[H])C(C([H])([H])[H])(C([H])([H])[H])C([H])([H])[H])C([H])(C(=O)N([H])C2([H])c4c([H])c([H])c([H])c([H])c4C([H])([H])C([H])([H])C2([H])[H])C3([H])[H])c([H])c1[H]

>  <smiles>  (70) 
[H]c1c([H])c([H])c(C([H])([H])C([H])(C([H])([H])N([H])[H])[N+]([H])([H])C([H])(C2([H])N(C(=O)N3C([H])([H])C([H])([H])C([H])([H])C([H])(n4nc(-c5c([H])c([H])c(Oc6c([H])c([H])c(F)c([H])c6F)c([H])c5[H])c(C(=O)N([H])[H])c4N([H])[H])C3([H])[H])C([H])([H])C([H])([H])C2([H])[H])C([H])(C([H])([H])[H])C([H])([H])Oc2c([H])c([H])c3c(c2[H])C([H])([H])N(C(=O)C([H])(N([H])C(=O)C([H])(N([H])C([H])([H])[H])C([H])([H])[H])C(C([H])([H])[H])(C([H])([H])[H])C([H])([H])[H])C([H])(C(=O)N([H])C2([H])c4c([H])c([H])c([H])c([H])c4C([H])([H])C([H])([H])C2([H])[H])C3([H])[H])c([H])c1[H]

$$$$
71:0:0
     RDKit          3D

102109  0  0  1  0  0  0  0  0999 V2000
  -31.1160  -22.3550   19.4000 C   0  0  0  0  0  0  0  0  0  0  0  0
  -32.1530  -22.5450   20.2410 N   0  0  0  0  0  4  0  0  0  0  0  0
  -30.1750  -23.3060   19.2070 N   0  0  0  0  0  0  0  0  0  0  0  0
  -32.8580  -21.8310   20.3630 H   0  0  0  0  0  0  0  0  0  0  0  0
  -32.2920  -23.4020   20.7530 H   0  0  0  0  0  0  0  0  0  0  0  0
  -29.5290  -23.1720   18.4420 H   0  0  0  0  0  0  0  0  0  0  0  0
  -30.9860  -21.0260   18.6950 C   0  0  0  0  0  2  0  0  0  0  0  0
  -31.5430  -19.9240   19.6190 C   0  0  0  0  0  2  0  0  0  0  0  0
  -30.6130  -18.7050   19.9080 C   0  0  0  0  0  3  0  0  0  0  0  0
  -29.9930  -20.0410   22.0150 C   0  0  0  0  0  1  0  0  0  0  0  0
  -30.2460  -18.6360   21.4230 C   0  0  0  0  0  3  0  0  0  0  0  0
  -30.8700  -17.6230   23.7210 C   0  0  0  0  0  1  0  0  0  0  0  0
  -31.2790  -17.8380   22.2570 C   0  0  0  0  0  2  0  0  0  0  0  0
  -31.2270  -17.3880   19.3330 C   0  0  0  0  0  2  0  0  0  0  0  0
  -30.5530  -16.0310   19.7170 C   0  0  0  0  0  2  0  0  0  0  0  0
  -31.2130  -14.3910   21.5940 C   0  0  0  0  0  1  0  0  0  0  0  0
  -32.9810  -15.3180   20.1970 C   0  0  0  0  0  1  0  0  0  0  0  0
  -31.4990  -14.8360   20.1310 C   0  0  2  0  0  0  0  0  0  0  0  0
  -31.4300  -13.6220   19.1290 C   0  0  0  0  0  0  0  0  0  0  0  0
  -30.9100  -11.2420   18.6620 C   0  0  0  0  0  2  0  0  0  0  0  0
  -29.8520  -11.0350   17.5650 C   0  0  0  0  0  2  0  0  0  0  0  0
  -28.4490  -11.0250   18.1880 C   0  0  0  0  0  2  0  0  0  0  0  0
  -28.2110  -12.2650   19.0830 C   0  0  0  0  0  3  0  0  0  0  0  0
  -29.3700  -12.4890   20.0770 C   0  0  0  0  0  2  0  0  0  0  0  0
  -30.6500  -12.5220   19.3480 N   0  0  0  0  0  0  0  0  0  0  0  0
  -32.2270  -13.6330   18.1850 O   0  0  0  0  0  0  0  0  0  0  0  0
  -26.0950  -13.2170   20.1990 C   0  0  0  0  0  0  0  0  0  0  0  0
  -24.9850  -12.6080   20.7240 C   0  0  0  0  0  0  0  0  0  0  0  0
  -25.2000  -11.2040   20.5830 C   0  0  0  0  0  0  0  0  0  0  0  0
  -26.9240  -12.1900   19.7760 N   0  0  0  0  0  0  0  0  0  0  0  0
  -26.3980  -10.9710   20.0630 N   0  0  0  0  0  0  0  0  0  0  0  0
  -24.3110  -10.0680   20.8630 C   0  0  0  0  0  0  0  0  0  0  0  0
  -24.6420   -9.0900   21.8250 C   0  0  0  0  0  3  0  0  0  0  0  0
  -23.7630   -8.0190   22.0900 C   0  0  0  0  0  3  0  0  0  0  0  0
  -22.5360   -7.9180   21.3920 C   0  0  0  0  0  0  0  0  0  0  0  0
  -22.2200   -8.8810   20.4180 C   0  0  0  0  0  3  0  0  0  0  0  0
  -23.1000   -9.9460   20.1530 C   0  0  0  0  0  3  0  0  0  0  0  0
  -21.6330   -6.8970   21.5620 O   0  0  0  0  0  0  0  0  0  0  0  0
  -21.4310   -6.3110   22.7860 C   0  0  0  0  0  0  0  0  0  0  0  0
  -21.0200   -7.0590   23.9110 C   0  0  0  0  0  3  0  0  0  0  0  0
  -20.7560   -6.4060   25.1320 C   0  0  0  0  0  3  0  0  0  0  0  0
  -20.8920   -5.0090   25.2270 C   0  0  0  0  0  0  0  0  0  0  0  0
  -21.2980   -4.2610   24.1070 C   0  0  0  0  0  3  0  0  0  0  0  0
  -21.5630   -4.9110   22.8880 C   0  0  0  0  0  0  0  0  0  0  0  0
  -21.9300   -4.1850   21.8060 F   0  0  0  0  0  0  0  0  0  0  0  0
  -20.6330   -4.3790   26.3970 F   0  0  0  0  0  0  0  0  0  0  0  0
  -23.7490  -13.2920   21.2360 C   0  0  0  0  0  0  0  0  0  0  0  0
  -23.1360  -12.7440   22.2780 N   0  0  0  0  0  0  0  0  0  0  0  0
  -23.3480  -14.3450   20.7420 O   0  0  0  0  0  0  0  0  0  0  0  0
  -23.4760  -11.8890   22.6960 H   0  0  0  0  0  0  0  0  0  0  0  0
  -22.3150  -13.1850   22.6680 H   0  0  0  0  0  0  0  0  0  0  0  0
  -26.4570  -14.5480   20.0310 N   0  0  0  0  0  0  0  0  0  0  0  0
  -25.8370  -15.3110   20.2810 H   0  0  0  0  0  0  0  0  0  0  0  0
  -27.3180  -14.8630   19.6000 H   0  0  0  0  0  0  0  0  0  0  0  0
  -30.1140  -24.6420   19.8390 C   0  0  0  0  0  3  0  0  0  0  0  0
  -31.1830  -25.5410   19.2050 C   0  0  0  0  0  0  0  0  0  0  0  0
  -31.8260  -26.3930   19.9950 N   0  0  0  0  0  0  0  0  0  0  0  0
  -31.4350  -25.4770   18.0020 O   0  0  0  0  0  0  0  0  0  0  0  0
  -31.5990  -26.4580   20.9770 H   0  0  0  0  0  0  0  0  0  0  0  0
  -32.5300  -27.0090   19.6120 H   0  0  0  0  0  0  0  0  0  0  0  0
  -28.6950  -25.2520   19.7170 C   0  0  0  0  0  2  0  0  0  0  0  0
  -28.6200  -26.5620   20.2940 O   0  0  0  0  0  0  0  0  0  0  0  0
  -24.6170  -31.6650   23.2280 C   0  0  0  0  0  0  0  0  0  0  0  0
  -27.4110  -27.2330   20.2540 C   0  0  0  0  0  0  0  0  0  0  0  0
  -23.4770  -30.2280   21.5690 C   0  0  0  0  0  3  0  0  0  0  0  0
  -24.9870  -28.6940   20.2060 C   0  0  0  0  0  0  0  0  0  0  0  0
  -26.0020  -30.6210   21.4380 C   0  0  0  0  0  2  0  0  0  0  0  0
  -26.1220  -29.2440   20.8130 C   0  0  0  0  0  0  0  0  0  0  0  0
  -27.3340  -28.5180   20.8360 C   0  0  0  0  0  3  0  0  0  0  0  0
  -26.2480  -26.6900   19.6580 C   0  0  0  0  0  3  0  0  0  0  0  0
  -25.0420  -27.4130   19.6310 C   0  0  0  0  0  3  0  0  0  0  0  0
  -23.7320  -29.5350   20.2050 C   0  0  0  0  0  2  0  0  0  0  0  0
  -24.7140  -30.8540   22.1380 N   0  0  0  0  0  0  0  0  0  0  0  0
  -23.5170  -31.9300   23.7330 O   0  0  0  0  0  0  0  0  0  0  0  0
  -22.8140  -29.2090   22.5220 C   0  0  0  0  0  0  0  0  0  0  0  0
  -21.5070  -28.9690   22.3230 N   0  0  0  0  0  0  0  0  0  0  0  0
  -23.4720  -28.6380   23.3960 O   0  0  0  0  0  0  0  0  0  0  0  0
  -21.0390  -29.4810   21.5890 H   0  0  0  0  0  0  0  0  0  0  0  0
  -18.1520  -27.6780   22.6910 C   0  0  0  0  0  0  0  0  0  0  0  0
  -20.6840  -28.0200   23.0730 C   0  0  0  0  0  3  0  0  0  0  0  0
  -20.8580  -26.5850   22.5270 C   0  0  0  0  0  2  0  0  0  0  0  0
  -19.8140  -26.2090   21.4700 C   0  0  0  0  0  2  0  0  0  0  0  0
  -18.4000  -26.3230   22.0490 C   0  0  0  0  0  2  0  0  0  0  0  0
  -19.2270  -28.4810   23.1560 C   0  0  0  0  0  0  0  0  0  0  0  0
  -18.9450  -29.7460   23.7140 C   0  0  0  0  0  3  0  0  0  0  0  0
  -17.6200  -30.2100   23.8130 C   0  0  0  0  0  3  0  0  0  0  0  0
  -16.5580  -29.4050   23.3670 C   0  0  0  0  0  3  0  0  0  0  0  0
  -16.8250  -28.1410   22.8120 C   0  0  0  0  0  3  0  0  0  0  0  0
  -25.8780  -32.3170   23.8790 C   0  0  0  0  0  3  0  0  0  0  0  0
  -25.5480  -33.7180   24.1740 N   0  0  0  0  0  0  0  0  0  0  0  0
  -25.9100  -34.7600   23.4150 C   0  0  0  0  0  0  0  0  0  0  0  0
  -26.6310  -34.6460   22.4200 O   0  0  0  0  0  0  0  0  0  0  0  0
  -24.9140  -33.8810   24.9430 H   0  0  0  0  0  0  0  0  0  0  0  0
  -24.2040  -36.5440   22.9370 C   0  0  0  0  0  1  0  0  0  0  0  0
  -25.3940  -36.1510   23.8270 C   0  0  0  0  0  3  0  0  0  0  0  0
  -27.4720  -37.0500   24.7770 C   0  0  0  0  0  1  0  0  0  0  0  0
  -26.4290  -37.2060   23.7670 N   0  0  0  0  0  0  0  0  0  0  0  0
  -26.0130  -38.1250   23.8780 H   0  0  0  0  0  0  0  0  0  0  0  0
  -26.3660  -31.5700   25.1790 C   0  0  1  0  0  0  0  0  0  0  0  0
  -25.2310  -31.2740   26.1890 C   0  0  0  0  0  1  0  0  0  0  0  0
  -27.0410  -30.2240   24.8220 C   0  0  0  0  0  1  0  0  0  0  0  0
  -27.4420  -32.4210   25.8960 C   0  0  0  0  0  1  0  0  0  0  0  0
  1  2  2  0
  2  4  1  0
  2  5  1  0
  3  1  1  0
  3 55  1  0
  6  3  1  0
  7  1  1  0
  7  8  1  0
  8  9  1  0
  9 14  1  0
  9 11  1  0
 11 10  1  0
 11 13  1  0
 13 12  1  0
 14 15  1  0
 15 18  1  0
 18 17  1  1
 18 16  1  0
 19 25  1  0
 19 18  1  0
 20 25  1  0
 21 22  1  0
 21 20  1  0
 23 22  1  0
 23 30  1  0
 23 24  1  0
 25 24  1  0
 26 19  2  0
 27 28  2  0
 28 47  1  0
 29 28  1  0
 29 32  1  0
 30 31  1  0
 30 27  1  0
 31 29  2  0
 32 33  1  0
 33 34  2  0
 35 38  1  0
 35 34  1  0
 36 35  2  0
 37 36  1  0
 37 32  2  0
 38 39  1  0
 39 44  2  0
 39 40  1  0
 40 41  2  0
 41 42  1  0
 42 46  1  0
 43 42  2  0
 44 43  1  0
 45 44  1  0
 47 48  1  0
 48 51  1  0
 48 50  1  0
 49 47  2  0
 52 27  1  0
 52 53  1  0
 54 52  1  0
 55 61  1  0
 56 55  1  0
 56 57  1  0
 57 59  1  0
 58 56  2  0
 60 57  1  0
 61 62  1  0
 63 74  2  0
 64 62  1  0
 64 69  1  0
 65 73  1  0
 65 75  1  0
 66 68  1  0
 67 73  1  0
 68 69  2  0
 68 67  1  0
 70 64  2  0
 71 70  1  0
 71 66  2  0
 72 66  1  0
 72 65  1  0
 73 63  1  0
 75 77  2  0
 76 75  1  0
 78 76  1  0
 79 88  2  0
 79 84  1  0
 80 76  1  0
 80 84  1  0
 81 80  1  0
 82 83  1  0
 82 81  1  0
 83 79  1  0
 84 85  2  0
 85 86  1  0
 87 86  2  0
 88 87  1  0
 89 63  1  0
 89 90  1  0
 89 99  1  0
 90 93  1  0
 91 95  1  0
 91 90  1  0
 92 91  2  0
 95 94  1  0
 97 95  1  0
 97 98  1  0
 97 96  1  0
 99102  1  1
 99100  1  0
101 99  1  0
M  ISO  4  18 100  19 100  61 101  62 101
M  END
>  <TORSDO>  (71) 
F 27

>  <SCORE>  (71) 
-8.379

>  <name>  (71) 
71

>  <ligand_id>  (71) 
71

>  <original_smiles>  (71) 
[H]c1c([H])c([H])c2c(c1[H])C([H])([H])C([H])([H])C([H])([H])C2([H])N([H])C(=O)C1([H])N(C(=O)C([H])(N([H])C(=O)C([H])(N([H])C([H])([H])[H])C([H])([H])[H])C(C([H])([H])[H])(C([H])([H])[H])C([H])([H])[H])C([H])([H])c2c([H])c(OC([H])([H])C([H])(C(=O)N([H])[H])[N+]([H])=C(N([H])[H])C([H])([H])C([H])([H])C([H])(C([H])([H])C([H])([H])C(C(=O)N3C([H])([H])C([H])([H])C([H])([H])C([H])(n4nc(-c5c([H])c([H])c(Oc6c([H])c([H])c(F)c([H])c6F)c([H])c5[H])c(C(=O)N([H])[H])c4N([H])[H])C3([H])[H])(C([H])([H])[H])C([H])([H])[H])C([H])(C([H])([H])[H])C([H])([H])C([H])([H])[H])c([H])c([H])c2C1([H])[H]

>  <smiles>  (71) 
[H]c1c([H])c([H])c2c(c1[H])C([H])([H])C([H])([H])C([H])([H])C2([H])N([H])C(=O)C1([H])N(C(=O)C([H])(N([H])C(=O)C([H])(N([H])C([H])([H])[H])C([H])([H])[H])C(C([H])([H])[H])(C([H])([H])[H])C([H])([H])[H])C([H])([H])c2c([H])c(OC([H])([H])C([H])(C(=O)N([H])[H])[N+]([H])=C(N([H])[H])C([H])([H])C([H])([H])C([H])(C([H])([H])C([H])([H])C(C(=O)N3C([H])([H])C([H])([H])C([H])([H])C([H])(n4nc(-c5c([H])c([H])c(Oc6c([H])c([H])c(F)c([H])c6F)c([H])c5[H])c(C(=O)N([H])[H])c4N([H])[H])C3([H])[H])(C([H])([H])[H])C([H])([H])[H])C([H])(C([H])([H])[H])C([H])([H])C([H])([H])[H])c([H])c([H])c2C1([H])[H]

$$$$
72:0:0
     RDKit          3D

 91 98  0  0  1  0  0  0  0  0999 V2000
  -28.3040  -22.6900   20.5660 C   0  0  0  0  0  3  0  0  0  0  0  0
  -28.3510  -22.7230   22.0480 N   0  0  0  0  0  4  0  0  0  0  0  0
  -29.2460  -23.0390   22.3770 H   0  0  0  0  0  0  0  0  0  0  0  0
  -28.1680  -21.8130   22.4340 H   0  0  0  0  0  0  0  0  0  0  0  0
  -27.6530  -23.3490   22.4140 H   0  0  0  0  0  0  0  0  0  0  0  0
  -29.2140  -21.2460   20.0690 C   0  0  0  0  0  3  0  0  0  0  0  0
  -28.9920  -19.5010   20.3930 C   0  0  0  0  0  3  0  0  0  0  0  0
  -30.0520  -18.0780   20.2090 C   0  0  0  0  0  3  0  0  0  0  0  0
  -30.4310  -15.2050   20.0280 C   0  0  0  0  0  0  0  0  0  0  0  0
  -30.3290  -12.8030   19.0940 C   0  0  0  0  0  2  0  0  0  0  0  0
  -29.3550  -12.6620   17.8990 C   0  0  0  0  0  2  0  0  0  0  0  0
  -27.9220  -12.4030   18.3960 C   0  0  0  0  0  2  0  0  0  0  0  0
  -27.5340  -13.3400   19.5670 C   0  0  0  0  0  3  0  0  0  0  0  0
  -28.6300  -13.4340   20.6500 C   0  0  0  0  0  2  0  0  0  0  0  0
  -29.8430  -13.9190   19.9770 N   0  0  0  0  0  0  0  0  0  0  0  0
  -31.6330  -15.2090   19.7230 O   0  0  0  0  0  0  0  0  0  0  0  0
  -29.6910  -16.4630   20.2190 N   0  0  0  0  0  0  0  0  0  0  0  0
  -28.7140  -16.2870   20.4050 H   0  0  0  0  0  0  0  0  0  0  0  0
  -25.1960  -13.8920   20.4250 C   0  0  0  0  0  0  0  0  0  0  0  0
  -24.1520  -13.1070   20.8310 C   0  0  0  0  0  0  0  0  0  0  0  0
  -24.6200  -11.7580   20.7640 C   0  0  0  0  0  0  0  0  0  0  0  0
  -26.2290  -13.0200   20.1280 N   0  0  0  0  0  0  0  0  0  0  0  0
  -25.8970  -11.7310   20.4000 N   0  0  0  0  0  0  0  0  0  0  0  0
  -23.9050  -10.4920   20.9690 C   0  0  0  0  0  0  0  0  0  0  0  0
  -24.3580   -9.5280   21.8950 C   0  0  0  0  0  3  0  0  0  0  0  0
  -23.6380   -8.3280   22.0880 C   0  0  0  0  0  3  0  0  0  0  0  0
  -22.4530   -8.0840   21.3540 C   0  0  0  0  0  0  0  0  0  0  0  0
  -22.0210   -9.0370   20.4170 C   0  0  0  0  0  3  0  0  0  0  0  0
  -22.7400  -10.2280   20.2210 C   0  0  0  0  0  3  0  0  0  0  0  0
  -21.7040   -6.9370   21.4580 O   0  0  0  0  0  0  0  0  0  0  0  0
  -21.6590   -6.2100   22.6190 C   0  0  0  0  0  0  0  0  0  0  0  0
  -21.2210   -6.7750   23.8370 C   0  0  0  0  0  3  0  0  0  0  0  0
  -21.1230   -5.9730   24.9920 C   0  0  0  0  0  3  0  0  0  0  0  0
  -21.4540   -4.6050   24.9300 C   0  0  0  0  0  0  0  0  0  0  0  0
  -21.8830   -4.0390   23.7170 C   0  0  0  0  0  3  0  0  0  0  0  0
  -21.9830   -4.8380   22.5650 C   0  0  0  0  0  0  0  0  0  0  0  0
  -22.3780   -4.2830   21.3930 F   0  0  0  0  0  0  0  0  0  0  0  0
  -21.3530   -3.8330   26.0360 F   0  0  0  0  0  0  0  0  0  0  0  0
  -22.7660  -13.5760   21.1610 C   0  0  0  0  0  0  0  0  0  0  0  0
  -22.0730  -12.8690   22.0450 N   0  0  0  0  0  0  0  0  0  0  0  0
  -22.3090  -14.6080   20.6700 O   0  0  0  0  0  0  0  0  0  0  0  0
  -22.4580  -12.0340   22.4630 H   0  0  0  0  0  0  0  0  0  0  0  0
  -21.1430  -13.1640   22.3070 H   0  0  0  0  0  0  0  0  0  0  0  0
  -25.3450  -15.2640   20.2520 N   0  0  0  0  0  0  0  0  0  0  0  0
  -24.5750  -15.9100   20.3930 H   0  0  0  0  0  0  0  0  0  0  0  0
  -26.1630  -15.7070   19.8510 H   0  0  0  0  0  0  0  0  0  0  0  0
  -30.7870  -17.9160   22.6760 C   0  0  0  0  0  1  0  0  0  0  0  0
  -31.9890  -19.5360   21.1570 C   0  0  0  0  0  1  0  0  0  0  0  0
  -31.2230  -18.2100   21.2270 C   0  0  0  0  0  3  0  0  0  0  0  0
  -28.2340  -24.3890   19.9880 C   0  0  0  0  0  2  0  0  0  0  0  0
  -28.2340  -25.9830   20.3490 O   0  0  0  0  0  0  0  0  0  0  0  0
  -24.6440  -31.8700   23.2250 C   0  0  0  0  0  0  0  0  0  0  0  0
  -27.1970  -27.0270   20.2320 C   0  0  0  0  0  0  0  0  0  0  0  0
  -23.4470  -30.4740   21.5860 C   0  0  0  0  0  3  0  0  0  0  0  0
  -24.8920  -28.8670   20.1680 C   0  0  0  0  0  0  0  0  0  0  0  0
  -26.0080  -30.6940   21.4380 C   0  0  0  0  0  2  0  0  0  0  0  0
  -26.0730  -29.2870   20.7890 C   0  0  0  0  0  0  0  0  0  0  0  0
  -27.2180  -28.3850   20.8000 C   0  0  0  0  0  3  0  0  0  0  0  0
  -25.9920  -26.7410   19.5560 C   0  0  0  0  0  3  0  0  0  0  0  0
  -24.8710  -27.6120   19.5350 C   0  0  0  0  0  3  0  0  0  0  0  0
  -23.6720  -29.7840   20.2110 C   0  0  0  0  0  2  0  0  0  0  0  0
  -24.7200  -31.0400   22.1360 N   0  0  0  0  0  0  0  0  0  0  0  0
  -23.5550  -32.1630   23.7450 O   0  0  0  0  0  0  0  0  0  0  0  0
  -22.7520  -29.4820   22.5540 C   0  0  0  0  0  0  0  0  0  0  0  0
  -21.4210  -29.3220   22.4330 N   0  0  0  0  0  0  0  0  0  0  0  0
  -23.4180  -28.8530   23.3810 O   0  0  0  0  0  0  0  0  0  0  0  0
  -20.9370  -29.8800   21.7420 H   0  0  0  0  0  0  0  0  0  0  0  0
  -18.0350  -28.1350   22.9420 C   0  0  0  0  0  0  0  0  0  0  0  0
  -20.5950  -28.3890   23.2070 C   0  0  0  0  0  3  0  0  0  0  0  0
  -20.6910  -26.9550   22.6370 C   0  0  0  0  0  2  0  0  0  0  0  0
  -19.5890  -26.6340   21.6230 C   0  0  0  0  0  2  0  0  0  0  0  0
  -18.2070  -26.7850   22.2650 C   0  0  0  0  0  2  0  0  0  0  0  0
  -19.1560  -28.8950   23.3710 C   0  0  0  0  0  0  0  0  0  0  0  0
  -18.9400  -30.1570   23.9640 C   0  0  0  0  0  3  0  0  0  0  0  0
  -17.6350  -30.6580   24.1340 C   0  0  0  0  0  3  0  0  0  0  0  0
  -16.5290  -29.8950   23.7210 C   0  0  0  0  0  3  0  0  0  0  0  0
  -16.7290  -28.6350   23.1320 C   0  0  0  0  0  3  0  0  0  0  0  0
  -25.9180  -32.5100   23.8570 C   0  0  0  0  0  3  0  0  0  0  0  0
  -25.6090  -33.9130   24.1810 N   0  0  0  0  0  0  0  0  0  0  0  0
  -25.9460  -34.9670   23.4260 C   0  0  0  0  0  0  0  0  0  0  0  0
  -26.6180  -34.8610   22.3970 O   0  0  0  0  0  0  0  0  0  0  0  0
  -25.0150  -34.0700   24.9820 H   0  0  0  0  0  0  0  0  0  0  0  0
  -24.2280  -36.7760   23.0810 C   0  0  0  0  0  1  0  0  0  0  0  0
  -25.4700  -36.3600   23.8860 C   0  0  0  0  0  3  0  0  0  0  0  0
  -27.6100  -37.2400   24.7100 C   0  0  0  0  0  1  0  0  0  0  0  0
  -26.5060  -37.4090   23.7690 N   0  0  0  0  0  0  0  0  0  0  0  0
  -26.1040  -38.3310   23.9150 H   0  0  0  0  0  0  0  0  0  0  0  0
  -26.4150  -31.7520   25.1510 C   0  0  1  0  0  0  0  0  0  0  0  0
  -25.3070  -31.5390   26.2100 C   0  0  0  0  0  1  0  0  0  0  0  0
  -26.9930  -30.3650   24.7900 C   0  0  0  0  0  1  0  0  0  0  0  0
  -27.5650  -32.5450   25.8130 C   0  0  0  0  0  1  0  0  0  0  0  0
  1 50  1  0
  1  2  1  0
  2  3  1  0
  2  5  1  0
  2  4  1  0
  6  7  2  0
  6  1  1  0
  8 17  1  0
  8  7  1  0
  8 49  1  0
  9 17  1  0
 10 15  1  0
 11 12  1  0
 11 10  1  0
 13 12  1  0
 13 22  1  0
 13 14  1  0
 15  9  1  0
 15 14  1  0
 16  9  2  0
 17 18  1  0
 19 20  2  0
 20 39  1  0
 21 20  1  0
 21 24  1  0
 22 23  1  0
 22 19  1  0
 23 21  2  0
 24 25  1  0
 25 26  2  0
 27 30  1  0
 27 26  1  0
 28 27  2  0
 29 28  1  0
 29 24  2  0
 30 31  1  0
 31 32  1  0
 32 33  2  0
 34 33  1  0
 34 38  1  0
 35 34  2  0
 36 31  2  0
 36 35  1  0
 37 36  1  0
 39 40  1  0
 40 43  1  0
 40 42  1  0
 41 39  2  0
 44 45  1  0
 44 19  1  0
 46 44  1  0
 48 49  1  0
 49 47  1  0
 50 51  1  0
 52 63  2  0
 53 51  1  0
 53 58  1  0
 54 62  1  0
 54 64  1  0
 55 61  1  0
 55 57  1  0
 56 62  1  0
 57 58  2  0
 57 56  1  0
 59 53  2  0
 60 59  1  0
 60 55  2  0
 61 54  1  0
 62 52  1  0
 64 66  2  0
 65 64  1  0
 67 65  1  0
 68 77  2  0
 68 73  1  0
 69 65  1  0
 69 73  1  0
 70 69  1  0
 71 72  1  0
 71 70  1  0
 72 68  1  0
 73 74  2  0
 74 75  1  0
 76 75  2  0
 77 76  1  0
 78 52  1  0
 78 79  1  0
 78 88  1  0
 79 82  1  0
 80 84  1  0
 80 79  1  0
 81 80  2  0
 84 83  1  0
 86 84  1  0
 86 87  1  0
 86 85  1  0
 88 91  1  1
 88 89  1  0
 90 88  1  0
M  ISO  4   9 100  17 100  50 101  51 101
M  END
>  <TORSDO>  (72) 
F 22

>  <SCORE>  (72) 
-15.269

>  <name>  (72) 
72

>  <ligand_id>  (72) 
72

>  <original_smiles>  (72) 
[H]c1c([H])c([H])c2c(c1[H])C([H])([H])C([H])([H])C([H])([H])C2([H])N([H])C(=O)C1([H])N(C(=O)C([H])(N([H])C(=O)C([H])(N([H])C([H])([H])[H])C([H])([H])[H])C(C([H])([H])[H])(C([H])([H])[H])C([H])([H])[H])C([H])([H])c2c([H])c(OC([H])([H])C([H])(C([H])([H])C([H])([H])C([H])(N([H])C(=O)N3C([H])([H])C([H])([H])C([H])([H])C([H])(n4nc(-c5c([H])c([H])c(Oc6c([H])c([H])c(F)c([H])c6F)c([H])c5[H])c(C(=O)N([H])[H])c4N([H])[H])C3([H])[H])C([H])(C([H])([H])[H])C([H])([H])[H])[N+]([H])([H])[H])c([H])c([H])c2C1([H])[H]

>  <smiles>  (72) 
[H]c1c([H])c([H])c2c(c1[H])C([H])([H])C([H])([H])C([H])([H])C2([H])N([H])C(=O)C1([H])N(C(=O)C([H])(N([H])C(=O)C([H])(N([H])C([H])([H])[H])C([H])([H])[H])C(C([H])([H])[H])(C([H])([H])[H])C([H])([H])[H])C([H])([H])c2c([H])c(OC([H])([H])C([H])(C([H])([H])C([H])([H])C([H])(N([H])C(=O)N3C([H])([H])C([H])([H])C([H])([H])C([H])(n4nc(-c5c([H])c([H])c(Oc6c([H])c([H])c(F)c([H])c6F)c([H])c5[H])c(C(=O)N([H])[H])c4N([H])[H])C3([H])[H])C([H])(C([H])([H])[H])C([H])([H])[H])[N+]([H])([H])[H])c([H])c([H])c2C1([H])[H]

$$$$
74:0:0
     RDKit          3D

 95102  0  0  1  0  0  0  0  0999 V2000
  -29.7040  -20.8060   20.1690 C   0  0  0  0  0  3  0  0  0  0  0  0
  -28.9460  -22.1300   22.2320 C   0  0  0  0  0  1  0  0  0  0  0  0
  -28.9060  -22.0740   20.7470 N   0  0  1  0  0  4  0  0  0  0  0  0
  -27.9470  -21.8090   20.5650 H   0  0  0  0  0  0  0  0  0  0  0  0
  -28.9990  -23.5430   20.1200 C   0  0  0  0  0  3  0  0  0  0  0  0
  -28.0890  -24.8690   20.6350 C   0  0  0  0  0  3  0  0  0  0  0  0
  -28.2780  -26.3630   20.2380 O   0  0  0  0  0  0  0  0  0  0  0  0
  -24.5500  -31.9650   23.2490 C   0  0  0  0  0  0  0  0  0  0  0  0
  -27.1880  -27.3030   20.2200 C   0  0  0  0  0  0  0  0  0  0  0  0
  -23.3650  -30.5510   21.6140 C   0  0  0  0  0  3  0  0  0  0  0  0
  -24.8310  -28.9960   20.1890 C   0  0  0  0  0  0  0  0  0  0  0  0
  -25.9110  -30.8630   21.4340 C   0  0  0  0  0  2  0  0  0  0  0  0
  -26.0060  -29.4720   20.7870 C   0  0  0  0  0  0  0  0  0  0  0  0
  -27.1870  -28.6420   20.7820 C   0  0  0  0  0  3  0  0  0  0  0  0
  -25.9870  -26.9250   19.5810 C   0  0  0  0  0  3  0  0  0  0  0  0
  -24.8300  -27.7350   19.5750 C   0  0  0  0  0  3  0  0  0  0  0  0
  -23.5910  -29.8740   20.2370 C   0  0  0  0  0  2  0  0  0  0  0  0
  -24.6290  -31.1480   22.1550 N   0  0  0  0  0  0  0  0  0  0  0  0
  -23.4620  -32.2330   23.7810 O   0  0  0  0  0  0  0  0  0  0  0  0
  -22.7030  -29.5360   22.5790 C   0  0  0  0  0  0  0  0  0  0  0  0
  -21.3810  -29.3310   22.4420 N   0  0  0  0  0  0  0  0  0  0  0  0
  -23.3840  -28.9340   23.4130 O   0  0  0  0  0  0  0  0  0  0  0  0
  -20.8900  -29.8680   21.7410 H   0  0  0  0  0  0  0  0  0  0  0  0
  -18.0310  -28.0280   22.9020 C   0  0  0  0  0  0  0  0  0  0  0  0
  -20.5740  -28.3800   23.2130 C   0  0  0  0  0  3  0  0  0  0  0  0
  -20.7350  -26.9430   22.6650 C   0  0  0  0  0  2  0  0  0  0  0  0
  -19.6640  -26.5670   21.6370 C   0  0  0  0  0  2  0  0  0  0  0  0
  -18.2650  -26.6740   22.2510 C   0  0  0  0  0  2  0  0  0  0  0  0
  -19.1160  -28.8350   23.3400 C   0  0  0  0  0  0  0  0  0  0  0  0
  -18.8410  -30.0980   23.9090 C   0  0  0  0  0  3  0  0  0  0  0  0
  -17.5180  -30.5560   24.0440 C   0  0  0  0  0  3  0  0  0  0  0  0
  -16.4480  -29.7460   23.6240 C   0  0  0  0  0  3  0  0  0  0  0  0
  -16.7060  -28.4840   23.0590 C   0  0  0  0  0  3  0  0  0  0  0  0
  -25.8210  -32.6190   23.8720 C   0  0  0  0  0  3  0  0  0  0  0  0
  -26.3360  -31.8680   25.1610 C   0  0  1  0  0  0  0  0  0  0  0  0
  -25.2390  -31.6260   26.2240 C   0  0  0  0  0  1  0  0  0  0  0  0
  -26.9400  -30.4930   24.7920 C   0  0  0  0  0  1  0  0  0  0  0  0
  -27.4750  -32.6820   25.8220 C   0  0  0  0  0  1  0  0  0  0  0  0
  -25.4960  -34.0190   24.1890 N   0  0  0  0  0  0  0  0  0  0  0  0
  -25.8290  -35.0710   23.4320 C   0  0  0  0  0  0  0  0  0  0  0  0
  -26.5080  -34.9680   22.4070 O   0  0  0  0  0  0  0  0  0  0  0  0
  -24.8950  -34.1750   24.9850 H   0  0  0  0  0  0  0  0  0  0  0  0
  -24.0940  -36.8560   23.0570 C   0  0  0  0  0  1  0  0  0  0  0  0
  -25.3310  -36.4590   23.8800 C   0  0  0  0  0  3  0  0  0  0  0  0
  -27.4520  -37.3590   24.7260 C   0  0  0  0  0  1  0  0  0  0  0  0
  -26.3580  -37.5180   23.7720 N   0  0  0  0  0  0  0  0  0  0  0  0
  -25.9460  -38.4360   23.9140 H   0  0  0  0  0  0  0  0  0  0  0  0
  -31.9720  -21.7550   21.0170 C   0  0  0  0  0  1  0  0  0  0  0  0
  -31.2050  -21.1180   19.8470 C   0  0  0  0  0  3  0  0  0  0  0  0
  -31.2070  -21.0220   17.2560 C   0  0  0  0  0  1  0  0  0  0  0  0
  -31.5010  -21.8500   18.5150 C   0  0  0  0  0  2  0  0  0  0  0  0
  -29.6310  -19.2520   20.8750 C   0  0  0  0  0  2  0  0  0  0  0  0
  -30.3830  -17.8440   20.2770 C   0  0  0  0  0  3  0  0  0  0  0  0
  -30.8720  -15.1630   20.6670 C   0  0  0  0  0  0  0  0  0  0  0  0
  -30.7490  -12.8300   19.7000 C   0  0  0  0  0  2  0  0  0  0  0  0
  -29.8810  -12.8360   18.4210 C   0  0  0  0  0  2  0  0  0  0  0  0
  -28.3920  -12.6560   18.7690 C   0  0  0  0  0  2  0  0  0  0  0  0
  -27.9460  -13.5490   19.9560 C   0  0  0  0  0  3  0  0  0  0  0  0
  -28.9450  -13.5190   21.1310 C   0  0  0  0  0  2  0  0  0  0  0  0
  -30.2520  -13.9180   20.5930 N   0  0  0  0  0  0  0  0  0  0  0  0
  -32.0790  -15.2070   20.4240 O   0  0  0  0  0  0  0  0  0  0  0  0
  -30.1090  -16.3610   20.7710 N   0  0  0  0  0  0  0  0  0  0  0  0
  -29.1470  -16.1880   21.0170 H   0  0  0  0  0  0  0  0  0  0  0  0
  -25.5260  -14.1340   20.5390 C   0  0  0  0  0  0  0  0  0  0  0  0
  -24.4460  -13.3620   20.8590 C   0  0  0  0  0  0  0  0  0  0  0  0
  -24.9140  -12.0120   20.8840 C   0  0  0  0  0  0  0  0  0  0  0  0
  -26.5840  -13.2560   20.3780 N   0  0  0  0  0  0  0  0  0  0  0  0
  -26.2220  -11.9760   20.6530 N   0  0  0  0  0  0  0  0  0  0  0  0
  -24.1800  -10.7510   21.0550 C   0  0  0  0  0  0  0  0  0  0  0  0
  -24.5590   -9.8010   22.0280 C   0  0  0  0  0  3  0  0  0  0  0  0
  -23.8250   -8.6060   22.1880 C   0  0  0  0  0  3  0  0  0  0  0  0
  -22.6960   -8.3540   21.3710 C   0  0  0  0  0  0  0  0  0  0  0  0
  -22.3350   -9.2930   20.3890 C   0  0  0  0  0  3  0  0  0  0  0  0
  -23.0700  -10.4780   20.2280 C   0  0  0  0  0  3  0  0  0  0  0  0
  -21.9390   -7.2090   21.4370 O   0  0  0  0  0  0  0  0  0  0  0  0
  -21.8270   -6.4840   22.5970 C   0  0  0  0  0  0  0  0  0  0  0  0
  -21.3380   -7.0600   23.7890 C   0  0  0  0  0  3  0  0  0  0  0  0
  -21.1760   -6.2650   24.9410 C   0  0  0  0  0  3  0  0  0  0  0  0
  -21.4890   -4.8920   24.8990 C   0  0  0  0  0  0  0  0  0  0  0  0
  -21.9690   -4.3160   23.7100 C   0  0  0  0  0  3  0  0  0  0  0  0
  -22.1350   -5.1090   22.5610 C   0  0  0  0  0  0  0  0  0  0  0  0
  -22.5790   -4.5450   21.4120 F   0  0  0  0  0  0  0  0  0  0  0  0
  -21.3250   -4.1240   26.0010 F   0  0  0  0  0  0  0  0  0  0  0  0
  -23.0340  -13.8390   21.0360 C   0  0  0  0  0  0  0  0  0  0  0  0
  -22.2630  -13.1670   21.8820 N   0  0  0  0  0  0  0  0  0  0  0  0
  -22.6220  -14.8450   20.4610 O   0  0  0  0  0  0  0  0  0  0  0  0
  -22.6110  -12.3540   22.3690 H   0  0  0  0  0  0  0  0  0  0  0  0
  -21.3140  -13.4690   22.0450 H   0  0  0  0  0  0  0  0  0  0  0  0
  -25.6940  -15.5020   20.3400 N   0  0  0  0  0  0  0  0  0  0  0  0
  -24.9090  -16.1430   20.3670 H   0  0  0  0  0  0  0  0  0  0  0  0
  -26.5450  -15.9370   20.0110 H   0  0  0  0  0  0  0  0  0  0  0  0
  -31.1730  -16.9000   17.9910 C   0  0  0  0  0  1  0  0  0  0  0  0
  -30.2160  -17.8590   18.7290 C   0  0  0  0  0  3  0  0  0  0  0  0
  -28.3200  -18.4730   17.0990 C   0  0  0  0  0  1  0  0  0  0  0  0
  -28.7520  -17.6190   18.2980 C   0  0  0  0  0  2  0  0  0  0  0  0
  1  3  1  0
  1 52  1  0
  3  2  1  0
  3  4  1  1
  5  6  2  0
  5  3  1  0
  7  6  1  0
  8 19  2  0
  9  7  1  0
  9 14  1  0
 10 18  1  0
 10 20  1  0
 11 17  1  0
 11 13  1  0
 12 18  1  0
 13 12  1  0
 14 13  2  0
 15  9  2  0
 16 15  1  0
 16 11  2  0
 17 10  1  0
 18  8  1  0
 20 22  2  0
 21 20  1  0
 23 21  1  0
 24 33  2  0
 24 29  1  0
 25 21  1  0
 25 29  1  0
 26 25  1  0
 27 28  1  0
 27 26  1  0
 28 24  1  0
 29 30  2  0
 30 31  1  0
 32 31  2  0
 33 32  1  0
 34  8  1  0
 34 39  1  0
 34 35  1  0
 35 38  1  1
 35 36  1  0
 37 35  1  0
 39 42  1  0
 40 44  1  0
 40 39  1  0
 41 40  2  0
 44 43  1  0
 46 44  1  0
 46 47  1  0
 46 45  1  0
 49  1  1  0
 49 48  1  0
 50 51  1  0
 51 49  1  0
 53 62  1  0
 53 52  1  0
 54 62  1  0
 55 60  1  0
 56 57  1  0
 56 55  1  0
 58 57  1  0
 58 67  1  0
 58 59  1  0
 60 54  1  0
 60 59  1  0
 61 54  2  0
 62 63  1  0
 64 65  2  0
 65 66  1  0
 65 84  1  0
 66 69  1  0
 67 64  1  0
 67 68  1  0
 68 66  2  0
 69 70  1  0
 70 71  2  0
 72 75  1  0
 72 71  1  0
 73 72  2  0
 74 73  1  0
 74 69  2  0
 75 76  1  0
 76 77  1  0
 77 78  2  0
 79 78  1  0
 79 83  1  0
 80 79  2  0
 81 76  2  0
 81 80  1  0
 82 81  1  0
 84 85  1  0
 85 88  1  0
 85 87  1  0
 86 84  2  0
 89 90  1  0
 89 64  1  0
 91 89  1  0
 93 92  1  0
 93 53  1  0
 94 95  1  0
 95 93  1  0
M  ISO  4   6 101   7 101  54 100  62 100
M  END
>  <TORSDO>  (73) 
F 25

>  <SCORE>  (73) 
-12.723

>  <name>  (73) 
74

>  <ligand_id>  (73) 
74

>  <original_smiles>  (73) 
[H]c1c([H])c([H])c2c(c1[H])C([H])([H])C([H])([H])C([H])([H])C2([H])N([H])C(=O)C1([H])N(C(=O)C([H])(N([H])C(=O)C([H])(N([H])C([H])([H])[H])C([H])([H])[H])C(C([H])([H])[H])(C([H])([H])[H])C([H])([H])[H])C([H])([H])c2c([H])c(OC([H])([H])C([H])([H])[N+]([H])(C([H])([H])[H])C([H])(C([H])([H])C([H])(N([H])C(=O)N3C([H])([H])C([H])([H])C([H])([H])C([H])(n4nc(-c5c([H])c([H])c(Oc6c([H])c([H])c(F)c([H])c6F)c([H])c5[H])c(C(=O)N([H])[H])c4N([H])[H])C3([H])[H])C([H])(C([H])([H])[H])C([H])([H])C([H])([H])[H])C([H])(C([H])([H])[H])C([H])([H])C([H])([H])[H])c([H])c([H])c2C1([H])[H]

>  <smiles>  (73) 
[H]c1c([H])c([H])c2c(c1[H])C([H])([H])C([H])([H])C([H])([H])C2([H])N([H])C(=O)C1([H])N(C(=O)C([H])(N([H])C(=O)C([H])(N([H])C([H])([H])[H])C([H])([H])[H])C(C([H])([H])[H])(C([H])([H])[H])C([H])([H])[H])C([H])([H])c2c([H])c(OC([H])([H])C([H])([H])[N+]([H])(C([H])([H])[H])C([H])(C([H])([H])C([H])(N([H])C(=O)N3C([H])([H])C([H])([H])C([H])([H])C([H])(n4nc(-c5c([H])c([H])c(Oc6c([H])c([H])c(F)c([H])c6F)c([H])c5[H])c(C(=O)N([H])[H])c4N([H])[H])C3([H])[H])C([H])(C([H])([H])[H])C([H])([H])C([H])([H])[H])C([H])(C([H])([H])[H])C([H])([H])C([H])([H])[H])c([H])c([H])c2C1([H])[H]

$$$$
75:0:0
     RDKit          3D

 98106  0  0  1  0  0  0  0  0999 V2000
  -29.0820  -20.2830   19.9500 C   0  0  0  0  0  3  0  0  0  0  0  0
  -32.8800  -20.2110   19.9090 C   0  0  0  0  0  3  0  0  0  0  0  0
  -33.3050  -18.9040   20.1010 C   0  0  0  0  0  3  0  0  0  0  0  0
  -31.5120  -20.4700   19.8160 C   0  0  0  0  0  3  0  0  0  0  0  0
  -32.3700  -17.8630   20.1060 C   0  0  0  0  0  3  0  0  0  0  0  0
  -30.5000  -19.4730   19.8520 C   0  0  0  0  0  0  0  0  0  0  0  0
  -30.9640  -18.0030   19.8880 C   0  0  0  0  0  0  0  0  0  0  0  0
  -30.9640  -15.2930   19.6760 C   0  0  0  0  0  0  0  0  0  0  0  0
  -30.7380  -12.8660   18.9570 C   0  0  0  0  0  2  0  0  0  0  0  0
  -29.7570  -12.6970   17.7770 C   0  0  0  0  0  2  0  0  0  0  0  0
  -28.3240  -12.5120   18.3020 C   0  0  0  0  0  2  0  0  0  0  0  0
  -27.9650  -13.5410   19.4090 C   0  0  0  0  0  3  0  0  0  0  0  0
  -29.0770  -13.7040   20.4690 C   0  0  0  0  0  2  0  0  0  0  0  0
  -30.3050  -14.0600   19.7490 N   0  0  0  0  0  0  0  0  0  0  0  0
  -32.1350  -15.2180   19.2870 O   0  0  0  0  0  0  0  0  0  0  0  0
  -30.3290  -16.5880   19.8070 N   0  0  0  0  0  0  0  0  0  0  0  0
  -29.3240  -16.5520   19.8920 H   0  0  0  0  0  0  0  0  0  0  0  0
  -25.6870  -14.1740   20.3740 C   0  0  0  0  0  0  0  0  0  0  0  0
  -24.6220  -13.4270   20.7950 C   0  0  0  0  0  0  0  0  0  0  0  0
  -25.0210  -12.0610   20.6650 C   0  0  0  0  0  0  0  0  0  0  0  0
  -26.6650  -13.2670   20.0080 N   0  0  0  0  0  0  0  0  0  0  0  0
  -26.2810  -11.9870   20.2480 N   0  0  0  0  0  0  0  0  0  0  0  0
  -24.2540  -10.8220   20.8560 C   0  0  0  0  0  0  0  0  0  0  0  0
  -24.6660   -9.8320   21.7770 C   0  0  0  0  0  3  0  0  0  0  0  0
  -23.9000   -8.6610   21.9580 C   0  0  0  0  0  3  0  0  0  0  0  0
  -22.7070   -8.4710   21.2190 C   0  0  0  0  0  0  0  0  0  0  0  0
  -22.3140   -9.4480   20.2880 C   0  0  0  0  0  3  0  0  0  0  0  0
  -23.0820  -10.6110   20.1050 C   0  0  0  0  0  3  0  0  0  0  0  0
  -21.9130   -7.3540   21.3110 O   0  0  0  0  0  0  0  0  0  0  0  0
  -21.7950   -6.6490   22.4820 C   0  0  0  0  0  0  0  0  0  0  0  0
  -21.3050   -7.2450   23.6650 C   0  0  0  0  0  3  0  0  0  0  0  0
  -21.1330   -6.4660   24.8270 C   0  0  0  0  0  3  0  0  0  0  0  0
  -21.4410   -5.0920   24.8070 C   0  0  0  0  0  0  0  0  0  0  0  0
  -21.9240   -4.4960   23.6290 C   0  0  0  0  0  3  0  0  0  0  0  0
  -22.0970   -5.2710   22.4690 C   0  0  0  0  0  0  0  0  0  0  0  0
  -22.5430   -4.6870   21.3310 F   0  0  0  0  0  0  0  0  0  0  0  0
  -21.2690   -4.3430   25.9210 F   0  0  0  0  0  0  0  0  0  0  0  0
  -23.2740  -13.9490   21.1960 C   0  0  0  0  0  0  0  0  0  0  0  0
  -22.5900  -13.2510   22.0930 N   0  0  0  0  0  0  0  0  0  0  0  0
  -22.8430  -15.0120   20.7500 O   0  0  0  0  0  0  0  0  0  0  0  0
  -22.9550  -12.3920   22.4780 H   0  0  0  0  0  0  0  0  0  0  0  0
  -21.6860  -13.5800   22.4030 H   0  0  0  0  0  0  0  0  0  0  0  0
  -25.8960  -15.5440   20.2410 N   0  0  0  0  0  0  0  0  0  0  0  0
  -25.1610  -16.2190   20.4250 H   0  0  0  0  0  0  0  0  0  0  0  0
  -26.7170  -15.9570   19.8190 H   0  0  0  0  0  0  0  0  0  0  0  0
  -28.5620  -20.1930   21.4080 C   0  0  0  0  0  2  0  0  0  0  0  0
  -29.4300  -20.8780   22.3890 N   0  0  0  0  0  4  0  0  0  0  0  0
  -30.3610  -20.5000   22.3610 H   0  0  0  0  0  0  0  0  0  0  0  0
  -29.0690  -20.7360   23.3150 H   0  0  0  0  0  0  0  0  0  0  0  0
  -29.4810  -21.8670   22.2260 H   0  0  0  0  0  0  0  0  0  0  0  0
  -28.7240  -21.8340   19.2450 C   0  0  0  0  0  3  0  0  0  0  0  0
  -27.3270  -21.7470   18.7580 N   0  0  0  0  0  4  0  0  0  0  0  0
  -26.6540  -21.8270   19.5000 H   0  0  0  0  0  0  0  0  0  0  0  0
  -27.1720  -20.8710   18.2910 H   0  0  0  0  0  0  0  0  0  0  0  0
  -27.1380  -22.4640   18.0810 H   0  0  0  0  0  0  0  0  0  0  0  0
  -28.9090  -23.4340   19.8340 C   0  0  0  0  0  3  0  0  0  0  0  0
  -28.0880  -24.8230   19.2610 C   0  0  0  0  0  3  0  0  0  0  0  0
  -28.2890  -26.3580   19.5390 O   0  0  0  0  0  0  0  0  0  0  0  0
  -24.6760  -31.7600   23.0480 C   0  0  0  0  0  0  0  0  0  0  0  0
  -27.2170  -27.3360   19.5570 C   0  0  0  0  0  0  0  0  0  0  0  0
  -23.4320  -30.4450   21.3780 C   0  0  0  0  0  3  0  0  0  0  0  0
  -24.8480  -29.0250   19.7660 C   0  0  0  0  0  0  0  0  0  0  0  0
  -25.9680  -30.7960   21.1060 C   0  0  0  0  0  2  0  0  0  0  0  0
  -26.0450  -29.4540   20.3520 C   0  0  0  0  0  0  0  0  0  0  0  0
  -27.2250  -28.6240   20.2380 C   0  0  0  0  0  3  0  0  0  0  0  0
  -25.9940  -27.0320   18.9160 C   0  0  0  0  0  3  0  0  0  0  0  0
  -24.8360  -27.8310   19.0320 C   0  0  0  0  0  3  0  0  0  0  0  0
  -23.6000  -29.8750   19.9440 C   0  0  0  0  0  2  0  0  0  0  0  0
  -24.7150  -31.0200   21.8990 N   0  0  0  0  0  0  0  0  0  0  0  0
  -23.6120  -31.9710   23.6500 O   0  0  0  0  0  0  0  0  0  0  0  0
  -22.8360  -29.3490   22.2980 C   0  0  0  0  0  0  0  0  0  0  0  0
  -21.5160  -29.1120   22.1970 N   0  0  0  0  0  0  0  0  0  0  0  0
  -23.5640  -28.7180   23.0690 O   0  0  0  0  0  0  0  0  0  0  0  0
  -20.9830  -29.6760   21.5510 H   0  0  0  0  0  0  0  0  0  0  0  0
  -18.2320  -27.6560   22.6700 C   0  0  0  0  0  0  0  0  0  0  0  0
  -20.7690  -28.0910   22.9360 C   0  0  0  0  0  3  0  0  0  0  0  0
  -20.9670  -26.6920   22.3080 C   0  0  0  0  0  2  0  0  0  0  0  0
  -19.8840  -26.3290   21.2880 C   0  0  0  0  0  2  0  0  0  0  0  0
  -18.5000  -26.3490   21.9430 C   0  0  0  0  0  2  0  0  0  0  0  0
  -19.2970  -28.4810   23.1240 C   0  0  0  0  0  0  0  0  0  0  0  0
  -18.9900  -29.7000   23.7660 C   0  0  0  0  0  3  0  0  0  0  0  0
  -17.6540  -30.0970   23.9600 C   0  0  0  0  0  3  0  0  0  0  0  0
  -16.6050  -29.2700   23.5210 C   0  0  0  0  0  3  0  0  0  0  0  0
  -16.8950  -28.0510   22.8830 C   0  0  0  0  0  3  0  0  0  0  0  0
  -25.9660  -32.3940   23.6530 C   0  0  0  0  0  3  0  0  0  0  0  0
  -26.5530  -31.5680   24.8640 C   0  0  1  0  0  0  0  0  0  0  0  0
  -25.5150  -31.2550   25.9670 C   0  0  0  0  0  1  0  0  0  0  0  0
  -27.1420  -30.2230   24.3790 C   0  0  0  0  0  1  0  0  0  0  0  0
  -27.7200  -32.3500   25.5120 C   0  0  0  0  0  1  0  0  0  0  0  0
  -25.6330  -33.7630   24.0820 N   0  0  0  0  0  0  0  0  0  0  0  0
  -25.9410  -34.8740   23.3990 C   0  0  0  0  0  0  0  0  0  0  0  0
  -26.6010  -34.8540   22.3560 O   0  0  0  0  0  0  0  0  0  0  0  0
  -25.0460  -33.8480   24.8970 H   0  0  0  0  0  0  0  0  0  0  0  0
  -24.1860  -36.6670   23.1930 C   0  0  0  0  0  1  0  0  0  0  0  0
  -25.4400  -36.2190   23.9610 C   0  0  0  0  0  3  0  0  0  0  0  0
  -27.5660  -37.0770   24.8420 C   0  0  0  0  0  1  0  0  0  0  0  0
  -26.4570  -37.2930   23.9160 N   0  0  0  0  0  0  0  0  0  0  0  0
  -26.0390  -38.1950   24.1260 H   0  0  0  0  0  0  0  0  0  0  0  0
  1 46  1  0
  2  3  1  0
  3  5  2  0
  4  6  1  0
  4  2  2  0
  6  7  2  0
  6  1  1  0
  7  5  1  0
  8 14  1  0
  8 16  1  0
  9 14  1  0
 10 11  1  0
 10  9  1  0
 12 11  1  0
 12 21  1  0
 12 13  1  0
 14 13  1  0
 15  8  2  0
 16  7  1  0
 16 17  1  0
 18 19  2  0
 19 38  1  0
 20 19  1  0
 20 23  1  0
 21 22  1  0
 21 18  1  0
 22 20  2  0
 23 24  1  0
 24 25  2  0
 26 29  1  0
 26 25  1  0
 27 26  2  0
 28 27  1  0
 28 23  2  0
 29 30  1  0
 30 31  1  0
 31 32  2  0
 33 32  1  0
 33 37  1  0
 34 33  2  0
 35 30  2  0
 35 34  1  0
 36 35  1  0
 38 39  1  0
 39 42  1  0
 39 41  1  0
 40 38  2  0
 43 18  1  0
 43 44  1  0
 45 43  1  0
 46 47  1  0
 47 49  1  0
 48 47  1  0
 50 47  1  0
 51 56  1  0
 51  1  1  0
 52 51  1  0
 52 53  1  0
 54 52  1  0
 55 52  1  0
 57 58  1  0
 57 56  2  0
 58 60  1  0
 59 70  2  0
 60 65  1  0
 61 69  1  0
 61 71  1  0
 62 68  1  0
 62 64  1  0
 63 69  1  0
 64 63  1  0
 65 64  2  0
 66 67  1  0
 66 60  2  0
 67 62  2  0
 68 61  1  0
 69 59  1  0
 71 73  2  0
 72 71  1  0
 74 72  1  0
 75 84  2  0
 75 80  1  0
 76 72  1  0
 76 80  1  0
 77 76  1  0
 78 79  1  0
 78 77  1  0
 79 75  1  0
 80 81  2  0
 81 82  1  0
 83 82  2  0
 84 83  1  0
 85 59  1  0
 85 90  1  0
 85 86  1  0
 86 89  1  1
 86 87  1  0
 88 86  1  0
 90 93  1  0
 91 95  1  0
 91 90  1  0
 92 91  2  0
 95 94  1  0
 97 95  1  0
 97 98  1  0
 97 96  1  0
M  ISO  4   8 100  16 100  57 101  58 101
M  END
>  <TORSDO>  (74) 
F 23

>  <SCORE>  (74) 
-13.336

>  <name>  (74) 
75

>  <ligand_id>  (74) 
75

>  <original_smiles>  (74) 
[H]c1c([H])c([H])c(C([H])(C([H])([H])[N+]([H])([H])[H])C([H])(C([H])([H])C([H])([H])Oc2c([H])c([H])c3c(c2[H])C([H])([H])N(C(=O)C([H])(N([H])C(=O)C([H])(N([H])C([H])([H])[H])C([H])([H])[H])C(C([H])([H])[H])(C([H])([H])[H])C([H])([H])[H])C([H])(C(=O)N([H])C2([H])c4c([H])c([H])c([H])c([H])c4C([H])([H])C([H])([H])C2([H])[H])C3([H])[H])[N+]([H])([H])[H])c(N([H])C(=O)N2C([H])([H])C([H])([H])C([H])([H])C([H])(n3nc(-c4c([H])c([H])c(Oc5c([H])c([H])c(F)c([H])c5F)c([H])c4[H])c(C(=O)N([H])[H])c3N([H])[H])C2([H])[H])c1[H]

>  <smiles>  (74) 
[H]c1c([H])c([H])c(C([H])(C([H])([H])[N+]([H])([H])[H])C([H])(C([H])([H])C([H])([H])Oc2c([H])c([H])c3c(c2[H])C([H])([H])N(C(=O)C([H])(N([H])C(=O)C([H])(N([H])C([H])([H])[H])C([H])([H])[H])C(C([H])([H])[H])(C([H])([H])[H])C([H])([H])[H])C([H])(C(=O)N([H])C2([H])c4c([H])c([H])c([H])c([H])c4C([H])([H])C([H])([H])C2([H])[H])C3([H])[H])[N+]([H])([H])[H])c(N([H])C(=O)N2C([H])([H])C([H])([H])C([H])([H])C([H])(n3nc(-c4c([H])c([H])c(Oc5c([H])c([H])c(F)c([H])c5F)c([H])c4[H])c(C(=O)N([H])[H])c3N([H])[H])C2([H])[H])c1[H]

$$$$
76:0:0
     RDKit          3D

 86 90  0  0  1  0  0  0  0  0999 V2000
  -28.9330  -21.4150   20.5640 C   0  0  0  0  0  1  0  0  0  0  0  0
  -30.7830  -20.5340   22.1790 C   0  0  0  0  0  1  0  0  0  0  0  0
  -30.1220  -22.8960   22.2990 C   0  0  0  0  0  1  0  0  0  0  0  0
  -31.3690  -22.0590   20.2690 C   0  0  0  0  0  1  0  0  0  0  0  0
  -30.2840  -21.7200   21.3100 C   0  0  2  0  0  0  0  0  0  0  0  0
  -29.2520  -19.4450   19.8920 C   0  0  0  0  0  1  0  0  0  0  0  0
  -30.1860  -16.1170   20.1330 C   0  0  0  0  0  0  0  0  0  0  0  0
  -30.3700  -13.4740   19.3630 C   0  0  0  0  0  2  0  0  0  0  0  0
  -29.5100  -12.9440   18.1680 C   0  0  0  0  0  2  0  0  0  0  0  0
  -28.1000  -12.5420   18.6230 C   0  0  0  0  0  2  0  0  0  0  0  0
  -27.5710  -13.5200   19.6900 C   0  0  0  0  0  3  0  0  0  0  0  0
  -28.5930  -13.9510   20.7750 C   0  0  0  0  0  2  0  0  0  0  0  0
  -29.7100  -14.6840   20.1020 N   0  0  0  0  0  0  0  0  0  0  0  0
  -31.4060  -15.9980   19.8820 O   0  0  0  0  0  0  0  0  0  0  0  0
  -29.4370  -17.5750   20.2780 N   0  0  0  0  0  0  0  0  0  0  0  0
  -28.5240  -17.3040   20.6180 H   0  0  0  0  0  0  0  0  0  0  0  0
  -25.2240  -13.9810   20.5020 C   0  0  0  0  0  0  0  0  0  0  0  0
  -24.1810  -13.1850   20.8740 C   0  0  0  0  0  0  0  0  0  0  0  0
  -24.6660  -11.8400   20.8180 C   0  0  0  0  0  0  0  0  0  0  0  0
  -26.2760  -13.1320   20.2340 N   0  0  0  0  0  0  0  0  0  0  0  0
  -25.9570  -11.8310   20.4850 N   0  0  0  0  0  0  0  0  0  0  0  0
  -23.9480  -10.5690   21.0020 C   0  0  0  0  0  0  0  0  0  0  0  0
  -24.3810   -9.5990   21.9320 C   0  0  0  0  0  3  0  0  0  0  0  0
  -23.6540   -8.4010   22.1110 C   0  0  0  0  0  3  0  0  0  0  0  0
  -22.4780   -8.1650   21.3620 C   0  0  0  0  0  0  0  0  0  0  0  0
  -22.0620   -9.1230   20.4190 C   0  0  0  0  0  3  0  0  0  0  0  0
  -22.7890  -10.3130   20.2390 C   0  0  0  0  0  3  0  0  0  0  0  0
  -21.7220   -7.0200   21.4490 O   0  0  0  0  0  0  0  0  0  0  0  0
  -21.6640   -6.2820   22.6050 C   0  0  0  0  0  0  0  0  0  0  0  0
  -21.2010   -6.8330   23.8200 C   0  0  0  0  0  3  0  0  0  0  0  0
  -21.0960   -6.0210   24.9660 C   0  0  0  0  0  3  0  0  0  0  0  0
  -21.4410   -4.6580   24.9000 C   0  0  0  0  0  0  0  0  0  0  0  0
  -21.8930   -4.1060   23.6880 C   0  0  0  0  0  3  0  0  0  0  0  0
  -22.0030   -4.9150   22.5440 C   0  0  0  0  0  0  0  0  0  0  0  0
  -22.4210   -4.3720   21.3760 F   0  0  0  0  0  0  0  0  0  0  0  0
  -21.3300   -3.8760   25.9990 F   0  0  0  0  0  0  0  0  0  0  0  0
  -22.7840  -13.6430   21.1630 C   0  0  0  0  0  0  0  0  0  0  0  0
  -22.0730  -12.9310   22.0270 N   0  0  0  0  0  0  0  0  0  0  0  0
  -22.3360  -14.6740   20.6560 O   0  0  0  0  0  0  0  0  0  0  0  0
  -22.4520  -12.0980   22.4550 H   0  0  0  0  0  0  0  0  0  0  0  0
  -21.1330  -13.2180   22.2660 H   0  0  0  0  0  0  0  0  0  0  0  0
  -25.3660  -15.3550   20.3320 N   0  0  0  0  0  0  0  0  0  0  0  0
  -24.5910  -16.0060   20.4250 H   0  0  0  0  0  0  0  0  0  0  0  0
  -26.2070  -15.7910   19.9770 H   0  0  0  0  0  0  0  0  0  0  0  0
  -28.1920  -23.3390   20.0640 C   0  0  0  0  0 15  0  0  0  0  0  0
  -28.1360  -25.2130   20.4050 O   0  0  0  0  0  1  0  0  0  0  0  0
  -24.6120  -31.8540   23.1660 C   0  0  0  0  0  0  0  0  0  0  0  0
  -27.1940  -26.5410   20.2820 C   0  0  0  0  0  0  0  0  0  0  0  0
  -23.4610  -30.4290   21.5280 C   0  0  0  0  0  3  0  0  0  0  0  0
  -24.9410  -28.7270   20.1620 C   0  0  0  0  0  0  0  0  0  0  0  0
  -26.0510  -30.5070   21.4770 C   0  0  0  0  0  2  0  0  0  0  0  0
  -26.1290  -29.0440   20.8280 C   0  0  0  0  0  0  0  0  0  0  0  0
  -27.2260  -27.9880   20.8480 C   0  0  0  0  0  3  0  0  0  0  0  0
  -25.9690  -26.5010   19.5480 C   0  0  0  0  0  3  0  0  0  0  0  0
  -24.9160  -27.4850   19.4970 C   0  0  0  0  0  3  0  0  0  0  0  0
  -23.7380  -29.7000   20.1760 C   0  0  0  0  0  2  0  0  0  0  0  0
  -24.7330  -30.9680   22.1090 N   0  0  0  0  0  0  0  0  0  0  0  0
  -23.5070  -32.1670   23.6470 O   0  0  0  0  0  0  0  0  0  0  0  0
  -22.7100  -29.4820   22.5050 C   0  0  0  0  0  0  0  0  0  0  0  0
  -21.3760  -29.3430   22.3720 N   0  0  0  0  0  0  0  0  0  0  0  0
  -23.3470  -28.8680   23.3660 O   0  0  0  0  0  0  0  0  0  0  0  0
  -20.9080  -29.8910   21.6630 H   0  0  0  0  0  0  0  0  0  0  0  0
  -17.9780  -28.1440   22.8730 C   0  0  0  0  0  0  0  0  0  0  0  0
  -20.5360  -28.4150   23.1450 C   0  0  0  0  0  3  0  0  0  0  0  0
  -20.6380  -26.9760   22.5850 C   0  0  0  0  0  2  0  0  0  0  0  0
  -19.5430  -26.6480   21.5630 C   0  0  0  0  0  2  0  0  0  0  0  0
  -18.1580  -26.7950   22.1980 C   0  0  0  0  0  2  0  0  0  0  0  0
  -19.0930  -28.9110   23.3020 C   0  0  0  0  0  0  0  0  0  0  0  0
  -18.8650  -30.1700   23.9020 C   0  0  0  0  0  3  0  0  0  0  0  0
  -17.5570  -30.6590   24.0730 C   0  0  0  0  0  3  0  0  0  0  0  0
  -16.4570  -29.8910   23.6550 C   0  0  0  0  0  3  0  0  0  0  0  0
  -16.6680  -28.6350   23.0600 C   0  0  0  0  0  3  0  0  0  0  0  0
  -25.8560  -32.5250   23.8250 C   0  0  0  0  0  3  0  0  0  0  0  0
  -26.3150  -31.8010   25.1530 C   0  0  1  0  0  0  0  0  0  0  0  0
  -25.1780  -31.6080   26.1840 C   0  0  0  0  0  1  0  0  0  0  0  0
  -26.9090  -30.4070   24.8570 C   0  0  0  0  0  1  0  0  0  0  0  0
  -27.4390  -32.6210   25.8340 C   0  0  0  0  0  1  0  0  0  0  0  0
  -25.5220  -33.9340   24.1270 N   0  0  0  0  0  0  0  0  0  0  0  0
  -25.8730  -34.9930   23.3830 C   0  0  0  0  0  0  0  0  0  0  0  0
  -26.5610  -34.8870   22.3660 O   0  0  0  0  0  0  0  0  0  0  0  0
  -24.9160  -34.0870   24.9170 H   0  0  0  0  0  0  0  0  0  0  0  0
  -24.1560  -36.8020   23.0100 C   0  0  0  0  0  1  0  0  0  0  0  0
  -25.3860  -36.3870   23.8350 C   0  0  0  0  0  3  0  0  0  0  0  0
  -27.5090  -37.2790   24.6980 C   0  0  0  0  0  1  0  0  0  0  0  0
  -26.4210  -37.4430   23.7380 N   0  0  0  0  0  0  0  0  0  0  0  0
  -26.0080  -38.3610   23.8830 H   0  0  0  0  0  0  0  0  0  0  0  0
  5  1  1  6
  4  5  1  0
  5  2  1  0
  5  3  1  0
  6 15  1  0
  7 15  1  0
  8 13  1  0
  9 10  1  0
  9  8  1  0
 11 10  1  0
 11 20  1  0
 11 12  1  0
 13  7  1  0
 13 12  1  0
 14  7  2  0
 15 16  1  0
 17 18  2  0
 18 37  1  0
 19 18  1  0
 19 22  1  0
 20 21  1  0
 20 17  1  0
 21 19  2  0
 22 23  1  0
 23 24  2  0
 25 28  1  0
 25 24  1  0
 26 25  2  0
 27 26  1  0
 27 22  2  0
 28 29  1  0
 29 30  1  0
 30 31  2  0
 32 31  1  0
 32 36  1  0
 33 32  2  0
 34 29  2  0
 34 33  1  0
 35 34  1  0
 37 38  1  0
 38 41  1  0
 38 40  1  0
 39 37  2  0
 42 43  1  0
 42 17  1  0
 44 42  1  0
 47 58  2  0
 48 46  1  0
 48 53  1  0
 49 57  1  0
 49 59  1  0
 50 56  1  0
 50 52  1  0
 51 57  1  0
 52 53  2  0
 52 51  1  0
 54 48  2  0
 55 54  1  0
 55 50  2  0
 56 49  1  0
 57 47  1  0
 59 61  2  0
 60 59  1  0
 62 60  1  0
 63 72  2  0
 63 68  1  0
 64 60  1  0
 64 68  1  0
 65 64  1  0
 66 67  1  0
 66 65  1  0
 67 63  1  0
 68 69  2  0
 69 70  1  0
 71 70  2  0
 72 71  1  0
 73 47  1  0
 73 78  1  0
 73 74  1  0
 74 77  1  1
 74 75  1  0
 76 74  1  0
 78 81  1  0
 79 83  1  0
 79 78  1  0
 80 79  2  0
 83 82  1  0
 85 83  1  0
 85 86  1  0
 85 84  1  0
M  ISO  4   7 100  15 100  45 101  46 101
M  END
>  <TORSDO>  (75) 
F 19

>  <SCORE>  (75) 
-16.344

>  <name>  (75) 
76

>  <ligand_id>  (75) 
76

>  <original_smiles>  (75) 
[H]c1c([H])c([H])c2c(c1[H])C([H])([H])C([H])([H])C([H])([H])C2([H])N([H])C(=O)C1([H])N(C(=O)C([H])(N([H])C(=O)C([H])(N([H])C([H])([H])[H])C([H])([H])[H])C(C([H])([H])[H])(C([H])([H])[H])C([H])([H])[H])C([H])([H])c2c([H])c(OC([H])([H])C([H])(C([H])([H])N([H])C(=O)N3C([H])([H])C([H])([H])C([H])([H])C([H])(n4nc(-c5c([H])c([H])c(Oc6c([H])c([H])c(F)c([H])c6F)c([H])c5[H])c(C(=O)N([H])[H])c4N([H])[H])C3([H])[H])C(C([H])([H])[H])(C([H])([H])[H])C([H])([H])[H])c([H])c([H])c2C1([H])[H]

>  <smiles>  (75) 
[H]c1c([H])c([H])c2c(c1[H])C([H])([H])C([H])([H])C([H])([H])C2([H])N([H])C(=O)C1([H])N(C(=O)C([H])(N([H])C(=O)C([H])(N([H])C([H])([H])[H])C([H])([H])[H])C(C([H])([H])[H])(C([H])([H])[H])C([H])([H])[H])C([H])([H])c2c([H])c(OC([H])([H])C([H])(C([H])([H])N([H])C(=O)N3C([H])([H])C([H])([H])C([H])([H])C([H])(n4nc(-c5c([H])c([H])c(Oc6c([H])c([H])c(F)c([H])c6F)c([H])c5[H])c(C(=O)N([H])[H])c4N([H])[H])C3([H])[H])C(C([H])([H])[H])(C([H])([H])[H])C([H])([H])[H])c([H])c([H])c2C1([H])[H]

$$$$
77:0:0
     RDKit          3D

 94101  0  0  1  0  0  0  0  0999 V2000
  -28.3330  -19.3060   21.3280 C   0  0  0  0  0  1  0  0  0  0  0  0
  -29.3060  -19.6420   20.1890 C   0  0  0  0  0  3  0  0  0  0  0  0
  -28.8140  -21.2290   19.5160 C   0  0  0  0  0  2  0  0  0  0  0  0
  -28.5710  -22.8530   21.6260 C   0  0  0  0  0  1  0  0  0  0  0  0
  -28.8420  -22.9120   20.1190 C   0  0  0  0  0  3  0  0  0  0  0  0
  -28.0320  -24.3980   19.5560 C   0  0  0  0  0  2  0  0  0  0  0  0
  -28.1700  -25.9810   19.9300 O   0  0  0  0  0  0  0  0  0  0  0  0
  -24.5110  -31.7180   23.0860 C   0  0  0  0  0  0  0  0  0  0  0  0
  -27.1300  -27.0340   19.8770 C   0  0  0  0  0  0  0  0  0  0  0  0
  -23.3240  -30.3530   21.4150 C   0  0  0  0  0  3  0  0  0  0  0  0
  -24.7880  -28.8360   19.9180 C   0  0  0  0  0  0  0  0  0  0  0  0
  -25.8800  -30.6350   21.2420 C   0  0  0  0  0  2  0  0  0  0  0  0
  -25.9700  -29.2540   20.5400 C   0  0  0  0  0  0  0  0  0  0  0  0
  -27.1350  -28.3710   20.5000 C   0  0  0  0  0  3  0  0  0  0  0  0
  -25.9190  -26.7630   19.2020 C   0  0  0  0  0  3  0  0  0  0  0  0
  -24.7830  -27.6120   19.2300 C   0  0  0  0  0  3  0  0  0  0  0  0
  -23.5480  -29.7230   20.0120 C   0  0  0  0  0  2  0  0  0  0  0  0
  -24.5930  -30.9270   21.9690 N   0  0  0  0  0  0  0  0  0  0  0  0
  -23.4240  -31.9670   23.6300 O   0  0  0  0  0  0  0  0  0  0  0  0
  -22.6660  -29.3090   22.3530 C   0  0  0  0  0  0  0  0  0  0  0  0
  -21.3360  -29.1290   22.2460 N   0  0  0  0  0  0  0  0  0  0  0  0
  -23.3570  -28.6620   23.1450 O   0  0  0  0  0  0  0  0  0  0  0  0
  -20.8310  -29.7050   21.5870 H   0  0  0  0  0  0  0  0  0  0  0  0
  -17.9780  -27.8710   22.7860 C   0  0  0  0  0  0  0  0  0  0  0  0
  -20.5420  -28.1530   22.9970 C   0  0  0  0  0  3  0  0  0  0  0  0
  -20.6400  -26.7460   22.3600 C   0  0  0  0  0  2  0  0  0  0  0  0
  -19.5160  -26.4560   21.3600 C   0  0  0  0  0  2  0  0  0  0  0  0
  -18.1500  -26.5550   22.0460 C   0  0  0  0  0  2  0  0  0  0  0  0
  -19.1000  -28.6280   23.2190 C   0  0  0  0  0  0  0  0  0  0  0  0
  -18.8810  -29.8580   23.8760 C   0  0  0  0  0  3  0  0  0  0  0  0
  -17.5750  -30.3320   24.1030 C   0  0  0  0  0  3  0  0  0  0  0  0
  -16.4690  -29.5730   23.6830 C   0  0  0  0  0  3  0  0  0  0  0  0
  -16.6720  -28.3430   23.0310 C   0  0  0  0  0  3  0  0  0  0  0  0
  -25.7770  -32.3640   23.7240 C   0  0  0  0  0  3  0  0  0  0  0  0
  -26.2980  -31.5830   24.9940 C   0  0  1  0  0  0  0  0  0  0  0  0
  -25.2050  -31.3170   26.0550 C   0  0  0  0  0  1  0  0  0  0  0  0
  -26.9010  -30.2160   24.5920 C   0  0  0  0  0  1  0  0  0  0  0  0
  -27.4370  -32.3820   25.6700 C   0  0  0  0  0  1  0  0  0  0  0  0
  -25.4440  -33.7540   24.0840 N   0  0  0  0  0  0  0  0  0  0  0  0
  -25.7540  -34.8310   23.3520 C   0  0  0  0  0  0  0  0  0  0  0  0
  -26.4130  -34.7630   22.3120 O   0  0  0  0  0  0  0  0  0  0  0  0
  -24.8530  -33.8780   24.8930 H   0  0  0  0  0  0  0  0  0  0  0  0
  -23.9970  -36.6140   23.0700 C   0  0  0  0  0  1  0  0  0  0  0  0
  -25.2560  -36.2040   23.8510 C   0  0  0  0  0  3  0  0  0  0  0  0
  -27.3820  -37.1100   24.6830 C   0  0  0  0  0  1  0  0  0  0  0  0
  -26.2730  -37.2740   23.7480 N   0  0  0  0  0  0  0  0  0  0  0  0
  -25.8540  -38.1860   23.9090 H   0  0  0  0  0  0  0  0  0  0  0  0
  -29.6090  -18.0850   19.3830 C   0  0  0  0  0  0  0  0  0  0  0  0
  -30.4650  -15.2810   19.7430 C   0  0  0  0  0  0  0  0  0  0  0  0
  -30.3870  -12.8350   18.9270 C   0  0  0  0  0  2  0  0  0  0  0  0
  -29.3820  -12.6480   17.7640 C   0  0  0  0  0  2  0  0  0  0  0  0
  -27.9670  -12.3860   18.3060 C   0  0  0  0  0  2  0  0  0  0  0  0
  -27.6020  -13.3500   19.4630 C   0  0  0  0  0  3  0  0  0  0  0  0
  -28.7270  -13.4920   20.5110 C   0  0  0  0  0  2  0  0  0  0  0  0
  -29.9170  -13.9750   19.7960 N   0  0  0  0  0  0  0  0  0  0  0  0
  -31.6380  -15.3010   19.3460 O   0  0  0  0  0  0  0  0  0  0  0  0
  -29.6920  -16.5200   19.9410 N   0  0  0  0  0  4  0  0  0  0  0  0
  -28.8200  -16.2790   20.3910 H   0  0  0  0  0  0  0  0  0  0  0  0
  -25.3030  -13.9000   20.4240 C   0  0  0  0  0  0  0  0  0  0  0  0
  -24.2700  -13.1170   20.8600 C   0  0  0  0  0  0  0  0  0  0  0  0
  -24.7230  -11.7670   20.7520 C   0  0  0  0  0  0  0  0  0  0  0  0
  -26.3160  -13.0270   20.0690 N   0  0  0  0  0  0  0  0  0  0  0  0
  -25.9840  -11.7360   20.3320 N   0  0  0  0  0  0  0  0  0  0  0  0
  -24.0060  -10.5020   20.9660 C   0  0  0  0  0  0  0  0  0  0  0  0
  -24.4750   -9.5300   21.8770 C   0  0  0  0  0  3  0  0  0  0  0  0
  -23.7550   -8.3340   22.0820 C   0  0  0  0  0  3  0  0  0  0  0  0
  -22.5520   -8.0990   21.3750 C   0  0  0  0  0  0  0  0  0  0  0  0
  -22.1020   -9.0590   20.4520 C   0  0  0  0  0  3  0  0  0  0  0  0
  -22.8220  -10.2480   20.2460 C   0  0  0  0  0  3  0  0  0  0  0  0
  -21.8010   -6.9540   21.4890 O   0  0  0  0  0  0  0  0  0  0  0  0
  -21.7680   -6.2280   22.6530 C   0  0  0  0  0  0  0  0  0  0  0  0
  -21.2970   -6.7820   23.8630 C   0  0  0  0  0  3  0  0  0  0  0  0
  -21.2140   -5.9800   25.0190 C   0  0  0  0  0  3  0  0  0  0  0  0
  -21.5910   -4.6250   24.9660 C   0  0  0  0  0  0  0  0  0  0  0  0
  -22.0550   -4.0700   23.7600 C   0  0  0  0  0  3  0  0  0  0  0  0
  -22.1390   -4.8690   22.6050 C   0  0  0  0  0  0  0  0  0  0  0  0
  -22.5660   -4.3240   21.4410 F   0  0  0  0  0  0  0  0  0  0  0  0
  -21.5060   -3.8530   26.0730 F   0  0  0  0  0  0  0  0  0  0  0  0
  -22.9030  -13.5930   21.2580 C   0  0  0  0  0  0  0  0  0  0  0  0
  -22.2390  -12.8730   22.1550 N   0  0  0  0  0  0  0  0  0  0  0  0
  -22.4370  -14.6390   20.8090 O   0  0  0  0  0  0  0  0  0  0  0  0
  -22.6330  -12.0260   22.5400 H   0  0  0  0  0  0  0  0  0  0  0  0
  -21.3250  -13.1720   22.4620 H   0  0  0  0  0  0  0  0  0  0  0  0
  -25.4570  -15.2750   20.2710 N   0  0  0  0  0  0  0  0  0  0  0  0
  -24.7020  -15.9250   20.4650 H   0  0  0  0  0  0  0  0  0  0  0  0
  -26.2600  -15.7180   19.8440 H   0  0  0  0  0  0  0  0  0  0  0  0
  -30.6520  -18.3310   18.2680 C   0  0  0  0  0  2  0  0  0  0  0  0
  -30.0020  -18.5620   16.8900 C   0  0  0  0  0  2  0  0  0  0  0  0
  -31.0210  -18.8860   15.7860 C   0  0  0  0  0  2  0  0  0  0  0  0
  -30.3780  -19.1530   14.4080 C   0  0  0  0  0  2  0  0  0  0  0  0
  -29.7980  -17.9410   13.8020 N   0  0  0  0  0  4  0  0  0  0  0  0
  -30.4900  -17.2210   13.7070 H   0  0  0  0  0  0  0  0  0  0  0  0
  -29.4510  -18.1580   12.8840 H   0  0  0  0  0  0  0  0  0  0  0  0
  -29.0310  -17.5910   14.3460 H   0  0  0  0  0  0  0  0  0  0  0  0
  2  1  1  0
  3  5  1  0
  3  2  1  0
  5  4  1  0
  6  7  1  0
  6  5  1  0
  8 19  2  0
  9  7  1  0
  9 14  1  0
 10 18  1  0
 10 20  1  0
 11 17  1  0
 11 13  1  0
 12 18  1  0
 13 12  1  0
 14 13  2  0
 15 16  1  0
 15  9  2  0
 16 11  2  0
 17 10  1  0
 18  8  1  0
 20 22  2  0
 21 20  1  0
 23 21  1  0
 24 33  2  0
 24 29  1  0
 25 21  1  0
 25 29  1  0
 26 25  1  0
 27 28  1  0
 27 26  1  0
 28 24  1  0
 29 30  2  0
 30 31  1  0
 32 31  2  0
 33 32  1  0
 34  8  1  0
 34 39  1  0
 34 35  1  0
 35 38  1  1
 35 36  1  0
 37 35  1  0
 39 42  1  0
 40 44  1  0
 40 39  1  0
 41 40  2  0
 44 43  1  0
 46 44  1  0
 46 47  1  0
 46 45  1  0
 48 57  2  0
 48  2  1  0
 49 55  1  0
 49 57  1  0
 50 55  1  0
 51 52  1  0
 51 50  1  0
 53 52  1  0
 53 62  1  0
 53 54  1  0
 55 54  1  0
 56 49  2  0
 57 58  1  0
 59 60  2  0
 60 79  1  0
 61 60  1  0
 61 64  1  0
 62 63  1  0
 62 59  1  0
 63 61  2  0
 64 65  1  0
 65 66  2  0
 67 70  1  0
 67 66  1  0
 68 67  2  0
 69 68  1  0
 69 64  2  0
 70 71  1  0
 71 72  1  0
 72 73  2  0
 74 73  1  0
 74 78  1  0
 75 74  2  0
 76 71  2  0
 76 75  1  0
 77 76  1  0
 79 80  1  0
 80 83  1  0
 80 82  1  0
 81 79  2  0
 84 59  1  0
 84 85  1  0
 86 84  1  0
 87 48  1  0
 88 87  1  0
 89 88  1  0
 90 89  1  0
 91 94  1  0
 91 90  1  0
 92 91  1  0
 93 91  1  0
M  ISO  4   6 101   7 101  49 100  57 100
M  END
>  <TORSDO>  (76) 
F 25

>  <SCORE>  (76) 
-12.797

>  <name>  (76) 
77

>  <ligand_id>  (76) 
77

>  <original_smiles>  (76) 
[H]c1c([H])c([H])c2c(c1[H])C([H])([H])C([H])([H])C([H])([H])C2([H])N([H])C(=O)C1([H])N(C(=O)C([H])(N([H])C(=O)C([H])(N([H])C([H])([H])[H])C([H])([H])[H])C(C([H])([H])[H])(C([H])([H])[H])C([H])([H])[H])C([H])([H])c2c([H])c(OC([H])([H])C([H])(C([H])([H])[H])C([H])([H])C([H])(C([H])([H])[H])C([H])(N([H])C(=O)N3C([H])([H])C([H])([H])C([H])([H])C([H])(n4nc(-c5c([H])c([H])c(Oc6c([H])c([H])c(F)c([H])c6F)c([H])c5[H])c(C(=O)N([H])[H])c4N([H])[H])C3([H])[H])C([H])([H])C([H])([H])C([H])([H])C([H])([H])[N+]([H])([H])[H])c([H])c([H])c2C1([H])[H]

>  <smiles>  (76) 
[H]c1c([H])c([H])c2c(c1[H])C([H])([H])C([H])([H])C([H])([H])C2([H])N([H])C(=O)C1([H])N(C(=O)C([H])(N([H])C(=O)C([H])(N([H])C([H])([H])[H])C([H])([H])[H])C(C([H])([H])[H])(C([H])([H])[H])C([H])([H])[H])C([H])([H])c2c([H])c(OC([H])([H])C([H])(C([H])([H])[H])C([H])([H])C([H])(C([H])([H])[H])C([H])(N([H])C(=O)N3C([H])([H])C([H])([H])C([H])([H])C([H])(n4nc(-c5c([H])c([H])c(Oc6c([H])c([H])c(F)c([H])c6F)c([H])c5[H])c(C(=O)N([H])[H])c4N([H])[H])C3([H])[H])C([H])([H])C([H])([H])C([H])([H])C([H])([H])[N+]([H])([H])[H])c([H])c([H])c2C1([H])[H]

$$$$
78:0:0
     RDKit          3D

 91 98  0  0  1  0  0  0  0  0999 V2000
  -29.6500  -20.3970   19.4970 C   0  0  0  0  0  3  0  0  0  0  0  0
  -30.0520  -18.8900   20.0910 C   0  0  0  0  0  0  0  0  0  0  0  0
  -31.0620  -18.8680   20.7990 O   0  0  0  0  0  0  0  0  0  0  0  0
  -29.2300  -17.4290   19.8700 C   0  0  0  0  0  0  0  0  0  0  0  0
  -30.5780  -14.8930   20.4290 C   0  0  0  0  0  0  0  0  0  0  0  0
  -30.6430  -12.3660   20.1580 C   0  0  0  0  0  2  0  0  0  0  0  0
  -29.8570  -11.9670   18.8820 C   0  0  0  0  0  2  0  0  0  0  0  0
  -28.3470  -11.8380   19.1710 C   0  0  0  0  0  2  0  0  0  0  0  0
  -27.8000  -13.0210   20.0090 C   0  0  0  0  0  3  0  0  0  0  0  0
  -28.7110  -13.3380   21.2160 C   0  0  0  0  0  2  0  0  0  0  0  0
  -30.0510  -13.6260   20.6790 N   0  0  0  0  0  0  0  0  0  0  0  0
  -31.7970  -15.0030   20.2650 O   0  0  0  0  0  0  0  0  0  0  0  0
  -29.6320  -15.9160   20.1910 N   0  0  0  0  0  4  0  0  0  0  0  0
  -28.7610  -15.4390   20.3490 H   0  0  0  0  0  0  0  0  0  0  0  0
  -25.4150  -13.7790   20.5550 C   0  0  0  0  0  0  0  0  0  0  0  0
  -24.2720  -13.0970   20.8660 C   0  0  0  0  0  0  0  0  0  0  0  0
  -24.6370  -11.7150   20.8700 C   0  0  0  0  0  0  0  0  0  0  0  0
  -26.4070  -12.8260   20.4030 N   0  0  0  0  0  0  0  0  0  0  0  0
  -25.9410  -11.5770   20.6550 N   0  0  0  0  0  0  0  0  0  0  0  0
  -23.8030  -10.5160   21.0050 C   0  0  0  0  0  0  0  0  0  0  0  0
  -24.1380   -9.4800   21.9050 C   0  0  0  0  0  3  0  0  0  0  0  0
  -23.3070   -8.3450   22.0290 C   0  0  0  0  0  3  0  0  0  0  0  0
  -22.1280   -8.2420   21.2540 C   0  0  0  0  0  0  0  0  0  0  0  0
  -21.8110   -9.2670   20.3460 C   0  0  0  0  0  3  0  0  0  0  0  0
  -22.6410  -10.3920   20.2180 C   0  0  0  0  0  3  0  0  0  0  0  0
  -21.2750   -7.1670   21.2930 O   0  0  0  0  0  0  0  0  0  0  0  0
  -21.1810   -6.3630   22.4010 C   0  0  0  0  0  0  0  0  0  0  0  0
  -20.8060   -6.8760   23.6630 C   0  0  0  0  0  3  0  0  0  0  0  0
  -20.6480   -6.0020   24.7570 C   0  0  0  0  0  3  0  0  0  0  0  0
  -20.8570   -4.6210   24.5920 C   0  0  0  0  0  0  0  0  0  0  0  0
  -21.2270   -4.1090   23.3360 C   0  0  0  0  0  3  0  0  0  0  0  0
  -21.3850   -4.9770   22.2430 C   0  0  0  0  0  0  0  0  0  0  0  0
  -21.7190   -4.4760   21.0290 F   0  0  0  0  0  0  0  0  0  0  0  0
  -20.7020   -3.7820   25.6430 F   0  0  0  0  0  0  0  0  0  0  0  0
  -22.9020  -13.6870   21.0370 C   0  0  0  0  0  0  0  0  0  0  0  0
  -22.0700  -13.0760   21.8710 N   0  0  0  0  0  0  0  0  0  0  0  0
  -22.5790  -14.7280   20.4640 O   0  0  0  0  0  0  0  0  0  0  0  0
  -22.3470  -12.2380   22.3610 H   0  0  0  0  0  0  0  0  0  0  0  0
  -21.1460  -13.4560   22.0240 H   0  0  0  0  0  0  0  0  0  0  0  0
  -25.6750  -15.1240   20.3560 N   0  0  0  0  0  0  0  0  0  0  0  0
  -24.9230  -15.8030   20.3490 H   0  0  0  0  0  0  0  0  0  0  0  0
  -26.5310  -15.4930   19.9660 H   0  0  0  0  0  0  0  0  0  0  0  0
  -28.3250  -17.3340   18.5690 C   0  0  0  0  0  2  0  0  0  0  0  0
  -27.2370  -18.3000   16.4350 C   0  0  0  0  0  1  0  0  0  0  0  0
  -27.0150  -19.6280   18.6050 C   0  0  0  0  0  1  0  0  0  0  0  0
  -27.1680  -18.2290   17.9760 C   0  0  0  0  0  3  0  0  0  0  0  0
  -29.1750  -21.7900   20.3200 C   0  0  0  0  0  3  0  0  0  0  0  0
  -28.4470  -23.2530   18.2890 C   0  0  0  0  0  1  0  0  0  0  0  0
  -29.0990  -23.3540   19.6790 C   0  0  0  0  0  3  0  0  0  0  0  0
  -28.4320  -24.6770   20.4900 C   0  0  0  0  0  2  0  0  0  0  0  0
  -28.5680  -26.2050   20.2190 O   0  0  0  0  0  0  0  0  0  0  0  0
  -24.7200  -31.7860   23.2130 C   0  0  0  0  0  0  0  0  0  0  0  0
  -27.4610  -27.1270   20.2330 C   0  0  0  0  0  0  0  0  0  0  0  0
  -23.5870  -30.3870   21.5280 C   0  0  0  0  0  3  0  0  0  0  0  0
  -25.0980  -28.8190   20.1570 C   0  0  0  0  0  0  0  0  0  0  0  0
  -26.1400  -30.6800   21.4420 C   0  0  0  0  0  2  0  0  0  0  0  0
  -26.2530  -29.2900   20.7930 C   0  0  0  0  0  0  0  0  0  0  0  0
  -27.4390  -28.4620   20.8060 C   0  0  0  0  0  3  0  0  0  0  0  0
  -26.2720  -26.7420   19.5820 C   0  0  0  0  0  3  0  0  0  0  0  0
  -25.1160  -27.5570   19.5420 C   0  0  0  0  0  3  0  0  0  0  0  0
  -23.8630  -29.7090   20.1580 C   0  0  0  0  0  2  0  0  0  0  0  0
  -24.8340  -30.9720   22.1180 N   0  0  0  0  0  0  0  0  0  0  0  0
  -23.6140  -32.0580   23.7060 O   0  0  0  0  0  0  0  0  0  0  0  0
  -22.8840  -29.3720   22.4640 C   0  0  0  0  0  0  0  0  0  0  0  0
  -21.5540  -29.2240   22.3180 N   0  0  0  0  0  0  0  0  0  0  0  0
  -23.5350  -28.7220   23.2850 O   0  0  0  0  0  0  0  0  0  0  0  0
  -21.0870  -29.8030   21.6330 H   0  0  0  0  0  0  0  0  0  0  0  0
  -18.1460  -28.1030   22.7960 C   0  0  0  0  0  0  0  0  0  0  0  0
  -20.7110  -28.2830   23.0600 C   0  0  0  0  0  3  0  0  0  0  0  0
  -20.7700  -26.8700   22.4340 C   0  0  0  0  0  2  0  0  0  0  0  0
  -19.6560  -26.6130   21.4140 C   0  0  0  0  0  2  0  0  0  0  0  0
  -18.2820  -26.7730   22.0710 C   0  0  0  0  0  2  0  0  0  0  0  0
  -19.2860  -28.8190   23.2480 C   0  0  0  0  0  0  0  0  0  0  0  0
  -19.1050  -30.0620   23.8910 C   0  0  0  0  0  3  0  0  0  0  0  0
  -17.8150  -30.5920   24.0830 C   0  0  0  0  0  3  0  0  0  0  0  0
  -16.6900  -29.8740   23.6460 C   0  0  0  0  0  3  0  0  0  0  0  0
  -16.8550  -28.6290   23.0110 C   0  0  0  0  0  3  0  0  0  0  0  0
  -25.9690  -32.4300   23.8880 C   0  0  0  0  0  3  0  0  0  0  0  0
  -25.6460  -33.8350   24.1810 N   0  0  0  0  0  0  0  0  0  0  0  0
  -26.0050  -34.8770   23.4200 C   0  0  0  0  0  0  0  0  0  0  0  0
  -26.7070  -34.7580   22.4120 O   0  0  0  0  0  0  0  0  0  0  0  0
  -25.0200  -34.0010   24.9560 H   0  0  0  0  0  0  0  0  0  0  0  0
  -24.2800  -36.6650   23.0020 C   0  0  0  0  0  1  0  0  0  0  0  0
  -25.5060  -36.2730   23.8420 C   0  0  0  0  0  3  0  0  0  0  0  0
  -27.6190  -37.1850   24.7020 C   0  0  0  0  0  1  0  0  0  0  0  0
  -26.5390  -37.3270   23.7300 N   0  0  0  0  0  0  0  0  0  0  0  0
  -26.1250  -38.2490   23.8480 H   0  0  0  0  0  0  0  0  0  0  0  0
  -26.4170  -31.6830   25.2030 C   0  0  1  0  0  0  0  0  0  0  0  0
  -25.2710  -31.4670   26.2190 C   0  0  0  0  0  1  0  0  0  0  0  0
  -27.0150  -30.2980   24.8670 C   0  0  0  0  0  1  0  0  0  0  0  0
  -27.5360  -32.4860   25.9080 C   0  0  0  0  0  1  0  0  0  0  0  0
  1  2  1  0
  1 47  2  0
  2  3  2  0
  4  2  1  0
  4 13  2  0
  5 11  1  0
  6 11  1  0
  7  8  1  0
  7  6  1  0
  9  8  1  0
  9 18  1  0
  9 10  1  0
 11 10  1  0
 12  5  2  0
 13 14  1  0
 13  5  1  0
 15 16  2  0
 16 17  1  0
 16 35  1  0
 17 20  1  0
 18 15  1  0
 18 19  1  0
 19 17  2  0
 20 21  1  0
 21 22  2  0
 23 26  1  0
 23 22  1  0
 24 23  2  0
 25 24  1  0
 25 20  2  0
 26 27  1  0
 27 28  1  0
 28 29  2  0
 30 29  1  0
 30 34  1  0
 31 30  2  0
 32 27  2  0
 32 31  1  0
 33 32  1  0
 35 36  1  0
 36 39  1  0
 36 38  1  0
 37 35  2  0
 40 15  1  0
 41 40  1  0
 42 40  1  0
 43  4  1  0
 44 46  1  0
 46 43  1  0
 46 45  1  0
 49 48  1  0
 49 47  1  0
 49 50  1  0
 51 53  1  0
 51 50  1  0
 52 63  2  0
 53 58  1  0
 54 62  1  0
 54 64  1  0
 55 61  1  0
 55 57  1  0
 56 62  1  0
 57 58  2  0
 57 56  1  0
 59 53  2  0
 60 59  1  0
 60 55  2  0
 61 54  1  0
 62 52  1  0
 64 66  2  0
 65 64  1  0
 67 65  1  0
 68 77  2  0
 68 73  1  0
 69 65  1  0
 69 73  1  0
 70 69  1  0
 71 72  1  0
 71 70  1  0
 72 68  1  0
 73 74  2  0
 74 75  1  0
 76 75  2  0
 77 76  1  0
 78 52  1  0
 78 79  1  0
 78 88  1  0
 79 82  1  0
 80 84  1  0
 80 79  1  0
 81 80  2  0
 84 83  1  0
 86 84  1  0
 86 87  1  0
 86 85  1  0
 88 91  1  1
 88 89  1  0
 90 88  1  0
M  ISO  4   5 100  13 100  50 101  51 101
M  END
>  <TORSDO>  (77) 
F 23

>  <SCORE>  (77) 
-11.006

>  <name>  (77) 
78

>  <ligand_id>  (77) 
78

>  <original_smiles>  (77) 
[H]c1c([H])c([H])c2c(c1[H])C([H])([H])C([H])([H])C([H])([H])C2([H])N([H])C(=O)C1([H])N(C(=O)C([H])(N([H])C(=O)C([H])(N([H])C([H])([H])[H])C([H])([H])[H])C(C([H])([H])[H])(C([H])([H])[H])C([H])([H])[H])C([H])([H])c2c([H])c(OC([H])([H])C([H])(C([H])([H])[H])C([H])([H])C([H])([H])C(=O)C([H])(N([H])C(=O)N3C([H])([H])C([H])([H])C([H])([H])C([H])(n4nc(-c5c([H])c([H])c(Oc6c([H])c([H])c(F)c([H])c6F)c([H])c5[H])c(C(=O)N([H])[H])c4N([H])[H])C3([H])[H])C([H])([H])C([H])(C([H])([H])[H])C([H])([H])[H])c([H])c([H])c2C1([H])[H]

>  <smiles>  (77) 
[H]c1c([H])c([H])c2c(c1[H])C([H])([H])C([H])([H])C([H])([H])C2([H])N([H])C(=O)C1([H])N(C(=O)C([H])(N([H])C(=O)C([H])(N([H])C([H])([H])[H])C([H])([H])[H])C(C([H])([H])[H])(C([H])([H])[H])C([H])([H])[H])C([H])([H])c2c([H])c(OC([H])([H])C([H])(C([H])([H])[H])C([H])([H])C([H])([H])C(=O)C([H])(N([H])C(=O)N3C([H])([H])C([H])([H])C([H])([H])C([H])(n4nc(-c5c([H])c([H])c(Oc6c([H])c([H])c(F)c([H])c6F)c([H])c5[H])c(C(=O)N([H])[H])c4N([H])[H])C3([H])[H])C([H])([H])C([H])(C([H])([H])[H])C([H])([H])[H])c([H])c([H])c2C1([H])[H]

$$$$
79:0:0
     RDKit          3D

 89 96  0  0  1  0  0  0  0  0999 V2000
  -29.0780  -23.3420   20.0180 C   0  0  0  0  0  3  0  0  0  0  0  0
  -30.8140  -24.0310   21.7740 C   0  0  0  0  0  1  0  0  0  0  0  0
  -30.9950  -24.9620   19.4450 C   0  0  0  0  0  1  0  0  0  0  0  0
  -31.5630  -22.6070   19.8640 C   0  0  0  0  0  1  0  0  0  0  0  0
  -30.5840  -23.7270   20.2830 C   0  0  2  0  0  0  0  0  0  0  0  0
  -28.7230  -21.7570   20.5330 C   0  0  0  0  0  2  0  0  0  0  0  0
  -29.3880  -20.3310   20.0170 C   0  0  0  0  0  3  0  0  0  0  0  0
  -29.4260  -19.0180   20.5630 C   0  0  0  0  0  3  0  0  0  0  0  0
  -30.1670  -17.6350   20.0540 C   0  0  0  0  0  2  0  0  0  0  0  0
  -30.5230  -14.9350   20.2410 C   0  0  0  0  0  0  0  0  0  0  0  0
  -30.3450  -12.5910   19.3030 C   0  0  0  0  0  2  0  0  0  0  0  0
  -29.3950  -12.5790   18.0840 C   0  0  0  0  0  2  0  0  0  0  0  0
  -27.9320  -12.3910   18.5300 C   0  0  0  0  0  2  0  0  0  0  0  0
  -27.5600  -13.2940   19.7380 C   0  0  0  0  0  3  0  0  0  0  0  0
  -28.6380  -13.2870   20.8420 C   0  0  0  0  0  2  0  0  0  0  0  0
  -29.9030  -13.6870   20.2130 N   0  0  0  0  0  0  0  0  0  0  0  0
  -31.7170  -14.9770   19.9260 O   0  0  0  0  0  0  0  0  0  0  0  0
  -29.7840  -16.1390   20.4000 N   0  0  0  0  0  0  0  0  0  0  0  0
  -28.8170  -15.9940   20.6480 H   0  0  0  0  0  0  0  0  0  0  0  0
  -25.1890  -13.8650   20.5160 C   0  0  0  0  0  0  0  0  0  0  0  0
  -24.1310  -13.0880   20.9010 C   0  0  0  0  0  0  0  0  0  0  0  0
  -24.5980  -11.7380   20.8600 C   0  0  0  0  0  0  0  0  0  0  0  0
  -26.2310  -12.9900   20.2580 N   0  0  0  0  0  0  0  0  0  0  0  0
  -25.8840  -11.7040   20.5320 N   0  0  0  0  0  0  0  0  0  0  0  0
  -23.8740  -10.4730   21.0590 C   0  0  0  0  0  0  0  0  0  0  0  0
  -24.3350   -9.4960   21.9670 C   0  0  0  0  0  3  0  0  0  0  0  0
  -23.6120   -8.2970   22.1570 C   0  0  0  0  0  3  0  0  0  0  0  0
  -22.4150   -8.0690   21.4370 C   0  0  0  0  0  0  0  0  0  0  0  0
  -21.9730   -9.0350   20.5180 C   0  0  0  0  0  3  0  0  0  0  0  0
  -22.6950  -10.2250   20.3270 C   0  0  0  0  0  3  0  0  0  0  0  0
  -21.6610   -6.9240   21.5370 O   0  0  0  0  0  0  0  0  0  0  0  0
  -21.6620   -6.1560   22.6740 C   0  0  0  0  0  0  0  0  0  0  0  0
  -21.3150   -6.6920   23.9340 C   0  0  0  0  0  3  0  0  0  0  0  0
  -21.2630   -5.8520   25.0650 C   0  0  0  0  0  3  0  0  0  0  0  0
  -21.5470   -4.4800   24.9370 C   0  0  0  0  0  0  0  0  0  0  0  0
  -21.8860   -3.9440   23.6820 C   0  0  0  0  0  3  0  0  0  0  0  0
  -21.9410   -4.7800   22.5540 C   0  0  0  0  0  0  0  0  0  0  0  0
  -22.2470   -4.2550   21.3430 F   0  0  0  0  0  0  0  0  0  0  0  0
  -21.4900   -3.6710   26.0220 F   0  0  0  0  0  0  0  0  0  0  0  0
  -22.7370  -13.5610   21.1930 C   0  0  0  0  0  0  0  0  0  0  0  0
  -22.0240  -12.8650   22.0710 N   0  0  0  0  0  0  0  0  0  0  0  0
  -22.2900  -14.5820   20.6730 O   0  0  0  0  0  0  0  0  0  0  0  0
  -22.4030  -12.0420   22.5130 H   0  0  0  0  0  0  0  0  0  0  0  0
  -21.0870  -13.1620   22.3050 H   0  0  0  0  0  0  0  0  0  0  0  0
  -25.3470  -15.2360   20.3370 N   0  0  0  0  0  0  0  0  0  0  0  0
  -24.5800  -15.8900   20.4580 H   0  0  0  0  0  0  0  0  0  0  0  0
  -26.1790  -15.6700   19.9580 H   0  0  0  0  0  0  0  0  0  0  0  0
  -28.0580  -24.6520   20.4090 C   0  0  0  0  0  2  0  0  0  0  0  0
  -28.2530  -26.1840   20.1620 O   0  0  0  0  0  0  0  0  0  0  0  0
  -24.5910  -31.8540   23.1730 C   0  0  0  0  0  0  0  0  0  0  0  0
  -27.1710  -27.1380   20.1510 C   0  0  0  0  0  0  0  0  0  0  0  0
  -23.3860  -30.4450   21.5490 C   0  0  0  0  0  3  0  0  0  0  0  0
  -24.8310  -28.8680   20.1250 C   0  0  0  0  0  0  0  0  0  0  0  0
  -25.9370  -30.7210   21.3650 C   0  0  0  0  0  2  0  0  0  0  0  0
  -26.0120  -29.3250   20.7230 C   0  0  0  0  0  0  0  0  0  0  0  0
  -27.1830  -28.4770   20.7170 C   0  0  0  0  0  3  0  0  0  0  0  0
  -25.9630  -26.7810   19.5150 C   0  0  0  0  0  3  0  0  0  0  0  0
  -24.8200  -27.6080   19.5040 C   0  0  0  0  0  3  0  0  0  0  0  0
  -23.6010  -29.7600   20.1720 C   0  0  0  0  0  2  0  0  0  0  0  0
  -24.6590  -31.0290   22.0840 N   0  0  0  0  0  0  0  0  0  0  0  0
  -23.5080  -32.1370   23.7070 O   0  0  0  0  0  0  0  0  0  0  0  0
  -22.7170  -29.4400   22.5200 C   0  0  0  0  0  0  0  0  0  0  0  0
  -21.3880  -29.2710   22.4090 N   0  0  0  0  0  0  0  0  0  0  0  0
  -23.3980  -28.8140   23.3370 O   0  0  0  0  0  0  0  0  0  0  0  0
  -20.8950  -29.8280   21.7260 H   0  0  0  0  0  0  0  0  0  0  0  0
  -18.0110  -28.0730   22.9430 C   0  0  0  0  0  0  0  0  0  0  0  0
  -20.5720  -28.3380   23.1900 C   0  0  0  0  0  3  0  0  0  0  0  0
  -20.6710  -26.9030   22.6240 C   0  0  0  0  0  2  0  0  0  0  0  0
  -19.5620  -26.5750   21.6190 C   0  0  0  0  0  2  0  0  0  0  0  0
  -18.1840  -26.7220   22.2720 C   0  0  0  0  0  2  0  0  0  0  0  0
  -19.1320  -28.8400   23.3610 C   0  0  0  0  0  0  0  0  0  0  0  0
  -18.9150  -30.1040   23.9500 C   0  0  0  0  0  3  0  0  0  0  0  0
  -17.6100  -30.6010   24.1280 C   0  0  0  0  0  3  0  0  0  0  0  0
  -16.5040  -29.8320   23.7260 C   0  0  0  0  0  3  0  0  0  0  0  0
  -16.7060  -28.5710   23.1380 C   0  0  0  0  0  3  0  0  0  0  0  0
  -25.8710  -32.4960   23.7890 C   0  0  0  0  0  3  0  0  0  0  0  0
  -25.5480  -33.8870   24.1450 N   0  0  0  0  0  0  0  0  0  0  0  0
  -25.8550  -34.9570   23.4000 C   0  0  0  0  0  0  0  0  0  0  0  0
  -26.5070  -34.8780   22.3560 O   0  0  0  0  0  0  0  0  0  0  0  0
  -24.9660  -34.0210   24.9590 H   0  0  0  0  0  0  0  0  0  0  0  0
  -24.0990  -36.7370   23.1150 C   0  0  0  0  0  1  0  0  0  0  0  0
  -25.3630  -36.3340   23.8900 C   0  0  0  0  0  3  0  0  0  0  0  0
  -27.5090  -37.2320   24.6790 C   0  0  0  0  0  1  0  0  0  0  0  0
  -26.3800  -37.4020   23.7680 N   0  0  0  0  0  0  0  0  0  0  0  0
  -25.9680  -38.3150   23.9410 H   0  0  0  0  0  0  0  0  0  0  0  0
  -26.4090  -31.7160   25.0530 C   0  0  1  0  0  0  0  0  0  0  0  0
  -25.3300  -31.4630   26.1340 C   0  0  0  0  0  1  0  0  0  0  0  0
  -26.9970  -30.3460   24.6460 C   0  0  0  0  0  1  0  0  0  0  0  0
  -27.5620  -32.5120   25.7070 C   0  0  0  0  0  1  0  0  0  0  0  0
  1  5  1  0
  1 48  1  0
  1  6  1  0
  5  3  1  6
  4  5  1  0
  5  2  1  0
  7  6  1  0
  7  8  2  0
  9 18  1  0
  9  8  1  0
 10 18  1  0
 11 16  1  0
 12 13  1  0
 12 11  1  0
 14 13  1  0
 14 23  1  0
 14 15  1  0
 16 10  1  0
 16 15  1  0
 17 10  2  0
 18 19  1  0
 20 21  2  0
 21 40  1  0
 22 21  1  0
 22 25  1  0
 23 20  1  0
 23 24  1  0
 24 22  2  0
 25 26  1  0
 26 27  2  0
 28 31  1  0
 28 27  1  0
 29 28  2  0
 30 29  1  0
 30 25  2  0
 31 32  1  0
 32 33  1  0
 33 34  2  0
 35 34  1  0
 35 39  1  0
 36 35  2  0
 37 32  2  0
 37 36  1  0
 38 37  1  0
 40 41  1  0
 41 44  1  0
 41 43  1  0
 42 40  2  0
 45 46  1  0
 45 20  1  0
 47 45  1  0
 49 48  1  0
 50 61  2  0
 51 49  1  0
 51 56  1  0
 52 60  1  0
 52 62  1  0
 53 59  1  0
 53 55  1  0
 54 60  1  0
 55 54  1  0
 56 55  2  0
 57 51  2  0
 58 57  1  0
 58 53  2  0
 59 52  1  0
 60 50  1  0
 62 64  2  0
 63 62  1  0
 65 63  1  0
 66 75  2  0
 66 71  1  0
 67 63  1  0
 67 71  1  0
 68 67  1  0
 69 70  1  0
 69 68  1  0
 70 66  1  0
 71 72  2  0
 72 73  1  0
 74 73  2  0
 75 74  1  0
 76 50  1  0
 76 77  1  0
 76 86  1  0
 77 80  1  0
 78 82  1  0
 78 77  1  0
 79 78  2  0
 82 81  1  0
 84 82  1  0
 84 85  1  0
 84 83  1  0
 86 89  1  1
 86 87  1  0
 88 86  1  0
M  ISO  4  10 100  18 100  48 101  49 101
M  END
>  <TORSDO>  (78) 
F 21

>  <SCORE>  (78) 
-14.404

>  <name>  (78) 
79

>  <ligand_id>  (78) 
79

>  <original_smiles>  (78) 
[H]C(=C([H])C([H])([H])C([H])(C([H])([H])Oc1c([H])c([H])c2c(c1[H])C([H])([H])N(C(=O)C([H])(N([H])C(=O)C([H])(N([H])C([H])([H])[H])C([H])([H])[H])C(C([H])([H])[H])(C([H])([H])[H])C([H])([H])[H])C([H])(C(=O)N([H])C1([H])c3c([H])c([H])c([H])c([H])c3C([H])([H])C([H])([H])C1([H])[H])C2([H])[H])C(C([H])([H])[H])(C([H])([H])[H])C([H])([H])[H])C([H])([H])N([H])C(=O)N1C([H])([H])C([H])([H])C([H])([H])C([H])(n2nc(-c3c([H])c([H])c(Oc4c([H])c([H])c(F)c([H])c4F)c([H])c3[H])c(C(=O)N([H])[H])c2N([H])[H])C1([H])[H]

>  <smiles>  (78) 
[H]C(=C([H])C([H])([H])C([H])(C([H])([H])Oc1c([H])c([H])c2c(c1[H])C([H])([H])N(C(=O)C([H])(N([H])C(=O)C([H])(N([H])C([H])([H])[H])C([H])([H])[H])C(C([H])([H])[H])(C([H])([H])[H])C([H])([H])[H])C([H])(C(=O)N([H])C1([H])c3c([H])c([H])c([H])c([H])c3C([H])([H])C([H])([H])C1([H])[H])C2([H])[H])C(C([H])([H])[H])(C([H])([H])[H])C([H])([H])[H])C([H])([H])N([H])C(=O)N1C([H])([H])C([H])([H])C([H])([H])C([H])(n2nc(-c3c([H])c([H])c(Oc4c([H])c([H])c(F)c([H])c4F)c([H])c3[H])c(C(=O)N([H])[H])c2N([H])[H])C1([H])[H]

$$$$
80:0:0
     RDKit          3D

 92 99  0  0  1  0  0  0  0  0999 V2000
  -29.0200  -22.9320   20.2450 C   0  0  0  0  0  3  0  0  0  0  0  0
  -29.9750  -23.3080   19.1930 N   0  0  0  0  0  4  0  0  0  0  0  0
  -29.5940  -23.1510   18.2740 H   0  0  0  0  0  0  0  0  0  0  0  0
  -30.8400  -22.7960   19.2920 H   0  0  0  0  0  0  0  0  0  0  0  0
  -30.1480  -24.2960   19.2770 H   0  0  0  0  0  0  0  0  0  0  0  0
  -28.7190  -21.1650   20.1290 C   0  0  0  0  0  2  0  0  0  0  0  0
  -29.7130  -19.6630   20.2720 C   0  0  0  0  0  3  0  0  0  0  0  0
  -32.1180  -20.6660   19.9720 C   0  0  0  0  0  1  0  0  0  0  0  0
  -30.9940  -19.7830   19.3790 C   0  0  0  0  0  3  0  0  0  0  0  0
  -31.8070  -19.9350   16.9190 C   0  0  0  0  0  1  0  0  0  0  0  0
  -30.6550  -20.1590   17.9160 C   0  0  0  0  0  2  0  0  0  0  0  0
  -29.2620  -17.9510   20.0280 C   0  0  0  0  0  2  0  0  0  0  0  0
  -30.4750  -15.2280   20.2270 C   0  0  0  0  0  0  0  0  0  0  0  0
  -30.3800  -12.7890   19.3730 C   0  0  0  0  0  2  0  0  0  0  0  0
  -29.4570  -12.6380   18.1400 C   0  0  0  0  0  2  0  0  0  0  0  0
  -28.0010  -12.4040   18.5800 C   0  0  0  0  0  2  0  0  0  0  0  0
  -27.5760  -13.3500   19.7330 C   0  0  0  0  0  3  0  0  0  0  0  0
  -28.6390  -13.4560   20.8500 C   0  0  0  0  0  2  0  0  0  0  0  0
  -29.8800  -13.9360   20.2180 N   0  0  0  0  0  0  0  0  0  0  0  0
  -31.6570  -15.2270   19.8620 O   0  0  0  0  0  0  0  0  0  0  0  0
  -29.8410  -16.5030   20.6080 N   0  0  0  0  0  0  0  0  0  0  0  0
  -30.0870  -16.6430   21.5820 H   0  0  0  0  0  0  0  0  0  0  0  0
  -25.2080  -13.9000   20.4980 C   0  0  0  0  0  0  0  0  0  0  0  0
  -24.1480  -13.1190   20.8730 C   0  0  0  0  0  0  0  0  0  0  0  0
  -24.6190  -11.7710   20.8420 C   0  0  0  0  0  0  0  0  0  0  0  0
  -26.2500  -13.0290   20.2500 N   0  0  0  0  0  0  0  0  0  0  0  0
  -25.9080  -11.7400   20.5220 N   0  0  0  0  0  0  0  0  0  0  0  0
  -23.8940  -10.5050   21.0340 C   0  0  0  0  0  0  0  0  0  0  0  0
  -24.3350   -9.5300   21.9550 C   0  0  0  0  0  3  0  0  0  0  0  0
  -23.6070   -8.3350   22.1420 C   0  0  0  0  0  3  0  0  0  0  0  0
  -22.4210   -8.1050   21.4030 C   0  0  0  0  0  0  0  0  0  0  0  0
  -21.9990   -9.0660   20.4690 C   0  0  0  0  0  3  0  0  0  0  0  0
  -22.7300  -10.2520   20.2830 C   0  0  0  0  0  3  0  0  0  0  0  0
  -21.6610   -6.9650   21.5020 O   0  0  0  0  0  0  0  0  0  0  0  0
  -21.6320   -6.2130   22.6510 C   0  0  0  0  0  0  0  0  0  0  0  0
  -21.2380   -6.7610   23.8910 C   0  0  0  0  0  3  0  0  0  0  0  0
  -21.1610   -5.9350   25.0310 C   0  0  0  0  0  3  0  0  0  0  0  0
  -21.4600   -4.5630   24.9300 C   0  0  0  0  0  0  0  0  0  0  0  0
  -21.8470   -4.0160   23.6930 C   0  0  0  0  0  3  0  0  0  0  0  0
  -21.9300   -4.8380   22.5580 C   0  0  0  0  0  0  0  0  0  0  0  0
  -22.2800   -4.3000   21.3620 F   0  0  0  0  0  0  0  0  0  0  0  0
  -21.3770   -3.7670   26.0210 F   0  0  0  0  0  0  0  0  0  0  0  0
  -22.7490  -13.5920   21.1500 C   0  0  0  0  0  0  0  0  0  0  0  0
  -22.0240  -12.8950   22.0210 N   0  0  0  0  0  0  0  0  0  0  0  0
  -22.3090  -14.6110   20.6250 O   0  0  0  0  0  0  0  0  0  0  0  0
  -22.4010  -12.0720   22.4680 H   0  0  0  0  0  0  0  0  0  0  0  0
  -21.0870  -13.1880   22.2500 H   0  0  0  0  0  0  0  0  0  0  0  0
  -25.3710  -15.2690   20.3190 N   0  0  0  0  0  0  0  0  0  0  0  0
  -24.6190  -15.9390   20.4550 H   0  0  0  0  0  0  0  0  0  0  0  0
  -26.2430  -15.6990   20.0340 H   0  0  0  0  0  0  0  0  0  0  0  0
  -27.9340  -24.3420   20.3200 C   0  0  0  0  0  2  0  0  0  0  0  0
  -28.1980  -25.9520   20.2730 O   0  0  0  0  0  0  0  0  0  0  0  0
  -24.6430  -31.8720   23.2260 C   0  0  0  0  0  0  0  0  0  0  0  0
  -27.1690  -27.0160   20.2240 C   0  0  0  0  0  0  0  0  0  0  0  0
  -23.4340  -30.4740   21.6040 C   0  0  0  0  0  3  0  0  0  0  0  0
  -24.8680  -28.8740   20.1760 C   0  0  0  0  0  0  0  0  0  0  0  0
  -25.9960  -30.6950   21.4350 C   0  0  0  0  0  2  0  0  0  0  0  0
  -26.0600  -29.2900   20.7830 C   0  0  0  0  0  0  0  0  0  0  0  0
  -27.2080  -28.3850   20.7710 C   0  0  0  0  0  3  0  0  0  0  0  0
  -25.9440  -26.7380   19.5740 C   0  0  0  0  0  3  0  0  0  0  0  0
  -24.8310  -27.6150   19.5520 C   0  0  0  0  0  3  0  0  0  0  0  0
  -23.6480  -29.7910   20.2290 C   0  0  0  0  0  2  0  0  0  0  0  0
  -24.7110  -31.0390   22.1410 N   0  0  0  0  0  0  0  0  0  0  0  0
  -23.5580  -32.1670   23.7530 O   0  0  0  0  0  0  0  0  0  0  0  0
  -22.7520  -29.4790   22.5770 C   0  0  0  0  0  0  0  0  0  0  0  0
  -21.4210  -29.3090   22.4550 N   0  0  0  0  0  0  0  0  0  0  0  0
  -23.4210  -28.8610   23.4100 O   0  0  0  0  0  0  0  0  0  0  0  0
  -20.9350  -29.8530   21.7560 H   0  0  0  0  0  0  0  0  0  0  0  0
  -18.0420  -28.1000   22.9730 C   0  0  0  0  0  0  0  0  0  0  0  0
  -20.6000  -28.3800   23.2360 C   0  0  0  0  0  3  0  0  0  0  0  0
  -20.7090  -26.9410   22.6790 C   0  0  0  0  0  2  0  0  0  0  0  0
  -19.6090  -26.6010   21.6690 C   0  0  0  0  0  2  0  0  0  0  0  0
  -18.2260  -26.7460   22.3090 C   0  0  0  0  0  2  0  0  0  0  0  0
  -19.1560  -28.8740   23.3920 C   0  0  0  0  0  0  0  0  0  0  0  0
  -18.9290  -30.1390   23.9760 C   0  0  0  0  0  3  0  0  0  0  0  0
  -17.6210  -30.6300   24.1460 C   0  0  0  0  0  3  0  0  0  0  0  0
  -16.5210  -29.8570   23.7380 C   0  0  0  0  0  3  0  0  0  0  0  0
  -16.7310  -28.5940   23.1560 C   0  0  0  0  0  3  0  0  0  0  0  0
  -25.9210  -32.5110   23.8470 C   0  0  0  0  0  3  0  0  0  0  0  0
  -26.4390  -31.7470   25.1270 C   0  0  1  0  0  0  0  0  0  0  0  0
  -25.3500  -31.5210   26.2010 C   0  0  0  0  0  1  0  0  0  0  0  0
  -27.0150  -30.3630   24.7510 C   0  0  0  0  0  1  0  0  0  0  0  0
  -27.5910  -32.5440   25.7850 C   0  0  0  0  0  1  0  0  0  0  0  0
  -25.6060  -33.9110   24.1850 N   0  0  0  0  0  0  0  0  0  0  0  0
  -25.9220  -34.9720   23.4300 C   0  0  0  0  0  0  0  0  0  0  0  0
  -26.5730  -34.8770   22.3870 O   0  0  0  0  0  0  0  0  0  0  0  0
  -25.0260  -34.0570   24.9980 H   0  0  0  0  0  0  0  0  0  0  0  0
  -24.1760  -36.7630   23.1340 C   0  0  0  0  0  1  0  0  0  0  0  0
  -25.4400  -36.3580   23.9080 C   0  0  0  0  0  3  0  0  0  0  0  0
  -27.5930  -37.2520   24.6840 C   0  0  0  0  0  1  0  0  0  0  0  0
  -26.4650  -37.4170   23.7730 N   0  0  0  0  0  0  0  0  0  0  0  0
  -26.0570  -38.3320   23.9390 H   0  0  0  0  0  0  0  0  0  0  0  0
  1  6  1  0
  1 51  1  0
  2  5  1  0
  2  4  1  0
  2  1  1  0
  3  2  1  0
  6  7  1  0
  7 12  1  0
  9  8  1  0
  9  7  1  0
 10 11  1  0
 11  9  1  0
 12 21  1  0
 13 21  1  0
 14 19  1  0
 15 16  1  0
 15 14  1  0
 17 16  1  0
 17 26  1  0
 17 18  1  0
 19 13  1  0
 19 18  1  0
 20 13  2  0
 21 22  1  0
 23 24  2  0
 24 43  1  0
 25 24  1  0
 25 28  1  0
 26 23  1  0
 26 27  1  0
 27 25  2  0
 28 29  1  0
 29 30  2  0
 31 34  1  0
 31 30  1  0
 32 31  2  0
 33 32  1  0
 33 28  2  0
 34 35  1  0
 35 36  1  0
 36 37  2  0
 38 37  1  0
 38 42  1  0
 39 38  2  0
 40 35  2  0
 40 39  1  0
 41 40  1  0
 43 44  1  0
 44 47  1  0
 44 46  1  0
 45 43  2  0
 48 49  1  0
 48 23  1  0
 50 48  1  0
 52 51  1  0
 53 64  2  0
 54 52  1  0
 54 59  1  0
 55 63  1  0
 55 65  1  0
 56 62  1  0
 56 58  1  0
 57 63  1  0
 58 57  1  0
 59 58  2  0
 60 54  2  0
 61 60  1  0
 61 56  2  0
 62 55  1  0
 63 53  1  0
 65 67  2  0
 66 65  1  0
 68 66  1  0
 69 78  2  0
 69 74  1  0
 70 66  1  0
 70 74  1  0
 71 70  1  0
 72 73  1  0
 72 71  1  0
 73 69  1  0
 74 75  2  0
 75 76  1  0
 77 76  2  0
 78 77  1  0
 79 53  1  0
 79 84  1  0
 79 80  1  0
 80 83  1  1
 80 81  1  0
 82 80  1  0
 84 87  1  0
 85 89  1  0
 85 84  1  0
 86 85  2  0
 89 88  1  0
 91 89  1  0
 91 92  1  0
 91 90  1  0
M  ISO  4  13 100  21 100  51 101  52 101
M  END
>  <TORSDO>  (79) 
F 23

>  <SCORE>  (79) 
-15.138

>  <name>  (79) 
80

>  <ligand_id>  (79) 
80

>  <original_smiles>  (79) 
[H]c1c([H])c([H])c2c(c1[H])C([H])([H])C([H])([H])C([H])([H])C2([H])N([H])C(=O)C1([H])N(C(=O)C([H])(N([H])C(=O)C([H])(N([H])C([H])([H])[H])C([H])([H])[H])C(C([H])([H])[H])(C([H])([H])[H])C([H])([H])[H])C([H])([H])c2c([H])c(OC([H])([H])C([H])(C([H])([H])C([H])(C([H])([H])N([H])C(=O)N3C([H])([H])C([H])([H])C([H])([H])C([H])(n4nc(-c5c([H])c([H])c(Oc6c([H])c([H])c(F)c([H])c6F)c([H])c5[H])c(C(=O)N([H])[H])c4N([H])[H])C3([H])[H])C([H])(C([H])([H])[H])C([H])([H])C([H])([H])[H])[N+]([H])([H])[H])c([H])c([H])c2C1([H])[H]

>  <smiles>  (79) 
[H]c1c([H])c([H])c2c(c1[H])C([H])([H])C([H])([H])C([H])([H])C2([H])N([H])C(=O)C1([H])N(C(=O)C([H])(N([H])C(=O)C([H])(N([H])C([H])([H])[H])C([H])([H])[H])C(C([H])([H])[H])(C([H])([H])[H])C([H])([H])[H])C([H])([H])c2c([H])c(OC([H])([H])C([H])(C([H])([H])C([H])(C([H])([H])N([H])C(=O)N3C([H])([H])C([H])([H])C([H])([H])C([H])(n4nc(-c5c([H])c([H])c(Oc6c([H])c([H])c(F)c([H])c6F)c([H])c5[H])c(C(=O)N([H])[H])c4N([H])[H])C3([H])[H])C([H])(C([H])([H])[H])C([H])([H])C([H])([H])[H])[N+]([H])([H])[H])c([H])c([H])c2C1([H])[H]

$$$$
81:0:0
     RDKit          3D

 93100  0  0  1  0  0  0  0  0999 V2000
  -28.7070  -22.8330   19.9610 C   0  0  0  0  0  3  0  0  0  0  0  0
  -28.1000  -22.6020   18.6350 N   0  0  0  0  0  4  0  0  0  0  0  0
  -27.1300  -22.3500   18.7190 H   0  0  0  0  0  0  0  0  0  0  0  0
  -28.5770  -21.8680   18.1430 H   0  0  0  0  0  0  0  0  0  0  0  0
  -28.1590  -23.4360   18.0750 H   0  0  0  0  0  0  0  0  0  0  0  0
  -28.8700  -21.2340   20.7330 C   0  0  0  0  0  2  0  0  0  0  0  0
  -28.9070  -19.5090   20.2290 C   0  0  0  0  0  2  0  0  0  0  0  0
  -30.0830  -18.1670   20.2630 C   0  0  0  0  0  3  0  0  0  0  0  0
  -30.4530  -15.2230   20.2900 C   0  0  0  0  0  0  0  0  0  0  0  0
  -30.3610  -12.8070   19.3850 C   0  0  0  0  0  2  0  0  0  0  0  0
  -29.4430  -12.6270   18.1550 C   0  0  0  0  0  2  0  0  0  0  0  0
  -27.9910  -12.3750   18.5950 C   0  0  0  0  0  2  0  0  0  0  0  0
  -27.5470  -13.3350   19.7270 C   0  0  0  0  0  3  0  0  0  0  0  0
  -28.5970  -13.4750   20.8480 C   0  0  0  0  0  2  0  0  0  0  0  0
  -29.8290  -13.9550   20.2010 N   0  0  0  0  0  0  0  0  0  0  0  0
  -31.6800  -15.1330   20.2020 O   0  0  0  0  0  0  0  0  0  0  0  0
  -29.7520  -16.5270   20.2760 N   0  0  0  0  0  0  0  0  0  0  0  0
  -28.7560  -16.3680   20.2770 H   0  0  0  0  0  0  0  0  0  0  0  0
  -25.1700  -13.8880   20.4660 C   0  0  0  0  0  0  0  0  0  0  0  0
  -24.1100  -13.1080   20.8320 C   0  0  0  0  0  0  0  0  0  0  0  0
  -24.5850  -11.7600   20.8180 C   0  0  0  0  0  0  0  0  0  0  0  0
  -26.2200  -13.0180   20.2370 N   0  0  0  0  0  0  0  0  0  0  0  0
  -25.8800  -11.7320   20.5180 N   0  0  0  0  0  0  0  0  0  0  0  0
  -23.8630  -10.4950   21.0100 C   0  0  0  0  0  0  0  0  0  0  0  0
  -24.2890   -9.5360   21.9560 C   0  0  0  0  0  3  0  0  0  0  0  0
  -23.5620   -8.3390   22.1380 C   0  0  0  0  0  3  0  0  0  0  0  0
  -22.3970   -8.0920   21.3740 C   0  0  0  0  0  0  0  0  0  0  0  0
  -21.9900   -9.0390   20.4180 C   0  0  0  0  0  3  0  0  0  0  0  0
  -22.7170  -10.2280   20.2340 C   0  0  0  0  0  3  0  0  0  0  0  0
  -21.6450   -6.9450   21.4650 O   0  0  0  0  0  0  0  0  0  0  0  0
  -21.5860   -6.2120   22.6220 C   0  0  0  0  0  0  0  0  0  0  0  0
  -21.1420   -6.7750   23.8390 C   0  0  0  0  0  3  0  0  0  0  0  0
  -21.0310   -5.9670   24.9880 C   0  0  0  0  0  3  0  0  0  0  0  0
  -21.3550   -4.5990   24.9230 C   0  0  0  0  0  0  0  0  0  0  0  0
  -21.7930   -4.0360   23.7120 C   0  0  0  0  0  3  0  0  0  0  0  0
  -21.9060   -4.8410   22.5640 C   0  0  0  0  0  0  0  0  0  0  0  0
  -22.3070   -4.2880   21.3940 F   0  0  0  0  0  0  0  0  0  0  0  0
  -21.2430   -3.8220   26.0250 F   0  0  0  0  0  0  0  0  0  0  0  0
  -22.7070  -13.5780   21.0820 C   0  0  0  0  0  0  0  0  0  0  0  0
  -21.9740  -12.8860   21.9470 N   0  0  0  0  0  0  0  0  0  0  0  0
  -22.2710  -14.5970   20.5460 O   0  0  0  0  0  0  0  0  0  0  0  0
  -22.3420  -12.0630   22.4000 H   0  0  0  0  0  0  0  0  0  0  0  0
  -21.0320  -13.1840   22.1590 H   0  0  0  0  0  0  0  0  0  0  0  0
  -25.3220  -15.2580   20.2770 N   0  0  0  0  0  0  0  0  0  0  0  0
  -24.5440  -15.9010   20.3750 H   0  0  0  0  0  0  0  0  0  0  0  0
  -26.1600  -15.7010   19.9260 H   0  0  0  0  0  0  0  0  0  0  0  0
  -32.4980  -17.7380   19.3040 C   0  0  0  0  0  1  0  0  0  0  0  0
  -30.6050  -18.2080   17.7620 C   0  0  0  0  0  1  0  0  0  0  0  0
  -31.1750  -18.5210   19.1630 C   0  0  1  0  0  0  0  0  0  0  0  0
  -32.3320  -20.4890   20.4490 C   0  0  0  0  0  1  0  0  0  0  0  0
  -31.5940  -20.0240   19.1800 C   0  0  0  0  0  2  0  0  0  0  0  0
  -28.0240  -24.3680   20.5680 C   0  0  0  0  0  2  0  0  0  0  0  0
  -28.2240  -25.9540   20.2340 O   0  0  0  0  0  0  0  0  0  0  0  0
  -24.6170  -31.8630   23.2010 C   0  0  0  0  0  0  0  0  0  0  0  0
  -27.1870  -27.0090   20.2270 C   0  0  0  0  0  0  0  0  0  0  0  0
  -23.4260  -30.4530   21.5750 C   0  0  0  0  0  3  0  0  0  0  0  0
  -24.8780  -28.8480   20.1660 C   0  0  0  0  0  0  0  0  0  0  0  0
  -25.9900  -30.6860   21.4200 C   0  0  0  0  0  2  0  0  0  0  0  0
  -26.0640  -29.2740   20.7760 C   0  0  0  0  0  0  0  0  0  0  0  0
  -27.2200  -28.3770   20.7760 C   0  0  0  0  0  3  0  0  0  0  0  0
  -25.9680  -26.7200   19.5750 C   0  0  0  0  0  3  0  0  0  0  0  0
  -24.8510  -27.5900   19.5460 C   0  0  0  0  0  3  0  0  0  0  0  0
  -23.6560  -29.7630   20.2040 C   0  0  0  0  0  2  0  0  0  0  0  0
  -24.6990  -31.0270   22.1190 N   0  0  0  0  0  0  0  0  0  0  0  0
  -23.5280  -32.1520   23.7220 O   0  0  0  0  0  0  0  0  0  0  0  0
  -22.7390  -29.4590   22.5460 C   0  0  0  0  0  0  0  0  0  0  0  0
  -21.4080  -29.2920   22.4240 N   0  0  0  0  0  0  0  0  0  0  0  0
  -23.4080  -28.8370   23.3750 O   0  0  0  0  0  0  0  0  0  0  0  0
  -20.9230  -29.8430   21.7310 H   0  0  0  0  0  0  0  0  0  0  0  0
  -18.0280  -28.0870   22.9490 C   0  0  0  0  0  0  0  0  0  0  0  0
  -20.5880  -28.3580   23.2030 C   0  0  0  0  0  3  0  0  0  0  0  0
  -20.6880  -26.9230   22.6350 C   0  0  0  0  0  2  0  0  0  0  0  0
  -19.5840  -26.5940   21.6270 C   0  0  0  0  0  2  0  0  0  0  0  0
  -18.2040  -26.7370   22.2750 C   0  0  0  0  0  2  0  0  0  0  0  0
  -19.1460  -28.8550   23.3700 C   0  0  0  0  0  0  0  0  0  0  0  0
  -18.9240  -30.1170   23.9630 C   0  0  0  0  0  3  0  0  0  0  0  0
  -17.6170  -30.6110   24.1370 C   0  0  0  0  0  3  0  0  0  0  0  0
  -16.5140  -29.8420   23.7300 C   0  0  0  0  0  3  0  0  0  0  0  0
  -16.7200  -28.5810   23.1420 C   0  0  0  0  0  3  0  0  0  0  0  0
  -25.8880  -32.5130   23.8300 C   0  0  0  0  0  3  0  0  0  0  0  0
  -26.3950  -31.7580   25.1200 C   0  0  1  0  0  0  0  0  0  0  0  0
  -25.2950  -31.5320   26.1840 C   0  0  0  0  0  1  0  0  0  0  0  0
  -26.9820  -30.3760   24.7570 C   0  0  0  0  0  1  0  0  0  0  0  0
  -27.5410  -32.5620   25.7800 C   0  0  0  0  0  1  0  0  0  0  0  0
  -25.5650  -33.9130   24.1560 N   0  0  0  0  0  0  0  0  0  0  0  0
  -25.8960  -34.9720   23.4030 C   0  0  0  0  0  0  0  0  0  0  0  0
  -26.5680  -34.8710   22.3740 O   0  0  0  0  0  0  0  0  0  0  0  0
  -24.9670  -34.0640   24.9550 H   0  0  0  0  0  0  0  0  0  0  0  0
  -24.1670  -36.7690   23.0560 C   0  0  0  0  0  1  0  0  0  0  0  0
  -25.4080  -36.3600   23.8650 C   0  0  0  0  0  3  0  0  0  0  0  0
  -27.5410  -37.2470   24.7000 C   0  0  0  0  0  1  0  0  0  0  0  0
  -26.4400  -37.4150   23.7560 N   0  0  0  0  0  0  0  0  0  0  0  0
  -26.0320  -38.3350   23.9040 H   0  0  0  0  0  0  0  0  0  0  0  0
  1 52  1  0
  1  6  1  0
  2  3  1  0
  2  1  1  0
  4  2  1  0
  5  2  1  0
  7  6  1  0
  8  7  1  0
  8 17  1  0
 10 15  1  0
 11 12  1  0
 11 10  1  0
 13 12  1  0
 13 22  1  0
 13 14  1  0
 15  9  1  0
 15 14  1  0
 16  9  2  0
 17 18  1  0
 17  9  1  0
 19 20  2  0
 20 39  1  0
 21 20  1  0
 21 24  1  0
 22 19  1  0
 22 23  1  0
 23 21  2  0
 24 25  1  0
 25 26  2  0
 27 30  1  0
 27 26  1  0
 28 27  2  0
 29 28  1  0
 29 24  2  0
 30 31  1  0
 31 32  1  0
 32 33  2  0
 34 33  1  0
 34 38  1  0
 35 34  2  0
 36 31  2  0
 36 35  1  0
 37 36  1  0
 39 40  1  0
 40 43  1  0
 40 42  1  0
 41 39  2  0
 44 45  1  0
 44 19  1  0
 46 44  1  0
 49 48  1  6
 49 51  1  0
 49 47  1  0
 49  8  1  0
 51 50  1  0
 53 52  1  0
 54 65  2  0
 55 53  1  0
 55 60  1  0
 56 64  1  0
 56 66  1  0
 57 63  1  0
 57 59  1  0
 58 64  1  0
 59 58  1  0
 60 59  2  0
 61 55  2  0
 62 61  1  0
 62 57  2  0
 63 56  1  0
 64 54  1  0
 66 68  2  0
 67 66  1  0
 69 67  1  0
 70 79  2  0
 70 75  1  0
 71 67  1  0
 71 75  1  0
 72 71  1  0
 73 74  1  0
 73 72  1  0
 74 70  1  0
 75 76  2  0
 76 77  1  0
 78 77  2  0
 79 78  1  0
 80 54  1  0
 80 85  1  0
 80 81  1  0
 81 84  1  1
 81 82  1  0
 83 81  1  0
 85 88  1  0
 86 90  1  0
 86 85  1  0
 87 86  2  0
 90 89  1  0
 92 90  1  0
 92 93  1  0
 92 91  1  0
M  ISO  4   9 100  17 100  52 101  53 101
M  END
>  <TORSDO>  (80) 
F 23

>  <SCORE>  (80) 
-15.548

>  <name>  (80) 
81

>  <ligand_id>  (80) 
81

>  <original_smiles>  (80) 
[H]c1c([H])c([H])c2c(c1[H])C([H])([H])C([H])([H])C([H])([H])C2([H])N([H])C(=O)C1([H])N(C(=O)C([H])(N([H])C(=O)C([H])(N([H])C([H])([H])[H])C([H])([H])[H])C(C([H])([H])[H])(C([H])([H])[H])C([H])([H])[H])C([H])([H])c2c([H])c(OC([H])([H])C([H])(C([H])([H])C([H])([H])C([H])(N([H])C(=O)N3C([H])([H])C([H])([H])C([H])([H])C([H])(n4nc(-c5c([H])c([H])c(Oc6c([H])c([H])c(F)c([H])c6F)c([H])c5[H])c(C(=O)N([H])[H])c4N([H])[H])C3([H])[H])C(C([H])([H])[H])(C([H])([H])[H])C([H])([H])C([H])([H])[H])[N+]([H])([H])[H])c([H])c([H])c2C1([H])[H]

>  <smiles>  (80) 
[H]c1c([H])c([H])c2c(c1[H])C([H])([H])C([H])([H])C([H])([H])C2([H])N([H])C(=O)C1([H])N(C(=O)C([H])(N([H])C(=O)C([H])(N([H])C([H])([H])[H])C([H])([H])[H])C(C([H])([H])[H])(C([H])([H])[H])C([H])([H])[H])C([H])([H])c2c([H])c(OC([H])([H])C([H])(C([H])([H])C([H])([H])C([H])(N([H])C(=O)N3C([H])([H])C([H])([H])C([H])([H])C([H])(n4nc(-c5c([H])c([H])c(Oc6c([H])c([H])c(F)c([H])c6F)c([H])c5[H])c(C(=O)N([H])[H])c4N([H])[H])C3([H])[H])C(C([H])([H])[H])(C([H])([H])[H])C([H])([H])C([H])([H])[H])[N+]([H])([H])[H])c([H])c([H])c2C1([H])[H]

$$$$
82:0:0
     RDKit          3D

 91 99  0  0  1  0  0  0  0  0999 V2000
  -29.3140  -21.3550   20.3100 C   0  0  0  0  0  3  0  0  0  0  0  0
  -30.6030  -21.7650   19.7260 N   0  0  0  0  0  4  0  0  0  0  0  0
  -30.5200  -21.9080   18.7360 H   0  0  0  0  0  0  0  0  0  0  0  0
  -31.3040  -21.0650   19.8870 H   0  0  0  0  0  0  0  0  0  0  0  0
  -30.9230  -22.6190   20.1450 H   0  0  0  0  0  0  0  0  0  0  0  0
  -27.2040  -22.7180   21.3260 C   0  0  0  0  0  1  0  0  0  0  0  0
  -28.2300  -22.7720   20.1850 C   0  0  0  0  0  3  0  0  0  0  0  0
  -28.4170  -24.4950   19.7300 C   0  0  0  0  0  2  0  0  0  0  0  0
  -28.2590  -25.9980   20.3350 O   0  0  0  0  0  0  0  0  0  0  0  0
  -24.6520  -31.8870   23.1930 C   0  0  0  0  0  0  0  0  0  0  0  0
  -27.2250  -27.0450   20.1880 C   0  0  0  0  0  0  0  0  0  0  0  0
  -23.4550  -30.4770   21.5650 C   0  0  0  0  0  3  0  0  0  0  0  0
  -24.9060  -28.8760   20.1400 C   0  0  0  0  0  0  0  0  0  0  0  0
  -26.0150  -30.7100   21.4050 C   0  0  0  0  0  2  0  0  0  0  0  0
  -26.0880  -29.3010   20.7580 C   0  0  0  0  0  0  0  0  0  0  0  0
  -27.2370  -28.4010   20.7660 C   0  0  0  0  0  3  0  0  0  0  0  0
  -26.0170  -26.7580   19.5150 C   0  0  0  0  0  3  0  0  0  0  0  0
  -24.8910  -27.6240   19.4990 C   0  0  0  0  0  3  0  0  0  0  0  0
  -23.6810  -29.7870   20.1900 C   0  0  0  0  0  2  0  0  0  0  0  0
  -24.7280  -31.0510   22.1090 N   0  0  0  0  0  0  0  0  0  0  0  0
  -23.5640  -32.1750   23.7190 O   0  0  0  0  0  0  0  0  0  0  0  0
  -22.7710  -29.4820   22.5370 C   0  0  0  0  0  0  0  0  0  0  0  0
  -21.4400  -29.3180   22.4210 N   0  0  0  0  0  0  0  0  0  0  0  0
  -23.4420  -28.8610   23.3640 O   0  0  0  0  0  0  0  0  0  0  0  0
  -20.9520  -29.8720   21.7320 H   0  0  0  0  0  0  0  0  0  0  0  0
  -18.0610  -28.1180   22.9550 C   0  0  0  0  0  0  0  0  0  0  0  0
  -20.6230  -28.3820   23.2000 C   0  0  0  0  0  3  0  0  0  0  0  0
  -20.7180  -26.9490   22.6300 C   0  0  0  0  0  2  0  0  0  0  0  0
  -19.6090  -26.6240   21.6240 C   0  0  0  0  0  2  0  0  0  0  0  0
  -18.2320  -26.7690   22.2780 C   0  0  0  0  0  2  0  0  0  0  0  0
  -19.1820  -28.8830   23.3740 C   0  0  0  0  0  0  0  0  0  0  0  0
  -18.9660  -30.1430   23.9710 C   0  0  0  0  0  3  0  0  0  0  0  0
  -17.6620  -30.6400   24.1520 C   0  0  0  0  0  3  0  0  0  0  0  0
  -16.5550  -29.8740   23.7480 C   0  0  0  0  0  3  0  0  0  0  0  0
  -16.7560  -28.6140   23.1540 C   0  0  0  0  0  3  0  0  0  0  0  0
  -25.9240  -32.5360   23.8160 C   0  0  0  0  0  3  0  0  0  0  0  0
  -26.4470  -31.7690   25.0950 C   0  0  1  0  0  0  0  0  0  0  0  0
  -25.3580  -31.5250   26.1660 C   0  0  0  0  0  1  0  0  0  0  0  0
  -27.0400  -30.3950   24.7090 C   0  0  0  0  0  1  0  0  0  0  0  0
  -27.5930  -32.5720   25.7550 C   0  0  0  0  0  1  0  0  0  0  0  0
  -25.5990  -33.9310   24.1610 N   0  0  0  0  0  0  0  0  0  0  0  0
  -25.9190  -35.0000   23.4180 C   0  0  0  0  0  0  0  0  0  0  0  0
  -26.5830  -34.9150   22.3830 O   0  0  0  0  0  0  0  0  0  0  0  0
  -25.0060  -34.0690   24.9670 H   0  0  0  0  0  0  0  0  0  0  0  0
  -24.1790  -36.7930   23.1070 C   0  0  0  0  0  1  0  0  0  0  0  0
  -25.4290  -36.3810   23.9000 C   0  0  0  0  0  3  0  0  0  0  0  0
  -27.5660  -37.2720   24.7230 C   0  0  0  0  0  1  0  0  0  0  0  0
  -26.4550  -37.4430   23.7910 N   0  0  0  0  0  0  0  0  0  0  0  0
  -26.0450  -38.3590   23.9530 H   0  0  0  0  0  0  0  0  0  0  0  0
  -29.1120  -19.6140   19.9080 C   0  0  0  0  0  2  0  0  0  0  0  0
  -30.4410  -15.2630   19.9440 C   0  0  0  0  0  0  0  0  0  0  0  0
  -30.3250  -12.8660   18.9560 C   0  0  0  0  0  2  0  0  0  0  0  0
  -29.3180  -12.7290   17.7850 C   0  0  0  0  0  2  0  0  0  0  0  0
  -27.8970  -12.4660   18.3110 C   0  0  0  0  0  2  0  0  0  0  0  0
  -27.5400  -13.3830   19.5070 C   0  0  0  0  0  3  0  0  0  0  0  0
  -28.6630  -13.4500   20.5630 C   0  0  0  0  0  2  0  0  0  0  0  0
  -29.8640  -13.9630   19.8820 N   0  0  0  0  0  0  0  0  0  0  0  0
  -31.5780  -15.3150   19.4480 O   0  0  0  0  0  0  0  0  0  0  0  0
  -31.1940  -17.2220   22.3510 C   0  0  0  0  0  2  0  0  0  0  0  0
  -31.1230  -18.4090   21.3820 C   0  0  0  0  0  2  0  0  0  0  0  0
  -30.0350  -16.2660   21.9750 C   0  0  0  0  0  2  0  0  0  0  0  0
  -29.8290  -18.1480   20.6260 C   0  0  0  0  0  3  0  0  0  0  0  0
  -29.7800  -16.4610   20.5220 N   0  0  0  0  0  0  0  0  0  0  0  0
  -25.2270  -13.9280   20.4370 C   0  0  0  0  0  0  0  0  0  0  0  0
  -24.1890  -13.1400   20.8530 C   0  0  0  0  0  0  0  0  0  0  0  0
  -24.6470  -11.7910   20.7440 C   0  0  0  0  0  0  0  0  0  0  0  0
  -26.2460  -13.0580   20.0930 N   0  0  0  0  0  0  0  0  0  0  0  0
  -25.9130  -11.7640   20.3450 N   0  0  0  0  0  0  0  0  0  0  0  0
  -23.9300  -10.5230   20.9440 C   0  0  0  0  0  0  0  0  0  0  0  0
  -24.3870   -9.5500   21.8600 C   0  0  0  0  0  3  0  0  0  0  0  0
  -23.6660   -8.3510   22.0490 C   0  0  0  0  0  3  0  0  0  0  0  0
  -22.4720   -8.1180   21.3240 C   0  0  0  0  0  0  0  0  0  0  0  0
  -22.0350   -9.0810   20.3960 C   0  0  0  0  0  3  0  0  0  0  0  0
  -22.7580  -10.2700   20.2050 C   0  0  0  0  0  3  0  0  0  0  0  0
  -21.7190   -6.9740   21.4240 O   0  0  0  0  0  0  0  0  0  0  0  0
  -21.6590   -6.2510   22.5890 C   0  0  0  0  0  0  0  0  0  0  0  0
  -21.2130   -6.8230   23.7990 C   0  0  0  0  0  3  0  0  0  0  0  0
  -21.1000   -6.0260   24.9560 C   0  0  0  0  0  3  0  0  0  0  0  0
  -21.4240   -4.6570   24.9020 C   0  0  0  0  0  0  0  0  0  0  0  0
  -21.8640   -4.0850   23.6960 C   0  0  0  0  0  3  0  0  0  0  0  0
  -21.9780   -4.8790   22.5420 C   0  0  0  0  0  0  0  0  0  0  0  0
  -22.3810   -4.3150   21.3780 F   0  0  0  0  0  0  0  0  0  0  0  0
  -21.3090   -3.8890   26.0110 F   0  0  0  0  0  0  0  0  0  0  0  0
  -22.8150  -13.6100   21.2280 C   0  0  0  0  0  0  0  0  0  0  0  0
  -22.1430  -12.8880   22.1190 N   0  0  0  0  0  0  0  0  0  0  0  0
  -22.3490  -14.6510   20.7700 O   0  0  0  0  0  0  0  0  0  0  0  0
  -22.5360  -12.0470   22.5140 H   0  0  0  0  0  0  0  0  0  0  0  0
  -21.2200  -13.1820   22.4080 H   0  0  0  0  0  0  0  0  0  0  0  0
  -25.3810  -15.3030   20.2970 N   0  0  0  0  0  0  0  0  0  0  0  0
  -24.6270  -15.9510   20.4990 H   0  0  0  0  0  0  0  0  0  0  0  0
  -26.2120  -15.7600   19.9420 H   0  0  0  0  0  0  0  0  0  0  0  0
  1 50  1  0
  2  4  1  0
  2  5  1  0
  2  1  1  0
  3  2  1  0
  7  1  1  0
  7  6  1  0
  8  7  1  0
  8  9  1  0
 10 21  2  0
 11  9  1  0
 11 16  1  0
 12 20  1  0
 12 22  1  0
 13 19  1  0
 13 15  1  0
 14 20  1  0
 15 16  2  0
 15 14  1  0
 17 11  2  0
 18 17  1  0
 18 13  2  0
 19 12  1  0
 20 10  1  0
 22 24  2  0
 23 22  1  0
 25 23  1  0
 26 35  2  0
 26 31  1  0
 27 23  1  0
 27 31  1  0
 28 27  1  0
 29 30  1  0
 29 28  1  0
 30 26  1  0
 31 32  2  0
 32 33  1  0
 34 33  2  0
 35 34  1  0
 36 10  1  0
 36 41  1  0
 36 37  1  0
 37 40  1  1
 37 38  1  0
 39 37  1  0
 41 44  1  0
 42 46  1  0
 42 41  1  0
 43 42  2  0
 46 45  1  0
 48 46  1  0
 48 49  1  0
 48 47  1  0
 51 63  1  0
 52 57  1  0
 53 54  1  0
 53 52  1  0
 55 54  1  0
 55 67  1  0
 55 56  1  0
 57 51  1  0
 57 56  1  0
 58 51  2  0
 60 59  1  0
 61 59  1  0
 62 50  1  0
 62 60  1  0
 63 62  1  0
 63 61  1  0
 64 65  2  0
 65 84  1  0
 66 65  1  0
 66 69  1  0
 67 68  1  0
 67 64  1  0
 68 66  2  0
 69 70  1  0
 70 71  2  0
 72 75  1  0
 72 71  1  0
 73 72  2  0
 74 73  1  0
 74 69  2  0
 75 76  1  0
 76 77  1  0
 77 78  2  0
 79 78  1  0
 79 83  1  0
 80 79  2  0
 81 76  2  0
 81 80  1  0
 82 81  1  0
 84 85  1  0
 85 88  1  0
 85 87  1  0
 86 84  2  0
 89 64  1  0
 89 90  1  0
 91 89  1  0
M  ISO  4   8 101   9 101  51 100  63 100
M  END
>  <TORSDO>  (81) 
F 20

>  <SCORE>  (81) 
-15.932

>  <name>  (81) 
82

>  <ligand_id>  (81) 
82

>  <original_smiles>  (81) 
[H]c1c([H])c([H])c2c(c1[H])C([H])([H])C([H])([H])C([H])([H])C2([H])N([H])C(=O)C1([H])N(C(=O)C([H])(N([H])C(=O)C([H])(N([H])C([H])([H])[H])C([H])([H])[H])C(C([H])([H])[H])(C([H])([H])[H])C([H])([H])[H])C([H])([H])c2c([H])c(OC([H])([H])C([H])(C([H])([H])[H])C([H])(C([H])([H])C3([H])N(C(=O)N4C([H])([H])C([H])([H])C([H])([H])C([H])(n5nc(-c6c([H])c([H])c(Oc7c([H])c([H])c(F)c([H])c7F)c([H])c6[H])c(C(=O)N([H])[H])c5N([H])[H])C4([H])[H])C([H])([H])C([H])([H])C3([H])[H])[N+]([H])([H])[H])c([H])c([H])c2C1([H])[H]

>  <smiles>  (81) 
[H]c1c([H])c([H])c2c(c1[H])C([H])([H])C([H])([H])C([H])([H])C2([H])N([H])C(=O)C1([H])N(C(=O)C([H])(N([H])C(=O)C([H])(N([H])C([H])([H])[H])C([H])([H])[H])C(C([H])([H])[H])(C([H])([H])[H])C([H])([H])[H])C([H])([H])c2c([H])c(OC([H])([H])C([H])(C([H])([H])[H])C([H])(C([H])([H])C3([H])N(C(=O)N4C([H])([H])C([H])([H])C([H])([H])C([H])(n5nc(-c6c([H])c([H])c(Oc7c([H])c([H])c(F)c([H])c7F)c([H])c6[H])c(C(=O)N([H])[H])c5N([H])[H])C4([H])[H])C([H])([H])C([H])([H])C3([H])[H])[N+]([H])([H])[H])c([H])c([H])c2C1([H])[H]

$$$$
83:0:0
     RDKit          3D

 89 96  0  0  1  0  0  0  0  0999 V2000
  -29.1190  -22.2650   20.1480 C   0  0  0  0  0  3  0  0  0  0  0  0
  -31.6400  -21.8460   20.3240 C   0  0  0  0  0  1  0  0  0  0  0  0
  -30.6140  -22.1880   18.0560 C   0  0  0  0  0  1  0  0  0  0  0  0
  -30.8980  -24.0880   19.6320 C   0  0  0  0  0  1  0  0  0  0  0  0
  -30.5350  -22.5890   19.5420 C   0  0  1  0  0  0  0  0  0  0  0  0
  -28.0740  -23.8850   20.0150 C   0  0  0  0  0  2  0  0  0  0  0  0
  -28.2120  -25.6110   20.2610 O   0  0  0  0  0  0  0  0  0  0  0  0
  -24.5930  -31.7970   23.1670 C   0  0  0  0  0  0  0  0  0  0  0  0
  -27.2200  -26.7910   20.1930 C   0  0  0  0  0  0  0  0  0  0  0  0
  -23.4470  -30.4010   21.4990 C   0  0  0  0  0  3  0  0  0  0  0  0
  -24.9330  -28.7780   20.1050 C   0  0  0  0  0  0  0  0  0  0  0  0
  -26.0230  -30.5760   21.4240 C   0  0  0  0  0  2  0  0  0  0  0  0
  -26.1120  -29.1520   20.7600 C   0  0  0  0  0  0  0  0  0  0  0  0
  -27.2420  -28.1840   20.7710 C   0  0  0  0  0  3  0  0  0  0  0  0
  -26.0050  -26.6170   19.4860 C   0  0  0  0  0  3  0  0  0  0  0  0
  -24.9150  -27.5370   19.4460 C   0  0  0  0  0  3  0  0  0  0  0  0
  -23.7170  -29.7150   20.1290 C   0  0  0  0  0  2  0  0  0  0  0  0
  -24.7100  -30.9560   22.0830 N   0  0  0  0  0  0  0  0  0  0  0  0
  -23.4890  -32.0850   23.6600 O   0  0  0  0  0  0  0  0  0  0  0  0
  -22.7220  -29.4100   22.4510 C   0  0  0  0  0  0  0  0  0  0  0  0
  -21.3890  -29.2700   22.3220 N   0  0  0  0  0  0  0  0  0  0  0  0
  -23.3710  -28.7660   23.2790 O   0  0  0  0  0  0  0  0  0  0  0  0
  -20.9140  -29.8430   21.6380 H   0  0  0  0  0  0  0  0  0  0  0  0
  -17.9830  -28.1180   22.8450 C   0  0  0  0  0  0  0  0  0  0  0  0
  -20.5520  -28.3270   23.0760 C   0  0  0  0  0  3  0  0  0  0  0  0
  -20.6140  -26.9110   22.4570 C   0  0  0  0  0  2  0  0  0  0  0  0
  -19.4940  -26.6430   21.4500 C   0  0  0  0  0  2  0  0  0  0  0  0
  -18.1230  -26.7900   22.1180 C   0  0  0  0  0  2  0  0  0  0  0  0
  -19.1230  -28.8470   23.2810 C   0  0  0  0  0  0  0  0  0  0  0  0
  -18.9340  -30.0870   23.9260 C   0  0  0  0  0  3  0  0  0  0  0  0
  -17.6400  -30.6010   24.1360 C   0  0  0  0  0  3  0  0  0  0  0  0
  -16.5160  -29.8710   23.7140 C   0  0  0  0  0  3  0  0  0  0  0  0
  -16.6890  -28.6300   23.0740 C   0  0  0  0  0  3  0  0  0  0  0  0
  -25.8400  -32.4520   23.8350 C   0  0  0  0  0  3  0  0  0  0  0  0
  -25.5110  -33.8580   24.1460 N   0  0  0  0  0  0  0  0  0  0  0  0
  -25.8530  -34.9140   23.3960 C   0  0  0  0  0  0  0  0  0  0  0  0
  -26.5350  -34.8090   22.3730 O   0  0  0  0  0  0  0  0  0  0  0  0
  -24.9080  -34.0130   24.9390 H   0  0  0  0  0  0  0  0  0  0  0  0
  -24.1230  -36.7120   23.0370 C   0  0  0  0  0  1  0  0  0  0  0  0
  -25.3640  -36.3070   23.8480 C   0  0  0  0  0  3  0  0  0  0  0  0
  -27.4900  -37.2130   24.6850 C   0  0  0  0  0  1  0  0  0  0  0  0
  -26.3940  -37.3630   23.7290 N   0  0  0  0  0  0  0  0  0  0  0  0
  -25.9840  -38.2840   23.8610 H   0  0  0  0  0  0  0  0  0  0  0  0
  -26.2990  -31.7070   25.1500 C   0  0  1  0  0  0  0  0  0  0  0  0
  -25.1620  -31.4970   26.1780 C   0  0  0  0  0  1  0  0  0  0  0  0
  -26.8930  -30.3200   24.8230 C   0  0  0  0  0  1  0  0  0  0  0  0
  -27.4250  -32.5130   25.8420 C   0  0  0  0  0  1  0  0  0  0  0  0
  -28.8780  -20.3560   19.9270 C   0  0  0  0  0  3  0  0  0  0  0  0
  -26.6590  -19.8850   18.6970 C   0  0  0  0  0  1  0  0  0  0  0  0
  -28.1590  -20.1800   18.5730 C   0  0  0  0  0  2  0  0  0  0  0  0
  -29.8820  -18.7280   20.1540 C   0  0  0  0  0  2  0  0  0  0  0  0
  -30.3700  -15.6280   20.1340 C   0  0  0  0  0  0  0  0  0  0  0  0
  -30.4070  -13.1020   19.3110 C   0  0  0  0  0  2  0  0  0  0  0  0
  -29.4850  -12.7440   18.1130 C   0  0  0  0  0  2  0  0  0  0  0  0
  -28.0620  -12.4180   18.5930 C   0  0  0  0  0  2  0  0  0  0  0  0
  -27.5910  -13.4140   19.6760 C   0  0  0  0  0  3  0  0  0  0  0  0
  -28.6480  -13.6930   20.7680 C   0  0  0  0  0  2  0  0  0  0  0  0
  -29.8220  -14.2810   20.0870 N   0  0  0  0  0  0  0  0  0  0  0  0
  -31.5970  -15.5650   19.9330 O   0  0  0  0  0  0  0  0  0  0  0  0
  -29.6300  -16.9850   20.2110 N   0  0  0  0  0  0  0  0  0  0  0  0
  -28.6450  -16.7920   20.3220 H   0  0  0  0  0  0  0  0  0  0  0  0
  -25.2570  -13.9610   20.5160 C   0  0  0  0  0  0  0  0  0  0  0  0
  -24.1980  -13.1850   20.8930 C   0  0  0  0  0  0  0  0  0  0  0  0
  -24.6510  -11.8310   20.8180 C   0  0  0  0  0  0  0  0  0  0  0  0
  -26.2830  -13.0830   20.2230 N   0  0  0  0  0  0  0  0  0  0  0  0
  -25.9350  -11.7930   20.4730 N   0  0  0  0  0  0  0  0  0  0  0  0
  -23.9130  -10.5730   20.9950 C   0  0  0  0  0  0  0  0  0  0  0  0
  -24.3390   -9.5870   21.9120 C   0  0  0  0  0  3  0  0  0  0  0  0
  -23.5980   -8.3970   22.0800 C   0  0  0  0  0  3  0  0  0  0  0  0
  -22.4160   -8.1850   21.3310 C   0  0  0  0  0  0  0  0  0  0  0  0
  -22.0080   -9.1600   20.4030 C   0  0  0  0  0  3  0  0  0  0  0  0
  -22.7500  -10.3400   20.2330 C   0  0  0  0  0  3  0  0  0  0  0  0
  -21.6470   -7.0490   21.4100 O   0  0  0  0  0  0  0  0  0  0  0  0
  -21.5760   -6.3050   22.5610 C   0  0  0  0  0  0  0  0  0  0  0  0
  -21.1080   -6.8530   23.7740 C   0  0  0  0  0  3  0  0  0  0  0  0
  -20.9860   -6.0350   24.9150 C   0  0  0  0  0  3  0  0  0  0  0  0
  -21.3230   -4.6710   24.8430 C   0  0  0  0  0  0  0  0  0  0  0  0
  -21.7860   -4.1220   23.6350 C   0  0  0  0  0  3  0  0  0  0  0  0
  -21.9080   -4.9360   22.4950 C   0  0  0  0  0  0  0  0  0  0  0  0
  -22.3340   -4.3990   21.3270 F   0  0  0  0  0  0  0  0  0  0  0  0
  -21.2000   -3.8830   25.9380 F   0  0  0  0  0  0  0  0  0  0  0  0
  -22.8130  -13.6720   21.2010 C   0  0  0  0  0  0  0  0  0  0  0  0
  -22.1030  -12.9790   22.0840 N   0  0  0  0  0  0  0  0  0  0  0  0
  -22.3710  -14.7020   20.6950 O   0  0  0  0  0  0  0  0  0  0  0  0
  -22.4760  -12.1460   22.5160 H   0  0  0  0  0  0  0  0  0  0  0  0
  -21.1750  -13.2860   22.3350 H   0  0  0  0  0  0  0  0  0  0  0  0
  -25.4260  -15.3340   20.3640 N   0  0  0  0  0  0  0  0  0  0  0  0
  -24.6640  -15.9880   20.4970 H   0  0  0  0  0  0  0  0  0  0  0  0
  -26.2600  -15.7690   19.9950 H   0  0  0  0  0  0  0  0  0  0  0  0
  1  6  1  0
  5  3  1  6
  5  4  1  0
  5  1  1  0
  5  2  1  0
  6  7  1  0
  8 19  2  0
  9  7  1  0
  9 14  1  0
 10 18  1  0
 10 20  1  0
 11 17  1  0
 11 13  1  0
 12 18  1  0
 13 14  2  0
 13 12  1  0
 15  9  2  0
 16 15  1  0
 16 11  2  0
 17 10  1  0
 18  8  1  0
 20 22  2  0
 21 20  1  0
 23 21  1  0
 24 33  2  0
 24 29  1  0
 25 21  1  0
 25 29  1  0
 26 25  1  0
 27 28  1  0
 27 26  1  0
 28 24  1  0
 29 30  2  0
 30 31  1  0
 32 31  2  0
 33 32  1  0
 34  8  1  0
 34 35  1  0
 34 44  1  0
 35 38  1  0
 36 40  1  0
 36 35  1  0
 37 36  2  0
 40 39  1  0
 42 40  1  0
 42 43  1  0
 42 41  1  0
 44 47  1  1
 44 45  1  0
 46 44  1  0
 48 50  1  0
 48  1  1  0
 48 51  1  0
 50 49  1  0
 51 60  1  0
 52 60  1  0
 53 58  1  0
 54 55  1  0
 54 53  1  0
 56 55  1  0
 56 65  1  0
 56 57  1  0
 58 52  1  0
 58 57  1  0
 59 52  2  0
 60 61  1  0
 62 63  2  0
 63 82  1  0
 64 63  1  0
 64 67  1  0
 65 66  1  0
 65 62  1  0
 66 64  2  0
 67 68  1  0
 68 69  2  0
 70 73  1  0
 70 69  1  0
 71 70  2  0
 72 71  1  0
 72 67  2  0
 73 74  1  0
 74 75  1  0
 75 76  2  0
 77 76  1  0
 77 81  1  0
 78 77  2  0
 79 74  2  0
 79 78  1  0
 80 79  1  0
 82 83  1  0
 83 86  1  0
 83 85  1  0
 84 82  2  0
 87 88  1  0
 87 62  1  0
 89 87  1  0
M  ISO  4   6 101   7 101  52 100  60 100
M  END
>  <TORSDO>  (82) 
F 21

>  <SCORE>  (82) 
-16.001

>  <name>  (82) 
83

>  <ligand_id>  (82) 
83

>  <original_smiles>  (82) 
[H]c1c([H])c([H])c2c(c1[H])C([H])([H])C([H])([H])C([H])([H])C2([H])N([H])C(=O)C1([H])N(C(=O)C([H])(N([H])C(=O)C([H])(N([H])C([H])([H])[H])C([H])([H])[H])C(C([H])([H])[H])(C([H])([H])[H])C([H])([H])[H])C([H])([H])c2c([H])c(OC([H])([H])C([H])(C([H])(C([H])([H])N([H])C(=O)N3C([H])([H])C([H])([H])C([H])([H])C([H])(n4nc(-c5c([H])c([H])c(Oc6c([H])c([H])c(F)c([H])c6F)c([H])c5[H])c(C(=O)N([H])[H])c4N([H])[H])C3([H])[H])C([H])([H])C([H])([H])[H])C(C([H])([H])[H])(C([H])([H])[H])C([H])([H])[H])c([H])c([H])c2C1([H])[H]

>  <smiles>  (82) 
[H]c1c([H])c([H])c2c(c1[H])C([H])([H])C([H])([H])C([H])([H])C2([H])N([H])C(=O)C1([H])N(C(=O)C([H])(N([H])C(=O)C([H])(N([H])C([H])([H])[H])C([H])([H])[H])C(C([H])([H])[H])(C([H])([H])[H])C([H])([H])[H])C([H])([H])c2c([H])c(OC([H])([H])C([H])(C([H])(C([H])([H])N([H])C(=O)N3C([H])([H])C([H])([H])C([H])([H])C([H])(n4nc(-c5c([H])c([H])c(Oc6c([H])c([H])c(F)c([H])c6F)c([H])c5[H])c(C(=O)N([H])[H])c4N([H])[H])C3([H])[H])C([H])([H])C([H])([H])[H])C(C([H])([H])[H])(C([H])([H])[H])C([H])([H])[H])c([H])c([H])c2C1([H])[H]

$$$$
84:0:0
     RDKit          3D

 87 91  0  0  1  0  0  0  0  0999 V2000
  -27.1650  -20.9430   19.6760 C   0  0  0  0  0  1  0  0  0  0  0  0
  -28.6180  -21.3650   19.9190 C   0  0  0  0  0  1  0  0  0  0  0  0
  -28.3830  -23.3800   20.4960 C   0  0  0  0  0 15  0  0  0  0  0  0
  -28.2220  -25.2480   20.1700 O   0  0  0  0  0  1  0  0  0  0  0  0
  -24.6610  -31.8350   23.1450 C   0  0  0  0  0  0  0  0  0  0  0  0
  -27.2330  -26.5400   20.2350 C   0  0  0  0  0  0  0  0  0  0  0  0
  -23.5020  -30.4100   21.5190 C   0  0  0  0  0  3  0  0  0  0  0  0
  -24.9690  -28.7120   20.1470 C   0  0  0  0  0  0  0  0  0  0  0  0
  -26.0920  -30.5030   21.4320 C   0  0  0  0  0  2  0  0  0  0  0  0
  -26.1680  -29.0370   20.7920 C   0  0  0  0  0  0  0  0  0  0  0  0
  -27.2730  -27.9920   20.7890 C   0  0  0  0  0  3  0  0  0  0  0  0
  -25.9900  -26.4900   19.5340 C   0  0  0  0  0  3  0  0  0  0  0  0
  -24.9330  -27.4680   19.4910 C   0  0  0  0  0  3  0  0  0  0  0  0
  -23.7660  -29.6850   20.1640 C   0  0  0  0  0  2  0  0  0  0  0  0
  -24.7790  -30.9560   22.0830 N   0  0  0  0  0  0  0  0  0  0  0  0
  -23.5580  -32.1380   23.6350 O   0  0  0  0  0  0  0  0  0  0  0  0
  -22.7690  -29.4520   22.5000 C   0  0  0  0  0  0  0  0  0  0  0  0
  -21.4350  -29.3030   22.3760 N   0  0  0  0  0  0  0  0  0  0  0  0
  -23.4190  -28.8370   23.3490 O   0  0  0  0  0  0  0  0  0  0  0  0
  -20.9550  -29.8500   21.6750 H   0  0  0  0  0  0  0  0  0  0  0  0
  -18.0470  -28.0840   22.9130 C   0  0  0  0  0  0  0  0  0  0  0  0
  -20.6090  -28.3670   23.1540 C   0  0  0  0  0  3  0  0  0  0  0  0
  -20.7100  -26.9330   22.5840 C   0  0  0  0  0  2  0  0  0  0  0  0
  -19.6050  -26.6060   21.5750 C   0  0  0  0  0  2  0  0  0  0  0  0
  -18.2270  -26.7400   22.2270 C   0  0  0  0  0  2  0  0  0  0  0  0
  -19.1640  -28.8560   23.3330 C   0  0  0  0  0  0  0  0  0  0  0  0
  -18.9380  -30.1100   23.9390 C   0  0  0  0  0  3  0  0  0  0  0  0
  -17.6290  -30.5940   24.1250 C   0  0  0  0  0  3  0  0  0  0  0  0
  -16.5280  -29.8230   23.7170 C   0  0  0  0  0  3  0  0  0  0  0  0
  -16.7380  -28.5680   23.1180 C   0  0  0  0  0  3  0  0  0  0  0  0
  -25.9040  -32.5160   23.7960 C   0  0  0  0  0  3  0  0  0  0  0  0
  -26.3890  -31.7850   25.1100 C   0  0  1  0  0  0  0  0  0  0  0  0
  -25.2690  -31.5670   26.1560 C   0  0  0  0  0  1  0  0  0  0  0  0
  -26.9930  -30.4010   24.7860 C   0  0  0  0  0  1  0  0  0  0  0  0
  -27.5150  -32.6070   25.7810 C   0  0  0  0  0  1  0  0  0  0  0  0
  -25.5580  -33.9190   24.1150 N   0  0  0  0  0  0  0  0  0  0  0  0
  -25.8970  -34.9900   23.3830 C   0  0  0  0  0  0  0  0  0  0  0  0
  -26.5840  -34.9010   22.3630 O   0  0  0  0  0  0  0  0  0  0  0  0
  -24.9480  -34.0590   24.9060 H   0  0  0  0  0  0  0  0  0  0  0  0
  -24.1730  -36.7970   23.0260 C   0  0  0  0  0  1  0  0  0  0  0  0
  -25.4000  -36.3760   23.8500 C   0  0  0  0  0  3  0  0  0  0  0  0
  -27.5130  -37.2700   24.7340 C   0  0  0  0  0  1  0  0  0  0  0  0
  -26.4320  -37.4350   23.7680 N   0  0  0  0  0  0  0  0  0  0  0  0
  -26.0180  -38.3530   23.9100 H   0  0  0  0  0  0  0  0  0  0  0  0
  -29.5350  -19.5000   20.2840 C   0  0  0  0  0  2  0  0  0  0  0  0
  -30.1840  -16.1270   20.0550 C   0  0  0  0  0  0  0  0  0  0  0  0
  -30.3790  -13.5000   19.2400 C   0  0  0  0  0  2  0  0  0  0  0  0
  -29.5040  -12.8990   18.0910 C   0  0  0  0  0  2  0  0  0  0  0  0
  -28.1220  -12.4630   18.5970 C   0  0  0  0  0  2  0  0  0  0  0  0
  -27.5800  -13.4800   19.6200 C   0  0  0  0  0  3  0  0  0  0  0  0
  -28.6160  -13.9560   20.6770 C   0  0  0  0  0  2  0  0  0  0  0  0
  -29.6920  -14.7050   19.9530 N   0  0  0  0  0  0  0  0  0  0  0  0
  -31.4270  -15.9830   19.9600 O   0  0  0  0  0  0  0  0  0  0  0  0
  -29.4420  -17.6010   20.0830 N   0  0  0  0  0  0  0  0  0  0  0  0
  -28.4570  -17.3770   20.0370 H   0  0  0  0  0  0  0  0  0  0  0  0
  -25.2490  -13.9610   20.4730 C   0  0  0  0  0  0  0  0  0  0  0  0
  -24.2050  -13.1670   20.8530 C   0  0  0  0  0  0  0  0  0  0  0  0
  -24.6850  -11.8210   20.7910 C   0  0  0  0  0  0  0  0  0  0  0  0
  -26.2940  -13.1040   20.1890 N   0  0  0  0  0  0  0  0  0  0  0  0
  -25.9720  -11.8060   20.4440 N   0  0  0  0  0  0  0  0  0  0  0  0
  -23.9680  -10.5520   20.9830 C   0  0  0  0  0  0  0  0  0  0  0  0
  -24.4120   -9.5800   21.9070 C   0  0  0  0  0  3  0  0  0  0  0  0
  -23.6870   -8.3830   22.0890 C   0  0  0  0  0  3  0  0  0  0  0  0
  -22.5050   -8.1460   21.3480 C   0  0  0  0  0  0  0  0  0  0  0  0
  -22.0800   -9.1070   20.4140 C   0  0  0  0  0  3  0  0  0  0  0  0
  -22.8050  -10.2960   20.2300 C   0  0  0  0  0  3  0  0  0  0  0  0
  -21.7500   -7.0010   21.4410 O   0  0  0  0  0  0  0  0  0  0  0  0
  -21.7000   -6.2630   22.5980 C   0  0  0  0  0  0  0  0  0  0  0  0
  -21.2390   -6.8130   23.8140 C   0  0  0  0  0  3  0  0  0  0  0  0
  -21.1370   -6.0000   24.9600 C   0  0  0  0  0  3  0  0  0  0  0  0
  -21.4880   -4.6380   24.8940 C   0  0  0  0  0  0  0  0  0  0  0  0
  -21.9440   -4.0880   23.6830 C   0  0  0  0  0  3  0  0  0  0  0  0
  -22.0460   -4.8980   22.5380 C   0  0  0  0  0  0  0  0  0  0  0  0
  -22.4650   -4.3570   21.3690 F   0  0  0  0  0  0  0  0  0  0  0  0
  -21.3850   -3.8560   25.9930 F   0  0  0  0  0  0  0  0  0  0  0  0
  -22.8120  -13.6310   21.1550 C   0  0  0  0  0  0  0  0  0  0  0  0
  -22.1090  -12.9250   22.0310 N   0  0  0  0  0  0  0  0  0  0  0  0
  -22.3610  -14.6580   20.6510 O   0  0  0  0  0  0  0  0  0  0  0  0
  -22.4910  -12.0940   22.4590 H   0  0  0  0  0  0  0  0  0  0  0  0
  -21.1760  -13.2200   22.2810 H   0  0  0  0  0  0  0  0  0  0  0  0
  -25.3900  -15.3360   20.3080 N   0  0  0  0  0  0  0  0  0  0  0  0
  -24.6160  -15.9770   20.4440 H   0  0  0  0  0  0  0  0  0  0  0  0
  -26.2200  -15.7880   19.9460 H   0  0  0  0  0  0  0  0  0  0  0  0
  -30.9960  -19.8100   19.9100 C   0  0  0  0  0  2  0  0  0  0  0  0
  -32.0130  -18.7760   17.7850 C   0  0  0  0  0  1  0  0  0  0  0  0
  -31.9270  -21.2850   18.0500 C   0  0  0  0  0  1  0  0  0  0  0  0
  -31.2300  -19.9550   18.3830 C   0  0  0  0  0  3  0  0  0  0  0  0
  1  2  1  0
  4  6  1  0
  5 16  2  0
  6 11  1  0
  7 15  1  0
  7 17  1  0
  8 14  1  0
  8 10  1  0
  9 15  1  0
 10  9  1  0
 11 10  2  0
 12  6  2  0
 13 12  1  0
 13  8  2  0
 14  7  1  0
 15  5  1  0
 17 19  2  0
 18 17  1  0
 20 18  1  0
 21 30  2  0
 21 26  1  0
 22 18  1  0
 22 26  1  0
 23 22  1  0
 24 25  1  0
 24 23  1  0
 25 21  1  0
 26 27  2  0
 27 28  1  0
 29 28  2  0
 30 29  1  0
 31  5  1  0
 31 36  1  0
 31 32  1  0
 32 35  1  1
 32 33  1  0
 34 32  1  0
 36 39  1  0
 37 41  1  0
 37 36  1  0
 38 37  2  0
 41 40  1  0
 43 41  1  0
 43 44  1  0
 43 42  1  0
 46 54  1  0
 47 52  1  0
 48 49  1  0
 48 47  1  0
 50 49  1  0
 50 59  1  0
 50 51  1  0
 52 46  1  0
 52 51  1  0
 53 46  2  0
 54 45  1  0
 55 54  1  0
 56 57  2  0
 57 76  1  0
 58 57  1  0
 58 61  1  0
 59 60  1  0
 59 56  1  0
 60 58  2  0
 61 62  1  0
 62 63  2  0
 64 67  1  0
 64 63  1  0
 65 64  2  0
 66 65  1  0
 66 61  2  0
 67 68  1  0
 68 69  1  0
 69 70  2  0
 71 70  1  0
 71 75  1  0
 72 71  2  0
 73 68  2  0
 73 72  1  0
 74 73  1  0
 76 77  1  0
 77 80  1  0
 77 79  1  0
 78 76  2  0
 81 82  1  0
 81 56  1  0
 83 81  1  0
 84 45  1  0
 85 87  1  0
 86 87  1  0
 87 84  1  0
M  ISO  4   3 101   4 101  46 100  54 100
M  END
>  <TORSDO>  (83) 
F 20

>  <SCORE>  (83) 
-15.401

>  <name>  (83) 
84

>  <ligand_id>  (83) 
84

>  <original_smiles>  (83) 
[H]c1c([H])c([H])c2c(c1[H])C([H])([H])C([H])([H])C([H])([H])C2([H])N([H])C(=O)C1([H])N(C(=O)C([H])(N([H])C(=O)C([H])(N([H])C([H])([H])[H])C([H])([H])[H])C(C([H])([H])[H])(C([H])([H])[H])C([H])([H])[H])C([H])([H])c2c([H])c(OC([H])([H])C([H])(C([H])([H])[H])C([H])(N([H])C(=O)N3C([H])([H])C([H])([H])C([H])([H])C([H])(n4nc(-c5c([H])c([H])c(Oc6c([H])c([H])c(F)c([H])c6F)c([H])c5[H])c(C(=O)N([H])[H])c4N([H])[H])C3([H])[H])C([H])([H])C([H])(C([H])([H])[H])C([H])([H])[H])c([H])c([H])c2C1([H])[H]

>  <smiles>  (83) 
[H]c1c([H])c([H])c2c(c1[H])C([H])([H])C([H])([H])C([H])([H])C2([H])N([H])C(=O)C1([H])N(C(=O)C([H])(N([H])C(=O)C([H])(N([H])C([H])([H])[H])C([H])([H])[H])C(C([H])([H])[H])(C([H])([H])[H])C([H])([H])[H])C([H])([H])c2c([H])c(OC([H])([H])C([H])(C([H])([H])[H])C([H])(N([H])C(=O)N3C([H])([H])C([H])([H])C([H])([H])C([H])(n4nc(-c5c([H])c([H])c(Oc6c([H])c([H])c(F)c([H])c6F)c([H])c5[H])c(C(=O)N([H])[H])c4N([H])[H])C3([H])[H])C([H])([H])C([H])(C([H])([H])[H])C([H])([H])[H])c([H])c([H])c2C1([H])[H]

$$$$
85:0:0
     RDKit          3D

100107  0  0  1  0  0  0  0  0999 V2000
  -29.7190  -23.7630   20.2240 N   0  0  0  0  0  4  0  0  0  0  0  0
  -29.2460  -23.3300   19.4440 H   0  0  0  0  0  0  0  0  0  0  0  0
  -30.6700  -23.4350   20.2350 H   0  0  0  0  0  0  0  0  0  0  0  0
  -29.0070  -23.2710   21.4430 C   0  0  0  0  0  3  0  0  0  0  0  0
  -27.6500  -22.6290   21.0920 C   0  0  0  0  0  0  0  0  0  0  0  0
  -26.5980  -22.9460   21.8350 N   0  0  0  0  0  0  0  0  0  0  0  0
  -27.5490  -21.8610   20.1370 O   0  0  0  0  0  0  0  0  0  0  0  0
  -26.6890  -23.5680   22.6250 H   0  0  0  0  0  0  0  0  0  0  0  0
  -25.6910  -22.5620   21.6160 H   0  0  0  0  0  0  0  0  0  0  0  0
  -29.8730  -22.3280   22.3260 C   0  0  0  0  0  2  0  0  0  0  0  0
  -31.0380  -21.5500   21.6530 C   0  0  0  0  0  2  0  0  0  0  0  0
  -30.5660  -20.2270   21.0060 C   0  0  0  0  0  2  0  0  0  0  0  0
  -31.4610  -19.7110   19.8650 C   0  0  0  0  0  2  0  0  0  0  0  0
  -32.9070  -21.0140   18.3070 C   0  0  0  0  0  0  0  0  0  0  0  0
  -34.9650  -21.5070   17.0470 C   0  0  0  0  0  2  0  0  0  0  0  0
  -35.9490  -20.3340   17.2400 C   0  0  0  0  0  2  0  0  0  0  0  0
  -36.7970  -20.5330   18.5130 C   0  0  0  0  0  2  0  0  0  0  0  0
  -35.9310  -20.8850   19.7530 C   0  0  0  0  0  3  0  0  0  0  0  0
  -34.9330  -22.0180   19.4210 C   0  0  0  0  0  2  0  0  0  0  0  0
  -34.1350  -21.5950   18.2570 N   0  0  0  0  0  0  0  0  0  0  0  0
  -32.2770  -20.6610   17.3080 O   0  0  0  0  0  0  0  0  0  0  0  0
  -32.5010  -20.6880   19.5420 N   0  0  0  0  0  0  0  0  0  0  0  0
  -33.0890  -21.0060   20.2970 H   0  0  0  0  0  0  0  0  0  0  0  0
  -37.4220  -20.3770   21.7880 C   0  0  0  0  0  0  0  0  0  0  0  0
  -38.1060  -21.1970   22.6460 C   0  0  0  0  0  0  0  0  0  0  0  0
  -37.8220  -22.5320   22.2260 C   0  0  0  0  0  0  0  0  0  0  0  0
  -36.7580  -21.2180   20.9080 N   0  0  0  0  0  0  0  0  0  0  0  0
  -36.9640  -22.5260   21.2140 N   0  0  0  0  0  0  0  0  0  0  0  0
  -38.3580  -23.8170   22.6910 C   0  0  0  0  0  0  0  0  0  0  0  0
  -37.6580  -24.6180   23.6190 C   0  0  0  0  0  3  0  0  0  0  0  0
  -38.2040  -25.8420   24.0630 C   0  0  0  0  0  3  0  0  0  0  0  0
  -39.4640  -26.2730   23.5830 C   0  0  0  0  0  0  0  0  0  0  0  0
  -40.1460  -25.4820   22.6410 C   0  0  0  0  0  3  0  0  0  0  0  0
  -39.5970  -24.2680   22.1960 C   0  0  0  0  0  3  0  0  0  0  0  0
  -40.0620  -27.4570   23.9380 O   0  0  0  0  0  0  0  0  0  0  0  0
  -39.9060  -27.9940   25.1900 C   0  0  0  0  0  0  0  0  0  0  0  0
  -40.7420  -27.6250   26.2680 C   0  0  0  0  0  3  0  0  0  0  0  0
  -40.5930  -28.2530   27.5200 C   0  0  0  0  0  3  0  0  0  0  0  0
  -39.6190  -29.2540   27.6960 C   0  0  0  0  0  0  0  0  0  0  0  0
  -38.7890  -29.6250   26.6230 C   0  0  0  0  0  3  0  0  0  0  0  0
  -38.9360  -28.9980   25.3740 C   0  0  0  0  0  0  0  0  0  0  0  0
  -38.1480  -29.3750   24.3360 F   0  0  0  0  0  0  0  0  0  0  0  0
  -39.4810  -29.8630   28.8970 F   0  0  0  0  0  0  0  0  0  0  0  0
  -39.0480  -20.7670   23.7340 C   0  0  0  0  0  0  0  0  0  0  0  0
  -39.0660  -21.4900   24.8480 N   0  0  0  0  0  0  0  0  0  0  0  0
  -39.7400  -19.7560   23.6210 O   0  0  0  0  0  0  0  0  0  0  0  0
  -38.4820  -22.3070   24.9490 H   0  0  0  0  0  0  0  0  0  0  0  0
  -39.6710  -21.2210   25.6110 H   0  0  0  0  0  0  0  0  0  0  0  0
  -37.3220  -18.9940   21.6720 N   0  0  0  0  0  0  0  0  0  0  0  0
  -37.8570  -18.3650   22.2610 H   0  0  0  0  0  0  0  0  0  0  0  0
  -36.8030  -18.5140   20.9470 H   0  0  0  0  0  0  0  0  0  0  0  0
  -29.6930  -25.2460   20.0190 C   0  0  0  0  0  3  0  0  0  0  0  0
  -27.2930  -26.1730   20.2540 C   0  0  0  0  0  1  0  0  0  0  0  0
  -28.4180  -25.7720   19.2800 C   0  0  0  0  0  3  0  0  0  0  0  0
  -27.8660  -24.9640   18.0570 C   0  0  0  0  0  2  0  0  0  0  0  0
  -26.6370  -25.4650   17.4850 O   0  0  0  0  0  0  0  0  0  0  0  0
  -27.6970  -27.0110   10.6080 C   0  0  0  0  0  0  0  0  0  0  0  0
  -26.8270  -26.4380   16.5310 C   0  0  0  0  0  0  0  0  0  0  0  0
  -28.2190  -28.8040   12.2300 C   0  0  0  0  0  3  0  0  0  0  0  0
  -27.3790  -28.4270   14.6060 C   0  0  0  0  0  0  0  0  0  0  0  0
  -26.4320  -27.0510   12.7520 C   0  0  0  0  0  2  0  0  0  0  0  0
  -26.7720  -27.2260   14.2160 C   0  0  0  0  0  0  0  0  0  0  0  0
  -26.4920  -26.2230   15.1750 C   0  0  0  0  0  3  0  0  0  0  0  0
  -27.3750  -27.6810   16.9130 C   0  0  0  0  0  3  0  0  0  0  0  0
  -27.6850  -28.6580   15.9560 C   0  0  0  0  0  3  0  0  0  0  0  0
  -27.6590  -29.4450   13.5250 C   0  0  0  0  0  2  0  0  0  0  0  0
  -27.4630  -27.5760   11.8270 N   0  0  0  0  0  0  0  0  0  0  0  0
  -28.4960  -27.5200    9.8090 O   0  0  0  0  0  0  0  0  0  0  0  0
  -29.7350  -28.5590   12.4140 C   0  0  0  0  0  0  0  0  0  0  0  0
  -30.5470  -29.5740   12.0800 N   0  0  0  0  0  0  0  0  0  0  0  0
  -30.1520  -27.4890   12.8630 O   0  0  0  0  0  0  0  0  0  0  0  0
  -30.1250  -30.4110   11.7050 H   0  0  0  0  0  0  0  0  0  0  0  0
  -33.5610  -30.9950   10.6920 C   0  0  0  0  0  0  0  0  0  0  0  0
  -32.0050  -29.5790   12.1920 C   0  0  0  0  0  3  0  0  0  0  0  0
  -32.4750  -30.4810   13.3550 C   0  0  0  0  0  2  0  0  0  0  0  0
  -32.7800  -31.9180   12.9210 C   0  0  0  0  0  2  0  0  0  0  0  0
  -33.8730  -31.9340   11.8480 C   0  0  0  0  0  2  0  0  0  0  0  0
  -32.6720  -29.9000   10.8510 C   0  0  0  0  0  0  0  0  0  0  0  0
  -32.3910  -29.0770    9.7400 C   0  0  0  0  0  3  0  0  0  0  0  0
  -32.9800  -29.3350    8.4870 C   0  0  0  0  0  3  0  0  0  0  0  0
  -33.8710  -30.4110    8.3380 C   0  0  0  0  0  3  0  0  0  0  0  0
  -34.1650  -31.2330    9.4410 C   0  0  0  0  0  3  0  0  0  0  0  0
  -26.9570  -25.7140   10.1540 C   0  0  0  0  0  3  0  0  0  0  0  0
  -26.4810  -25.9400    8.7820 N   0  0  0  0  0  0  0  0  0  0  0  0
  -25.3140  -26.5200    8.4700 C   0  0  0  0  0  0  0  0  0  0  0  0
  -24.4850  -26.8580    9.3200 O   0  0  0  0  0  0  0  0  0  0  0  0
  -27.1340  -25.7440    8.0380 H   0  0  0  0  0  0  0  0  0  0  0  0
  -25.2120  -28.2520    6.6490 C   0  0  0  0  0  1  0  0  0  0  0  0
  -25.0210  -26.7620    6.9770 C   0  0  0  0  0  3  0  0  0  0  0  0
  -23.5010  -24.8810    6.5540 C   0  0  0  0  0  1  0  0  0  0  0  0
  -23.6660  -26.3320    6.5660 N   0  0  0  0  0  0  0  0  0  0  0  0
  -23.4400  -26.6880    5.6410 H   0  0  0  0  0  0  0  0  0  0  0  0
  -27.8600  -24.4210   10.2270 C   0  0  1  0  0  0  0  0  0  0  0  0
  -28.7240  -24.1960    8.9640 C   0  0  0  0  0  1  0  0  0  0  0  0
  -28.8120  -24.4890   11.4430 C   0  0  0  0  0  1  0  0  0  0  0  0
  -26.9720  -23.1700   10.4290 C   0  0  0  0  0  1  0  0  0  0  0  0
  -31.0440  -25.8280   19.4990 C   0  0  0  0  0  2  0  0  0  0  0  0
  -31.0520  -28.1980   20.4940 C   0  0  0  0  0  1  0  0  0  0  0  0
  -32.2080  -27.7520   18.3130 C   0  0  0  0  0  1  0  0  0  0  0  0
  -31.0270  -27.3510   19.2050 C   0  0  0  0  0  3  0  0  0  0  0  0
  1  3  1  0
  1  4  1  0
  2  1  1  0
  4 10  1  0
  5  4  1  0
  5  6  1  0
  6  8  1  0
  7  5  2  0
  9  6  1  0
 11 10  1  0
 12 11  1  0
 13 12  1  0
 14 22  1  0
 15 16  1  0
 15 20  1  0
 16 17  1  0
 18 17  1  0
 18 27  1  0
 19 18  1  0
 20 14  1  0
 20 19  1  0
 21 14  2  0
 22 13  1  0
 22 23  1  0
 24 25  2  0
 25 44  1  0
 26 25  1  0
 26 29  1  0
 27 28  1  0
 27 24  1  0
 28 26  2  0
 29 30  1  0
 30 31  2  0
 32 35  1  0
 32 31  1  0
 33 32  2  0
 34 33  1  0
 34 29  2  0
 35 36  1  0
 36 41  2  0
 36 37  1  0
 37 38  2  0
 38 39  1  0
 39 43  1  0
 40 39  2  0
 41 40  1  0
 42 41  1  0
 44 45  1  0
 45 47  1  0
 45 48  1  0
 46 44  2  0
 49 24  1  0
 49 50  1  0
 51 49  1  0
 52 97  1  0
 52  1  1  0
 54 52  1  0
 54 53  1  0
 55 54  1  0
 56 55  1  0
 57 67  1  0
 58 64  1  0
 58 56  1  0
 59 69  1  0
 59 66  1  0
 60 65  1  0
 61 62  1  0
 62 60  2  0
 62 63  1  0
 63 58  2  0
 65 64  2  0
 66 60  1  0
 67 59  1  0
 67 61  1  0
 68 57  2  0
 69 71  2  0
 70 69  1  0
 72 70  1  0
 73 78  1  0
 73 77  1  0
 74 70  1  0
 74 75  1  0
 76 75  1  0
 77 76  1  0
 78 74  1  0
 79 78  2  0
 80 79  1  0
 81 80  2  0
 81 82  1  0
 82 73  2  0
 83 93  1  0
 83 57  1  0
 84 83  1  0
 85 84  1  0
 85 86  2  0
 87 84  1  0
 89 88  1  0
 89 85  1  0
 90 91  1  0
 91 89  1  0
 92 91  1  0
 93 96  1  1
 93 95  1  0
 94 93  1  0
 99100  1  0
100 97  1  0
100 98  1  0
M  ISO  4  14 100  22 100  55 101  56 101
M  END
>  <TORSDO>  (84) 
F 27

>  <SCORE>  (84) 
-5.000

>  <name>  (84) 
85

>  <ligand_id>  (84) 
85

>  <original_smiles>  (84) 
[H]c1c([H])c([H])c2c(c1[H])C([H])([H])C([H])([H])C([H])([H])C2([H])N([H])C(=O)C1([H])N(C(=O)C([H])(N([H])C(=O)C([H])(N([H])C([H])([H])[H])C([H])([H])[H])C(C([H])([H])[H])(C([H])([H])[H])C([H])([H])[H])C([H])([H])c2c([H])c(OC([H])([H])C([H])(C([H])([H])[H])C([H])(C([H])([H])C([H])(C([H])([H])[H])C([H])([H])[H])[N+]([H])([H])C([H])(C(=O)N([H])[H])C([H])([H])C([H])([H])C([H])([H])C([H])([H])N([H])C(=O)N3C([H])([H])C([H])([H])C([H])([H])C([H])(n4nc(-c5c([H])c([H])c(Oc6c([H])c([H])c(F)c([H])c6F)c([H])c5[H])c(C(=O)N([H])[H])c4N([H])[H])C3([H])[H])c([H])c([H])c2C1([H])[H]

>  <smiles>  (84) 
[H]c1c([H])c([H])c2c(c1[H])C([H])([H])C([H])([H])C([H])([H])C2([H])N([H])C(=O)C1([H])N(C(=O)C([H])(N([H])C(=O)C([H])(N([H])C([H])([H])[H])C([H])([H])[H])C(C([H])([H])[H])(C([H])([H])[H])C([H])([H])[H])C([H])([H])c2c([H])c(OC([H])([H])C([H])(C([H])([H])[H])C([H])(C([H])([H])C([H])(C([H])([H])[H])C([H])([H])[H])[N+]([H])([H])C([H])(C(=O)N([H])[H])C([H])([H])C([H])([H])C([H])([H])C([H])([H])N([H])C(=O)N3C([H])([H])C([H])([H])C([H])([H])C([H])(n4nc(-c5c([H])c([H])c(Oc6c([H])c([H])c(F)c([H])c6F)c([H])c5[H])c(C(=O)N([H])[H])c4N([H])[H])C3([H])[H])c([H])c([H])c2C1([H])[H]

$$$$
86:0:0
     RDKit          3D

 98105  0  0  1  0  0  0  0  0999 V2000
  -26.5450  -22.7580   20.7060 C   0  0  0  0  0  0  0  0  0  0  0  0
  -25.4930  -23.5750   20.9110 N   0  0  0  0  0  4  0  0  0  0  0  0
  -27.7940  -23.2670   20.8530 N   0  0  0  0  0  0  0  0  0  0  0  0
  -24.5500  -23.2210   20.8910 H   0  0  0  0  0  0  0  0  0  0  0  0
  -25.6160  -24.5580   21.1220 H   0  0  0  0  0  0  0  0  0  0  0  0
  -28.5520  -22.6060   20.7960 H   0  0  0  0  0  0  0  0  0  0  0  0
  -28.1470  -24.5720   21.4900 C   0  0  0  0  0  2  0  0  0  0  0  0
  -29.0610  -25.5350   20.6870 C   0  0  0  0  0  2  0  0  0  0  0  0
  -29.0460  -26.9180   21.1710 O   0  0  0  0  0  0  0  0  0  0  0  0
  -24.9240  -32.2230   23.6410 C   0  0  0  0  0  0  0  0  0  0  0  0
  -27.8870  -27.6750   21.0080 C   0  0  0  0  0  0  0  0  0  0  0  0
  -23.8630  -30.6830   22.0150 C   0  0  0  0  0  3  0  0  0  0  0  0
  -25.4610  -29.1310   20.7730 C   0  0  0  0  0  0  0  0  0  0  0  0
  -26.4010  -31.1460   21.9370 C   0  0  0  0  0  2  0  0  0  0  0  0
  -26.5790  -29.7460   21.3550 C   0  0  0  0  0  0  0  0  0  0  0  0
  -27.8060  -29.0320   21.4520 C   0  0  0  0  0  3  0  0  0  0  0  0
  -26.7430  -27.1020   20.4140 C   0  0  0  0  0  3  0  0  0  0  0  0
  -25.5460  -27.8150   20.3030 C   0  0  0  0  0  3  0  0  0  0  0  0
  -24.1770  -29.9290   20.6940 C   0  0  0  0  0  2  0  0  0  0  0  0
  -25.0770  -31.3640   22.5870 N   0  0  0  0  0  0  0  0  0  0  0  0
  -23.8030  -32.4830   24.1050 O   0  0  0  0  0  0  0  0  0  0  0  0
  -23.2030  -29.6810   23.0000 C   0  0  0  0  0  0  0  0  0  0  0  0
  -21.9150  -29.3630   22.7710 N   0  0  0  0  0  0  0  0  0  0  0  0
  -23.8420  -29.2060   23.9400 O   0  0  0  0  0  0  0  0  0  0  0  0
  -21.4550  -29.8420   22.0070 H   0  0  0  0  0  0  0  0  0  0  0  0
  -18.6220  -27.8990   23.0050 C   0  0  0  0  0  0  0  0  0  0  0  0
  -21.0940  -28.4190   23.5340 C   0  0  0  0  0  3  0  0  0  0  0  0
  -21.3550  -26.9480   23.1340 C   0  0  0  0  0  2  0  0  0  0  0  0
  -20.4390  -26.4590   22.0010 C   0  0  0  0  0  2  0  0  0  0  0  0
  -18.9800  -26.5170   22.4690 C   0  0  0  0  0  2  0  0  0  0  0  0
  -19.6090  -28.7980   23.4810 C   0  0  0  0  0  0  0  0  0  0  0  0
  -19.2280  -30.0920   23.8980 C   0  0  0  0  0  3  0  0  0  0  0  0
  -17.8810  -30.4800   23.8500 C   0  0  0  0  0  3  0  0  0  0  0  0
  -16.8980  -29.5740   23.4140 C   0  0  0  0  0  3  0  0  0  0  0  0
  -17.2660  -28.2840   23.0050 C   0  0  0  0  0  3  0  0  0  0  0  0
  -26.1550  -32.9390   24.2890 C   0  0  0  0  0  3  0  0  0  0  0  0
  -26.5650  -32.3220   25.6830 C   0  0  1  0  0  0  0  0  0  0  0  0
  -25.3750  -32.1100   26.6450 C   0  0  0  0  0  1  0  0  0  0  0  0
  -27.2710  -30.9560   25.5040 C   0  0  0  0  0  1  0  0  0  0  0  0
  -27.5830  -33.2570   26.3840 C   0  0  0  0  0  1  0  0  0  0  0  0
  -25.8100  -34.3630   24.4320 N   0  0  0  0  0  0  0  0  0  0  0  0
  -26.1740  -35.3180   23.5680 C   0  0  0  0  0  0  0  0  0  0  0  0
  -26.8940  -35.1050   22.5890 O   0  0  0  0  0  0  0  0  0  0  0  0
  -25.1730  -34.6020   25.1760 H   0  0  0  0  0  0  0  0  0  0  0  0
  -24.4250  -37.0120   22.9250 C   0  0  0  0  0  1  0  0  0  0  0  0
  -25.6460  -36.7400   23.8230 C   0  0  0  0  0  3  0  0  0  0  0  0
  -27.7440  -37.7590   24.5850 C   0  0  0  0  0  1  0  0  0  0  0  0
  -26.6610  -37.7940   23.6080 N   0  0  0  0  0  0  0  0  0  0  0  0
  -26.2340  -38.7150   23.6370 H   0  0  0  0  0  0  0  0  0  0  0  0
  -26.2960  -21.2620   20.4560 C   0  0  0  0  0  2  0  0  0  0  0  0
  -27.2720  -20.5220   19.4770 C   0  0  0  0  0  3  0  0  0  0  0  0
  -25.7020  -19.6360   17.5530 C   0  0  0  0  0  1  0  0  0  0  0  0
  -26.7960  -20.6480   17.9760 C   0  0  0  0  0  3  0  0  0  0  0  0
  -27.4660  -23.1080   17.5960 C   0  0  0  0  0  1  0  0  0  0  0  0
  -26.3510  -22.0640   17.5170 C   0  0  0  0  0  2  0  0  0  0  0  0
  -27.4850  -19.0220   19.9520 C   0  0  0  0  0  2  0  0  0  0  0  0
  -28.5850  -18.0950   19.3010 C   0  0  0  0  0  2  0  0  0  0  0  0
  -30.4280  -19.6650   20.2210 C   0  0  0  0  0  1  0  0  0  0  0  0
  -30.1160  -18.2660   19.6440 C   0  0  0  0  0  3  0  0  0  0  0  0
  -30.8130  -17.1790   20.5670 C   0  0  0  0  0  2  0  0  0  0  0  0
  -31.3540  -14.7080   19.9930 C   0  0  0  0  0  0  0  0  0  0  0  0
  -31.0860  -12.4340   19.0350 C   0  0  0  0  0  2  0  0  0  0  0  0
  -30.1270  -12.5540   17.8310 C   0  0  0  0  0  2  0  0  0  0  0  0
  -28.6490  -12.5270   18.2840 C   0  0  0  0  0  2  0  0  0  0  0  0
  -28.3660  -13.4910   19.4680 C   0  0  0  0  0  3  0  0  0  0  0  0
  -29.4030  -13.2690   20.5830 C   0  0  0  0  0  2  0  0  0  0  0  0
  -30.7250  -13.4980   19.9860 N   0  0  0  0  0  0  0  0  0  0  0  0
  -32.5080  -14.8610   19.5840 O   0  0  0  0  0  0  0  0  0  0  0  0
  -30.5300  -15.7460   20.3320 N   0  0  0  0  0  0  0  0  0  0  0  0
  -29.5970  -15.4600   20.5670 H   0  0  0  0  0  0  0  0  0  0  0  0
  -26.0810  -14.3410   20.2710 C   0  0  0  0  0  0  0  0  0  0  0  0
  -24.9410  -13.6790   20.6510 C   0  0  0  0  0  0  0  0  0  0  0  0
  -25.2400  -12.2910   20.5370 C   0  0  0  0  0  0  0  0  0  0  0  0
  -27.0050  -13.3530   19.9680 N   0  0  0  0  0  0  0  0  0  0  0  0
  -26.5070  -12.1110   20.1840 N   0  0  0  0  0  0  0  0  0  0  0  0
  -24.3770  -11.1140   20.6910 C   0  0  0  0  0  0  0  0  0  0  0  0
  -24.7260  -10.0520   21.5490 C   0  0  0  0  0  3  0  0  0  0  0  0
  -23.8700   -8.9390   21.6920 C   0  0  0  0  0  3  0  0  0  0  0  0
  -22.6530   -8.8840   20.9710 C   0  0  0  0  0  0  0  0  0  0  0  0
  -22.3220   -9.9380   20.1020 C   0  0  0  0  0  3  0  0  0  0  0  0
  -23.1780  -11.0420   19.9600 C   0  0  0  0  0  3  0  0  0  0  0  0
  -21.7720   -7.8310   21.0300 O   0  0  0  0  0  0  0  0  0  0  0  0
  -21.6650   -7.0440   22.1470 C   0  0  0  0  0  0  0  0  0  0  0  0
  -21.3600   -7.5830   23.4170 C   0  0  0  0  0  3  0  0  0  0  0  0
  -21.1910   -6.7270   24.5220 C   0  0  0  0  0  3  0  0  0  0  0  0
  -21.3180   -5.3340   24.3620 C   0  0  0  0  0  0  0  0  0  0  0  0
  -21.6140   -4.7950   23.0970 C   0  0  0  0  0  3  0  0  0  0  0  0
  -21.7850   -5.6480   21.9930 C   0  0  0  0  0  0  0  0  0  0  0  0
  -22.0510   -5.1200   20.7740 F   0  0  0  0  0  0  0  0  0  0  0  0
  -21.1470   -4.5110   25.4220 F   0  0  0  0  0  0  0  0  0  0  0  0
  -23.6250  -14.3130   20.9890 C   0  0  0  0  0  0  0  0  0  0  0  0
  -22.8500  -13.6740   21.8630 N   0  0  0  0  0  0  0  0  0  0  0  0
  -23.2920  -15.3980   20.5180 O   0  0  0  0  0  0  0  0  0  0  0  0
  -23.1250  -12.7920   22.2590 H   0  0  0  0  0  0  0  0  0  0  0  0
  -21.9580  -14.0680   22.1220 H   0  0  0  0  0  0  0  0  0  0  0  0
  -26.3860  -15.6870   20.1370 N   0  0  0  0  0  0  0  0  0  0  0  0
  -25.6700  -16.3950   20.2610 H   0  0  0  0  0  0  0  0  0  0  0  0
  -27.2190  -16.0350   19.6750 H   0  0  0  0  0  0  0  0  0  0  0  0
  1  3  1  0
  1  2  2  0
  2  5  1  0
  3  7  1  0
  4  2  1  0
  6  3  1  0
  8  9  1  0
  8  7  1  0
 10 21  2  0
 11  9  1  0
 11 16  1  0
 12 20  1  0
 12 22  1  0
 13 15  1  0
 14 20  1  0
 15 16  2  0
 15 14  1  0
 17 11  2  0
 18 17  1  0
 18 13  2  0
 19 13  1  0
 19 12  1  0
 20 10  1  0
 22 24  2  0
 23 22  1  0
 25 23  1  0
 26 31  1  0
 27 23  1  0
 28 27  1  0
 29 30  1  0
 29 28  1  0
 30 26  1  0
 31 27  1  0
 31 32  2  0
 33 32  1  0
 34 33  2  0
 35 26  2  0
 35 34  1  0
 36 10  1  0
 36 41  1  0
 36 37  1  0
 37 40  1  1
 37 38  1  0
 39 37  1  0
 41 44  1  0
 42 46  1  0
 42 41  1  0
 43 42  2  0
 46 45  1  0
 48 49  1  0
 48 46  1  0
 48 47  1  0
 50  1  1  0
 51 56  1  0
 51 50  1  0
 53 52  1  0
 53 51  1  0
 55 54  1  0
 55 53  1  0
 57 59  1  0
 57 56  1  0
 59 58  1  0
 59 60  1  0
 61 69  1  0
 62 67  1  0
 63 64  1  0
 63 62  1  0
 65 64  1  0
 65 74  1  0
 65 66  1  0
 67 61  1  0
 67 66  1  0
 68 61  2  0
 69 60  1  0
 69 70  1  0
 71 72  2  0
 72 91  1  0
 73 72  1  0
 73 76  1  0
 74 75  1  0
 74 71  1  0
 75 73  2  0
 76 77  1  0
 77 78  2  0
 79 82  1  0
 79 78  1  0
 80 79  2  0
 81 80  1  0
 81 76  2  0
 82 83  1  0
 83 84  1  0
 84 85  2  0
 86 85  1  0
 86 90  1  0
 87 86  2  0
 88 83  2  0
 88 87  1  0
 89 88  1  0
 91 92  1  0
 92 95  1  0
 92 94  1  0
 93 91  2  0
 96 97  1  0
 96 71  1  0
 98 96  1  0
M  ISO  4   8 101   9 101  61 100  69 100
M  END
>  <TORSDO>  (85) 
F 26

>  <SCORE>  (85) 
-8.132

>  <name>  (85) 
86

>  <ligand_id>  (85) 
86

>  <original_smiles>  (85) 
[H]c1c([H])c([H])c2c(c1[H])C([H])([H])C([H])([H])C([H])([H])C2([H])N([H])C(=O)C1([H])N(C(=O)C([H])(N([H])C(=O)C([H])(N([H])C([H])([H])[H])C([H])([H])[H])C(C([H])([H])[H])(C([H])([H])[H])C([H])([H])[H])C([H])([H])c2c([H])c(OC([H])([H])C([H])([H])[N+]([H])=C(N([H])[H])C([H])([H])C([H])(C([H])([H])C([H])([H])C([H])(C([H])([H])[H])C([H])([H])N([H])C(=O)N3C([H])([H])C([H])([H])C([H])([H])C([H])(n4nc(-c5c([H])c([H])c(Oc6c([H])c([H])c(F)c([H])c6F)c([H])c5[H])c(C(=O)N([H])[H])c4N([H])[H])C3([H])[H])C([H])(C([H])([H])[H])C([H])([H])C([H])([H])[H])c([H])c([H])c2C1([H])[H]

>  <smiles>  (85) 
[H]c1c([H])c([H])c2c(c1[H])C([H])([H])C([H])([H])C([H])([H])C2([H])N([H])C(=O)C1([H])N(C(=O)C([H])(N([H])C(=O)C([H])(N([H])C([H])([H])[H])C([H])([H])[H])C(C([H])([H])[H])(C([H])([H])[H])C([H])([H])[H])C([H])([H])c2c([H])c(OC([H])([H])C([H])([H])[N+]([H])=C(N([H])[H])C([H])([H])C([H])(C([H])([H])C([H])([H])C([H])(C([H])([H])[H])C([H])([H])N([H])C(=O)N3C([H])([H])C([H])([H])C([H])([H])C([H])(n4nc(-c5c([H])c([H])c(Oc6c([H])c([H])c(F)c([H])c6F)c([H])c5[H])c(C(=O)N([H])[H])c4N([H])[H])C3([H])[H])C([H])(C([H])([H])[H])C([H])([H])C([H])([H])[H])c([H])c([H])c2C1([H])[H]

$$$$
87:0:0
     RDKit          3D

102109  0  0  1  0  0  0  0  0999 V2000
  -28.3110  -19.2040   20.5670 C   0  0  0  0  0  2  0  0  0  0  0  0
  -28.9740  -20.5930   20.3070 C   0  0  0  0  0  2  0  0  0  0  0  0
  -28.1080  -21.8700   20.0950 C   0  0  0  0  0  3  0  0  0  0  0  0
  -27.3210  -21.8330   18.7730 C   0  0  0  0  0  0  0  0  0  0  0  0
  -27.9400  -21.3620   17.6950 N   0  0  0  0  0  0  0  0  0  0  0  0
  -26.1610  -22.2340   18.7190 O   0  0  0  0  0  0  0  0  0  0  0  0
  -28.8930  -21.0300   17.7560 H   0  0  0  0  0  0  0  0  0  0  0  0
  -27.4620  -21.3300   16.8050 H   0  0  0  0  0  0  0  0  0  0  0  0
  -29.0270  -23.1300   20.1750 C   0  0  0  0  0  2  0  0  0  0  0  0
  -28.3880  -24.5010   20.5120 C   0  0  0  0  0  2  0  0  0  0  0  0
  -29.2560  -25.6700   19.9730 C   0  0  0  0  0  2  0  0  0  0  0  0
  -29.0340  -26.9380   20.6000 O   0  0  0  0  0  0  0  0  0  0  0  0
  -24.7230  -31.8710   23.3310 C   0  0  0  0  0  0  0  0  0  0  0  0
  -27.8190  -27.5780   20.4670 C   0  0  0  0  0  0  0  0  0  0  0  0
  -23.7290  -30.4250   21.5910 C   0  0  0  0  0  3  0  0  0  0  0  0
  -25.3640  -28.9750   20.2810 C   0  0  0  0  0  0  0  0  0  0  0  0
  -26.2430  -30.9030   21.6080 C   0  0  0  0  0  2  0  0  0  0  0  0
  -26.4420  -29.5440   20.9700 C   0  0  0  0  0  0  0  0  0  0  0  0
  -27.6690  -28.8510   21.0620 C   0  0  0  0  0  3  0  0  0  0  0  0
  -26.7220  -27.0230   19.7670 C   0  0  0  0  0  3  0  0  0  0  0  0
  -25.5000  -27.7150   19.6770 C   0  0  0  0  0  3  0  0  0  0  0  0
  -24.0820  -29.7740   20.2290 C   0  0  0  0  0  2  0  0  0  0  0  0
  -24.9110  -31.0830   22.2360 N   0  0  0  0  0  0  0  0  0  0  0  0
  -23.5880  -32.0870   23.7760 O   0  0  0  0  0  0  0  0  0  0  0  0
  -23.0570  -29.3600   22.4850 C   0  0  0  0  0  0  0  0  0  0  0  0
  -21.7390  -29.1780   22.3040 N   0  0  0  0  0  0  0  0  0  0  0  0
  -23.7160  -28.7080   23.2980 O   0  0  0  0  0  0  0  0  0  0  0  0
  -21.2730  -29.7540   21.6180 H   0  0  0  0  0  0  0  0  0  0  0  0
  -18.3320  -28.0690   22.7590 C   0  0  0  0  0  0  0  0  0  0  0  0
  -20.9010  -28.2110   23.0110 C   0  0  0  0  0  3  0  0  0  0  0  0
  -20.9430  -26.8320   22.3170 C   0  0  0  0  0  2  0  0  0  0  0  0
  -19.8170  -26.6340   21.2980 C   0  0  0  0  0  2  0  0  0  0  0  0
  -18.4500  -26.7750   21.9730 C   0  0  0  0  0  2  0  0  0  0  0  0
  -19.4840  -28.7530   23.2330 C   0  0  0  0  0  0  0  0  0  0  0  0
  -19.3200  -29.9700   23.9270 C   0  0  0  0  0  3  0  0  0  0  0  0
  -18.0370  -30.5020   24.1570 C   0  0  0  0  0  3  0  0  0  0  0  0
  -16.8990  -29.8140   23.6990 C   0  0  0  0  0  3  0  0  0  0  0  0
  -17.0490  -28.5990   23.0050 C   0  0  0  0  0  3  0  0  0  0  0  0
  -25.9210  -32.5560   24.0590 C   0  0  0  0  0  3  0  0  0  0  0  0
  -26.3290  -31.8320   25.3990 C   0  0  1  0  0  0  0  0  0  0  0  0
  -25.1400  -31.5790   26.3550 C   0  0  0  0  0  1  0  0  0  0  0  0
  -26.9990  -30.4690   25.1010 C   0  0  0  0  0  1  0  0  0  0  0  0
  -27.3760  -32.6860   26.1550 C   0  0  0  0  0  1  0  0  0  0  0  0
  -25.5440  -33.9520   24.3150 N   0  0  0  0  0  0  0  0  0  0  0  0
  -25.9100  -34.9910   23.5540 C   0  0  0  0  0  0  0  0  0  0  0  0
  -26.6740  -34.8780   22.5900 O   0  0  0  0  0  0  0  0  0  0  0  0
  -24.8820  -34.1130   25.0610 H   0  0  0  0  0  0  0  0  0  0  0  0
  -24.1550  -36.6970   22.9890 C   0  0  0  0  0  1  0  0  0  0  0  0
  -25.3370  -36.3760   23.9150 C   0  0  0  0  0  3  0  0  0  0  0  0
  -27.3660  -37.3650   24.8830 C   0  0  0  0  0  1  0  0  0  0  0  0
  -26.3400  -37.4630   23.8500 N   0  0  0  0  0  0  0  0  0  0  0  0
  -25.8900  -38.3710   23.9340 H   0  0  0  0  0  0  0  0  0  0  0  0
  -29.4370  -18.1360   20.5840 C   0  0  0  0  0  2  0  0  0  0  0  0
  -29.1630  -16.6470   20.1830 C   0  0  0  0  0  2  0  0  0  0  0  0
  -30.9170  -14.7410   20.1800 C   0  0  0  0  0  0  0  0  0  0  0  0
  -30.5510  -12.5130   19.2220 C   0  0  0  0  0  2  0  0  0  0  0  0
  -29.6100  -12.5700   18.0080 C   0  0  0  0  0  2  0  0  0  0  0  0
  -28.1460  -12.4330   18.4680 C   0  0  0  0  0  2  0  0  0  0  0  0
  -27.7880  -13.3700   19.6530 C   0  0  0  0  0  3  0  0  0  0  0  0
  -28.8680  -13.3490   20.7550 C   0  0  0  0  0  2  0  0  0  0  0  0
  -30.1510  -13.6180   20.1050 N   0  0  0  0  0  0  0  0  0  0  0  0
  -32.1380  -14.6480   20.0670 O   0  0  0  0  0  0  0  0  0  0  0  0
  -30.3890  -15.9250   19.7190 N   0  0  0  0  0  0  0  0  0  0  0  0
  -25.4270  -13.9740   20.4500 C   0  0  0  0  0  0  0  0  0  0  0  0
  -24.3640  -13.2020   20.8360 C   0  0  0  0  0  0  0  0  0  0  0  0
  -24.8210  -11.8490   20.7840 C   0  0  0  0  0  0  0  0  0  0  0  0
  -26.4580  -13.0910   20.1820 N   0  0  0  0  0  0  0  0  0  0  0  0
  -26.1040  -11.8080   20.4510 N   0  0  0  0  0  0  0  0  0  0  0  0
  -24.0950  -10.5880   20.9760 C   0  0  0  0  0  0  0  0  0  0  0  0
  -24.5150   -9.6320   21.9280 C   0  0  0  0  0  3  0  0  0  0  0  0
  -23.7870   -8.4360   22.1100 C   0  0  0  0  0  3  0  0  0  0  0  0
  -22.6270   -8.1880   21.3380 C   0  0  0  0  0  0  0  0  0  0  0  0
  -22.2260   -9.1310   20.3780 C   0  0  0  0  0  3  0  0  0  0  0  0
  -22.9540  -10.3190   20.1940 C   0  0  0  0  0  3  0  0  0  0  0  0
  -21.8730   -7.0430   21.4300 O   0  0  0  0  0  0  0  0  0  0  0  0
  -21.7950   -6.3220   22.5950 C   0  0  0  0  0  0  0  0  0  0  0  0
  -21.2970   -6.8890   23.7880 C   0  0  0  0  0  3  0  0  0  0  0  0
  -21.1640   -6.0920   24.9430 C   0  0  0  0  0  3  0  0  0  0  0  0
  -21.5260   -4.7330   24.9060 C   0  0  0  0  0  0  0  0  0  0  0  0
  -22.0190   -4.1660   23.7180 C   0  0  0  0  0  3  0  0  0  0  0  0
  -22.1490   -4.9590   22.5640 C   0  0  0  0  0  0  0  0  0  0  0  0
  -22.6040   -4.4030   21.4140 F   0  0  0  0  0  0  0  0  0  0  0  0
  -21.3920   -3.9650   26.0130 F   0  0  0  0  0  0  0  0  0  0  0  0
  -22.9760  -13.6830   21.1380 C   0  0  0  0  0  0  0  0  0  0  0  0
  -22.2610  -12.9870   22.0170 N   0  0  0  0  0  0  0  0  0  0  0  0
  -22.5320  -14.7090   20.6280 O   0  0  0  0  0  0  0  0  0  0  0  0
  -22.6370  -12.1610   22.4590 H   0  0  0  0  0  0  0  0  0  0  0  0
  -21.3260  -13.2890   22.2510 H   0  0  0  0  0  0  0  0  0  0  0  0
  -25.5900  -15.3470   20.2830 N   0  0  0  0  0  0  0  0  0  0  0  0
  -24.8220  -15.9960   20.4160 H   0  0  0  0  0  0  0  0  0  0  0  0
  -26.4370  -15.7940   19.9580 H   0  0  0  0  0  0  0  0  0  0  0  0
  -31.1870  -16.6250   18.6610 C   0  0  0  0  0  2  0  0  0  0  0  0
  -32.1520  -17.7840   19.1290 C   0  0  0  0  0  3  0  0  0  0  0  0
  -32.7210  -17.6090   20.4820 N   0  0  0  0  0  4  0  0  0  0  0  0
  -33.0510  -16.6580   20.5720 H   0  0  0  0  0  0  0  0  0  0  0  0
  -32.0220  -17.7590   21.1880 H   0  0  0  0  0  0  0  0  0  0  0  0
  -33.4760  -18.2500   20.6480 H   0  0  0  0  0  0  0  0  0  0  0  0
  -33.2590  -18.1250   18.0860 C   0  0  0  0  0  3  0  0  0  0  0  0
  -32.8900  -20.7190   18.0610 C   0  0  0  0  0  1  0  0  0  0  0  0
  -33.8600  -19.5450   18.2870 C   0  0  0  0  0  2  0  0  0  0  0  0
  -35.2990  -17.1380   16.8120 C   0  0  0  0  0  1  0  0  0  0  0  0
  -34.3790  -17.0510   18.0410 C   0  0  0  0  0  2  0  0  0  0  0  0
  1 53  1  0
  2  1  1  0
  3  9  1  0
  3  2  1  0
  4  3  1  0
  5  7  1  0
  5  4  1  0
  6  4  2  0
  8  5  1  0
  9 10  1  0
 11 10  1  0
 11 12  1  0
 13 24  2  0
 14 12  1  0
 14 19  1  0
 15 23  1  0
 15 25  1  0
 16 18  1  0
 17 23  1  0
 18 19  2  0
 18 17  1  0
 20 14  2  0
 21 20  1  0
 21 16  2  0
 22 16  1  0
 22 15  1  0
 23 13  1  0
 25 27  2  0
 26 25  1  0
 28 26  1  0
 29 38  2  0
 29 34  1  0
 30 26  1  0
 30 34  1  0
 31 30  1  0
 32 33  1  0
 32 31  1  0
 33 29  1  0
 34 35  2  0
 35 36  1  0
 37 36  2  0
 38 37  1  0
 39 13  1  0
 39 44  1  0
 39 40  1  0
 40 43  1  1
 40 41  1  0
 42 40  1  0
 44 47  1  0
 45 49  1  0
 45 44  1  0
 46 45  2  0
 49 48  1  0
 51 49  1  0
 51 52  1  0
 51 50  1  0
 54 53  1  0
 56 61  1  0
 57 58  1  0
 57 56  1  0
 59 58  1  0
 59 67  1  0
 59 60  1  0
 61 55  1  0
 61 60  1  0
 62 55  2  0
 63 55  1  0
 63 54  1  0
 64 65  2  0
 65 84  1  0
 66 65  1  0
 66 69  1  0
 67 64  1  0
 67 68  1  0
 68 66  2  0
 69 70  1  0
 70 71  2  0
 72 75  1  0
 72 71  1  0
 73 72  2  0
 74 73  1  0
 74 69  2  0
 75 76  1  0
 76 77  1  0
 77 78  2  0
 79 78  1  0
 79 83  1  0
 80 79  2  0
 81 76  2  0
 81 80  1  0
 82 81  1  0
 84 85  1  0
 85 88  1  0
 85 87  1  0
 86 84  2  0
 89 90  1  0
 89 64  1  0
 91 89  1  0
 92 63  1  0
 93 92  1  0
 93 94  1  0
 94 95  1  0
 94 97  1  0
 94 96  1  0
 98100  1  0
 98 93  1  0
 99100  1  0
101102  1  0
102 98  1  0
M  ISO  4  11 101  12 101  55 100  63 100
M  END
>  <TORSDO>  (86) 
F 30

>  <SCORE>  (86) 
-11.107

>  <name>  (86) 
87

>  <ligand_id>  (86) 
87

>  <original_smiles>  (86) 
[H]c1c([H])c([H])c2c(c1[H])C([H])([H])C([H])([H])C([H])([H])C2([H])N([H])C(=O)C1([H])N(C(=O)C([H])(N([H])C(=O)C([H])(N([H])C([H])([H])[H])C([H])([H])[H])C(C([H])([H])[H])(C([H])([H])[H])C([H])([H])[H])C([H])([H])c2c([H])c(OC([H])([H])C([H])([H])C([H])([H])C([H])(C(=O)N([H])[H])C([H])([H])C([H])([H])C([H])([H])C([H])([H])N(C(=O)N3C([H])([H])C([H])([H])C([H])([H])C([H])(n4nc(-c5c([H])c([H])c(Oc6c([H])c([H])c(F)c([H])c6F)c([H])c5[H])c(C(=O)N([H])[H])c4N([H])[H])C3([H])[H])C([H])([H])C([H])(C([H])(C([H])([H])C([H])([H])[H])C([H])([H])C([H])([H])[H])[N+]([H])([H])[H])c([H])c([H])c2C1([H])[H]

>  <smiles>  (86) 
[H]c1c([H])c([H])c2c(c1[H])C([H])([H])C([H])([H])C([H])([H])C2([H])N([H])C(=O)C1([H])N(C(=O)C([H])(N([H])C(=O)C([H])(N([H])C([H])([H])[H])C([H])([H])[H])C(C([H])([H])[H])(C([H])([H])[H])C([H])([H])[H])C([H])([H])c2c([H])c(OC([H])([H])C([H])([H])C([H])([H])C([H])(C(=O)N([H])[H])C([H])([H])C([H])([H])C([H])([H])C([H])([H])N(C(=O)N3C([H])([H])C([H])([H])C([H])([H])C([H])(n4nc(-c5c([H])c([H])c(Oc6c([H])c([H])c(F)c([H])c6F)c([H])c5[H])c(C(=O)N([H])[H])c4N([H])[H])C3([H])[H])C([H])([H])C([H])(C([H])(C([H])([H])C([H])([H])[H])C([H])([H])C([H])([H])[H])[N+]([H])([H])[H])c([H])c([H])c2C1([H])[H]

$$$$
88:0:0
     RDKit          3D

 95103  0  0  1  0  0  0  0  0999 V2000
  -29.6300  -21.1400   17.6980 C   0  0  0  0  0  2  0  0  0  0  0  0
  -28.2760  -21.5680   18.2900 C   0  0  0  0  0  2  0  0  0  0  0  0
  -30.4760  -20.6680   18.8940 C   0  0  0  0  0  2  0  0  0  0  0  0
  -28.4660  -21.5080   19.8130 C   0  0  0  0  0  3  0  0  0  0  0  0
  -29.5050  -20.3060   19.9430 N   0  0  1  0  0  4  0  0  0  0  0  0
  -29.9650  -20.3880   20.8370 H   0  0  0  0  0  0  0  0  0  0  0  0
  -28.9870  -23.0360   21.8840 C   0  0  0  0  0  1  0  0  0  0  0  0
  -28.7890  -23.0920   20.3570 C   0  0  0  0  0  3  0  0  0  0  0  0
  -27.8020  -24.4310   20.0390 C   0  0  0  0  0  2  0  0  0  0  0  0
  -28.0860  -25.9460   20.2920 O   0  0  0  0  0  0  0  0  0  0  0  0
  -24.5130  -31.7210   23.1480 C   0  0  0  0  0  0  0  0  0  0  0  0
  -27.0520  -26.9480   20.1880 C   0  0  0  0  0  0  0  0  0  0  0  0
  -23.3130  -30.3340   21.5020 C   0  0  0  0  0  3  0  0  0  0  0  0
  -24.7520  -28.7280   20.1050 C   0  0  0  0  0  0  0  0  0  0  0  0
  -25.8730  -30.5580   21.3690 C   0  0  0  0  0  2  0  0  0  0  0  0
  -25.9310  -29.1610   20.7270 C   0  0  0  0  0  0  0  0  0  0  0  0
  -27.0810  -28.2860   20.7520 C   0  0  0  0  0  3  0  0  0  0  0  0
  -25.8520  -26.6210   19.5210 C   0  0  0  0  0  3  0  0  0  0  0  0
  -24.7250  -27.4700   19.4870 C   0  0  0  0  0  3  0  0  0  0  0  0
  -23.5420  -29.6440   20.1310 C   0  0  0  0  0  2  0  0  0  0  0  0
  -24.5880  -30.8920   22.0630 N   0  0  0  0  0  0  0  0  0  0  0  0
  -23.4240  -32.0270   23.6580 O   0  0  0  0  0  0  0  0  0  0  0  0
  -22.6010  -29.3450   22.4590 C   0  0  0  0  0  0  0  0  0  0  0  0
  -21.2690  -29.2110   22.3250 N   0  0  0  0  0  0  0  0  0  0  0  0
  -23.2500  -28.6990   23.2860 O   0  0  0  0  0  0  0  0  0  0  0  0
  -20.8050  -29.7820   21.6330 H   0  0  0  0  0  0  0  0  0  0  0  0
  -17.8480  -28.1390   22.8330 C   0  0  0  0  0  0  0  0  0  0  0  0
  -20.4180  -28.2990   23.0890 C   0  0  0  0  0  3  0  0  0  0  0  0
  -20.4610  -26.8700   22.4970 C   0  0  0  0  0  2  0  0  0  0  0  0
  -19.3420  -26.6010   21.4870 C   0  0  0  0  0  2  0  0  0  0  0  0
  -17.9700  -26.7920   22.1400 C   0  0  0  0  0  2  0  0  0  0  0  0
  -18.9970  -28.8530   23.2630 C   0  0  0  0  0  0  0  0  0  0  0  0
  -18.8270  -30.1170   23.8720 C   0  0  0  0  0  3  0  0  0  0  0  0
  -17.5420  -30.6620   24.0540 C   0  0  0  0  0  3  0  0  0  0  0  0
  -16.4090  -29.9430   23.6390 C   0  0  0  0  0  3  0  0  0  0  0  0
  -16.5620  -28.6820   23.0350 C   0  0  0  0  0  3  0  0  0  0  0  0
  -25.7930  -32.3380   23.7910 C   0  0  0  0  0  3  0  0  0  0  0  0
  -25.4860  -33.7320   24.1490 N   0  0  0  0  0  0  0  0  0  0  0  0
  -25.8090  -34.7990   23.4080 C   0  0  0  0  0  0  0  0  0  0  0  0
  -26.4580  -34.7150   22.3620 O   0  0  0  0  0  0  0  0  0  0  0  0
  -24.9070  -33.8700   24.9640 H   0  0  0  0  0  0  0  0  0  0  0  0
  -24.0740  -36.6010   23.1290 C   0  0  0  0  0  1  0  0  0  0  0  0
  -25.3350  -36.1800   23.9010 C   0  0  0  0  0  3  0  0  0  0  0  0
  -27.4840  -37.0580   24.7000 C   0  0  0  0  0  1  0  0  0  0  0  0
  -26.3650  -37.2350   23.7790 N   0  0  0  0  0  0  0  0  0  0  0  0
  -25.9620  -38.1530   23.9430 H   0  0  0  0  0  0  0  0  0  0  0  0
  -26.2940  -31.5430   25.0580 C   0  0  1  0  0  0  0  0  0  0  0  0
  -25.1910  -31.2900   26.1120 C   0  0  0  0  0  1  0  0  0  0  0  0
  -26.8740  -30.1700   24.6490 C   0  0  0  0  0  1  0  0  0  0  0  0
  -27.4450  -32.3200   25.7430 C   0  0  0  0  0  1  0  0  0  0  0  0
  -27.7710  -18.3950   20.3720 C   0  0  0  0  0  1  0  0  0  0  0  0
  -29.1510  -18.7460   19.7750 C   0  0  0  0  0  3  0  0  0  0  0  0
  -30.2860  -17.4900   20.0130 C   0  0  0  0  0  3  0  0  0  0  0  0
  -30.4970  -14.7550   19.6390 C   0  0  0  0  0  0  0  0  0  0  0  0
  -30.2050  -12.4110   18.7170 C   0  0  0  0  0  2  0  0  0  0  0  0
  -29.1400  -12.3670   17.5990 C   0  0  0  0  0  2  0  0  0  0  0  0
  -27.7310  -12.1770   18.1910 C   0  0  0  0  0  2  0  0  0  0  0  0
  -27.4720  -13.1010   19.4120 C   0  0  0  0  0  3  0  0  0  0  0  0
  -28.6540  -13.1210   20.4070 C   0  0  0  0  0  2  0  0  0  0  0  0
  -29.8550  -13.5160   19.6580 N   0  0  0  0  0  0  0  0  0  0  0  0
  -31.6220  -14.7860   19.1340 O   0  0  0  0  0  0  0  0  0  0  0  0
  -29.8410  -15.9610   20.0140 N   0  0  0  0  0  0  0  0  0  0  0  0
  -28.9170  -15.8120   20.3850 H   0  0  0  0  0  0  0  0  0  0  0  0
  -25.2270  -13.6790   20.5000 C   0  0  0  0  0  0  0  0  0  0  0  0
  -24.2020  -12.9060   20.9690 C   0  0  0  0  0  0  0  0  0  0  0  0
  -24.6220  -11.5500   20.8010 C   0  0  0  0  0  0  0  0  0  0  0  0
  -26.2060  -12.8000   20.0700 N   0  0  0  0  0  0  0  0  0  0  0  0
  -25.8600  -11.5090   20.3160 N   0  0  0  0  0  0  0  0  0  0  0  0
  -23.8930  -10.2920   21.0160 C   0  0  0  0  0  0  0  0  0  0  0  0
  -24.3760   -9.3000   21.8960 C   0  0  0  0  0  3  0  0  0  0  0  0
  -23.6460   -8.1090   22.1030 C   0  0  0  0  0  3  0  0  0  0  0  0
  -22.4180   -7.9020   21.4330 C   0  0  0  0  0  0  0  0  0  0  0  0
  -21.9530   -8.8840   20.5410 C   0  0  0  0  0  3  0  0  0  0  0  0
  -22.6820  -10.0670   20.3310 C   0  0  0  0  0  3  0  0  0  0  0  0
  -21.6520   -6.7680   21.5540 O   0  0  0  0  0  0  0  0  0  0  0  0
  -21.6440   -6.0250   22.7080 C   0  0  0  0  0  0  0  0  0  0  0  0
  -21.2320   -6.5710   23.9460 C   0  0  0  0  0  3  0  0  0  0  0  0
  -21.1710   -5.7510   25.0900 C   0  0  0  0  0  3  0  0  0  0  0  0
  -21.5110   -4.3880   25.0000 C   0  0  0  0  0  0  0  0  0  0  0  0
  -21.9150   -3.8420   23.7690 C   0  0  0  0  0  3  0  0  0  0  0  0
  -21.9800   -4.6590   22.6260 C   0  0  0  0  0  0  0  0  0  0  0  0
  -22.3490   -4.1240   21.4370 F   0  0  0  0  0  0  0  0  0  0  0  0
  -21.4470   -3.5990   26.0980 F   0  0  0  0  0  0  0  0  0  0  0  0
  -22.8650  -13.3890   21.4460 C   0  0  0  0  0  0  0  0  0  0  0  0
  -22.2420  -12.6660   22.3660 N   0  0  0  0  0  0  0  0  0  0  0  0
  -22.3870  -14.4470   21.0350 O   0  0  0  0  0  0  0  0  0  0  0  0
  -22.6490  -11.8140   22.7260 H   0  0  0  0  0  0  0  0  0  0  0  0
  -21.3430  -12.9660   22.7170 H   0  0  0  0  0  0  0  0  0  0  0  0
  -25.3920  -15.0580   20.3760 N   0  0  0  0  0  0  0  0  0  0  0  0
  -24.6360  -15.6940   20.6140 H   0  0  0  0  0  0  0  0  0  0  0  0
  -26.1460  -15.5090   19.8760 H   0  0  0  0  0  0  0  0  0  0  0  0
  -32.1400  -19.0430   21.0100 C   0  0  0  0  0  1  0  0  0  0  0  0
  -32.3150  -16.6390   21.4440 C   0  0  0  0  0  1  0  0  0  0  0  0
  -30.5100  -17.9230   22.5510 C   0  0  0  0  0  1  0  0  0  0  0  0
  -31.2810  -17.7720   21.2240 C   0  0  2  0  0  0  0  0  0  0  0  0
  1  2  1  0
  1  3  1  0
  2  4  1  0
  3  5  1  0
  4  5  1  0
  4  8  1  0
  5  6  1  1
  8  7  1  0
  9 10  1  0
  9  8  1  0
 11 22  2  0
 12 10  1  0
 12 17  1  0
 13 21  1  0
 13 23  1  0
 14 20  1  0
 14 16  1  0
 15 21  1  0
 16 17  2  0
 16 15  1  0
 18 12  2  0
 19 18  1  0
 19 14  2  0
 20 13  1  0
 21 11  1  0
 23 25  2  0
 24 23  1  0
 26 24  1  0
 27 36  2  0
 27 32  1  0
 28 24  1  0
 28 32  1  0
 29 28  1  0
 30 31  1  0
 30 29  1  0
 31 27  1  0
 32 33  2  0
 33 34  1  0
 35 34  2  0
 36 35  1  0
 37 11  1  0
 37 38  1  0
 37 47  1  0
 38 41  1  0
 39 43  1  0
 39 38  1  0
 40 39  2  0
 43 42  1  0
 45 43  1  0
 45 46  1  0
 45 44  1  0
 47 50  1  1
 47 48  1  0
 49 47  1  0
 52  5  1  0
 52 53  1  0
 52 51  1  0
 53 62  1  0
 53 95  1  0
 54 60  1  0
 54 62  1  0
 55 60  1  0
 56 57  1  0
 56 55  1  0
 58 57  1  0
 58 67  1  0
 58 59  1  0
 60 59  1  0
 61 54  2  0
 62 63  1  0
 64 65  2  0
 65 84  1  0
 66 65  1  0
 66 69  1  0
 67 68  1  0
 67 64  1  0
 68 66  2  0
 69 70  1  0
 70 71  2  0
 72 75  1  0
 72 71  1  0
 73 72  2  0
 74 73  1  0
 74 69  2  0
 75 76  1  0
 76 77  1  0
 77 78  2  0
 79 78  1  0
 79 83  1  0
 80 79  2  0
 81 76  2  0
 81 80  1  0
 82 81  1  0
 84 85  1  0
 85 88  1  0
 85 87  1  0
 86 84  2  0
 89 64  1  0
 89 90  1  0
 91 89  1  0
 95 92  1  6
 95 93  1  0
 95 94  1  0
M  ISO  4   9 101  10 101  54 100  62 100
M  END
>  <TORSDO>  (87) 
F 21

>  <SCORE>  (87) 
-13.284

>  <name>  (87) 
88

>  <ligand_id>  (87) 
88

>  <original_smiles>  (87) 
[H]c1c([H])c([H])c2c(c1[H])C([H])([H])C([H])([H])C([H])([H])C2([H])N([H])C(=O)C1([H])N(C(=O)C([H])(N([H])C(=O)C([H])(N([H])C([H])([H])[H])C([H])([H])[H])C(C([H])([H])[H])(C([H])([H])[H])C([H])([H])[H])C([H])([H])c2c([H])c(OC([H])([H])C([H])(C([H])([H])[H])C3([H])C([H])([H])C([H])([H])C([H])([H])[N+]3([H])C([H])(C([H])([H])[H])C([H])(N([H])C(=O)N3C([H])([H])C([H])([H])C([H])([H])C([H])(n4nc(-c5c([H])c([H])c(Oc6c([H])c([H])c(F)c([H])c6F)c([H])c5[H])c(C(=O)N([H])[H])c4N([H])[H])C3([H])[H])C(C([H])([H])[H])(C([H])([H])[H])C([H])([H])[H])c([H])c([H])c2C1([H])[H]

>  <smiles>  (87) 
[H]c1c([H])c([H])c2c(c1[H])C([H])([H])C([H])([H])C([H])([H])C2([H])N([H])C(=O)C1([H])N(C(=O)C([H])(N([H])C(=O)C([H])(N([H])C([H])([H])[H])C([H])([H])[H])C(C([H])([H])[H])(C([H])([H])[H])C([H])([H])[H])C([H])([H])c2c([H])c(OC([H])([H])C([H])(C([H])([H])[H])C3([H])C([H])([H])C([H])([H])C([H])([H])[N+]3([H])C([H])(C([H])([H])[H])C([H])(N([H])C(=O)N3C([H])([H])C([H])([H])C([H])([H])C([H])(n4nc(-c5c([H])c([H])c(Oc6c([H])c([H])c(F)c([H])c6F)c([H])c5[H])c(C(=O)N([H])[H])c4N([H])[H])C3([H])[H])C(C([H])([H])[H])(C([H])([H])[H])C([H])([H])[H])c([H])c([H])c2C1([H])[H]

$$$$
89:0:0
     RDKit          3D

 89 96  0  0  1  0  0  0  0  0999 V2000
  -29.5540  -21.1330   19.8720 C   0  0  0  0  0  2  0  0  0  0  0  0
  -28.7270  -22.8140   17.9790 C   0  0  0  0  0  1  0  0  0  0  0  0
  -29.3120  -22.8350   19.3970 C   0  0  0  0  0  3  0  0  0  0  0  0
  -28.5400  -24.2000   20.2430 C   0  0  0  0  0  2  0  0  0  0  0  0
  -28.7080  -25.8200   20.2370 O   0  0  0  0  0  0  0  0  0  0  0  0
  -24.8150  -31.5540   23.1940 C   0  0  0  0  0  0  0  0  0  0  0  0
  -27.6360  -26.8400   20.2170 C   0  0  0  0  0  0  0  0  0  0  0  0
  -23.7290  -30.1570   21.4810 C   0  0  0  0  0  3  0  0  0  0  0  0
  -25.2790  -28.6160   20.1060 C   0  0  0  0  0  0  0  0  0  0  0  0
  -26.2900  -30.4520   21.4450 C   0  0  0  0  0  2  0  0  0  0  0  0
  -26.4270  -29.0590   20.7730 C   0  0  0  0  0  0  0  0  0  0  0  0
  -27.6060  -28.1940   20.7990 C   0  0  0  0  0  3  0  0  0  0  0  0
  -26.4530  -26.5300   19.5130 C   0  0  0  0  0  3  0  0  0  0  0  0
  -25.3110  -27.3690   19.4610 C   0  0  0  0  0  3  0  0  0  0  0  0
  -24.0340  -29.5000   20.1080 C   0  0  0  0  0  2  0  0  0  0  0  0
  -24.9630  -30.7470   22.0940 N   0  0  0  0  0  0  0  0  0  0  0  0
  -23.6970  -31.8050   23.6720 O   0  0  0  0  0  0  0  0  0  0  0  0
  -23.0220  -29.1250   22.4000 C   0  0  0  0  0  0  0  0  0  0  0  0
  -21.6980  -28.9520   22.2320 N   0  0  0  0  0  0  0  0  0  0  0  0
  -23.6720  -28.4830   23.2270 O   0  0  0  0  0  0  0  0  0  0  0  0
  -21.2280  -29.5210   21.5420 H   0  0  0  0  0  0  0  0  0  0  0  0
  -18.3110  -27.7190   22.6320 C   0  0  0  0  0  0  0  0  0  0  0  0
  -20.8640  -27.9860   22.9540 C   0  0  0  0  0  3  0  0  0  0  0  0
  -20.9820  -26.5750   22.3320 C   0  0  0  0  0  2  0  0  0  0  0  0
  -19.9020  -26.2830   21.2860 C   0  0  0  0  0  2  0  0  0  0  0  0
  -18.5070  -26.3980   21.9080 C   0  0  0  0  0  2  0  0  0  0  0  0
  -19.4170  -28.4730   23.1080 C   0  0  0  0  0  0  0  0  0  0  0  0
  -19.1780  -29.7090   23.7470 C   0  0  0  0  0  3  0  0  0  0  0  0
  -17.8660  -30.1930   23.9120 C   0  0  0  0  0  3  0  0  0  0  0  0
  -16.7750  -29.4370   23.4490 C   0  0  0  0  0  3  0  0  0  0  0  0
  -16.9970  -28.2020   22.8160 C   0  0  0  0  0  3  0  0  0  0  0  0
  -26.0400  -32.2150   23.8940 C   0  0  0  0  0  3  0  0  0  0  0  0
  -26.5170  -31.4330   25.1800 C   0  0  1  0  0  0  0  0  0  0  0  0
  -25.3770  -31.1160   26.1770 C   0  0  0  0  0  1  0  0  0  0  0  0
  -27.1860  -30.0940   24.7940 C   0  0  0  0  0  1  0  0  0  0  0  0
  -27.5890  -32.2600   25.9280 C   0  0  0  0  0  1  0  0  0  0  0  0
  -25.6680  -33.5950   24.2490 N   0  0  0  0  0  0  0  0  0  0  0  0
  -26.0180  -34.6880   23.5560 C   0  0  0  0  0  0  0  0  0  0  0  0
  -26.7500  -34.6390   22.5650 O   0  0  0  0  0  0  0  0  0  0  0  0
  -25.0230  -33.7030   25.0170 H   0  0  0  0  0  0  0  0  0  0  0  0
  -24.2790  -36.4660   23.1620 C   0  0  0  0  0  1  0  0  0  0  0  0
  -25.4700  -36.0480   24.0370 C   0  0  0  0  0  3  0  0  0  0  0  0
  -27.5210  -36.9410   25.0530 C   0  0  0  0  0  1  0  0  0  0  0  0
  -26.4860  -37.1240   24.0390 N   0  0  0  0  0  0  0  0  0  0  0  0
  -26.0500  -38.0300   24.1910 H   0  0  0  0  0  0  0  0  0  0  0  0
  -30.0490  -19.6310   19.0270 C   0  0  0  0  0  2  0  0  0  0  0  0
  -31.0150  -18.1910   19.5010 C   0  0  0  0  0  0  0  0  0  0  0  0
  -31.5560  -15.3160   19.2450 C   0  0  0  0  0  0  0  0  0  0  0  0
  -31.4100  -12.8160   18.5900 C   0  0  0  0  0  2  0  0  0  0  0  0
  -30.3800  -12.5300   17.4730 C   0  0  0  0  0  2  0  0  0  0  0  0
  -28.9670  -12.3520   18.0620 C   0  0  0  0  0  2  0  0  0  0  0  0
  -28.6350  -13.4270   19.1290 C   0  0  0  0  0  3  0  0  0  0  0  0
  -29.7830  -13.6410   20.1340 C   0  0  0  0  0  2  0  0  0  0  0  0
  -30.9550  -14.0370   19.3380 N   0  0  0  0  0  0  0  0  0  0  0  0
  -32.7730  -15.2830   19.0180 O   0  0  0  0  0  0  0  0  0  0  0  0
  -30.7990  -16.5770   19.1980 N   0  0  0  0  0  4  0  0  0  0  0  0
  -29.8140  -16.3660   19.1460 H   0  0  0  0  0  0  0  0  0  0  0  0
  -26.4290  -14.1410   20.1950 C   0  0  0  0  0  0  0  0  0  0  0  0
  -25.3490  -13.4360   20.6460 C   0  0  0  0  0  0  0  0  0  0  0  0
  -25.6800  -12.0550   20.4840 C   0  0  0  0  0  0  0  0  0  0  0  0
  -27.3510  -13.1970   19.7800 N   0  0  0  0  0  0  0  0  0  0  0  0
  -26.9200  -11.9310   20.0200 N   0  0  0  0  0  0  0  0  0  0  0  0
  -24.8630  -10.8510   20.6870 C   0  0  0  0  0  0  0  0  0  0  0  0
  -25.2260   -9.8640   21.6290 C   0  0  0  0  0  3  0  0  0  0  0  0
  -24.4130   -8.7260   21.8230 C   0  0  0  0  0  3  0  0  0  0  0  0
  -23.2210   -8.5680   21.0750 C   0  0  0  0  0  0  0  0  0  0  0  0
  -22.8760   -9.5440   20.1230 C   0  0  0  0  0  3  0  0  0  0  0  0
  -23.6890  -10.6730   19.9280 C   0  0  0  0  0  3  0  0  0  0  0  0
  -22.3840   -7.4830   21.1770 O   0  0  0  0  0  0  0  0  0  0  0  0
  -22.1760   -6.8450   22.3740 C   0  0  0  0  0  0  0  0  0  0  0  0
  -21.6700   -7.5260   23.5030 C   0  0  0  0  0  3  0  0  0  0  0  0
  -21.4040   -6.8180   24.6910 C   0  0  0  0  0  3  0  0  0  0  0  0
  -21.6340   -5.4300   24.7510 C   0  0  0  0  0  0  0  0  0  0  0  0
  -22.1330   -4.7500   23.6260 C   0  0  0  0  0  3  0  0  0  0  0  0
  -22.3990   -5.4560   22.4400 C   0  0  0  0  0  0  0  0  0  0  0  0
  -22.8600   -4.7910   21.3520 F   0  0  0  0  0  0  0  0  0  0  0  0
  -21.3720   -4.7470   25.8900 F   0  0  0  0  0  0  0  0  0  0  0  0
  -24.0390  -14.0140   21.1010 C   0  0  0  0  0  0  0  0  0  0  0  0
  -23.3740  -13.3590   22.0450 N   0  0  0  0  0  0  0  0  0  0  0  0
  -23.6230  -15.0810   20.6520 O   0  0  0  0  0  0  0  0  0  0  0  0
  -23.7250  -12.4940   22.4290 H   0  0  0  0  0  0  0  0  0  0  0  0
  -22.4980  -13.7280   22.3880 H   0  0  0  0  0  0  0  0  0  0  0  0
  -26.6930  -15.5030   20.0740 N   0  0  0  0  0  0  0  0  0  0  0  0
  -26.0050  -16.2020   20.3320 H   0  0  0  0  0  0  0  0  0  0  0  0
  -27.5250  -15.9000   19.6630 H   0  0  0  0  0  0  0  0  0  0  0  0
  -31.6400  -19.5860   21.6340 C   0  0  0  0  0  1  0  0  0  0  0  0
  -31.3520  -18.2040   21.0260 C   0  0  0  0  0  3  0  0  0  0  0  0
  -28.9320  -17.3500   21.5200 C   0  0  0  0  0  1  0  0  0  0  0  0
  -30.4120  -17.3600   21.9270 C   0  0  0  0  0  2  0  0  0  0  0  0
  3  2  1  0
  3  1  1  0
  3  4  1  0
  5  4  1  0
  6 17  2  0
  7  5  1  0
  7 12  1  0
  8 16  1  0
  8 18  1  0
  9 15  1  0
  9 11  1  0
 10 16  1  0
 11 12  2  0
 11 10  1  0
 13  7  2  0
 14 13  1  0
 14  9  2  0
 15  8  1  0
 16  6  1  0
 18 20  2  0
 19 18  1  0
 21 19  1  0
 22 31  2  0
 22 27  1  0
 23 19  1  0
 23 27  1  0
 24 23  1  0
 25 26  1  0
 25 24  1  0
 26 22  1  0
 27 28  2  0
 28 29  1  0
 30 29  2  0
 31 30  1  0
 32  6  1  0
 32 37  1  0
 32 33  1  0
 33 36  1  1
 33 34  1  0
 35 33  1  0
 37 40  1  0
 38 42  1  0
 38 37  1  0
 39 38  2  0
 42 41  1  0
 42 44  1  0
 44 45  1  0
 44 43  1  0
 46 47  1  0
 46  1  1  0
 47 87  1  0
 48 54  1  0
 49 54  1  0
 50 51  1  0
 50 49  1  0
 52 51  1  0
 52 61  1  0
 52 53  1  0
 54 53  1  0
 55 48  2  0
 56 48  1  0
 56 47  2  0
 57 56  1  0
 58 59  2  0
 59 78  1  0
 60 59  1  0
 60 63  1  0
 61 62  1  0
 61 58  1  0
 62 60  2  0
 63 64  1  0
 64 65  2  0
 66 69  1  0
 66 65  1  0
 67 66  2  0
 68 67  1  0
 68 63  2  0
 69 70  1  0
 70 75  2  0
 70 71  1  0
 71 72  2  0
 72 73  1  0
 73 77  1  0
 74 73  2  0
 75 74  1  0
 76 75  1  0
 78 79  1  0
 79 82  1  0
 79 81  1  0
 80 78  2  0
 83 58  1  0
 83 84  1  0
 85 83  1  0
 87 86  1  0
 87 89  1  0
 88 89  1  0
M  ISO  4   4 101   5 101  48 100  56 100
M  END
>  <TORSDO>  (88) 
F 22

>  <SCORE>  (88) 
-12.097

>  <name>  (88) 
89

>  <ligand_id>  (88) 
89

>  <original_smiles>  (88) 
[H]c1c([H])c([H])c2c(c1[H])C([H])([H])C([H])([H])C([H])([H])C2([H])N([H])C(=O)C1([H])N(C(=O)C([H])(N([H])C(=O)C([H])(N([H])C([H])([H])[H])C([H])([H])[H])C(C([H])([H])[H])(C([H])([H])[H])C([H])([H])[H])C([H])([H])c2c([H])c(OC([H])([H])C([H])(C([H])([H])[H])C([H])([H])C([H])([H])C([H])(N([H])C(=O)N3C([H])([H])C([H])([H])C([H])([H])C([H])(n4nc(-c5c([H])c([H])c(Oc6c([H])c([H])c(F)c([H])c6F)c([H])c5[H])c(C(=O)N([H])[H])c4N([H])[H])C3([H])[H])C([H])(C([H])([H])[H])C([H])([H])C([H])([H])[H])c([H])c([H])c2C1([H])[H]

>  <smiles>  (88) 
[H]c1c([H])c([H])c2c(c1[H])C([H])([H])C([H])([H])C([H])([H])C2([H])N([H])C(=O)C1([H])N(C(=O)C([H])(N([H])C(=O)C([H])(N([H])C([H])([H])[H])C([H])([H])[H])C(C([H])([H])[H])(C([H])([H])[H])C([H])([H])[H])C([H])([H])c2c([H])c(OC([H])([H])C([H])(C([H])([H])[H])C([H])([H])C([H])([H])C([H])(N([H])C(=O)N3C([H])([H])C([H])([H])C([H])([H])C([H])(n4nc(-c5c([H])c([H])c(Oc6c([H])c([H])c(F)c([H])c6F)c([H])c5[H])c(C(=O)N([H])[H])c4N([H])[H])C3([H])[H])C([H])(C([H])([H])[H])C([H])([H])C([H])([H])[H])c([H])c([H])c2C1([H])[H]

$$$$
90:0:0
     RDKit          3D

 90 97  0  0  1  0  0  0  0  0999 V2000
  -28.6530  -21.2490   20.0800 C   0  0  0  0  0  2  0  0  0  0  0  0
  -28.8440  -22.9440   20.4800 C   0  0  0  0  0  0  0  0  0  0  0  0
  -29.7420  -23.1950   21.2880 O   0  0  0  0  0  0  0  0  0  0  0  0
  -27.9260  -24.3390   19.9870 C   0  0  0  0  0  2  0  0  0  0  0  0
  -28.1820  -25.9160   20.3530 O   0  0  0  0  0  0  0  0  0  0  0  0
  -24.6440  -31.8960   23.2650 C   0  0  0  0  0  0  0  0  0  0  0  0
  -27.1830  -27.0120   20.2700 C   0  0  0  0  0  0  0  0  0  0  0  0
  -23.4450  -30.5000   21.6300 C   0  0  0  0  0  3  0  0  0  0  0  0
  -24.8860  -28.8820   20.2190 C   0  0  0  0  0  0  0  0  0  0  0  0
  -26.0110  -30.7020   21.4850 C   0  0  0  0  0  2  0  0  0  0  0  0
  -26.0770  -29.2900   20.8370 C   0  0  0  0  0  0  0  0  0  0  0  0
  -27.2180  -28.3730   20.8430 C   0  0  0  0  0  3  0  0  0  0  0  0
  -25.9660  -26.7510   19.6000 C   0  0  0  0  0  3  0  0  0  0  0  0
  -24.8560  -27.6300   19.5850 C   0  0  0  0  0  3  0  0  0  0  0  0
  -23.6730  -29.8100   20.2580 C   0  0  0  0  0  2  0  0  0  0  0  0
  -24.7220  -31.0590   22.1800 N   0  0  0  0  0  0  0  0  0  0  0  0
  -23.5550  -32.1940   23.7810 O   0  0  0  0  0  0  0  0  0  0  0  0
  -22.7430  -29.5120   22.5990 C   0  0  0  0  0  0  0  0  0  0  0  0
  -21.4130  -29.3510   22.4690 N   0  0  0  0  0  0  0  0  0  0  0  0
  -23.4020  -28.8870   23.4340 O   0  0  0  0  0  0  0  0  0  0  0  0
  -20.9320  -29.9080   21.7770 H   0  0  0  0  0  0  0  0  0  0  0  0
  -18.0230  -28.1600   22.9680 C   0  0  0  0  0  0  0  0  0  0  0  0
  -20.5830  -28.4220   23.2420 C   0  0  0  0  0  3  0  0  0  0  0  0
  -20.6830  -26.9850   22.6790 C   0  0  0  0  0  2  0  0  0  0  0  0
  -19.5860  -26.6570   21.6620 C   0  0  0  0  0  2  0  0  0  0  0  0
  -18.2020  -26.8070   22.2970 C   0  0  0  0  0  2  0  0  0  0  0  0
  -19.1420  -28.9260   23.3960 C   0  0  0  0  0  0  0  0  0  0  0  0
  -18.9200  -30.1890   23.9860 C   0  0  0  0  0  3  0  0  0  0  0  0
  -17.6140  -30.6900   24.1460 C   0  0  0  0  0  3  0  0  0  0  0  0
  -16.5110  -29.9240   23.7300 C   0  0  0  0  0  3  0  0  0  0  0  0
  -16.7160  -28.6600   23.1490 C   0  0  0  0  0  3  0  0  0  0  0  0
  -25.9180  -32.5330   23.8980 C   0  0  0  0  0  3  0  0  0  0  0  0
  -25.6140  -33.9400   24.2120 N   0  0  0  0  0  0  0  0  0  0  0  0
  -25.9520  -34.9870   23.4480 C   0  0  0  0  0  0  0  0  0  0  0  0
  -26.6160  -34.8710   22.4160 O   0  0  0  0  0  0  0  0  0  0  0  0
  -25.0240  -34.1050   25.0150 H   0  0  0  0  0  0  0  0  0  0  0  0
  -24.2380  -36.7990   23.0950 C   0  0  0  0  0  1  0  0  0  0  0  0
  -25.4810  -36.3870   23.9000 C   0  0  0  0  0  3  0  0  0  0  0  0
  -27.6290  -37.2660   24.7090 C   0  0  0  0  0  1  0  0  0  0  0  0
  -26.5230  -37.4290   23.7670 N   0  0  0  0  0  0  0  0  0  0  0  0
  -26.1250  -38.3550   23.9030 H   0  0  0  0  0  0  0  0  0  0  0  0
  -26.4070  -31.7790   25.1960 C   0  0  1  0  0  0  0  0  0  0  0  0
  -25.2950  -31.5710   26.2520 C   0  0  0  0  0  1  0  0  0  0  0  0
  -26.9790  -30.3880   24.8430 C   0  0  0  0  0  1  0  0  0  0  0  0
  -27.5580  -32.5720   25.8610 C   0  0  0  0  0  1  0  0  0  0  0  0
  -29.6700  -19.7630   20.2910 C   0  0  0  0  0  3  0  0  0  0  0  0
  -31.7670  -21.2660   19.9490 C   0  0  0  0  0  1  0  0  0  0  0  0
  -31.9930  -18.8210   19.7140 C   0  0  0  0  0  1  0  0  0  0  0  0
  -31.0130  -19.9970   19.4850 C   0  0  1  0  0  0  0  0  0  0  0  0
  -31.8660  -20.0950   16.9860 C   0  0  0  0  0  1  0  0  0  0  0  0
  -30.6840  -20.1580   17.9670 C   0  0  0  0  0  2  0  0  0  0  0  0
  -29.2010  -18.0430   20.0050 C   0  0  0  0  0  2  0  0  0  0  0  0
  -30.4090  -15.2780   20.2190 C   0  0  0  0  0  0  0  0  0  0  0  0
  -30.4020  -12.8290   19.3810 C   0  0  0  0  0  2  0  0  0  0  0  0
  -29.4710  -12.6670   18.1520 C   0  0  0  0  0  2  0  0  0  0  0  0
  -28.0220  -12.4030   18.5960 C   0  0  0  0  0  2  0  0  0  0  0  0
  -27.5910  -13.3430   19.7490 C   0  0  0  0  0  3  0  0  0  0  0  0
  -28.6520  -13.4580   20.8650 C   0  0  0  0  0  2  0  0  0  0  0  0
  -29.8860  -13.9570   20.2390 N   0  0  0  0  0  0  0  0  0  0  0  0
  -31.5840  -15.3300   19.8350 O   0  0  0  0  0  0  0  0  0  0  0  0
  -29.6050  -16.4860   20.4910 N   0  0  0  0  0  0  0  0  0  0  0  0
  -28.7910  -16.1240   20.9680 H   0  0  0  0  0  0  0  0  0  0  0  0
  -25.2270  -13.8830   20.5440 C   0  0  0  0  0  0  0  0  0  0  0  0
  -24.1750  -13.0970   20.9220 C   0  0  0  0  0  0  0  0  0  0  0  0
  -24.6470  -11.7490   20.8690 C   0  0  0  0  0  0  0  0  0  0  0  0
  -26.2690  -13.0150   20.2690 N   0  0  0  0  0  0  0  0  0  0  0  0
  -25.9340  -11.7250   20.5360 N   0  0  0  0  0  0  0  0  0  0  0  0
  -23.9290  -10.4820   21.0580 C   0  0  0  0  0  0  0  0  0  0  0  0
  -24.3810   -9.5040   21.9730 C   0  0  0  0  0  3  0  0  0  0  0  0
  -23.6570   -8.3050   22.1520 C   0  0  0  0  0  3  0  0  0  0  0  0
  -22.4700   -8.0740   21.4180 C   0  0  0  0  0  0  0  0  0  0  0  0
  -22.0390   -9.0390   20.4930 C   0  0  0  0  0  3  0  0  0  0  0  0
  -22.7610  -10.2300   20.3090 C   0  0  0  0  0  3  0  0  0  0  0  0
  -21.7170   -6.9260   21.5070 O   0  0  0  0  0  0  0  0  0  0  0  0
  -21.6890   -6.1720   22.6500 C   0  0  0  0  0  0  0  0  0  0  0  0
  -21.2680   -6.7090   23.8870 C   0  0  0  0  0  3  0  0  0  0  0  0
  -21.1870   -5.8810   25.0250 C   0  0  0  0  0  3  0  0  0  0  0  0
  -21.5170   -4.5160   24.9260 C   0  0  0  0  0  0  0  0  0  0  0  0
  -21.9340   -3.9780   23.6940 C   0  0  0  0  0  3  0  0  0  0  0  0
  -22.0170   -4.8030   22.5610 C   0  0  0  0  0  0  0  0  0  0  0  0
  -22.3960   -4.2760   21.3710 F   0  0  0  0  0  0  0  0  0  0  0  0
  -21.4360   -3.7160   26.0160 F   0  0  0  0  0  0  0  0  0  0  0  0
  -22.7810  -13.5640   21.2170 C   0  0  0  0  0  0  0  0  0  0  0  0
  -22.0690  -12.8590   22.0870 N   0  0  0  0  0  0  0  0  0  0  0  0
  -22.3310  -14.5930   20.7090 O   0  0  0  0  0  0  0  0  0  0  0  0
  -22.4510  -12.0310   22.5210 H   0  0  0  0  0  0  0  0  0  0  0  0
  -21.1300  -13.1500   22.3240 H   0  0  0  0  0  0  0  0  0  0  0  0
  -25.3800  -15.2560   20.3820 N   0  0  0  0  0  0  0  0  0  0  0  0
  -24.6130  -15.9000   20.5410 H   0  0  0  0  0  0  0  0  0  0  0  0
  -26.2020  -15.7040   20.0000 H   0  0  0  0  0  0  0  0  0  0  0  0
  1 46  1  0
  1  2  1  0
  2  3  2  0
  4  5  1  0
  4  2  1  0
  6 17  2  0
  7  5  1  0
  7 12  1  0
  8 16  1  0
  8 18  1  0
  9 15  1  0
  9 11  1  0
 10 16  1  0
 11 12  2  0
 11 10  1  0
 13  7  2  0
 14 13  1  0
 14  9  2  0
 15  8  1  0
 16  6  1  0
 18 20  2  0
 19 18  1  0
 21 19  1  0
 22 31  2  0
 22 27  1  0
 23 19  1  0
 23 27  1  0
 24 23  1  0
 25 26  1  0
 25 24  1  0
 26 22  1  0
 27 28  2  0
 28 29  1  0
 30 29  2  0
 31 30  1  0
 32  6  1  0
 32 33  1  0
 32 42  1  0
 33 36  1  0
 34 38  1  0
 34 33  1  0
 35 34  2  0
 38 37  1  0
 40 38  1  0
 40 41  1  0
 40 39  1  0
 42 45  1  1
 42 43  1  0
 44 42  1  0
 46 52  1  0
 49 48  1  6
 49 47  1  0
 49 46  1  0
 50 51  1  0
 51 49  1  0
 52 61  1  0
 53 59  1  0
 53 61  1  0
 54 59  1  0
 55 56  1  0
 55 54  1  0
 57 56  1  0
 57 66  1  0
 57 58  1  0
 59 58  1  0
 60 53  2  0
 61 62  1  0
 63 64  2  0
 64 83  1  0
 65 64  1  0
 65 68  1  0
 66 67  1  0
 66 63  1  0
 67 65  2  0
 68 69  1  0
 69 70  2  0
 71 74  1  0
 71 70  1  0
 72 71  2  0
 73 72  1  0
 73 68  2  0
 74 75  1  0
 75 76  1  0
 76 77  2  0
 78 77  1  0
 78 82  1  0
 79 78  2  0
 80 75  2  0
 80 79  1  0
 81 80  1  0
 83 84  1  0
 84 87  1  0
 84 86  1  0
 85 83  2  0
 88 89  1  0
 88 63  1  0
 90 88  1  0
M  ISO  4   4 101   5 101  53 100  61 100
M  END
>  <TORSDO>  (89) 
F 22

>  <SCORE>  (89) 
-15.495

>  <name>  (89) 
90

>  <ligand_id>  (89) 
90

>  <original_smiles>  (89) 
[H]c1c([H])c([H])c2c(c1[H])C([H])([H])C([H])([H])C([H])([H])C2([H])N([H])C(=O)C1([H])N(C(=O)C([H])(N([H])C(=O)C([H])(N([H])C([H])([H])[H])C([H])([H])[H])C(C([H])([H])[H])(C([H])([H])[H])C([H])([H])[H])C([H])([H])c2c([H])c(OC([H])([H])C(=O)C([H])([H])C([H])(C([H])([H])N([H])C(=O)N3C([H])([H])C([H])([H])C([H])([H])C([H])(n4nc(-c5c([H])c([H])c(Oc6c([H])c([H])c(F)c([H])c6F)c([H])c5[H])c(C(=O)N([H])[H])c4N([H])[H])C3([H])[H])C(C([H])([H])[H])(C([H])([H])[H])C([H])([H])C([H])([H])[H])c([H])c([H])c2C1([H])[H]

>  <smiles>  (89) 
[H]c1c([H])c([H])c2c(c1[H])C([H])([H])C([H])([H])C([H])([H])C2([H])N([H])C(=O)C1([H])N(C(=O)C([H])(N([H])C(=O)C([H])(N([H])C([H])([H])[H])C([H])([H])[H])C(C([H])([H])[H])(C([H])([H])[H])C([H])([H])[H])C([H])([H])c2c([H])c(OC([H])([H])C(=O)C([H])([H])C([H])(C([H])([H])N([H])C(=O)N3C([H])([H])C([H])([H])C([H])([H])C([H])(n4nc(-c5c([H])c([H])c(Oc6c([H])c([H])c(F)c([H])c6F)c([H])c5[H])c(C(=O)N([H])[H])c4N([H])[H])C3([H])[H])C(C([H])([H])[H])(C([H])([H])[H])C([H])([H])C([H])([H])[H])c([H])c([H])c2C1([H])[H]

$$$$
91:0:0
     RDKit          3D

 88 95  0  0  1  0  0  0  0  0999 V2000
  -29.2970  -21.2900   20.4200 C   0  0  0  0  0  3  0  0  0  0  0  0
  -28.4310  -22.9480   18.4890 C   0  0  0  0  0  1  0  0  0  0  0  0
  -28.3960  -22.7840   20.0130 C   0  0  0  0  0  3  0  0  0  0  0  0
  -28.3600  -24.4310   20.7100 C   0  0  0  0  0  2  0  0  0  0  0  0
  -28.3180  -25.9880   20.2180 O   0  0  0  0  0  0  0  0  0  0  0  0
  -24.6490  -31.8710   23.2270 C   0  0  0  0  0  0  0  0  0  0  0  0
  -27.2460  -27.0080   20.2730 C   0  0  0  0  0  0  0  0  0  0  0  0
  -23.4670  -30.4580   21.5920 C   0  0  0  0  0  3  0  0  0  0  0  0
  -24.9280  -28.8450   20.2010 C   0  0  0  0  0  0  0  0  0  0  0  0
  -26.0290  -30.6880   21.4570 C   0  0  0  0  0  2  0  0  0  0  0  0
  -26.1100  -29.2720   20.8210 C   0  0  0  0  0  0  0  0  0  0  0  0
  -27.2660  -28.3740   20.8280 C   0  0  0  0  0  3  0  0  0  0  0  0
  -26.0310  -26.7120   19.6210 C   0  0  0  0  0  3  0  0  0  0  0  0
  -24.9090  -27.5820   19.5850 C   0  0  0  0  0  3  0  0  0  0  0  0
  -23.7080  -29.7630   20.2240 C   0  0  0  0  0  2  0  0  0  0  0  0
  -24.7360  -31.0310   22.1460 N   0  0  0  0  0  0  0  0  0  0  0  0
  -23.5560  -32.1630   23.7410 O   0  0  0  0  0  0  0  0  0  0  0  0
  -22.7710  -29.4680   22.5610 C   0  0  0  0  0  0  0  0  0  0  0  0
  -21.4410  -29.3030   22.4330 N   0  0  0  0  0  0  0  0  0  0  0  0
  -23.4340  -28.8470   23.3960 O   0  0  0  0  0  0  0  0  0  0  0  0
  -20.9580  -29.8520   21.7350 H   0  0  0  0  0  0  0  0  0  0  0  0
  -18.0580  -28.1050   22.9370 C   0  0  0  0  0  0  0  0  0  0  0  0
  -20.6170  -28.3700   23.2070 C   0  0  0  0  0  3  0  0  0  0  0  0
  -20.7220  -26.9370   22.6360 C   0  0  0  0  0  2  0  0  0  0  0  0
  -19.6230  -26.6100   21.6210 C   0  0  0  0  0  2  0  0  0  0  0  0
  -18.2390  -26.7550   22.2630 C   0  0  0  0  0  2  0  0  0  0  0  0
  -19.1750  -28.8700   23.3650 C   0  0  0  0  0  0  0  0  0  0  0  0
  -18.9540  -30.1310   23.9600 C   0  0  0  0  0  3  0  0  0  0  0  0
  -17.6480  -30.6280   24.1300 C   0  0  0  0  0  3  0  0  0  0  0  0
  -16.5450  -29.8620   23.7170 C   0  0  0  0  0  3  0  0  0  0  0  0
  -16.7520  -28.6030   23.1250 C   0  0  0  0  0  3  0  0  0  0  0  0
  -25.9160  -32.5190   23.8620 C   0  0  0  0  0  3  0  0  0  0  0  0
  -25.5960  -33.9210   24.1830 N   0  0  0  0  0  0  0  0  0  0  0  0
  -25.9270  -34.9760   23.4270 C   0  0  0  0  0  0  0  0  0  0  0  0
  -26.6000  -34.8740   22.3990 O   0  0  0  0  0  0  0  0  0  0  0  0
  -24.9970  -34.0740   24.9820 H   0  0  0  0  0  0  0  0  0  0  0  0
  -24.1960  -36.7710   23.0780 C   0  0  0  0  0  1  0  0  0  0  0  0
  -25.4390  -36.3660   23.8860 C   0  0  0  0  0  3  0  0  0  0  0  0
  -27.5720  -37.2630   24.7130 C   0  0  0  0  0  1  0  0  0  0  0  0
  -26.4690  -37.4220   23.7700 N   0  0  0  0  0  0  0  0  0  0  0  0
  -26.0580  -38.3410   23.9150 H   0  0  0  0  0  0  0  0  0  0  0  0
  -26.4160  -31.7650   25.1570 C   0  0  1  0  0  0  0  0  0  0  0  0
  -25.3100  -31.5410   26.2120 C   0  0  0  0  0  1  0  0  0  0  0  0
  -27.0040  -30.3800   24.7980 C   0  0  0  0  0  1  0  0  0  0  0  0
  -27.5580  -32.5670   25.8230 C   0  0  0  0  0  1  0  0  0  0  0  0
  -28.9690  -19.5360   20.2320 C   0  0  0  0  0  3  0  0  0  0  0  0
  -30.0270  -18.0940   20.2220 C   0  0  0  0  0  0  0  0  0  0  0  0
  -30.4130  -15.2290   20.1060 C   0  0  0  0  0  0  0  0  0  0  0  0
  -30.3290  -12.8250   19.1690 C   0  0  0  0  0  2  0  0  0  0  0  0
  -29.3580  -12.6780   17.9730 C   0  0  0  0  0  2  0  0  0  0  0  0
  -27.9280  -12.4050   18.4640 C   0  0  0  0  0  2  0  0  0  0  0  0
  -27.5260  -13.3420   19.6280 C   0  0  0  0  0  3  0  0  0  0  0  0
  -28.6160  -13.4520   20.7140 C   0  0  0  0  0  2  0  0  0  0  0  0
  -29.8290  -13.9400   20.0460 N   0  0  0  0  0  0  0  0  0  0  0  0
  -31.6240  -15.2360   19.8540 O   0  0  0  0  0  0  0  0  0  0  0  0
  -29.6520  -16.4820   20.1990 N   0  0  0  0  0  4  0  0  0  0  0  0
  -28.6730  -16.3010   20.3590 H   0  0  0  0  0  0  0  0  0  0  0  0
  -25.1720  -13.8830   20.4500 C   0  0  0  0  0  0  0  0  0  0  0  0
  -24.1250  -13.0930   20.8410 C   0  0  0  0  0  0  0  0  0  0  0  0
  -24.6040  -11.7480   20.7900 C   0  0  0  0  0  0  0  0  0  0  0  0
  -26.2150  -13.0180   20.1730 N   0  0  0  0  0  0  0  0  0  0  0  0
  -25.8860  -11.7260   20.4430 N   0  0  0  0  0  0  0  0  0  0  0  0
  -23.8960  -10.4750   20.9930 C   0  0  0  0  0  0  0  0  0  0  0  0
  -24.3560   -9.5080   21.9130 C   0  0  0  0  0  3  0  0  0  0  0  0
  -23.6410   -8.3050   22.1040 C   0  0  0  0  0  3  0  0  0  0  0  0
  -22.4540   -8.0610   21.3740 C   0  0  0  0  0  0  0  0  0  0  0  0
  -22.0140   -9.0170   20.4410 C   0  0  0  0  0  3  0  0  0  0  0  0
  -22.7300  -10.2110   20.2490 C   0  0  0  0  0  3  0  0  0  0  0  0
  -21.7080   -6.9110   21.4730 O   0  0  0  0  0  0  0  0  0  0  0  0
  -21.6830   -6.1680   22.6260 C   0  0  0  0  0  0  0  0  0  0  0  0
  -21.2660   -6.7190   23.8580 C   0  0  0  0  0  3  0  0  0  0  0  0
  -21.1880   -5.9010   25.0040 C   0  0  0  0  0  3  0  0  0  0  0  0
  -21.5180   -4.5350   24.9200 C   0  0  0  0  0  0  0  0  0  0  0  0
  -21.9300   -3.9840   23.6940 C   0  0  0  0  0  3  0  0  0  0  0  0
  -22.0070   -4.7970   22.5500 C   0  0  0  0  0  0  0  0  0  0  0  0
  -22.3830   -4.2560   21.3660 F   0  0  0  0  0  0  0  0  0  0  0  0
  -21.4380   -3.7500   26.0200 F   0  0  0  0  0  0  0  0  0  0  0  0
  -22.7320  -13.5540   21.1480 C   0  0  0  0  0  0  0  0  0  0  0  0
  -22.0330  -12.8480   22.0310 N   0  0  0  0  0  0  0  0  0  0  0  0
  -22.2720  -14.5780   20.6430 O   0  0  0  0  0  0  0  0  0  0  0  0
  -22.4200  -12.0220   22.4620 H   0  0  0  0  0  0  0  0  0  0  0  0
  -21.1000  -13.1420   22.2800 H   0  0  0  0  0  0  0  0  0  0  0  0
  -25.3170  -15.2590   20.2800 N   0  0  0  0  0  0  0  0  0  0  0  0
  -24.5550  -15.9140   20.4240 H   0  0  0  0  0  0  0  0  0  0  0  0
  -26.1600  -15.7080   19.9490 H   0  0  0  0  0  0  0  0  0  0  0  0
  -31.1120  -18.2640   21.2850 C   0  0  0  0  0  0  0  0  0  0  0  0
  -30.9160  -17.7780   22.4180 O   0  0  0  0  0  1  0  0  0  0  0  0
  -32.1510  -18.8830   20.9800 O   0  0  0  0  0  0  0  0  0  0  0  0
  3  2  1  0
  3  1  1  0
  3  4  1  0
  5  7  1  0
  5  4  1  0
  6 17  2  0
  7 12  1  0
  8 16  1  0
  8 18  1  0
  9 15  1  0
  9 11  1  0
 10 16  1  0
 11 12  2  0
 11 10  1  0
 13  7  2  0
 14 13  1  0
 14  9  2  0
 15  8  1  0
 16  6  1  0
 18 20  2  0
 19 18  1  0
 21 19  1  0
 22 31  2  0
 22 27  1  0
 23 19  1  0
 23 27  1  0
 24 23  1  0
 25 26  1  0
 25 24  1  0
 26 22  1  0
 27 28  2  0
 28 29  1  0
 30 29  2  0
 31 30  1  0
 32  6  1  0
 32 33  1  0
 32 42  1  0
 33 36  1  0
 34 38  1  0
 34 33  1  0
 35 34  2  0
 38 37  1  0
 40 38  1  0
 40 41  1  0
 40 39  1  0
 42 45  1  1
 42 43  1  0
 44 42  1  0
 46  1  2  0
 47 46  1  0
 47 86  1  0
 48 56  1  0
 49 54  1  0
 50 51  1  0
 50 49  1  0
 52 51  1  0
 52 61  1  0
 52 53  1  0
 54 48  1  0
 54 53  1  0
 55 48  2  0
 56 47  2  0
 56 57  1  0
 58 59  2  0
 59 78  1  0
 60 59  1  0
 60 63  1  0
 61 62  1  0
 61 58  1  0
 62 60  2  0
 63 64  1  0
 64 65  2  0
 66 69  1  0
 66 65  1  0
 67 66  2  0
 68 67  1  0
 68 63  2  0
 69 70  1  0
 70 71  1  0
 71 72  2  0
 73 72  1  0
 73 77  1  0
 74 73  2  0
 75 70  2  0
 75 74  1  0
 76 75  1  0
 78 79  1  0
 79 82  1  0
 79 81  1  0
 80 78  2  0
 83 84  1  0
 83 58  1  0
 85 83  1  0
 86 87  1  0
 88 86  2  0
M  ISO  4   4 101   5 101  48 100  56 100
M  END
>  <TORSDO>  (90) 
F 21

>  <SCORE>  (90) 
-15.271

>  <name>  (90) 
91

>  <ligand_id>  (90) 
91

>  <original_smiles>  (90) 
[H]c1c([H])c([H])c2c(c1[H])C([H])([H])C([H])([H])C([H])([H])C2([H])N([H])C(=O)C1([H])N(C(=O)C([H])(N([H])C(=O)C([H])(N([H])C([H])([H])[H])C([H])([H])[H])C(C([H])([H])[H])(C([H])([H])[H])C([H])([H])[H])C([H])([H])c2c([H])c(OC([H])([H])C([H])(C([H])([H])[H])C([H])([H])C([H])([H])C([H])(C(=O)[O-])N([H])C(=O)N3C([H])([H])C([H])([H])C([H])([H])C([H])(n4nc(-c5c([H])c([H])c(Oc6c([H])c([H])c(F)c([H])c6F)c([H])c5[H])c(C(=O)N([H])[H])c4N([H])[H])C3([H])[H])c([H])c([H])c2C1([H])[H]

>  <smiles>  (90) 
[H]c1c([H])c([H])c2c(c1[H])C([H])([H])C([H])([H])C([H])([H])C2([H])N([H])C(=O)C1([H])N(C(=O)C([H])(N([H])C(=O)C([H])(N([H])C([H])([H])[H])C([H])([H])[H])C(C([H])([H])[H])(C([H])([H])[H])C([H])([H])[H])C([H])([H])c2c([H])c(OC([H])([H])C([H])(C([H])([H])[H])C([H])([H])C([H])([H])C([H])(C(=O)[O-])N([H])C(=O)N3C([H])([H])C([H])([H])C([H])([H])C([H])(n4nc(-c5c([H])c([H])c(Oc6c([H])c([H])c(F)c([H])c6F)c([H])c5[H])c(C(=O)N([H])[H])c4N([H])[H])C3([H])[H])c([H])c([H])c2C1([H])[H]

$$$$
92:0:0
     RDKit          3D

 85 90  0  0  1  0  0  0  0  0999 V2000
  -30.4710  -16.1910   19.8710 C   0  0  0  0  0  0  0  0  0  0  0  0
  -30.6390  -13.4650   19.3430 C   0  0  0  0  0  2  0  0  0  0  0  0
  -29.8240  -12.7790   18.1950 C   0  0  0  0  0  2  0  0  0  0  0  0
  -28.4130  -12.3990   18.6540 C   0  0  0  0  0  2  0  0  0  0  0  0
  -27.8340  -13.5090   19.5520 C   0  0  0  0  0  3  0  0  0  0  0  0
  -28.8130  -14.0860   20.6210 C   0  0  0  0  0  2  0  0  0  0  0  0
  -29.9590  -14.7580   19.9240 N   0  0  0  0  0  0  0  0  0  0  0  0
  -31.6870  -16.0000   19.6120 O   0  0  0  0  0  0  0  0  0  0  0  0
  -28.1420  -19.4280   21.1930 C   0  0  0  0  0  2  0  0  0  0  0  0
  -28.7090  -20.9250   21.0480 C   0  0  0  0  0  2  0  0  0  0  0  0
  -29.0560  -18.0970   21.1550 C   0  0  0  0  0  2  0  0  0  0  0  0
  -29.8190  -19.4470   19.1860 C   0  0  0  0  0  1  0  0  0  0  0  0
  -29.4120  -21.3870   19.7010 C   0  0  0  0  0  2  0  0  0  0  0  0
  -30.8590  -21.8420   20.0750 C   0  0  0  0  0  1  0  0  0  0  0  0
  -29.8070  -17.7240   19.9020 N   0  0  0  0  0  0  0  0  0  0  0  0
  -25.5090  -14.1020   20.3500 C   0  0  0  0  0  0  0  0  0  0  0  0
  -24.4160  -13.3620   20.7090 C   0  0  0  0  0  0  0  0  0  0  0  0
  -24.8200  -11.9940   20.6400 C   0  0  0  0  0  0  0  0  0  0  0  0
  -26.5120  -13.1930   20.0820 N   0  0  0  0  0  0  0  0  0  0  0  0
  -26.1120  -11.9110   20.3170 N   0  0  0  0  0  0  0  0  0  0  0  0
  -24.0290  -10.7640   20.8150 C   0  0  0  0  0  0  0  0  0  0  0  0
  -24.4200   -9.7460   21.7120 C   0  0  0  0  0  3  0  0  0  0  0  0
  -23.6260   -8.5890   21.8760 C   0  0  0  0  0  3  0  0  0  0  0  0
  -22.4220   -8.4440   21.1480 C   0  0  0  0  0  0  0  0  0  0  0  0
  -22.0480   -9.4470   20.2370 C   0  0  0  0  0  3  0  0  0  0  0  0
  -22.8430  -10.5930   20.0710 C   0  0  0  0  0  3  0  0  0  0  0  0
  -21.6000   -7.3440   21.2240 O   0  0  0  0  0  0  0  0  0  0  0  0
  -21.5410   -6.5620   22.3520 C   0  0  0  0  0  0  0  0  0  0  0  0
  -21.1800   -7.0900   23.6090 C   0  0  0  0  0  3  0  0  0  0  0  0
  -21.0740   -6.2390   24.7270 C   0  0  0  0  0  3  0  0  0  0  0  0
  -21.3150   -4.8590   24.5880 C   0  0  0  0  0  0  0  0  0  0  0  0
  -21.6670   -4.3300   23.3340 C   0  0  0  0  0  3  0  0  0  0  0  0
  -21.7780   -5.1780   22.2180 C   0  0  0  0  0  0  0  0  0  0  0  0
  -22.1000   -4.6590   21.0080 F   0  0  0  0  0  0  0  0  0  0  0  0
  -21.2010   -4.0390   25.6580 F   0  0  0  0  0  0  0  0  0  0  0  0
  -23.0480  -13.9030   20.9940 C   0  0  0  0  0  0  0  0  0  0  0  0
  -22.2900  -13.2350   21.8600 N   0  0  0  0  0  0  0  0  0  0  0  0
  -22.6580  -14.9510   20.4830 O   0  0  0  0  0  0  0  0  0  0  0  0
  -22.6230  -12.3960   22.3110 H   0  0  0  0  0  0  0  0  0  0  0  0
  -21.3640  -13.5760   22.0780 H   0  0  0  0  0  0  0  0  0  0  0  0
  -25.7320  -15.4690   20.2010 N   0  0  0  0  0  0  0  0  0  0  0  0
  -25.0040  -16.1580   20.3520 H   0  0  0  0  0  0  0  0  0  0  0  0
  -26.6060  -15.8740   19.8870 H   0  0  0  0  0  0  0  0  0  0  0  0
  -28.6640  -23.2790   19.0260 C   0  0  0  0  0 15  0  0  0  0  0  0
  -28.5050  -25.1850   19.2050 O   0  0  0  0  0  1  0  0  0  0  0  0
  -24.6580  -31.3890   22.5620 C   0  0  0  0  0  0  0  0  0  0  0  0
  -27.4440  -26.4410   19.2200 C   0  0  0  0  0  0  0  0  0  0  0  0
  -23.5100  -29.9690   20.9200 C   0  0  0  0  0  3  0  0  0  0  0  0
  -25.0150  -28.4600   19.3620 C   0  0  0  0  0  0  0  0  0  0  0  0
  -26.0760  -30.2530   20.6980 C   0  0  0  0  0  2  0  0  0  0  0  0
  -26.2220  -28.8320   19.9680 C   0  0  0  0  0  0  0  0  0  0  0  0
  -27.3930  -27.8610   19.8610 C   0  0  0  0  0  3  0  0  0  0  0  0
  -26.1750  -26.3580   18.5590 C   0  0  0  0  0  3  0  0  0  0  0  0
  -25.0470  -27.2590   18.6250 C   0  0  0  0  0  3  0  0  0  0  0  0
  -23.7450  -29.3360   19.5140 C   0  0  0  0  0  2  0  0  0  0  0  0
  -24.7760  -30.5790   21.4450 N   0  0  0  0  0  0  0  0  0  0  0  0
  -23.5680  -31.5860   23.1310 O   0  0  0  0  0  0  0  0  0  0  0  0
  -22.8980  -28.9180   21.8890 C   0  0  0  0  0  0  0  0  0  0  0  0
  -21.5650  -28.7150   21.8640 N   0  0  0  0  0  0  0  0  0  0  0  0
  -23.6410  -28.2780   22.6390 O   0  0  0  0  0  0  0  0  0  0  0  0
  -21.0070  -29.2810   21.2400 H   0  0  0  0  0  0  0  0  0  0  0  0
  -18.2850  -27.3360   22.6360 C   0  0  0  0  0  0  0  0  0  0  0  0
  -20.8500  -27.6880   22.6350 C   0  0  0  0  0  3  0  0  0  0  0  0
  -20.9280  -26.3150   21.9300 C   0  0  0  0  0  2  0  0  0  0  0  0
  -19.7290  -26.0370   21.0170 C   0  0  0  0  0  2  0  0  0  0  0  0
  -18.4250  -26.0640   21.8190 C   0  0  0  0  0  2  0  0  0  0  0  0
  -19.4190  -28.1070   23.0060 C   0  0  0  0  0  0  0  0  0  0  0  0
  -19.2270  -29.2920   23.7510 C   0  0  0  0  0  3  0  0  0  0  0  0
  -17.9340  -29.7130   24.1180 C   0  0  0  0  0  3  0  0  0  0  0  0
  -16.8170  -28.9410   23.7580 C   0  0  0  0  0  3  0  0  0  0  0  0
  -16.9930  -27.7540   23.0240 C   0  0  0  0  0  3  0  0  0  0  0  0
  -25.8880  -32.1220   23.1850 C   0  0  0  0  0  3  0  0  0  0  0  0
  -25.4460  -33.4400   23.6950 N   0  0  0  0  0  0  0  0  0  0  0  0
  -25.6310  -34.6170   23.0770 C   0  0  0  0  0  0  0  0  0  0  0  0
  -26.2460  -34.7120   22.0120 O   0  0  0  0  0  0  0  0  0  0  0  0
  -24.8780  -33.4300   24.5310 H   0  0  0  0  0  0  0  0  0  0  0  0
  -23.7240  -36.2640   23.0780 C   0  0  0  0  0  1  0  0  0  0  0  0
  -25.0560  -35.8850   23.7430 C   0  0  0  0  0  3  0  0  0  0  0  0
  -27.1480  -36.8920   24.5520 C   0  0  0  0  0  1  0  0  0  0  0  0
  -25.9760  -37.0460   23.6950 N   0  0  0  0  0  0  0  0  0  0  0  0
  -25.4940  -37.8990   23.9640 H   0  0  0  0  0  0  0  0  0  0  0  0
  -26.5640  -31.3060   24.3570 C   0  0  1  0  0  0  0  0  0  0  0  0
  -25.5810  -30.8760   25.4710 C   0  0  0  0  0  1  0  0  0  0  0  0
  -27.2480  -30.0270   23.8270 C   0  0  0  0  0  1  0  0  0  0  0  0
  -27.6820  -32.1550   25.0100 C   0  0  0  0  0  1  0  0  0  0  0  0
  1 15  1  0
  1  7  1  0
  2  7  1  0
  3  4  1  0
  3  2  1  0
  5  4  1  0
  5 19  1  0
  5  6  1  0
  7  6  1  0
  8  1  2  0
 10  9  1  0
 11  9  1  0
 12 15  1  0
 13 14  1  0
 13 10  1  0
 15 11  1  0
 16 17  2  0
 17 36  1  0
 18 17  1  0
 18 21  1  0
 19 20  1  0
 19 16  1  0
 20 18  2  0
 21 22  1  0
 22 23  2  0
 24 27  1  0
 24 23  1  0
 25 24  2  0
 26 25  1  0
 26 21  2  0
 27 28  1  0
 28 29  1  0
 29 30  2  0
 31 30  1  0
 31 35  1  0
 32 31  2  0
 33 28  2  0
 33 32  1  0
 34 33  1  0
 36 37  1  0
 37 40  1  0
 37 39  1  0
 38 36  2  0
 41 16  1  0
 41 42  1  0
 43 41  1  0
 45 47  1  0
 46 57  2  0
 47 52  1  0
 48 56  1  0
 48 58  1  0
 49 55  1  0
 49 51  1  0
 50 56  1  0
 51 50  1  0
 52 51  2  0
 53 54  1  0
 53 47  2  0
 54 49  2  0
 55 48  1  0
 56 46  1  0
 58 60  2  0
 59 58  1  0
 61 59  1  0
 62 67  2  0
 62 71  1  0
 63 59  1  0
 63 67  1  0
 64 63  1  0
 65 66  1  0
 65 64  1  0
 66 62  1  0
 67 68  1  0
 68 69  2  0
 70 69  1  0
 71 70  2  0
 72 46  1  0
 72 73  1  0
 72 82  1  0
 73 76  1  0
 74 73  1  0
 74 78  1  0
 75 74  2  0
 78 77  1  0
 80 78  1  0
 80 81  1  0
 80 79  1  0
 82 85  1  1
 82 83  1  0
 84 82  1  0
M  ISO  4   1 100  15 100  44 101  45 101
M  END
>  <TORSDO>  (91) 
F 16

>  <SCORE>  (91) 
-12.825

>  <name>  (91) 
92

>  <ligand_id>  (91) 
92

>  <original_smiles>  (91) 
[H]c1c([H])c([H])c2c(c1[H])C([H])([H])C([H])([H])C([H])([H])C2([H])N([H])C(=O)C1([H])N(C(=O)C([H])(N([H])C(=O)C([H])(N([H])C([H])([H])[H])C([H])([H])[H])C(C([H])([H])[H])(C([H])([H])[H])C([H])([H])[H])C([H])([H])c2c([H])c(OC([H])([H])C3(C([H])([H])[H])C([H])([H])N(C(=O)N4C([H])([H])C([H])([H])C([H])([H])C([H])(n5nc(-c6c([H])c([H])c(Oc7c([H])c([H])c(F)c([H])c7F)c([H])c6[H])c(C(=O)N([H])[H])c5N([H])[H])C4([H])[H])C([H])([H])C([H])([H])C3([H])[H])c([H])c([H])c2C1([H])[H]

>  <smiles>  (91) 
[H]c1c([H])c([H])c2c(c1[H])C([H])([H])C([H])([H])C([H])([H])C2([H])N([H])C(=O)C1([H])N(C(=O)C([H])(N([H])C(=O)C([H])(N([H])C([H])([H])[H])C([H])([H])[H])C(C([H])([H])[H])(C([H])([H])[H])C([H])([H])[H])C([H])([H])c2c([H])c(OC([H])([H])C3(C([H])([H])[H])C([H])([H])N(C(=O)N4C([H])([H])C([H])([H])C([H])([H])C([H])(n5nc(-c6c([H])c([H])c(Oc7c([H])c([H])c(F)c([H])c7F)c([H])c6[H])c(C(=O)N([H])[H])c5N([H])[H])C4([H])[H])C([H])([H])C([H])([H])C3([H])[H])c([H])c([H])c2C1([H])[H]

$$$$
93:0:0
     RDKit          3D

 95102  0  0  1  0  0  0  0  0999 V2000
  -29.7290  -20.0670   20.2820 C   0  0  0  0  0  2  0  0  0  0  0  0
  -30.0120  -21.9420   18.4950 C   0  0  0  0  0  1  0  0  0  0  0  0
  -29.9100  -21.6060   19.9940 C   0  0  0  0  0  3  0  0  0  0  0  0
  -28.9320  -22.5720   20.7400 C   0  0  0  0  0  2  0  0  0  0  0  0
  -30.1790  -24.3710   22.0700 C   0  0  0  0  0  1  0  0  0  0  0  0
  -29.3780  -24.0840   20.7900 C   0  0  0  0  0  3  0  0  0  0  0  0
  -28.1940  -25.0870   20.6780 C   0  0  0  0  0  2  0  0  0  0  0  0
  -28.5470  -26.4670   20.3650 O   0  0  0  0  0  0  0  0  0  0  0  0
  -24.7430  -31.7050   23.3850 C   0  0  0  0  0  0  0  0  0  0  0  0
  -27.4510  -27.3130   20.2720 C   0  0  0  0  0  0  0  0  0  0  0  0
  -23.6000  -30.4040   21.6210 C   0  0  0  0  0  3  0  0  0  0  0  0
  -25.1050  -28.9070   20.2020 C   0  0  0  0  0  0  0  0  0  0  0  0
  -26.1450  -30.7130   21.5750 C   0  0  0  0  0  2  0  0  0  0  0  0
  -26.2430  -29.3660   20.8820 C   0  0  0  0  0  0  0  0  0  0  0  0
  -27.4220  -28.5770   20.9120 C   0  0  0  0  0  3  0  0  0  0  0  0
  -26.3130  -26.9070   19.5420 C   0  0  0  0  0  3  0  0  0  0  0  0
  -25.1390  -27.6810   19.5210 C   0  0  0  0  0  3  0  0  0  0  0  0
  -23.8750  -29.7850   20.2240 C   0  0  0  0  0  2  0  0  0  0  0  0
  -24.8450  -30.9540   22.2540 N   0  0  0  0  0  0  0  0  0  0  0  0
  -23.6410  -31.9720   23.8820 O   0  0  0  0  0  0  0  0  0  0  0  0
  -22.8830  -29.3520   22.5010 C   0  0  0  0  0  0  0  0  0  0  0  0
  -21.5660  -29.1960   22.2970 N   0  0  0  0  0  0  0  0  0  0  0  0
  -23.5130  -28.6840   23.3240 O   0  0  0  0  0  0  0  0  0  0  0  0
  -21.1170  -29.7910   21.6150 H   0  0  0  0  0  0  0  0  0  0  0  0
  -18.1410  -28.0840   22.6240 C   0  0  0  0  0  0  0  0  0  0  0  0
  -20.6960  -28.2390   22.9860 C   0  0  0  0  0  3  0  0  0  0  0  0
  -20.7710  -26.8430   22.3270 C   0  0  0  0  0  2  0  0  0  0  0  0
  -19.6940  -26.6220   21.2610 C   0  0  0  0  0  2  0  0  0  0  0  0
  -18.2970  -26.7740   21.8700 C   0  0  0  0  0  2  0  0  0  0  0  0
  -19.2680  -28.7800   23.1340 C   0  0  0  0  0  0  0  0  0  0  0  0
  -19.0700  -30.0110   23.7950 C   0  0  0  0  0  3  0  0  0  0  0  0
  -17.7790  -30.5490   23.9410 C   0  0  0  0  0  3  0  0  0  0  0  0
  -16.6650  -29.8490   23.4460 C   0  0  0  0  0  3  0  0  0  0  0  0
  -16.8460  -28.6160   22.7970 C   0  0  0  0  0  3  0  0  0  0  0  0
  -26.0070  -32.2860   24.0970 C   0  0  0  0  0  3  0  0  0  0  0  0
  -26.4540  -31.4380   25.3490 C   0  0  1  0  0  0  0  0  0  0  0  0
  -25.3020  -31.1070   26.3260 C   0  0  0  0  0  1  0  0  0  0  0  0
  -27.0850  -30.1010   24.8990 C   0  0  0  0  0  1  0  0  0  0  0  0
  -27.5430  -32.2020   26.1380 C   0  0  0  0  0  1  0  0  0  0  0  0
  -25.7000  -33.6670   24.4890 N   0  0  0  0  0  0  0  0  0  0  0  0
  -26.0810  -34.7530   23.8030 C   0  0  0  0  0  0  0  0  0  0  0  0
  -26.8010  -34.6980   22.8040 O   0  0  0  0  0  0  0  0  0  0  0  0
  -25.0740  -33.7800   25.2720 H   0  0  0  0  0  0  0  0  0  0  0  0
  -24.4050  -36.5900   23.4460 C   0  0  0  0  0  1  0  0  0  0  0  0
  -25.5860  -36.1230   24.3100 C   0  0  0  0  0  3  0  0  0  0  0  0
  -27.6770  -36.9190   25.3190 C   0  0  0  0  0  1  0  0  0  0  0  0
  -26.6380  -37.1610   24.3220 N   0  0  0  0  0  0  0  0  0  0  0  0
  -26.2350  -38.0780   24.5010 H   0  0  0  0  0  0  0  0  0  0  0  0
  -28.9440  -19.1440   19.2710 C   0  0  0  0  0  3  0  0  0  0  0  0
  -27.8370  -18.4080   19.9160 N   0  0  0  0  0  4  0  0  0  0  0  0
  -28.1750  -17.7720   20.6140 H   0  0  0  0  0  0  0  0  0  0  0  0
  -27.3240  -17.8820   19.2300 H   0  0  0  0  0  0  0  0  0  0  0  0
  -27.1850  -19.0390   20.3500 H   0  0  0  0  0  0  0  0  0  0  0  0
  -29.8450  -18.1620   18.4460 C   0  0  0  0  0  2  0  0  0  0  0  0
  -30.8680  -17.3150   19.2570 C   0  0  0  0  0  2  0  0  0  0  0  0
  -30.3800  -15.9250   19.8030 C   0  0  0  0  0  3  0  0  0  0  0  0
  -30.8720  -14.6850   18.9810 C   0  0  0  0  0  0  0  0  0  0  0  0
  -30.5210  -12.3560   18.1930 C   0  0  0  0  0  2  0  0  0  0  0  0
  -29.3970  -12.2930   17.1400 C   0  0  0  0  0  2  0  0  0  0  0  0
  -28.0110  -12.1870   17.8110 C   0  0  0  0  0  2  0  0  0  0  0  0
  -27.8170  -13.2230   18.9510 C   0  0  0  0  0  3  0  0  0  0  0  0
  -29.0350  -13.2190   19.9000 C   0  0  0  0  0  2  0  0  0  0  0  0
  -30.2380  -13.4820   19.0980 N   0  0  0  0  0  0  0  0  0  0  0  0
  -31.8280  -14.8310   18.2130 O   0  0  0  0  0  0  0  0  0  0  0  0
  -25.6400  -13.9280   20.1310 C   0  0  0  0  0  0  0  0  0  0  0  0
  -24.6170  -13.2010   20.6770 C   0  0  0  0  0  0  0  0  0  0  0  0
  -24.9750  -11.8280   20.5050 C   0  0  0  0  0  0  0  0  0  0  0  0
  -26.5650  -13.0020   19.6710 N   0  0  0  0  0  0  0  0  0  0  0  0
  -26.1770  -11.7310   19.9490 N   0  0  0  0  0  0  0  0  0  0  0  0
  -24.2150  -10.6010   20.7810 C   0  0  0  0  0  0  0  0  0  0  0  0
  -24.6620   -9.6540   21.7290 C   0  0  0  0  0  3  0  0  0  0  0  0
  -23.9070   -8.4910   21.9910 C   0  0  0  0  0  3  0  0  0  0  0  0
  -22.6890   -8.2660   21.3070 C   0  0  0  0  0  0  0  0  0  0  0  0
  -22.2600   -9.2000   20.3470 C   0  0  0  0  0  3  0  0  0  0  0  0
  -23.0160  -10.3550   20.0840 C   0  0  0  0  0  3  0  0  0  0  0  0
  -21.9020   -7.1530   21.4780 O   0  0  0  0  0  0  0  0  0  0  0  0
  -21.7840   -6.5360   22.6970 C   0  0  0  0  0  0  0  0  0  0  0  0
  -21.3230   -7.2250   23.8410 C   0  0  0  0  0  3  0  0  0  0  0  0
  -21.1520   -6.5350   25.0570 C   0  0  0  0  0  3  0  0  0  0  0  0
  -21.4300   -5.1580   25.1320 C   0  0  0  0  0  0  0  0  0  0  0  0
  -21.8820   -4.4680   23.9930 C   0  0  0  0  0  3  0  0  0  0  0  0
  -22.0560   -5.1550   22.7780 C   0  0  0  0  0  0  0  0  0  0  0  0
  -22.4730   -4.4810   21.6790 F   0  0  0  0  0  0  0  0  0  0  0  0
  -21.2570   -4.4920   26.2980 F   0  0  0  0  0  0  0  0  0  0  0  0
  -23.3310  -13.7430   21.2330 C   0  0  0  0  0  0  0  0  0  0  0  0
  -22.7810  -13.0940   22.2540 N   0  0  0  0  0  0  0  0  0  0  0  0
  -22.8300  -14.7760   20.7910 O   0  0  0  0  0  0  0  0  0  0  0  0
  -23.2030  -12.2600   22.6340 H   0  0  0  0  0  0  0  0  0  0  0  0
  -21.9230  -13.4380   22.6610 H   0  0  0  0  0  0  0  0  0  0  0  0
  -25.8520  -15.2930   19.9580 N   0  0  0  0  0  0  0  0  0  0  0  0
  -25.0640  -15.9210   20.0710 H   0  0  0  0  0  0  0  0  0  0  0  0
  -26.5120  -15.6150   19.2620 H   0  0  0  0  0  0  0  0  0  0  0  0
  -30.5480  -17.0380   22.1290 C   0  0  0  0  0  1  0  0  0  0  0  0
  -32.1560  -15.1700   21.5440 C   0  0  0  0  0  1  0  0  0  0  0  0
  -30.7460  -15.7490   21.3090 C   0  0  0  0  0  3  0  0  0  0  0  0
  3  2  1  0
  3  1  1  0
  3  4  1  0
  4  6  1  0
  6  5  1  0
  7  6  1  0
  8  7  1  0
  9 20  2  0
 10  8  1  0
 10 15  1  0
 11 19  1  0
 11 21  1  0
 12 18  1  0
 12 14  1  0
 13 19  1  0
 14 15  2  0
 14 13  1  0
 16 10  2  0
 17 16  1  0
 17 12  2  0
 18 11  1  0
 19  9  1  0
 21 23  2  0
 22 21  1  0
 24 22  1  0
 25 34  2  0
 25 30  1  0
 26 22  1  0
 26 30  1  0
 27 26  1  0
 28 29  1  0
 28 27  1  0
 29 25  1  0
 30 31  2  0
 31 32  1  0
 33 32  2  0
 34 33  1  0
 35  9  1  0
 35 40  1  0
 35 36  1  0
 36 39  1  1
 36 37  1  0
 38 36  1  0
 40 43  1  0
 41 45  1  0
 41 40  1  0
 42 41  2  0
 45 44  1  0
 45 47  1  0
 47 48  1  0
 47 46  1  0
 49 54  1  0
 49 50  1  0
 49  1  1  0
 50 53  1  0
 50 51  1  0
 52 50  1  0
 54 55  1  0
 56 55  1  0
 56 95  1  0
 57 63  1  0
 57 56  1  0
 58 63  1  0
 59 60  1  0
 59 58  1  0
 61 60  1  0
 61 68  1  0
 61 62  1  0
 63 62  1  0
 64 57  2  0
 65 66  2  0
 66 85  1  0
 67 66  1  0
 67 70  1  0
 68 69  1  0
 68 65  1  0
 69 67  2  0
 70 71  1  0
 71 72  2  0
 73 76  1  0
 73 72  1  0
 74 73  2  0
 75 74  1  0
 75 70  2  0
 76 77  1  0
 77 82  2  0
 77 78  1  0
 78 79  2  0
 79 80  1  0
 80 84  1  0
 81 80  2  0
 82 81  1  0
 83 82  1  0
 85 86  1  0
 86 88  1  0
 86 89  1  0
 87 85  2  0
 90 91  1  0
 90 65  1  0
 92 90  1  0
 95 94  1  0
 95 93  1  0
M  ISO  4   7 101   8 101  56 100  57 100
M  END
>  <TORSDO>  (92) 
F 26

>  <SCORE>  (92) 
-10.063

>  <name>  (92) 
93

>  <ligand_id>  (92) 
93

>  <original_smiles>  (92) 
[H]c1c([H])c([H])c2c(c1[H])C([H])([H])C([H])([H])C([H])([H])C2([H])N([H])C(=O)C1([H])N(C(=O)C([H])(N([H])C(=O)C([H])(N([H])C([H])([H])[H])C([H])([H])[H])C(C([H])([H])[H])(C([H])([H])[H])C([H])([H])[H])C([H])([H])c2c([H])c(OC([H])([H])C([H])(C([H])([H])[H])C([H])([H])C([H])(C([H])([H])[H])C([H])([H])C([H])(C([H])([H])C([H])([H])C([H])(C(=O)N3C([H])([H])C([H])([H])C([H])([H])C([H])(n4nc(-c5c([H])c([H])c(Oc6c([H])c([H])c(F)c([H])c6F)c([H])c5[H])c(C(=O)N([H])[H])c4N([H])[H])C3([H])[H])C([H])(C([H])([H])[H])C([H])([H])[H])[N+]([H])([H])[H])c([H])c([H])c2C1([H])[H]

>  <smiles>  (92) 
[H]c1c([H])c([H])c2c(c1[H])C([H])([H])C([H])([H])C([H])([H])C2([H])N([H])C(=O)C1([H])N(C(=O)C([H])(N([H])C(=O)C([H])(N([H])C([H])([H])[H])C([H])([H])[H])C(C([H])([H])[H])(C([H])([H])[H])C([H])([H])[H])C([H])([H])c2c([H])c(OC([H])([H])C([H])(C([H])([H])[H])C([H])([H])C([H])(C([H])([H])[H])C([H])([H])C([H])(C([H])([H])C([H])([H])C([H])(C(=O)N3C([H])([H])C([H])([H])C([H])([H])C([H])(n4nc(-c5c([H])c([H])c(Oc6c([H])c([H])c(F)c([H])c6F)c([H])c5[H])c(C(=O)N([H])[H])c4N([H])[H])C3([H])[H])C([H])(C([H])([H])[H])C([H])([H])[H])[N+]([H])([H])[H])c([H])c([H])c2C1([H])[H]

$$$$
94:0:0
     RDKit          3D

 90 97  0  0  1  0  0  0  0  0999 V2000
  -28.2180  -23.3660   20.3360 C   0  0  0  0  0  3  0  0  0  0  0  0
  -26.8110  -22.9210   19.9140 C   0  0  0  0  0  0  0  0  0  0  0  0
  -25.9160  -22.6720   20.8640 N   0  0  0  0  0  0  0  0  0  0  0  0
  -26.5210  -22.7870   18.7260 O   0  0  0  0  0  0  0  0  0  0  0  0
  -26.1540  -22.7740   21.8400 H   0  0  0  0  0  0  0  0  0  0  0  0
  -24.9870  -22.3640   20.6130 H   0  0  0  0  0  0  0  0  0  0  0  0
  -29.2650  -22.0450   20.1790 C   0  0  0  0  0  2  0  0  0  0  0  0
  -28.8920  -20.4140   19.9630 C   0  0  0  0  0  2  0  0  0  0  0  0
  -29.7940  -19.0810   20.4570 C   0  0  0  0  0  2  0  0  0  0  0  0
  -29.8180  -17.5610   19.7260 C   0  0  0  0  0  2  0  0  0  0  0  0
  -30.7560  -15.0010   19.9950 C   0  0  0  0  0  0  0  0  0  0  0  0
  -30.5460  -12.6970   18.9540 C   0  0  0  0  0  2  0  0  0  0  0  0
  -29.5530  -12.7350   17.7680 C   0  0  0  0  0  2  0  0  0  0  0  0
  -28.1050  -12.5310   18.2570 C   0  0  0  0  0  2  0  0  0  0  0  0
  -27.7820  -13.3940   19.5040 C   0  0  0  0  0  3  0  0  0  0  0  0
  -28.8900  -13.3120   20.5710 C   0  0  0  0  0  2  0  0  0  0  0  0
  -30.1420  -13.7480   19.9350 N   0  0  0  0  0  0  0  0  0  0  0  0
  -31.8750  -15.1010   19.4780 O   0  0  0  0  0  0  0  0  0  0  0  0
  -29.7680  -16.2570   21.8670 C   0  0  0  0  0  1  0  0  0  0  0  0
  -30.0550  -16.1650   20.4320 N   0  0  0  0  0  0  0  0  0  0  0  0
  -25.4450  -13.9600   20.3790 C   0  0  0  0  0  0  0  0  0  0  0  0
  -24.4000  -13.1770   20.7890 C   0  0  0  0  0  0  0  0  0  0  0  0
  -24.8610  -11.8280   20.7050 C   0  0  0  0  0  0  0  0  0  0  0  0
  -26.4710  -13.0850   20.0610 N   0  0  0  0  0  0  0  0  0  0  0  0
  -26.1330  -11.7970   20.3230 N   0  0  0  0  0  0  0  0  0  0  0  0
  -24.1450  -10.5620   20.9080 C   0  0  0  0  0  0  0  0  0  0  0  0
  -24.5820   -9.6080   21.8550 C   0  0  0  0  0  3  0  0  0  0  0  0
  -23.8650   -8.4070   22.0440 C   0  0  0  0  0  3  0  0  0  0  0  0
  -22.6960   -8.1510   21.2870 C   0  0  0  0  0  0  0  0  0  0  0  0
  -22.2790   -9.0940   20.3310 C   0  0  0  0  0  3  0  0  0  0  0  0
  -22.9970  -10.2860   20.1410 C   0  0  0  0  0  3  0  0  0  0  0  0
  -21.9480   -7.0030   21.3860 O   0  0  0  0  0  0  0  0  0  0  0  0
  -21.8450   -6.3120   22.5670 C   0  0  0  0  0  0  0  0  0  0  0  0
  -21.3500   -6.9160   23.7440 C   0  0  0  0  0  3  0  0  0  0  0  0
  -21.1920   -6.1490   24.9160 C   0  0  0  0  0  3  0  0  0  0  0  0
  -21.5200   -4.7810   24.9120 C   0  0  0  0  0  0  0  0  0  0  0  0
  -22.0070   -4.1760   23.7400 C   0  0  0  0  0  3  0  0  0  0  0  0
  -22.1660   -4.9400   22.5700 C   0  0  0  0  0  0  0  0  0  0  0  0
  -22.6160   -4.3470   21.4380 F   0  0  0  0  0  0  0  0  0  0  0  0
  -21.3620   -4.0440   26.0360 F   0  0  0  0  0  0  0  0  0  0  0  0
  -23.0220  -13.6490   21.1440 C   0  0  0  0  0  0  0  0  0  0  0  0
  -22.3410  -12.9420   22.0390 N   0  0  0  0  0  0  0  0  0  0  0  0
  -22.5580  -14.6820   20.6630 O   0  0  0  0  0  0  0  0  0  0  0  0
  -22.7300  -12.1090   22.4560 H   0  0  0  0  0  0  0  0  0  0  0  0
  -21.4190  -13.2460   22.3160 H   0  0  0  0  0  0  0  0  0  0  0  0
  -25.6020  -15.3350   20.2280 N   0  0  0  0  0  0  0  0  0  0  0  0
  -24.8510  -15.9900   20.4200 H   0  0  0  0  0  0  0  0  0  0  0  0
  -26.4460  -15.7880   19.9050 H   0  0  0  0  0  0  0  0  0  0  0  0
  -28.5010  -24.9020   19.7000 C   0  0  0  0  0  2  0  0  0  0  0  0
  -28.3230  -26.3170   20.3040 O   0  0  0  0  0  0  0  0  0  0  0  0
  -24.6240  -31.8950   23.2350 C   0  0  0  0  0  0  0  0  0  0  0  0
  -27.2250  -27.2280   20.1830 C   0  0  0  0  0  0  0  0  0  0  0  0
  -23.4250  -30.4950   21.5940 C   0  0  0  0  0  3  0  0  0  0  0  0
  -24.8760  -28.9270   20.1580 C   0  0  0  0  0  0  0  0  0  0  0  0
  -25.9700  -30.7820   21.4180 C   0  0  0  0  0  2  0  0  0  0  0  0
  -26.0470  -29.3930   20.7650 C   0  0  0  0  0  0  0  0  0  0  0  0
  -27.2160  -28.5540   20.7670 C   0  0  0  0  0  3  0  0  0  0  0  0
  -26.0310  -26.8470   19.5360 C   0  0  0  0  0  3  0  0  0  0  0  0
  -24.8780  -27.6680   19.5300 C   0  0  0  0  0  3  0  0  0  0  0  0
  -23.6410  -29.8140   20.2140 C   0  0  0  0  0  2  0  0  0  0  0  0
  -24.6930  -31.0790   22.1380 N   0  0  0  0  0  0  0  0  0  0  0  0
  -23.5400  -32.1720   23.7690 O   0  0  0  0  0  0  0  0  0  0  0  0
  -22.7560  -29.4840   22.5590 C   0  0  0  0  0  0  0  0  0  0  0  0
  -21.4290  -29.3080   22.4390 N   0  0  0  0  0  0  0  0  0  0  0  0
  -23.4340  -28.8600   23.3780 O   0  0  0  0  0  0  0  0  0  0  0  0
  -20.9390  -29.8630   21.7520 H   0  0  0  0  0  0  0  0  0  0  0  0
  -18.0580  -28.0900   22.9440 C   0  0  0  0  0  0  0  0  0  0  0  0
  -20.6160  -28.3670   23.2100 C   0  0  0  0  0  3  0  0  0  0  0  0
  -20.7250  -26.9350   22.6340 C   0  0  0  0  0  2  0  0  0  0  0  0
  -19.6240  -26.6070   21.6220 C   0  0  0  0  0  2  0  0  0  0  0  0
  -18.2410  -26.7430   22.2670 C   0  0  0  0  0  2  0  0  0  0  0  0
  -19.1720  -28.8590   23.3730 C   0  0  0  0  0  0  0  0  0  0  0  0
  -18.9450  -30.1200   23.9690 C   0  0  0  0  0  3  0  0  0  0  0  0
  -17.6370  -30.6110   24.1380 C   0  0  0  0  0  3  0  0  0  0  0  0
  -16.5380  -29.8400   23.7240 C   0  0  0  0  0  3  0  0  0  0  0  0
  -16.7480  -28.5810   23.1330 C   0  0  0  0  0  3  0  0  0  0  0  0
  -25.9050  -32.5330   23.8590 C   0  0  0  0  0  3  0  0  0  0  0  0
  -25.5930  -33.9340   24.1860 N   0  0  0  0  0  0  0  0  0  0  0  0
  -25.9370  -34.9880   23.4340 C   0  0  0  0  0  0  0  0  0  0  0  0
  -26.6180  -34.8840   22.4090 O   0  0  0  0  0  0  0  0  0  0  0  0
  -24.9910  -34.0880   24.9810 H   0  0  0  0  0  0  0  0  0  0  0  0
  -24.2250  -36.7940   23.0620 C   0  0  0  0  0  1  0  0  0  0  0  0
  -25.4520  -36.3780   23.8900 C   0  0  0  0  0  3  0  0  0  0  0  0
  -27.5780  -37.2490   24.7540 C   0  0  0  0  0  1  0  0  0  0  0  0
  -26.4910  -37.4270   23.7950 N   0  0  0  0  0  0  0  0  0  0  0  0
  -26.0880  -38.3480   23.9400 H   0  0  0  0  0  0  0  0  0  0  0  0
  -26.4160  -31.7700   25.1440 C   0  0  1  0  0  0  0  0  0  0  0  0
  -25.3190  -31.5440   26.2100 C   0  0  0  0  0  1  0  0  0  0  0  0
  -26.9980  -30.3890   24.7670 C   0  0  0  0  0  1  0  0  0  0  0  0
  -27.5650  -32.5680   25.8030 C   0  0  0  0  0  1  0  0  0  0  0  0
  1 49  1  0
  2  1  1  0
  2  3  1  0
  3  5  1  0
  4  2  2  0
  6  3  1  0
  7  1  1  0
  8  7  1  0
  8  9  1  0
 10 20  1  0
 10  9  1  0
 11 20  1  0
 12 17  1  0
 13 14  1  0
 13 12  1  0
 15 14  1  0
 15 24  1  0
 15 16  1  0
 17 11  1  0
 17 16  1  0
 18 11  2  0
 20 19  1  0
 21 22  2  0
 22 41  1  0
 23 22  1  0
 23 26  1  0
 24 25  1  0
 24 21  1  0
 25 23  2  0
 26 27  1  0
 27 28  2  0
 29 32  1  0
 29 28  1  0
 30 29  2  0
 31 30  1  0
 31 26  2  0
 32 33  1  0
 33 38  2  0
 33 34  1  0
 34 35  2  0
 36 35  1  0
 36 40  1  0
 37 36  2  0
 38 37  1  0
 39 38  1  0
 41 42  1  0
 42 45  1  0
 42 44  1  0
 43 41  2  0
 46 21  1  0
 46 47  1  0
 48 46  1  0
 49 50  1  0
 51 62  2  0
 52 50  1  0
 52 57  1  0
 53 61  1  0
 53 63  1  0
 54 60  1  0
 54 56  1  0
 55 61  1  0
 56 57  2  0
 56 55  1  0
 58 52  2  0
 59 58  1  0
 59 54  2  0
 60 53  1  0
 61 51  1  0
 63 65  2  0
 64 63  1  0
 66 64  1  0
 67 76  2  0
 67 72  1  0
 68 64  1  0
 68 72  1  0
 69 68  1  0
 70 71  1  0
 70 69  1  0
 71 67  1  0
 72 73  2  0
 73 74  1  0
 75 74  2  0
 76 75  1  0
 77 51  1  0
 77 78  1  0
 77 87  1  0
 78 81  1  0
 79 83  1  0
 79 78  1  0
 80 79  2  0
 83 82  1  0
 85 83  1  0
 85 86  1  0
 85 84  1  0
 87 90  1  1
 87 88  1  0
 89 87  1  0
M  ISO  4  11 100  20 100  49 101  50 101
M  END
>  <TORSDO>  (93) 
F 22

>  <SCORE>  (93) 
-12.608

>  <name>  (93) 
94

>  <ligand_id>  (93) 
94

>  <original_smiles>  (93) 
[H]c1c([H])c([H])c2c(c1[H])C([H])([H])C([H])([H])C([H])([H])C2([H])N([H])C(=O)C1([H])N(C(=O)C([H])(N([H])C(=O)C([H])(N([H])C([H])([H])[H])C([H])([H])[H])C(C([H])([H])[H])(C([H])([H])[H])C([H])([H])[H])C([H])([H])c2c([H])c(OC([H])([H])C([H])(C(=O)N([H])[H])C([H])([H])C([H])([H])C([H])([H])C([H])([H])N(C(=O)N3C([H])([H])C([H])([H])C([H])([H])C([H])(n4nc(-c5c([H])c([H])c(Oc6c([H])c([H])c(F)c([H])c6F)c([H])c5[H])c(C(=O)N([H])[H])c4N([H])[H])C3([H])[H])C([H])([H])[H])c([H])c([H])c2C1([H])[H]

>  <smiles>  (93) 
[H]c1c([H])c([H])c2c(c1[H])C([H])([H])C([H])([H])C([H])([H])C2([H])N([H])C(=O)C1([H])N(C(=O)C([H])(N([H])C(=O)C([H])(N([H])C([H])([H])[H])C([H])([H])[H])C(C([H])([H])[H])(C([H])([H])[H])C([H])([H])[H])C([H])([H])c2c([H])c(OC([H])([H])C([H])(C(=O)N([H])[H])C([H])([H])C([H])([H])C([H])([H])C([H])([H])N(C(=O)N3C([H])([H])C([H])([H])C([H])([H])C([H])(n4nc(-c5c([H])c([H])c(Oc6c([H])c([H])c(F)c([H])c6F)c([H])c5[H])c(C(=O)N([H])[H])c4N([H])[H])C3([H])[H])C([H])([H])[H])c([H])c([H])c2C1([H])[H]

$$$$
95:0:0
     RDKit          3D

 93100  0  0  1  0  0  0  0  0999 V2000
  -29.2110  -21.7890   21.0340 C   0  0  0  0  0  3  0  0  0  0  0  0
  -28.1070  -22.7390   20.4640 C   0  0  0  0  0  2  0  0  0  0  0  0
  -26.8660  -24.5250   21.7990 C   0  0  0  0  0  1  0  0  0  0  0  0
  -28.1040  -24.2410   20.9190 C   0  0  0  0  0  3  0  0  0  0  0  0
  -28.1700  -25.2280   19.7110 C   0  0  0  0  0  2  0  0  0  0  0  0
  -28.1900  -26.6380   20.0420 O   0  0  0  0  0  0  0  0  0  0  0  0
  -24.5530  -31.8950   23.1940 C   0  0  0  0  0  0  0  0  0  0  0  0
  -27.0260  -27.3920   20.0290 C   0  0  0  0  0  0  0  0  0  0  0  0
  -23.2760  -30.5130   21.5900 C   0  0  0  0  0  3  0  0  0  0  0  0
  -24.6620  -28.9620   20.1140 C   0  0  0  0  0  0  0  0  0  0  0  0
  -25.8040  -30.8190   21.3270 C   0  0  0  0  0  2  0  0  0  0  0  0
  -25.8450  -29.4510   20.6780 C   0  0  0  0  0  0  0  0  0  0  0  0
  -27.0260  -28.6710   20.6410 C   0  0  0  0  0  3  0  0  0  0  0  0
  -25.8220  -26.9360   19.4400 C   0  0  0  0  0  3  0  0  0  0  0  0
  -24.6460  -27.7030   19.4950 C   0  0  0  0  0  3  0  0  0  0  0  0
  -23.4320  -29.8370   20.2030 C   0  0  0  0  0  2  0  0  0  0  0  0
  -24.5630  -31.0930   22.0920 N   0  0  0  0  0  0  0  0  0  0  0  0
  -23.4920  -32.1880   23.7650 O   0  0  0  0  0  0  0  0  0  0  0  0
  -22.6390  -29.4990   22.5670 C   0  0  0  0  0  0  0  0  0  0  0  0
  -21.3210  -29.2820   22.4330 N   0  0  0  0  0  0  0  0  0  0  0  0
  -23.3290  -28.9090   23.4030 O   0  0  0  0  0  0  0  0  0  0  0  0
  -20.8220  -29.8110   21.7290 H   0  0  0  0  0  0  0  0  0  0  0  0
  -17.9850  -27.9700   22.8790 C   0  0  0  0  0  0  0  0  0  0  0  0
  -20.5190  -28.3480   23.2220 C   0  0  0  0  0  3  0  0  0  0  0  0
  -20.6990  -26.8950   22.7190 C   0  0  0  0  0  2  0  0  0  0  0  0
  -19.6460  -26.4800   21.6850 C   0  0  0  0  0  2  0  0  0  0  0  0
  -18.2380  -26.5980   22.2750 C   0  0  0  0  0  2  0  0  0  0  0  0
  -19.0550  -28.7970   23.3090 C   0  0  0  0  0  0  0  0  0  0  0  0
  -18.7640  -30.0780   23.8260 C   0  0  0  0  0  3  0  0  0  0  0  0
  -17.4340  -30.5290   23.9240 C   0  0  0  0  0  3  0  0  0  0  0  0
  -16.3780  -29.6980   23.5130 C   0  0  0  0  0  3  0  0  0  0  0  0
  -16.6550  -28.4220   22.9930 C   0  0  0  0  0  3  0  0  0  0  0  0
  -25.8690  -32.5070   23.7730 C   0  0  0  0  0  3  0  0  0  0  0  0
  -26.4300  -31.7160   25.0170 C   0  0  1  0  0  0  0  0  0  0  0  0
  -25.3780  -31.4640   26.1220 C   0  0  0  0  0  1  0  0  0  0  0  0
  -26.9940  -30.3430   24.5860 C   0  0  0  0  0  1  0  0  0  0  0  0
  -27.6110  -32.4940   25.6450 C   0  0  0  0  0  1  0  0  0  0  0  0
  -25.5850  -33.9020   24.1310 N   0  0  0  0  0  0  0  0  0  0  0  0
  -25.9070  -34.9600   23.3760 C   0  0  0  0  0  0  0  0  0  0  0  0
  -26.5480  -34.8650   22.3250 O   0  0  0  0  0  0  0  0  0  0  0  0
  -25.0220  -34.0550   24.9550 H   0  0  0  0  0  0  0  0  0  0  0  0
  -24.1980  -36.7810   23.0810 C   0  0  0  0  0  1  0  0  0  0  0  0
  -25.4440  -36.3430   23.8670 C   0  0  0  0  0  3  0  0  0  0  0  0
  -27.6000  -37.1830   24.6870 C   0  0  0  0  0  1  0  0  0  0  0  0
  -26.4880  -37.3850   23.7630 N   0  0  0  0  0  0  0  0  0  0  0  0
  -26.0930  -38.3050   23.9400 H   0  0  0  0  0  0  0  0  0  0  0  0
  -28.9550  -20.3250   20.5570 C   0  0  0  0  0  2  0  0  0  0  0  0
  -29.9570  -19.2560   21.0650 C   0  0  0  0  0  2  0  0  0  0  0  0
  -29.6350  -17.8190   20.5940 C   0  0  0  0  0  2  0  0  0  0  0  0
  -30.5400  -16.7470   21.2490 C   0  0  0  0  0  2  0  0  0  0  0  0
  -30.7440  -14.4130   20.2970 C   0  0  0  0  0  0  0  0  0  0  0  0
  -30.4040  -12.2590   19.1340 C   0  0  0  0  0  2  0  0  0  0  0  0
  -29.4350  -12.4600   17.9500 C   0  0  0  0  0  2  0  0  0  0  0  0
  -27.9660  -12.3530   18.4110 C   0  0  0  0  0  2  0  0  0  0  0  0
  -27.6690  -13.2040   19.6740 C   0  0  0  0  0  3  0  0  0  0  0  0
  -28.7400  -12.9520   20.7580 C   0  0  0  0  0  2  0  0  0  0  0  0
  -30.0580  -13.2450   20.1670 N   0  0  0  0  0  0  0  0  0  0  0  0
  -31.8400  -14.6160   19.7680 O   0  0  0  0  0  0  0  0  0  0  0  0
  -30.0910  -15.3770   20.9680 N   0  0  0  0  0  0  0  0  0  0  0  0
  -29.1880  -15.1150   21.3330 H   0  0  0  0  0  0  0  0  0  0  0  0
  -25.2970  -13.8650   20.4290 C   0  0  0  0  0  0  0  0  0  0  0  0
  -24.2200  -13.1160   20.8180 C   0  0  0  0  0  0  0  0  0  0  0  0
  -24.6510  -11.7540   20.7760 C   0  0  0  0  0  0  0  0  0  0  0  0
  -26.3190  -12.9610   20.1780 N   0  0  0  0  0  0  0  0  0  0  0  0
  -25.9330  -11.6870   20.4410 N   0  0  0  0  0  0  0  0  0  0  0  0
  -23.9020  -10.5070   20.9780 C   0  0  0  0  0  0  0  0  0  0  0  0
  -24.3250   -9.5310   21.9070 C   0  0  0  0  0  3  0  0  0  0  0  0
  -23.5770   -8.3500   22.0970 C   0  0  0  0  0  3  0  0  0  0  0  0
  -22.3920   -8.1340   21.3550 C   0  0  0  0  0  0  0  0  0  0  0  0
  -21.9860   -9.0970   20.4140 C   0  0  0  0  0  3  0  0  0  0  0  0
  -22.7340  -10.2710   20.2230 C   0  0  0  0  0  3  0  0  0  0  0  0
  -21.6160   -7.0040   21.4530 O   0  0  0  0  0  0  0  0  0  0  0  0
  -21.5570   -6.2700   22.6110 C   0  0  0  0  0  0  0  0  0  0  0  0
  -21.1520   -6.8420   23.8360 C   0  0  0  0  0  3  0  0  0  0  0  0
  -21.0380   -6.0370   24.9870 C   0  0  0  0  0  3  0  0  0  0  0  0
  -21.3190   -4.6590   24.9130 C   0  0  0  0  0  0  0  0  0  0  0  0
  -21.7170   -4.0860   23.6920 C   0  0  0  0  0  3  0  0  0  0  0  0
  -21.8330   -4.8900   22.5430 C   0  0  0  0  0  0  0  0  0  0  0  0
  -22.1960   -4.3280   21.3650 F   0  0  0  0  0  0  0  0  0  0  0  0
  -21.2020   -3.8820   26.0150 F   0  0  0  0  0  0  0  0  0  0  0  0
  -22.8390  -13.6210   21.1210 C   0  0  0  0  0  0  0  0  0  0  0  0
  -22.1150  -12.9400   22.0010 N   0  0  0  0  0  0  0  0  0  0  0  0
  -22.4110  -14.6580   20.6120 O   0  0  0  0  0  0  0  0  0  0  0  0
  -22.4730  -12.1020   22.4360 H   0  0  0  0  0  0  0  0  0  0  0  0
  -21.1890  -13.2610   22.2460 H   0  0  0  0  0  0  0  0  0  0  0  0
  -25.4890  -15.2320   20.2520 N   0  0  0  0  0  0  0  0  0  0  0  0
  -24.7410  -15.9050   20.3770 H   0  0  0  0  0  0  0  0  0  0  0  0
  -26.3460  -15.6530   19.9140 H   0  0  0  0  0  0  0  0  0  0  0  0
  -29.3430  -21.8530   22.5800 C   0  0  0  0  0  2  0  0  0  0  0  0
  -30.8000  -21.9440   23.0860 C   0  0  0  0  0  2  0  0  0  0  0  0
  -30.9250  -21.7470   24.6010 C   0  0  0  0  0  0  0  0  0  0  0  0
  -32.0700  -21.6420   25.0780 O   0  0  0  0  0  0  0  0  0  0  0  0
  -29.9000  -21.7040   25.3120 O   0  0  0  0  0  1  0  0  0  0  0  0
  1  2  1  0
  1 89  1  0
  2  4  1  0
  4  3  1  0
  5  6  1  0
  5  4  1  0
  7 18  2  0
  8  6  1  0
  8 13  1  0
  9 17  1  0
  9 19  1  0
 10 16  1  0
 10 12  1  0
 11 17  1  0
 12 11  1  0
 13 12  2  0
 14 15  1  0
 14  8  2  0
 15 10  2  0
 16  9  1  0
 17  7  1  0
 19 21  2  0
 20 19  1  0
 22 20  1  0
 23 32  2  0
 23 28  1  0
 24 20  1  0
 24 28  1  0
 25 24  1  0
 26 27  1  0
 26 25  1  0
 27 23  1  0
 28 29  2  0
 29 30  1  0
 31 30  2  0
 32 31  1  0
 33  7  1  0
 33 38  1  0
 33 34  1  0
 34 37  1  1
 34 35  1  0
 36 34  1  0
 38 41  1  0
 39 43  1  0
 39 38  1  0
 40 39  2  0
 43 42  1  0
 45 43  1  0
 45 46  1  0
 45 44  1  0
 47  1  1  0
 47 48  1  0
 49 48  1  0
 49 50  1  0
 51 59  1  0
 52 57  1  0
 53 54  1  0
 53 52  1  0
 55 54  1  0
 55 64  1  0
 55 56  1  0
 57 51  1  0
 57 56  1  0
 58 51  2  0
 59 50  1  0
 59 60  1  0
 61 62  2  0
 62 81  1  0
 63 62  1  0
 63 66  1  0
 64 61  1  0
 64 65  1  0
 65 63  2  0
 66 67  1  0
 67 68  2  0
 69 72  1  0
 69 68  1  0
 70 69  2  0
 71 70  1  0
 71 66  2  0
 72 73  1  0
 73 74  1  0
 74 75  2  0
 76 75  1  0
 76 80  1  0
 77 76  2  0
 78 73  2  0
 78 77  1  0
 79 78  1  0
 81 82  1  0
 82 85  1  0
 82 84  1  0
 83 81  2  0
 86 87  1  0
 86 61  1  0
 88 86  1  0
 89 90  1  0
 90 91  1  0
 91 92  2  0
 91 93  1  0
M  ISO  4   5 101   6 101  51 100  59 100
M  END
>  <TORSDO>  (94) 
F 26

>  <SCORE>  (94) 
-12.208

>  <name>  (94) 
95

>  <ligand_id>  (94) 
95

>  <original_smiles>  (94) 
[H]c1c([H])c([H])c2c(c1[H])C([H])([H])C([H])([H])C([H])([H])C2([H])N([H])C(=O)C1([H])N(C(=O)C([H])(N([H])C(=O)C([H])(N([H])C([H])([H])[H])C([H])([H])[H])C(C([H])([H])[H])(C([H])([H])[H])C([H])([H])[H])C([H])([H])c2c([H])c(OC([H])([H])C([H])(C([H])([H])[H])C([H])([H])C([H])(C([H])([H])C([H])([H])C(=O)[O-])C([H])([H])C([H])([H])C([H])([H])C([H])([H])N([H])C(=O)N3C([H])([H])C([H])([H])C([H])([H])C([H])(n4nc(-c5c([H])c([H])c(Oc6c([H])c([H])c(F)c([H])c6F)c([H])c5[H])c(C(=O)N([H])[H])c4N([H])[H])C3([H])[H])c([H])c([H])c2C1([H])[H]

>  <smiles>  (94) 
[H]c1c([H])c([H])c2c(c1[H])C([H])([H])C([H])([H])C([H])([H])C2([H])N([H])C(=O)C1([H])N(C(=O)C([H])(N([H])C(=O)C([H])(N([H])C([H])([H])[H])C([H])([H])[H])C(C([H])([H])[H])(C([H])([H])[H])C([H])([H])[H])C([H])([H])c2c([H])c(OC([H])([H])C([H])(C([H])([H])[H])C([H])([H])C([H])(C([H])([H])C([H])([H])C(=O)[O-])C([H])([H])C([H])([H])C([H])([H])C([H])([H])N([H])C(=O)N3C([H])([H])C([H])([H])C([H])([H])C([H])(n4nc(-c5c([H])c([H])c(Oc6c([H])c([H])c(F)c([H])c6F)c([H])c5[H])c(C(=O)N([H])[H])c4N([H])[H])C3([H])[H])c([H])c([H])c2C1([H])[H]

$$$$
96:0:0
     RDKit          3D

 92100  0  0  1  0  0  0  0  0999 V2000
  -29.6220  -19.8380   20.6650 C   0  0  0  0  0  3  0  0  0  0  0  0
  -31.6830  -20.7430   23.7310 C   0  0  0  0  0  2  0  0  0  0  0  0
  -32.7220  -20.4980   22.6340 C   0  0  0  0  0  2  0  0  0  0  0  0
  -30.3780  -20.8160   22.9130 C   0  0  0  0  0  2  0  0  0  0  0  0
  -31.9820  -19.6590   21.5750 C   0  0  0  0  0  2  0  0  0  0  0  0
  -30.5280  -19.7780   21.8610 N   0  0  2  0  0  4  0  0  0  0  0  0
  -30.2830  -18.9080   22.3160 H   0  0  0  0  0  0  0  0  0  0  0  0
  -31.2060  -18.4050   19.0090 C   0  0  0  0  0  1  0  0  0  0  0  0
  -28.7430  -18.3470   18.7590 C   0  0  0  0  0  1  0  0  0  0  0  0
  -29.8790  -18.2810   19.8030 C   0  0  2  0  0  0  0  0  0  0  0  0
  -30.5460  -15.4210   20.2430 C   0  0  0  0  0  0  0  0  0  0  0  0
  -30.5230  -12.9580   19.4360 C   0  0  0  0  0  2  0  0  0  0  0  0
  -29.5880  -12.7140   18.2230 C   0  0  0  0  0  2  0  0  0  0  0  0
  -28.1450  -12.4460   18.6840 C   0  0  0  0  0  2  0  0  0  0  0  0
  -27.7040  -13.4240   19.7970 C   0  0  0  0  0  3  0  0  0  0  0  0
  -28.7630  -13.6020   20.9080 C   0  0  0  0  0  2  0  0  0  0  0  0
  -29.9850  -14.1110   20.2590 N   0  0  0  0  0  0  0  0  0  0  0  0
  -31.7480  -15.4180   19.9510 O   0  0  0  0  0  0  0  0  0  0  0  0
  -29.7980  -16.7000   20.3610 N   0  0  0  0  0  0  0  0  0  0  0  0
  -28.8720  -16.4960   20.7170 H   0  0  0  0  0  0  0  0  0  0  0  0
  -25.3340  -13.9680   20.5740 C   0  0  0  0  0  0  0  0  0  0  0  0
  -24.2730  -13.1860   20.9320 C   0  0  0  0  0  0  0  0  0  0  0  0
  -24.7380  -11.8360   20.8830 C   0  0  0  0  0  0  0  0  0  0  0  0
  -26.3780  -13.0970   20.3120 N   0  0  0  0  0  0  0  0  0  0  0  0
  -26.0300  -11.8070   20.5630 N   0  0  0  0  0  0  0  0  0  0  0  0
  -24.0080  -10.5750   21.0620 C   0  0  0  0  0  0  0  0  0  0  0  0
  -24.4350   -9.5940   21.9850 C   0  0  0  0  0  3  0  0  0  0  0  0
  -23.7100   -8.3970   22.1520 C   0  0  0  0  0  3  0  0  0  0  0  0
  -22.5350   -8.1680   21.3980 C   0  0  0  0  0  0  0  0  0  0  0  0
  -22.1320   -9.1310   20.4540 C   0  0  0  0  0  3  0  0  0  0  0  0
  -22.8570  -10.3200   20.2880 C   0  0  0  0  0  3  0  0  0  0  0  0
  -21.7810   -7.0230   21.4740 O   0  0  0  0  0  0  0  0  0  0  0  0
  -21.7240   -6.2680   22.6200 C   0  0  0  0  0  0  0  0  0  0  0  0
  -21.2750   -6.8100   23.8450 C   0  0  0  0  0  3  0  0  0  0  0  0
  -21.1730   -5.9860   24.9850 C   0  0  0  0  0  3  0  0  0  0  0  0
  -21.5100   -4.6220   24.8950 C   0  0  0  0  0  0  0  0  0  0  0  0
  -21.9490   -4.0760   23.6780 C   0  0  0  0  0  3  0  0  0  0  0  0
  -22.0550   -4.8990   22.5400 C   0  0  0  0  0  0  0  0  0  0  0  0
  -22.4640   -4.3700   21.3620 F   0  0  0  0  0  0  0  0  0  0  0  0
  -21.4010   -3.8280   25.9850 F   0  0  0  0  0  0  0  0  0  0  0  0
  -22.8760  -13.6560   21.2170 C   0  0  0  0  0  0  0  0  0  0  0  0
  -22.1540  -12.9440   22.0710 N   0  0  0  0  0  0  0  0  0  0  0  0
  -22.4360  -14.6890   20.7110 O   0  0  0  0  0  0  0  0  0  0  0  0
  -22.5350  -12.1120   22.4980 H   0  0  0  0  0  0  0  0  0  0  0  0
  -21.2140  -13.2290   22.3050 H   0  0  0  0  0  0  0  0  0  0  0  0
  -25.4900  -15.3390   20.4050 N   0  0  0  0  0  0  0  0  0  0  0  0
  -24.7060  -15.9740   20.5140 H   0  0  0  0  0  0  0  0  0  0  0  0
  -26.3090  -15.7830   20.0170 H   0  0  0  0  0  0  0  0  0  0  0  0
  -29.5610  -21.5410   20.0760 C   0  0  0  0  0  2  0  0  0  0  0  0
  -28.3680  -22.8580   20.1340 C   0  0  0  0  0  2  0  0  0  0  0  0
  -28.3110  -24.5730   20.6370 C   0  0  0  0  0  2  0  0  0  0  0  0
  -28.3290  -26.0860   20.0520 O   0  0  0  0  0  0  0  0  0  0  0  0
  -24.6960  -31.9160   23.1940 C   0  0  0  0  0  0  0  0  0  0  0  0
  -27.2630  -27.1080   20.1250 C   0  0  0  0  0  0  0  0  0  0  0  0
  -23.4900  -30.5120   21.5720 C   0  0  0  0  0  3  0  0  0  0  0  0
  -24.9240  -28.9190   20.1280 C   0  0  0  0  0  0  0  0  0  0  0  0
  -26.0470  -30.7580   21.3710 C   0  0  0  0  0  2  0  0  0  0  0  0
  -26.1190  -29.3520   20.7190 C   0  0  0  0  0  0  0  0  0  0  0  0
  -27.2860  -28.4700   20.6840 C   0  0  0  0  0  3  0  0  0  0  0  0
  -26.0300  -26.8040   19.5010 C   0  0  0  0  0  3  0  0  0  0  0  0
  -24.8990  -27.6630   19.4990 C   0  0  0  0  0  3  0  0  0  0  0  0
  -23.7010  -29.8320   20.1920 C   0  0  0  0  0  2  0  0  0  0  0  0
  -24.7700  -31.0890   22.1010 N   0  0  0  0  0  0  0  0  0  0  0  0
  -23.6110  -32.1870   23.7340 O   0  0  0  0  0  0  0  0  0  0  0  0
  -22.8250  -29.5060   22.5450 C   0  0  0  0  0  0  0  0  0  0  0  0
  -21.4980  -29.3240   22.4310 N   0  0  0  0  0  0  0  0  0  0  0  0
  -23.5070  -28.8920   23.3670 O   0  0  0  0  0  0  0  0  0  0  0  0
  -21.0040  -29.8820   21.7480 H   0  0  0  0  0  0  0  0  0  0  0  0
  -18.1300  -28.0590   22.9490 C   0  0  0  0  0  0  0  0  0  0  0  0
  -20.6870  -28.3740   23.2030 C   0  0  0  0  0  3  0  0  0  0  0  0
  -20.8130  -26.9450   22.6310 C   0  0  0  0  0  2  0  0  0  0  0  0
  -19.7140  -26.5960   21.6200 C   0  0  0  0  0  2  0  0  0  0  0  0
  -18.3310  -26.7130   22.2720 C   0  0  0  0  0  2  0  0  0  0  0  0
  -19.2370  -28.8460   23.3670 C   0  0  0  0  0  0  0  0  0  0  0  0
  -18.9960  -30.1000   23.9640 C   0  0  0  0  0  3  0  0  0  0  0  0
  -17.6810  -30.5770   24.1390 C   0  0  0  0  0  3  0  0  0  0  0  0
  -16.5900  -29.7890   23.7300 C   0  0  0  0  0  3  0  0  0  0  0  0
  -16.8150  -28.5310   23.1450 C   0  0  0  0  0  3  0  0  0  0  0  0
  -25.9700  -32.5650   23.8140 C   0  0  0  0  0  3  0  0  0  0  0  0
  -25.6440  -33.9640   24.1510 N   0  0  0  0  0  0  0  0  0  0  0  0
  -25.9820  -35.0290   23.4090 C   0  0  0  0  0  0  0  0  0  0  0  0
  -26.6630  -34.9390   22.3840 O   0  0  0  0  0  0  0  0  0  0  0  0
  -25.0360  -34.1080   24.9430 H   0  0  0  0  0  0  0  0  0  0  0  0
  -24.2510  -36.8280   23.0670 C   0  0  0  0  0  1  0  0  0  0  0  0
  -25.4920  -36.4140   23.8790 C   0  0  0  0  0  3  0  0  0  0  0  0
  -27.6240  -37.2960   24.7290 C   0  0  0  0  0  1  0  0  0  0  0  0
  -26.5250  -37.4710   23.7780 N   0  0  0  0  0  0  0  0  0  0  0  0
  -26.1180  -38.3910   23.9310 H   0  0  0  0  0  0  0  0  0  0  0  0
  -26.4920  -31.8050   25.0960 C   0  0  1  0  0  0  0  0  0  0  0  0
  -25.4070  -31.5660   26.1730 C   0  0  0  0  0  1  0  0  0  0  0  0
  -27.0840  -30.4320   24.7090 C   0  0  0  0  0  1  0  0  0  0  0  0
  -27.6460  -32.6060   25.7460 C   0  0  0  0  0  1  0  0  0  0  0  0
  1 49  1  0
  1  6  1  0
  3  2  1  0
  4  2  1  0
  5  6  1  0
  5  3  1  0
  6  7  1  1
  6  4  1  0
 10  8  1  6
  9 10  1  0
 10 19  1  0
 10  1  1  0
 11 17  1  0
 11 19  1  0
 12 17  1  0
 13 14  1  0
 13 12  1  0
 15 14  1  0
 15 24  1  0
 15 16  1  0
 17 16  1  0
 18 11  2  0
 19 20  1  0
 21 22  2  0
 22 41  1  0
 23 22  1  0
 23 26  1  0
 24 25  1  0
 24 21  1  0
 25 23  2  0
 26 27  1  0
 27 28  2  0
 29 32  1  0
 29 28  1  0
 30 29  2  0
 31 30  1  0
 31 26  2  0
 32 33  1  0
 33 34  1  0
 34 35  2  0
 36 35  1  0
 36 40  1  0
 37 36  2  0
 38 33  2  0
 38 37  1  0
 39 38  1  0
 41 42  1  0
 42 45  1  0
 42 44  1  0
 43 41  2  0
 46 47  1  0
 46 21  1  0
 48 46  1  0
 49 50  1  0
 50 51  1  0
 52 54  1  0
 52 51  1  0
 53 64  2  0
 54 59  1  0
 55 63  1  0
 55 65  1  0
 56 62  1  0
 56 58  1  0
 57 63  1  0
 58 57  1  0
 59 58  2  0
 60 54  2  0
 61 60  1  0
 61 56  2  0
 62 55  1  0
 63 53  1  0
 65 67  2  0
 66 65  1  0
 68 66  1  0
 69 78  2  0
 69 74  1  0
 70 66  1  0
 70 74  1  0
 71 70  1  0
 72 73  1  0
 72 71  1  0
 73 69  1  0
 74 75  2  0
 75 76  1  0
 77 76  2  0
 78 77  1  0
 79 53  1  0
 79 80  1  0
 79 89  1  0
 80 83  1  0
 81 85  1  0
 81 80  1  0
 82 81  2  0
 85 84  1  0
 87 85  1  0
 87 88  1  0
 87 86  1  0
 89 92  1  1
 89 90  1  0
 91 89  1  0
M  ISO  4  11 100  19 100  51 101  52 101
M  END
>  <TORSDO>  (95) 
F 21

>  <SCORE>  (95) 
-16.569

>  <name>  (95) 
96

>  <ligand_id>  (95) 
96

>  <original_smiles>  (95) 
[H]c1c([H])c([H])c2c(c1[H])C([H])([H])C([H])([H])C([H])([H])C2([H])N([H])C(=O)C1([H])N(C(=O)C([H])(N([H])C(=O)C([H])(N([H])C([H])([H])[H])C([H])([H])[H])C(C([H])([H])[H])(C([H])([H])[H])C([H])([H])[H])C([H])([H])c2c([H])c(OC([H])([H])C([H])([H])C([H])([H])C([H])(C(N([H])C(=O)N3C([H])([H])C([H])([H])C([H])([H])C([H])(n4nc(-c5c([H])c([H])c(Oc6c([H])c([H])c(F)c([H])c6F)c([H])c5[H])c(C(=O)N([H])[H])c4N([H])[H])C3([H])[H])(C([H])([H])[H])C([H])([H])[H])[N+]3([H])C([H])([H])C([H])([H])C([H])([H])C3([H])[H])c([H])c([H])c2C1([H])[H]

>  <smiles>  (95) 
[H]c1c([H])c([H])c2c(c1[H])C([H])([H])C([H])([H])C([H])([H])C2([H])N([H])C(=O)C1([H])N(C(=O)C([H])(N([H])C(=O)C([H])(N([H])C([H])([H])[H])C([H])([H])[H])C(C([H])([H])[H])(C([H])([H])[H])C([H])([H])[H])C([H])([H])c2c([H])c(OC([H])([H])C([H])([H])C([H])([H])C([H])(C(N([H])C(=O)N3C([H])([H])C([H])([H])C([H])([H])C([H])(n4nc(-c5c([H])c([H])c(Oc6c([H])c([H])c(F)c([H])c6F)c([H])c5[H])c(C(=O)N([H])[H])c4N([H])[H])C3([H])[H])(C([H])([H])[H])C([H])([H])[H])[N+]3([H])C([H])([H])C([H])([H])C([H])([H])C3([H])[H])c([H])c([H])c2C1([H])[H]

$$$$
97:0:0
     RDKit          3D

 93100  0  0  1  0  0  0  0  0999 V2000
  -29.8000  -18.6560   20.6480 C   0  0  0  0  0  0  0  0  0  0  0  0
  -30.3420  -15.5540   20.3360 C   0  0  0  0  0  0  0  0  0  0  0  0
  -30.4260  -13.0260   19.5240 C   0  0  0  0  0  2  0  0  0  0  0  0
  -29.5430  -12.6320   18.3090 C   0  0  0  0  0  2  0  0  0  0  0  0
  -28.1130  -12.2930   18.7560 C   0  0  0  0  0  2  0  0  0  0  0  0
  -27.5970  -13.3010   19.8090 C   0  0  0  0  0  3  0  0  0  0  0  0
  -28.6190  -13.6100   20.9260 C   0  0  0  0  0  2  0  0  0  0  0  0
  -29.8010  -14.2070   20.2660 N   0  0  0  0  0  0  0  0  0  0  0  0
  -31.5770  -15.4860   20.1960 O   0  0  0  0  0  0  0  0  0  0  0  0
  -29.5960  -16.9130   20.3880 N   0  0  0  0  0  4  0  0  0  0  0  0
  -28.6090  -16.7120   20.3380 H   0  0  0  0  0  0  0  0  0  0  0  0
  -25.2340  -13.8280   20.5800 C   0  0  0  0  0  0  0  0  0  0  0  0
  -24.1720  -13.0430   20.9290 C   0  0  0  0  0  0  0  0  0  0  0  0
  -24.6420  -11.6940   20.8770 C   0  0  0  0  0  0  0  0  0  0  0  0
  -26.2780  -12.9600   20.3220 N   0  0  0  0  0  0  0  0  0  0  0  0
  -25.9360  -11.6680   20.5700 N   0  0  0  0  0  0  0  0  0  0  0  0
  -23.9120  -10.4290   21.0410 C   0  0  0  0  0  0  0  0  0  0  0  0
  -24.3660   -9.4200   21.9190 C   0  0  0  0  0  3  0  0  0  0  0  0
  -23.6310   -8.2250   22.0760 C   0  0  0  0  0  3  0  0  0  0  0  0
  -22.4300   -8.0290   21.3550 C   0  0  0  0  0  0  0  0  0  0  0  0
  -21.9940   -9.0270   20.4650 C   0  0  0  0  0  3  0  0  0  0  0  0
  -22.7290  -10.2140   20.3060 C   0  0  0  0  0  3  0  0  0  0  0  0
  -21.6650   -6.8900   21.4250 O   0  0  0  0  0  0  0  0  0  0  0  0
  -21.6860   -6.0750   22.5280 C   0  0  0  0  0  0  0  0  0  0  0  0
  -21.4020   -6.5650   23.8220 C   0  0  0  0  0  3  0  0  0  0  0  0
  -21.3660   -5.6800   24.9180 C   0  0  0  0  0  3  0  0  0  0  0  0
  -21.6040   -4.3060   24.7230 C   0  0  0  0  0  0  0  0  0  0  0  0
  -21.8810   -3.8160   23.4350 C   0  0  0  0  0  3  0  0  0  0  0  0
  -21.9190   -4.6970   22.3400 C   0  0  0  0  0  0  0  0  0  0  0  0
  -22.1660   -4.2160   21.0980 F   0  0  0  0  0  0  0  0  0  0  0  0
  -21.5630   -3.4540   25.7740 F   0  0  0  0  0  0  0  0  0  0  0  0
  -22.7730  -13.5170   21.1920 C   0  0  0  0  0  0  0  0  0  0  0  0
  -22.0390  -12.8160   22.0470 N   0  0  0  0  0  0  0  0  0  0  0  0
  -22.3410  -14.5470   20.6750 O   0  0  0  0  0  0  0  0  0  0  0  0
  -22.4030  -11.9830   22.4870 H   0  0  0  0  0  0  0  0  0  0  0  0
  -21.1000  -13.1160   22.2660 H   0  0  0  0  0  0  0  0  0  0  0  0
  -25.3930  -15.2020   20.4250 N   0  0  0  0  0  0  0  0  0  0  0  0
  -24.6210  -15.8470   20.5490 H   0  0  0  0  0  0  0  0  0  0  0  0
  -26.2340  -15.6500   20.0890 H   0  0  0  0  0  0  0  0  0  0  0  0
  -28.8630  -20.2790   20.1620 C   0  0  0  0  0  3  0  0  0  0  0  0
  -28.9300  -22.1850   20.4800 C   0  0  0  0  0  3  0  0  0  0  0  0
  -28.1230  -23.8190   18.4710 C   0  0  0  0  0  1  0  0  0  0  0  0
  -28.0730  -23.8350   20.0040 C   0  0  0  0  0  3  0  0  0  0  0  0
  -28.1960  -25.5490   20.3030 O   0  0  0  0  0  0  0  0  0  0  0  0
  -24.6800  -31.8040   23.1530 C   0  0  0  0  0  0  0  0  0  0  0  0
  -27.2230  -26.7440   20.2020 C   0  0  0  0  0  0  0  0  0  0  0  0
  -23.5040  -30.4080   21.5060 C   0  0  0  0  0  3  0  0  0  0  0  0
  -24.9600  -28.7590   20.1140 C   0  0  0  0  0  0  0  0  0  0  0  0
  -26.0830  -30.5510   21.4100 C   0  0  0  0  0  2  0  0  0  0  0  0
  -26.1490  -29.1210   20.7580 C   0  0  0  0  0  0  0  0  0  0  0  0
  -27.2660  -28.1400   20.7700 C   0  0  0  0  0  3  0  0  0  0  0  0
  -25.9960  -26.5770   19.5130 C   0  0  0  0  0  3  0  0  0  0  0  0
  -24.9190  -27.5100   19.4710 C   0  0  0  0  0  3  0  0  0  0  0  0
  -23.7560  -29.7100   20.1390 C   0  0  0  0  0  2  0  0  0  0  0  0
  -24.7790  -30.9530   22.0760 N   0  0  0  0  0  0  0  0  0  0  0  0
  -23.5830  -32.1100   23.6510 O   0  0  0  0  0  0  0  0  0  0  0  0
  -22.7760  -29.4330   22.4700 C   0  0  0  0  0  0  0  0  0  0  0  0
  -21.4400  -29.3040   22.3470 N   0  0  0  0  0  0  0  0  0  0  0  0
  -23.4220  -28.7920   23.3020 O   0  0  0  0  0  0  0  0  0  0  0  0
  -20.9690  -29.8720   21.6570 H   0  0  0  0  0  0  0  0  0  0  0  0
  -18.0340  -28.1420   22.8460 C   0  0  0  0  0  0  0  0  0  0  0  0
  -20.5980  -28.3780   23.1150 C   0  0  0  0  0  3  0  0  0  0  0  0
  -20.6810  -26.9440   22.5400 C   0  0  0  0  0  2  0  0  0  0  0  0
  -19.5790  -26.6370   21.5220 C   0  0  0  0  0  2  0  0  0  0  0  0
  -18.1970  -26.7950   22.1620 C   0  0  0  0  0  2  0  0  0  0  0  0
  -19.1610  -28.8930   23.2790 C   0  0  0  0  0  0  0  0  0  0  0  0
  -18.9520  -30.1510   23.8840 C   0  0  0  0  0  3  0  0  0  0  0  0
  -17.6510  -30.6610   24.0560 C   0  0  0  0  0  3  0  0  0  0  0  0
  -16.5400  -29.9090   23.6350 C   0  0  0  0  0  3  0  0  0  0  0  0
  -16.7330  -28.6510   23.0370 C   0  0  0  0  0  3  0  0  0  0  0  0
  -25.9390  -32.4490   23.8070 C   0  0  0  0  0  3  0  0  0  0  0  0
  -25.6000  -33.8310   24.1960 N   0  0  0  0  0  0  0  0  0  0  0  0
  -25.9110  -34.9300   23.4950 C   0  0  0  0  0  0  0  0  0  0  0  0
  -26.5740  -34.8880   22.4560 O   0  0  0  0  0  0  0  0  0  0  0  0
  -25.0110  -33.9360   25.0100 H   0  0  0  0  0  0  0  0  0  0  0  0
  -24.1490  -36.7170   23.2650 C   0  0  0  0  0  1  0  0  0  0  0  0
  -25.4130  -36.2900   24.0290 C   0  0  0  0  0  3  0  0  0  0  0  0
  -27.5560  -37.1730   24.8460 C   0  0  0  0  0  1  0  0  0  0  0  0
  -26.4260  -37.3660   23.9420 N   0  0  0  0  0  0  0  0  0  0  0  0
  -26.0080  -38.2700   24.1460 H   0  0  0  0  0  0  0  0  0  0  0  0
  -26.4580  -31.6520   25.0680 C   0  0  1  0  0  0  0  0  0  0  0  0
  -25.3650  -31.3850   26.1310 C   0  0  0  0  0  1  0  0  0  0  0  0
  -27.0510  -30.2860   24.6560 C   0  0  0  0  0  1  0  0  0  0  0  0
  -27.6040  -32.4370   25.7490 C   0  0  0  0  0  1  0  0  0  0  0  0
  -30.2720  -18.8560   22.1680 C   0  0  2  0  0  0  0  0  0  0  0  0
  -32.3130  -20.3440   21.3290 C   0  0  0  0  0  1  0  0  0  0  0  0
  -31.1140  -20.1730   22.2820 C   0  0  0  0  0  2  0  0  0  0  0  0
  -32.0800  -17.8210   23.8890 C   0  0  0  0  0  1  0  0  0  0  0  0
  -31.2090  -17.6790   22.6240 C   0  0  0  0  0  2  0  0  0  0  0  0
  -29.1660  -19.6660   24.4660 C   0  0  0  0  0  1  0  0  0  0  0  0
  -28.9800  -18.9710   23.0910 C   0  0  0  0  0  3  0  0  0  0  0  0
  -26.7490  -17.8250   23.7820 C   0  0  0  0  0  1  0  0  0  0  0  0
  -28.1950  -17.6460   23.2950 C   0  0  0  0  0  2  0  0  0  0  0  0
  1 85  1  0
  2 10  1  0
  3  8  1  0
  4  5  1  0
  4  3  1  0
  6  5  1  0
  6 15  1  0
  6  7  1  0
  8  2  1  0
  8  7  1  0
  9  2  2  0
 10  1  2  0
 11 10  1  0
 12 13  2  0
 13 32  1  0
 14 13  1  0
 14 17  1  0
 15 16  1  0
 15 12  1  0
 16 14  2  0
 17 18  1  0
 18 19  2  0
 20 23  1  0
 20 19  1  0
 21 20  2  0
 22 21  1  0
 22 17  2  0
 23 24  1  0
 24 25  1  0
 25 26  2  0
 27 26  1  0
 27 31  1  0
 28 27  2  0
 29 24  2  0
 29 28  1  0
 30 29  1  0
 32 33  1  0
 33 36  1  0
 33 35  1  0
 34 32  2  0
 37 38  1  0
 37 12  1  0
 39 37  1  0
 40 41  2  0
 40  1  1  0
 43 42  1  0
 43 44  1  0
 43 41  1  0
 45 56  2  0
 46 44  1  0
 46 51  1  0
 47 55  1  0
 47 57  1  0
 48 54  1  0
 48 50  1  0
 49 55  1  0
 50 51  2  0
 50 49  1  0
 52 46  2  0
 53 52  1  0
 53 48  2  0
 54 47  1  0
 55 45  1  0
 57 59  2  0
 58 57  1  0
 60 58  1  0
 61 70  2  0
 61 66  1  0
 62 58  1  0
 62 66  1  0
 63 62  1  0
 64 65  1  0
 64 63  1  0
 65 61  1  0
 66 67  2  0
 67 68  1  0
 69 68  2  0
 70 69  1  0
 71 45  1  0
 71 72  1  0
 71 81  1  0
 72 75  1  0
 73 77  1  0
 73 72  1  0
 74 73  2  0
 77 76  1  0
 79 77  1  0
 79 80  1  0
 79 78  1  0
 81 84  1  1
 81 82  1  0
 83 81  1  0
 85 87  1  6
 85 89  1  0
 85 91  1  0
 86 87  1  0
 89 88  1  0
 91 93  1  0
 91 90  1  0
 93 92  1  0
M  ISO  4   2 100  10 100  43 101  44 101
M  END
>  <TORSDO>  (96) 
F 24

>  <SCORE>  (96) 
17.919

>  <name>  (96) 
97

>  <ligand_id>  (96) 
97

>  <original_smiles>  (96) 
[H]c1c([H])c([H])c2c(c1[H])C([H])([H])C([H])([H])C([H])([H])C2([H])N([H])C(=O)C1([H])N(C(=O)C([H])(N([H])C(=O)C([H])(N([H])C([H])([H])[H])C([H])([H])[H])C(C([H])([H])[H])(C([H])([H])[H])C([H])([H])[H])C([H])([H])c2c([H])c(OC([H])(C([H])([H])[H])C([H])([H])C([H])([H])C([H])(N([H])C(=O)N3C([H])([H])C([H])([H])C([H])([H])C([H])(n4nc(-c5c([H])c([H])c(Oc6c([H])c([H])c(F)c([H])c6F)c([H])c5[H])c(C(=O)N([H])[H])c4N([H])[H])C3([H])[H])C(C([H])([H])C([H])([H])[H])(C([H])([H])C([H])([H])[H])C([H])(C([H])([H])[H])C([H])([H])C([H])([H])[H])c([H])c([H])c2C1([H])[H]

>  <smiles>  (96) 
[H]c1c([H])c([H])c2c(c1[H])C([H])([H])C([H])([H])C([H])([H])C2([H])N([H])C(=O)C1([H])N(C(=O)C([H])(N([H])C(=O)C([H])(N([H])C([H])([H])[H])C([H])([H])[H])C(C([H])([H])[H])(C([H])([H])[H])C([H])([H])[H])C([H])([H])c2c([H])c(OC([H])(C([H])([H])[H])C([H])([H])C([H])([H])C([H])(N([H])C(=O)N3C([H])([H])C([H])([H])C([H])([H])C([H])(n4nc(-c5c([H])c([H])c(Oc6c([H])c([H])c(F)c([H])c6F)c([H])c5[H])c(C(=O)N([H])[H])c4N([H])[H])C3([H])[H])C(C([H])([H])C([H])([H])[H])(C([H])([H])C([H])([H])[H])C([H])(C([H])([H])[H])C([H])([H])C([H])([H])[H])c([H])c([H])c2C1([H])[H]

$$$$
98:0:0
     RDKit          3D

 88 95  0  0  1  0  0  0  0  0999 V2000
  -29.2060  -21.2780   20.2650 C   0  0  0  0  0  2  0  0  0  0  0  0
  -27.8000  -22.8010   18.4600 C   0  0  0  0  0  1  0  0  0  0  0  0
  -28.6980  -22.9140   19.7000 C   0  0  0  0  0  3  0  0  0  0  0  0
  -28.1600  -24.4040   20.5190 C   0  0  0  0  0  2  0  0  0  0  0  0
  -28.3540  -26.0080   20.2830 O   0  0  0  0  0  0  0  0  0  0  0  0
  -24.6690  -31.9100   23.1710 C   0  0  0  0  0  0  0  0  0  0  0  0
  -27.3160  -27.0590   20.2660 C   0  0  0  0  0  0  0  0  0  0  0  0
  -23.5170  -30.4930   21.5200 C   0  0  0  0  0  3  0  0  0  0  0  0
  -25.0060  -28.8880   20.1480 C   0  0  0  0  0  0  0  0  0  0  0  0
  -26.0780  -30.7340   21.4180 C   0  0  0  0  0  2  0  0  0  0  0  0
  -26.1740  -29.3180   20.7860 C   0  0  0  0  0  0  0  0  0  0  0  0
  -27.3330  -28.4270   20.8160 C   0  0  0  0  0  3  0  0  0  0  0  0
  -26.1200  -26.7670   19.5780 C   0  0  0  0  0  3  0  0  0  0  0  0
  -25.0020  -27.6350   19.5170 C   0  0  0  0  0  3  0  0  0  0  0  0
  -23.7790  -29.7960   20.1560 C   0  0  0  0  0  2  0  0  0  0  0  0
  -24.7740  -31.0740   22.0920 N   0  0  0  0  0  0  0  0  0  0  0  0
  -23.5670  -32.1950   23.6700 O   0  0  0  0  0  0  0  0  0  0  0  0
  -22.8140  -29.4970   22.4800 C   0  0  0  0  0  0  0  0  0  0  0  0
  -21.4820  -29.3510   22.3530 N   0  0  0  0  0  0  0  0  0  0  0  0
  -23.4730  -28.8590   23.3040 O   0  0  0  0  0  0  0  0  0  0  0  0
  -21.0050  -29.9250   21.6740 H   0  0  0  0  0  0  0  0  0  0  0  0
  -18.0760  -28.2270   22.8860 C   0  0  0  0  0  0  0  0  0  0  0  0
  -20.6470  -28.4180   23.1130 C   0  0  0  0  0  3  0  0  0  0  0  0
  -20.7000  -26.9980   22.5020 C   0  0  0  0  0  2  0  0  0  0  0  0
  -19.5690  -26.7170   21.5080 C   0  0  0  0  0  2  0  0  0  0  0  0
  -18.2030  -26.8880   22.1790 C   0  0  0  0  0  2  0  0  0  0  0  0
  -19.2230  -28.9500   23.3130 C   0  0  0  0  0  0  0  0  0  0  0  0
  -19.0450  -30.1990   23.9450 C   0  0  0  0  0  3  0  0  0  0  0  0
  -17.7550  -30.7250   24.1560 C   0  0  0  0  0  3  0  0  0  0  0  0
  -16.6250  -30.0030   23.7390 C   0  0  0  0  0  3  0  0  0  0  0  0
  -16.7880  -28.7550   23.1110 C   0  0  0  0  0  3  0  0  0  0  0  0
  -25.9240  -32.5670   23.8260 C   0  0  0  0  0  3  0  0  0  0  0  0
  -25.5860  -33.9620   24.1580 N   0  0  0  0  0  0  0  0  0  0  0  0
  -25.9040  -35.0290   23.4090 C   0  0  0  0  0  0  0  0  0  0  0  0
  -26.5760  -34.9410   22.3810 O   0  0  0  0  0  0  0  0  0  0  0  0
  -24.9900  -34.1030   24.9600 H   0  0  0  0  0  0  0  0  0  0  0  0
  -24.1470  -36.8030   23.0680 C   0  0  0  0  0  1  0  0  0  0  0  0
  -25.3960  -36.4090   23.8760 C   0  0  0  0  0  3  0  0  0  0  0  0
  -27.5100  -37.3370   24.7180 C   0  0  0  0  0  1  0  0  0  0  0  0
  -26.4110  -37.4810   23.7640 N   0  0  0  0  0  0  0  0  0  0  0  0
  -25.9890  -38.3950   23.9030 H   0  0  0  0  0  0  0  0  0  0  0  0
  -26.4180  -31.8050   25.1170 C   0  0  1  0  0  0  0  0  0  0  0  0
  -25.2980  -31.5390   26.1480 C   0  0  0  0  0  1  0  0  0  0  0  0
  -27.0450  -30.4400   24.7480 C   0  0  0  0  0  1  0  0  0  0  0  0
  -27.5290  -32.6210   25.8160 C   0  0  0  0  0  1  0  0  0  0  0  0
  -27.7250  -19.1000   20.2270 C   0  0  0  0  0  1  0  0  0  0  0  0
  -29.1090  -19.5610   19.7120 C   0  0  1  0  0  0  0  0  0  0  0  0
  -27.8390  -19.4350   17.3380 C   0  0  0  0  0  1  0  0  0  0  0  0
  -29.1630  -19.5140   18.1450 C   0  0  0  0  0  2  0  0  0  0  0  0
  -30.1460  -18.1850   20.1860 C   0  0  0  0  0  2  0  0  0  0  0  0
  -30.6580  -15.3110   20.0230 C   0  0  0  0  0  0  0  0  0  0  0  0
  -30.5960  -12.8830   19.1320 C   0  0  0  0  0  2  0  0  0  0  0  0
  -29.6230  -12.7100   17.9390 C   0  0  0  0  0  2  0  0  0  0  0  0
  -28.1760  -12.4980   18.4230 C   0  0  0  0  0  2  0  0  0  0  0  0
  -27.7960  -13.4340   19.5960 C   0  0  0  0  0  3  0  0  0  0  0  0
  -28.8950  -13.5140   20.6720 C   0  0  0  0  0  2  0  0  0  0  0  0
  -30.0970  -14.0100   19.9920 N   0  0  0  0  0  0  0  0  0  0  0  0
  -31.8700  -15.3320   19.7620 O   0  0  0  0  0  0  0  0  0  0  0  0
  -29.8760  -16.5490   20.1440 N   0  0  0  0  0  0  0  0  0  0  0  0
  -28.8990  -16.3390   20.2750 H   0  0  0  0  0  0  0  0  0  0  0  0
  -25.4720  -14.0020   20.4820 C   0  0  0  0  0  0  0  0  0  0  0  0
  -24.4200  -13.2260   20.8830 C   0  0  0  0  0  0  0  0  0  0  0  0
  -24.8650  -11.8730   20.7840 C   0  0  0  0  0  0  0  0  0  0  0  0
  -26.4900  -13.1210   20.1580 N   0  0  0  0  0  0  0  0  0  0  0  0
  -26.1380  -11.8330   20.4070 N   0  0  0  0  0  0  0  0  0  0  0  0
  -24.1290  -10.6150   20.9670 C   0  0  0  0  0  0  0  0  0  0  0  0
  -24.5570   -9.6320   21.8850 C   0  0  0  0  0  3  0  0  0  0  0  0
  -23.8160   -8.4420   22.0580 C   0  0  0  0  0  3  0  0  0  0  0  0
  -22.6330   -8.2270   21.3120 C   0  0  0  0  0  0  0  0  0  0  0  0
  -22.2250   -9.1980   20.3820 C   0  0  0  0  0  3  0  0  0  0  0  0
  -22.9650  -10.3780   20.2080 C   0  0  0  0  0  3  0  0  0  0  0  0
  -21.8650   -7.0900   21.3960 O   0  0  0  0  0  0  0  0  0  0  0  0
  -21.7950   -6.3540   22.5500 C   0  0  0  0  0  0  0  0  0  0  0  0
  -21.3040   -6.9020   23.7560 C   0  0  0  0  0  3  0  0  0  0  0  0
  -21.1810   -6.0900   24.9010 C   0  0  0  0  0  3  0  0  0  0  0  0
  -21.5410   -4.7300   24.8430 C   0  0  0  0  0  0  0  0  0  0  0  0
  -22.0280   -4.1830   23.6440 C   0  0  0  0  0  3  0  0  0  0  0  0
  -22.1520   -4.9900   22.5010 C   0  0  0  0  0  0  0  0  0  0  0  0
  -22.6010   -4.4520   21.3420 F   0  0  0  0  0  0  0  0  0  0  0  0
  -21.4150   -3.9490   25.9400 F   0  0  0  0  0  0  0  0  0  0  0  0
  -23.0450  -13.7120   21.2300 C   0  0  0  0  0  0  0  0  0  0  0  0
  -22.3420  -13.0060   22.1090 N   0  0  0  0  0  0  0  0  0  0  0  0
  -22.6020  -14.7570   20.7550 O   0  0  0  0  0  0  0  0  0  0  0  0
  -22.7060  -12.1570   22.5150 H   0  0  0  0  0  0  0  0  0  0  0  0
  -21.4190  -13.3220   22.3790 H   0  0  0  0  0  0  0  0  0  0  0  0
  -25.6350  -15.3760   20.3340 N   0  0  0  0  0  0  0  0  0  0  0  0
  -24.8610  -16.0130   20.5010 H   0  0  0  0  0  0  0  0  0  0  0  0
  -26.4150  -15.8210   19.8670 H   0  0  0  0  0  0  0  0  0  0  0  0
  3  2  1  0
  3  1  1  0
  3  4  1  0
  5  4  1  0
  6 17  2  0
  7  5  1  0
  7 12  1  0
  8 16  1  0
  8 18  1  0
  9 15  1  0
  9 11  1  0
 10 16  1  0
 11 12  2  0
 11 10  1  0
 13  7  2  0
 14 13  1  0
 14  9  2  0
 15  8  1  0
 16  6  1  0
 18 20  2  0
 19 18  1  0
 21 19  1  0
 22 31  2  0
 22 27  1  0
 23 19  1  0
 23 27  1  0
 24 23  1  0
 25 26  1  0
 25 24  1  0
 26 22  1  0
 27 28  2  0
 28 29  1  0
 30 29  2  0
 31 30  1  0
 32  6  1  0
 32 33  1  0
 32 42  1  0
 33 36  1  0
 34 38  1  0
 34 33  1  0
 35 34  2  0
 38 37  1  0
 40 38  1  0
 40 41  1  0
 40 39  1  0
 42 45  1  1
 42 43  1  0
 44 42  1  0
 47 50  1  0
 47 46  1  6
 47  1  1  0
 48 49  1  0
 49 47  1  0
 51 59  1  0
 52 57  1  0
 53 54  1  0
 53 52  1  0
 55 54  1  0
 55 64  1  0
 55 56  1  0
 57 51  1  0
 57 56  1  0
 58 51  2  0
 59 50  1  0
 59 60  1  0
 61 62  2  0
 62 81  1  0
 63 62  1  0
 63 66  1  0
 64 65  1  0
 64 61  1  0
 65 63  2  0
 66 67  1  0
 67 68  2  0
 69 72  1  0
 69 68  1  0
 70 69  2  0
 71 70  1  0
 71 66  2  0
 72 73  1  0
 73 74  1  0
 74 75  2  0
 76 75  1  0
 76 80  1  0
 77 76  2  0
 78 73  2  0
 78 77  1  0
 79 78  1  0
 81 82  1  0
 82 85  1  0
 82 84  1  0
 83 81  2  0
 86 61  1  0
 86 87  1  0
 88 86  1  0
M  ISO  4   4 101   5 101  51 100  59 100
M  END
>  <TORSDO>  (97) 
F 21

>  <SCORE>  (97) 
-15.319

>  <name>  (97) 
98

>  <ligand_id>  (97) 
98

>  <original_smiles>  (97) 
[H]c1c([H])c([H])c2c(c1[H])C([H])([H])C([H])([H])C([H])([H])C2([H])N([H])C(=O)C1([H])N(C(=O)C([H])(N([H])C(=O)C([H])(N([H])C([H])([H])[H])C([H])([H])[H])C(C([H])([H])[H])(C([H])([H])[H])C([H])([H])[H])C([H])([H])c2c([H])c(OC([H])([H])C([H])(C([H])([H])[H])C([H])([H])C(C([H])([H])[H])(C([H])([H])N([H])C(=O)N3C([H])([H])C([H])([H])C([H])([H])C([H])(n4nc(-c5c([H])c([H])c(Oc6c([H])c([H])c(F)c([H])c6F)c([H])c5[H])c(C(=O)N([H])[H])c4N([H])[H])C3([H])[H])C([H])([H])C([H])([H])[H])c([H])c([H])c2C1([H])[H]

>  <smiles>  (97) 
[H]c1c([H])c([H])c2c(c1[H])C([H])([H])C([H])([H])C([H])([H])C2([H])N([H])C(=O)C1([H])N(C(=O)C([H])(N([H])C(=O)C([H])(N([H])C([H])([H])[H])C([H])([H])[H])C(C([H])([H])[H])(C([H])([H])[H])C([H])([H])[H])C([H])([H])c2c([H])c(OC([H])([H])C([H])(C([H])([H])[H])C([H])([H])C(C([H])([H])[H])(C([H])([H])N([H])C(=O)N3C([H])([H])C([H])([H])C([H])([H])C([H])(n4nc(-c5c([H])c([H])c(Oc6c([H])c([H])c(F)c([H])c6F)c([H])c5[H])c(C(=O)N([H])[H])c4N([H])[H])C3([H])[H])C([H])([H])C([H])([H])[H])c([H])c([H])c2C1([H])[H]

$$$$
99:0:0
     RDKit          3D

 94101  0  0  1  0  0  0  0  0999 V2000
  -28.2410  -22.0610   19.5830 N   0  0  2  0  0  4  0  0  0  0  0  0
  -27.6180  -21.7780   20.3250 H   0  0  0  0  0  0  0  0  0  0  0  0
  -28.6300  -23.7480   21.5180 C   0  0  0  0  0  1  0  0  0  0  0  0
  -28.5600  -23.5960   19.9800 C   0  0  0  0  0  3  0  0  0  0  0  0
  -27.6050  -24.9190   19.5200 C   0  0  0  0  0  2  0  0  0  0  0  0
  -27.8790  -26.4300   19.7910 O   0  0  0  0  0  0  0  0  0  0  0  0
  -24.4500  -32.0210   23.1490 C   0  0  0  0  0  0  0  0  0  0  0  0
  -26.8220  -27.4110   19.8120 C   0  0  0  0  0  0  0  0  0  0  0  0
  -23.1470  -30.6800   21.5430 C   0  0  0  0  0  3  0  0  0  0  0  0
  -24.5030  -29.1520   19.9810 C   0  0  0  0  0  0  0  0  0  0  0  0
  -25.6880  -30.9500   21.2310 C   0  0  0  0  0  2  0  0  0  0  0  0
  -25.7170  -29.5790   20.5320 C   0  0  0  0  0  0  0  0  0  0  0  0
  -26.8780  -28.7230   20.4340 C   0  0  0  0  0  3  0  0  0  0  0  0
  -25.5810  -27.0900   19.2220 C   0  0  0  0  0  3  0  0  0  0  0  0
  -24.4460  -27.9230   19.3120 C   0  0  0  0  0  3  0  0  0  0  0  0
  -23.2820  -30.0460   20.1320 C   0  0  0  0  0  2  0  0  0  0  0  0
  -24.4520  -31.2350   22.0300 N   0  0  0  0  0  0  0  0  0  0  0  0
  -23.3990  -32.2930   23.7480 O   0  0  0  0  0  0  0  0  0  0  0  0
  -22.5260  -29.6420   22.5110 C   0  0  0  0  0  0  0  0  0  0  0  0
  -21.2140  -29.3840   22.3730 N   0  0  0  0  0  0  0  0  0  0  0  0
  -23.2290  -29.0730   23.3530 O   0  0  0  0  0  0  0  0  0  0  0  0
  -20.7020  -29.9010   21.6720 H   0  0  0  0  0  0  0  0  0  0  0  0
  -17.9320  -27.9080   22.7880 C   0  0  0  0  0  0  0  0  0  0  0  0
  -20.4440  -28.4060   23.1470 C   0  0  0  0  0  3  0  0  0  0  0  0
  -20.6960  -26.9670   22.6370 C   0  0  0  0  0  2  0  0  0  0  0  0
  -19.6710  -26.5100   21.5930 C   0  0  0  0  0  2  0  0  0  0  0  0
  -18.2560  -26.5550   22.1750 C   0  0  0  0  0  2  0  0  0  0  0  0
  -18.9610  -28.7820   23.2300 C   0  0  0  0  0  0  0  0  0  0  0  0
  -18.6070  -30.0410   23.7630 C   0  0  0  0  0  3  0  0  0  0  0  0
  -17.2570  -30.4270   23.8600 C   0  0  0  0  0  3  0  0  0  0  0  0
  -16.2420  -29.5510   23.4370 C   0  0  0  0  0  3  0  0  0  0  0  0
  -16.5810  -28.2940   22.9050 C   0  0  0  0  0  3  0  0  0  0  0  0
  -25.7660  -32.6370   23.7160 C   0  0  0  0  0  3  0  0  0  0  0  0
  -25.4750  -34.0220   24.1230 N   0  0  0  0  0  0  0  0  0  0  0  0
  -25.7610  -35.1080   23.3940 C   0  0  0  0  0  0  0  0  0  0  0  0
  -26.3640  -35.0510   22.3200 O   0  0  0  0  0  0  0  0  0  0  0  0
  -24.9370  -34.1380   24.9680 H   0  0  0  0  0  0  0  0  0  0  0  0
  -24.0100  -36.9110   23.2430 C   0  0  0  0  0  1  0  0  0  0  0  0
  -25.3060  -36.4760   23.9450 C   0  0  0  0  0  3  0  0  0  0  0  0
  -27.4890  -37.3440   24.6620 C   0  0  0  0  0  1  0  0  0  0  0  0
  -26.3260  -37.5370   23.8000 N   0  0  0  0  0  0  0  0  0  0  0  0
  -25.9290  -38.4490   24.0080 H   0  0  0  0  0  0  0  0  0  0  0  0
  -26.3570  -31.8200   24.9310 C   0  0  1  0  0  0  0  0  0  0  0  0
  -25.3150  -31.4900   26.0260 C   0  0  0  0  0  1  0  0  0  0  0  0
  -26.9720  -30.4850   24.4480 C   0  0  0  0  0  1  0  0  0  0  0  0
  -27.5060  -32.6200   25.5900 C   0  0  0  0  0  1  0  0  0  0  0  0
  -30.4840  -21.1450   20.5220 C   0  0  0  0  0  1  0  0  0  0  0  0
  -29.3400  -20.8870   19.5380 C   0  0  0  0  0  3  0  0  0  0  0  0
  -28.9490  -19.2270   19.5240 C   0  0  0  0  0  2  0  0  0  0  0  0
  -29.8710  -17.9550   20.1700 C   0  0  0  0  0  3  0  0  0  0  0  0
  -30.3800  -15.2800   19.7370 C   0  0  0  0  0  0  0  0  0  0  0  0
  -30.2870  -12.9080   18.8580 C   0  0  0  0  0  2  0  0  0  0  0  0
  -29.2430  -12.7840   17.7260 C   0  0  0  0  0  2  0  0  0  0  0  0
  -27.8400  -12.5260   18.3050 C   0  0  0  0  0  2  0  0  0  0  0  0
  -27.5000  -13.4720   19.4870 C   0  0  0  0  0  3  0  0  0  0  0  0
  -28.6550  -13.5570   20.5080 C   0  0  0  0  0  2  0  0  0  0  0  0
  -29.8400  -14.0000   19.7650 N   0  0  0  0  0  0  0  0  0  0  0  0
  -31.5490  -15.3970   19.3540 O   0  0  0  0  0  0  0  0  0  0  0  0
  -29.5620  -16.4180   19.9680 N   0  0  0  0  0  0  0  0  0  0  0  0
  -28.6060  -16.1650   20.1660 H   0  0  0  0  0  0  0  0  0  0  0  0
  -25.2460  -13.9800   20.5900 C   0  0  0  0  0  0  0  0  0  0  0  0
  -24.2210  -13.1740   21.0020 C   0  0  0  0  0  0  0  0  0  0  0  0
  -24.6460  -11.8330   20.7530 C   0  0  0  0  0  0  0  0  0  0  0  0
  -26.2300  -13.1290   20.1170 N   0  0  0  0  0  0  0  0  0  0  0  0
  -25.8870  -11.8240   20.2790 N   0  0  0  0  0  0  0  0  0  0  0  0
  -23.9200  -10.5620   20.8840 C   0  0  0  0  0  0  0  0  0  0  0  0
  -24.3890   -9.5270   21.7230 C   0  0  0  0  0  3  0  0  0  0  0  0
  -23.6620   -8.3230   21.8470 C   0  0  0  0  0  3  0  0  0  0  0  0
  -22.4540   -8.1460   21.1320 C   0  0  0  0  0  0  0  0  0  0  0  0
  -22.0030   -9.1720   20.2810 C   0  0  0  0  0  3  0  0  0  0  0  0
  -22.7310  -10.3660   20.1540 C   0  0  0  0  0  3  0  0  0  0  0  0
  -21.6940   -7.0010   21.1710 O   0  0  0  0  0  0  0  0  0  0  0  0
  -21.6680   -6.1930   22.2780 C   0  0  0  0  0  0  0  0  0  0  0  0
  -21.2270   -6.6640   23.5340 C   0  0  0  0  0  3  0  0  0  0  0  0
  -21.1500   -5.7820   24.6300 C   0  0  0  0  0  3  0  0  0  0  0  0
  -21.5050   -4.4280   24.4710 C   0  0  0  0  0  0  0  0  0  0  0  0
  -21.9400   -3.9560   23.2200 C   0  0  0  0  0  3  0  0  0  0  0  0
  -22.0180   -4.8360   22.1270 C   0  0  0  0  0  0  0  0  0  0  0  0
  -22.4180   -4.3710   20.9180 F   0  0  0  0  0  0  0  0  0  0  0  0
  -21.4240   -3.5780   25.5210 F   0  0  0  0  0  0  0  0  0  0  0  0
  -22.8780  -13.6260   21.5010 C   0  0  0  0  0  0  0  0  0  0  0  0
  -22.2480  -12.8400   22.3650 N   0  0  0  0  0  0  0  0  0  0  0  0
  -22.4020  -14.7090   21.1610 O   0  0  0  0  0  0  0  0  0  0  0  0
  -22.6460  -11.9580   22.6570 H   0  0  0  0  0  0  0  0  0  0  0  0
  -21.3530  -13.1210   22.7400 H   0  0  0  0  0  0  0  0  0  0  0  0
  -25.4160  -15.3620   20.5530 N   0  0  0  0  0  0  0  0  0  0  0  0
  -24.6780  -16.0000   20.8300 H   0  0  0  0  0  0  0  0  0  0  0  0
  -26.2020  -15.8320   20.1250 H   0  0  0  0  0  0  0  0  0  0  0  0
  -29.8350  -18.1590   21.7120 C   0  0  0  0  0  2  0  0  0  0  0  0
  -30.9060  -18.4170   23.9810 C   0  0  0  0  0  1  0  0  0  0  0  0
  -32.1320  -19.2800   21.9530 C   0  0  0  0  0  1  0  0  0  0  0  0
  -31.1750  -18.1980   22.4820 C   0  0  0  0  0  3  0  0  0  0  0  0
  -26.1440  -21.0780   18.5970 C   0  0  0  0  0  1  0  0  0  0  0  0
  -27.3840  -21.9580   18.3680 C   0  0  0  0  0  2  0  0  0  0  0  0
  1  4  1  0
  1  2  1  1
  4  3  1  0
  5  6  1  0
  5  4  1  0
  6  8  1  0
  7 18  2  0
  8 13  1  0
  9 17  1  0
  9 19  1  0
 10 16  1  0
 10 12  1  0
 11 17  1  0
 12 11  1  0
 13 12  2  0
 14 15  1  0
 14  8  2  0
 15 10  2  0
 16  9  1  0
 17  7  1  0
 19 21  2  0
 20 19  1  0
 22 20  1  0
 23 32  2  0
 23 28  1  0
 24 20  1  0
 24 28  1  0
 25 24  1  0
 26 27  1  0
 26 25  1  0
 27 23  1  0
 28 29  2  0
 29 30  1  0
 31 30  2  0
 32 31  1  0
 33  7  1  0
 33 34  1  0
 33 43  1  0
 34 37  1  0
 35 39  1  0
 35 34  1  0
 36 35  2  0
 39 38  1  0
 41 39  1  0
 41 42  1  0
 41 40  1  0
 43 46  1  1
 43 44  1  0
 45 43  1  0
 48  1  1  0
 48 47  1  0
 49 48  1  0
 50 49  1  0
 50 89  1  0
 51 57  1  0
 51 59  1  0
 52 57  1  0
 53 54  1  0
 53 52  1  0
 55 54  1  0
 55 64  1  0
 55 56  1  0
 57 56  1  0
 58 51  2  0
 59 60  1  0
 59 50  1  0
 61 62  2  0
 62 81  1  0
 63 66  1  0
 63 62  1  0
 64 65  1  0
 64 61  1  0
 65 63  2  0
 66 67  1  0
 67 68  2  0
 69 72  1  0
 69 68  1  0
 70 69  2  0
 71 70  1  0
 71 66  2  0
 72 73  1  0
 73 74  1  0
 74 75  2  0
 76 75  1  0
 76 80  1  0
 77 76  2  0
 78 73  2  0
 78 77  1  0
 79 78  1  0
 81 82  1  0
 82 84  1  0
 82 85  1  0
 83 81  2  0
 86 61  1  0
 86 87  1  0
 88 86  1  0
 89 92  1  0
 91 92  1  0
 92 90  1  0
 94 93  1  0
 94  1  1  0
M  ISO  4   5 101   6 101  51 100  59 100
M  END
>  <TORSDO>  (98) 
F 24

>  <SCORE>  (98) 
-11.832

>  <name>  (98) 
99

>  <ligand_id>  (98) 
99

>  <original_smiles>  (98) 
[H]c1c([H])c([H])c2c(c1[H])C([H])([H])C([H])([H])C([H])([H])C2([H])N([H])C(=O)C1([H])N(C(=O)C([H])(N([H])C(=O)C([H])(N([H])C([H])([H])[H])C([H])([H])[H])C(C([H])([H])[H])(C([H])([H])[H])C([H])([H])[H])C([H])([H])c2c([H])c(OC([H])([H])C([H])(C([H])([H])[H])[N+]([H])(C([H])([H])C([H])([H])[H])C([H])(C([H])([H])[H])C([H])([H])C([H])(N([H])C(=O)N3C([H])([H])C([H])([H])C([H])([H])C([H])(n4nc(-c5c([H])c([H])c(Oc6c([H])c([H])c(F)c([H])c6F)c([H])c5[H])c(C(=O)N([H])[H])c4N([H])[H])C3([H])[H])C([H])([H])C([H])(C([H])([H])[H])C([H])([H])[H])c([H])c([H])c2C1([H])[H]

>  <smiles>  (98) 
[H]c1c([H])c([H])c2c(c1[H])C([H])([H])C([H])([H])C([H])([H])C2([H])N([H])C(=O)C1([H])N(C(=O)C([H])(N([H])C(=O)C([H])(N([H])C([H])([H])[H])C([H])([H])[H])C(C([H])([H])[H])(C([H])([H])[H])C([H])([H])[H])C([H])([H])c2c([H])c(OC([H])([H])C([H])(C([H])([H])[H])[N+]([H])(C([H])([H])C([H])([H])[H])C([H])(C([H])([H])[H])C([H])([H])C([H])(N([H])C(=O)N3C([H])([H])C([H])([H])C([H])([H])C([H])(n4nc(-c5c([H])c([H])c(Oc6c([H])c([H])c(F)c([H])c6F)c([H])c5[H])c(C(=O)N([H])[H])c4N([H])[H])C3([H])[H])C([H])([H])C([H])(C([H])([H])[H])C([H])([H])[H])c([H])c([H])c2C1([H])[H]

$$$$
