0:0:0
     RDKit          3D

 99106  0  0  1  0  0  0  0  0999 V2000
  -29.8140  -21.4360   19.7900 C   0  0  0  0  0  3  0  0  0  0  0  0
  -30.4260  -20.2110   20.5170 N   0  0  0  0  0  4  0  0  0  0  0  0
  -31.3390  -20.0930   20.1070 H   0  0  0  0  0  0  0  0  0  0  0  0
  -30.5850  -20.5100   21.4680 H   0  0  0  0  0  0  0  0  0  0  0  0
  -29.8100  -18.7950   20.5980 C   0  0  0  0  0  2  0  0  0  0  0  0
  -30.7410  -17.4640   20.3030 C   0  0  0  0  0  3  0  0  0  0  0  0
  -30.8660  -14.9270   20.9920 C   0  0  0  0  0  0  0  0  0  0  0  0
  -30.7120  -12.6220   20.0770 C   0  0  0  0  0  2  0  0  0  0  0  0
  -29.9020  -12.6450   18.7640 C   0  0  0  0  0  2  0  0  0  0  0  0
  -28.3990  -12.4820   19.0620 C   0  0  0  0  0  2  0  0  0  0  0  0
  -27.9050  -13.4200   20.1970 C   0  0  0  0  0  3  0  0  0  0  0  0
  -28.8580  -13.4050   21.4110 C   0  0  0  0  0  2  0  0  0  0  0  0
  -30.1990  -13.7280   20.9090 N   0  0  0  0  0  0  0  0  0  0  0  0
  -32.0940  -14.9380   20.9930 O   0  0  0  0  0  0  0  0  0  0  0  0
  -30.1740  -16.1040   20.7450 N   0  0  0  0  0  0  0  0  0  0  0  0
  -29.1740  -16.0130   20.6850 H   0  0  0  0  0  0  0  0  0  0  0  0
  -25.4580  -14.0020   20.7020 C   0  0  0  0  0  0  0  0  0  0  0  0
  -24.3670  -13.2260   20.9810 C   0  0  0  0  0  0  0  0  0  0  0  0
  -24.8380  -11.8780   21.0120 C   0  0  0  0  0  0  0  0  0  0  0  0
  -26.5240  -13.1280   20.5750 N   0  0  0  0  0  0  0  0  0  0  0  0
  -26.1520  -11.8470   20.8300 N   0  0  0  0  0  0  0  0  0  0  0  0
  -24.1040  -10.6130   21.1460 C   0  0  0  0  0  0  0  0  0  0  0  0
  -24.4640   -9.6510   22.1150 C   0  0  0  0  0  3  0  0  0  0  0  0
  -23.7290   -8.4500   22.2370 C   0  0  0  0  0  3  0  0  0  0  0  0
  -22.6220   -8.2050   21.3920 C   0  0  0  0  0  0  0  0  0  0  0  0
  -22.2840   -9.1580   20.4150 C   0  0  0  0  0  3  0  0  0  0  0  0
  -23.0170  -10.3490   20.2900 C   0  0  0  0  0  3  0  0  0  0  0  0
  -21.8630   -7.0600   21.4240 O   0  0  0  0  0  0  0  0  0  0  0  0
  -21.7300   -6.3160   22.5690 C   0  0  0  0  0  0  0  0  0  0  0  0
  -21.1990   -6.8650   23.7580 C   0  0  0  0  0  3  0  0  0  0  0  0
  -21.0190   -6.0470   24.8910 C   0  0  0  0  0  3  0  0  0  0  0  0
  -21.3520   -4.6800   24.8340 C   0  0  0  0  0  0  0  0  0  0  0  0
  -21.8730   -4.1310   23.6490 C   0  0  0  0  0  3  0  0  0  0  0  0
  -22.0580   -4.9470   22.5190 C   0  0  0  0  0  0  0  0  0  0  0  0
  -22.5410   -4.4080   21.3740 F   0  0  0  0  0  0  0  0  0  0  0  0
  -21.1710   -3.8910   25.9180 F   0  0  0  0  0  0  0  0  0  0  0  0
  -22.9470  -13.6980   21.1100 C   0  0  0  0  0  0  0  0  0  0  0  0
  -22.1450  -13.0120   21.9190 N   0  0  0  0  0  0  0  0  0  0  0  0
  -22.5540  -14.7090   20.5300 O   0  0  0  0  0  0  0  0  0  0  0  0
  -22.4760  -12.1890   22.4020 H   0  0  0  0  0  0  0  0  0  0  0  0
  -21.1920  -13.3130   22.0590 H   0  0  0  0  0  0  0  0  0  0  0  0
  -25.6310  -15.3700   20.5180 N   0  0  0  0  0  0  0  0  0  0  0  0
  -24.8510  -16.0170   20.5370 H   0  0  0  0  0  0  0  0  0  0  0  0
  -26.4960  -15.8080   20.2320 H   0  0  0  0  0  0  0  0  0  0  0  0
  -32.0010  -16.1050   18.3900 C   0  0  0  0  0  1  0  0  0  0  0  0
  -29.9050  -17.2980   17.8780 C   0  0  0  0  0  1  0  0  0  0  0  0
  -31.1640  -17.3560   18.7710 C   0  0  1  0  0  0  0  0  0  0  0  0
  -33.3730  -18.7160   19.0530 C   0  0  0  0  0  1  0  0  0  0  0  0
  -32.0190  -18.5590   18.3250 C   0  0  0  0  0  2  0  0  0  0  0  0
  -29.0870  -22.4870   20.7890 C   0  0  0  0  0  0  0  0  0  0  0  0
  -28.3920  -22.0230   21.6970 O   0  0  0  0  0  0  0  0  0  0  0  0
  -29.2170  -24.0990   20.7550 C   0  0  0  0  0  2  0  0  0  0  0  0
  -28.2890  -24.7810   18.4600 C   0  0  0  0  0  1  0  0  0  0  0  0
  -28.2040  -25.0730   19.9640 C   0  0  0  0  0  3  0  0  0  0  0  0
  -28.3400  -26.5590   20.1600 O   0  0  0  0  0  0  0  0  0  0  0  0
  -24.6320  -31.9580   23.2410 C   0  0  0  0  0  0  0  0  0  0  0  0
  -27.2130  -27.4120   20.1140 C   0  0  0  0  0  0  0  0  0  0  0  0
  -23.4110  -30.5670   21.6110 C   0  0  0  0  0  3  0  0  0  0  0  0
  -24.8420  -29.0440   20.1420 C   0  0  0  0  0  0  0  0  0  0  0  0
  -25.9450  -30.8990   21.3840 C   0  0  0  0  0  2  0  0  0  0  0  0
  -26.0230  -29.5270   20.7180 C   0  0  0  0  0  0  0  0  0  0  0  0
  -27.2080  -28.7290   20.6880 C   0  0  0  0  0  3  0  0  0  0  0  0
  -25.9930  -26.9850   19.5350 C   0  0  0  0  0  3  0  0  0  0  0  0
  -24.8310  -27.7780   19.5400 C   0  0  0  0  0  3  0  0  0  0  0  0
  -23.6060  -29.9160   20.2170 C   0  0  0  0  0  2  0  0  0  0  0  0
  -24.6830  -31.1580   22.1350 N   0  0  0  0  0  0  0  0  0  0  0  0
  -23.5560  -32.2160   23.8000 O   0  0  0  0  0  0  0  0  0  0  0  0
  -22.7750  -29.5310   22.5700 C   0  0  0  0  0  0  0  0  0  0  0  0
  -21.4510  -29.3350   22.4580 N   0  0  0  0  0  0  0  0  0  0  0  0
  -23.4730  -28.9100   23.3760 O   0  0  0  0  0  0  0  0  0  0  0  0
  -20.9470  -29.8920   21.7830 H   0  0  0  0  0  0  0  0  0  0  0  0
  -18.1030  -28.0590   22.9740 C   0  0  0  0  0  0  0  0  0  0  0  0
  -20.6550  -28.3800   23.2340 C   0  0  0  0  0  3  0  0  0  0  0  0
  -20.7890  -26.9490   22.6640 C   0  0  0  0  0  2  0  0  0  0  0  0
  -19.6940  -26.5940   21.6550 C   0  0  0  0  0  2  0  0  0  0  0  0
  -18.3100  -26.7110   22.3030 C   0  0  0  0  0  2  0  0  0  0  0  0
  -19.2060  -28.8490   23.3970 C   0  0  0  0  0  0  0  0  0  0  0  0
  -18.9610  -30.1060   23.9900 C   0  0  0  0  0  3  0  0  0  0  0  0
  -17.6460  -30.5770   24.1610 C   0  0  0  0  0  3  0  0  0  0  0  0
  -16.5580  -29.7860   23.7530 C   0  0  0  0  0  3  0  0  0  0  0  0
  -16.7860  -28.5270   23.1660 C   0  0  0  0  0  3  0  0  0  0  0  0
  -25.9190  -32.6010   23.8430 C   0  0  0  0  0  3  0  0  0  0  0  0
  -26.4520  -31.8470   25.1240 C   0  0  1  0  0  0  0  0  0  0  0  0
  -25.3700  -31.6170   26.2040 C   0  0  0  0  0  1  0  0  0  0  0  0
  -27.0360  -30.4680   24.7380 C   0  0  0  0  0  1  0  0  0  0  0  0
  -27.6020  -32.6570   25.7670 C   0  0  0  0  0  1  0  0  0  0  0  0
  -25.6100  -34.0020   24.1680 N   0  0  0  0  0  0  0  0  0  0  0  0
  -25.9420  -35.0550   23.4100 C   0  0  0  0  0  0  0  0  0  0  0  0
  -26.6110  -34.9510   22.3790 O   0  0  0  0  0  0  0  0  0  0  0  0
  -25.0240  -34.1580   24.9760 H   0  0  0  0  0  0  0  0  0  0  0  0
  -24.2240  -36.8540   23.0380 C   0  0  0  0  0  1  0  0  0  0  0  0
  -25.4520  -36.4430   23.8650 C   0  0  0  0  0  3  0  0  0  0  0  0
  -27.5750  -37.3170   24.7330 C   0  0  0  0  0  1  0  0  0  0  0  0
  -26.4890  -37.4950   23.7720 N   0  0  0  0  0  0  0  0  0  0  0  0
  -26.0820  -38.4150   23.9200 H   0  0  0  0  0  0  0  0  0  0  0  0
  -30.9180  -22.1550   18.9330 C   0  0  0  0  0  2  0  0  0  0  0  0
  -31.7700  -23.0990   16.7480 C   0  0  0  0  0  1  0  0  0  0  0  0
  -29.6750  -21.6730   16.6630 C   0  0  0  0  0  1  0  0  0  0  0  0
  -31.0030  -21.9330   17.3930 C   0  0  0  0  0  3  0  0  0  0  0  0
  1 96  1  0
  1  2  1  0
  1 50  1  0
  2  5  1  0
  2  4  1  0
  3  2  1  0
  6  5  1  0
  6 15  1  0
  7 14  2  0
  8 13  1  0
  9 10  1  0
  9  8  1  0
 11 10  1  0
 11 20  1  0
 11 12  1  0
 13  7  1  0
 13 12  1  0
 15  7  1  0
 16 15  1  0
 17 18  2  0
 18 19  1  0
 18 37  1  0
 19 22  1  0
 20 17  1  0
 20 21  1  0
 21 19  2  0
 22 23  1  0
 23 24  2  0
 25 28  1  0
 25 24  1  0
 26 25  2  0
 27 26  1  0
 27 22  2  0
 28 29  1  0
 29 30  1  0
 30 31  2  0
 32 31  1  0
 32 36  1  0
 33 32  2  0
 34 29  2  0
 34 33  1  0
 35 34  1  0
 37 38  1  0
 38 41  1  0
 38 40  1  0
 39 37  2  0
 42 43  1  0
 42 17  1  0
 44 42  1  0
 47 45  1  1
 46 47  1  0
 47  6  1  0
 49 47  1  0
 49 48  1  0
 50 51  2  0
 52 50  1  0
 54 53  1  0
 54 55  1  0
 54 52  1  0
 56 67  2  0
 57 55  1  0
 57 62  1  0
 58 66  1  0
 58 68  1  0
 59 65  1  0
 59 61  1  0
 60 66  1  0
 61 60  1  0
 62 61  2  0
 63 64  1  0
 63 57  2  0
 64 59  2  0
 65 58  1  0
 66 56  1  0
 68 70  2  0
 69 68  1  0
 71 69  1  0
 72 81  2  0
 72 77  1  0
 73 69  1  0
 73 77  1  0
 74 73  1  0
 75 76  1  0
 75 74  1  0
 76 72  1  0
 77 78  2  0
 78 79  1  0
 80 79  2  0
 81 80  1  0
 82 56  1  0
 82 87  1  0
 82 83  1  0
 83 86  1  1
 83 84  1  0
 85 83  1  0
 87 90  1  0
 88 92  1  0
 88 87  1  0
 89 88  2  0
 92 91  1  0
 94 92  1  0
 94 95  1  0
 94 93  1  0
 97 99  1  0
 98 99  1  0
 99 96  1  0
M  ISO  4   7 100  15 100  54 101  55 101
M  END
>  <TORSDO>  (1) 
F 26

>  <SCORE>  (1) 
-11.641

>  <name>  (1) 
0

>  <ligand_id>  (1) 
0

>  <original_smiles>  (1) 
[H]c1c([H])c([H])c2c(c1[H])C([H])([H])C([H])([H])C([H])([H])C2([H])N([H])C(=O)C1([H])N(C(=O)C([H])(N([H])C(=O)C([H])(N([H])C([H])([H])[H])C([H])([H])[H])C(C([H])([H])[H])(C([H])([H])[H])C([H])([H])[H])C([H])([H])c2c([H])c(OC([H])(C([H])([H])[H])C([H])([H])C(=O)C([H])(C([H])([H])C([H])(C([H])([H])[H])C([H])([H])[H])[N+]([H])([H])C([H])([H])C([H])(N([H])C(=O)N3C([H])([H])C([H])([H])C([H])([H])C([H])(n4nc(-c5c([H])c([H])c(Oc6c([H])c([H])c(F)c([H])c6F)c([H])c5[H])c(C(=O)N([H])[H])c4N([H])[H])C3([H])[H])C(C([H])([H])[H])(C([H])([H])[H])C([H])([H])C([H])([H])[H])c([H])c([H])c2C1([H])[H]

>  <smiles>  (1) 
[H]c1c([H])c([H])c2c(c1[H])C([H])([H])C([H])([H])C([H])([H])C2([H])N([H])C(=O)C1([H])N(C(=O)C([H])(N([H])C(=O)C([H])(N([H])C([H])([H])[H])C([H])([H])[H])C(C([H])([H])[H])(C([H])([H])[H])C([H])([H])[H])C([H])([H])c2c([H])c(OC([H])(C([H])([H])[H])C([H])([H])C(=O)C([H])(C([H])([H])C([H])(C([H])([H])[H])C([H])([H])[H])[N+]([H])([H])C([H])([H])C([H])(N([H])C(=O)N3C([H])([H])C([H])([H])C([H])([H])C([H])(n4nc(-c5c([H])c([H])c(Oc6c([H])c([H])c(F)c([H])c6F)c([H])c5[H])c(C(=O)N([H])[H])c4N([H])[H])C3([H])[H])C(C([H])([H])[H])(C([H])([H])[H])C([H])([H])C([H])([H])[H])c([H])c([H])c2C1([H])[H]

$$$$
1:0:0
     RDKit          3D

 98106  0  0  1  0  0  0  0  0999 V2000
  -28.7170  -21.2450   21.6300 C   0  0  0  0  0  2  0  0  0  0  0  0
  -28.2240  -20.3270   20.4810 C   0  0  0  0  0  2  0  0  0  0  0  0
  -29.3330  -19.4290   19.8810 C   0  0  0  0  0  2  0  0  0  0  0  0
  -29.5480  -18.0350   20.4980 C   0  0  0  0  0  0  0  0  0  0  0  0
  -28.6730  -17.5280   21.2100 O   0  0  0  0  0  0  0  0  0  0  0  0
  -33.1650  -18.8230   18.9760 C   0  0  0  0  0  2  0  0  0  0  0  0
  -31.9830  -18.4380   18.0820 C   0  0  0  0  0  2  0  0  0  0  0  0
  -32.7050  -19.1010   20.4120 C   0  0  0  0  0  2  0  0  0  0  0  0
  -31.1860  -17.2410   18.6480 C   0  0  0  0  0  2  0  0  0  0  0  0
  -32.0300  -17.8650   21.0320 C   0  0  0  0  0  2  0  0  0  0  0  0
  -30.8620  -17.2530   20.1920 C   0  0  1  0  0  0  0  0  0  0  0  0
  -31.3380  -14.7460   20.3960 C   0  0  0  0  0  0  0  0  0  0  0  0
  -31.0090  -12.4940   19.4810 C   0  0  0  0  0  2  0  0  0  0  0  0
  -30.1100  -12.6210   18.2340 C   0  0  0  0  0  2  0  0  0  0  0  0
  -28.6220  -12.5530   18.6320 C   0  0  0  0  0  2  0  0  0  0  0  0
  -28.2670  -13.5020   19.8100 C   0  0  0  0  0  3  0  0  0  0  0  0
  -29.2940  -13.3800   20.9610 C   0  0  0  0  0  2  0  0  0  0  0  0
  -30.6380  -13.5820   20.3990 N   0  0  0  0  0  0  0  0  0  0  0  0
  -32.4950  -14.8180   19.9820 O   0  0  0  0  0  0  0  0  0  0  0  0
  -30.6120  -15.8540   20.6320 N   0  0  0  0  0  0  0  0  0  0  0  0
  -29.6920  -15.7110   21.0250 H   0  0  0  0  0  0  0  0  0  0  0  0
  -25.9060  -14.2100   20.5530 C   0  0  0  0  0  0  0  0  0  0  0  0
  -24.7940  -13.4840   20.8820 C   0  0  0  0  0  0  0  0  0  0  0  0
  -25.1720  -12.1110   20.7780 C   0  0  0  0  0  0  0  0  0  0  0  0
  -26.8980  -13.2830   20.2770 N   0  0  0  0  0  0  0  0  0  0  0  0
  -26.4590  -12.0120   20.4700 N   0  0  0  0  0  0  0  0  0  0  0  0
  -24.3690  -10.8870   20.9030 C   0  0  0  0  0  0  0  0  0  0  0  0
  -24.7190   -9.8600   21.8080 C   0  0  0  0  0  3  0  0  0  0  0  0
  -23.9190   -8.7030   21.9210 C   0  0  0  0  0  3  0  0  0  0  0  0
  -22.7550   -8.5630   21.1300 C   0  0  0  0  0  0  0  0  0  0  0  0
  -22.4230   -9.5780   20.2150 C   0  0  0  0  0  3  0  0  0  0  0  0
  -23.2220  -10.7270   20.0980 C   0  0  0  0  0  3  0  0  0  0  0  0
  -21.9330   -7.4610   21.1530 O   0  0  0  0  0  0  0  0  0  0  0  0
  -21.7460   -6.7270   22.2970 C   0  0  0  0  0  0  0  0  0  0  0  0
  -21.2460   -7.3080   23.4820 C   0  0  0  0  0  3  0  0  0  0  0  0
  -21.0050   -6.5030   24.6130 C   0  0  0  0  0  3  0  0  0  0  0  0
  -21.2510   -5.1190   24.5600 C   0  0  0  0  0  0  0  0  0  0  0  0
  -21.7430   -4.5360   23.3780 C   0  0  0  0  0  3  0  0  0  0  0  0
  -21.9880   -5.3380   22.2480 C   0  0  0  0  0  0  0  0  0  0  0  0
  -22.4410   -4.7680   21.1060 F   0  0  0  0  0  0  0  0  0  0  0  0
  -21.0130   -4.3440   25.6440 F   0  0  0  0  0  0  0  0  0  0  0  0
  -23.4270  -14.0310   21.1830 C   0  0  0  0  0  0  0  0  0  0  0  0
  -22.6690  -13.3540   22.0370 N   0  0  0  0  0  0  0  0  0  0  0  0
  -23.0410  -15.0940   20.6940 O   0  0  0  0  0  0  0  0  0  0  0  0
  -22.9920  -12.4930   22.4550 H   0  0  0  0  0  0  0  0  0  0  0  0
  -21.7520  -13.7030   22.2780 H   0  0  0  0  0  0  0  0  0  0  0  0
  -26.1510  -15.5760   20.4470 N   0  0  0  0  0  0  0  0  0  0  0  0
  -25.4220  -16.2660   20.5990 H   0  0  0  0  0  0  0  0  0  0  0  0
  -27.0310  -15.9880   20.1670 H   0  0  0  0  0  0  0  0  0  0  0  0
  -28.0670  -22.6540   21.7000 C   0  0  0  0  0  3  0  0  0  0  0  0
  -28.7220  -23.5700   20.7260 N   0  0  0  0  0  4  0  0  0  0  0  0
  -29.7050  -23.3410   20.7460 H   0  0  0  0  0  0  0  0  0  0  0  0
  -28.3920  -23.3690   19.7950 H   0  0  0  0  0  0  0  0  0  0  0  0
  -28.6160  -25.0290   20.9880 C   0  0  0  0  0  2  0  0  0  0  0  0
  -29.3530  -25.8720   19.9230 C   0  0  0  0  0  2  0  0  0  0  0  0
  -29.2110  -27.2730   20.1760 O   0  0  0  0  0  0  0  0  0  0  0  0
  -24.7970  -31.8520   23.3260 C   0  0  0  0  0  0  0  0  0  0  0  0
  -27.9600  -27.8560   20.1360 C   0  0  0  0  0  0  0  0  0  0  0  0
  -23.8040  -30.4920   21.5130 C   0  0  0  0  0  3  0  0  0  0  0  0
  -25.4530  -29.1710   20.0920 C   0  0  0  0  0  0  0  0  0  0  0  0
  -26.3010  -31.0430   21.5160 C   0  0  0  0  0  2  0  0  0  0  0  0
  -26.5270  -29.7360   20.7870 C   0  0  0  0  0  0  0  0  0  0  0  0
  -27.7820  -29.0870   20.8040 C   0  0  0  0  0  3  0  0  0  0  0  0
  -26.8610  -27.2960   19.4390 C   0  0  0  0  0  3  0  0  0  0  0  0
  -25.6140  -27.9490   19.4190 C   0  0  0  0  0  3  0  0  0  0  0  0
  -24.1480  -29.9340   20.1080 C   0  0  0  0  0  2  0  0  0  0  0  0
  -24.9800  -31.1400   22.1790 N   0  0  0  0  0  0  0  0  0  0  0  0
  -23.6650  -32.0100   23.8090 O   0  0  0  0  0  0  0  0  0  0  0  0
  -23.1710  -29.3620   22.3530 C   0  0  0  0  0  0  0  0  0  0  0  0
  -21.8580  -29.1460   22.1700 N   0  0  0  0  0  0  0  0  0  0  0  0
  -23.8570  -28.6860   23.1240 O   0  0  0  0  0  0  0  0  0  0  0  0
  -21.3670  -29.7430   21.5200 H   0  0  0  0  0  0  0  0  0  0  0  0
  -18.5130  -27.8220   22.4830 C   0  0  0  0  0  0  0  0  0  0  0  0
  -21.0580  -28.1120   22.8240 C   0  0  0  0  0  3  0  0  0  0  0  0
  -21.2110  -26.7570   22.0950 C   0  0  0  0  0  2  0  0  0  0  0  0
  -20.1290  -26.5170   21.0370 C   0  0  0  0  0  2  0  0  0  0  0  0
  -18.7350  -26.5570   21.6710 C   0  0  0  0  0  2  0  0  0  0  0  0
  -19.6050  -28.5600   23.0110 C   0  0  0  0  0  0  0  0  0  0  0  0
  -19.3460  -29.7480   23.7280 C   0  0  0  0  0  3  0  0  0  0  0  0
  -18.0280  -30.1980   23.9270 C   0  0  0  0  0  3  0  0  0  0  0  0
  -16.9490  -29.4530   23.4190 C   0  0  0  0  0  3  0  0  0  0  0  0
  -17.1920  -28.2670   22.7040 C   0  0  0  0  0  3  0  0  0  0  0  0
  -25.9920  -32.5210   24.0750 C   0  0  0  0  0  3  0  0  0  0  0  0
  -26.3670  -31.7930   25.4240 C   0  0  1  0  0  0  0  0  0  0  0  0
  -25.1630  -31.5750   26.3690 C   0  0  0  0  0  1  0  0  0  0  0  0
  -26.9980  -30.4100   25.1430 C   0  0  0  0  0  1  0  0  0  0  0  0
  -27.4350  -32.6170   26.1830 C   0  0  0  0  0  1  0  0  0  0  0  0
  -25.6310  -33.9230   24.3230 N   0  0  0  0  0  0  0  0  0  0  0  0
  -26.0620  -34.9600   23.5920 C   0  0  0  0  0  0  0  0  0  0  0  0
  -26.8760  -34.8390   22.6720 O   0  0  0  0  0  0  0  0  0  0  0  0
  -24.9290  -34.0940   25.0290 H   0  0  0  0  0  0  0  0  0  0  0  0
  -24.3990  -36.7250   22.9330 C   0  0  0  0  0  1  0  0  0  0  0  0
  -25.5010  -36.3520   23.9370 C   0  0  0  0  0  3  0  0  0  0  0  0
  -27.4750  -37.2740   25.0690 C   0  0  0  0  0  1  0  0  0  0  0  0
  -26.5330  -37.4120   23.9610 N   0  0  0  0  0  0  0  0  0  0  0  0
  -26.1010  -38.3310   24.0250 H   0  0  0  0  0  0  0  0  0  0  0  0
  -25.7700  -23.9000   21.7610 C   0  0  0  0  0  1  0  0  0  0  0  0
  -26.5280  -22.5790   21.5420 C   0  0  0  0  0  2  0  0  0  0  0  0
  1 50  1  0
  2  1  1  0
  3  2  1  0
  3  4  1  0
  4  5  2  0
  6  8  1  0
  7  9  1  0
  7  6  1  0
  8 10  1  0
  9 11  1  0
 11  4  1  0
 11 20  1  1
 11 10  1  0
 12 18  1  0
 12 20  1  0
 13 18  1  0
 14 15  1  0
 14 13  1  0
 16 15  1  0
 16 25  1  0
 16 17  1  0
 18 17  1  0
 19 12  2  0
 20 21  1  0
 22 23  2  0
 23 42  1  0
 24 23  1  0
 24 27  1  0
 25 26  1  0
 25 22  1  0
 26 24  2  0
 27 28  1  0
 28 29  2  0
 30 33  1  0
 30 29  1  0
 31 30  2  0
 32 31  1  0
 32 27  2  0
 33 34  1  0
 34 35  1  0
 35 36  2  0
 37 36  1  0
 37 41  1  0
 38 37  2  0
 39 34  2  0
 39 38  1  0
 40 39  1  0
 42 43  1  0
 43 46  1  0
 43 45  1  0
 44 42  2  0
 47 22  1  0
 47 48  1  0
 49 47  1  0
 50 98  1  0
 51 52  1  0
 51 54  1  0
 51 50  1  0
 53 51  1  0
 55 56  1  0
 55 54  1  0
 57 68  2  0
 58 56  1  0
 58 63  1  0
 59 67  1  0
 59 69  1  0
 60 66  1  0
 60 62  1  0
 61 67  1  0
 62 63  2  0
 62 61  1  0
 64 58  2  0
 65 64  1  0
 65 60  2  0
 66 59  1  0
 67 57  1  0
 69 71  2  0
 70 69  1  0
 72 70  1  0
 73 82  2  0
 73 78  1  0
 74 70  1  0
 74 78  1  0
 75 74  1  0
 76 77  1  0
 76 75  1  0
 77 73  1  0
 78 79  2  0
 79 80  1  0
 81 80  2  0
 82 81  1  0
 83 57  1  0
 83 88  1  0
 83 84  1  0
 84 87  1  1
 84 85  1  0
 86 84  1  0
 88 91  1  0
 89 93  1  0
 89 88  1  0
 90 89  2  0
 93 92  1  0
 93 95  1  0
 95 96  1  0
 95 94  1  0
 98 97  1  0
M  ISO  4  12 100  20 100  55 101  56 101
M  END
>  <TORSDO>  (2) 
F 25

>  <SCORE>  (2) 
-10.846

>  <name>  (2) 
1

>  <ligand_id>  (2) 
1

>  <original_smiles>  (2) 
[H]c1c([H])c([H])c2c(c1[H])C([H])([H])C([H])([H])C([H])([H])C2([H])N([H])C(=O)C1([H])N(C(=O)C([H])(N([H])C(=O)C([H])(N([H])C([H])([H])[H])C([H])([H])[H])C(C([H])([H])[H])(C([H])([H])[H])C([H])([H])[H])C([H])([H])c2c([H])c(OC([H])([H])C([H])([H])[N+]([H])([H])C([H])(C([H])([H])C([H])([H])[H])C([H])([H])C([H])([H])C([H])([H])C(=O)C3(N([H])C(=O)N4C([H])([H])C([H])([H])C([H])([H])C([H])(n5nc(-c6c([H])c([H])c(Oc7c([H])c([H])c(F)c([H])c7F)c([H])c6[H])c(C(=O)N([H])[H])c5N([H])[H])C4([H])[H])C([H])([H])C([H])([H])C([H])([H])C([H])([H])C3([H])[H])c([H])c([H])c2C1([H])[H]

>  <smiles>  (2) 
[H]c1c([H])c([H])c2c(c1[H])C([H])([H])C([H])([H])C([H])([H])C2([H])N([H])C(=O)C1([H])N(C(=O)C([H])(N([H])C(=O)C([H])(N([H])C([H])([H])[H])C([H])([H])[H])C(C([H])([H])[H])(C([H])([H])[H])C([H])([H])[H])C([H])([H])c2c([H])c(OC([H])([H])C([H])([H])[N+]([H])([H])C([H])(C([H])([H])C([H])([H])[H])C([H])([H])C([H])([H])C([H])([H])C(=O)C3(N([H])C(=O)N4C([H])([H])C([H])([H])C([H])([H])C([H])(n5nc(-c6c([H])c([H])c(Oc7c([H])c([H])c(F)c([H])c7F)c([H])c6[H])c(C(=O)N([H])[H])c5N([H])[H])C4([H])[H])C([H])([H])C([H])([H])C([H])([H])C([H])([H])C3([H])[H])c([H])c([H])c2C1([H])[H]

$$$$
2:0:0
     RDKit          3D

106113  0  0  1  0  0  0  0  0999 V2000
  -29.8210  -21.9980   19.5730 C   0  0  0  0  0  0  0  0  0  0  0  0
  -29.3340  -23.2120   19.9790 N   0  0  0  0  0  0  0  0  0  0  0  0
  -30.8570  -21.9160   18.9110 O   0  0  0  0  0  0  0  0  0  0  0  0
  -28.4830  -23.2110   20.5230 H   0  0  0  0  0  0  0  0  0  0  0  0
  -30.1080  -24.4950   20.0580 C   0  0  0  0  0  3  0  0  0  0  0  0
  -30.5140  -24.6990   21.5290 C   0  0  0  0  0  0  0  0  0  0  0  0
  -31.6660  -25.3100   21.7830 N   0  0  0  0  0  0  0  0  0  0  0  0
  -29.7990  -24.2900   22.4460 O   0  0  0  0  0  0  0  0  0  0  0  0
  -32.2520  -25.6410   21.0290 H   0  0  0  0  0  0  0  0  0  0  0  0
  -31.9670  -25.4510   22.7360 H   0  0  0  0  0  0  0  0  0  0  0  0
  -29.4540  -25.8360   19.4660 C   0  0  0  0  0  3  0  0  0  0  0  0
  -29.8780  -25.0690   17.0170 C   0  0  0  0  0  1  0  0  0  0  0  0
  -28.8750  -25.6290   18.0430 C   0  0  0  0  0  2  0  0  0  0  0  0
  -28.8010  -26.7490   20.4320 O   0  0  0  0  0  0  0  0  0  0  0  0
  -24.5660  -31.8120   23.2630 C   0  0  0  0  0  0  0  0  0  0  0  0
  -27.6190  -27.4880   20.2700 C   0  0  0  0  0  0  0  0  0  0  0  0
  -23.5460  -30.3910   21.5230 C   0  0  0  0  0  3  0  0  0  0  0  0
  -25.1600  -28.9530   20.1660 C   0  0  0  0  0  0  0  0  0  0  0  0
  -26.0700  -30.8500   21.5070 C   0  0  0  0  0  2  0  0  0  0  0  0
  -26.2630  -29.4980   20.8330 C   0  0  0  0  0  0  0  0  0  0  0  0
  -27.4910  -28.7760   20.8740 C   0  0  0  0  0  3  0  0  0  0  0  0
  -26.4610  -26.9620   19.6530 C   0  0  0  0  0  3  0  0  0  0  0  0
  -25.2590  -27.6870   19.5720 C   0  0  0  0  0  3  0  0  0  0  0  0
  -23.8800  -29.7580   20.1470 C   0  0  0  0  0  2  0  0  0  0  0  0
  -24.7430  -31.0330   22.1570 N   0  0  0  0  0  0  0  0  0  0  0  0
  -23.4380  -32.0210   23.7320 O   0  0  0  0  0  0  0  0  0  0  0  0
  -22.8790  -29.3200   22.4190 C   0  0  0  0  0  0  0  0  0  0  0  0
  -21.5630  -29.1140   22.2360 N   0  0  0  0  0  0  0  0  0  0  0  0
  -23.5430  -28.6800   23.2370 O   0  0  0  0  0  0  0  0  0  0  0  0
  -21.0830  -29.6910   21.5590 H   0  0  0  0  0  0  0  0  0  0  0  0
  -18.1890  -27.8730   22.6290 C   0  0  0  0  0  0  0  0  0  0  0  0
  -20.7420  -28.1280   22.9410 C   0  0  0  0  0  3  0  0  0  0  0  0
  -20.8570  -26.7320   22.2850 C   0  0  0  0  0  2  0  0  0  0  0  0
  -19.7690  -26.4640   21.2420 C   0  0  0  0  0  2  0  0  0  0  0  0
  -18.3790  -26.5660   21.8760 C   0  0  0  0  0  2  0  0  0  0  0  0
  -19.2980  -28.6140   23.1140 C   0  0  0  0  0  0  0  0  0  0  0  0
  -19.0640  -29.8400   23.7750 C   0  0  0  0  0  3  0  0  0  0  0  0
  -17.7550  -30.3230   23.9550 C   0  0  0  0  0  3  0  0  0  0  0  0
  -16.6610  -29.5800   23.4830 C   0  0  0  0  0  3  0  0  0  0  0  0
  -16.8790  -28.3550   22.8250 C   0  0  0  0  0  3  0  0  0  0  0  0
  -25.7720  -32.4950   23.9790 C   0  0  0  0  0  3  0  0  0  0  0  0
  -25.3820  -33.8800   24.2780 N   0  0  0  0  0  0  0  0  0  0  0  0
  -25.7240  -34.9450   23.5410 C   0  0  0  0  0  0  0  0  0  0  0  0
  -26.4700  -34.8670   22.5610 O   0  0  0  0  0  0  0  0  0  0  0  0
  -24.7300  -34.0110   25.0360 H   0  0  0  0  0  0  0  0  0  0  0  0
  -23.9460  -36.6620   23.0650 C   0  0  0  0  0  1  0  0  0  0  0  0
  -25.1490  -36.3150   23.9560 C   0  0  0  0  0  3  0  0  0  0  0  0
  -27.1910  -37.2900   24.9120 C   0  0  0  0  0  1  0  0  0  0  0  0
  -26.1400  -37.4120   23.9060 N   0  0  0  0  0  0  0  0  0  0  0  0
  -25.6850  -38.3110   24.0340 H   0  0  0  0  0  0  0  0  0  0  0  0
  -26.2160  -31.7490   25.2970 C   0  0  1  0  0  0  0  0  0  0  0  0
  -25.0520  -31.4680   26.2770 C   0  0  0  0  0  1  0  0  0  0  0  0
  -26.8830  -30.3950   24.9580 C   0  0  0  0  0  1  0  0  0  0  0  0
  -27.2770  -32.5920   26.0440 C   0  0  0  0  0  1  0  0  0  0  0  0
  -29.1210  -20.6440   19.9660 C   0  0  0  0  0  3  0  0  0  0  0  0
  -29.7050  -19.4620   19.2270 N   0  0  0  0  0  4  0  0  0  0  0  0
  -28.9810  -18.9040   18.8100 H   0  0  0  0  0  0  0  0  0  0  0  0
  -30.1630  -19.9480   18.4650 H   0  0  0  0  0  0  0  0  0  0  0  0
  -30.7960  -18.5780   19.8000 C   0  0  0  0  0  2  0  0  0  0  0  0
  -29.4520  -17.9810   21.9780 C   0  0  0  0  0  1  0  0  0  0  0  0
  -30.4690  -17.5060   20.9290 C   0  0  0  0  0  3  0  0  0  0  0  0
  -30.9400  -15.0490   20.1900 C   0  0  0  0  0  0  0  0  0  0  0  0
  -30.7400  -12.7900   19.1740 C   0  0  0  0  0  2  0  0  0  0  0  0
  -29.7780  -12.8650   17.9680 C   0  0  0  0  0  2  0  0  0  0  0  0
  -28.3120  -12.7010   18.4220 C   0  0  0  0  0  2  0  0  0  0  0  0
  -27.9560  -13.6030   19.6320 C   0  0  0  0  0  3  0  0  0  0  0  0
  -29.0270  -13.4930   20.7380 C   0  0  0  0  0  2  0  0  0  0  0  0
  -30.3240  -13.8300   20.1300 N   0  0  0  0  0  0  0  0  0  0  0  0
  -32.1020  -15.2210   19.8140 O   0  0  0  0  0  0  0  0  0  0  0  0
  -30.1390  -16.0980   20.5310 N   0  0  0  0  0  0  0  0  0  0  0  0
  -29.1860  -15.8210   20.7130 H   0  0  0  0  0  0  0  0  0  0  0  0
  -25.5920  -14.2080   20.4410 C   0  0  0  0  0  0  0  0  0  0  0  0
  -24.5220  -13.4370   20.8040 C   0  0  0  0  0  0  0  0  0  0  0  0
  -24.9610  -12.0810   20.7000 C   0  0  0  0  0  0  0  0  0  0  0  0
  -26.6150  -13.3240   20.1390 N   0  0  0  0  0  0  0  0  0  0  0  0
  -26.2420  -12.0360   20.3550 N   0  0  0  0  0  0  0  0  0  0  0  0
  -24.2200  -10.8230   20.8500 C   0  0  0  0  0  0  0  0  0  0  0  0
  -24.6660   -9.8010   21.7180 C   0  0  0  0  0  3  0  0  0  0  0  0
  -23.9260   -8.6070   21.8580 C   0  0  0  0  0  3  0  0  0  0  0  0
  -22.7250   -8.4280   21.1320 C   0  0  0  0  0  0  0  0  0  0  0  0
  -22.2970   -9.4380   20.2520 C   0  0  0  0  0  3  0  0  0  0  0  0
  -23.0380  -10.6230   20.1080 C   0  0  0  0  0  3  0  0  0  0  0  0
  -21.9530   -7.2920   21.1860 O   0  0  0  0  0  0  0  0  0  0  0  0
  -21.9240   -6.4960   22.3030 C   0  0  0  0  0  0  0  0  0  0  0  0
  -21.5610   -7.0020   23.5700 C   0  0  0  0  0  3  0  0  0  0  0  0
  -21.4760   -6.1350   24.6780 C   0  0  0  0  0  3  0  0  0  0  0  0
  -21.7450   -4.7620   24.5190 C   0  0  0  0  0  0  0  0  0  0  0  0
  -22.1010   -4.2550   23.2570 C   0  0  0  0  0  3  0  0  0  0  0  0
  -22.1870   -5.1200   22.1510 C   0  0  0  0  0  0  0  0  0  0  0  0
  -22.5100   -4.6220   20.9330 F   0  0  0  0  0  0  0  0  0  0  0  0
  -21.6550   -3.9260   25.5800 F   0  0  0  0  0  0  0  0  0  0  0  0
  -23.1400  -13.9220   21.1330 C   0  0  0  0  0  0  0  0  0  0  0  0
  -22.4280  -13.2050   21.9950 N   0  0  0  0  0  0  0  0  0  0  0  0
  -22.7010  -14.9710   20.6620 O   0  0  0  0  0  0  0  0  0  0  0  0
  -22.7950  -12.3550   22.3960 H   0  0  0  0  0  0  0  0  0  0  0  0
  -21.5000  -13.5100   22.2570 H   0  0  0  0  0  0  0  0  0  0  0  0
  -25.7750  -15.5830   20.3190 N   0  0  0  0  0  0  0  0  0  0  0  0
  -25.0180  -16.2400   20.4700 H   0  0  0  0  0  0  0  0  0  0  0  0
  -26.6070  -16.0200   19.9450 H   0  0  0  0  0  0  0  0  0  0  0  0
  -27.5840  -20.7070   19.7690 C   0  0  0  0  0  2  0  0  0  0  0  0
  -27.1020  -21.2070   18.3840 C   0  0  0  0  0  2  0  0  0  0  0  0
  -25.6290  -21.6250   18.3980 C   0  0  0  0  0  0  0  0  0  0  0  0
  -24.9070  -21.3680   17.3160 N   0  0  0  0  0  0  0  0  0  0  0  0
  -25.1310  -22.1650   19.3830 O   0  0  0  0  0  0  0  0  0  0  0  0
  -25.3200  -20.9230   16.5070 H   0  0  0  0  0  0  0  0  0  0  0  0
  -23.9270  -21.6130   17.2920 H   0  0  0  0  0  0  0  0  0  0  0  0
  1 55  1  0
  1  2  1  0
  2  5  1  0
  2  4  1  0
  3  1  2  0
  5  6  1  0
  6  7  1  0
  6  8  2  0
  7 10  1  0
  9  7  1  0
 11 13  1  0
 11  5  1  0
 11 14  1  0
 12 13  1  0
 15 26  2  0
 16 14  1  0
 16 21  1  0
 17 25  1  0
 17 27  1  0
 18 20  1  0
 19 25  1  0
 20 21  2  0
 20 19  1  0
 22 16  2  0
 23 22  1  0
 23 18  2  0
 24 18  1  0
 24 17  1  0
 25 15  1  0
 27 29  2  0
 28 27  1  0
 30 28  1  0
 31 40  2  0
 31 36  1  0
 32 28  1  0
 32 36  1  0
 33 32  1  0
 34 35  1  0
 34 33  1  0
 35 31  1  0
 36 37  2  0
 37 38  1  0
 39 38  2  0
 40 39  1  0
 41 15  1  0
 41 42  1  0
 41 51  1  0
 42 45  1  0
 43 47  1  0
 43 42  1  0
 44 43  2  0
 47 46  1  0
 49 47  1  0
 49 50  1  0
 49 48  1  0
 51 54  1  1
 51 52  1  0
 53 51  1  0
 55100  1  0
 56 59  1  0
 56 55  1  0
 57 56  1  0
 58 56  1  0
 59 61  1  0
 61 60  1  0
 62 70  1  0
 63 68  1  0
 64 65  1  0
 64 63  1  0
 66 65  1  0
 66 75  1  0
 66 67  1  0
 68 62  1  0
 68 67  1  0
 69 62  2  0
 70 71  1  0
 70 61  1  0
 72 73  2  0
 73 92  1  0
 74 73  1  0
 74 77  1  0
 75 76  1  0
 75 72  1  0
 76 74  2  0
 77 78  1  0
 78 79  2  0
 80 83  1  0
 80 79  1  0
 81 80  2  0
 82 81  1  0
 82 77  2  0
 83 84  1  0
 84 85  1  0
 85 86  2  0
 87 86  1  0
 87 91  1  0
 88 87  2  0
 89 84  2  0
 89 88  1  0
 90 89  1  0
 92 93  1  0
 93 96  1  0
 93 95  1  0
 94 92  2  0
 97 72  1  0
 97 98  1  0
 99 97  1  0
101102  1  0
101100  1  0
102104  2  0
103102  1  0
105103  1  0
106103  1  0
M  ISO  4  11 101  14 101  62 100  70 100
M  END
>  <TORSDO>  (3) 
F 27

>  <SCORE>  (3) 
-10.632

>  <name>  (3) 
2

>  <ligand_id>  (3) 
2

>  <original_smiles>  (3) 
[H]c1c([H])c([H])c2c(c1[H])C([H])([H])C([H])([H])C([H])([H])C2([H])N([H])C(=O)C1([H])N(C(=O)C([H])(N([H])C(=O)C([H])(N([H])C([H])([H])[H])C([H])([H])[H])C(C([H])([H])[H])(C([H])([H])[H])C([H])([H])[H])C([H])([H])c2c([H])c(OC([H])(C([H])(C(=O)N([H])[H])N([H])C(=O)C([H])(C([H])([H])C([H])([H])C(=O)N([H])[H])[N+]([H])([H])C([H])([H])C([H])(N([H])C(=O)N3C([H])([H])C([H])([H])C([H])([H])C([H])(n4nc(-c5c([H])c([H])c(Oc6c([H])c([H])c(F)c([H])c6F)c([H])c5[H])c(C(=O)N([H])[H])c4N([H])[H])C3([H])[H])C([H])([H])[H])C([H])([H])C([H])([H])[H])c([H])c([H])c2C1([H])[H]

>  <smiles>  (3) 
[H]c1c([H])c([H])c2c(c1[H])C([H])([H])C([H])([H])C([H])([H])C2([H])N([H])C(=O)C1([H])N(C(=O)C([H])(N([H])C(=O)C([H])(N([H])C([H])([H])[H])C([H])([H])[H])C(C([H])([H])[H])(C([H])([H])[H])C([H])([H])[H])C([H])([H])c2c([H])c(OC([H])(C([H])(C(=O)N([H])[H])N([H])C(=O)C([H])(C([H])([H])C([H])([H])C(=O)N([H])[H])[N+]([H])([H])C([H])([H])C([H])(N([H])C(=O)N3C([H])([H])C([H])([H])C([H])([H])C([H])(n4nc(-c5c([H])c([H])c(Oc6c([H])c([H])c(F)c([H])c6F)c([H])c5[H])c(C(=O)N([H])[H])c4N([H])[H])C3([H])[H])C([H])([H])[H])C([H])([H])C([H])([H])[H])c([H])c([H])c2C1([H])[H]

$$$$
3:0:0
     RDKit          3D

107114  0  0  1  0  0  0  0  0999 V2000
  -30.5100  -15.8940   20.1700 C   0  0  0  0  0  3  0  0  0  0  0  0
  -31.1820  -13.9880   18.3550 C   0  0  0  0  0  0  0  0  0  0  0  0
  -30.4440  -11.6500   17.8220 C   0  0  0  0  0  2  0  0  0  0  0  0
  -29.2620  -11.6070   16.8260 C   0  0  0  0  0  2  0  0  0  0  0  0
  -27.9280  -11.6700   17.5880 C   0  0  0  0  0  2  0  0  0  0  0  0
  -27.9160  -12.7990   18.6490 C   0  0  0  0  0  3  0  0  0  0  0  0
  -29.2060  -12.8120   19.5010 C   0  0  0  0  0  2  0  0  0  0  0  0
  -30.3740  -12.9050   18.6250 N   0  0  0  0  0  0  0  0  0  0  0  0
  -32.0270  -13.8930   17.4640 O   0  0  0  0  0  0  0  0  0  0  0  0
  -31.1290  -15.2250   18.9670 N   0  0  0  0  0  0  0  0  0  0  0  0
  -31.8210  -15.8200   18.5240 H   0  0  0  0  0  0  0  0  0  0  0  0
  -26.0060  -13.7850   20.0600 C   0  0  0  0  0  0  0  0  0  0  0  0
  -24.9370  -13.2200   20.6690 C   0  0  0  0  0  0  0  0  0  0  0  0
  -25.0370  -11.8140   20.4300 C   0  0  0  0  0  0  0  0  0  0  0  0
  -26.7200  -12.7480   19.4810 N   0  0  0  0  0  0  0  0  0  0  0  0
  -26.1520  -11.5470   19.7660 N   0  0  0  0  0  0  0  0  0  0  0  0
  -24.1180  -10.7230   20.7520 C   0  0  0  0  0  0  0  0  0  0  0  0
  -24.5830   -9.5020   21.2930 C   0  0  0  0  0  3  0  0  0  0  0  0
  -23.6730   -8.4670   21.5930 C   0  0  0  0  0  3  0  0  0  0  0  0
  -22.2860   -8.6500   21.3660 C   0  0  0  0  0  0  0  0  0  0  0  0
  -21.8370   -9.8570   20.8070 C   0  0  0  0  0  3  0  0  0  0  0  0
  -22.7400  -10.8880   20.5010 C   0  0  0  0  0  3  0  0  0  0  0  0
  -21.3220   -7.7030   21.6280 O   0  0  0  0  0  0  0  0  0  0  0  0
  -21.4800   -6.7720   22.6190 C   0  0  0  0  0  0  0  0  0  0  0  0
  -21.6350   -7.1400   23.9720 C   0  0  0  0  0  3  0  0  0  0  0  0
  -21.7430   -6.1490   24.9660 C   0  0  0  0  0  3  0  0  0  0  0  0
  -21.6710   -4.7860   24.6150 C   0  0  0  0  0  0  0  0  0  0  0  0
  -21.4900   -4.4180   23.2690 C   0  0  0  0  0  3  0  0  0  0  0  0
  -21.4000   -5.4050   22.2780 C   0  0  0  0  0  0  0  0  0  0  0  0
  -21.2150   -5.0440   20.9840 F   0  0  0  0  0  0  0  0  0  0  0  0
  -21.7660   -3.8310   25.5670 F   0  0  0  0  0  0  0  0  0  0  0  0
  -23.8220  -13.9430   21.3660 C   0  0  0  0  0  0  0  0  0  0  0  0
  -23.2150  -13.3080   22.3620 N   0  0  0  0  0  0  0  0  0  0  0  0
  -23.5280  -15.1000   21.0580 O   0  0  0  0  0  0  0  0  0  0  0  0
  -23.4970  -12.3720   22.6190 H   0  0  0  0  0  0  0  0  0  0  0  0
  -22.5100  -13.7770   22.9170 H   0  0  0  0  0  0  0  0  0  0  0  0
  -26.4200  -15.1110   19.9340 N   0  0  0  0  0  0  0  0  0  0  0  0
  -25.8140  -15.8450   20.2770 H   0  0  0  0  0  0  0  0  0  0  0  0
  -27.1660  -15.4360   19.3390 H   0  0  0  0  0  0  0  0  0  0  0  0
  -31.3140  -15.5620   21.4710 C   0  0  0  0  0  3  0  0  0  0  0  0
  -30.8340  -14.3790   22.2320 N   0  0  0  0  0  4  0  0  0  0  0  0
  -31.4690  -14.2780   23.0110 H   0  0  0  0  0  0  0  0  0  0  0  0
  -29.8980  -14.5310   22.5630 H   0  0  0  0  0  0  0  0  0  0  0  0
  -30.9390  -13.0400   21.6000 C   0  0  0  0  0  3  0  0  0  0  0  0
  -32.4150  -12.6220   21.6850 C   0  0  0  0  0  0  0  0  0  0  0  0
  -32.9960  -12.0610   20.6320 N   0  0  0  0  0  0  0  0  0  0  0  0
  -33.0470  -12.8520   22.7150 O   0  0  0  0  0  0  0  0  0  0  0  0
  -32.4750  -11.8590   19.7890 H   0  0  0  0  0  0  0  0  0  0  0  0
  -33.9760  -11.8130   20.6730 H   0  0  0  0  0  0  0  0  0  0  0  0
  -30.0070  -12.0570   22.3470 C   0  0  0  0  0  2  0  0  0  0  0  0
  -30.5840   -9.5540   21.8870 C   0  0  0  0  0  1  0  0  0  0  0  0
  -28.1820  -10.3520   21.9540 C   0  0  0  0  0  1  0  0  0  0  0  0
  -29.6340  -10.7390   21.6210 C   0  0  0  0  0  3  0  0  0  0  0  0
  -30.5230  -17.7170   23.1280 C   0  0  0  0  0  1  0  0  0  0  0  0
  -31.5780  -16.8130   22.3990 C   0  0  0  0  0  2  0  0  0  0  0  0
  -30.5440  -17.4600   20.0910 C   0  0  0  0  0  2  0  0  0  0  0  0
  -30.3550  -18.2270   18.7790 C   0  0  0  0  0  2  0  0  0  0  0  0
  -29.3040  -17.6220   17.8240 C   0  0  0  0  0  2  0  0  0  0  0  0
  -28.4800  -18.6660   17.0150 C   0  0  0  0  0  2  0  0  0  0  0  0
  -29.1200  -19.9990   17.0950 N   0  0  0  0  0  4  0  0  0  0  0  0
  -29.7290  -20.0970   16.3020 H   0  0  0  0  0  0  0  0  0  0  0  0
  -29.6940  -19.9590   17.9240 H   0  0  0  0  0  0  0  0  0  0  0  0
  -28.3100  -21.2240   17.2660 C   0  0  0  0  0  2  0  0  0  0  0  0
  -29.0710  -22.4260   16.6560 C   0  0  0  0  0  2  0  0  0  0  0  0
  -28.7050  -23.7670   17.3150 C   0  0  0  0  0  2  0  0  0  0  0  0
  -29.2290  -25.0090   16.5620 C   0  0  0  0  0  2  0  0  0  0  0  0
  -29.2370  -26.1710   17.4090 O   0  0  0  0  0  0  0  0  0  0  0  0
  -25.5290  -28.6450   22.9590 C   0  0  0  0  0  0  0  0  0  0  0  0
  -28.0360  -26.7070   17.8410 C   0  0  0  0  0  0  0  0  0  0  0  0
  -24.2440  -28.2910   20.8720 C   0  0  0  0  0  3  0  0  0  0  0  0
  -25.6220  -27.8490   18.7830 C   0  0  0  0  0  0  0  0  0  0  0  0
  -26.7430  -28.8370   20.7870 C   0  0  0  0  0  2  0  0  0  0  0  0
  -26.8070  -28.0340   19.5010 C   0  0  0  0  0  0  0  0  0  0  0  0
  -28.0180  -27.4730   19.0300 C   0  0  0  0  0  3  0  0  0  0  0  0
  -26.8220  -26.5230   17.1380 C   0  0  0  0  0  3  0  0  0  0  0  0
  -25.6210  -27.0860   17.6030 C   0  0  0  0  0  3  0  0  0  0  0  0
  -24.3670  -28.4800   19.3380 C   0  0  0  0  0  2  0  0  0  0  0  0
  -25.5280  -28.5740   21.5950 N   0  0  0  0  0  0  0  0  0  0  0  0
  -24.4800  -28.5250   23.6030 O   0  0  0  0  0  0  0  0  0  0  0  0
  -23.6830  -26.8780   21.1510 C   0  0  0  0  0  0  0  0  0  0  0  0
  -22.4160  -26.6530   20.7690 N   0  0  0  0  0  0  0  0  0  0  0  0
  -24.3890  -26.0090   21.6690 O   0  0  0  0  0  0  0  0  0  0  0  0
  -21.9010  -27.4270   20.3690 H   0  0  0  0  0  0  0  0  0  0  0  0
  -19.3230  -24.9730   19.9480 C   0  0  0  0  0  0  0  0  0  0  0  0
  -21.6900  -25.3910   20.8970 C   0  0  0  0  0  3  0  0  0  0  0  0
  -22.1740  -24.3570   19.8530 C   0  0  0  0  0  2  0  0  0  0  0  0
  -21.3490  -24.3690   18.5610 C   0  0  0  0  0  2  0  0  0  0  0  0
  -19.8810  -24.0690   18.8650 C   0  0  0  0  0  2  0  0  0  0  0  0
  -20.1720  -25.6070   20.8930 C   0  0  0  0  0  0  0  0  0  0  0  0
  -19.5990  -26.4750   21.8500 C   0  0  0  0  0  3  0  0  0  0  0  0
  -18.2100  -26.7000   21.8780 C   0  0  0  0  0  3  0  0  0  0  0  0
  -17.3730  -26.0580   20.9480 C   0  0  0  0  0  3  0  0  0  0  0  0
  -17.9310  -25.1930   19.9900 C   0  0  0  0  0  3  0  0  0  0  0  0
  -26.8390  -28.9120   23.7660 C   0  0  0  0  0  3  0  0  0  0  0  0
  -26.6760  -30.1900   24.4660 N   0  0  0  0  0  0  0  0  0  0  0  0
  -27.3050  -31.3240   24.1340 C   0  0  0  0  0  0  0  0  0  0  0  0
  -28.1540  -31.3800   23.2410 O   0  0  0  0  0  0  0  0  0  0  0  0
  -25.9690  -30.2220   25.1860 H   0  0  0  0  0  0  0  0  0  0  0  0
  -26.0110  -33.4780   24.0680 C   0  0  0  0  0  1  0  0  0  0  0  0
  -26.9380  -32.5950   24.9200 C   0  0  0  0  0  3  0  0  0  0  0  0
  -28.9310  -32.6950   26.3560 C   0  0  0  0  0  1  0  0  0  0  0  0
  -28.1160  -33.3810   25.3560 N   0  0  0  0  0  0  0  0  0  0  0  0
  -27.8260  -34.2750   25.7470 H   0  0  0  0  0  0  0  0  0  0  0  0
  -27.1840  -27.7630   24.7900 C   0  0  1  0  0  0  0  0  0  0  0  0
  -26.0200  -27.4000   25.7410 C   0  0  0  0  0  1  0  0  0  0  0  0
  -27.5980  -26.4750   24.0450 C   0  0  0  0  0  1  0  0  0  0  0  0
  -28.3930  -28.1760   25.6640 C   0  0  0  0  0  1  0  0  0  0  0  0
  1 56  1  0
  1 40  1  0
  2  8  1  0
  2 10  1  0
  3  8  1  0
  4  5  1  0
  4  3  1  0
  6  5  1  0
  6 15  1  0
  6  7  1  0
  8  7  1  0
  9  2  2  0
 10  1  1  0
 11 10  1  0
 12 13  2  0
 13 32  1  0
 14 13  1  0
 14 17  1  0
 15 16  1  0
 15 12  1  0
 16 14  2  0
 17 18  1  0
 18 19  2  0
 20 19  1  0
 20 23  1  0
 21 20  2  0
 22 17  2  0
 22 21  1  0
 23 24  1  0
 24 25  1  0
 25 26  2  0
 27 26  1  0
 27 31  1  0
 28 27  2  0
 29 24  2  0
 29 28  1  0
 30 29  1  0
 32 33  1  0
 33 35  1  0
 33 36  1  0
 34 32  2  0
 37 12  1  0
 37 38  1  0
 39 37  1  0
 40 41  1  0
 40 55  1  0
 41 43  1  0
 41 42  1  0
 44 45  1  0
 44 41  1  0
 44 50  1  0
 45 47  2  0
 46 49  1  0
 46 45  1  0
 48 46  1  0
 53 51  1  0
 53 52  1  0
 53 50  1  0
 55 54  1  0
 57 56  1  0
 58 57  1  0
 59 60  1  0
 59 58  1  0
 60 63  1  0
 60 62  1  0
 61 60  1  0
 64 63  1  0
 64 65  1  0
 66 65  1  0
 66 67  1  0
 67 69  1  0
 68 79  2  0
 69 74  1  0
 70 80  1  0
 70 78  1  0
 71 77  1  0
 71 73  1  0
 72 78  1  0
 73 72  1  0
 74 73  2  0
 75 76  1  0
 75 69  2  0
 76 71  2  0
 77 70  1  0
 78 68  1  0
 80 82  2  0
 81 80  1  0
 83 81  1  0
 84 93  2  0
 84 89  1  0
 85 81  1  0
 86 85  1  0
 87 88  1  0
 87 86  1  0
 88 84  1  0
 89 85  1  0
 89 90  2  0
 90 91  1  0
 92 91  2  0
 93 92  1  0
 94 68  1  0
 94 95  1  0
 94104  1  0
 95 98  1  0
 96 95  1  0
 96100  1  0
 97 96  2  0
100 99  1  0
100102  1  0
102103  1  0
102101  1  0
104107  1  1
104105  1  0
106104  1  0
M  ISO  4   2 100  10 100  66 101  67 101
M  END
>  <TORSDO>  (4) 
F 32

>  <SCORE>  (4) 
-3.731

>  <name>  (4) 
3

>  <ligand_id>  (4) 
3

>  <original_smiles>  (4) 
[H]c1c([H])c([H])c2c(c1[H])C([H])([H])C([H])([H])C([H])([H])C2([H])N([H])C(=O)C1([H])N(C(=O)C([H])(N([H])C(=O)C([H])(N([H])C([H])([H])[H])C([H])([H])[H])C(C([H])([H])[H])(C([H])([H])[H])C([H])([H])[H])C([H])([H])c2c([H])c(OC([H])([H])C([H])([H])C([H])([H])C([H])([H])[N+]([H])([H])C([H])([H])C([H])([H])C([H])([H])C([H])([H])C([H])(N([H])C(=O)N3C([H])([H])C([H])([H])C([H])([H])C([H])(n4nc(-c5c([H])c([H])c(Oc6c([H])c([H])c(F)c([H])c6F)c([H])c5[H])c(C(=O)N([H])[H])c4N([H])[H])C3([H])[H])C([H])(C([H])([H])C([H])([H])[H])[N+]([H])([H])C([H])(C(=O)N([H])[H])C([H])([H])C([H])(C([H])([H])[H])C([H])([H])[H])c([H])c([H])c2C1([H])[H]

>  <smiles>  (4) 
[H]c1c([H])c([H])c2c(c1[H])C([H])([H])C([H])([H])C([H])([H])C2([H])N([H])C(=O)C1([H])N(C(=O)C([H])(N([H])C(=O)C([H])(N([H])C([H])([H])[H])C([H])([H])[H])C(C([H])([H])[H])(C([H])([H])[H])C([H])([H])[H])C([H])([H])c2c([H])c(OC([H])([H])C([H])([H])C([H])([H])C([H])([H])[N+]([H])([H])C([H])([H])C([H])([H])C([H])([H])C([H])([H])C([H])(N([H])C(=O)N3C([H])([H])C([H])([H])C([H])([H])C([H])(n4nc(-c5c([H])c([H])c(Oc6c([H])c([H])c(F)c([H])c6F)c([H])c5[H])c(C(=O)N([H])[H])c4N([H])[H])C3([H])[H])C([H])(C([H])([H])C([H])([H])[H])[N+]([H])([H])C([H])(C(=O)N([H])[H])C([H])([H])C([H])(C([H])([H])[H])C([H])([H])[H])c([H])c([H])c2C1([H])[H]

$$$$
4:0:0
     RDKit          3D

100108  0  0  1  0  0  0  0  0999 V2000
  -31.4790  -22.5900   20.0310 C   0  0  0  0  0  2  0  0  0  0  0  0
  -32.0780  -21.0810   18.1820 C   0  0  0  0  0  2  0  0  0  0  0  0
  -31.0570  -21.3880   20.8780 C   0  0  0  0  0  2  0  0  0  0  0  0
  -31.7660  -19.8510   19.0700 C   0  0  0  0  0  2  0  0  0  0  0  0
  -31.2180  -22.3060   18.5490 C   0  0  0  0  0  3  0  0  0  0  0  0
  -31.8100  -20.1380   20.5390 N   0  0  2  0  0  4  0  0  0  0  0  0
  -32.7660  -20.4100   20.7020 H   0  0  0  0  0  0  0  0  0  0  0  0
  -31.5100  -23.5100   17.6270 C   0  0  0  0  0  2  0  0  0  0  0  0
  -31.0560  -24.9040   18.1230 C   0  0  0  0  0  2  0  0  0  0  0  0
  -29.5560  -25.0720   18.4750 C   0  0  0  0  0  2  0  0  0  0  0  0
  -29.1340  -26.5570   18.5890 C   0  0  0  0  0  2  0  0  0  0  0  0
  -28.6130  -26.8650   19.8840 O   0  0  0  0  0  0  0  0  0  0  0  0
  -24.7180  -31.8370   23.1820 C   0  0  0  0  0  0  0  0  0  0  0  0
  -27.4200  -27.5510   19.9290 C   0  0  0  0  0  0  0  0  0  0  0  0
  -23.5240  -30.4730   21.4950 C   0  0  0  0  0  3  0  0  0  0  0  0
  -24.9940  -28.9950   20.0210 C   0  0  0  0  0  0  0  0  0  0  0  0
  -26.0450  -30.8610   21.3180 C   0  0  0  0  0  2  0  0  0  0  0  0
  -26.1430  -29.5160   20.6300 C   0  0  0  0  0  0  0  0  0  0  0  0
  -27.3520  -28.7910   20.6000 C   0  0  0  0  0  3  0  0  0  0  0  0
  -26.2490  -27.0220   19.3400 C   0  0  0  0  0  3  0  0  0  0  0  0
  -25.0390  -27.7400   19.3840 C   0  0  0  0  0  3  0  0  0  0  0  0
  -23.7420  -29.8390   20.0940 C   0  0  0  0  0  2  0  0  0  0  0  0
  -24.7780  -31.0740   22.0530 N   0  0  0  0  0  0  0  0  0  0  0  0
  -23.6370  -32.0800   23.7360 O   0  0  0  0  0  0  0  0  0  0  0  0
  -22.8860  -29.4170   22.4260 C   0  0  0  0  0  0  0  0  0  0  0  0
  -21.5590  -29.2370   22.3070 N   0  0  0  0  0  0  0  0  0  0  0  0
  -23.5780  -28.7640   23.2090 O   0  0  0  0  0  0  0  0  0  0  0  0
  -21.0550  -29.8190   21.6520 H   0  0  0  0  0  0  0  0  0  0  0  0
  -18.1940  -28.0250   22.8070 C   0  0  0  0  0  0  0  0  0  0  0  0
  -20.7560  -28.2680   23.0510 C   0  0  0  0  0  3  0  0  0  0  0  0
  -20.8490  -26.8600   22.4190 C   0  0  0  0  0  2  0  0  0  0  0  0
  -19.7320  -26.5790   21.4080 C   0  0  0  0  0  2  0  0  0  0  0  0
  -18.3600  -26.7010   22.0760 C   0  0  0  0  0  2  0  0  0  0  0  0
  -19.3210  -28.7660   23.2500 C   0  0  0  0  0  0  0  0  0  0  0  0
  -19.1140  -30.0050   23.8930 C   0  0  0  0  0  3  0  0  0  0  0  0
  -17.8140  -30.5040   24.0960 C   0  0  0  0  0  3  0  0  0  0  0  0
  -16.7010  -29.7580   23.6690 C   0  0  0  0  0  3  0  0  0  0  0  0
  -16.8930  -28.5190   23.0290 C   0  0  0  0  0  3  0  0  0  0  0  0
  -26.0000  -32.4590   23.8200 C   0  0  0  0  0  3  0  0  0  0  0  0
  -26.5190  -31.6590   25.0760 C   0  0  1  0  0  0  0  0  0  0  0  0
  -25.4280  -31.3910   26.1350 C   0  0  0  0  0  1  0  0  0  0  0  0
  -27.1050  -30.2900   24.6570 C   0  0  0  0  0  1  0  0  0  0  0  0
  -27.6640  -32.4420   25.7590 C   0  0  0  0  0  1  0  0  0  0  0  0
  -25.6850  -33.8480   24.1780 N   0  0  0  0  0  0  0  0  0  0  0  0
  -26.0110  -34.9160   23.4380 C   0  0  0  0  0  0  0  0  0  0  0  0
  -26.6860  -34.8340   22.4100 O   0  0  0  0  0  0  0  0  0  0  0  0
  -25.0930  -33.9870   24.9820 H   0  0  0  0  0  0  0  0  0  0  0  0
  -24.2770  -36.7090   23.1050 C   0  0  0  0  0  1  0  0  0  0  0  0
  -25.5140  -36.2920   23.9160 C   0  0  0  0  0  3  0  0  0  0  0  0
  -27.6430  -37.1740   24.7690 C   0  0  0  0  0  1  0  0  0  0  0  0
  -26.5390  -37.3530   23.8280 N   0  0  0  0  0  0  0  0  0  0  0  0
  -26.1230  -38.2650   23.9940 H   0  0  0  0  0  0  0  0  0  0  0  0
  -31.6880  -18.9360   21.4690 C   0  0  0  0  0  3  0  0  0  0  0  0
  -31.9640  -20.0340   23.8210 C   0  0  0  0  0  1  0  0  0  0  0  0
  -31.0320  -17.7900   23.7100 C   0  0  0  0  0  1  0  0  0  0  0  0
  -29.5880  -19.6120   22.9390 C   0  0  0  0  0  1  0  0  0  0  0  0
  -31.0610  -19.1300   22.9290 C   0  0  2  0  0  0  0  0  0  0  0  0
  -31.7380  -17.4650   20.8580 C   0  0  0  0  0  2  0  0  0  0  0  0
  -30.7760  -16.7630   19.8280 C   0  0  0  0  0  3  0  0  0  0  0  0
  -31.3800  -14.2680   19.7700 C   0  0  0  0  0  0  0  0  0  0  0  0
  -30.9900  -11.9840   18.9530 C   0  0  0  0  0  2  0  0  0  0  0  0
  -30.0130  -12.0910   17.7600 C   0  0  0  0  0  2  0  0  0  0  0  0
  -28.5510  -12.0840   18.2500 C   0  0  0  0  0  2  0  0  0  0  0  0
  -28.3020  -13.0920   19.4030 C   0  0  0  0  0  3  0  0  0  0  0  0
  -29.3780  -12.9340   20.5010 C   0  0  0  0  0  2  0  0  0  0  0  0
  -30.6980  -13.0970   19.8640 N   0  0  0  0  0  0  0  0  0  0  0  0
  -32.4770  -14.3770   19.2130 O   0  0  0  0  0  0  0  0  0  0  0  0
  -30.6620  -15.3320   20.1720 N   0  0  0  0  0  0  0  0  0  0  0  0
  -29.8240  -15.0930   20.6800 H   0  0  0  0  0  0  0  0  0  0  0  0
  -26.0310  -13.9530   20.2530 C   0  0  0  0  0  0  0  0  0  0  0  0
  -24.9040  -13.2960   20.6670 C   0  0  0  0  0  0  0  0  0  0  0  0
  -25.2040  -11.9000   20.5760 C   0  0  0  0  0  0  0  0  0  0  0  0
  -26.9530  -12.9660   19.9450 N   0  0  0  0  0  0  0  0  0  0  0  0
  -26.4610  -11.7260   20.1910 N   0  0  0  0  0  0  0  0  0  0  0  0
  -24.3520  -10.7220   20.7730 C   0  0  0  0  0  0  0  0  0  0  0  0
  -24.7140   -9.6920   21.6690 C   0  0  0  0  0  3  0  0  0  0  0  0
  -23.8700   -8.5770   21.8520 C   0  0  0  0  0  3  0  0  0  0  0  0
  -22.6500   -8.4850   21.1400 C   0  0  0  0  0  0  0  0  0  0  0  0
  -22.3060   -9.5020   20.2330 C   0  0  0  0  0  3  0  0  0  0  0  0
  -23.1490  -10.6100   20.0480 C   0  0  0  0  0  3  0  0  0  0  0  0
  -21.7790   -7.4290   21.2390 O   0  0  0  0  0  0  0  0  0  0  0  0
  -21.6730   -6.6890   22.3900 C   0  0  0  0  0  0  0  0  0  0  0  0
  -21.3400   -7.2820   23.6290 C   0  0  0  0  0  3  0  0  0  0  0  0
  -21.1740   -6.4740   24.7720 C   0  0  0  0  0  3  0  0  0  0  0  0
  -21.3280   -5.0780   24.6760 C   0  0  0  0  0  0  0  0  0  0  0  0
  -21.6550   -4.4860   23.4450 C   0  0  0  0  0  3  0  0  0  0  0  0
  -21.8240   -5.2910   22.3030 C   0  0  0  0  0  0  0  0  0  0  0  0
  -22.1170   -4.7150   21.1120 F   0  0  0  0  0  0  0  0  0  0  0  0
  -21.1590   -4.3010   25.7730 F   0  0  0  0  0  0  0  0  0  0  0  0
  -23.5880  -13.9160   21.0350 C   0  0  0  0  0  0  0  0  0  0  0  0
  -22.8450  -13.2880   21.9380 N   0  0  0  0  0  0  0  0  0  0  0  0
  -23.2360  -14.9950   20.5590 O   0  0  0  0  0  0  0  0  0  0  0  0
  -23.1420  -12.4120   22.3450 H   0  0  0  0  0  0  0  0  0  0  0  0
  -21.9660  -13.6920   22.2310 H   0  0  0  0  0  0  0  0  0  0  0  0
  -26.3420  -15.3010   20.0940 N   0  0  0  0  0  0  0  0  0  0  0  0
  -25.6670  -16.0410   20.2570 H   0  0  0  0  0  0  0  0  0  0  0  0
  -27.2140  -15.6390   19.7100 H   0  0  0  0  0  0  0  0  0  0  0  0
  -28.3540  -17.0250   20.7800 C   0  0  0  0  0  1  0  0  0  0  0  0
  -29.1730  -18.6390   18.9650 C   0  0  0  0  0  1  0  0  0  0  0  0
  -29.3130  -17.2500   19.5930 C   0  0  0  0  0  3  0  0  0  0  0  0
  1  3  1  0
  2  5  1  0
  2  4  1  0
  4  6  1  0
  5  8  1  0
  5  1  1  0
  6  7  1  6
  6  3  1  0
  6 53  1  0
  8  9  1  0
  9 10  1  0
 10 11  1  0
 11 12  1  0
 12 14  1  0
 13 24  2  0
 14 19  1  0
 15 23  1  0
 15 25  1  0
 16 22  1  0
 16 18  1  0
 17 23  1  0
 18 17  1  0
 19 18  2  0
 20 21  1  0
 20 14  2  0
 21 16  2  0
 22 15  1  0
 23 13  1  0
 25 27  2  0
 26 25  1  0
 28 26  1  0
 29 38  2  0
 29 34  1  0
 30 26  1  0
 30 34  1  0
 31 30  1  0
 32 33  1  0
 32 31  1  0
 33 29  1  0
 34 35  2  0
 35 36  1  0
 37 36  2  0
 38 37  1  0
 39 13  1  0
 39 44  1  0
 39 40  1  0
 40 43  1  1
 40 41  1  0
 42 40  1  0
 44 47  1  0
 45 49  1  0
 45 44  1  0
 46 45  2  0
 49 48  1  0
 51 49  1  0
 51 52  1  0
 51 50  1  0
 53 58  1  0
 53 57  1  0
 57 56  1  6
 57 55  1  0
 57 54  1  0
 59 68  1  0
 59 58  1  0
 60 66  1  0
 60 68  1  0
 61 66  1  0
 62 63  1  0
 62 61  1  0
 64 63  1  0
 64 73  1  0
 64 65  1  0
 66 65  1  0
 67 60  2  0
 68 69  1  0
 70 71  2  0
 71 90  1  0
 72 71  1  0
 72 75  1  0
 73 74  1  0
 73 70  1  0
 74 72  2  0
 75 76  1  0
 76 77  2  0
 78 81  1  0
 78 77  1  0
 79 78  2  0
 80 79  1  0
 80 75  2  0
 81 82  1  0
 82 83  1  0
 83 84  2  0
 85 84  1  0
 85 89  1  0
 86 85  2  0
 87 82  2  0
 87 86  1  0
 88 87  1  0
 90 91  1  0
 91 94  1  0
 91 93  1  0
 92 90  2  0
 95 70  1  0
 95 96  1  0
 97 95  1  0
 99100  1  0
100 59  1  0
100 98  1  0
M  ISO  4  11 101  12 101  60 100  68 100
M  END
>  <TORSDO>  (5) 
F 25

>  <SCORE>  (5) 
-9.575

>  <name>  (5) 
4

>  <ligand_id>  (5) 
4

>  <original_smiles>  (5) 
[H]c1c([H])c([H])c2c(c1[H])C([H])([H])C([H])([H])C([H])([H])C2([H])N([H])C(=O)C1([H])N(C(=O)C([H])(N([H])C(=O)C([H])(N([H])C([H])([H])[H])C([H])([H])[H])C(C([H])([H])[H])(C([H])([H])[H])C([H])([H])[H])C([H])([H])c2c([H])c(OC([H])([H])C([H])([H])C([H])([H])C([H])([H])C3([H])C([H])([H])C([H])([H])[N+]([H])(C([H])(C([H])([H])C([H])(N([H])C(=O)N4C([H])([H])C([H])([H])C([H])([H])C([H])(n5nc(-c6c([H])c([H])c(Oc7c([H])c([H])c(F)c([H])c7F)c([H])c6[H])c(C(=O)N([H])[H])c5N([H])[H])C4([H])[H])C([H])(C([H])([H])[H])C([H])([H])[H])C(C([H])([H])[H])(C([H])([H])[H])C([H])([H])[H])C([H])([H])C3([H])[H])c([H])c([H])c2C1([H])[H]

>  <smiles>  (5) 
[H]c1c([H])c([H])c2c(c1[H])C([H])([H])C([H])([H])C([H])([H])C2([H])N([H])C(=O)C1([H])N(C(=O)C([H])(N([H])C(=O)C([H])(N([H])C([H])([H])[H])C([H])([H])[H])C(C([H])([H])[H])(C([H])([H])[H])C([H])([H])[H])C([H])([H])c2c([H])c(OC([H])([H])C([H])([H])C([H])([H])C([H])([H])C3([H])C([H])([H])C([H])([H])[N+]([H])(C([H])(C([H])([H])C([H])(N([H])C(=O)N4C([H])([H])C([H])([H])C([H])([H])C([H])(n5nc(-c6c([H])c([H])c(Oc7c([H])c([H])c(F)c([H])c7F)c([H])c6[H])c(C(=O)N([H])[H])c5N([H])[H])C4([H])[H])C([H])(C([H])([H])[H])C([H])([H])[H])C(C([H])([H])[H])(C([H])([H])[H])C([H])([H])[H])C([H])([H])C3([H])[H])c([H])c([H])c2C1([H])[H]

$$$$
5:0:0
     RDKit          3D

103110  0  0  1  0  0  0  0  0999 V2000
  -29.9310  -21.7110   18.6120 C   0  0  0  0  0  0  0  0  0  0  0  0
  -29.2240  -22.4580   19.5110 N   0  0  0  0  0  0  0  0  0  0  0  0
  -30.1090  -22.1890   17.4870 O   0  0  0  0  0  0  0  0  0  0  0  0
  -29.0580  -22.0930   20.4370 H   0  0  0  0  0  0  0  0  0  0  0  0
  -28.7720  -23.8730   19.1840 C   0  0  0  0  0  3  0  0  0  0  0  0
  -27.6230  -23.8360   18.1520 C   0  0  0  0  0  0  0  0  0  0  0  0
  -26.8280  -22.7700   18.1370 N   0  0  0  0  0  0  0  0  0  0  0  0
  -27.4670  -24.7470   17.3420 O   0  0  0  0  0  0  0  0  0  0  0  0
  -27.0030  -22.0170   18.7870 H   0  0  0  0  0  0  0  0  0  0  0  0
  -26.0780  -22.6910   17.4660 H   0  0  0  0  0  0  0  0  0  0  0  0
  -28.3030  -24.7640   20.4110 C   0  0  0  0  0  2  0  0  0  0  0  0
  -28.4450  -26.2290   20.2790 O   0  0  0  0  0  0  0  0  0  0  0  0
  -24.6680  -31.6490   23.1520 C   0  0  0  0  0  0  0  0  0  0  0  0
  -27.3050  -27.0360   20.2390 C   0  0  0  0  0  0  0  0  0  0  0  0
  -23.4860  -30.2340   21.5070 C   0  0  0  0  0  3  0  0  0  0  0  0
  -24.9510  -28.6440   20.1480 C   0  0  0  0  0  0  0  0  0  0  0  0
  -26.0300  -30.5350   21.3700 C   0  0  0  0  0  2  0  0  0  0  0  0
  -26.1100  -29.1440   20.7560 C   0  0  0  0  0  0  0  0  0  0  0  0
  -27.2930  -28.3530   20.7850 C   0  0  0  0  0  3  0  0  0  0  0  0
  -26.1220  -26.5740   19.6240 C   0  0  0  0  0  3  0  0  0  0  0  0
  -24.9580  -27.3640   19.5720 C   0  0  0  0  0  3  0  0  0  0  0  0
  -23.7220  -29.5270   20.1460 C   0  0  0  0  0  2  0  0  0  0  0  0
  -24.7450  -30.8230   22.0670 N   0  0  0  0  0  0  0  0  0  0  0  0
  -23.5760  -31.9480   23.6560 O   0  0  0  0  0  0  0  0  0  0  0  0
  -22.7900  -29.2430   22.4680 C   0  0  0  0  0  0  0  0  0  0  0  0
  -21.4640  -29.0870   22.3170 N   0  0  0  0  0  0  0  0  0  0  0  0
  -23.4420  -28.6160   23.3090 O   0  0  0  0  0  0  0  0  0  0  0  0
  -21.0000  -29.6430   21.6120 H   0  0  0  0  0  0  0  0  0  0  0  0
  -18.0560  -27.9660   22.7640 C   0  0  0  0  0  0  0  0  0  0  0  0
  -20.6120  -28.1760   23.0830 C   0  0  0  0  0  3  0  0  0  0  0  0
  -20.6960  -26.7350   22.5270 C   0  0  0  0  0  2  0  0  0  0  0  0
  -19.6080  -26.4220   21.4940 C   0  0  0  0  0  2  0  0  0  0  0  0
  -18.2180  -26.6040   22.1080 C   0  0  0  0  0  2  0  0  0  0  0  0
  -19.1810  -28.7110   23.2070 C   0  0  0  0  0  0  0  0  0  0  0  0
  -18.9770  -29.9850   23.7770 C   0  0  0  0  0  3  0  0  0  0  0  0
  -17.6790  -30.5150   23.9100 C   0  0  0  0  0  3  0  0  0  0  0  0
  -16.5680  -29.7670   23.4850 C   0  0  0  0  0  3  0  0  0  0  0  0
  -16.7570  -28.4950   22.9170 C   0  0  0  0  0  3  0  0  0  0  0  0
  -25.9440  -32.2750   23.7940 C   0  0  0  0  0  3  0  0  0  0  0  0
  -26.4500  -31.4890   25.0650 C   0  0  1  0  0  0  0  0  0  0  0  0
  -25.3440  -31.2200   26.1120 C   0  0  0  0  0  1  0  0  0  0  0  0
  -27.0520  -30.1240   24.6560 C   0  0  0  0  0  1  0  0  0  0  0  0
  -27.5860  -32.2810   25.7550 C   0  0  0  0  0  1  0  0  0  0  0  0
  -25.6300  -33.6690   24.1380 N   0  0  0  0  0  0  0  0  0  0  0  0
  -25.9440  -34.7290   23.3830 C   0  0  0  0  0  0  0  0  0  0  0  0
  -26.5990  -34.6370   22.3400 O   0  0  0  0  0  0  0  0  0  0  0  0
  -25.0460  -33.8130   24.9490 H   0  0  0  0  0  0  0  0  0  0  0  0
  -24.1820  -36.5000   23.0850 C   0  0  0  0  0  1  0  0  0  0  0  0
  -25.4540  -36.1110   23.8550 C   0  0  0  0  0  3  0  0  0  0  0  0
  -27.5930  -37.0320   24.6330 C   0  0  0  0  0  1  0  0  0  0  0  0
  -26.4690  -37.1770   23.7120 N   0  0  0  0  0  0  0  0  0  0  0  0
  -26.0530  -38.0920   23.8620 H   0  0  0  0  0  0  0  0  0  0  0  0
  -30.6070  -20.2950   18.8260 C   0  0  0  0  0  0  0  0  0  0  0  0
  -30.4000  -17.8700   19.5380 C   0  0  0  0  0  0  0  0  0  0  0  0
  -30.2380  -19.2110   19.7920 N   0  0  0  0  0  4  0  0  0  0  0  0
  -30.4460  -17.4350   18.3860 O   0  0  0  0  0  0  0  0  0  0  0  0
  -30.1380  -19.4870   20.7580 H   0  0  0  0  0  0  0  0  0  0  0  0
  -29.6430  -17.2140   21.8670 C   0  0  0  0  0  1  0  0  0  0  0  0
  -32.0650  -16.9990   21.2370 C   0  0  0  0  0  1  0  0  0  0  0  0
  -30.6160  -16.8550   20.7240 C   0  0  2  0  0  0  0  0  0  0  0  0
  -31.0810  -14.3780   19.9010 C   0  0  0  0  0  0  0  0  0  0  0  0
  -30.7500  -12.1510   18.8450 C   0  0  0  0  0  2  0  0  0  0  0  0
  -29.7250  -12.2870   17.6970 C   0  0  0  0  0  2  0  0  0  0  0  0
  -28.2810  -12.1710   18.2280 C   0  0  0  0  0  2  0  0  0  0  0  0
  -28.0300  -13.0670   19.4700 C   0  0  0  0  0  3  0  0  0  0  0  0
  -29.1510  -12.8700   20.5130 C   0  0  0  0  0  2  0  0  0  0  0  0
  -30.4280  -13.1780   19.8500 N   0  0  0  0  0  0  0  0  0  0  0  0
  -32.2090  -14.5230   19.4240 O   0  0  0  0  0  0  0  0  0  0  0  0
  -30.3390  -15.4130   20.3950 N   0  0  0  0  0  0  0  0  0  0  0  0
  -29.4090  -15.1230   20.6500 H   0  0  0  0  0  0  0  0  0  0  0  0
  -25.7270  -13.7640   20.3730 C   0  0  0  0  0  0  0  0  0  0  0  0
  -24.6560  -13.0320   20.8050 C   0  0  0  0  0  0  0  0  0  0  0  0
  -25.0500  -11.6620   20.7150 C   0  0  0  0  0  0  0  0  0  0  0  0
  -26.7080  -12.8420   20.0440 N   0  0  0  0  0  0  0  0  0  0  0  0
  -26.3100  -11.5720   20.3100 N   0  0  0  0  0  0  0  0  0  0  0  0
  -24.2840  -10.4290   20.9310 C   0  0  0  0  0  0  0  0  0  0  0  0
  -24.6510   -9.4970   21.9260 C   0  0  0  0  0  3  0  0  0  0  0  0
  -23.8860   -8.3260   22.1270 C   0  0  0  0  0  3  0  0  0  0  0  0
  -22.7420   -8.0820   21.3320 C   0  0  0  0  0  0  0  0  0  0  0  0
  -22.3950   -9.0020   20.3260 C   0  0  0  0  0  3  0  0  0  0  0  0
  -23.1600  -10.1630   20.1240 C   0  0  0  0  0  3  0  0  0  0  0  0
  -21.9550   -6.9610   21.4380 O   0  0  0  0  0  0  0  0  0  0  0  0
  -21.7450   -6.3410   22.6430 C   0  0  0  0  0  0  0  0  0  0  0  0
  -21.1360   -7.0080   23.7290 C   0  0  0  0  0  3  0  0  0  0  0  0
  -20.8770   -6.3120   24.9270 C   0  0  0  0  0  3  0  0  0  0  0  0
  -21.2180   -4.9510   25.0390 C   0  0  0  0  0  0  0  0  0  0  0  0
  -21.8190   -4.2840   23.9580 C   0  0  0  0  0  3  0  0  0  0  0  0
  -22.0800   -4.9760   22.7620 C   0  0  0  0  0  0  0  0  0  0  0  0
  -22.6410   -4.3240   21.7160 F   0  0  0  0  0  0  0  0  0  0  0  0
  -20.9610   -4.2800   26.1860 F   0  0  0  0  0  0  0  0  0  0  0  0
  -23.3040  -13.5640   21.1880 C   0  0  0  0  0  0  0  0  0  0  0  0
  -22.6070  -12.8790   22.0870 N   0  0  0  0  0  0  0  0  0  0  0  0
  -22.8790  -14.6210   20.7250 O   0  0  0  0  0  0  0  0  0  0  0  0
  -22.9660  -12.0220   22.4820 H   0  0  0  0  0  0  0  0  0  0  0  0
  -21.7020  -13.2160   22.3850 H   0  0  0  0  0  0  0  0  0  0  0  0
  -25.9430  -15.1300   20.2100 N   0  0  0  0  0  0  0  0  0  0  0  0
  -25.2150  -15.8130   20.3900 H   0  0  0  0  0  0  0  0  0  0  0  0
  -26.7640  -15.5320   19.7740 H   0  0  0  0  0  0  0  0  0  0  0  0
  -32.1490  -20.3350   18.6470 C   0  0  0  0  0  2  0  0  0  0  0  0
  -33.0330  -20.4340   19.9170 C   0  0  0  0  0  2  0  0  0  0  0  0
  -33.0510  -23.0270   19.9310 C   0  0  0  0  0  1  0  0  0  0  0  0
  -31.9410  -21.7690   21.8470 C   0  0  0  0  0  1  0  0  0  0  0  0
  -33.0250  -21.7340   20.7600 C   0  0  0  0  0  3  0  0  0  0  0  0
  1 53  1  0
  1  2  1  0
  2  4  1  0
  3  1  2  0
  5  2  1  0
  5 11  1  0
  6  5  1  0
  7  6  1  0
  7  9  1  0
  8  6  2  0
 10  7  1  0
 12 11  1  0
 13 24  2  0
 14 12  1  0
 14 19  1  0
 15 23  1  0
 15 25  1  0
 16 18  1  0
 17 23  1  0
 18 19  2  0
 18 17  1  0
 20 14  2  0
 21 20  1  0
 21 16  2  0
 22 16  1  0
 22 15  1  0
 23 13  1  0
 25 27  2  0
 26 25  1  0
 28 26  1  0
 29 38  2  0
 29 34  1  0
 30 26  1  0
 30 34  1  0
 31 30  1  0
 32 33  1  0
 32 31  1  0
 33 29  1  0
 34 35  2  0
 35 36  1  0
 37 36  2  0
 38 37  1  0
 39 13  1  0
 39 44  1  0
 39 40  1  0
 40 43  1  1
 40 41  1  0
 42 40  1  0
 44 47  1  0
 45 49  1  0
 45 44  1  0
 46 45  2  0
 49 48  1  0
 51 49  1  0
 51 52  1  0
 51 50  1  0
 53 55  2  0
 54 55  1  0
 54 60  1  0
 55 57  1  0
 56 54  2  0
 60 59  1  1
 60 58  1  0
 61 69  1  0
 62 67  1  0
 63 64  1  0
 63 62  1  0
 65 64  1  0
 65 74  1  0
 65 66  1  0
 67 61  1  0
 67 66  1  0
 68 61  2  0
 69 70  1  0
 69 60  1  0
 71 72  2  0
 72 91  1  0
 73 72  1  0
 73 76  1  0
 74 75  1  0
 74 71  1  0
 75 73  2  0
 76 77  1  0
 77 78  2  0
 79 82  1  0
 79 78  1  0
 80 79  2  0
 81 80  1  0
 81 76  2  0
 82 83  1  0
 83 88  2  0
 83 84  1  0
 84 85  2  0
 85 86  1  0
 86 90  1  0
 87 86  2  0
 88 87  1  0
 89 88  1  0
 91 92  1  0
 92 95  1  0
 92 94  1  0
 93 91  2  0
 96 71  1  0
 96 97  1  0
 98 96  1  0
 99 53  1  0
 99100  1  0
100103  1  0
101103  1  0
103102  1  0
M  ISO  4  11 101  12 101  61 100  69 100
M  END
>  <TORSDO>  (6) 
F 25

>  <SCORE>  (6) 
-10.968

>  <name>  (6) 
5

>  <ligand_id>  (6) 
5

>  <original_smiles>  (6) 
[H]c1c([H])c([H])c2c(c1[H])C([H])([H])C([H])([H])C([H])([H])C2([H])N([H])C(=O)C1([H])N(C(=O)C([H])(N([H])C(=O)C([H])(N([H])C([H])([H])[H])C([H])([H])[H])C(C([H])([H])[H])(C([H])([H])[H])C([H])([H])[H])C([H])([H])c2c([H])c(OC([H])([H])C([H])(C(=O)N([H])[H])N([H])C(=O)C([H])(N([H])C(=O)C(N([H])C(=O)N3C([H])([H])C([H])([H])C([H])([H])C([H])(n4nc(-c5c([H])c([H])c(Oc6c([H])c([H])c(F)c([H])c6F)c([H])c5[H])c(C(=O)N([H])[H])c4N([H])[H])C3([H])[H])(C([H])([H])[H])C([H])([H])[H])C([H])([H])C([H])([H])C([H])(C([H])([H])[H])C([H])([H])[H])c([H])c([H])c2C1([H])[H]

>  <smiles>  (6) 
[H]c1c([H])c([H])c2c(c1[H])C([H])([H])C([H])([H])C([H])([H])C2([H])N([H])C(=O)C1([H])N(C(=O)C([H])(N([H])C(=O)C([H])(N([H])C([H])([H])[H])C([H])([H])[H])C(C([H])([H])[H])(C([H])([H])[H])C([H])([H])[H])C([H])([H])c2c([H])c(OC([H])([H])C([H])(C(=O)N([H])[H])N([H])C(=O)C([H])(N([H])C(=O)C(N([H])C(=O)N3C([H])([H])C([H])([H])C([H])([H])C([H])(n4nc(-c5c([H])c([H])c(Oc6c([H])c([H])c(F)c([H])c6F)c([H])c5[H])c(C(=O)N([H])[H])c4N([H])[H])C3([H])[H])(C([H])([H])[H])C([H])([H])[H])C([H])([H])C([H])([H])C([H])(C([H])([H])[H])C([H])([H])[H])c([H])c([H])c2C1([H])[H]

$$$$
6:0:0
     RDKit          3D

 95102  0  0  1  0  0  0  0  0999 V2000
  -26.7200  -22.1190   21.6950 C   0  0  0  0  0  1  0  0  0  0  0  0
  -28.1330  -21.5090   21.5560 C   0  0  0  0  0  3  0  0  0  0  0  0
  -29.1820  -22.6130   21.3250 C   0  0  0  0  0  0  0  0  0  0  0  0
  -28.9920  -23.4330   20.2840 N   0  0  0  0  0  0  0  0  0  0  0  0
  -30.1000  -22.7720   22.1320 O   0  0  0  0  0  0  0  0  0  0  0  0
  -28.2530  -23.1790   19.6420 H   0  0  0  0  0  0  0  0  0  0  0  0
  -29.4800  -24.8140   20.1940 C   0  0  0  0  0  2  0  0  0  0  0  0
  -28.3000  -25.7050   19.7690 C   0  0  0  0  0  2  0  0  0  0  0  0
  -28.4580  -27.1110   20.0080 O   0  0  0  0  0  0  0  0  0  0  0  0
  -24.6290  -32.0750   23.3970 C   0  0  0  0  0  0  0  0  0  0  0  0
  -27.2810  -27.8440   20.0330 C   0  0  0  0  0  0  0  0  0  0  0  0
  -23.4150  -30.7480   21.7030 C   0  0  0  0  0  3  0  0  0  0  0  0
  -24.8640  -29.3190   20.1700 C   0  0  0  0  0  0  0  0  0  0  0  0
  -25.9350  -31.1490   21.4860 C   0  0  0  0  0  2  0  0  0  0  0  0
  -26.0280  -29.8190   20.7680 C   0  0  0  0  0  0  0  0  0  0  0  0
  -27.2390  -29.0900   20.7000 C   0  0  0  0  0  3  0  0  0  0  0  0
  -26.0940  -27.3730   19.4170 C   0  0  0  0  0  3  0  0  0  0  0  0
  -24.8920  -28.0920   19.4910 C   0  0  0  0  0  3  0  0  0  0  0  0
  -23.6070  -30.1500   20.2850 C   0  0  0  0  0  2  0  0  0  0  0  0
  -24.6780  -31.3370   22.2520 N   0  0  0  0  0  0  0  0  0  0  0  0
  -23.5520  -32.3040   23.9680 O   0  0  0  0  0  0  0  0  0  0  0  0
  -22.7950  -29.6640   22.6160 C   0  0  0  0  0  0  0  0  0  0  0  0
  -21.4810  -29.4330   22.4660 N   0  0  0  0  0  0  0  0  0  0  0  0
  -23.4950  -29.0370   23.4150 O   0  0  0  0  0  0  0  0  0  0  0  0
  -20.9750  -30.0000   21.8010 H   0  0  0  0  0  0  0  0  0  0  0  0
  -18.1660  -28.0400   22.8200 C   0  0  0  0  0  0  0  0  0  0  0  0
  -20.6940  -28.4350   23.1880 C   0  0  0  0  0  3  0  0  0  0  0  0
  -20.8970  -27.0210   22.5940 C   0  0  0  0  0  2  0  0  0  0  0  0
  -19.8500  -26.6590   21.5350 C   0  0  0  0  0  2  0  0  0  0  0  0
  -18.4400  -26.7160   22.1290 C   0  0  0  0  0  2  0  0  0  0  0  0
  -19.2240  -28.8550   23.3030 C   0  0  0  0  0  0  0  0  0  0  0  0
  -18.9120  -30.0960   23.9020 C   0  0  0  0  0  3  0  0  0  0  0  0
  -17.5750  -30.5210   24.0240 C   0  0  0  0  0  3  0  0  0  0  0  0
  -16.5330  -29.7020   23.5580 C   0  0  0  0  0  3  0  0  0  0  0  0
  -16.8280  -28.4630   22.9600 C   0  0  0  0  0  3  0  0  0  0  0  0
  -25.9150  -32.6890   24.0290 C   0  0  0  0  0  3  0  0  0  0  0  0
  -26.4390  -31.8830   25.2790 C   0  0  1  0  0  0  0  0  0  0  0  0
  -25.3520  -31.6160   26.3450 C   0  0  0  0  0  1  0  0  0  0  0  0
  -27.0200  -30.5170   24.8440 C   0  0  0  0  0  1  0  0  0  0  0  0
  -27.5930  -32.6610   25.9550 C   0  0  0  0  0  1  0  0  0  0  0  0
  -25.6070  -34.0790   24.3960 N   0  0  0  0  0  0  0  0  0  0  0  0
  -25.9520  -35.1520   23.6710 C   0  0  0  0  0  0  0  0  0  0  0  0
  -26.6360  -35.0760   22.6460 O   0  0  0  0  0  0  0  0  0  0  0  0
  -25.0000  -34.2120   25.1910 H   0  0  0  0  0  0  0  0  0  0  0  0
  -24.2350  -36.9570   23.3390 C   0  0  0  0  0  1  0  0  0  0  0  0
  -25.4610  -36.5280   24.1600 C   0  0  0  0  0  3  0  0  0  0  0  0
  -27.5860  -37.3770   25.0510 C   0  0  0  0  0  1  0  0  0  0  0  0
  -26.5000  -37.5800   24.0950 N   0  0  0  0  0  0  0  0  0  0  0  0
  -26.0950  -38.4960   24.2650 H   0  0  0  0  0  0  0  0  0  0  0  0
  -28.1460  -20.3600   20.5210 C   0  0  0  0  0  2  0  0  0  0  0  0
  -29.4540  -19.5460   20.4200 C   0  0  0  0  0  2  0  0  0  0  0  0
  -29.1840  -18.0620   20.0780 C   0  0  0  0  0  2  0  0  0  0  0  0
  -30.3880  -17.1310   19.8450 C   0  0  0  0  0  3  0  0  0  0  0  0
  -30.3820  -16.0150   20.4970 N   0  0  0  0  0  2  0  0  0  0  0  0
  -31.1470  -14.9140   20.1100 C   0  0  0  0  0  0  0  0  0  0  0  0
  -30.8150  -12.6730   19.1350 C   0  0  0  0  0  2  0  0  0  0  0  0
  -29.8800  -12.8200   17.9180 C   0  0  0  0  0  2  0  0  0  0  0  0
  -28.4040  -12.7210   18.3520 C   0  0  0  0  0  2  0  0  0  0  0  0
  -28.0730  -13.6320   19.5670 C   0  0  0  0  0  3  0  0  0  0  0  0
  -29.1350  -13.4920   20.6800 C   0  0  0  0  0  2  0  0  0  0  0  0
  -30.4630  -13.7360   20.0900 N   0  0  0  0  0  0  0  0  0  0  0  0
  -32.2780  -14.9700   19.6380 O   0  0  0  0  0  0  0  0  0  0  0  0
  -25.7040  -14.2950   20.3250 C   0  0  0  0  0  0  0  0  0  0  0  0
  -24.6230  -13.5480   20.7090 C   0  0  0  0  0  0  0  0  0  0  0  0
  -25.0470  -12.1850   20.6620 C   0  0  0  0  0  0  0  0  0  0  0  0
  -26.7220  -13.3880   20.0700 N   0  0  0  0  0  0  0  0  0  0  0  0
  -26.3300  -12.1130   20.3280 N   0  0  0  0  0  0  0  0  0  0  0  0
  -24.2900  -10.9420   20.8570 C   0  0  0  0  0  0  0  0  0  0  0  0
  -24.6620   -9.9990   21.8410 C   0  0  0  0  0  3  0  0  0  0  0  0
  -23.9070   -8.8190   22.0220 C   0  0  0  0  0  3  0  0  0  0  0  0
  -22.7670   -8.5750   21.2200 C   0  0  0  0  0  0  0  0  0  0  0  0
  -22.4160   -9.5060   20.2270 C   0  0  0  0  0  3  0  0  0  0  0  0
  -23.1710  -10.6770   20.0440 C   0  0  0  0  0  3  0  0  0  0  0  0
  -21.9890   -7.4460   21.3080 O   0  0  0  0  0  0  0  0  0  0  0  0
  -21.8140   -6.7830   22.4960 C   0  0  0  0  0  0  0  0  0  0  0  0
  -21.2740   -7.4220   23.6340 C   0  0  0  0  0  3  0  0  0  0  0  0
  -21.0480   -6.6850   24.8140 C   0  0  0  0  0  3  0  0  0  0  0  0
  -21.3490   -5.3110   24.8550 C   0  0  0  0  0  0  0  0  0  0  0  0
  -21.8800   -4.6720   23.7210 C   0  0  0  0  0  3  0  0  0  0  0  0
  -22.1100   -5.4060   22.5450 C   0  0  0  0  0  0  0  0  0  0  0  0
  -22.6020   -4.7810   21.4490 F   0  0  0  0  0  0  0  0  0  0  0  0
  -21.1250   -4.6000   25.9860 F   0  0  0  0  0  0  0  0  0  0  0  0
  -23.2430  -14.0610   21.0110 C   0  0  0  0  0  0  0  0  0  0  0  0
  -22.5130  -13.3820   21.8870 N   0  0  0  0  0  0  0  0  0  0  0  0
  -22.8240  -15.1010   20.5030 O   0  0  0  0  0  0  0  0  0  0  0  0
  -22.8640  -12.5420   22.3240 H   0  0  0  0  0  0  0  0  0  0  0  0
  -21.5870  -13.7090   22.1260 H   0  0  0  0  0  0  0  0  0  0  0  0
  -25.9020  -15.6600   20.1520 N   0  0  0  0  0  0  0  0  0  0  0  0
  -25.1620  -16.3390   20.2910 H   0  0  0  0  0  0  0  0  0  0  0  0
  -26.7740  -16.0790   19.8540 H   0  0  0  0  0  0  0  0  0  0  0  0
  -31.3240  -17.6090   18.6980 C   0  0  0  0  0  2  0  0  0  0  0  0
  -32.9550  -19.3420   17.8710 C   0  0  0  0  0  1  0  0  0  0  0  0
  -33.8860  -17.3750   19.0360 C   0  0  0  0  0  1  0  0  0  0  0  0
  -32.7240  -19.1290   20.3440 C   0  0  0  0  0  1  0  0  0  0  0  0
  -32.6870  -18.3430   19.0160 C   0  0  2  0  0  0  0  0  0  0  0  0
  2  1  1  0
  3  2  1  0
  3  5  2  0
  4  3  1  0
  6  4  1  0
  7  4  1  0
  8  9  1  0
  8  7  1  0
  9 11  1  0
 10 21  2  0
 11 16  1  0
 12 20  1  0
 12 22  1  0
 13 19  1  0
 13 15  1  0
 14 20  1  0
 15 14  1  0
 16 15  2  0
 17 18  1  0
 17 11  2  0
 18 13  2  0
 19 12  1  0
 20 10  1  0
 22 24  2  0
 23 22  1  0
 25 23  1  0
 26 35  2  0
 26 31  1  0
 27 23  1  0
 27 31  1  0
 28 27  1  0
 29 30  1  0
 29 28  1  0
 30 26  1  0
 31 32  2  0
 32 33  1  0
 34 33  2  0
 35 34  1  0
 36 10  1  0
 36 41  1  0
 36 37  1  0
 37 40  1  1
 37 38  1  0
 39 37  1  0
 41 44  1  0
 42 46  1  0
 42 41  1  0
 43 42  2  0
 46 45  1  0
 48 46  1  0
 48 49  1  0
 48 47  1  0
 50  2  1  0
 51 50  1  0
 52 51  1  0
 53 91  1  0
 53 52  1  0
 53 54  1  0
 55 54  1  0
 56 61  1  0
 57 58  1  0
 57 56  1  0
 59 58  1  0
 59 66  1  0
 59 60  1  0
 61 55  1  0
 61 60  1  0
 62 55  2  0
 63 64  2  0
 64 83  1  0
 65 64  1  0
 65 68  1  0
 66 63  1  0
 66 67  1  0
 67 65  2  0
 68 69  1  0
 69 70  2  0
 71 74  1  0
 71 70  1  0
 72 71  2  0
 73 72  1  0
 73 68  2  0
 74 75  1  0
 75 80  2  0
 75 76  1  0
 76 77  2  0
 77 78  1  0
 78 82  1  0
 79 78  2  0
 80 79  1  0
 81 80  1  0
 83 84  1  0
 84 87  1  0
 84 86  1  0
 85 83  2  0
 88 89  1  0
 88 63  1  0
 90 88  1  0
 91 95  1  0
 95 92  1  6
 95 93  1  0
 95 94  1  0
M  ISO  4   8 101   9 101  54 100  55 100
M  END
>  <TORSDO>  (7) 
F 25

>  <SCORE>  (7) 
-10.808

>  <name>  (7) 
6

>  <ligand_id>  (7) 
6

>  <original_smiles>  (7) 
[H]c1c([H])c([H])c2c(c1[H])C([H])([H])C([H])([H])C([H])([H])C2([H])N([H])C(=O)C1([H])N(C(=O)C([H])(N([H])C(=O)C([H])(N([H])C([H])([H])[H])C([H])([H])[H])C(C([H])([H])[H])(C([H])([H])[H])C([H])([H])[H])C([H])([H])c2c([H])c(OC([H])([H])C([H])([H])N([H])C(=O)C([H])(C([H])([H])[H])C([H])([H])C([H])([H])C([H])([H])C(=NC(=O)N3C([H])([H])C([H])([H])C([H])([H])C([H])(n4nc(-c5c([H])c([H])c(Oc6c([H])c([H])c(F)c([H])c6F)c([H])c5[H])c(C(=O)N([H])[H])c4N([H])[H])C3([H])[H])C([H])([H])C(C([H])([H])[H])(C([H])([H])[H])C([H])([H])[H])c([H])c([H])c2C1([H])[H]

>  <smiles>  (7) 
[H]c1c([H])c([H])c2c(c1[H])C([H])([H])C([H])([H])C([H])([H])C2([H])N([H])C(=O)C1([H])N(C(=O)C([H])(N([H])C(=O)C([H])(N([H])C([H])([H])[H])C([H])([H])[H])C(C([H])([H])[H])(C([H])([H])[H])C([H])([H])[H])C([H])([H])c2c([H])c(OC([H])([H])C([H])([H])N([H])C(=O)C([H])(C([H])([H])[H])C([H])([H])C([H])([H])C([H])([H])C(=NC(=O)N3C([H])([H])C([H])([H])C([H])([H])C([H])(n4nc(-c5c([H])c([H])c(Oc6c([H])c([H])c(F)c([H])c6F)c([H])c5[H])c(C(=O)N([H])[H])c4N([H])[H])C3([H])[H])C([H])([H])C(C([H])([H])[H])(C([H])([H])[H])C([H])([H])[H])c([H])c([H])c2C1([H])[H]

$$$$
7:0:0
     RDKit          3D

105112  0  0  1  0  0  0  0  0999 V2000
  -30.3210  -19.2900   19.5320 C   0  0  0  0  0  0  0  0  0  0  0  0
  -30.5010  -20.6000   19.3710 N   0  0  0  0  0  0  0  0  0  0  0  0
  -30.8720  -18.6380   20.4250 O   0  0  0  0  0  0  0  0  0  0  0  0
  -30.0090  -21.0500   18.6110 H   0  0  0  0  0  0  0  0  0  0  0  0
  -31.2820  -21.5200   20.2010 C   0  0  0  0  0  3  0  0  0  0  0  0
  -32.7320  -20.9630   20.2090 C   0  0  0  0  0  0  0  0  0  0  0  0
  -33.3230  -20.6850   19.1560 O   0  0  0  0  0  0  0  0  0  0  0  0
  -33.4880  -20.8220   21.5410 C   0  0  0  0  0  2  0  0  0  0  0  0
  -35.9050  -20.3110   21.8760 C   0  0  0  0  0  0  0  0  0  0  0  0
  -38.2620  -20.3770   22.5920 C   0  0  0  0  0  2  0  0  0  0  0  0
  -38.3960  -20.9120   24.0310 C   0  0  0  0  0  2  0  0  0  0  0  0
  -38.4600  -22.4510   24.0380 C   0  0  0  0  0  2  0  0  0  0  0  0
  -37.3230  -23.0970   23.2060 C   0  0  0  0  0  3  0  0  0  0  0  0
  -37.2460  -22.4440   21.8080 C   0  0  0  0  0  2  0  0  0  0  0  0
  -37.0790  -20.9850   21.9720 N   0  0  0  0  0  0  0  0  0  0  0  0
  -35.7360  -19.1600   22.2850 O   0  0  0  0  0  0  0  0  0  0  0  0
  -34.9220  -21.0030   21.2970 N   0  0  0  0  0  0  0  0  0  0  0  0
  -35.1840  -21.9120   20.9490 H   0  0  0  0  0  0  0  0  0  0  0  0
  -38.3280  -25.3910   23.8180 C   0  0  0  0  0  0  0  0  0  0  0  0
  -38.1300  -26.6420   23.3000 C   0  0  0  0  0  0  0  0  0  0  0  0
  -37.1550  -26.4920   22.2660 C   0  0  0  0  0  0  0  0  0  0  0  0
  -37.4830  -24.5480   23.1100 N   0  0  0  0  0  0  0  0  0  0  0  0
  -36.7410  -25.2330   22.2030 N   0  0  0  0  0  0  0  0  0  0  0  0
  -36.6340  -27.4570   21.2880 C   0  0  0  0  0  0  0  0  0  0  0  0
  -35.3690  -28.0640   21.4520 C   0  0  0  0  0  3  0  0  0  0  0  0
  -34.8960  -29.0040   20.5120 C   0  0  0  0  0  3  0  0  0  0  0  0
  -35.6920  -29.3490   19.3930 C   0  0  0  0  0  0  0  0  0  0  0  0
  -36.9410  -28.7280   19.2230 C   0  0  0  0  0  3  0  0  0  0  0  0
  -37.4080  -27.7880   20.1580 C   0  0  0  0  0  3  0  0  0  0  0  0
  -35.3020  -30.2300   18.4110 O   0  0  0  0  0  0  0  0  0  0  0  0
  -34.7560  -31.4500   18.7140 C   0  0  0  0  0  0  0  0  0  0  0  0
  -35.5390  -32.5150   19.2120 C   0  0  0  0  0  3  0  0  0  0  0  0
  -34.9510  -33.7740   19.4430 C   0  0  0  0  0  3  0  0  0  0  0  0
  -33.5850  -33.9750   19.1690 C   0  0  0  0  0  0  0  0  0  0  0  0
  -32.8040  -32.9180   18.6690 C   0  0  0  0  0  3  0  0  0  0  0  0
  -33.3890  -31.6610   18.4390 C   0  0  0  0  0  0  0  0  0  0  0  0
  -32.6380  -30.6510   17.9360 F   0  0  0  0  0  0  0  0  0  0  0  0
  -33.0210  -35.1870   19.3840 F   0  0  0  0  0  0  0  0  0  0  0  0
  -38.8620  -27.8990   23.6750 C   0  0  0  0  0  0  0  0  0  0  0  0
  -38.1350  -28.9730   23.9600 N   0  0  0  0  0  0  0  0  0  0  0  0
  -40.0890  -27.9220   23.7600 O   0  0  0  0  0  0  0  0  0  0  0  0
  -37.1270  -28.9510   23.9100 H   0  0  0  0  0  0  0  0  0  0  0  0
  -38.5950  -29.8300   24.2360 H   0  0  0  0  0  0  0  0  0  0  0  0
  -39.1570  -24.8870   24.8170 N   0  0  0  0  0  0  0  0  0  0  0  0
  -39.7990  -25.4500   25.3640 H   0  0  0  0  0  0  0  0  0  0  0  0
  -39.0850  -23.9300   25.1490 H   0  0  0  0  0  0  0  0  0  0  0  0
  -30.5780  -21.7270   21.6110 C   0  0  1  0  0  0  0  0  0  0  0  0
  -27.9720  -22.3460   21.5250 C   0  0  0  0  0  1  0  0  0  0  0  0
  -29.0820  -21.2810   21.4780 C   0  0  0  0  0  2  0  0  0  0  0  0
  -31.1450  -21.1560   24.1540 C   0  0  0  0  0  1  0  0  0  0  0  0
  -31.3030  -20.8150   22.6640 C   0  0  0  0  0  2  0  0  0  0  0  0
  -30.8630  -24.2530   20.9070 C   0  0  0  0  0  1  0  0  0  0  0  0
  -30.6310  -23.2310   22.0420 C   0  0  0  0  0  2  0  0  0  0  0  0
  -29.3740  -18.6300   18.5240 C   0  0  0  0  0  2  0  0  0  0  0  0
  -30.0690  -18.2120   17.2150 C   0  0  0  0  0  2  0  0  0  0  0  0
  -28.0200  -18.8640   15.9140 C   0  0  0  0  0  1  0  0  0  0  0  0
  -29.5570  -18.9590   15.9640 C   0  0  0  0  0  3  0  0  0  0  0  0
  -30.2100  -18.3990   14.6700 C   0  0  0  0  0  2  0  0  0  0  0  0
  -30.5710  -19.3750   13.5020 C   0  0  0  0  0  3  0  0  0  0  0  0
  -30.0990  -20.7750   13.6590 N   0  0  0  0  0  4  0  0  0  0  0  0
  -30.4410  -21.3430   12.9010 H   0  0  0  0  0  0  0  0  0  0  0  0
  -30.4210  -21.1960   14.5250 H   0  0  0  0  0  0  0  0  0  0  0  0
  -29.0950  -20.8280   13.6400 H   0  0  0  0  0  0  0  0  0  0  0  0
  -30.2780  -18.8090   12.0810 C   0  0  0  0  0  2  0  0  0  0  0  0
  -31.4410  -18.5660   11.2810 O   0  0  0  0  0  0  0  0  0  0  0  0
  -30.8800  -25.0200    8.3290 C   0  0  0  0  0  0  0  0  0  0  0  0
  -32.1100  -19.6490   10.7550 C   0  0  0  0  0  0  0  0  0  0  0  0
  -33.1160  -23.9670    8.2100 C   0  0  0  0  0  3  0  0  0  0  0  0
  -33.4410  -21.8900    9.6530 C   0  0  0  0  0  0  0  0  0  0  0  0
  -31.4990  -23.3950   10.1080 C   0  0  0  0  0  2  0  0  0  0  0  0
  -32.1450  -22.0280   10.1690 C   0  0  0  0  0  0  0  0  0  0  0  0
  -31.4730  -20.9110   10.7120 C   0  0  0  0  0  3  0  0  0  0  0  0
  -33.4050  -19.5270   10.2080 C   0  0  0  0  0  3  0  0  0  0  0  0
  -34.0750  -20.6360    9.6660 C   0  0  0  0  0  3  0  0  0  0  0  0
  -34.0880  -23.1320    9.0830 C   0  0  0  0  0  2  0  0  0  0  0  0
  -31.7750  -24.1420    8.8570 N   0  0  0  0  0  0  0  0  0  0  0  0
  -31.1710  -25.7090    7.3400 O   0  0  0  0  0  0  0  0  0  0  0  0
  -33.0380  -23.3370    6.8010 C   0  0  0  0  0  0  0  0  0  0  0  0
  -33.7470  -23.9420    5.8320 N   0  0  0  0  0  0  0  0  0  0  0  0
  -32.3700  -22.3210    6.6010 O   0  0  0  0  0  0  0  0  0  0  0  0
  -34.2620  -24.7770    6.0740 H   0  0  0  0  0  0  0  0  0  0  0  0
  -35.0130  -24.8650    2.5770 C   0  0  0  0  0  0  0  0  0  0  0  0
  -33.8430  -23.5050    4.4400 C   0  0  0  0  0  3  0  0  0  0  0  0
  -34.9780  -22.4730    4.2540 C   0  0  0  0  0  2  0  0  0  0  0  0
  -36.3120  -23.1120    3.8550 C   0  0  0  0  0  2  0  0  0  0  0  0
  -36.1710  -23.8810    2.5390 C   0  0  0  0  0  2  0  0  0  0  0  0
  -33.9300  -24.6980    3.4800 C   0  0  0  0  0  0  0  0  0  0  0  0
  -32.9000  -25.6640    3.4980 C   0  0  0  0  0  3  0  0  0  0  0  0
  -32.9400  -26.7760    2.6370 C   0  0  0  0  0  3  0  0  0  0  0  0
  -34.0060  -26.9270    1.7330 C   0  0  0  0  0  3  0  0  0  0  0  0
  -35.0370  -25.9710    1.7010 C   0  0  0  0  0  3  0  0  0  0  0  0
  -29.4640  -25.2170    8.9530 C   0  0  0  0  0  3  0  0  0  0  0  0
  -28.3230  -24.4890    8.1420 C   0  0  1  0  0  0  0  0  0  0  0  0
  -27.9410  -25.2060    6.8270 C   0  0  0  0  0  1  0  0  0  0  0  0
  -28.7370  -23.0420    7.7810 C   0  0  0  0  0  1  0  0  0  0  0  0
  -27.0550  -24.3800    9.0220 C   0  0  0  0  0  1  0  0  0  0  0  0
  -29.2100  -26.6630    9.0310 N   0  0  0  0  0  0  0  0  0  0  0  0
  -29.8300  -27.4950    9.8800 C   0  0  0  0  0  0  0  0  0  0  0  0
  -30.6250  -27.1070   10.7390 O   0  0  0  0  0  0  0  0  0  0  0  0
  -28.6140  -27.0600    8.3200 H   0  0  0  0  0  0  0  0  0  0  0  0
  -30.4550  -29.6350    8.7170 C   0  0  0  0  0  1  0  0  0  0  0  0
  -29.5170  -28.9980    9.7550 C   0  0  0  0  0  3  0  0  0  0  0  0
  -28.4180  -29.6170   11.8610 C   0  0  0  0  0  1  0  0  0  0  0  0
  -29.6180  -29.7290   11.0360 N   0  0  0  0  0  0  0  0  0  0  0  0
  -29.8000  -30.7160   10.8710 H   0  0  0  0  0  0  0  0  0  0  0  0
  1  3  2  0
  2  1  1  0
  2  5  1  0
  4  2  1  0
  5  6  1  0
  5 47  1  0
  6  8  1  0
  7  6  2  0
  9 15  1  0
  9 16  2  0
 10 11  1  0
 11 12  1  0
 13 14  1  0
 13 12  1  0
 14 15  1  0
 15 10  1  0
 17  8  1  0
 17  9  1  0
 18 17  1  0
 19 44  1  0
 20 39  1  0
 20 19  2  0
 21 20  1  0
 22 13  1  0
 22 19  1  0
 23 21  2  0
 23 22  1  0
 24 25  1  0
 24 21  1  0
 26 25  2  0
 27 26  1  0
 28 27  2  0
 28 29  1  0
 29 24  2  0
 30 31  1  0
 30 27  1  0
 31 32  1  0
 32 33  2  0
 34 38  1  0
 34 33  1  0
 35 34  2  0
 36 35  1  0
 36 31  2  0
 37 36  1  0
 39 41  2  0
 39 40  1  0
 40 43  1  0
 42 40  1  0
 44 46  1  0
 44 45  1  0
 47 53  1  1
 47 51  1  0
 49 48  1  0
 49 47  1  0
 51 50  1  0
 52 53  1  0
 54  1  1  0
 55 54  1  0
 57 56  1  0
 57 55  1  0
 58 57  1  0
 59 64  1  0
 59 60  1  0
 59 58  1  0
 60 62  1  0
 61 60  1  0
 63 60  1  0
 65 64  1  0
 66 76  1  0
 67 65  1  0
 68 78  1  0
 68 76  1  0
 68 75  1  0
 69 74  2  0
 69 71  1  0
 70 71  1  0
 71 72  2  0
 72 67  1  0
 73 67  2  0
 74 73  1  0
 75 69  1  0
 76 70  1  0
 77 66  2  0
 79 81  1  0
 79 78  1  0
 80 78  2  0
 82 87  1  0
 83 79  1  0
 84 83  1  0
 85 84  1  0
 86 82  1  0
 86 85  1  0
 87 88  2  0
 87 83  1  0
 89 88  1  0
 90 89  2  0
 91 90  1  0
 91 82  2  0
 92 66  1  0
 92 97  1  0
 93 92  1  0
 93 96  1  1
 94 93  1  0
 95 93  1  0
 97 98  1  0
 98 99  2  0
100 97  1  0
102101  1  0
102 98  1  0
102104  1  0
104103  1  0
105104  1  0
M  ISO  4   9 100  17 100  64 101  65 101
M  END
>  <TORSDO>  (8) 
F 30

>  <SCORE>  (8) 
-4.087

>  <name>  (8) 
7

>  <ligand_id>  (8) 
7

>  <original_smiles>  (8) 
[H]c1c([H])c([H])c2c(c1[H])C([H])([H])C([H])([H])C([H])([H])C2([H])N([H])C(=O)C1([H])N(C(=O)C([H])(N([H])C(=O)C([H])(N([H])C([H])([H])[H])C([H])([H])[H])C(C([H])([H])[H])(C([H])([H])[H])C([H])([H])[H])C([H])([H])c2c([H])c(OC([H])([H])C([H])(C([H])([H])C([H])(C([H])([H])[H])C([H])([H])C([H])([H])C(=O)N([H])C([H])(C(=O)C([H])([H])N([H])C(=O)N3C([H])([H])C([H])([H])C([H])([H])C([H])(n4nc(-c5c([H])c([H])c(Oc6c([H])c([H])c(F)c([H])c6F)c([H])c5[H])c(C(=O)N([H])[H])c4N([H])[H])C3([H])[H])C(C([H])([H])C([H])([H])[H])(C([H])([H])C([H])([H])[H])C([H])([H])C([H])([H])[H])[N+]([H])([H])[H])c([H])c([H])c2C1([H])[H]

>  <smiles>  (8) 
[H]c1c([H])c([H])c2c(c1[H])C([H])([H])C([H])([H])C([H])([H])C2([H])N([H])C(=O)C1([H])N(C(=O)C([H])(N([H])C(=O)C([H])(N([H])C([H])([H])[H])C([H])([H])[H])C(C([H])([H])[H])(C([H])([H])[H])C([H])([H])[H])C([H])([H])c2c([H])c(OC([H])([H])C([H])(C([H])([H])C([H])(C([H])([H])[H])C([H])([H])C([H])([H])C(=O)N([H])C([H])(C(=O)C([H])([H])N([H])C(=O)N3C([H])([H])C([H])([H])C([H])([H])C([H])(n4nc(-c5c([H])c([H])c(Oc6c([H])c([H])c(F)c([H])c6F)c([H])c5[H])c(C(=O)N([H])[H])c4N([H])[H])C3([H])[H])C(C([H])([H])C([H])([H])[H])(C([H])([H])C([H])([H])[H])C([H])([H])C([H])([H])[H])[N+]([H])([H])[H])c([H])c([H])c2C1([H])[H]

$$$$
8:0:0
     RDKit          3D

 88 96  0  0  1  0  0  0  0  0999 V2000
  -28.6900  -21.9820   20.0600 C   0  0  0  0  0  3  0  0  0  0  0  0
  -28.9810  -23.5510   20.5020 C   0  0  0  0  0  3  0  0  0  0  0  0
  -28.0320  -24.8100   20.0310 C   0  0  0  0  0  3  0  0  0  0  0  0
  -28.2760  -26.2830   20.3540 O   0  0  0  0  0  0  0  0  0  0  0  0
  -24.6400  -31.8750   23.3260 C   0  0  0  0  0  0  0  0  0  0  0  0
  -27.2120  -27.2300   20.2670 C   0  0  0  0  0  0  0  0  0  0  0  0
  -23.4370  -30.4980   21.6710 C   0  0  0  0  0  3  0  0  0  0  0  0
  -24.8830  -28.9390   20.2370 C   0  0  0  0  0  0  0  0  0  0  0  0
  -25.9890  -30.7690   21.5150 C   0  0  0  0  0  2  0  0  0  0  0  0
  -26.0580  -29.3880   20.8550 C   0  0  0  0  0  0  0  0  0  0  0  0
  -27.2230  -28.5460   20.8580 C   0  0  0  0  0  3  0  0  0  0  0  0
  -26.0170  -26.8720   19.6000 C   0  0  0  0  0  3  0  0  0  0  0  0
  -24.8720  -27.6920   19.5960 C   0  0  0  0  0  3  0  0  0  0  0  0
  -23.6570  -29.8330   20.2870 C   0  0  0  0  0  2  0  0  0  0  0  0
  -24.7080  -31.0670   22.2270 N   0  0  0  0  0  0  0  0  0  0  0  0
  -23.5550  -32.1590   23.8550 O   0  0  0  0  0  0  0  0  0  0  0  0
  -22.7560  -29.4820   22.6220 C   0  0  0  0  0  0  0  0  0  0  0  0
  -21.4300  -29.3120   22.4830 N   0  0  0  0  0  0  0  0  0  0  0  0
  -23.4230  -28.8510   23.4470 O   0  0  0  0  0  0  0  0  0  0  0  0
  -20.9500  -29.8740   21.7930 H   0  0  0  0  0  0  0  0  0  0  0  0
  -18.0430  -28.1190   22.9500 C   0  0  0  0  0  0  0  0  0  0  0  0
  -20.5990  -28.3740   23.2440 C   0  0  0  0  0  3  0  0  0  0  0  0
  -20.7040  -26.9430   22.6660 C   0  0  0  0  0  2  0  0  0  0  0  0
  -19.6120  -26.6250   21.6400 C   0  0  0  0  0  2  0  0  0  0  0  0
  -18.2240  -26.7710   22.2720 C   0  0  0  0  0  2  0  0  0  0  0  0
  -19.1590  -28.8780   23.3910 C   0  0  0  0  0  0  0  0  0  0  0  0
  -18.9360  -30.1390   23.9870 C   0  0  0  0  0  3  0  0  0  0  0  0
  -17.6300  -30.6410   24.1420 C   0  0  0  0  0  3  0  0  0  0  0  0
  -16.5290  -29.8790   23.7170 C   0  0  0  0  0  3  0  0  0  0  0  0
  -16.7360  -28.6190   23.1250 C   0  0  0  0  0  3  0  0  0  0  0  0
  -25.9220  -32.4960   23.9600 C   0  0  0  0  0  3  0  0  0  0  0  0
  -26.4040  -31.7360   25.2570 C   0  0  1  0  0  0  0  0  0  0  0  0
  -25.2900  -31.5340   26.3110 C   0  0  0  0  0  1  0  0  0  0  0  0
  -26.9700  -30.3420   24.9020 C   0  0  0  0  0  1  0  0  0  0  0  0
  -27.5570  -32.5200   25.9270 C   0  0  0  0  0  1  0  0  0  0  0  0
  -25.6300  -33.9040   24.2680 N   0  0  0  0  0  0  0  0  0  0  0  0
  -25.9690  -34.9420   23.4910 C   0  0  0  0  0  0  0  0  0  0  0  0
  -26.6300  -34.8140   22.4570 O   0  0  0  0  0  0  0  0  0  0  0  0
  -25.0430  -34.0780   25.0710 H   0  0  0  0  0  0  0  0  0  0  0  0
  -24.2510  -36.7460   23.1340 C   0  0  0  0  0  1  0  0  0  0  0  0
  -25.5030  -36.3440   23.9300 C   0  0  0  0  0  3  0  0  0  0  0  0
  -27.6590  -37.2260   24.7040 C   0  0  0  0  0  1  0  0  0  0  0  0
  -26.5400  -37.3870   23.7810 N   0  0  0  0  0  0  0  0  0  0  0  0
  -26.1430  -38.3120   23.9210 H   0  0  0  0  0  0  0  0  0  0  0  0
  -29.5990  -20.7270   20.6170 C   0  0  0  0  0  3  0  0  0  0  0  0
  -30.6540  -14.8440   19.9900 C   0  0  0  0  0  0  0  0  0  0  0  0
  -30.3760  -12.5560   18.9900 C   0  0  0  0  0  2  0  0  0  0  0  0
  -29.3810  -12.6020   17.8110 C   0  0  0  0  0  2  0  0  0  0  0  0
  -27.9400  -12.4130   18.3200 C   0  0  0  0  0  2  0  0  0  0  0  0
  -27.6220  -13.3000   19.5550 C   0  0  0  0  0  3  0  0  0  0  0  0
  -28.7410  -13.2540   20.6170 C   0  0  0  0  0  2  0  0  0  0  0  0
  -29.9880  -13.6320   19.9410 N   0  0  0  0  0  0  0  0  0  0  0  0
  -31.8290  -14.8670   19.6090 O   0  0  0  0  0  0  0  0  0  0  0  0
  -29.2090  -16.6910   21.1320 C   0  0  0  0  0  2  0  0  0  0  0  0
  -30.0440  -17.0700   18.8840 C   0  0  0  0  0  2  0  0  0  0  0  0
  -29.4290  -18.2550   21.4200 C   0  0  0  0  0  2  0  0  0  0  0  0
  -30.2310  -18.6240   19.2120 C   0  0  0  0  0  2  0  0  0  0  0  0
  -29.9370  -16.0610   19.9930 N   0  0  0  0  0  0  0  0  0  0  0  0
  -29.3330  -19.2190   20.2590 N   0  0  2  0  0  4  0  0  0  0  0  0
  -28.3840  -19.1650   19.9200 H   0  0  0  0  0  0  0  0  0  0  0  0
  -25.2880  -13.8690   20.4410 C   0  0  0  0  0  0  0  0  0  0  0  0
  -24.2420  -13.0880   20.8500 C   0  0  0  0  0  0  0  0  0  0  0  0
  -24.6980  -11.7380   20.7580 C   0  0  0  0  0  0  0  0  0  0  0  0
  -26.3110  -12.9950   20.1190 N   0  0  0  0  0  0  0  0  0  0  0  0
  -25.9690  -11.7050   20.3740 N   0  0  0  0  0  0  0  0  0  0  0  0
  -23.9760  -10.4720   20.9550 C   0  0  0  0  0  0  0  0  0  0  0  0
  -24.4270   -9.5010   21.8770 C   0  0  0  0  0  3  0  0  0  0  0  0
  -23.7050   -8.3030   22.0630 C   0  0  0  0  0  3  0  0  0  0  0  0
  -22.5180   -8.0660   21.3300 C   0  0  0  0  0  0  0  0  0  0  0  0
  -22.0860   -9.0260   20.3990 C   0  0  0  0  0  3  0  0  0  0  0  0
  -22.8080  -10.2160   20.2090 C   0  0  0  0  0  3  0  0  0  0  0  0
  -21.7670   -6.9200   21.4270 O   0  0  0  0  0  0  0  0  0  0  0  0
  -21.6970   -6.2010   22.5930 C   0  0  0  0  0  0  0  0  0  0  0  0
  -21.2400   -6.7770   23.7980 C   0  0  0  0  0  3  0  0  0  0  0  0
  -21.1200   -5.9840   24.9570 C   0  0  0  0  0  3  0  0  0  0  0  0
  -21.4470   -4.6150   24.9100 C   0  0  0  0  0  0  0  0  0  0  0  0
  -21.8960   -4.0380   23.7100 C   0  0  0  0  0  3  0  0  0  0  0  0
  -22.0180   -4.8280   22.5540 C   0  0  0  0  0  0  0  0  0  0  0  0
  -22.4320   -4.2620   21.3950 F   0  0  0  0  0  0  0  0  0  0  0  0
  -21.3230   -3.8510   26.0210 F   0  0  0  0  0  0  0  0  0  0  0  0
  -22.8650  -13.5640   21.2090 C   0  0  0  0  0  0  0  0  0  0  0  0
  -22.1840  -12.8550   22.1030 N   0  0  0  0  0  0  0  0  0  0  0  0
  -22.4020  -14.5990   20.7310 O   0  0  0  0  0  0  0  0  0  0  0  0
  -22.5720  -12.0180   22.5110 H   0  0  0  0  0  0  0  0  0  0  0  0
  -21.2610  -13.1560   22.3830 H   0  0  0  0  0  0  0  0  0  0  0  0
  -25.4500  -15.2440   20.2900 N   0  0  0  0  0  0  0  0  0  0  0  0
  -24.6970  -15.8990   20.4670 H   0  0  0  0  0  0  0  0  0  0  0  0
  -26.2750  -15.6790   19.9010 H   0  0  0  0  0  0  0  0  0  0  0  0
  1  2  1  0
  1 45  2  0
  3  4  1  0
  3  2  2  0
  5 16  2  0
  6  4  1  0
  6 11  1  0
  7 15  1  0
  7 17  1  0
  8 14  1  0
  8 10  1  0
  9 15  1  0
 10 11  2  0
 10  9  1  0
 12  6  2  0
 13 12  1  0
 13  8  2  0
 14  7  1  0
 15  5  1  0
 17 19  2  0
 18 17  1  0
 20 18  1  0
 21 30  2  0
 21 26  1  0
 22 18  1  0
 22 26  1  0
 23 22  1  0
 24 25  1  0
 24 23  1  0
 25 21  1  0
 26 27  2  0
 27 28  1  0
 29 28  2  0
 30 29  1  0
 31  5  1  0
 31 36  1  0
 31 32  1  0
 32 35  1  1
 32 33  1  0
 34 32  1  0
 36 39  1  0
 37 41  1  0
 37 36  1  0
 38 37  2  0
 41 40  1  0
 43 44  1  0
 43 41  1  0
 43 42  1  0
 46 58  1  0
 47 52  1  0
 48 49  1  0
 48 47  1  0
 50 49  1  0
 50 64  1  0
 50 51  1  0
 52 46  1  0
 52 51  1  0
 53 46  2  0
 54 56  1  0
 55 57  1  0
 55 58  1  0
 57 59  1  0
 58 54  1  0
 59 45  1  0
 59 56  1  0
 59 60  1  6
 61 62  2  0
 62 81  1  0
 63 62  1  0
 63 66  1  0
 64 65  1  0
 64 61  1  0
 65 63  2  0
 66 67  1  0
 67 68  2  0
 69 72  1  0
 69 68  1  0
 70 69  2  0
 71 70  1  0
 71 66  2  0
 72 73  1  0
 73 74  1  0
 74 75  2  0
 76 75  1  0
 76 80  1  0
 77 76  2  0
 78 73  2  0
 78 77  1  0
 79 78  1  0
 81 82  1  0
 82 85  1  0
 82 84  1  0
 83 81  2  0
 86 61  1  0
 86 87  1  0
 88 86  1  0
M  ISO  4   3 101   4 101  46 100  58 100
M  END
>  <TORSDO>  (9) 
F 19

>  <SCORE>  (9) 
-13.639

>  <name>  (9) 
8

>  <ligand_id>  (9) 
8

>  <original_smiles>  (9) 
[H]c1c([H])c([H])c2c(c1[H])C([H])([H])C([H])([H])C([H])([H])C2([H])N([H])C(=O)C1([H])N(C(=O)C([H])(N([H])C(=O)C([H])(N([H])C([H])([H])[H])C([H])([H])[H])C(C([H])([H])[H])(C([H])([H])[H])C([H])([H])[H])C([H])([H])c2c([H])c(OC([H])([H])C([H])([H])C([H])([H])C([H])([H])[N+]3([H])C([H])([H])C([H])([H])N(C(=O)N4C([H])([H])C([H])([H])C([H])([H])C([H])(n5nc(-c6c([H])c([H])c(Oc7c([H])c([H])c(F)c([H])c7F)c([H])c6[H])c(C(=O)N([H])[H])c5N([H])[H])C4([H])[H])C([H])([H])C3([H])[H])c([H])c([H])c2C1([H])[H]

>  <smiles>  (9) 
[H]c1c([H])c([H])c2c(c1[H])C([H])([H])C([H])([H])C([H])([H])C2([H])N([H])C(=O)C1([H])N(C(=O)C([H])(N([H])C(=O)C([H])(N([H])C([H])([H])[H])C([H])([H])[H])C(C([H])([H])[H])(C([H])([H])[H])C([H])([H])[H])C([H])([H])c2c([H])c(OC([H])([H])C([H])([H])C([H])([H])C([H])([H])[N+]3([H])C([H])([H])C([H])([H])N(C(=O)N4C([H])([H])C([H])([H])C([H])([H])C([H])(n5nc(-c6c([H])c([H])c(Oc7c([H])c([H])c(F)c([H])c7F)c([H])c6[H])c(C(=O)N([H])[H])c5N([H])[H])C4([H])[H])C([H])([H])C3([H])[H])c([H])c([H])c2C1([H])[H]

$$$$
9:0:0
     RDKit          3D

 93100  0  0  1  0  0  0  0  0999 V2000
  -30.6990  -18.1400   20.9820 C   0  0  0  0  0  0  0  0  0  0  0  0
  -30.2540  -19.4260   21.0280 N   0  0  0  0  0  0  0  0  0  0  0  0
  -31.8730  -17.8440   21.2030 O   0  0  0  0  0  0  0  0  0  0  0  0
  -29.2720  -19.5590   20.8280 H   0  0  0  0  0  0  0  0  0  0  0  0
  -31.0820  -20.6520   21.0860 C   0  0  0  0  0  2  0  0  0  0  0  0
  -30.3810  -21.9850   21.5460 C   0  0  0  0  0  2  0  0  0  0  0  0
  -29.5770  -22.8400   20.5040 C   0  0  0  0  0  2  0  0  0  0  0  0
  -29.4730  -24.3750   20.8450 C   0  0  0  0  0  2  0  0  0  0  0  0
  -28.3440  -25.1990   20.1360 C   0  0  0  0  0  2  0  0  0  0  0  0
  -28.4350  -26.6380   20.3490 O   0  0  0  0  0  0  0  0  0  0  0  0
  -24.6030  -31.9270   23.2680 C   0  0  0  0  0  0  0  0  0  0  0  0
  -27.2760  -27.4080   20.2700 C   0  0  0  0  0  0  0  0  0  0  0  0
  -23.4200  -30.5150   21.6190 C   0  0  0  0  0  3  0  0  0  0  0  0
  -24.8920  -28.9640   20.2200 C   0  0  0  0  0  0  0  0  0  0  0  0
  -25.9530  -30.8520   21.4620 C   0  0  0  0  0  2  0  0  0  0  0  0
  -26.0420  -29.4730   20.8320 C   0  0  0  0  0  0  0  0  0  0  0  0
  -27.2340  -28.7020   20.8550 C   0  0  0  0  0  3  0  0  0  0  0  0
  -26.1050  -26.9370   19.6290 C   0  0  0  0  0  3  0  0  0  0  0  0
  -24.9210  -27.6990   19.6120 C   0  0  0  0  0  3  0  0  0  0  0  0
  -23.6450  -29.8250   20.2490 C   0  0  0  0  0  2  0  0  0  0  0  0
  -24.6770  -31.1150   22.1740 N   0  0  0  0  0  0  0  0  0  0  0  0
  -23.5140  -32.2080   23.7860 O   0  0  0  0  0  0  0  0  0  0  0  0
  -22.7490  -29.5040   22.5770 C   0  0  0  0  0  0  0  0  0  0  0  0
  -21.4240  -29.3320   22.4370 N   0  0  0  0  0  0  0  0  0  0  0  0
  -23.4180  -28.8790   23.4050 O   0  0  0  0  0  0  0  0  0  0  0  0
  -20.9470  -29.8820   21.7370 H   0  0  0  0  0  0  0  0  0  0  0  0
  -18.0350  -28.1720   22.9110 C   0  0  0  0  0  0  0  0  0  0  0  0
  -20.5920  -28.4020   23.2000 C   0  0  0  0  0  3  0  0  0  0  0  0
  -20.6860  -26.9710   22.6210 C   0  0  0  0  0  2  0  0  0  0  0  0
  -19.5860  -26.6630   21.6000 C   0  0  0  0  0  2  0  0  0  0  0  0
  -18.2010  -26.8210   22.2350 C   0  0  0  0  0  2  0  0  0  0  0  0
  -19.1580  -28.9220   23.3500 C   0  0  0  0  0  0  0  0  0  0  0  0
  -18.9490  -30.1880   23.9400 C   0  0  0  0  0  3  0  0  0  0  0  0
  -17.6490  -30.7030   24.0970 C   0  0  0  0  0  3  0  0  0  0  0  0
  -16.5390  -29.9490   23.6770 C   0  0  0  0  0  3  0  0  0  0  0  0
  -16.7340  -28.6860   23.0910 C   0  0  0  0  0  3  0  0  0  0  0  0
  -25.8810  -32.5590   23.9030 C   0  0  0  0  0  3  0  0  0  0  0  0
  -25.5700  -33.9590   24.2240 N   0  0  0  0  0  0  0  0  0  0  0  0
  -25.9080  -35.0090   23.4630 C   0  0  0  0  0  0  0  0  0  0  0  0
  -26.5860  -34.9000   22.4380 O   0  0  0  0  0  0  0  0  0  0  0  0
  -24.9760  -34.1180   25.0260 H   0  0  0  0  0  0  0  0  0  0  0  0
  -24.1810  -36.7960   23.0900 C   0  0  0  0  0  1  0  0  0  0  0  0
  -25.4170  -36.3990   23.9110 C   0  0  0  0  0  3  0  0  0  0  0  0
  -27.5460  -37.2910   24.7490 C   0  0  0  0  0  1  0  0  0  0  0  0
  -26.4500  -37.4520   23.7970 N   0  0  0  0  0  0  0  0  0  0  0  0
  -26.0420  -38.3720   23.9370 H   0  0  0  0  0  0  0  0  0  0  0  0
  -26.3820  -31.7900   25.1860 C   0  0  1  0  0  0  0  0  0  0  0  0
  -25.2750  -31.5570   26.2400 C   0  0  0  0  0  1  0  0  0  0  0  0
  -26.9710  -30.4120   24.8040 C   0  0  0  0  0  1  0  0  0  0  0  0
  -27.5240  -32.5860   25.8600 C   0  0  0  0  0  1  0  0  0  0  0  0
  -29.6790  -17.0330   20.5670 C   0  0  0  0  0  0  0  0  0  0  0  0
  -30.6250  -14.6340   20.3350 C   0  0  0  0  0  0  0  0  0  0  0  0
  -30.3120  -12.4990   19.1200 C   0  0  0  0  0  2  0  0  0  0  0  0
  -29.3440  -12.7770   17.9490 C   0  0  0  0  0  2  0  0  0  0  0  0
  -27.8780  -12.6150   18.4020 C   0  0  0  0  0  2  0  0  0  0  0  0
  -27.5790  -13.3660   19.7270 C   0  0  0  0  0  3  0  0  0  0  0  0
  -28.6690  -13.0900   20.7920 C   0  0  0  0  0  2  0  0  0  0  0  0
  -29.9790  -13.4320   20.2120 N   0  0  0  0  0  0  0  0  0  0  0  0
  -31.6990  -14.8600   19.7750 O   0  0  0  0  0  0  0  0  0  0  0  0
  -29.9270  -15.6110   20.9660 N   0  0  0  0  0  4  0  0  0  0  0  0
  -29.1980  -15.2430   21.5570 H   0  0  0  0  0  0  0  0  0  0  0  0
  -25.1930  -13.9460   20.4870 C   0  0  0  0  0  0  0  0  0  0  0  0
  -24.1360  -13.1640   20.8650 C   0  0  0  0  0  0  0  0  0  0  0  0
  -24.6040  -11.8140   20.8070 C   0  0  0  0  0  0  0  0  0  0  0  0
  -26.2380  -13.0740   20.2250 N   0  0  0  0  0  0  0  0  0  0  0  0
  -25.8900  -11.7860   20.4750 N   0  0  0  0  0  0  0  0  0  0  0  0
  -23.8850  -10.5470   20.9980 C   0  0  0  0  0  0  0  0  0  0  0  0
  -24.3470   -9.5710   21.9070 C   0  0  0  0  0  3  0  0  0  0  0  0
  -23.6340   -8.3670   22.0860 C   0  0  0  0  0  3  0  0  0  0  0  0
  -22.4430   -8.1320   21.3590 C   0  0  0  0  0  0  0  0  0  0  0  0
  -21.9990   -9.0980   20.4400 C   0  0  0  0  0  3  0  0  0  0  0  0
  -22.7130  -10.2940   20.2570 C   0  0  0  0  0  3  0  0  0  0  0  0
  -21.7000   -6.9810   21.4490 O   0  0  0  0  0  0  0  0  0  0  0  0
  -21.6910   -6.2140   22.5870 C   0  0  0  0  0  0  0  0  0  0  0  0
  -21.3060   -6.7420   23.8380 C   0  0  0  0  0  3  0  0  0  0  0  0
  -21.2450   -5.9030   24.9690 C   0  0  0  0  0  3  0  0  0  0  0  0
  -21.5610   -4.5360   24.8480 C   0  0  0  0  0  0  0  0  0  0  0  0
  -21.9380   -4.0070   23.6020 C   0  0  0  0  0  3  0  0  0  0  0  0
  -21.9990   -4.8420   22.4740 C   0  0  0  0  0  0  0  0  0  0  0  0
  -22.3430   -4.3220   21.2700 F   0  0  0  0  0  0  0  0  0  0  0  0
  -21.4940   -3.7280   25.9310 F   0  0  0  0  0  0  0  0  0  0  0  0
  -22.7420  -13.6300   21.1710 C   0  0  0  0  0  0  0  0  0  0  0  0
  -22.0360  -12.9180   22.0440 N   0  0  0  0  0  0  0  0  0  0  0  0
  -22.2860  -14.6570   20.6700 O   0  0  0  0  0  0  0  0  0  0  0  0
  -22.4140  -12.0860   22.4710 H   0  0  0  0  0  0  0  0  0  0  0  0
  -21.0990  -13.2070   22.2870 H   0  0  0  0  0  0  0  0  0  0  0  0
  -25.3480  -15.3220   20.3210 N   0  0  0  0  0  0  0  0  0  0  0  0
  -24.5810  -15.9720   20.4440 H   0  0  0  0  0  0  0  0  0  0  0  0
  -26.1970  -15.7670   19.9980 H   0  0  0  0  0  0  0  0  0  0  0  0
  -29.1810  -17.1520   19.0910 C   0  0  0  0  0  2  0  0  0  0  0  0
  -27.2520  -18.8240   19.5270 C   0  0  0  0  0  1  0  0  0  0  0  0
  -28.1070  -18.4730   17.1890 C   0  0  0  0  0  1  0  0  0  0  0  0
  -28.4900  -18.4810   18.6750 C   0  0  0  0  0  3  0  0  0  0  0  0
  1  2  1  0
  1  3  2  0
  2  5  1  0
  4  2  1  0
  5  6  1  0
  7  8  1  0
  7  6  1  0
  9 10  1  0
  9  8  1  0
 11 22  2  0
 12 10  1  0
 12 17  1  0
 13 21  1  0
 13 23  1  0
 14 20  1  0
 14 16  1  0
 15 21  1  0
 16 17  2  0
 16 15  1  0
 18 12  2  0
 19 18  1  0
 19 14  2  0
 20 13  1  0
 21 11  1  0
 23 25  2  0
 24 23  1  0
 26 24  1  0
 27 36  2  0
 27 32  1  0
 28 24  1  0
 28 32  1  0
 29 28  1  0
 30 31  1  0
 30 29  1  0
 31 27  1  0
 32 33  2  0
 33 34  1  0
 35 34  2  0
 36 35  1  0
 37 11  1  0
 37 38  1  0
 37 47  1  0
 38 41  1  0
 39 43  1  0
 39 38  1  0
 40 39  2  0
 43 42  1  0
 45 43  1  0
 45 46  1  0
 45 44  1  0
 47 50  1  1
 47 48  1  0
 49 47  1  0
 51 60  2  3
 51  1  1  0
 52 60  1  0
 53 58  1  0
 54 55  1  0
 54 53  1  0
 56 55  1  0
 56 65  1  0
 56 57  1  0
 58 52  1  0
 58 57  1  0
 59 52  2  0
 60 61  1  0
 62 63  2  0
 63 82  1  0
 64 63  1  0
 64 67  1  0
 65 66  1  0
 65 62  1  0
 66 64  2  0
 67 68  1  0
 68 69  2  0
 70 73  1  0
 70 69  1  0
 71 70  2  0
 72 71  1  0
 72 67  2  0
 73 74  1  0
 74 75  1  0
 75 76  2  0
 77 76  1  0
 77 81  1  0
 78 77  2  0
 79 74  2  0
 79 78  1  0
 80 79  1  0
 82 83  1  0
 83 86  1  0
 83 85  1  0
 84 82  2  0
 87 88  1  0
 87 62  1  0
 89 87  1  0
 90 51  1  0
 92 93  1  0
 93 90  1  0
 93 91  1  0
M  ISO  4   9 101  10 101  52 100  60 100
M  END
>  <TORSDO>  (10) 
F 24

>  <SCORE>  (10) 
-12.924

>  <name>  (10) 
9

>  <ligand_id>  (10) 
9

>  <original_smiles>  (10) 
[H]c1c([H])c([H])c2c(c1[H])C([H])([H])C([H])([H])C([H])([H])C2([H])N([H])C(=O)C1([H])N(C(=O)C([H])(N([H])C(=O)C([H])(N([H])C([H])([H])[H])C([H])([H])[H])C(C([H])([H])[H])(C([H])([H])[H])C([H])([H])[H])C([H])([H])c2c([H])c(OC([H])([H])C([H])([H])C([H])([H])C([H])([H])C([H])([H])N([H])C(=O)C([H])(N([H])C(=O)N3C([H])([H])C([H])([H])C([H])([H])C([H])(n4nc(-c5c([H])c([H])c(Oc6c([H])c([H])c(F)c([H])c6F)c([H])c5[H])c(C(=O)N([H])[H])c4N([H])[H])C3([H])[H])C([H])([H])C([H])(C([H])([H])[H])C([H])([H])[H])c([H])c([H])c2C1([H])[H]

>  <smiles>  (10) 
[H]c1c([H])c([H])c2c(c1[H])C([H])([H])C([H])([H])C([H])([H])C2([H])N([H])C(=O)C1([H])N(C(=O)C([H])(N([H])C(=O)C([H])(N([H])C([H])([H])[H])C([H])([H])[H])C(C([H])([H])[H])(C([H])([H])[H])C([H])([H])[H])C([H])([H])c2c([H])c(OC([H])([H])C([H])([H])C([H])([H])C([H])([H])C([H])([H])N([H])C(=O)C([H])(N([H])C(=O)N3C([H])([H])C([H])([H])C([H])([H])C([H])(n4nc(-c5c([H])c([H])c(Oc6c([H])c([H])c(F)c([H])c6F)c([H])c5[H])c(C(=O)N([H])[H])c4N([H])[H])C3([H])[H])C([H])([H])C([H])(C([H])([H])[H])C([H])([H])[H])c([H])c([H])c2C1([H])[H]

$$$$
10:0:0
     RDKit          3D

 99107  0  0  1  0  0  0  0  0999 V2000
  -31.3260  -24.4380   17.4470 C   0  0  0  0  0  2  0  0  0  0  0  0
  -30.9610  -23.0890   16.8470 C   0  0  0  0  0  2  0  0  0  0  0  0
  -30.0950  -24.9800   18.1660 C   0  0  0  0  0  2  0  0  0  0  0  0
  -30.5650  -22.1140   17.9620 C   0  0  0  0  0  2  0  0  0  0  0  0
  -29.5560  -24.0320   19.2730 C   0  0  0  0  0  3  0  0  0  0  0  0
  -29.4360  -22.5890   18.8290 N   0  0  2  0  0  4  0  0  0  0  0  0
  -28.6090  -22.6040   18.2470 H   0  0  0  0  0  0  0  0  0  0  0  0
  -28.1520  -24.5580   19.6630 C   0  0  0  0  0  0  0  0  0  0  0  0
  -27.1140  -24.0200   19.2650 O   0  0  0  0  0  0  0  0  0  0  0  0
  -28.0670  -25.8240   20.5340 C   0  0  0  0  0  2  0  0  0  0  0  0
  -28.0370  -27.0110   19.7330 O   0  0  0  0  0  0  0  0  0  0  0  0
  -24.5020  -31.9860   23.3890 C   0  0  0  0  0  0  0  0  0  0  0  0
  -26.8910  -27.7570   19.8650 C   0  0  0  0  0  0  0  0  0  0  0  0
  -23.1860  -30.7480   21.6980 C   0  0  0  0  0  3  0  0  0  0  0  0
  -24.5360  -29.2920   20.0950 C   0  0  0  0  0  0  0  0  0  0  0  0
  -25.7050  -31.0720   21.4080 C   0  0  0  0  0  2  0  0  0  0  0  0
  -25.7280  -29.7510   20.6690 C   0  0  0  0  0  0  0  0  0  0  0  0
  -26.9130  -28.9900   20.5500 C   0  0  0  0  0  3  0  0  0  0  0  0
  -25.6880  -27.3040   19.2880 C   0  0  0  0  0  3  0  0  0  0  0  0
  -24.5080  -28.0680   19.4030 C   0  0  0  0  0  3  0  0  0  0  0  0
  -23.3170  -30.1720   20.2620 C   0  0  0  0  0  2  0  0  0  0  0  0
  -24.4860  -31.2770   22.2250 N   0  0  0  0  0  0  0  0  0  0  0  0
  -23.4540  -32.2390   24.0000 O   0  0  0  0  0  0  0  0  0  0  0  0
  -22.5500  -29.6700   22.6040 C   0  0  0  0  0  0  0  0  0  0  0  0
  -21.2250  -29.4910   22.4820 N   0  0  0  0  0  0  0  0  0  0  0  0
  -23.2470  -29.0000   23.3720 O   0  0  0  0  0  0  0  0  0  0  0  0
  -20.7250  -30.0860   21.8380 H   0  0  0  0  0  0  0  0  0  0  0  0
  -17.8700  -28.2180   22.8980 C   0  0  0  0  0  0  0  0  0  0  0  0
  -20.4210  -28.5060   23.2040 C   0  0  0  0  0  3  0  0  0  0  0  0
  -20.5530  -27.1040   22.5670 C   0  0  0  0  0  2  0  0  0  0  0  0
  -19.4640  -26.8070   21.5300 C   0  0  0  0  0  2  0  0  0  0  0  0
  -18.0760  -26.9010   22.1670 C   0  0  0  0  0  2  0  0  0  0  0  0
  -18.9730  -28.9780   23.3710 C   0  0  0  0  0  0  0  0  0  0  0  0
  -18.7270  -30.2120   24.0130 C   0  0  0  0  0  3  0  0  0  0  0  0
  -17.4140  -30.6840   24.1890 C   0  0  0  0  0  3  0  0  0  0  0  0
  -16.3250  -29.9190   23.7310 C   0  0  0  0  0  3  0  0  0  0  0  0
  -16.5560  -28.6890   23.0920 C   0  0  0  0  0  3  0  0  0  0  0  0
  -25.8320  -32.5330   23.9970 C   0  0  0  0  0  3  0  0  0  0  0  0
  -26.3640  -31.6710   25.2070 C   0  0  1  0  0  0  0  0  0  0  0  0
  -25.3020  -31.4170   26.3030 C   0  0  0  0  0  1  0  0  0  0  0  0
  -26.8740  -30.2970   24.7140 C   0  0  0  0  0  1  0  0  0  0  0  0
  -27.5700  -32.3800   25.8680 C   0  0  0  0  0  1  0  0  0  0  0  0
  -25.5900  -33.9200   24.4130 N   0  0  0  0  0  0  0  0  0  0  0  0
  -25.9370  -34.9980   23.6990 C   0  0  0  0  0  0  0  0  0  0  0  0
  -26.5690  -34.9270   22.6410 O   0  0  0  0  0  0  0  0  0  0  0  0
  -25.0310  -34.0530   25.2440 H   0  0  0  0  0  0  0  0  0  0  0  0
  -24.2670  -36.8680   23.5020 C   0  0  0  0  0  1  0  0  0  0  0  0
  -25.5190  -36.3770   24.2460 C   0  0  0  0  0  3  0  0  0  0  0  0
  -27.7150  -37.1360   25.0410 C   0  0  0  0  0  1  0  0  0  0  0  0
  -26.5870  -37.3960   24.1510 N   0  0  0  0  0  0  0  0  0  0  0  0
  -26.2220  -38.3210   24.3640 H   0  0  0  0  0  0  0  0  0  0  0  0
  -30.2150  -21.5400   21.0250 C   0  0  0  0  0  1  0  0  0  0  0  0
  -29.1180  -21.6020   19.9310 C   0  0  0  0  0  3  0  0  0  0  0  0
  -28.7870  -20.1770   19.3870 C   0  0  0  0  0  2  0  0  0  0  0  0
  -28.2450  -19.1930   20.4500 C   0  0  0  0  0  2  0  0  0  0  0  0
  -28.3020  -17.7200   20.0170 C   0  0  0  0  0  0  0  0  0  0  0  0
  -27.2790  -17.1820   19.5850 O   0  0  0  0  0  0  0  0  0  0  0  0
  -29.6460  -16.9640   20.1320 C   0  0  0  0  0  3  0  0  0  0  0  0
  -30.1800  -14.5280   19.8640 C   0  0  0  0  0  0  0  0  0  0  0  0
  -30.1570  -12.1390   19.2690 C   0  0  0  0  0  2  0  0  0  0  0  0
  -29.1690  -11.9090   18.1100 C   0  0  0  0  0  2  0  0  0  0  0  0
  -27.7420  -11.6810   18.6490 C   0  0  0  0  0  2  0  0  0  0  0  0
  -27.3130  -12.7680   19.6700 C   0  0  0  0  0  3  0  0  0  0  0  0
  -28.4090  -12.9640   20.7400 C   0  0  0  0  0  2  0  0  0  0  0  0
  -29.6690  -13.2840   20.0490 N   0  0  0  0  0  0  0  0  0  0  0  0
  -31.2250  -14.7500   19.2470 O   0  0  0  0  0  0  0  0  0  0  0  0
  -29.4100  -15.5270   20.3130 N   0  0  0  0  0  0  0  0  0  0  0  0
  -28.5280  -15.2700   20.7300 H   0  0  0  0  0  0  0  0  0  0  0  0
  -24.9830  -13.3080   20.6240 C   0  0  0  0  0  0  0  0  0  0  0  0
  -23.9710  -12.5020   21.0700 C   0  0  0  0  0  0  0  0  0  0  0  0
  -24.4540  -11.1630   20.9590 C   0  0  0  0  0  0  0  0  0  0  0  0
  -26.0180  -12.4570   20.2690 N   0  0  0  0  0  0  0  0  0  0  0  0
  -25.7080  -11.1610   20.5240 N   0  0  0  0  0  0  0  0  0  0  0  0
  -23.7800   -9.8790   21.1870 C   0  0  0  0  0  0  0  0  0  0  0  0
  -24.2720   -8.9400   22.1210 C   0  0  0  0  0  3  0  0  0  0  0  0
  -23.5930   -7.7190   22.3340 C   0  0  0  0  0  3  0  0  0  0  0  0
  -22.4090   -7.4300   21.6140 C   0  0  0  0  0  0  0  0  0  0  0  0
  -21.9370   -8.3590   20.6700 C   0  0  0  0  0  3  0  0  0  0  0  0
  -22.6160   -9.5700   20.4540 C   0  0  0  0  0  3  0  0  0  0  0  0
  -21.6990   -6.2610   21.7380 O   0  0  0  0  0  0  0  0  0  0  0  0
  -21.6620   -5.5620   22.9190 C   0  0  0  0  0  0  0  0  0  0  0  0
  -21.1800   -6.1430   24.1130 C   0  0  0  0  0  3  0  0  0  0  0  0
  -21.0910   -5.3670   25.2860 C   0  0  0  0  0  3  0  0  0  0  0  0
  -21.4740   -4.0130   25.2670 C   0  0  0  0  0  0  0  0  0  0  0  0
  -21.9500   -3.4330   24.0780 C   0  0  0  0  0  3  0  0  0  0  0  0
  -22.0400   -4.2060   22.9070 C   0  0  0  0  0  0  0  0  0  0  0  0
  -22.4790   -3.6340   21.7590 F   0  0  0  0  0  0  0  0  0  0  0  0
  -21.3830   -3.2670   26.3920 F   0  0  0  0  0  0  0  0  0  0  0  0
  -22.5970  -12.9380   21.4940 C   0  0  0  0  0  0  0  0  0  0  0  0
  -21.9730  -12.2020   22.4070 N   0  0  0  0  0  0  0  0  0  0  0  0
  -22.0900  -13.9670   21.0510 O   0  0  0  0  0  0  0  0  0  0  0  0
  -22.4000  -11.3720   22.7920 H   0  0  0  0  0  0  0  0  0  0  0  0
  -21.0560  -12.4750   22.7320 H   0  0  0  0  0  0  0  0  0  0  0  0
  -25.1040  -14.6870   20.4780 N   0  0  0  0  0  0  0  0  0  0  0  0
  -24.3490  -15.3250   20.7070 H   0  0  0  0  0  0  0  0  0  0  0  0
  -25.9540  -15.1670   20.2030 H   0  0  0  0  0  0  0  0  0  0  0  0
  -30.6000  -17.4850   21.2390 C   0  0  0  0  0  2  0  0  0  0  0  0
  -32.4600  -19.1130   21.8560 C   0  0  0  0  0  1  0  0  0  0  0  0
  -31.6910  -18.4350   20.7180 C   0  0  0  0  0  2  0  0  0  0  0  0
  1  3  1  0
  2  1  1  0
  2  4  1  0
  3  5  1  0
  4  6  1  0
  5  8  1  0
  6  5  1  0
  6 53  1  0
  6  7  1  6
  8 10  1  0
  9  8  2  0
 11 13  1  0
 11 10  1  0
 12 23  2  0
 13 18  1  0
 14 22  1  0
 14 24  1  0
 15 21  1  0
 15 17  1  0
 16 22  1  0
 17 16  1  0
 18 17  2  0
 19 20  1  0
 19 13  2  0
 20 15  2  0
 21 14  1  0
 22 12  1  0
 24 26  2  0
 25 24  1  0
 27 25  1  0
 28 37  2  0
 28 33  1  0
 29 25  1  0
 29 33  1  0
 30 29  1  0
 31 32  1  0
 31 30  1  0
 32 28  1  0
 33 34  2  0
 34 35  1  0
 36 35  2  0
 37 36  1  0
 38 12  1  0
 38 43  1  0
 38 39  1  0
 39 42  1  1
 39 40  1  0
 41 39  1  0
 43 46  1  0
 44 48  1  0
 44 43  1  0
 45 44  2  0
 48 47  1  0
 50 48  1  0
 50 51  1  0
 50 49  1  0
 53 52  1  0
 54 53  1  0
 54 55  1  0
 56 58  1  0
 56 55  1  0
 57 56  2  0
 58 67  1  0
 58 97  1  0
 59 65  1  0
 59 67  1  0
 60 65  1  0
 61 62  1  0
 61 60  1  0
 63 62  1  0
 63 72  1  0
 63 64  1  0
 65 64  1  0
 66 59  2  0
 67 68  1  0
 69 70  2  0
 70 89  1  0
 71 70  1  0
 71 74  1  0
 72 73  1  0
 72 69  1  0
 73 71  2  0
 74 75  1  0
 75 76  2  0
 77 80  1  0
 77 76  1  0
 78 77  2  0
 79 78  1  0
 79 74  2  0
 80 81  1  0
 81 82  1  0
 82 83  2  0
 84 83  1  0
 84 88  1  0
 85 84  2  0
 86 81  2  0
 86 85  1  0
 87 86  1  0
 89 90  1  0
 90 93  1  0
 90 92  1  0
 91 89  2  0
 94 69  1  0
 94 95  1  0
 96 94  1  0
 99 97  1  0
 99 98  1  0
M  ISO  4  10 101  11 101  59 100  67 100
M  END
>  <TORSDO>  (11) 
F 25

>  <SCORE>  (11) 
-11.290

>  <name>  (11) 
10

>  <ligand_id>  (11) 
10

>  <original_smiles>  (11) 
[H]c1c([H])c([H])c2c(c1[H])C([H])([H])C([H])([H])C([H])([H])C2([H])N([H])C(=O)C1([H])N(C(=O)C([H])(N([H])C(=O)C([H])(N([H])C([H])([H])[H])C([H])([H])[H])C(C([H])([H])[H])(C([H])([H])[H])C([H])([H])[H])C([H])([H])c2c([H])c(OC([H])([H])C(=O)C3([H])C([H])([H])C([H])([H])C([H])([H])C([H])([H])[N+]3([H])C([H])(C([H])([H])[H])C([H])([H])C([H])([H])C(=O)C([H])(N([H])C(=O)N3C([H])([H])C([H])([H])C([H])([H])C([H])(n4nc(-c5c([H])c([H])c(Oc6c([H])c([H])c(F)c([H])c6F)c([H])c5[H])c(C(=O)N([H])[H])c4N([H])[H])C3([H])[H])C([H])([H])C([H])([H])C([H])([H])[H])c([H])c([H])c2C1([H])[H]

>  <smiles>  (11) 
[H]c1c([H])c([H])c2c(c1[H])C([H])([H])C([H])([H])C([H])([H])C2([H])N([H])C(=O)C1([H])N(C(=O)C([H])(N([H])C(=O)C([H])(N([H])C([H])([H])[H])C([H])([H])[H])C(C([H])([H])[H])(C([H])([H])[H])C([H])([H])[H])C([H])([H])c2c([H])c(OC([H])([H])C(=O)C3([H])C([H])([H])C([H])([H])C([H])([H])C([H])([H])[N+]3([H])C([H])(C([H])([H])[H])C([H])([H])C([H])([H])C(=O)C([H])(N([H])C(=O)N3C([H])([H])C([H])([H])C([H])([H])C([H])(n4nc(-c5c([H])c([H])c(Oc6c([H])c([H])c(F)c([H])c6F)c([H])c5[H])c(C(=O)N([H])[H])c4N([H])[H])C3([H])[H])C([H])([H])C([H])([H])C([H])([H])[H])c([H])c([H])c2C1([H])[H]

$$$$
11:0:0
     RDKit          3D

 99106  0  0  1  0  0  0  0  0999 V2000
  -29.0930  -21.8530   20.2980 N   0  0  0  0  0  4  0  0  0  0  0  0
  -28.3600  -21.6820   20.9680 H   0  0  0  0  0  0  0  0  0  0  0  0
  -28.7060  -21.7360   19.3760 H   0  0  0  0  0  0  0  0  0  0  0  0
  -30.1670  -20.8160   20.4710 C   0  0  0  0  0  2  0  0  0  0  0  0
  -29.7100  -19.3140   20.7190 C   0  0  0  0  0  3  0  0  0  0  0  0
  -31.9270  -18.9560   21.9720 C   0  0  0  0  0  1  0  0  0  0  0  0
  -31.6960  -17.9260   19.7460 C   0  0  0  0  0  1  0  0  0  0  0  0
  -30.9040  -18.2830   21.0200 C   0  0  2  0  0  0  0  0  0  0  0  0
  -30.4730  -16.9710   21.8050 C   0  0  0  0  0  2  0  0  0  0  0  0
  -30.7140  -14.7240   20.6470 C   0  0  0  0  0  0  0  0  0  0  0  0
  -30.5090  -12.5180   19.5460 C   0  0  0  0  0  2  0  0  0  0  0  0
  -29.5970  -12.6350   18.3080 C   0  0  0  0  0  2  0  0  0  0  0  0
  -28.1150  -12.4640   18.7020 C   0  0  0  0  0  2  0  0  0  0  0  0
  -27.7130  -13.3380   19.9200 C   0  0  0  0  0  3  0  0  0  0  0  0
  -28.7410  -13.2010   21.0630 C   0  0  0  0  0  2  0  0  0  0  0  0
  -30.0630  -13.5360   20.5110 N   0  0  0  0  0  0  0  0  0  0  0  0
  -31.8800  -14.8800   20.2820 O   0  0  0  0  0  0  0  0  0  0  0  0
  -29.9740  -15.7630   21.1070 N   0  0  0  0  0  0  0  0  0  0  0  0
  -29.0010  -15.5490   21.2620 H   0  0  0  0  0  0  0  0  0  0  0  0
  -25.2930  -13.9110   20.5740 C   0  0  0  0  0  0  0  0  0  0  0  0
  -24.2270  -13.1230   20.9180 C   0  0  0  0  0  0  0  0  0  0  0  0
  -24.7070  -11.7780   20.9000 C   0  0  0  0  0  0  0  0  0  0  0  0
  -26.3550  -13.0430   20.3710 N   0  0  0  0  0  0  0  0  0  0  0  0
  -26.0050  -11.7570   20.6250 N   0  0  0  0  0  0  0  0  0  0  0  0
  -23.9930  -10.5070   21.0710 C   0  0  0  0  0  0  0  0  0  0  0  0
  -24.4320   -9.5330   21.9940 C   0  0  0  0  0  3  0  0  0  0  0  0
  -23.7170   -8.3260   22.1560 C   0  0  0  0  0  3  0  0  0  0  0  0
  -22.5520   -8.0840   21.3920 C   0  0  0  0  0  0  0  0  0  0  0  0
  -22.1320   -9.0460   20.4570 C   0  0  0  0  0  3  0  0  0  0  0  0
  -22.8460  -10.2450   20.2950 C   0  0  0  0  0  3  0  0  0  0  0  0
  -21.8080   -6.9290   21.4630 O   0  0  0  0  0  0  0  0  0  0  0  0
  -21.7780   -6.1610   22.5990 C   0  0  0  0  0  0  0  0  0  0  0  0
  -21.3800   -6.6890   23.8470 C   0  0  0  0  0  3  0  0  0  0  0  0
  -21.2970   -5.8470   24.9730 C   0  0  0  0  0  3  0  0  0  0  0  0
  -21.6040   -4.4780   24.8530 C   0  0  0  0  0  0  0  0  0  0  0  0
  -21.9960   -3.9500   23.6110 C   0  0  0  0  0  3  0  0  0  0  0  0
  -22.0810   -4.7890   22.4860 C   0  0  0  0  0  0  0  0  0  0  0  0
  -22.4370   -4.2700   21.2870 F   0  0  0  0  0  0  0  0  0  0  0  0
  -21.5170   -3.6670   25.9340 F   0  0  0  0  0  0  0  0  0  0  0  0
  -22.8170  -13.5820   21.1540 C   0  0  0  0  0  0  0  0  0  0  0  0
  -22.0800  -12.8790   22.0070 N   0  0  0  0  0  0  0  0  0  0  0  0
  -22.3760  -14.5970   20.6170 O   0  0  0  0  0  0  0  0  0  0  0  0
  -22.4490  -12.0580   22.4640 H   0  0  0  0  0  0  0  0  0  0  0  0
  -21.1320  -13.1670   22.2080 H   0  0  0  0  0  0  0  0  0  0  0  0
  -25.4440  -15.2820   20.3990 N   0  0  0  0  0  0  0  0  0  0  0  0
  -24.6620  -15.9230   20.4820 H   0  0  0  0  0  0  0  0  0  0  0  0
  -26.2880  -15.7310   20.0700 H   0  0  0  0  0  0  0  0  0  0  0  0
  -27.2340  -19.0450   20.0080 C   0  0  0  0  0  1  0  0  0  0  0  0
  -28.9810  -19.2340   18.1960 C   0  0  0  0  0  1  0  0  0  0  0  0
  -28.7050  -18.7750   19.6460 C   0  0  0  0  0  3  0  0  0  0  0  0
  -29.5280  -23.2820   20.4710 C   0  0  0  0  0  3  0  0  0  0  0  0
  -29.3590  -23.7210   21.9500 C   0  0  0  0  0  2  0  0  0  0  0  0
  -26.8000  -23.7650   22.2530 C   0  0  0  0  0  1  0  0  0  0  0  0
  -28.2860  -25.2270   23.6730 C   0  0  0  0  0  1  0  0  0  0  0  0
  -28.1110  -24.5670   22.2990 C   0  0  0  0  0  3  0  0  0  0  0  0
  -28.8960  -24.3100   19.4510 C   0  0  0  0  0  2  0  0  0  0  0  0
  -30.6390  -26.2110   19.5850 C   0  0  0  0  0  1  0  0  0  0  0  0
  -29.1550  -25.8390   19.7450 C   0  0  0  0  0  3  0  0  0  0  0  0
  -28.5270  -26.7360   18.8160 O   0  0  0  0  0  0  0  0  0  0  0  0
  -24.7060  -31.3960   22.7800 C   0  0  0  0  0  0  0  0  0  0  0  0
  -27.3330  -27.3520   19.1360 C   0  0  0  0  0  0  0  0  0  0  0  0
  -23.4570  -30.0830   21.0980 C   0  0  0  0  0  3  0  0  0  0  0  0
  -24.8810  -28.7380   19.4570 C   0  0  0  0  0  0  0  0  0  0  0  0
  -25.9520  -30.5720   20.7810 C   0  0  0  0  0  2  0  0  0  0  0  0
  -26.0540  -29.2610   20.0180 C   0  0  0  0  0  0  0  0  0  0  0  0
  -27.2850  -28.5770   19.8510 C   0  0  0  0  0  3  0  0  0  0  0  0
  -26.1410  -26.8380   18.5930 C   0  0  0  0  0  3  0  0  0  0  0  0
  -24.9200  -27.5250   18.7460 C   0  0  0  0  0  3  0  0  0  0  0  0
  -23.6080  -29.5340   19.6540 C   0  0  0  0  0  2  0  0  0  0  0  0
  -24.7270  -30.6950   21.6100 N   0  0  0  0  0  0  0  0  0  0  0  0
  -23.6500  -31.5660   23.4070 O   0  0  0  0  0  0  0  0  0  0  0  0
  -22.9120  -28.9530   22.0020 C   0  0  0  0  0  0  0  0  0  0  0  0
  -21.5940  -28.7080   21.9260 N   0  0  0  0  0  0  0  0  0  0  0  0
  -23.6710  -28.3020   22.7260 O   0  0  0  0  0  0  0  0  0  0  0  0
  -21.0400  -29.2920   21.3170 H   0  0  0  0  0  0  0  0  0  0  0  0
  -18.3230  -27.2650   22.4650 C   0  0  0  0  0  0  0  0  0  0  0  0
  -20.8700  -27.6630   22.6500 C   0  0  0  0  0  3  0  0  0  0  0  0
  -21.0330  -26.2900   21.9600 C   0  0  0  0  0  2  0  0  0  0  0  0
  -19.9080  -25.9770   20.9690 C   0  0  0  0  0  2  0  0  0  0  0  0
  -18.5490  -25.9850   21.6790 C   0  0  0  0  0  2  0  0  0  0  0  0
  -19.4110  -28.0610   22.9080 C   0  0  0  0  0  0  0  0  0  0  0  0
  -19.1450  -29.2600   23.6030 C   0  0  0  0  0  3  0  0  0  0  0  0
  -17.8230  -29.6650   23.8600 C   0  0  0  0  0  3  0  0  0  0  0  0
  -16.7490  -28.8640   23.4370 C   0  0  0  0  0  3  0  0  0  0  0  0
  -16.9980  -27.6650   22.7440 C   0  0  0  0  0  3  0  0  0  0  0  0
  -26.0000  -32.0350   23.3730 C   0  0  0  0  0  3  0  0  0  0  0  0
  -26.6940  -31.1280   24.4620 C   0  0  1  0  0  0  0  0  0  0  0  0
  -25.7340  -30.6470   25.5740 C   0  0  0  0  0  1  0  0  0  0  0  0
  -27.3220  -29.8760   23.8080 C   0  0  0  0  0  1  0  0  0  0  0  0
  -27.8520  -31.9070   25.1280 C   0  0  0  0  0  1  0  0  0  0  0  0
  -25.6300  -33.3370   23.9400 N   0  0  0  0  0  0  0  0  0  0  0  0
  -25.8460  -34.5160   23.3430 C   0  0  0  0  0  0  0  0  0  0  0  0
  -26.4450  -34.6220   22.2690 O   0  0  0  0  0  0  0  0  0  0  0  0
  -25.0830  -33.3220   24.7890 H   0  0  0  0  0  0  0  0  0  0  0  0
  -23.9930  -36.2150   23.3820 C   0  0  0  0  0  1  0  0  0  0  0  0
  -25.3080  -35.7780   24.0450 C   0  0  0  0  0  3  0  0  0  0  0  0
  -27.4410  -36.6670   24.8770 C   0  0  0  0  0  1  0  0  0  0  0  0
  -26.2670  -36.9050   24.0400 N   0  0  0  0  0  0  0  0  0  0  0  0
  -25.8200  -37.7600   24.3610 H   0  0  0  0  0  0  0  0  0  0  0  0
  1  4  1  0
  1 51  1  0
  1  2  1  0
  3  1  1  0
  5  4  1  0
  5  8  1  0
  8  7  1  6
  8  9  1  0
  8  6  1  0
 10 18  1  0
 11 16  1  0
 12 13  1  0
 12 11  1  0
 14 13  1  0
 14 23  1  0
 14 15  1  0
 16 10  1  0
 16 15  1  0
 17 10  2  0
 18 19  1  0
 18  9  1  0
 20 21  2  0
 21 40  1  0
 22 21  1  0
 22 25  1  0
 23 20  1  0
 23 24  1  0
 24 22  2  0
 25 26  1  0
 26 27  2  0
 28 31  1  0
 28 27  1  0
 29 28  2  0
 30 29  1  0
 30 25  2  0
 31 32  1  0
 32 33  1  0
 33 34  2  0
 35 34  1  0
 35 39  1  0
 36 35  2  0
 37 32  2  0
 37 36  1  0
 38 37  1  0
 40 41  1  0
 41 44  1  0
 41 43  1  0
 42 40  2  0
 45 46  1  0
 45 20  1  0
 47 45  1  0
 49 50  1  0
 50 48  1  0
 50  5  1  0
 51 56  1  0
 51 52  1  0
 52 55  1  0
 53 55  1  0
 55 54  1  0
 56 58  1  0
 58 57  1  0
 59 61  1  0
 59 58  1  0
 60 71  2  0
 61 66  1  0
 62 70  1  0
 62 72  1  0
 63 69  1  0
 63 65  1  0
 64 70  1  0
 65 64  1  0
 66 65  2  0
 67 68  1  0
 67 61  2  0
 68 63  2  0
 69 62  1  0
 70 60  1  0
 72 74  2  0
 73 72  1  0
 75 73  1  0
 76 85  2  0
 76 81  1  0
 77 73  1  0
 77 81  1  0
 78 77  1  0
 79 80  1  0
 79 78  1  0
 80 76  1  0
 81 82  2  0
 82 83  1  0
 84 83  2  0
 85 84  1  0
 86 60  1  0
 86 91  1  0
 86 87  1  0
 87 90  1  1
 87 88  1  0
 89 87  1  0
 91 94  1  0
 92 91  1  0
 92 96  1  0
 93 92  2  0
 96 95  1  0
 98 96  1  0
 98 99  1  0
 98 97  1  0
M  ISO  4  10 100  18 100  58 101  59 101
M  END
>  <TORSDO>  (12) 
F 26

>  <SCORE>  (12) 
-10.253

>  <name>  (12) 
11

>  <ligand_id>  (12) 
11

>  <original_smiles>  (12) 
[H]c1c([H])c([H])c2c(c1[H])C([H])([H])C([H])([H])C([H])([H])C2([H])N([H])C(=O)C1([H])N(C(=O)C([H])(N([H])C(=O)C([H])(N([H])C([H])([H])[H])C([H])([H])[H])C(C([H])([H])[H])(C([H])([H])[H])C([H])([H])[H])C([H])([H])c2c([H])c(OC([H])(C([H])([H])[H])C([H])([H])C([H])(C([H])([H])C([H])(C([H])([H])[H])C([H])([H])[H])[N+]([H])([H])C([H])([H])C([H])(C([H])(C([H])([H])[H])C([H])([H])[H])C(C([H])([H])[H])(C([H])([H])[H])C([H])([H])N([H])C(=O)N3C([H])([H])C([H])([H])C([H])([H])C([H])(n4nc(-c5c([H])c([H])c(Oc6c([H])c([H])c(F)c([H])c6F)c([H])c5[H])c(C(=O)N([H])[H])c4N([H])[H])C3([H])[H])c([H])c([H])c2C1([H])[H]

>  <smiles>  (12) 
[H]c1c([H])c([H])c2c(c1[H])C([H])([H])C([H])([H])C([H])([H])C2([H])N([H])C(=O)C1([H])N(C(=O)C([H])(N([H])C(=O)C([H])(N([H])C([H])([H])[H])C([H])([H])[H])C(C([H])([H])[H])(C([H])([H])[H])C([H])([H])[H])C([H])([H])c2c([H])c(OC([H])(C([H])([H])[H])C([H])([H])C([H])(C([H])([H])C([H])(C([H])([H])[H])C([H])([H])[H])[N+]([H])([H])C([H])([H])C([H])(C([H])(C([H])([H])[H])C([H])([H])[H])C(C([H])([H])[H])(C([H])([H])[H])C([H])([H])N([H])C(=O)N3C([H])([H])C([H])([H])C([H])([H])C([H])(n4nc(-c5c([H])c([H])c(Oc6c([H])c([H])c(F)c([H])c6F)c([H])c5[H])c(C(=O)N([H])[H])c4N([H])[H])C3([H])[H])c([H])c([H])c2C1([H])[H]

$$$$
12:0:0
     RDKit          3D

 99106  0  0  1  0  0  0  0  0999 V2000
  -30.8140  -20.6810   20.9550 C   0  0  0  0  0  3  0  0  0  0  0  0
  -30.3770  -18.1820   20.9370 C   0  0  0  0  0  0  0  0  0  0  0  0
  -29.9780  -19.4710   20.7940 N   0  0  0  0  0  0  0  0  0  0  0  0
  -31.4490  -17.8810   21.4640 O   0  0  0  0  0  0  0  0  0  0  0  0
  -29.0600  -19.6110   20.3920 H   0  0  0  0  0  0  0  0  0  0  0  0
  -29.4610  -17.0690   20.3620 C   0  0  0  0  0  3  0  0  0  0  0  0
  -30.5090  -14.7310   20.2600 C   0  0  0  0  0  0  0  0  0  0  0  0
  -30.2430  -12.6430   18.9710 C   0  0  0  0  0  2  0  0  0  0  0  0
  -29.2320  -12.9360   17.8390 C   0  0  0  0  0  2  0  0  0  0  0  0
  -27.7850  -12.7210   18.3280 C   0  0  0  0  0  2  0  0  0  0  0  0
  -27.5030  -13.4240   19.6830 C   0  0  0  0  0  3  0  0  0  0  0  0
  -28.6230  -13.1160   20.7060 C   0  0  0  0  0  2  0  0  0  0  0  0
  -29.9090  -13.5150   20.1090 N   0  0  0  0  0  0  0  0  0  0  0  0
  -31.5890  -15.0100   19.7310 O   0  0  0  0  0  0  0  0  0  0  0  0
  -29.7160  -15.6740   20.8170 N   0  0  0  0  0  0  0  0  0  0  0  0
  -28.9620  -15.2870   21.3650 H   0  0  0  0  0  0  0  0  0  0  0  0
  -25.1140  -13.9210   20.4990 C   0  0  0  0  0  0  0  0  0  0  0  0
  -24.0910  -13.0980   20.8910 C   0  0  0  0  0  0  0  0  0  0  0  0
  -24.6010  -11.7670   20.8000 C   0  0  0  0  0  0  0  0  0  0  0  0
  -26.1810  -13.0850   20.2020 N   0  0  0  0  0  0  0  0  0  0  0  0
  -25.8780  -11.7830   20.4380 N   0  0  0  0  0  0  0  0  0  0  0  0
  -23.9300  -10.4730   20.9830 C   0  0  0  0  0  0  0  0  0  0  0  0
  -24.3860   -9.5340   21.9340 C   0  0  0  0  0  3  0  0  0  0  0  0
  -23.7170   -8.3030   22.1030 C   0  0  0  0  0  3  0  0  0  0  0  0
  -22.5760   -8.0040   21.3220 C   0  0  0  0  0  0  0  0  0  0  0  0
  -22.1390   -8.9320   20.3610 C   0  0  0  0  0  3  0  0  0  0  0  0
  -22.8100  -10.1540   20.1900 C   0  0  0  0  0  3  0  0  0  0  0  0
  -21.8750   -6.8240   21.4020 O   0  0  0  0  0  0  0  0  0  0  0  0
  -21.7760   -6.1240   22.5780 C   0  0  0  0  0  0  0  0  0  0  0  0
  -21.2120   -6.6950   23.7400 C   0  0  0  0  0  3  0  0  0  0  0  0
  -21.0650   -5.9180   24.9060 C   0  0  0  0  0  3  0  0  0  0  0  0
  -21.4720   -4.5700   24.9100 C   0  0  0  0  0  0  0  0  0  0  0  0
  -22.0250   -3.9980   23.7510 C   0  0  0  0  0  3  0  0  0  0  0  0
  -22.1750   -4.7730   22.5880 C   0  0  0  0  0  0  0  0  0  0  0  0
  -22.6900   -4.2110   21.4690 F   0  0  0  0  0  0  0  0  0  0  0  0
  -21.3230   -3.8200   26.0270 F   0  0  0  0  0  0  0  0  0  0  0  0
  -22.6900  -13.5140   21.2350 C   0  0  0  0  0  0  0  0  0  0  0  0
  -22.0220  -12.7650   22.1060 N   0  0  0  0  0  0  0  0  0  0  0  0
  -22.1930  -14.5370   20.7660 O   0  0  0  0  0  0  0  0  0  0  0  0
  -22.4350  -11.9360   22.5100 H   0  0  0  0  0  0  0  0  0  0  0  0
  -21.0840  -13.0250   22.3760 H   0  0  0  0  0  0  0  0  0  0  0  0
  -25.2210  -15.3000   20.3510 N   0  0  0  0  0  0  0  0  0  0  0  0
  -24.4310  -15.9170   20.5010 H   0  0  0  0  0  0  0  0  0  0  0  0
  -26.0290  -15.7750   19.9700 H   0  0  0  0  0  0  0  0  0  0  0  0
  -29.2330  -17.1310   18.8180 C   0  0  0  0  0  2  0  0  0  0  0  0
  -27.3110  -18.8350   18.7270 C   0  0  0  0  0  1  0  0  0  0  0  0
  -28.7160  -18.3950   16.6780 C   0  0  0  0  0  1  0  0  0  0  0  0
  -28.7120  -18.4570   18.2130 C   0  0  0  0  0  3  0  0  0  0  0  0
  -30.7340  -22.6140   22.6260 C   0  0  0  0  0  1  0  0  0  0  0  0
  -30.0070  -21.9620   21.4300 C   0  0  0  0  0  3  0  0  0  0  0  0
  -29.5900  -23.0290   20.3390 C   0  0  0  0  0  3  0  0  0  0  0  0
  -29.2860  -24.4940   20.8220 C   0  0  0  0  0  3  0  0  0  0  0  0
  -29.1750  -25.4480   18.4140 C   0  0  0  0  0  1  0  0  0  0  0  0
  -28.5420  -25.4250   19.8140 C   0  0  0  0  0  3  0  0  0  0  0  0
  -28.4960  -26.8020   20.2770 O   0  0  0  0  0  0  0  0  0  0  0  0
  -24.6150  -31.9850   23.2830 C   0  0  0  0  0  0  0  0  0  0  0  0
  -27.3180  -27.5420   20.2050 C   0  0  0  0  0  0  0  0  0  0  0  0
  -23.4380  -30.5790   21.6270 C   0  0  0  0  0  3  0  0  0  0  0  0
  -24.9160  -29.0640   20.2020 C   0  0  0  0  0  0  0  0  0  0  0  0
  -25.9660  -30.9500   21.4560 C   0  0  0  0  0  2  0  0  0  0  0  0
  -26.0660  -29.5810   20.8080 C   0  0  0  0  0  0  0  0  0  0  0  0
  -27.2670  -28.8260   20.8100 C   0  0  0  0  0  3  0  0  0  0  0  0
  -26.1470  -27.0670   19.5650 C   0  0  0  0  0  3  0  0  0  0  0  0
  -24.9540  -27.8100   19.5780 C   0  0  0  0  0  3  0  0  0  0  0  0
  -23.6660  -29.9140   20.2440 C   0  0  0  0  0  2  0  0  0  0  0  0
  -24.6910  -31.1870   22.1800 N   0  0  0  0  0  0  0  0  0  0  0  0
  -23.5260  -32.2470   23.8130 O   0  0  0  0  0  0  0  0  0  0  0  0
  -22.7910  -29.5440   22.5760 C   0  0  0  0  0  0  0  0  0  0  0  0
  -21.4710  -29.3390   22.4280 N   0  0  0  0  0  0  0  0  0  0  0  0
  -23.4720  -28.9300   23.4010 O   0  0  0  0  0  0  0  0  0  0  0  0
  -20.9850  -29.8880   21.7340 H   0  0  0  0  0  0  0  0  0  0  0  0
  -18.1070  -28.0990   22.8940 C   0  0  0  0  0  0  0  0  0  0  0  0
  -20.6590  -28.3870   23.1860 C   0  0  0  0  0  3  0  0  0  0  0  0
  -20.7830  -26.9610   22.6010 C   0  0  0  0  0  2  0  0  0  0  0  0
  -19.6930  -26.6300   21.5780 C   0  0  0  0  0  2  0  0  0  0  0  0
  -18.3040  -26.7550   22.2120 C   0  0  0  0  0  2  0  0  0  0  0  0
  -19.2130  -28.8720   23.3360 C   0  0  0  0  0  0  0  0  0  0  0  0
  -18.9740  -30.1290   23.9330 C   0  0  0  0  0  3  0  0  0  0  0  0
  -17.6630  -30.6150   24.0910 C   0  0  0  0  0  3  0  0  0  0  0  0
  -16.5710  -29.8390   23.6640 C   0  0  0  0  0  3  0  0  0  0  0  0
  -16.7940  -28.5820   23.0730 C   0  0  0  0  0  3  0  0  0  0  0  0
  -25.8880  -32.6300   23.9140 C   0  0  0  0  0  3  0  0  0  0  0  0
  -26.3920  -31.8750   25.2070 C   0  0  1  0  0  0  0  0  0  0  0  0
  -25.2830  -31.6340   26.2580 C   0  0  0  0  0  1  0  0  0  0  0  0
  -26.9940  -30.5000   24.8340 C   0  0  0  0  0  1  0  0  0  0  0  0
  -27.5220  -32.6870   25.8810 C   0  0  0  0  0  1  0  0  0  0  0  0
  -25.5690  -34.0300   24.2220 N   0  0  0  0  0  0  0  0  0  0  0  0
  -25.9080  -35.0750   23.4580 C   0  0  0  0  0  0  0  0  0  0  0  0
  -26.5980  -34.9630   22.4390 O   0  0  0  0  0  0  0  0  0  0  0  0
  -24.9610  -34.1900   25.0130 H   0  0  0  0  0  0  0  0  0  0  0  0
  -24.1820  -36.8580   23.0420 C   0  0  0  0  0  1  0  0  0  0  0  0
  -25.4040  -36.4660   23.8890 C   0  0  0  0  0  3  0  0  0  0  0  0
  -27.5130  -37.3660   24.7680 C   0  0  0  0  0  1  0  0  0  0  0  0
  -26.4360  -37.5220   23.7930 N   0  0  0  0  0  0  0  0  0  0  0  0
  -26.0240  -38.4420   23.9250 H   0  0  0  0  0  0  0  0  0  0  0  0
  -31.6710  -20.8630   19.6720 C   0  0  0  0  0  2  0  0  0  0  0  0
  -33.3080  -22.2880   18.3550 C   0  0  0  0  0  1  0  0  0  0  0  0
  -34.0180  -21.3340   20.5810 C   0  0  0  0  0  1  0  0  0  0  0  0
  -32.8380  -21.8760   19.7600 C   0  0  0  0  0  3  0  0  0  0  0  0
  1 96  1  0
  1 50  1  0
  2  4  2  0
  3  2  1  0
  3  1  1  0
  5  3  1  0
  6 45  1  0
  6 15  1  0
  6  2  1  0
  7 15  1  0
  8 13  1  0
  9 10  1  0
  9  8  1  0
 11 10  1  0
 11 20  1  0
 11 12  1  0
 13  7  1  0
 13 12  1  0
 14  7  2  0
 15 16  1  0
 17 18  2  0
 18 37  1  0
 19 18  1  0
 19 22  1  0
 20 21  1  0
 20 17  1  0
 21 19  2  0
 22 23  1  0
 23 24  2  0
 25 28  1  0
 25 24  1  0
 26 25  2  0
 27 26  1  0
 27 22  2  0
 28 29  1  0
 29 34  2  0
 29 30  1  0
 30 31  2  0
 31 32  1  0
 32 36  1  0
 33 32  2  0
 34 33  1  0
 35 34  1  0
 37 38  1  0
 38 41  1  0
 38 40  1  0
 39 37  2  0
 42 17  1  0
 42 43  1  0
 44 42  1  0
 47 48  1  0
 48 46  1  0
 48 45  1  0
 50 49  1  0
 51 52  2  0
 51 50  1  0
 54 53  1  0
 54 55  1  0
 54 52  1  0
 56 67  2  0
 57 55  1  0
 57 62  1  0
 58 66  1  0
 58 68  1  0
 59 65  1  0
 59 61  1  0
 60 66  1  0
 61 62  2  0
 61 60  1  0
 63 64  1  0
 63 57  2  0
 64 59  2  0
 65 58  1  0
 66 56  1  0
 68 70  2  0
 69 68  1  0
 71 69  1  0
 72 81  2  0
 72 77  1  0
 73 69  1  0
 73 77  1  0
 74 73  1  0
 75 76  1  0
 75 74  1  0
 76 72  1  0
 77 78  2  0
 78 79  1  0
 80 79  2  0
 81 80  1  0
 82 56  1  0
 82 87  1  0
 82 83  1  0
 83 86  1  1
 83 84  1  0
 85 83  1  0
 87 90  1  0
 88 92  1  0
 88 87  1  0
 89 88  2  0
 92 91  1  0
 94 92  1  0
 94 95  1  0
 94 93  1  0
 96 99  1  0
 97 99  1  0
 99 98  1  0
M  ISO  4   7 100  15 100  54 101  55 101
M  END
>  <TORSDO>  (13) 
F 26

>  <SCORE>  (13) 
-12.165

>  <name>  (13) 
12

>  <ligand_id>  (13) 
12

>  <original_smiles>  (13) 
[H]c1c([H])c([H])c2c(c1[H])C([H])([H])C([H])([H])C([H])([H])C2([H])N([H])C(=O)C1([H])N(C(=O)C([H])(N([H])C(=O)C([H])(N([H])C([H])([H])[H])C([H])([H])[H])C(C([H])([H])[H])(C([H])([H])[H])C([H])([H])[H])C([H])([H])c2c([H])c(OC([H])(C([H])([H])[H])C([H])([H])C([H])([H])C([H])(C([H])([H])[H])C([H])(N([H])C(=O)C([H])(N([H])C(=O)N3C([H])([H])C([H])([H])C([H])([H])C([H])(n4nc(-c5c([H])c([H])c(Oc6c([H])c([H])c(F)c([H])c6F)c([H])c5[H])c(C(=O)N([H])[H])c4N([H])[H])C3([H])[H])C([H])([H])C([H])(C([H])([H])[H])C([H])([H])[H])C([H])([H])C([H])(C([H])([H])[H])C([H])([H])[H])c([H])c([H])c2C1([H])[H]

>  <smiles>  (13) 
[H]c1c([H])c([H])c2c(c1[H])C([H])([H])C([H])([H])C([H])([H])C2([H])N([H])C(=O)C1([H])N(C(=O)C([H])(N([H])C(=O)C([H])(N([H])C([H])([H])[H])C([H])([H])[H])C(C([H])([H])[H])(C([H])([H])[H])C([H])([H])[H])C([H])([H])c2c([H])c(OC([H])(C([H])([H])[H])C([H])([H])C([H])([H])C([H])(C([H])([H])[H])C([H])(N([H])C(=O)C([H])(N([H])C(=O)N3C([H])([H])C([H])([H])C([H])([H])C([H])(n4nc(-c5c([H])c([H])c(Oc6c([H])c([H])c(F)c([H])c6F)c([H])c5[H])c(C(=O)N([H])[H])c4N([H])[H])C3([H])[H])C([H])([H])C([H])(C([H])([H])[H])C([H])([H])[H])C([H])([H])C([H])(C([H])([H])[H])C([H])([H])[H])c([H])c([H])c2C1([H])[H]

$$$$
13:0:0
     RDKit          3D

104111  0  0  1  0  0  0  0  0999 V2000
  -30.5410  -17.0350   18.8160 C   0  0  0  0  0  2  0  0  0  0  0  0
  -31.5880  -16.0700   18.2080 C   0  0  0  0  0  0  0  0  0  0  0  0
  -29.2960  -11.4570   18.7700 C   0  0  0  0  0  2  0  0  0  0  0  0
  -32.5660  -12.0180   19.2840 C   0  0  0  0  0  3  0  0  0  0  0  0
  -29.6620  -14.1840   17.8150 C   0  0  0  0  0  1  0  0  0  0  0  0
  -32.6350  -13.7680   18.5940 C   0  0  0  0  0  3  0  0  0  0  0  0
  -30.9900  -10.9230   19.6170 C   0  0  0  0  0  3  0  0  0  0  0  0
  -31.3050  -14.7460   18.0440 N   0  0  0  0  0  0  0  0  0  0  0  0
  -32.7390  -16.4920   18.0350 O   0  0  0  0  0  0  0  0  0  0  0  0
  -31.2960  -11.1250   21.1870 C   0  0  0  0  0  3  0  0  0  0  0  0
  -30.6810  -13.5620   20.8630 C   0  0  0  0  0  0  0  0  0  0  0  0
  -29.7940  -12.1960   17.8320 C   0  0  0  0  0  2  0  0  0  0  0  0
  -28.1760  -11.9320   17.1620 C   0  0  0  0  0  3  0  0  0  0  0  0
  -26.7640  -12.2110   18.1680 C   0  0  0  0  0  3  0  0  0  0  0  0
  -26.7950  -12.9320   19.7800 C   0  0  0  0  0  3  0  0  0  0  0  0
  -28.2660  -13.2350   20.7530 C   0  0  0  0  0  2  0  0  0  0  0  0
  -29.7980  -13.0850   19.9990 N   0  0  0  0  0  2  0  0  0  0  0  0
  -31.1520  -14.6800   20.7400 O   0  0  0  0  0  0  0  0  0  0  0  0
  -31.2110  -12.5700   21.6200 N   0  0  0  0  0  0  0  0  0  0  0  0
  -31.8870  -12.8740   22.3000 H   0  0  0  0  0  0  0  0  0  0  0  0
  -24.5310  -13.3780   20.8120 C   0  0  0  0  0  0  0  0  0  0  0  0
  -23.5630  -12.5160   21.2220 C   0  0  0  0  0  0  0  0  0  0  0  0
  -24.1200  -11.2020   21.1150 C   0  0  0  0  0  0  0  0  0  0  0  0
  -25.6140  -12.5700   20.4940 N   0  0  0  0  0  0  0  0  0  0  0  0
  -25.3840  -11.2640   20.7340 N   0  0  0  0  0  0  0  0  0  0  0  0
  -23.5150   -9.8870   21.3100 C   0  0  0  0  0  0  0  0  0  0  0  0
  -24.0370   -8.9710   22.2480 C   0  0  0  0  0  3  0  0  0  0  0  0
  -23.4210   -7.7200   22.4450 C   0  0  0  0  0  3  0  0  0  0  0  0
  -22.2680   -7.3770   21.6990 C   0  0  0  0  0  0  0  0  0  0  0  0
  -21.7680   -8.2780   20.7450 C   0  0  0  0  0  3  0  0  0  0  0  0
  -22.3890   -9.5260   20.5420 C   0  0  0  0  0  3  0  0  0  0  0  0
  -21.6090   -6.1770   21.8190 O   0  0  0  0  0  0  0  0  0  0  0  0
  -21.5980   -5.4770   22.9980 C   0  0  0  0  0  0  0  0  0  0  0  0
  -21.0750   -6.0270   24.1880 C   0  0  0  0  0  3  0  0  0  0  0  0
  -21.0210   -5.2460   25.3590 C   0  0  0  0  0  3  0  0  0  0  0  0
  -21.4800   -3.9140   25.3390 C   0  0  0  0  0  0  0  0  0  0  0  0
  -21.9930   -3.3640   24.1530 C   0  0  0  0  0  3  0  0  0  0  0  0
  -22.0500   -4.1430   22.9830 C   0  0  0  0  0  0  0  0  0  0  0  0
  -22.5310   -3.6000   21.8380 F   0  0  0  0  0  0  0  0  0  0  0  0
  -21.4180   -3.1620   26.4620 F   0  0  0  0  0  0  0  0  0  0  0  0
  -22.1570  -12.8780   21.5920 C   0  0  0  0  0  0  0  0  0  0  0  0
  -21.5500  -12.1150   22.4940 N   0  0  0  0  0  0  0  0  0  0  0  0
  -21.6140  -13.8730   21.1190 O   0  0  0  0  0  0  0  0  0  0  0  0
  -22.0150  -11.3170   22.9010 H   0  0  0  0  0  0  0  0  0  0  0  0
  -20.6090  -12.3420   22.7850 H   0  0  0  0  0  0  0  0  0  0  0  0
  -24.5740  -14.7600   20.6420 N   0  0  0  0  0  0  0  0  0  0  0  0
  -23.7670  -15.3620   20.7570 H   0  0  0  0  0  0  0  0  0  0  0  0
  -25.3940  -15.2570   20.3240 H   0  0  0  0  0  0  0  0  0  0  0  0
  -29.4940  -10.5780   23.0070 C   0  0  0  0  0  1  0  0  0  0  0  0
  -30.7650  -10.1140   22.2670 C   0  0  0  0  0  3  0  0  0  0  0  0
  -30.7980   -7.5880   22.7470 C   0  0  0  0  0  1  0  0  0  0  0  0
  -30.6520   -8.6840   21.6920 C   0  0  0  0  0  2  0  0  0  0  0  0
  -31.1240  -18.4050   19.2840 C   0  0  0  0  0  2  0  0  0  0  0  0
  -30.0760  -19.2980   19.9900 C   0  0  0  0  0  2  0  0  0  0  0  0
  -30.5120  -20.7590   20.2770 C   0  0  0  0  0  2  0  0  0  0  0  0
  -29.3070  -21.6680   20.6290 C   0  0  0  0  0  2  0  0  0  0  0  0
  -29.5430  -23.1900   20.4450 C   0  0  0  0  0  2  0  0  0  0  0  0
  -30.3630  -23.8990   21.5500 C   0  0  0  0  0  2  0  0  0  0  0  0
  -31.6200  -24.6320   21.0310 C   0  0  0  0  0  2  0  0  0  0  0  0
  -31.5560  -26.1720   20.8720 C   0  0  0  0  0  2  0  0  0  0  0  0
  -30.7570  -26.0630   18.3700 C   0  0  0  0  0  1  0  0  0  0  0  0
  -30.7760  -26.8290   19.7000 C   0  0  0  0  0  3  0  0  0  0  0  0
  -29.4260  -27.4820   20.0750 C   0  0  0  0  0  2  0  0  0  0  0  0
  -28.2330  -26.7090   19.8540 O   0  0  0  0  0  0  0  0  0  0  0  0
  -24.4340  -31.7410   23.2070 C   0  0  0  0  0  0  0  0  0  0  0  0
  -27.0460  -27.4180   19.9670 C   0  0  0  0  0  0  0  0  0  0  0  0
  -23.1780  -30.3700   21.5640 C   0  0  0  0  0  3  0  0  0  0  0  0
  -24.5970  -28.8580   20.0700 C   0  0  0  0  0  0  0  0  0  0  0  0
  -25.6790  -30.7570   21.2940 C   0  0  0  0  0  2  0  0  0  0  0  0
  -25.7520  -29.3930   20.6470 C   0  0  0  0  0  0  0  0  0  0  0  0
  -26.9610  -28.6790   20.6110 C   0  0  0  0  0  3  0  0  0  0  0  0
  -25.8690  -26.8870   19.3920 C   0  0  0  0  0  3  0  0  0  0  0  0
  -24.6480  -27.5980   19.4420 C   0  0  0  0  0  3  0  0  0  0  0  0
  -23.3480  -29.7070   20.1670 C   0  0  0  0  0  2  0  0  0  0  0  0
  -24.4500  -30.9670   22.0850 N   0  0  0  0  0  0  0  0  0  0  0  0
  -23.3710  -32.0000   23.7850 O   0  0  0  0  0  0  0  0  0  0  0  0
  -22.5560  -29.3360   22.5230 C   0  0  0  0  0  0  0  0  0  0  0  0
  -21.2420  -29.1020   22.3760 N   0  0  0  0  0  0  0  0  0  0  0  0
  -23.2510  -28.7410   23.3510 O   0  0  0  0  0  0  0  0  0  0  0  0
  -20.7430  -29.6350   21.6780 H   0  0  0  0  0  0  0  0  0  0  0  0
  -17.9340  -27.7120   22.7480 C   0  0  0  0  0  0  0  0  0  0  0  0
  -20.4520  -28.1400   23.1390 C   0  0  0  0  0  3  0  0  0  0  0  0
  -20.6740  -26.7020   22.6170 C   0  0  0  0  0  2  0  0  0  0  0  0
  -19.6490  -26.2780   21.5610 C   0  0  0  0  0  2  0  0  0  0  0  0
  -18.2280  -26.3560   22.1280 C   0  0  0  0  0  2  0  0  0  0  0  0
  -18.9800  -28.5560   23.2070 C   0  0  0  0  0  0  0  0  0  0  0  0
  -18.6550  -29.8220   23.7420 C   0  0  0  0  0  3  0  0  0  0  0  0
  -17.3170  -30.2480   23.8240 C   0  0  0  0  0  3  0  0  0  0  0  0
  -16.2840  -29.4040   23.3810 C   0  0  0  0  0  3  0  0  0  0  0  0
  -16.5920  -28.1380   22.8500 C   0  0  0  0  0  3  0  0  0  0  0  0
  -25.7400  -32.3540   23.8030 C   0  0  0  0  0  3  0  0  0  0  0  0
  -25.4560  -33.7540   24.1460 N   0  0  0  0  0  0  0  0  0  0  0  0
  -25.7950  -34.8040   23.3880 C   0  0  0  0  0  0  0  0  0  0  0  0
  -26.4530  -34.6980   22.3480 O   0  0  0  0  0  0  0  0  0  0  0  0
  -24.8730  -33.9120   24.9550 H   0  0  0  0  0  0  0  0  0  0  0  0
  -24.0830  -36.6170   23.0580 C   0  0  0  0  0  1  0  0  0  0  0  0
  -25.3290  -36.1950   23.8540 C   0  0  0  0  0  3  0  0  0  0  0  0
  -27.4830  -37.0570   24.6600 C   0  0  0  0  0  1  0  0  0  0  0  0
  -26.3720  -37.2370   23.7290 N   0  0  0  0  0  0  0  0  0  0  0  0
  -25.9790  -38.1630   23.8790 H   0  0  0  0  0  0  0  0  0  0  0  0
  -26.2810  -31.5670   25.0600 C   0  0  1  0  0  0  0  0  0  0  0  0
  -25.2140  -31.3340   26.1550 C   0  0  0  0  0  1  0  0  0  0  0  0
  -26.8370  -30.1870   24.6370 C   0  0  0  0  0  1  0  0  0  0  0  0
  -27.4560  -32.3400   25.7010 C   0  0  0  0  0  1  0  0  0  0  0  0
  1 53  1  0
  2  1  1  0
  3  7  1  0
  5  8  1  0
  6  4  2  0
  7  4  1  0
  7 10  1  0
  8  2  1  0
  8  6  1  0
  9  2  2  0
 10 19  1  0
 10 50  1  0
 11 19  1  0
 12  3  1  0
 13 12  1  0
 13 14  2  0
 15 14  1  0
 15 24  1  0
 15 16  1  0
 17 16  1  0
 17 11  1  0
 18 11  2  0
 19 20  1  0
 21 22  2  0
 22 41  1  0
 23 22  1  0
 23 26  1  0
 24 25  1  0
 24 21  1  0
 25 23  2  0
 26 27  1  0
 27 28  2  0
 29 32  1  0
 29 28  1  0
 30 29  2  0
 31 30  1  0
 31 26  2  0
 32 33  1  0
 33 34  1  0
 34 35  2  0
 36 35  1  0
 36 40  1  0
 37 36  2  0
 38 33  2  0
 38 37  1  0
 39 38  1  0
 41 42  1  0
 42 45  1  0
 42 44  1  0
 43 41  2  0
 46 47  1  0
 46 21  1  0
 48 46  1  0
 50 49  1  0
 52 50  1  0
 52 51  1  0
 53 54  1  0
 54 55  1  0
 55 56  1  0
 57 56  1  0
 57 58  1  0
 59 58  1  0
 60 59  1  0
 62 61  1  0
 62 63  1  0
 62 60  1  0
 64 66  1  0
 64 63  1  0
 65 76  2  0
 66 71  1  0
 67 75  1  0
 67 77  1  0
 68 74  1  0
 68 70  1  0
 69 75  1  0
 70 69  1  0
 71 70  2  0
 72 73  1  0
 72 66  2  0
 73 68  2  0
 74 67  1  0
 75 65  1  0
 77 79  2  0
 78 77  1  0
 80 78  1  0
 81 90  2  0
 81 86  1  0
 82 78  1  0
 82 86  1  0
 83 82  1  0
 84 85  1  0
 84 83  1  0
 85 81  1  0
 86 87  2  0
 87 88  1  0
 89 88  2  0
 90 89  1  0
 91 65  1  0
 91 92  1  0
 91101  1  0
 92 95  1  0
 93 97  1  0
 93 92  1  0
 94 93  2  0
 97 96  1  0
 99 97  1  0
 99100  1  0
 99 98  1  0
101104  1  1
101102  1  0
103101  1  0
M  ISO  4  11 100  19 100  63 101  64 101
M  END
>  <TORSDO>  (14) 
F 30

>  <SCORE>  (14) 
-8.832

>  <name>  (14) 
13

>  <ligand_id>  (14) 
13

>  <original_smiles>  (14) 
[H]c1c([H])c([H])c2c(c1[H])C([H])([H])C([H])([H])C([H])([H])C2([H])N([H])C(=O)C1([H])N(C(=O)C([H])(N([H])C(=O)C([H])(N([H])C([H])([H])[H])C([H])([H])[H])C(C([H])([H])[H])(C([H])([H])[H])C([H])([H])[H])C([H])([H])c2c([H])c(OC([H])([H])C([H])(C([H])([H])[H])C([H])([H])C([H])([H])C([H])([H])C([H])([H])C([H])([H])C([H])([H])C([H])([H])C([H])([H])C([H])([H])C(=O)N3C([H])([H])C([H])([H])C([H])(C([H])(N([H])C(=O)N4C([H])([H])C([H])([H])C([H])([H])C([H])(n5nc(-c6c([H])c([H])c(Oc7c([H])c([H])c(F)c([H])c7F)c([H])c6[H])c(C(=O)N([H])[H])c5N([H])[H])C4([H])[H])C([H])(C([H])([H])[H])C([H])([H])C([H])([H])[H])C([H])([H])C3([H])[H])c([H])c([H])c2C1([H])[H]

>  <smiles>  (14) 
[H]c1c([H])c([H])c2c(c1[H])C([H])([H])C([H])([H])C([H])([H])C2([H])N([H])C(=O)C1([H])N(C(=O)C([H])(N([H])C(=O)C([H])(N([H])C([H])([H])[H])C([H])([H])[H])C(C([H])([H])[H])(C([H])([H])[H])C([H])([H])[H])C([H])([H])c2c([H])c(OC([H])([H])C([H])(C([H])([H])[H])C([H])([H])C([H])([H])C([H])([H])C([H])([H])C([H])([H])C([H])([H])C([H])([H])C([H])([H])C([H])([H])C(=O)N3C([H])([H])C([H])([H])C([H])(C([H])(N([H])C(=O)N4C([H])([H])C([H])([H])C([H])([H])C([H])(n5nc(-c6c([H])c([H])c(Oc7c([H])c([H])c(F)c([H])c7F)c([H])c6[H])c(C(=O)N([H])[H])c5N([H])[H])C4([H])[H])C([H])(C([H])([H])[H])C([H])([H])C([H])([H])[H])C([H])([H])C3([H])[H])c([H])c([H])c2C1([H])[H]

$$$$
14:0:0
     RDKit          3D

101108  0  0  1  0  0  0  0  0999 V2000
  -27.7940  -18.1810   19.7240 C   0  0  0  0  0  3  0  0  0  0  0  0
  -27.8280  -19.7160   19.7990 C   0  0  0  0  0  0  0  0  0  0  0  0
  -28.5180  -20.3640   18.8480 N   0  0  0  0  0  0  0  0  0  0  0  0
  -27.1980  -20.3030   20.6820 O   0  0  0  0  0  0  0  0  0  0  0  0
  -29.0510  -19.8070   18.1920 H   0  0  0  0  0  0  0  0  0  0  0  0
  -28.4450  -21.7960   18.5620 C   0  0  0  0  0  2  0  0  0  0  0  0
  -29.5420  -22.6120   19.2640 C   0  0  0  0  0  2  0  0  0  0  0  0
  -30.7510  -22.9760   18.3750 C   0  0  0  0  0  2  0  0  0  0  0  0
  -31.6190  -24.0600   19.0410 C   0  0  0  0  0  2  0  0  0  0  0  0
  -32.2370  -25.0860   18.0660 C   0  0  0  0  0  2  0  0  0  0  0  0
  -31.9770  -26.4190   18.5200 O   0  0  0  0  0  0  0  0  0  0  0  0
  -27.2550  -29.0390   23.1370 C   0  0  0  0  0  0  0  0  0  0  0  0
  -30.6670  -26.8040   18.7170 C   0  0  0  0  0  0  0  0  0  0  0  0
  -26.3130  -28.2060   21.0060 C   0  0  0  0  0  3  0  0  0  0  0  0
  -28.0130  -27.6640   19.1850 C   0  0  0  0  0  0  0  0  0  0  0  0
  -28.7140  -29.0900   21.1180 C   0  0  0  0  0  2  0  0  0  0  0  0
  -29.0540  -28.1340   19.9940 C   0  0  0  0  0  0  0  0  0  0  0  0
  -30.3810  -27.7160   19.7560 C   0  0  0  0  0  3  0  0  0  0  0  0
  -29.5960  -26.3240   17.9220 C   0  0  0  0  0  3  0  0  0  0  0  0
  -28.2780  -26.7520   18.1510 C   0  0  0  0  0  3  0  0  0  0  0  0
  -26.6260  -28.1840   19.4870 C   0  0  0  0  0  2  0  0  0  0  0  0
  -27.4430  -28.7700   21.8140 N   0  0  0  0  0  0  0  0  0  0  0  0
  -26.1550  -28.8590   23.6750 O   0  0  0  0  0  0  0  0  0  0  0  0
  -25.9000  -26.7810   21.4430 C   0  0  0  0  0  0  0  0  0  0  0  0
  -24.6680  -26.3810   21.0840 N   0  0  0  0  0  0  0  0  0  0  0  0
  -26.6810  -26.0580   22.0650 O   0  0  0  0  0  0  0  0  0  0  0  0
  -24.0820  -27.0360   20.5850 H   0  0  0  0  0  0  0  0  0  0  0  0
  -21.7120  -24.3570   20.6070 C   0  0  0  0  0  0  0  0  0  0  0  0
  -24.0810  -25.0700   21.3570 C   0  0  0  0  0  3  0  0  0  0  0  0
  -24.6040  -24.0050   20.3670 C   0  0  0  0  0  2  0  0  0  0  0  0
  -23.7050  -23.8370   19.1370 C   0  0  0  0  0  2  0  0  0  0  0  0
  -22.2930  -23.4210   19.5600 C   0  0  0  0  0  2  0  0  0  0  0  0
  -22.5530  -25.1450   21.4370 C   0  0  0  0  0  0  0  0  0  0  0  0
  -21.9640  -26.0280   22.3690 C   0  0  0  0  0  3  0  0  0  0  0  0
  -20.5660  -26.1320   22.4780 C   0  0  0  0  0  3  0  0  0  0  0  0
  -19.7360  -25.3380   21.6650 C   0  0  0  0  0  3  0  0  0  0  0  0
  -20.3100  -24.4500   20.7350 C   0  0  0  0  0  3  0  0  0  0  0  0
  -28.4070  -29.6060   24.0260 C   0  0  0  0  0  3  0  0  0  0  0  0
  -27.8930  -30.8090   24.7000 N   0  0  0  0  0  0  0  0  0  0  0  0
  -28.1600  -32.0630   24.3160 C   0  0  0  0  0  0  0  0  0  0  0  0
  -28.9350  -32.3330   23.3940 O   0  0  0  0  0  0  0  0  0  0  0  0
  -27.2200  -30.6590   25.4350 H   0  0  0  0  0  0  0  0  0  0  0  0
  -26.2690  -33.7220   24.2450 C   0  0  0  0  0  1  0  0  0  0  0  0
  -27.4540  -33.2050   25.0760 C   0  0  0  0  0  3  0  0  0  0  0  0
  -29.3580  -33.9870   26.4150 C   0  0  0  0  0  1  0  0  0  0  0  0
  -28.3510  -34.3310   25.4140 N   0  0  0  0  0  0  0  0  0  0  0  0
  -27.8170  -35.1230   25.7630 H   0  0  0  0  0  0  0  0  0  0  0  0
  -28.9460  -28.5640   25.0810 C   0  0  1  0  0  0  0  0  0  0  0  0
  -27.8360  -27.9210   25.9440 C   0  0  0  0  0  1  0  0  0  0  0  0
  -29.7210  -27.4220   24.3790 C   0  0  0  0  0  1  0  0  0  0  0  0
  -29.9500  -29.2550   26.0340 C   0  0  0  0  0  1  0  0  0  0  0  0
  -29.0540  -17.6140   20.2690 N   0  0  0  0  0  4  0  0  0  0  0  0
  -29.7460  -18.3340   20.1260 H   0  0  0  0  0  0  0  0  0  0  0  0
  -28.9550  -17.4840   21.2630 H   0  0  0  0  0  0  0  0  0  0  0  0
  -29.5000  -16.3760   19.5810 C   0  0  0  0  0  2  0  0  0  0  0  0
  -30.9360  -15.8730   19.8940 C   0  0  0  0  0  3  0  0  0  0  0  0
  -31.8880  -13.6150   19.2180 C   0  0  0  0  0  0  0  0  0  0  0  0
  -31.4070  -11.2190   18.9460 C   0  0  0  0  0  2  0  0  0  0  0  0
  -30.3450  -11.0380   17.8430 C   0  0  0  0  0  2  0  0  0  0  0  0
  -28.9240  -11.1390   18.4330 C   0  0  0  0  0  2  0  0  0  0  0  0
  -28.7390  -12.3690   19.3640 C   0  0  0  0  0  3  0  0  0  0  0  0
  -29.9140  -12.5170   20.3550 C   0  0  0  0  0  2  0  0  0  0  0  0
  -31.1600  -12.5250   19.5760 N   0  0  0  0  0  0  0  0  0  0  0  0
  -32.9780  -13.5300   18.6550 O   0  0  0  0  0  0  0  0  0  0  0  0
  -31.1830  -14.7370   18.9990 N   0  0  0  0  0  0  0  0  0  0  0  0
  -31.4590  -15.1010   18.0990 H   0  0  0  0  0  0  0  0  0  0  0  0
  -26.7100  -13.3760   20.5670 C   0  0  0  0  0  0  0  0  0  0  0  0
  -25.5550  -12.8220   21.0520 C   0  0  0  0  0  0  0  0  0  0  0  0
  -25.6330  -11.4310   20.7420 C   0  0  0  0  0  0  0  0  0  0  0  0
  -27.4470  -12.3300   20.0440 N   0  0  0  0  0  0  0  0  0  0  0  0
  -26.8060  -11.1430   20.1900 N   0  0  0  0  0  0  0  0  0  0  0  0
  -24.6300  -10.3670   20.8870 C   0  0  0  0  0  0  0  0  0  0  0  0
  -24.8790   -9.2190   21.6680 C   0  0  0  0  0  3  0  0  0  0  0  0
  -23.8960   -8.2150   21.7990 C   0  0  0  0  0  3  0  0  0  0  0  0
  -22.6470   -8.3590   21.1500 C   0  0  0  0  0  0  0  0  0  0  0  0
  -22.4110   -9.4930   20.3540 C   0  0  0  0  0  3  0  0  0  0  0  0
  -23.3940  -10.4890   20.2230 C   0  0  0  0  0  3  0  0  0  0  0  0
  -21.6400   -7.4250   21.2050 O   0  0  0  0  0  0  0  0  0  0  0  0
  -21.4410   -6.6470   22.3180 C   0  0  0  0  0  0  0  0  0  0  0  0
  -21.1230   -7.2080   23.5740 C   0  0  0  0  0  3  0  0  0  0  0  0
  -20.8540   -6.3660   24.6730 C   0  0  0  0  0  3  0  0  0  0  0  0
  -20.9000   -4.9670   24.5180 C   0  0  0  0  0  0  0  0  0  0  0  0
  -21.2140   -4.4070   23.2660 C   0  0  0  0  0  3  0  0  0  0  0  0
  -21.4820   -5.2460   22.1700 C   0  0  0  0  0  0  0  0  0  0  0  0
  -21.7660   -4.7010   20.9640 F   0  0  0  0  0  0  0  0  0  0  0  0
  -20.6350   -4.1590   25.5690 F   0  0  0  0  0  0  0  0  0  0  0  0
  -24.3990  -13.5610   21.6610 C   0  0  0  0  0  0  0  0  0  0  0  0
  -23.6780  -12.9260   22.5820 N   0  0  0  0  0  0  0  0  0  0  0  0
  -24.1560  -14.7270   21.3570 O   0  0  0  0  0  0  0  0  0  0  0  0
  -23.8890  -11.9780   22.8560 H   0  0  0  0  0  0  0  0  0  0  0  0
  -22.9040  -13.3990   23.0280 H   0  0  0  0  0  0  0  0  0  0  0  0
  -27.1750  -14.6790   20.4880 N   0  0  0  0  0  0  0  0  0  0  0  0
  -26.4920  -15.4100   20.6570 H   0  0  0  0  0  0  0  0  0  0  0  0
  -27.8310  -14.9190   19.7570 H   0  0  0  0  0  0  0  0  0  0  0  0
  -33.4380  -16.4710   20.1260 C   0  0  0  0  0  1  0  0  0  0  0  0
  -32.0940  -17.5920   18.3200 C   0  0  0  0  0  1  0  0  0  0  0  0
  -32.0370  -16.9660   19.7300 C   0  0  0  0  0  3  0  0  0  0  0  0
  -26.5550  -17.6080   20.4740 C   0  0  0  0  0  2  0  0  0  0  0  0
  -25.4790  -16.6800   18.2740 C   0  0  0  0  0  1  0  0  0  0  0  0
  -24.3700  -18.5890   19.5490 C   0  0  0  0  0  1  0  0  0  0  0  0
  -25.2620  -17.3390   19.6520 C   0  0  0  0  0  3  0  0  0  0  0  0
  1  2  1  0
  1 52  1  0
  1 98  1  0
  2  4  2  0
  3  2  1  0
  5  3  1  0
  6  3  1  0
  6  7  1  0
  8  9  1  0
  8  7  1  0
 10 11  1  0
 10  9  1  0
 11 13  1  0
 12 23  2  0
 13 18  1  0
 14 24  1  0
 14 22  1  0
 15 21  1  0
 15 17  1  0
 16 22  1  0
 17 16  1  0
 18 17  2  0
 19 20  1  0
 19 13  2  0
 20 15  2  0
 21 14  1  0
 22 12  1  0
 24 26  2  0
 25 24  1  0
 27 25  1  0
 28 37  2  0
 28 33  1  0
 29 25  1  0
 29 33  1  0
 30 29  1  0
 31 32  1  0
 31 30  1  0
 32 28  1  0
 33 34  2  0
 34 35  1  0
 36 35  2  0
 37 36  1  0
 38 12  1  0
 38 39  1  0
 38 48  1  0
 39 42  1  0
 40 39  1  0
 40 44  1  0
 41 40  2  0
 44 43  1  0
 44 46  1  0
 46 47  1  0
 46 45  1  0
 48 49  1  1
 48 51  1  0
 50 48  1  0
 52 54  1  0
 53 52  1  0
 55 52  1  0
 56 55  1  0
 57 63  1  0
 58 63  1  0
 59 60  1  0
 59 58  1  0
 61 60  1  0
 61 70  1  0
 61 62  1  0
 63 62  1  0
 64 57  2  0
 65 57  1  0
 65 56  1  0
 66 65  1  0
 67 68  2  0
 68 87  1  0
 69 72  1  0
 69 68  1  0
 70 71  1  0
 70 67  1  0
 71 69  2  0
 72 73  1  0
 73 74  2  0
 75 78  1  0
 75 74  1  0
 76 75  2  0
 77 76  1  0
 77 72  2  0
 78 79  1  0
 79 80  1  0
 80 81  2  0
 82 81  1  0
 82 86  1  0
 83 82  2  0
 84 79  2  0
 84 83  1  0
 85 84  1  0
 87 88  1  0
 88 90  1  0
 88 91  1  0
 89 87  2  0
 92 67  1  0
 92 93  1  0
 94 92  1  0
 96 97  1  0
 97 56  1  0
 97 95  1  0
 99101  1  0
100101  1  0
101 98  1  0
M  ISO  4  10 101  11 101  57 100  65 100
M  END
>  <TORSDO>  (15) 
F 28

>  <SCORE>  (15) 
-1.344

>  <name>  (15) 
14

>  <ligand_id>  (15) 
14

>  <original_smiles>  (15) 
[H]c1c([H])c([H])c2c(c1[H])C([H])([H])C([H])([H])C([H])([H])C2([H])N([H])C(=O)C1([H])N(C(=O)C([H])(N([H])C(=O)C([H])(N([H])C([H])([H])[H])C([H])([H])[H])C(C([H])([H])[H])(C([H])([H])[H])C([H])([H])[H])C([H])([H])c2c([H])c(OC([H])([H])C([H])([H])C([H])([H])C([H])([H])C([H])([H])N([H])C(=O)C([H])(C([H])([H])C([H])(C([H])([H])[H])C([H])([H])[H])[N+]([H])([H])C([H])([H])C([H])(N([H])C(=O)N3C([H])([H])C([H])([H])C([H])([H])C([H])(n4nc(-c5c([H])c([H])c(Oc6c([H])c([H])c(F)c([H])c6F)c([H])c5[H])c(C(=O)N([H])[H])c4N([H])[H])C3([H])[H])C([H])(C([H])([H])[H])C([H])([H])[H])c([H])c([H])c2C1([H])[H]

>  <smiles>  (15) 
[H]c1c([H])c([H])c2c(c1[H])C([H])([H])C([H])([H])C([H])([H])C2([H])N([H])C(=O)C1([H])N(C(=O)C([H])(N([H])C(=O)C([H])(N([H])C([H])([H])[H])C([H])([H])[H])C(C([H])([H])[H])(C([H])([H])[H])C([H])([H])[H])C([H])([H])c2c([H])c(OC([H])([H])C([H])([H])C([H])([H])C([H])([H])C([H])([H])N([H])C(=O)C([H])(C([H])([H])C([H])(C([H])([H])[H])C([H])([H])[H])[N+]([H])([H])C([H])([H])C([H])(N([H])C(=O)N3C([H])([H])C([H])([H])C([H])([H])C([H])(n4nc(-c5c([H])c([H])c(Oc6c([H])c([H])c(F)c([H])c6F)c([H])c5[H])c(C(=O)N([H])[H])c4N([H])[H])C3([H])[H])C([H])(C([H])([H])[H])C([H])([H])[H])c([H])c([H])c2C1([H])[H]

$$$$
15:0:0
     RDKit          3D

 90 98  0  0  1  0  0  0  0  0999 V2000
  -30.6000  -15.9220   20.3380 C   0  0  0  0  0  0  0  0  0  0  0  0
  -30.5640  -13.3910   19.4630 C   0  0  0  0  0  2  0  0  0  0  0  0
  -29.6990  -13.0270   18.2260 C   0  0  0  0  0  2  0  0  0  0  0  0
  -28.2610  -12.6970   18.6450 C   0  0  0  0  0  2  0  0  0  0  0  0
  -27.7550  -13.6810   19.7220 C   0  0  0  0  0  3  0  0  0  0  0  0
  -28.7740  -13.9850   20.8500 C   0  0  0  0  0  2  0  0  0  0  0  0
  -29.9620  -14.6020   20.2030 N   0  0  0  0  0  0  0  0  0  0  0  0
  -31.8250  -15.6950   20.2740 O   0  0  0  0  0  0  0  0  0  0  0  0
  -30.5840  -19.8850   21.5110 C   0  0  0  0  0  2  0  0  0  0  0  0
  -31.0310  -18.3280   21.3420 C   0  0  0  0  0  2  0  0  0  0  0  0
  -29.7440  -20.5730   20.3690 C   0  0  0  0  0  3  0  0  0  0  0  0
  -29.2980  -18.8080   19.9580 C   0  0  0  0  0  3  0  0  0  0  0  0
  -30.1240  -17.4210   20.5540 N   0  0  0  0  0  0  0  0  0  0  0  0
  -25.3900  -14.2260   20.4550 C   0  0  0  0  0  0  0  0  0  0  0  0
  -24.3100  -13.4560   20.7700 C   0  0  0  0  0  0  0  0  0  0  0  0
  -24.7600  -12.1010   20.7290 C   0  0  0  0  0  0  0  0  0  0  0  0
  -26.4270  -13.3450   20.2160 N   0  0  0  0  0  0  0  0  0  0  0  0
  -26.0620  -12.0560   20.4520 N   0  0  0  0  0  0  0  0  0  0  0  0
  -24.0070  -10.8450   20.8750 C   0  0  0  0  0  0  0  0  0  0  0  0
  -24.4140   -9.8360   21.7750 C   0  0  0  0  0  3  0  0  0  0  0  0
  -23.6560   -8.6510   21.9130 C   0  0  0  0  0  3  0  0  0  0  0  0
  -22.4790   -8.4660   21.1490 C   0  0  0  0  0  0  0  0  0  0  0  0
  -22.0900   -9.4640   20.2370 C   0  0  0  0  0  3  0  0  0  0  0  0
  -22.8490  -10.6380   20.0970 C   0  0  0  0  0  3  0  0  0  0  0  0
  -21.6980   -7.3370   21.1960 O   0  0  0  0  0  0  0  0  0  0  0  0
  -21.6700   -6.5270   22.3030 C   0  0  0  0  0  0  0  0  0  0  0  0
  -21.3120   -7.0190   23.5760 C   0  0  0  0  0  3  0  0  0  0  0  0
  -21.2270   -6.1380   24.6740 C   0  0  0  0  0  3  0  0  0  0  0  0
  -21.4910   -4.7660   24.4980 C   0  0  0  0  0  0  0  0  0  0  0  0
  -21.8450   -4.2750   23.2310 C   0  0  0  0  0  3  0  0  0  0  0  0
  -21.9320   -5.1530   22.1350 C   0  0  0  0  0  0  0  0  0  0  0  0
  -22.2510   -4.6690   20.9110 F   0  0  0  0  0  0  0  0  0  0  0  0
  -21.4040   -3.9190   25.5520 F   0  0  0  0  0  0  0  0  0  0  0  0
  -22.9110  -13.9500   20.9980 C   0  0  0  0  0  0  0  0  0  0  0  0
  -22.1490  -13.2640   21.8390 N   0  0  0  0  0  0  0  0  0  0  0  0
  -22.5060  -14.9830   20.4640 O   0  0  0  0  0  0  0  0  0  0  0  0
  -22.4920  -12.4330   22.2970 H   0  0  0  0  0  0  0  0  0  0  0  0
  -21.2080  -13.5770   22.0360 H   0  0  0  0  0  0  0  0  0  0  0  0
  -25.5760  -15.5980   20.3150 N   0  0  0  0  0  0  0  0  0  0  0  0
  -24.8170  -16.2590   20.4370 H   0  0  0  0  0  0  0  0  0  0  0  0
  -26.4490  -16.0370   20.0560 H   0  0  0  0  0  0  0  0  0  0  0  0
  -29.0450  -22.2730   20.8730 C   0  0  0  0  0  0  0  0  0  0  0  0
  -28.8170  -22.2720   22.0870 O   0  0  0  0  0  0  0  0  0  0  0  0
  -28.6240  -23.9830   20.1790 C   0  0  0  0  0  2  0  0  0  0  0  0
  -28.4420  -25.6510   20.7950 O   0  0  0  0  0  0  0  0  0  0  0  0
  -24.7190  -32.0120   23.3790 C   0  0  0  0  0  0  0  0  0  0  0  0
  -27.4730  -26.8720   20.6140 C   0  0  0  0  0  0  0  0  0  0  0  0
  -23.6340  -30.5420   21.7350 C   0  0  0  0  0  3  0  0  0  0  0  0
  -25.1740  -28.8820   20.4280 C   0  0  0  0  0  0  0  0  0  0  0  0
  -26.2140  -30.7220   21.7250 C   0  0  0  0  0  2  0  0  0  0  0  0
  -26.3330  -29.2680   21.1060 C   0  0  0  0  0  0  0  0  0  0  0  0
  -27.4630  -28.2880   21.1720 C   0  0  0  0  0  3  0  0  0  0  0  0
  -26.2790  -26.7070   19.8640 C   0  0  0  0  0  3  0  0  0  0  0  0
  -25.1860  -27.6280   19.7870 C   0  0  0  0  0  3  0  0  0  0  0  0
  -23.9490  -29.8120   20.3970 C   0  0  0  0  0  2  0  0  0  0  0  0
  -24.8780  -31.1300   22.3310 N   0  0  0  0  0  0  0  0  0  0  0  0
  -23.5990  -32.3040   23.8340 O   0  0  0  0  0  0  0  0  0  0  0  0
  -22.8930  -29.5810   22.7060 C   0  0  0  0  0  0  0  0  0  0  0  0
  -21.5680  -29.4010   22.5340 N   0  0  0  0  0  0  0  0  0  0  0  0
  -23.5220  -28.9950   23.5900 O   0  0  0  0  0  0  0  0  0  0  0  0
  -21.1090  -29.9200   21.7970 H   0  0  0  0  0  0  0  0  0  0  0  0
  -18.1690  -28.1840   22.9830 C   0  0  0  0  0  0  0  0  0  0  0  0
  -20.7210  -28.4750   23.3020 C   0  0  0  0  0  3  0  0  0  0  0  0
  -20.8450  -27.0340   22.7560 C   0  0  0  0  0  2  0  0  0  0  0  0
  -19.7700  -26.6900   21.7190 C   0  0  0  0  0  2  0  0  0  0  0  0
  -18.3730  -26.8290   22.3290 C   0  0  0  0  0  2  0  0  0  0  0  0
  -19.2710  -28.9640   23.4270 C   0  0  0  0  0  0  0  0  0  0  0  0
  -19.0240  -30.2280   24.0040 C   0  0  0  0  0  3  0  0  0  0  0  0
  -17.7080  -30.7100   24.1470 C   0  0  0  0  0  3  0  0  0  0  0  0
  -16.6210  -29.9300   23.7170 C   0  0  0  0  0  3  0  0  0  0  0  0
  -16.8540  -28.6690   23.1390 C   0  0  0  0  0  3  0  0  0  0  0  0
  -25.9390  -32.7110   24.0540 C   0  0  0  0  0  3  0  0  0  0  0  0
  -26.3730  -32.0230   25.4070 C   0  0  1  0  0  0  0  0  0  0  0  0
  -25.2030  -31.8010   26.3970 C   0  0  0  0  0  1  0  0  0  0  0  0
  -27.0220  -30.6470   25.1470 C   0  0  0  0  0  1  0  0  0  0  0  0
  -27.4460  -32.8830   26.1120 C   0  0  0  0  0  1  0  0  0  0  0  0
  -25.5840  -34.1210   24.3050 N   0  0  0  0  0  0  0  0  0  0  0  0
  -25.9280  -35.1580   23.5300 C   0  0  0  0  0  0  0  0  0  0  0  0
  -26.6370  -35.0280   22.5280 O   0  0  0  0  0  0  0  0  0  0  0  0
  -24.9610  -34.2900   25.0810 H   0  0  0  0  0  0  0  0  0  0  0  0
  -24.2010  -36.9260   23.0480 C   0  0  0  0  0  1  0  0  0  0  0  0
  -25.4110  -36.5590   23.9210 C   0  0  0  0  0  3  0  0  0  0  0  0
  -27.4980  -37.5080   24.8080 C   0  0  0  0  0  1  0  0  0  0  0  0
  -26.4360  -37.6220   23.8120 N   0  0  0  0  0  0  0  0  0  0  0  0
  -26.0140  -38.5440   23.9030 H   0  0  0  0  0  0  0  0  0  0  0  0
  -29.2550  -18.6400   18.4090 C   0  0  0  0  0  0  0  0  0  0  0  0
  -30.1340  -18.0010   17.8180 O   0  0  0  0  0  0  0  0  0  0  0  0
  -28.3370  -20.7800   17.3290 C   0  0  0  0  0  1  0  0  0  0  0  0
  -27.9800  -18.5470   16.1980 C   0  0  0  0  0  1  0  0  0  0  0  0
  -28.1150  -19.2690   17.5630 C   0  0  0  0  0  3  0  0  0  0  0  0
  1 13  1  0
  2  7  1  0
  3  4  1  0
  3  2  1  0
  5  4  1  0
  5 17  1  0
  5  6  1  0
  7  1  1  0
  7  6  1  0
  8  1  2  0
 10  9  1  0
 11 42  1  0
 11  9  1  0
 12 86  1  0
 12 11  1  0
 12 13  1  0
 13 10  1  0
 14 15  2  0
 15 34  1  0
 16 15  1  0
 16 19  1  0
 17 18  1  0
 17 14  1  0
 18 16  2  0
 19 20  1  0
 20 21  2  0
 22 25  1  0
 22 21  1  0
 23 22  2  0
 24 23  1  0
 24 19  2  0
 25 26  1  0
 26 27  1  0
 27 28  2  0
 29 28  1  0
 29 33  1  0
 30 29  2  0
 31 26  2  0
 31 30  1  0
 32 31  1  0
 34 35  1  0
 35 38  1  0
 35 37  1  0
 36 34  2  0
 39 40  1  0
 39 14  1  0
 41 39  1  0
 42 43  2  0
 44 45  1  0
 44 42  1  0
 46 57  2  0
 47 45  1  0
 47 52  1  0
 48 56  1  0
 48 58  1  0
 49 51  1  0
 50 56  1  0
 51 52  2  0
 51 50  1  0
 53 47  2  0
 54 53  1  0
 54 49  2  0
 55 49  1  0
 55 48  1  0
 56 46  1  0
 58 60  2  0
 59 58  1  0
 61 59  1  0
 62 71  2  0
 62 67  1  0
 63 59  1  0
 63 67  1  0
 64 63  1  0
 65 66  1  0
 65 64  1  0
 66 62  1  0
 67 68  2  0
 68 69  1  0
 70 69  2  0
 71 70  1  0
 72 46  1  0
 72 77  1  0
 72 73  1  0
 73 76  1  1
 73 74  1  0
 75 73  1  0
 77 80  1  0
 78 82  1  0
 78 77  1  0
 79 78  2  0
 82 81  1  0
 84 85  1  0
 84 82  1  0
 84 83  1  0
 87 86  2  0
 88 90  1  0
 89 90  1  0
 90 86  1  0
M  ISO  4   1 100  13 100  44 101  45 101
M  END
>  <TORSDO>  (16) 
F 19

>  <SCORE>  (16) 
-15.653

>  <name>  (16) 
15

>  <ligand_id>  (16) 
15

>  <original_smiles>  (16) 
[H]c1c([H])c([H])c2c(c1[H])C([H])([H])C([H])([H])C([H])([H])C2([H])N([H])C(=O)C1([H])N(C(=O)C([H])(N([H])C(=O)C([H])(N([H])C([H])([H])[H])C([H])([H])[H])C(C([H])([H])[H])(C([H])([H])[H])C([H])([H])[H])C([H])([H])c2c([H])c(OC([H])([H])C(=O)C3([H])C([H])(C(=O)C([H])(C([H])([H])[H])C([H])([H])[H])N(C(=O)N4C([H])([H])C([H])([H])C([H])([H])C([H])(n5nc(-c6c([H])c([H])c(Oc7c([H])c([H])c(F)c([H])c7F)c([H])c6[H])c(C(=O)N([H])[H])c5N([H])[H])C4([H])[H])C([H])([H])C3([H])[H])c([H])c([H])c2C1([H])[H]

>  <smiles>  (16) 
[H]c1c([H])c([H])c2c(c1[H])C([H])([H])C([H])([H])C([H])([H])C2([H])N([H])C(=O)C1([H])N(C(=O)C([H])(N([H])C(=O)C([H])(N([H])C([H])([H])[H])C([H])([H])[H])C(C([H])([H])[H])(C([H])([H])[H])C([H])([H])[H])C([H])([H])c2c([H])c(OC([H])([H])C(=O)C3([H])C([H])(C(=O)C([H])(C([H])([H])[H])C([H])([H])[H])N(C(=O)N4C([H])([H])C([H])([H])C([H])([H])C([H])(n5nc(-c6c([H])c([H])c(Oc7c([H])c([H])c(F)c([H])c7F)c([H])c6[H])c(C(=O)N([H])[H])c5N([H])[H])C4([H])[H])C([H])([H])C3([H])[H])c([H])c([H])c2C1([H])[H]

$$$$
16:0:0
     RDKit          3D

 96103  0  0  1  0  0  0  0  0999 V2000
  -29.8300  -20.7780   20.4560 C   0  0  0  0  0  3  0  0  0  0  0  0
  -28.9380  -23.4420   20.1640 C   0  0  0  0  0  0  0  0  0  0  0  0
  -28.8620  -22.0640   20.5660 N   0  0  0  0  0  0  0  0  0  0  0  0
  -29.7960  -23.7860   19.3450 O   0  0  0  0  0  0  0  0  0  0  0  0
  -28.0740  -21.8920   21.1860 H   0  0  0  0  0  0  0  0  0  0  0  0
  -27.9610  -24.6890   20.6720 C   0  0  0  0  0  2  0  0  0  0  0  0
  -28.2580  -26.1870   20.3210 O   0  0  0  0  0  0  0  0  0  0  0  0
  -24.6420  -31.9210   23.2320 C   0  0  0  0  0  0  0  0  0  0  0  0
  -27.2050  -27.1740   20.2730 C   0  0  0  0  0  0  0  0  0  0  0  0
  -23.4380  -30.5130   21.6040 C   0  0  0  0  0  3  0  0  0  0  0  0
  -24.8840  -28.9220   20.1950 C   0  0  0  0  0  0  0  0  0  0  0  0
  -25.9910  -30.7710   21.4410 C   0  0  0  0  0  2  0  0  0  0  0  0
  -26.0580  -29.3710   20.8120 C   0  0  0  0  0  0  0  0  0  0  0  0
  -27.2220  -28.5090   20.8380 C   0  0  0  0  0  3  0  0  0  0  0  0
  -26.0160  -26.8350   19.5930 C   0  0  0  0  0  3  0  0  0  0  0  0
  -24.8760  -27.6670   19.5700 C   0  0  0  0  0  3  0  0  0  0  0  0
  -23.6590  -29.8250   20.2290 C   0  0  0  0  0  2  0  0  0  0  0  0
  -24.7080  -31.0920   22.1480 N   0  0  0  0  0  0  0  0  0  0  0  0
  -23.5550  -32.2140   23.7600 O   0  0  0  0  0  0  0  0  0  0  0  0
  -22.7640  -29.5150   22.5770 C   0  0  0  0  0  0  0  0  0  0  0  0
  -21.4370  -29.3410   22.4510 N   0  0  0  0  0  0  0  0  0  0  0  0
  -23.4360  -28.8970   23.4070 O   0  0  0  0  0  0  0  0  0  0  0  0
  -20.9490  -29.8880   21.7550 H   0  0  0  0  0  0  0  0  0  0  0  0
  -18.0590  -28.1570   22.9770 C   0  0  0  0  0  0  0  0  0  0  0  0
  -20.6200  -28.4120   23.2320 C   0  0  0  0  0  3  0  0  0  0  0  0
  -20.7130  -26.9760   22.6630 C   0  0  0  0  0  2  0  0  0  0  0  0
  -19.6070  -26.6520   21.6540 C   0  0  0  0  0  2  0  0  0  0  0  0
  -18.2280  -26.8060   22.3040 C   0  0  0  0  0  2  0  0  0  0  0  0
  -19.1810  -28.9160   23.3980 C   0  0  0  0  0  0  0  0  0  0  0  0
  -18.9690  -30.1820   23.9900 C   0  0  0  0  0  3  0  0  0  0  0  0
  -17.6660  -30.6870   24.1590 C   0  0  0  0  0  3  0  0  0  0  0  0
  -16.5580  -29.9230   23.7520 C   0  0  0  0  0  3  0  0  0  0  0  0
  -16.7550  -28.6590   23.1690 C   0  0  0  0  0  3  0  0  0  0  0  0
  -25.9210  -32.5600   23.8530 C   0  0  0  0  0  3  0  0  0  0  0  0
  -26.4400  -31.7970   25.1340 C   0  0  1  0  0  0  0  0  0  0  0  0
  -25.3440  -31.5670   26.2010 C   0  0  0  0  0  1  0  0  0  0  0  0
  -27.0210  -30.4150   24.7510 C   0  0  0  0  0  1  0  0  0  0  0  0
  -27.5910  -32.5920   25.7900 C   0  0  0  0  0  1  0  0  0  0  0  0
  -25.6110  -33.9590   24.1800 N   0  0  0  0  0  0  0  0  0  0  0  0
  -25.9420  -35.0130   23.4210 C   0  0  0  0  0  0  0  0  0  0  0  0
  -26.6050  -34.9090   22.3850 O   0  0  0  0  0  0  0  0  0  0  0  0
  -25.0280  -34.1170   24.9870 H   0  0  0  0  0  0  0  0  0  0  0  0
  -24.2140  -36.8080   23.0720 C   0  0  0  0  0  1  0  0  0  0  0  0
  -25.4590  -36.4020   23.8790 C   0  0  0  0  0  3  0  0  0  0  0  0
  -27.5960  -37.2860   24.7050 C   0  0  0  0  0  1  0  0  0  0  0  0
  -26.4940  -37.4530   23.7620 N   0  0  0  0  0  0  0  0  0  0  0  0
  -26.0890  -38.3750   23.9040 H   0  0  0  0  0  0  0  0  0  0  0  0
  -29.3100  -19.1410   20.3230 C   0  0  0  0  0  0  0  0  0  0  0  0
  -28.1070  -18.8940   20.2040 O   0  0  0  0  0  0  0  0  0  0  0  0
  -30.3050  -17.8000   20.3290 C   0  0  0  0  0  2  0  0  0  0  0  0
  -30.5170  -15.0440   20.3100 C   0  0  0  0  0  0  0  0  0  0  0  0
  -30.3310  -12.6920   19.3790 C   0  0  0  0  0  2  0  0  0  0  0  0
  -29.4020  -12.6390   18.1450 C   0  0  0  0  0  2  0  0  0  0  0  0
  -27.9500  -12.4060   18.5940 C   0  0  0  0  0  2  0  0  0  0  0  0
  -27.5300  -13.3470   19.7530 C   0  0  0  0  0  3  0  0  0  0  0  0
  -28.5920  -13.4060   20.8780 C   0  0  0  0  0  2  0  0  0  0  0  0
  -29.8660  -13.8050   20.2560 N   0  0  0  0  0  0  0  0  0  0  0  0
  -31.7230  -15.0480   20.0420 O   0  0  0  0  0  0  0  0  0  0  0  0
  -29.8190  -16.2830   20.4450 N   0  0  0  0  0  0  0  0  0  0  0  0
  -28.8290  -16.2010   20.6240 H   0  0  0  0  0  0  0  0  0  0  0  0
  -25.1540  -13.9090   20.5030 C   0  0  0  0  0  0  0  0  0  0  0  0
  -24.0920  -13.1390   20.8800 C   0  0  0  0  0  0  0  0  0  0  0  0
  -24.5560  -11.7850   20.8440 C   0  0  0  0  0  0  0  0  0  0  0  0
  -26.1980  -13.0350   20.2620 N   0  0  0  0  0  0  0  0  0  0  0  0
  -25.8510  -11.7490   20.5330 N   0  0  0  0  0  0  0  0  0  0  0  0
  -23.8290  -10.5260   21.0390 C   0  0  0  0  0  0  0  0  0  0  0  0
  -24.2540   -9.5580   21.9750 C   0  0  0  0  0  3  0  0  0  0  0  0
  -23.5260   -8.3590   22.1480 C   0  0  0  0  0  3  0  0  0  0  0  0
  -22.3560   -8.1210   21.3920 C   0  0  0  0  0  0  0  0  0  0  0  0
  -21.9510   -9.0750   20.4420 C   0  0  0  0  0  3  0  0  0  0  0  0
  -22.6800  -10.2640   20.2650 C   0  0  0  0  0  3  0  0  0  0  0  0
  -21.5980   -6.9770   21.4840 O   0  0  0  0  0  0  0  0  0  0  0  0
  -21.5420   -6.2410   22.6400 C   0  0  0  0  0  0  0  0  0  0  0  0
  -21.0880   -6.7950   23.8590 C   0  0  0  0  0  3  0  0  0  0  0  0
  -20.9780   -5.9830   25.0040 C   0  0  0  0  0  3  0  0  0  0  0  0
  -21.3080   -4.6140   24.9340 C   0  0  0  0  0  0  0  0  0  0  0  0
  -21.7520   -4.0600   23.7210 C   0  0  0  0  0  3  0  0  0  0  0  0
  -21.8630   -4.8690   22.5770 C   0  0  0  0  0  0  0  0  0  0  0  0
  -22.2730   -4.3230   21.4060 F   0  0  0  0  0  0  0  0  0  0  0  0
  -21.1950   -3.8350   26.0350 F   0  0  0  0  0  0  0  0  0  0  0  0
  -22.6930  -13.6150   21.1510 C   0  0  0  0  0  0  0  0  0  0  0  0
  -21.9510  -12.9230   22.0040 N   0  0  0  0  0  0  0  0  0  0  0  0
  -22.2620  -14.6450   20.6290 O   0  0  0  0  0  0  0  0  0  0  0  0
  -22.3020  -12.0960   22.4660 H   0  0  0  0  0  0  0  0  0  0  0  0
  -21.0120  -13.2320   22.2120 H   0  0  0  0  0  0  0  0  0  0  0  0
  -25.3200  -15.2800   20.3160 N   0  0  0  0  0  0  0  0  0  0  0  0
  -24.5510  -15.9360   20.4040 H   0  0  0  0  0  0  0  0  0  0  0  0
  -26.1640  -15.7010   19.9500 H   0  0  0  0  0  0  0  0  0  0  0  0
  -30.9480  -21.0010   19.3810 C   0  0  0  0  0  2  0  0  0  0  0  0
  -32.2200  -21.7460   19.8920 C   0  0  0  0  0  2  0  0  0  0  0  0
  -34.6600  -22.3990   19.6560 C   0  0  0  0  0  1  0  0  0  0  0  0
  -33.5890  -21.3340   19.2820 C   0  0  0  0  0  3  0  0  0  0  0  0
  -33.5460  -21.1100   17.8160 N   0  0  0  0  0  4  0  0  0  0  0  0
  -33.2230  -21.9250   17.3200 H   0  0  0  0  0  0  0  0  0  0  0  0
  -32.9660  -20.3230   17.5600 H   0  0  0  0  0  0  0  0  0  0  0  0
  -34.4790  -20.8960   17.5050 H   0  0  0  0  0  0  0  0  0  0  0  0
  1 89  1  0
  1  3  1  0
  2  3  1  0
  2  6  1  0
  3  5  1  0
  4  2  2  0
  7  6  1  0
  8 19  2  0
  9  7  1  0
  9 14  1  0
 10 18  1  0
 10 20  1  0
 11 17  1  0
 11 13  1  0
 12 18  1  0
 13 14  2  0
 13 12  1  0
 15  9  2  0
 16 15  1  0
 16 11  2  0
 17 10  1  0
 18  8  1  0
 20 22  2  0
 21 20  1  0
 23 21  1  0
 24 33  2  0
 24 29  1  0
 25 21  1  0
 25 29  1  0
 26 25  1  0
 27 28  1  0
 27 26  1  0
 28 24  1  0
 29 30  2  0
 30 31  1  0
 32 31  2  0
 33 32  1  0
 34  8  1  0
 34 39  1  0
 34 35  1  0
 35 38  1  1
 35 36  1  0
 37 35  1  0
 39 42  1  0
 40 44  1  0
 40 39  1  0
 41 40  2  0
 44 43  1  0
 46 44  1  0
 46 47  1  0
 46 45  1  0
 48 50  1  0
 48  1  1  0
 49 48  2  0
 50 59  1  0
 51 59  1  0
 52 57  1  0
 53 54  1  0
 53 52  1  0
 55 54  1  0
 55 64  1  0
 55 56  1  0
 57 51  1  0
 57 56  1  0
 58 51  2  0
 59 60  1  0
 61 62  2  0
 62 81  1  0
 63 62  1  0
 63 66  1  0
 64 61  1  0
 64 65  1  0
 65 63  2  0
 66 67  1  0
 67 68  2  0
 69 72  1  0
 69 68  1  0
 70 69  2  0
 71 70  1  0
 71 66  2  0
 72 73  1  0
 73 74  1  0
 74 75  2  0
 76 75  1  0
 76 80  1  0
 77 76  2  0
 78 73  2  0
 78 77  1  0
 79 78  1  0
 81 82  1  0
 82 85  1  0
 82 84  1  0
 83 81  2  0
 86 87  1  0
 86 61  1  0
 88 86  1  0
 89 90  1  0
 92 91  1  0
 92 90  1  0
 93 92  1  0
 94 93  1  0
 95 93  1  0
 96 93  1  0
M  ISO  4   6 101   7 101  51 100  59 100
M  END
>  <TORSDO>  (17) 
F 24

>  <SCORE>  (17) 
-12.949

>  <name>  (17) 
16

>  <ligand_id>  (17) 
16

>  <original_smiles>  (17) 
[H]c1c([H])c([H])c2c(c1[H])C([H])([H])C([H])([H])C([H])([H])C2([H])N([H])C(=O)C1([H])N(C(=O)C([H])(N([H])C(=O)C([H])(N([H])C([H])([H])[H])C([H])([H])[H])C(C([H])([H])[H])(C([H])([H])[H])C([H])([H])[H])C([H])([H])c2c([H])c(OC([H])([H])C(=O)N([H])C([H])(C(=O)C([H])([H])N([H])C(=O)N3C([H])([H])C([H])([H])C([H])([H])C([H])(n4nc(-c5c([H])c([H])c(Oc6c([H])c([H])c(F)c([H])c6F)c([H])c5[H])c(C(=O)N([H])[H])c4N([H])[H])C3([H])[H])C([H])([H])C([H])([H])C([H])(C([H])([H])[H])[N+]([H])([H])[H])c([H])c([H])c2C1([H])[H]

>  <smiles>  (17) 
[H]c1c([H])c([H])c2c(c1[H])C([H])([H])C([H])([H])C([H])([H])C2([H])N([H])C(=O)C1([H])N(C(=O)C([H])(N([H])C(=O)C([H])(N([H])C([H])([H])[H])C([H])([H])[H])C(C([H])([H])[H])(C([H])([H])[H])C([H])([H])[H])C([H])([H])c2c([H])c(OC([H])([H])C(=O)N([H])C([H])(C(=O)C([H])([H])N([H])C(=O)N3C([H])([H])C([H])([H])C([H])([H])C([H])(n4nc(-c5c([H])c([H])c(Oc6c([H])c([H])c(F)c([H])c6F)c([H])c5[H])c(C(=O)N([H])[H])c4N([H])[H])C3([H])[H])C([H])([H])C([H])([H])C([H])(C([H])([H])[H])[N+]([H])([H])[H])c([H])c([H])c2C1([H])[H]

$$$$
17:0:0
     RDKit          3D

108115  0  0  1  0  0  0  0  0999 V2000
  -30.0610  -19.4470   21.1730 C   0  0  0  0  0  3  0  0  0  0  0  0
  -29.4820  -20.9350   20.6060 C   0  0  0  0  0  2  0  0  0  0  0  0
  -29.5680  -22.4240   21.3770 C   0  0  0  0  0  2  0  0  0  0  0  0
  -29.4510  -23.9320   20.6390 C   0  0  0  0  0  3  0  0  0  0  0  0
  -28.9270  -25.3470   21.3740 C   0  0  0  0  0  3  0  0  0  0  0  0
  -29.0690  -26.7950   20.8510 O   0  0  0  0  0  0  0  0  0  0  0  0
  -24.9230  -32.1970   23.6460 C   0  0  0  0  0  0  0  0  0  0  0  0
  -27.9450  -27.6830   20.7700 C   0  0  0  0  0  0  0  0  0  0  0  0
  -23.9050  -30.7410   21.9370 C   0  0  0  0  0  3  0  0  0  0  0  0
  -25.5240  -29.2650   20.5980 C   0  0  0  0  0  0  0  0  0  0  0  0
  -26.4400  -31.1660   21.9190 C   0  0  0  0  0  2  0  0  0  0  0  0
  -26.6350  -29.7830   21.2750 C   0  0  0  0  0  0  0  0  0  0  0  0
  -27.8490  -29.0100   21.3410 C   0  0  0  0  0  3  0  0  0  0  0  0
  -26.8090  -27.2540   20.0520 C   0  0  0  0  0  3  0  0  0  0  0  0
  -25.6210  -28.0150   19.9680 C   0  0  0  0  0  3  0  0  0  0  0  0
  -24.2460  -30.0880   20.5720 C   0  0  0  0  0  2  0  0  0  0  0  0
  -25.1060  -31.3860   22.5600 N   0  0  0  0  0  0  0  0  0  0  0  0
  -23.7930  -32.4130   24.1090 O   0  0  0  0  0  0  0  0  0  0  0  0
  -23.2320  -29.6890   22.8530 C   0  0  0  0  0  0  0  0  0  0  0  0
  -21.9370  -29.4170   22.6210 N   0  0  0  0  0  0  0  0  0  0  0  0
  -23.8820  -29.1220   23.7340 O   0  0  0  0  0  0  0  0  0  0  0  0
  -21.4660  -29.9300   21.8870 H   0  0  0  0  0  0  0  0  0  0  0  0
  -18.6170  -27.9970   22.8920 C   0  0  0  0  0  0  0  0  0  0  0  0
  -21.1270  -28.4260   23.3340 C   0  0  0  0  0  3  0  0  0  0  0  0
  -21.3650  -27.0070   22.7710 C   0  0  0  0  0  2  0  0  0  0  0  0
  -20.3600  -26.6080   21.6860 C   0  0  0  0  0  2  0  0  0  0  0  0
  -18.9300  -26.6630   22.2350 C   0  0  0  0  0  2  0  0  0  0  0  0
  -19.6520  -28.8290   23.3970 C   0  0  0  0  0  0  0  0  0  0  0  0
  -19.3100  -30.0710   23.9750 C   0  0  0  0  0  3  0  0  0  0  0  0
  -17.9670  -30.4830   24.0590 C   0  0  0  0  0  3  0  0  0  0  0  0
  -16.9460  -29.6460   23.5780 C   0  0  0  0  0  3  0  0  0  0  0  0
  -17.2710  -28.4070   22.9950 C   0  0  0  0  0  3  0  0  0  0  0  0
  -26.1230  -32.9050   24.3470 C   0  0  0  0  0  3  0  0  0  0  0  0
  -26.5740  -32.1910   25.6800 C   0  0  1  0  0  0  0  0  0  0  0  0
  -25.3990  -31.8470   26.6260 C   0  0  0  0  0  1  0  0  0  0  0  0
  -27.3310  -30.8780   25.3760 C   0  0  0  0  0  1  0  0  0  0  0  0
  -27.5610  -33.0970   26.4530 C   0  0  0  0  0  1  0  0  0  0  0  0
  -25.7240  -34.2960   24.6170 N   0  0  0  0  0  0  0  0  0  0  0  0
  -26.0480  -35.3440   23.8480 C   0  0  0  0  0  0  0  0  0  0  0  0
  -26.7770  -35.2470   22.8590 O   0  0  0  0  0  0  0  0  0  0  0  0
  -25.0780  -34.4380   25.3790 H   0  0  0  0  0  0  0  0  0  0  0  0
  -24.2640  -37.0500   23.3630 C   0  0  0  0  0  1  0  0  0  0  0  0
  -25.4760  -36.7190   24.2450 C   0  0  0  0  0  3  0  0  0  0  0  0
  -27.5210  -37.7300   25.1580 C   0  0  0  0  0  1  0  0  0  0  0  0
  -26.4630  -37.8160   24.1550 N   0  0  0  0  0  0  0  0  0  0  0  0
  -26.0070  -38.7170   24.2610 H   0  0  0  0  0  0  0  0  0  0  0  0
  -31.6100  -19.5580   21.3150 C   0  0  0  0  0  2  0  0  0  0  0  0
  -33.5110  -18.1220   20.4210 C   0  0  0  0  0  1  0  0  0  0  0  0
  -32.4460  -19.1800   20.0460 C   0  0  0  0  0  3  0  0  0  0  0  0
  -33.0580  -20.3960   19.2630 C   0  0  0  0  0  3  0  0  0  0  0  0
  -35.2990  -21.3170   19.9980 C   0  0  0  0  0  0  0  0  0  0  0  0
  -34.5160  -20.4020   19.4110 N   0  0  0  0  0  0  0  0  0  0  0  0
  -34.8380  -22.3400   20.5080 O   0  0  0  0  0  0  0  0  0  0  0  0
  -34.9890  -19.6010   19.0240 H   0  0  0  0  0  0  0  0  0  0  0  0
  -36.8350  -21.0310   19.9860 C   0  0  2  0  0  0  0  0  0  0  0  0
  -36.8660  -19.5750   22.1910 C   0  0  0  0  0  1  0  0  0  0  0  0
  -37.1280  -19.6600   20.6780 C   0  0  0  0  0  2  0  0  0  0  0  0
  -39.1300  -22.0500   20.7850 C   0  0  0  0  0  1  0  0  0  0  0  0
  -37.5960  -22.1820   20.7180 C   0  0  0  0  0  2  0  0  0  0  0  0
  -37.1930  -22.1570   17.6190 C   0  0  0  0  0  1  0  0  0  0  0  0
  -37.3210  -20.9050   18.5080 C   0  0  0  0  0  2  0  0  0  0  0  0
  -33.4110  -21.6620   17.0740 C   0  0  0  0  0  1  0  0  0  0  0  0
  -33.1400  -19.1880   16.9700 C   0  0  0  0  0  1  0  0  0  0  0  0
  -31.1850  -20.6590   17.5110 C   0  0  0  0  0  1  0  0  0  0  0  0
  -32.6990  -20.4580   17.7310 C   0  0  1  0  0  0  0  0  0  0  0  0
  -29.6660  -17.9490   20.4840 C   0  0  0  0  0  3  0  0  0  0  0  0
  -30.5540  -15.4490   21.1460 C   0  0  0  0  0  0  0  0  0  0  0  0
  -30.6650  -13.0580   20.3640 C   0  0  0  0  0  2  0  0  0  0  0  0
  -29.9030  -12.9340   19.0240 C   0  0  0  0  0  2  0  0  0  0  0  0
  -28.4090  -12.6670   19.2790 C   0  0  0  0  0  2  0  0  0  0  0  0
  -27.8130  -13.6110   20.3570 C   0  0  0  0  0  3  0  0  0  0  0  0
  -28.7130  -13.7290   21.6090 C   0  0  0  0  0  2  0  0  0  0  0  0
  -30.0390  -14.1600   21.1510 N   0  0  0  0  0  0  0  0  0  0  0  0
  -31.7470  -15.5820   20.8660 O   0  0  0  0  0  0  0  0  0  0  0  0
  -29.6940  -16.5680   21.2390 N   0  0  0  0  0  0  0  0  0  0  0  0
  -28.7940  -16.3140   21.6180 H   0  0  0  0  0  0  0  0  0  0  0  0
  -25.3280  -14.0680   20.7800 C   0  0  0  0  0  0  0  0  0  0  0  0
  -24.2700  -13.2390   21.0410 C   0  0  0  0  0  0  0  0  0  0  0  0
  -24.8090  -11.9160   21.0960 C   0  0  0  0  0  0  0  0  0  0  0  0
  -26.4400  -13.2480   20.6910 N   0  0  0  0  0  0  0  0  0  0  0  0
  -26.1270  -11.9510   20.9450 N   0  0  0  0  0  0  0  0  0  0  0  0
  -24.1350  -10.6180   21.2260 C   0  0  0  0  0  0  0  0  0  0  0  0
  -24.5140   -9.6840   22.2150 C   0  0  0  0  0  3  0  0  0  0  0  0
  -23.8340   -8.4530   22.3330 C   0  0  0  0  0  3  0  0  0  0  0  0
  -22.7620   -8.1460   21.4630 C   0  0  0  0  0  0  0  0  0  0  0  0
  -22.4040   -9.0700   20.4650 C   0  0  0  0  0  3  0  0  0  0  0  0
  -23.0850  -10.2930   20.3440 C   0  0  0  0  0  3  0  0  0  0  0  0
  -22.0630   -6.9630   21.4870 O   0  0  0  0  0  0  0  0  0  0  0  0
  -21.9150   -6.2370   22.6410 C   0  0  0  0  0  0  0  0  0  0  0  0
  -21.2540   -6.7620   23.7730 C   0  0  0  0  0  3  0  0  0  0  0  0
  -21.0640   -5.9580   24.9140 C   0  0  0  0  0  3  0  0  0  0  0  0
  -21.5260   -4.6280   24.9240 C   0  0  0  0  0  0  0  0  0  0  0  0
  -22.1800   -4.1020   23.7960 C   0  0  0  0  0  3  0  0  0  0  0  0
  -22.3710   -4.9040   22.6580 C   0  0  0  0  0  0  0  0  0  0  0  0
  -22.9840   -4.3840   21.5670 F   0  0  0  0  0  0  0  0  0  0  0  0
  -21.3360   -3.8530   26.0160 F   0  0  0  0  0  0  0  0  0  0  0  0
  -22.8280  -13.6420   21.1370 C   0  0  0  0  0  0  0  0  0  0  0  0
  -22.0470  -12.9270   21.9370 N   0  0  0  0  0  0  0  0  0  0  0  0
  -22.3990  -14.6250   20.5350 O   0  0  0  0  0  0  0  0  0  0  0  0
  -22.4060  -12.1300   22.4430 H   0  0  0  0  0  0  0  0  0  0  0  0
  -21.0770  -13.1820   22.0500 H   0  0  0  0  0  0  0  0  0  0  0  0
  -25.4330  -15.4420   20.5910 N   0  0  0  0  0  0  0  0  0  0  0  0
  -24.6160  -16.0420   20.5780 H   0  0  0  0  0  0  0  0  0  0  0  0
  -26.2830  -15.9270   20.3340 H   0  0  0  0  0  0  0  0  0  0  0  0
  -28.2410  -18.0190   19.8740 C   0  0  0  0  0  2  0  0  0  0  0  0
  -26.8540  -16.7800   18.1410 C   0  0  0  0  0  1  0  0  0  0  0  0
  -28.2150  -18.7810   17.4420 C   0  0  0  0  0  1  0  0  0  0  0  0
  -28.1400  -17.5770   18.3950 C   0  0  0  0  0  3  0  0  0  0  0  0
  1  2  1  0
  1 47  1  0
  2  3  1  0
  4  5  2  0
  4  3  1  0
  6  5  1  0
  7 18  2  0
  8  6  1  0
  8 13  1  0
  9 17  1  0
  9 19  1  0
 10 12  1  0
 11 17  1  0
 12 13  2  0
 12 11  1  0
 14  8  2  0
 15 14  1  0
 15 10  2  0
 16 10  1  0
 16  9  1  0
 17  7  1  0
 19 21  2  0
 20 19  1  0
 22 20  1  0
 23 32  2  0
 23 28  1  0
 24 20  1  0
 24 28  1  0
 25 24  1  0
 26 27  1  0
 26 25  1  0
 27 23  1  0
 28 29  2  0
 29 30  1  0
 31 30  2  0
 32 31  1  0
 33  7  1  0
 33 38  1  0
 33 34  1  0
 34 37  1  1
 34 35  1  0
 36 34  1  0
 38 41  1  0
 39 43  1  0
 39 38  1  0
 40 39  2  0
 43 42  1  0
 45 43  1  0
 45 46  1  0
 45 44  1  0
 49 48  1  0
 49 47  1  0
 50 65  1  0
 50 52  1  0
 50 49  1  0
 51 53  2  0
 52 51  1  0
 54 52  1  0
 55 51  1  0
 55 57  1  1
 55 59  1  0
 57 56  1  0
 59 58  1  0
 60 61  1  0
 61 55  1  0
 65 62  1  6
 63 65  1  0
 64 65  1  0
 66105  1  0
 66  1  1  0
 66 75  1  0
 67 73  1  0
 67 75  1  0
 68 73  1  0
 69 70  1  0
 69 68  1  0
 71 70  1  0
 71 80  1  0
 71 72  1  0
 73 72  1  0
 74 67  2  0
 75 76  1  0
 77 78  2  0
 78 79  1  0
 78 97  1  0
 79 82  1  0
 80 77  1  0
 80 81  1  0
 81 79  2  0
 82 83  1  0
 83 84  2  0
 85 88  1  0
 85 84  1  0
 86 85  2  0
 87 86  1  0
 87 82  2  0
 88 89  1  0
 89 94  2  0
 89 90  1  0
 90 91  2  0
 91 92  1  0
 92 96  1  0
 93 92  2  0
 94 93  1  0
 95 94  1  0
 97 98  1  0
 98101  1  0
 98100  1  0
 99 97  2  0
102 77  1  0
103102  1  0
104102  1  0
106108  1  0
107108  1  0
108105  1  0
M  ISO  4   5 101   6 101  67 100  75 100
M  END
>  <TORSDO>  (18) 
F 32

>  <SCORE>  (18) 
-9.295

>  <name>  (18) 
17

>  <ligand_id>  (18) 
17

>  <original_smiles>  (18) 
[H]c1c([H])c([H])c2c(c1[H])C([H])([H])C([H])([H])C([H])([H])C2([H])N([H])C(=O)C1([H])N(C(=O)C([H])(N([H])C(=O)C([H])(N([H])C([H])([H])[H])C([H])([H])[H])C(C([H])([H])[H])(C([H])([H])[H])C([H])([H])[H])C([H])([H])c2c([H])c(OC([H])([H])C([H])([H])C([H])([H])C([H])([H])C([H])(C([H])([H])C([H])(C([H])([H])[H])C([H])(N([H])C(=O)C(C([H])([H])C([H])([H])[H])(C([H])([H])C([H])([H])[H])C([H])([H])C([H])([H])[H])C(C([H])([H])[H])(C([H])([H])[H])C([H])([H])[H])C([H])(N([H])C(=O)N3C([H])([H])C([H])([H])C([H])([H])C([H])(n4nc(-c5c([H])c([H])c(Oc6c([H])c([H])c(F)c([H])c6F)c([H])c5[H])c(C(=O)N([H])[H])c4N([H])[H])C3([H])[H])C([H])([H])C([H])(C([H])([H])[H])C([H])([H])[H])c([H])c([H])c2C1([H])[H]

>  <smiles>  (18) 
[H]c1c([H])c([H])c2c(c1[H])C([H])([H])C([H])([H])C([H])([H])C2([H])N([H])C(=O)C1([H])N(C(=O)C([H])(N([H])C(=O)C([H])(N([H])C([H])([H])[H])C([H])([H])[H])C(C([H])([H])[H])(C([H])([H])[H])C([H])([H])[H])C([H])([H])c2c([H])c(OC([H])([H])C([H])([H])C([H])([H])C([H])([H])C([H])(C([H])([H])C([H])(C([H])([H])[H])C([H])(N([H])C(=O)C(C([H])([H])C([H])([H])[H])(C([H])([H])C([H])([H])[H])C([H])([H])C([H])([H])[H])C(C([H])([H])[H])(C([H])([H])[H])C([H])([H])[H])C([H])(N([H])C(=O)N3C([H])([H])C([H])([H])C([H])([H])C([H])(n4nc(-c5c([H])c([H])c(Oc6c([H])c([H])c(F)c([H])c6F)c([H])c5[H])c(C(=O)N([H])[H])c4N([H])[H])C3([H])[H])C([H])([H])C([H])(C([H])([H])[H])C([H])([H])[H])c([H])c([H])c2C1([H])[H]

$$$$
18:0:0
     RDKit          3D

 94102  0  0  1  0  0  0  0  0999 V2000
  -29.4380  -19.0210   20.3560 C   0  0  0  0  0  0  0  0  0  0  0  0
  -30.6730  -21.2050   17.9890 C   0  0  0  0  0  2  0  0  0  0  0  0
  -29.5880  -22.1780   18.3560 C   0  0  0  0  0  2  0  0  0  0  0  0
  -31.0440  -20.5240   19.2840 C   0  0  0  0  0  2  0  0  0  0  0  0
  -29.0020  -21.7400   19.7260 C   0  0  0  0  0  3  0  0  0  0  0  0
  -29.8160  -20.3870   20.0740 N   0  0  0  0  0  0  0  0  0  0  0  0
  -28.2340  -18.7620   20.3690 O   0  0  0  0  0  0  0  0  0  0  0  0
  -30.5680  -17.9050   22.3150 C   0  0  0  0  0  1  0  0  0  0  0  0
  -31.8770  -17.7650   20.2950 C   0  0  0  0  0  1  0  0  0  0  0  0
  -30.4140  -17.7060   20.7880 C   0  0  2  0  0  0  0  0  0  0  0  0
  -30.6170  -14.9670   20.2950 C   0  0  0  0  0  0  0  0  0  0  0  0
  -30.4230  -12.6350   19.3320 C   0  0  0  0  0  2  0  0  0  0  0  0
  -29.4850  -12.5790   18.1070 C   0  0  0  0  0  2  0  0  0  0  0  0
  -28.0430  -12.3230   18.5760 C   0  0  0  0  0  2  0  0  0  0  0  0
  -27.6310  -13.2890   19.7170 C   0  0  0  0  0  3  0  0  0  0  0  0
  -28.6830  -13.3660   20.8420 C   0  0  0  0  0  2  0  0  0  0  0  0
  -29.9580  -13.7420   20.2230 N   0  0  0  0  0  0  0  0  0  0  0  0
  -31.8010  -14.9380   19.9470 O   0  0  0  0  0  0  0  0  0  0  0  0
  -29.9420  -16.1950   20.5810 N   0  0  0  0  0  0  0  0  0  0  0  0
  -28.9540  -16.0790   20.7690 H   0  0  0  0  0  0  0  0  0  0  0  0
  -25.2690  -13.8680   20.5110 C   0  0  0  0  0  0  0  0  0  0  0  0
  -24.2140  -13.0900   20.9100 C   0  0  0  0  0  0  0  0  0  0  0  0
  -24.6760  -11.7380   20.8470 C   0  0  0  0  0  0  0  0  0  0  0  0
  -26.3020  -12.9870   20.2390 N   0  0  0  0  0  0  0  0  0  0  0  0
  -25.9590  -11.7030   20.5080 N   0  0  0  0  0  0  0  0  0  0  0  0
  -23.9500  -10.4750   21.0300 C   0  0  0  0  0  0  0  0  0  0  0  0
  -24.3770   -9.5090   21.9680 C   0  0  0  0  0  3  0  0  0  0  0  0
  -23.6560   -8.3080   22.1370 C   0  0  0  0  0  3  0  0  0  0  0  0
  -22.4930   -8.0650   21.3660 C   0  0  0  0  0  0  0  0  0  0  0  0
  -22.0830   -9.0200   20.4180 C   0  0  0  0  0  3  0  0  0  0  0  0
  -22.8050  -10.2120   20.2500 C   0  0  0  0  0  3  0  0  0  0  0  0
  -21.7420   -6.9210   21.4450 O   0  0  0  0  0  0  0  0  0  0  0  0
  -21.6390   -6.2000   22.6070 C   0  0  0  0  0  0  0  0  0  0  0  0
  -21.0970   -6.7610   23.7830 C   0  0  0  0  0  3  0  0  0  0  0  0
  -20.9530   -5.9650   24.9380 C   0  0  0  0  0  3  0  0  0  0  0  0
  -21.3350   -4.6120   24.9100 C   0  0  0  0  0  0  0  0  0  0  0  0
  -21.8680   -4.0510   23.7360 C   0  0  0  0  0  3  0  0  0  0  0  0
  -22.0170   -4.8430   22.5850 C   0  0  0  0  0  0  0  0  0  0  0  0
  -22.5130   -4.2920   21.4510 F   0  0  0  0  0  0  0  0  0  0  0  0
  -21.1850   -3.8450   26.0170 F   0  0  0  0  0  0  0  0  0  0  0  0
  -22.8250  -13.5620   21.2170 C   0  0  0  0  0  0  0  0  0  0  0  0
  -22.1020  -12.8570   22.0810 N   0  0  0  0  0  0  0  0  0  0  0  0
  -22.3820  -14.6060   20.7280 O   0  0  0  0  0  0  0  0  0  0  0  0
  -22.4720  -12.0210   22.5090 H   0  0  0  0  0  0  0  0  0  0  0  0
  -21.1740  -13.1610   22.3310 H   0  0  0  0  0  0  0  0  0  0  0  0
  -25.4300  -15.2380   20.3230 N   0  0  0  0  0  0  0  0  0  0  0  0
  -24.6440  -15.8800   20.3760 H   0  0  0  0  0  0  0  0  0  0  0  0
  -26.2030  -15.6170   19.7870 H   0  0  0  0  0  0  0  0  0  0  0  0
  -27.8200  -22.9170   21.7600 C   0  0  0  0  0  1  0  0  0  0  0  0
  -28.8420  -23.1990   20.6310 C   0  0  1  0  0  0  0  0  0  0  0  0
  -31.1400  -24.4720   20.7330 C   0  0  0  0  0  1  0  0  0  0  0  0
  -30.1960  -23.4410   21.3620 C   0  0  0  0  0  2  0  0  0  0  0  0
  -28.2400  -24.6430   19.8920 C   0  0  0  0  0  2  0  0  0  0  0  0
  -28.2600  -26.1510   20.3440 O   0  0  0  0  0  0  0  0  0  0  0  0
  -24.6000  -31.8600   23.2210 C   0  0  0  0  0  0  0  0  0  0  0  0
  -27.2010  -27.1350   20.1920 C   0  0  0  0  0  0  0  0  0  0  0  0
  -23.4110  -30.4720   21.5700 C   0  0  0  0  0  3  0  0  0  0  0  0
  -24.8690  -28.9060   20.1380 C   0  0  0  0  0  0  0  0  0  0  0  0
  -25.9670  -30.7320   21.4220 C   0  0  0  0  0  2  0  0  0  0  0  0
  -26.0450  -29.3420   20.7600 C   0  0  0  0  0  0  0  0  0  0  0  0
  -27.2060  -28.4760   20.7680 C   0  0  0  0  0  3  0  0  0  0  0  0
  -26.0050  -26.8170   19.5070 C   0  0  0  0  0  3  0  0  0  0  0  0
  -24.8680  -27.6620   19.4870 C   0  0  0  0  0  3  0  0  0  0  0  0
  -23.6410  -29.8080   20.1880 C   0  0  0  0  0  2  0  0  0  0  0  0
  -24.6780  -31.0420   22.1260 N   0  0  0  0  0  0  0  0  0  0  0  0
  -23.5110  -32.1420   23.7450 O   0  0  0  0  0  0  0  0  0  0  0  0
  -22.7280  -29.4570   22.5220 C   0  0  0  0  0  0  0  0  0  0  0  0
  -21.4010  -29.2810   22.3810 N   0  0  0  0  0  0  0  0  0  0  0  0
  -23.3940  -28.8310   23.3500 O   0  0  0  0  0  0  0  0  0  0  0  0
  -20.9200  -29.8340   21.6870 H   0  0  0  0  0  0  0  0  0  0  0  0
  -18.0170  -28.0720   22.8480 C   0  0  0  0  0  0  0  0  0  0  0  0
  -20.5730  -28.3400   23.1420 C   0  0  0  0  0  3  0  0  0  0  0  0
  -20.6850  -26.9100   22.5620 C   0  0  0  0  0  2  0  0  0  0  0  0
  -19.5930  -26.5890   21.5370 C   0  0  0  0  0  2  0  0  0  0  0  0
  -18.2040  -26.7290   22.1670 C   0  0  0  0  0  2  0  0  0  0  0  0
  -19.1290  -28.8370   23.2930 C   0  0  0  0  0  0  0  0  0  0  0  0
  -18.9010  -30.0950   23.8910 C   0  0  0  0  0  3  0  0  0  0  0  0
  -17.5920  -30.5890   24.0470 C   0  0  0  0  0  3  0  0  0  0  0  0
  -16.4940  -29.8210   23.6210 C   0  0  0  0  0  3  0  0  0  0  0  0
  -16.7080  -28.5640   23.0280 C   0  0  0  0  0  3  0  0  0  0  0  0
  -25.8710  -32.4970   23.8600 C   0  0  0  0  0  3  0  0  0  0  0  0
  -26.3640  -31.7350   25.1520 C   0  0  1  0  0  0  0  0  0  0  0  0
  -25.2580  -31.5130   26.2120 C   0  0  0  0  0  1  0  0  0  0  0  0
  -26.9410  -30.3500   24.7820 C   0  0  0  0  0  1  0  0  0  0  0  0
  -27.5150  -32.5280   25.8160 C   0  0  0  0  0  1  0  0  0  0  0  0
  -25.5610  -33.9000   24.1790 N   0  0  0  0  0  0  0  0  0  0  0  0
  -25.9040  -34.9490   23.4220 C   0  0  0  0  0  0  0  0  0  0  0  0
  -26.5810  -34.8390   22.3940 O   0  0  0  0  0  0  0  0  0  0  0  0
  -24.9600  -34.0590   24.9730 H   0  0  0  0  0  0  0  0  0  0  0  0
  -24.1890  -36.7540   23.0470 C   0  0  0  0  0  1  0  0  0  0  0  0
  -25.4210  -36.3440   23.8710 C   0  0  0  0  0  3  0  0  0  0  0  0
  -27.5480  -37.2220   24.7280 C   0  0  0  0  0  1  0  0  0  0  0  0
  -26.4620  -37.3910   23.7660 N   0  0  0  0  0  0  0  0  0  0  0  0
  -26.0600  -38.3140   23.9070 H   0  0  0  0  0  0  0  0  0  0  0  0
  1  7  2  0
  1 10  1  0
  2  3  1  0
  2  4  1  0
  3  5  1  0
  4  6  1  0
  5  6  1  0
  5 50  1  0
  6  1  1  0
 10  9  1  6
 10  8  1  0
 11 19  1  0
 12 17  1  0
 13 14  1  0
 13 12  1  0
 15 14  1  0
 15 24  1  0
 15 16  1  0
 17 11  1  0
 17 16  1  0
 18 11  2  0
 19 20  1  0
 19 10  1  0
 21 22  2  0
 22 41  1  0
 23 22  1  0
 23 26  1  0
 24 25  1  0
 24 21  1  0
 25 23  2  0
 26 27  1  0
 27 28  2  0
 29 32  1  0
 29 28  1  0
 30 29  2  0
 31 30  1  0
 31 26  2  0
 32 33  1  0
 33 34  1  0
 34 35  2  0
 36 35  1  0
 36 40  1  0
 37 36  2  0
 38 33  2  0
 38 37  1  0
 39 38  1  0
 41 42  1  0
 42 45  1  0
 42 44  1  0
 43 41  2  0
 46 47  1  0
 46 21  1  0
 48 46  1  0
 50 52  1  0
 50 49  1  1
 51 52  1  0
 53 54  1  0
 53 50  1  0
 55 66  2  0
 56 54  1  0
 56 61  1  0
 57 65  1  0
 57 67  1  0
 58 64  1  0
 58 60  1  0
 59 65  1  0
 60 61  2  0
 60 59  1  0
 62 56  2  0
 63 62  1  0
 63 58  2  0
 64 57  1  0
 65 55  1  0
 67 69  2  0
 68 67  1  0
 70 68  1  0
 71 80  2  0
 71 76  1  0
 72 68  1  0
 72 76  1  0
 73 72  1  0
 74 75  1  0
 74 73  1  0
 75 71  1  0
 76 77  2  0
 77 78  1  0
 79 78  2  0
 80 79  1  0
 81 55  1  0
 81 86  1  0
 81 82  1  0
 82 85  1  1
 82 83  1  0
 84 82  1  0
 86 89  1  0
 87 91  1  0
 87 86  1  0
 88 87  2  0
 91 90  1  0
 93 91  1  0
 93 94  1  0
 93 92  1  0
M  ISO  4  11 100  19 100  53 101  54 101
M  END
>  <TORSDO>  (19) 
F 20

>  <SCORE>  (19) 
-15.115

>  <name>  (19) 
18

>  <ligand_id>  (19) 
18

>  <original_smiles>  (19) 
[H]c1c([H])c([H])c2c(c1[H])C([H])([H])C([H])([H])C([H])([H])C2([H])N([H])C(=O)C1([H])N(C(=O)C([H])(N([H])C(=O)C([H])(N([H])C([H])([H])[H])C([H])([H])[H])C(C([H])([H])[H])(C([H])([H])[H])C([H])([H])[H])C([H])([H])c2c([H])c(OC([H])([H])C(C([H])([H])[H])(C([H])([H])C([H])([H])[H])C3([H])N(C(=O)C(N([H])C(=O)N4C([H])([H])C([H])([H])C([H])([H])C([H])(n5nc(-c6c([H])c([H])c(Oc7c([H])c([H])c(F)c([H])c7F)c([H])c6[H])c(C(=O)N([H])[H])c5N([H])[H])C4([H])[H])(C([H])([H])[H])C([H])([H])[H])C([H])([H])C([H])([H])C3([H])[H])c([H])c([H])c2C1([H])[H]

>  <smiles>  (19) 
[H]c1c([H])c([H])c2c(c1[H])C([H])([H])C([H])([H])C([H])([H])C2([H])N([H])C(=O)C1([H])N(C(=O)C([H])(N([H])C(=O)C([H])(N([H])C([H])([H])[H])C([H])([H])[H])C(C([H])([H])[H])(C([H])([H])[H])C([H])([H])[H])C([H])([H])c2c([H])c(OC([H])([H])C(C([H])([H])[H])(C([H])([H])C([H])([H])[H])C3([H])N(C(=O)C(N([H])C(=O)N4C([H])([H])C([H])([H])C([H])([H])C([H])(n5nc(-c6c([H])c([H])c(Oc7c([H])c([H])c(F)c([H])c7F)c([H])c6[H])c(C(=O)N([H])[H])c5N([H])[H])C4([H])[H])(C([H])([H])[H])C([H])([H])[H])C([H])([H])C([H])([H])C3([H])[H])c([H])c([H])c2C1([H])[H]

$$$$
19:0:0
     RDKit          3D

113120  0  0  1  0  0  0  0  0999 V2000
  -32.1920  -21.1150   18.8260 C   0  0  0  0  0  0  0  0  0  0  0  0
  -32.2390  -21.0750   20.1680 N   0  0  0  0  0  0  0  0  0  0  0  0
  -32.8970  -20.4120   18.0970 O   0  0  0  0  0  0  0  0  0  0  0  0
  -31.6310  -21.7000   20.6660 H   0  0  0  0  0  0  0  0  0  0  0  0
  -32.8970  -20.0570   20.9870 C   0  0  0  0  0  3  0  0  0  0  0  0
  -35.1000  -21.2940   20.5070 C   0  0  0  0  0  1  0  0  0  0  0  0
  -34.1990  -21.3780   22.8070 C   0  0  0  0  0  1  0  0  0  0  0  0
  -35.1290  -19.2360   21.8910 C   0  0  0  0  0  1  0  0  0  0  0  0
  -34.2980  -20.4930   21.5530 C   0  0  1  0  0  0  0  0  0  0  0  0
  -31.8810  -19.4520   22.0120 C   0  0  0  0  0  2  0  0  0  0  0  0
  -30.5300  -20.1640   22.3390 C   0  0  0  0  0  2  0  0  0  0  0  0
  -30.5330  -21.3160   23.3770 C   0  0  0  0  0  2  0  0  0  0  0  0
  -30.6170  -22.7490   22.8090 C   0  0  0  0  0  2  0  0  0  0  0  0
  -29.3220  -23.2600   22.3020 N   0  0  0  0  0  4  0  0  0  0  0  0
  -28.6720  -23.3010   23.0740 H   0  0  0  0  0  0  0  0  0  0  0  0
  -28.9370  -22.6100   21.6350 H   0  0  0  0  0  0  0  0  0  0  0  0
  -29.4110  -24.6170   21.6980 C   0  0  0  0  0  2  0  0  0  0  0  0
  -28.1590  -25.0130   20.9020 C   0  0  0  0  0  2  0  0  0  0  0  0
  -28.3800  -26.3120   20.3460 O   0  0  0  0  0  0  0  0  0  0  0  0
  -24.6240  -31.6030   23.1680 C   0  0  0  0  0  0  0  0  0  0  0  0
  -27.2470  -27.0780   20.2500 C   0  0  0  0  0  0  0  0  0  0  0  0
  -23.4370  -30.2130   21.5040 C   0  0  0  0  0  3  0  0  0  0  0  0
  -24.8990  -28.6280   20.1400 C   0  0  0  0  0  0  0  0  0  0  0  0
  -25.9750  -30.5180   21.3790 C   0  0  0  0  0  2  0  0  0  0  0  0
  -26.0480  -29.1410   20.7540 C   0  0  0  0  0  0  0  0  0  0  0  0
  -27.2330  -28.3780   20.7960 C   0  0  0  0  0  3  0  0  0  0  0  0
  -26.0890  -26.5710   19.6220 C   0  0  0  0  0  3  0  0  0  0  0  0
  -24.9160  -27.3450   19.5590 C   0  0  0  0  0  3  0  0  0  0  0  0
  -23.6720  -29.5100   20.1400 C   0  0  0  0  0  2  0  0  0  0  0  0
  -24.6970  -30.7930   22.0740 N   0  0  0  0  0  0  0  0  0  0  0  0
  -23.5320  -31.9070   23.6670 O   0  0  0  0  0  0  0  0  0  0  0  0
  -22.7310  -29.2180   22.4540 C   0  0  0  0  0  0  0  0  0  0  0  0
  -21.4040  -29.0820   22.2980 N   0  0  0  0  0  0  0  0  0  0  0  0
  -23.3730  -28.5710   23.2860 O   0  0  0  0  0  0  0  0  0  0  0  0
  -20.9510  -29.6500   21.5960 H   0  0  0  0  0  0  0  0  0  0  0  0
  -17.9750  -28.0410   22.7440 C   0  0  0  0  0  0  0  0  0  0  0  0
  -20.5370  -28.1810   23.0530 C   0  0  0  0  0  3  0  0  0  0  0  0
  -20.5830  -26.7480   22.4730 C   0  0  0  0  0  2  0  0  0  0  0  0
  -19.4800  -26.4790   21.4430 C   0  0  0  0  0  2  0  0  0  0  0  0
  -18.0980  -26.6870   22.0670 C   0  0  0  0  0  2  0  0  0  0  0  0
  -19.1200  -28.7510   23.1910 C   0  0  0  0  0  0  0  0  0  0  0  0
  -18.9480  -30.0240   23.7780 C   0  0  0  0  0  3  0  0  0  0  0  0
  -17.6650  -30.5820   23.9240 C   0  0  0  0  0  3  0  0  0  0  0  0
  -16.5340  -29.8690   23.4910 C   0  0  0  0  0  3  0  0  0  0  0  0
  -16.6900  -28.5990   22.9060 C   0  0  0  0  0  3  0  0  0  0  0  0
  -25.9060  -32.2080   23.8240 C   0  0  0  0  0  3  0  0  0  0  0  0
  -26.3840  -31.4200   25.1040 C   0  0  1  0  0  0  0  0  0  0  0  0
  -25.2670  -31.1960   26.1500 C   0  0  0  0  0  1  0  0  0  0  0  0
  -26.9460  -30.0330   24.7110 C   0  0  0  0  0  1  0  0  0  0  0  0
  -27.5350  -32.1890   25.7940 C   0  0  0  0  0  1  0  0  0  0  0  0
  -25.6120  -33.6090   24.1540 N   0  0  0  0  0  0  0  0  0  0  0  0
  -25.9750  -34.6580   23.4030 C   0  0  0  0  0  0  0  0  0  0  0  0
  -26.6610  -34.5480   22.3840 O   0  0  0  0  0  0  0  0  0  0  0  0
  -25.0060  -33.7700   24.9450 H   0  0  0  0  0  0  0  0  0  0  0  0
  -24.2750  -36.4730   23.0270 C   0  0  0  0  0  1  0  0  0  0  0  0
  -25.4970  -36.0520   23.8580 C   0  0  0  0  0  3  0  0  0  0  0  0
  -27.6300  -36.9050   24.7250 C   0  0  0  0  0  1  0  0  0  0  0  0
  -26.5440  -37.0910   23.7660 N   0  0  0  0  0  0  0  0  0  0  0  0
  -26.1460  -38.0160   23.9090 H   0  0  0  0  0  0  0  0  0  0  0  0
  -31.1290  -22.0450   18.2060 C   0  0  0  0  0  3  0  0  0  0  0  0
  -30.3420  -21.3610   17.1420 N   0  0  0  0  0  4  0  0  0  0  0  0
  -29.6020  -21.9710   16.8390 H   0  0  0  0  0  0  0  0  0  0  0  0
  -30.9580  -21.2390   16.3530 H   0  0  0  0  0  0  0  0  0  0  0  0
  -29.7610  -20.0170   17.4330 C   0  0  0  0  0  2  0  0  0  0  0  0
  -28.9180  -19.9250   18.7310 C   0  0  0  0  0  2  0  0  0  0  0  0
  -28.2560  -18.5490   18.9620 C   0  0  0  0  0  2  0  0  0  0  0  0
  -29.2000  -17.3590   19.2310 C   0  0  0  0  0  2  0  0  0  0  0  0
  -29.7120  -17.2270   20.6920 C   0  0  0  0  0  2  0  0  0  0  0  0
  -30.5760  -14.8840   20.7900 C   0  0  0  0  0  0  0  0  0  0  0  0
  -30.4790  -12.6830   19.7030 C   0  0  0  0  0  2  0  0  0  0  0  0
  -29.5820  -12.8430   18.4540 C   0  0  0  0  0  2  0  0  0  0  0  0
  -28.0930  -12.6490   18.8130 C   0  0  0  0  0  2  0  0  0  0  0  0
  -27.6620  -13.4770   20.0510 C   0  0  0  0  0  3  0  0  0  0  0  0
  -28.6780  -13.2890   21.2060 C   0  0  0  0  0  2  0  0  0  0  0  0
  -30.0160  -13.6500   20.7050 N   0  0  0  0  0  0  0  0  0  0  0  0
  -31.7040  -15.1630   20.3700 O   0  0  0  0  0  0  0  0  0  0  0  0
  -29.7000  -15.8330   21.1360 N   0  0  0  0  0  0  0  0  0  0  0  0
  -28.8290  -15.4800   21.5030 H   0  0  0  0  0  0  0  0  0  0  0  0
  -25.2100  -13.9940   20.6490 C   0  0  0  0  0  0  0  0  0  0  0  0
  -24.1570  -13.1760   20.9680 C   0  0  0  0  0  0  0  0  0  0  0  0
  -24.6740  -11.8460   20.9560 C   0  0  0  0  0  0  0  0  0  0  0  0
  -26.2990  -13.1540   20.4660 N   0  0  0  0  0  0  0  0  0  0  0  0
  -25.9760  -11.8570   20.7030 N   0  0  0  0  0  0  0  0  0  0  0  0
  -23.9940  -10.5540   21.1110 C   0  0  0  0  0  0  0  0  0  0  0  0
  -24.4090   -9.6160   22.0830 C   0  0  0  0  0  3  0  0  0  0  0  0
  -23.7270   -8.3880   22.2280 C   0  0  0  0  0  3  0  0  0  0  0  0
  -22.6180   -8.0910   21.4020 C   0  0  0  0  0  0  0  0  0  0  0  0
  -22.2220   -9.0190   20.4230 C   0  0  0  0  0  3  0  0  0  0  0  0
  -22.9030  -10.2390   20.2750 C   0  0  0  0  0  3  0  0  0  0  0  0
  -21.9160   -6.9110   21.4500 O   0  0  0  0  0  0  0  0  0  0  0  0
  -21.8060   -6.1890   22.6110 C   0  0  0  0  0  0  0  0  0  0  0  0
  -21.2520   -6.7450   23.7850 C   0  0  0  0  0  3  0  0  0  0  0  0
  -21.0910   -5.9470   24.9330 C   0  0  0  0  0  3  0  0  0  0  0  0
  -21.4730   -4.5910   24.9100 C   0  0  0  0  0  0  0  0  0  0  0  0
  -22.0210   -4.0350   23.7400 C   0  0  0  0  0  3  0  0  0  0  0  0
  -22.1840   -4.8320   22.5940 C   0  0  0  0  0  0  0  0  0  0  0  0
  -22.6890   -4.2850   21.4620 F   0  0  0  0  0  0  0  0  0  0  0  0
  -21.3130   -3.8180   26.0110 F   0  0  0  0  0  0  0  0  0  0  0  0
  -22.7300  -13.5950   21.1770 C   0  0  0  0  0  0  0  0  0  0  0  0
  -21.9930  -12.8650   22.0110 N   0  0  0  0  0  0  0  0  0  0  0  0
  -22.2710  -14.6020   20.6440 O   0  0  0  0  0  0  0  0  0  0  0  0
  -22.3680  -12.0450   22.4640 H   0  0  0  0  0  0  0  0  0  0  0  0
  -21.0390  -13.1350   22.2020 H   0  0  0  0  0  0  0  0  0  0  0  0
  -25.3210  -15.3690   20.4820 N   0  0  0  0  0  0  0  0  0  0  0  0
  -24.5130  -15.9790   20.5530 H   0  0  0  0  0  0  0  0  0  0  0  0
  -26.1530  -15.8430   20.1560 H   0  0  0  0  0  0  0  0  0  0  0  0
  -31.7090  -23.3840   17.6820 C   0  0  0  0  0  2  0  0  0  0  0  0
  -32.6610  -24.1490   18.6380 C   0  0  0  0  0  2  0  0  0  0  0  0
  -32.7990  -25.6400   18.3040 C   0  0  0  0  0  0  0  0  0  0  0  0
  -33.2440  -26.4370   19.2650 N   0  0  0  0  0  0  0  0  0  0  0  0
  -32.4920  -26.0820   17.1990 O   0  0  0  0  0  0  0  0  0  0  0  0
  -33.5010  -26.0690   20.1700 H   0  0  0  0  0  0  0  0  0  0  0  0
  -33.3540  -27.4280   19.0930 H   0  0  0  0  0  0  0  0  0  0  0  0
  1  2  1  0
  2  4  1  0
  2  5  1  0
  3  1  2  0
  5  9  1  0
  5 10  1  0
  9  6  1  6
  9  8  1  0
  9  7  1  0
 10 11  1  0
 11 12  1  0
 13 12  1  0
 14 13  1  0
 14 15  1  0
 16 14  1  0
 17 14  1  0
 18 17  1  0
 19 18  1  0
 20 31  2  0
 21 19  1  0
 21 26  1  0
 22 30  1  0
 22 32  1  0
 23 29  1  0
 23 25  1  0
 24 30  1  0
 25 26  2  0
 25 24  1  0
 27 21  2  0
 28 27  1  0
 28 23  2  0
 29 22  1  0
 30 20  1  0
 32 34  2  0
 33 32  1  0
 35 33  1  0
 36 45  2  0
 36 41  1  0
 37 33  1  0
 37 41  1  0
 38 37  1  0
 39 40  1  0
 39 38  1  0
 40 36  1  0
 41 42  2  0
 42 43  1  0
 44 43  2  0
 45 44  1  0
 46 20  1  0
 46 51  1  0
 46 47  1  0
 47 50  1  1
 47 48  1  0
 49 47  1  0
 51 54  1  0
 52 56  1  0
 52 51  1  0
 53 52  2  0
 56 55  1  0
 58 56  1  0
 58 59  1  0
 58 57  1  0
 60107  1  0
 60  1  1  0
 61 64  1  0
 61 60  1  0
 62 61  1  0
 63 61  1  0
 64 65  1  0
 65 66  1  0
 66 67  1  0
 67 68  1  0
 68 77  1  0
 69 77  1  0
 70 75  1  0
 71 72  1  0
 71 70  1  0
 73 72  1  0
 73 82  1  0
 73 74  1  0
 75 69  1  0
 75 74  1  0
 76 69  2  0
 77 78  1  0
 79 80  2  0
 80 99  1  0
 81 80  1  0
 81 84  1  0
 82 79  1  0
 82 83  1  0
 83 81  2  0
 84 85  1  0
 85 86  2  0
 87 90  1  0
 87 86  1  0
 88 87  2  0
 89 88  1  0
 89 84  2  0
 90 91  1  0
 91 92  1  0
 92 93  2  0
 94 93  1  0
 94 98  1  0
 95 94  2  0
 96 91  2  0
 96 95  1  0
 97 96  1  0
 99100  1  0
100103  1  0
100102  1  0
101 99  2  0
104105  1  0
104 79  1  0
106104  1  0
107108  1  0
109108  1  0
109110  1  0
110112  1  0
111109  2  0
113110  1  0
M  ISO  4  18 101  19 101  69 100  77 100
M  END
>  <TORSDO>  (20) 
F 35

>  <SCORE>  (20) 
-9.776

>  <name>  (20) 
19

>  <ligand_id>  (20) 
19

>  <original_smiles>  (20) 
[H]c1c([H])c([H])c2c(c1[H])C([H])([H])C([H])([H])C([H])([H])C2([H])N([H])C(=O)C1([H])N(C(=O)C([H])(N([H])C(=O)C([H])(N([H])C([H])([H])[H])C([H])([H])[H])C(C([H])([H])[H])(C([H])([H])[H])C([H])([H])[H])C([H])([H])c2c([H])c(OC([H])([H])C([H])([H])[N+]([H])([H])C([H])([H])C([H])([H])C([H])([H])C([H])([H])C([H])(N([H])C(=O)C([H])(C([H])([H])C([H])([H])C(=O)N([H])[H])[N+]([H])([H])C([H])([H])C([H])([H])C([H])([H])C([H])([H])C([H])([H])N([H])C(=O)N3C([H])([H])C([H])([H])C([H])([H])C([H])(n4nc(-c5c([H])c([H])c(Oc6c([H])c([H])c(F)c([H])c6F)c([H])c5[H])c(C(=O)N([H])[H])c4N([H])[H])C3([H])[H])C(C([H])([H])[H])(C([H])([H])[H])C([H])([H])[H])c([H])c([H])c2C1([H])[H]

>  <smiles>  (20) 
[H]c1c([H])c([H])c2c(c1[H])C([H])([H])C([H])([H])C([H])([H])C2([H])N([H])C(=O)C1([H])N(C(=O)C([H])(N([H])C(=O)C([H])(N([H])C([H])([H])[H])C([H])([H])[H])C(C([H])([H])[H])(C([H])([H])[H])C([H])([H])[H])C([H])([H])c2c([H])c(OC([H])([H])C([H])([H])[N+]([H])([H])C([H])([H])C([H])([H])C([H])([H])C([H])([H])C([H])(N([H])C(=O)C([H])(C([H])([H])C([H])([H])C(=O)N([H])[H])[N+]([H])([H])C([H])([H])C([H])([H])C([H])([H])C([H])([H])C([H])([H])N([H])C(=O)N3C([H])([H])C([H])([H])C([H])([H])C([H])(n4nc(-c5c([H])c([H])c(Oc6c([H])c([H])c(F)c([H])c6F)c([H])c5[H])c(C(=O)N([H])[H])c4N([H])[H])C3([H])[H])C(C([H])([H])[H])(C([H])([H])[H])C([H])([H])[H])c([H])c([H])c2C1([H])[H]

$$$$
20:0:0
     RDKit          3D

100108  0  0  1  0  0  0  0  0999 V2000
  -29.5410  -19.6450   19.8040 C   0  0  0  0  0  3  0  0  0  0  0  0
  -30.9360  -15.3550   20.7940 C   0  0  0  0  0  0  0  0  0  0  0  0
  -30.9710  -12.7830   20.4490 C   0  0  0  0  0  2  0  0  0  0  0  0
  -30.2470  -12.3050   19.1640 C   0  0  0  0  0  2  0  0  0  0  0  0
  -28.7400  -12.1270   19.4190 C   0  0  0  0  0  2  0  0  0  0  0  0
  -28.1400  -13.3010   20.2320 C   0  0  0  0  0  3  0  0  0  0  0  0
  -29.0070  -13.7090   21.4410 C   0  0  0  0  0  2  0  0  0  0  0  0
  -30.3320  -14.0700   20.9050 N   0  0  0  0  0  0  0  0  0  0  0  0
  -32.1680  -15.3120   20.9220 O   0  0  0  0  0  0  0  0  0  0  0  0
  -30.7170  -17.1610   17.9890 C   0  0  0  0  0  2  0  0  0  0  0  0
  -31.4810  -18.1390   18.8820 C   0  0  0  0  0  2  0  0  0  0  0  0
  -29.7670  -16.3830   18.9220 C   0  0  0  0  0  2  0  0  0  0  0  0
  -30.6020  -18.2210   20.1220 C   0  0  0  0  0  3  0  0  0  0  0  0
  -30.2500  -16.5920   20.2940 N   0  0  0  0  0  0  0  0  0  0  0  0
  -25.7360  -14.0350   20.6460 C   0  0  0  0  0  0  0  0  0  0  0  0
  -24.5870  -13.3400   20.8980 C   0  0  0  0  0  0  0  0  0  0  0  0
  -24.9680  -11.9660   20.9890 C   0  0  0  0  0  0  0  0  0  0  0  0
  -26.7430  -13.0890   20.5820 N   0  0  0  0  0  0  0  0  0  0  0  0
  -26.2840  -11.8420   20.8580 N   0  0  0  0  0  0  0  0  0  0  0  0
  -24.1460  -10.7580   21.1320 C   0  0  0  0  0  0  0  0  0  0  0  0
  -24.4520   -9.7630   22.0860 C   0  0  0  0  0  3  0  0  0  0  0  0
  -23.6320   -8.6220   22.2170 C   0  0  0  0  0  3  0  0  0  0  0  0
  -22.4920   -8.4680   21.3950 C   0  0  0  0  0  0  0  0  0  0  0  0
  -22.2040   -9.4500   20.4310 C   0  0  0  0  0  3  0  0  0  0  0  0
  -23.0240  -10.5840   20.2970 C   0  0  0  0  0  3  0  0  0  0  0  0
  -21.6510   -7.3810   21.4360 O   0  0  0  0  0  0  0  0  0  0  0  0
  -21.5770   -6.5700   22.5400 C   0  0  0  0  0  0  0  0  0  0  0  0
  -21.2930   -7.0840   23.8240 C   0  0  0  0  0  3  0  0  0  0  0  0
  -21.1580   -6.2070   24.9180 C   0  0  0  0  0  3  0  0  0  0  0  0
  -21.2950   -4.8180   24.7310 C   0  0  0  0  0  0  0  0  0  0  0  0
  -21.5730   -4.3050   23.4520 C   0  0  0  0  0  3  0  0  0  0  0  0
  -21.7100   -5.1790   22.3590 C   0  0  0  0  0  0  0  0  0  0  0  0
  -21.9560   -4.6780   21.1240 F   0  0  0  0  0  0  0  0  0  0  0  0
  -21.1580   -3.9740   25.7790 F   0  0  0  0  0  0  0  0  0  0  0  0
  -23.2000  -13.9090   20.9510 C   0  0  0  0  0  0  0  0  0  0  0  0
  -22.3290  -13.3210   21.7610 N   0  0  0  0  0  0  0  0  0  0  0  0
  -22.8970  -14.9140   20.3080 O   0  0  0  0  0  0  0  0  0  0  0  0
  -22.5860  -12.5080   22.3020 H   0  0  0  0  0  0  0  0  0  0  0  0
  -21.3910  -13.6880   21.8430 H   0  0  0  0  0  0  0  0  0  0  0  0
  -26.0100  -15.3840   20.4360 N   0  0  0  0  0  0  0  0  0  0  0  0
  -25.2780  -16.0830   20.4060 H   0  0  0  0  0  0  0  0  0  0  0  0
  -26.9230  -15.7500   20.2030 H   0  0  0  0  0  0  0  0  0  0  0  0
  -29.7210  -21.0040   18.8770 N   0  0  0  0  0  0  0  0  0  0  0  0
  -30.7110  -21.2460   18.8300 H   0  0  0  0  0  0  0  0  0  0  0  0
  -28.9290  -21.7640   17.6440 C   0  0  0  0  0  2  0  0  0  0  0  0
  -29.3580  -23.0480   16.4430 C   0  0  0  0  0  2  0  0  0  0  0  0
  -28.8400  -23.5980   14.9780 O   0  0  0  0  0  0  0  0  0  0  0  0
  -30.5930  -27.9360    9.0170 C   0  0  0  0  0  0  0  0  0  0  0  0
  -29.0980  -24.8960   14.2930 C   0  0  0  0  0  0  0  0  0  0  0  0
  -30.9400  -28.8410   11.2790 C   0  0  0  0  0  3  0  0  0  0  0  0
  -29.7850  -27.5740   13.2160 C   0  0  0  0  0  0  0  0  0  0  0  0
  -29.0740  -27.1060   10.8810 C   0  0  0  0  0  2  0  0  0  0  0  0
  -29.2170  -26.6280   12.3550 C   0  0  0  0  0  0  0  0  0  0  0  0
  -28.8420  -25.3170   12.8970 C   0  0  0  0  0  3  0  0  0  0  0  0
  -29.6090  -25.9550   15.0750 C   0  0  0  0  0  3  0  0  0  0  0  0
  -29.9440  -27.2400   14.5710 C   0  0  0  0  0  3  0  0  0  0  0  0
  -30.2200  -28.9270   12.6530 C   0  0  0  0  0  2  0  0  0  0  0  0
  -30.2100  -27.9350   10.3340 N   0  0  0  0  0  0  0  0  0  0  0  0
  -31.5100  -28.6650    8.6040 O   0  0  0  0  0  0  0  0  0  0  0  0
  -32.4210  -28.4340   11.4970 C   0  0  0  0  0  0  0  0  0  0  0  0
  -33.2760  -29.3890   11.9080 N   0  0  0  0  0  0  0  0  0  0  0  0
  -32.7760  -27.2670   11.3130 O   0  0  0  0  0  0  0  0  0  0  0  0
  -32.9180  -30.3270   12.0250 H   0  0  0  0  0  0  0  0  0  0  0  0
  -36.2910  -31.0500   13.0570 C   0  0  0  0  0  0  0  0  0  0  0  0
  -34.6930  -29.1900   12.2300 C   0  0  0  0  0  3  0  0  0  0  0  0
  -34.8620  -28.5670   13.6370 C   0  0  0  0  0  2  0  0  0  0  0  0
  -35.0660  -29.6120   14.7400 C   0  0  0  0  0  2  0  0  0  0  0  0
  -36.3090  -30.4590   14.4560 C   0  0  0  0  0  2  0  0  0  0  0  0
  -35.5210  -30.4650   12.0160 C   0  0  0  0  0  0  0  0  0  0  0  0
  -35.5200  -31.0730   10.7430 C   0  0  0  0  0  3  0  0  0  0  0  0
  -36.2660  -32.2420   10.5020 C   0  0  0  0  0  3  0  0  0  0  0  0
  -37.0350  -32.8110   11.5320 C   0  0  0  0  0  3  0  0  0  0  0  0
  -37.0490  -32.2130   12.8040 C   0  0  0  0  0  3  0  0  0  0  0  0
  -29.8860  -27.0350    7.9600 C   0  0  0  0  0  3  0  0  0  0  0  0
  -30.7090  -25.7320    7.6090 C   0  0  1  0  0  0  0  0  0  0  0  0
  -32.1730  -26.0120    7.1950 C   0  0  0  0  0  1  0  0  0  0  0  0
  -30.7400  -24.7590    8.8080 C   0  0  0  0  0  1  0  0  0  0  0  0
  -30.0200  -24.9770    6.4480 C   0  0  0  0  0  1  0  0  0  0  0  0
  -29.6720  -27.8400    6.7440 N   0  0  0  0  0  0  0  0  0  0  0  0
  -28.5130  -28.4170    6.4010 C   0  0  0  0  0  0  0  0  0  0  0  0
  -27.4780  -28.2740    7.0570 O   0  0  0  0  0  0  0  0  0  0  0  0
  -30.4910  -28.0450    6.1900 H   0  0  0  0  0  0  0  0  0  0  0  0
  -28.5670  -30.7750    5.5160 C   0  0  0  0  0  1  0  0  0  0  0  0
  -28.4950  -29.2890    5.1280 C   0  0  0  0  0  3  0  0  0  0  0  0
  -27.3030  -27.7440    3.6350 C   0  0  0  0  0  1  0  0  0  0  0  0
  -27.3100  -29.0590    4.2710 N   0  0  0  0  0  0  0  0  0  0  0  0
  -27.2490  -29.7640    3.5420 H   0  0  0  0  0  0  0  0  0  0  0  0
  -29.3010  -20.2150   21.2150 C   0  0  0  0  0  2  0  0  0  0  0  0
  -28.4530  -21.4160   21.1610 N   0  0  0  0  0  4  0  0  0  0  0  0
  -27.4940  -21.1630   21.3350 H   0  0  0  0  0  0  0  0  0  0  0  0
  -28.5350  -21.6800   20.1860 H   0  0  0  0  0  0  0  0  0  0  0  0
  -28.8870  -22.5080   22.0610 C   0  0  0  0  0  2  0  0  0  0  0  0
  -28.4660  -24.1720   20.2130 C   0  0  0  0  0  1  0  0  0  0  0  0
  -28.2400  -23.8810   21.7160 C   0  0  0  0  0  3  0  0  0  0  0  0
  -28.9540  -24.6150   24.0970 C   0  0  0  0  0  1  0  0  0  0  0  0
  -28.7220  -25.0750   22.6330 C   0  0  0  0  0  3  0  0  0  0  0  0
  -27.9080  -27.0860   21.1950 C   0  0  0  0  0  1  0  0  0  0  0  0
  -26.3700  -26.1200   22.9190 C   0  0  0  0  0  1  0  0  0  0  0  0
  -28.3770  -27.4560   23.5770 C   0  0  0  0  0  1  0  0  0  0  0  0
  -27.8490  -26.3960   22.5770 C   0  0  1  0  0  0  0  0  0  0  0  0
  1 88  1  0
  2  8  1  0
  2  9  2  0
  3  8  1  0
  4  5  1  0
  4  3  1  0
  6  5  1  0
  6 18  1  0
  6  7  1  0
  8  7  1  0
 10 11  1  0
 10 12  1  0
 11 13  1  0
 12 14  1  0
 13  1  1  0
 13 14  1  0
 14  2  1  0
 15 16  2  0
 16 35  1  0
 16 17  1  0
 17 20  1  0
 18 15  1  0
 18 19  1  0
 19 17  2  0
 20 21  1  0
 21 22  2  0
 23 26  1  0
 23 22  1  0
 24 23  2  0
 25 24  1  0
 25 20  2  0
 26 27  1  0
 27 28  1  0
 28 29  2  0
 30 29  1  0
 30 34  1  0
 31 30  2  0
 32 27  2  0
 32 31  1  0
 33 32  1  0
 35 36  1  0
 36 39  1  0
 36 38  1  0
 37 35  2  0
 40 15  1  0
 41 40  1  0
 42 40  1  0
 43  1  1  0
 44 43  1  0
 45 43  1  0
 46 45  1  0
 47 46  1  0
 48 58  1  0
 49 47  1  0
 49 55  1  0
 50 60  1  0
 50 57  1  0
 51 56  1  0
 52 53  1  0
 53 54  1  0
 53 51  2  0
 54 49  2  0
 56 55  2  0
 57 51  1  0
 58 52  1  0
 58 50  1  0
 59 48  2  0
 60 61  1  0
 61 63  1  0
 62 60  2  0
 64 68  1  0
 65 61  1  0
 65 66  1  0
 66 67  1  0
 68 67  1  0
 69 65  1  0
 69 64  2  0
 70 69  1  0
 71 70  2  0
 71 72  1  0
 72 73  2  0
 73 64  1  0
 74 48  1  0
 75 74  1  0
 75 77  1  1
 76 75  1  0
 78 75  1  0
 79 74  1  0
 80 79  1  0
 80 81  2  0
 82 79  1  0
 84 83  1  0
 84 80  1  0
 85 86  1  0
 86 84  1  0
 87 86  1  0
 89 88  1  0
 89 90  1  0
 89 92  1  0
 91 89  1  0
 94 93  1  0
 94 92  1  0
 94 96  1  0
 96 95  1  0
100 97  1  6
100 96  1  0
100 98  1  0
100 99  1  0
M  ISO  4   2 100  14 100  46 101  47 101
M  END
>  <TORSDO>  (21) 
F 25

>  <SCORE>  (21) 
-6.955

>  <name>  (21) 
20

>  <ligand_id>  (21) 
20

>  <original_smiles>  (21) 
[H]c1c([H])c([H])c2c(c1[H])C([H])([H])C([H])([H])C([H])([H])C2([H])N([H])C(=O)C1([H])N(C(=O)C([H])(N([H])C(=O)C([H])(N([H])C([H])([H])[H])C([H])([H])[H])C(C([H])([H])[H])(C([H])([H])[H])C([H])([H])[H])C([H])([H])c2c([H])c(OC([H])([H])C([H])([H])N([H])C([H])(C3([H])N(C(=O)N4C([H])([H])C([H])([H])C([H])([H])C([H])(n5nc(-c6c([H])c([H])c(Oc7c([H])c([H])c(F)c([H])c7F)c([H])c6[H])c(C(=O)N([H])[H])c5N([H])[H])C4([H])[H])C([H])([H])C([H])([H])C3([H])[H])C([H])([H])[N+]([H])([H])C([H])([H])C([H])(C([H])([H])[H])C([H])(C([H])([H])[H])C(C([H])([H])[H])(C([H])([H])[H])C([H])([H])[H])c([H])c([H])c2C1([H])[H]

>  <smiles>  (21) 
[H]c1c([H])c([H])c2c(c1[H])C([H])([H])C([H])([H])C([H])([H])C2([H])N([H])C(=O)C1([H])N(C(=O)C([H])(N([H])C(=O)C([H])(N([H])C([H])([H])[H])C([H])([H])[H])C(C([H])([H])[H])(C([H])([H])[H])C([H])([H])[H])C([H])([H])c2c([H])c(OC([H])([H])C([H])([H])N([H])C([H])(C3([H])N(C(=O)N4C([H])([H])C([H])([H])C([H])([H])C([H])(n5nc(-c6c([H])c([H])c(Oc7c([H])c([H])c(F)c([H])c7F)c([H])c6[H])c(C(=O)N([H])[H])c5N([H])[H])C4([H])[H])C([H])([H])C([H])([H])C3([H])[H])C([H])([H])[N+]([H])([H])C([H])([H])C([H])(C([H])([H])[H])C([H])(C([H])([H])[H])C(C([H])([H])[H])(C([H])([H])[H])C([H])([H])[H])c([H])c([H])c2C1([H])[H]

$$$$
21:0:0
     RDKit          3D

104112  0  0  1  0  0  0  0  0999 V2000
  -31.2150  -20.0150   20.8240 N   0  0  0  0  0  4  0  0  0  0  0  0
  -30.5020  -20.1220   20.1180 H   0  0  0  0  0  0  0  0  0  0  0  0
  -32.0210  -19.6080   20.3760 H   0  0  0  0  0  0  0  0  0  0  0  0
  -30.7680  -19.0620   21.8830 C   0  0  0  0  0  2  0  0  0  0  0  0
  -31.1840  -17.5440   21.7450 C   0  0  0  0  0  3  0  0  0  0  0  0
  -30.7160  -17.3020   24.3200 C   0  0  0  0  0  1  0  0  0  0  0  0
  -30.5460  -16.7190   22.9040 C   0  0  0  0  0  2  0  0  0  0  0  0
  -30.8910  -16.8660   20.3530 C   0  0  0  0  0  3  0  0  0  0  0  0
  -31.3970  -14.3680   19.8250 C   0  0  0  0  0  0  0  0  0  0  0  0
  -30.9430  -12.1390   18.8370 C   0  0  0  0  0  2  0  0  0  0  0  0
  -29.9610  -12.3130   17.6570 C   0  0  0  0  0  2  0  0  0  0  0  0
  -28.4960  -12.3370   18.1440 C   0  0  0  0  0  2  0  0  0  0  0  0
  -28.2830  -13.2910   19.3510 C   0  0  0  0  0  3  0  0  0  0  0  0
  -29.3530  -13.0290   20.4330 C   0  0  0  0  0  2  0  0  0  0  0  0
  -30.6790  -13.2100   19.8110 N   0  0  0  0  0  0  0  0  0  0  0  0
  -32.4790  -14.5040   19.2420 O   0  0  0  0  0  0  0  0  0  0  0  0
  -30.7470  -15.3920   20.4200 N   0  0  0  0  0  0  0  0  0  0  0  0
  -29.9030  -15.0850   20.8770 H   0  0  0  0  0  0  0  0  0  0  0  0
  -26.0130  -14.1850   20.1700 C   0  0  0  0  0  0  0  0  0  0  0  0
  -24.8780  -13.5510   20.5970 C   0  0  0  0  0  0  0  0  0  0  0  0
  -25.1660  -12.1530   20.5390 C   0  0  0  0  0  0  0  0  0  0  0  0
  -26.9290  -13.1840   19.8900 N   0  0  0  0  0  0  0  0  0  0  0  0
  -26.4230  -11.9550   20.1640 N   0  0  0  0  0  0  0  0  0  0  0  0
  -24.3000  -10.9890   20.7650 C   0  0  0  0  0  0  0  0  0  0  0  0
  -24.6910   -9.9320   21.6160 C   0  0  0  0  0  3  0  0  0  0  0  0
  -23.8350   -8.8310   21.8270 C   0  0  0  0  0  3  0  0  0  0  0  0
  -22.5720   -8.7810   21.1920 C   0  0  0  0  0  0  0  0  0  0  0  0
  -22.1980   -9.8260   20.3280 C   0  0  0  0  0  3  0  0  0  0  0  0
  -23.0550  -10.9190   20.1130 C   0  0  0  0  0  3  0  0  0  0  0  0
  -21.6840   -7.7420   21.3210 O   0  0  0  0  0  0  0  0  0  0  0  0
  -21.6780   -6.9340   22.4300 C   0  0  0  0  0  0  0  0  0  0  0  0
  -21.4900   -7.4520   23.7290 C   0  0  0  0  0  3  0  0  0  0  0  0
  -21.4210   -6.5790   24.8320 C   0  0  0  0  0  3  0  0  0  0  0  0
  -21.5290   -5.1890   24.6390 C   0  0  0  0  0  0  0  0  0  0  0  0
  -21.7120   -4.6710   23.3460 C   0  0  0  0  0  3  0  0  0  0  0  0
  -21.7830   -5.5410   22.2440 C   0  0  0  0  0  0  0  0  0  0  0  0
  -21.9370   -5.0330   20.9970 F   0  0  0  0  0  0  0  0  0  0  0  0
  -21.4550   -4.3490   25.6980 F   0  0  0  0  0  0  0  0  0  0  0  0
  -23.5680  -14.1970   20.9450 C   0  0  0  0  0  0  0  0  0  0  0  0
  -22.8270  -13.6140   21.8830 N   0  0  0  0  0  0  0  0  0  0  0  0
  -23.2130  -15.2490   20.4180 O   0  0  0  0  0  0  0  0  0  0  0  0
  -23.1270  -12.7600   22.3280 H   0  0  0  0  0  0  0  0  0  0  0  0
  -21.9490  -14.0300   22.1570 H   0  0  0  0  0  0  0  0  0  0  0  0
  -26.3330  -15.5230   19.9800 N   0  0  0  0  0  0  0  0  0  0  0  0
  -25.6550  -16.2630   20.1250 H   0  0  0  0  0  0  0  0  0  0  0  0
  -27.2130  -15.8590   19.6140 H   0  0  0  0  0  0  0  0  0  0  0  0
  -29.5870  -17.4160   19.6870 C   0  0  0  0  0  2  0  0  0  0  0  0
  -29.3960  -20.0760   16.1320 C   0  0  0  0  0  2  0  0  0  0  0  0
  -28.3150  -19.0050   16.3460 C   0  0  0  0  0  2  0  0  0  0  0  0
  -30.7730  -19.5580   16.5690 C   0  0  0  0  0  2  0  0  0  0  0  0
  -28.3130  -18.5100   17.8000 C   0  0  0  0  0  2  0  0  0  0  0  0
  -30.7480  -19.0630   18.0270 C   0  0  0  0  0  2  0  0  0  0  0  0
  -29.6890  -17.9580   18.2390 C   0  0  0  0  0  3  0  0  0  0  0  0
  -31.6350  -21.3610   21.3400 C   0  0  0  0  0  3  0  0  0  0  0  0
  -30.4710  -22.3740   21.6030 C   0  0  0  0  0  2  0  0  0  0  0  0
  -29.8830  -23.2080   20.4230 C   0  0  0  0  0  2  0  0  0  0  0  0
  -29.4830  -24.6590   20.8330 C   0  0  0  0  0  2  0  0  0  0  0  0
  -28.7150  -25.4750   19.7620 C   0  0  0  0  0  2  0  0  0  0  0  0
  -28.5840  -26.8540   20.1680 O   0  0  0  0  0  0  0  0  0  0  0  0
  -24.5650  -31.8700   23.2280 C   0  0  0  0  0  0  0  0  0  0  0  0
  -27.3700  -27.5220   20.1240 C   0  0  0  0  0  0  0  0  0  0  0  0
  -23.4260  -30.4750   21.5350 C   0  0  0  0  0  3  0  0  0  0  0  0
  -24.9380  -28.9910   20.1130 C   0  0  0  0  0  0  0  0  0  0  0  0
  -25.9480  -30.8810   21.4000 C   0  0  0  0  0  2  0  0  0  0  0  0
  -26.0730  -29.5210   20.7370 C   0  0  0  0  0  0  0  0  0  0  0  0
  -27.2850  -28.7940   20.7400 C   0  0  0  0  0  3  0  0  0  0  0  0
  -26.2150  -27.0150   19.4800 C   0  0  0  0  0  3  0  0  0  0  0  0
  -25.0060  -27.7370   19.4790 C   0  0  0  0  0  3  0  0  0  0  0  0
  -23.6780  -29.8260   20.1470 C   0  0  0  0  0  2  0  0  0  0  0  0
  -24.6630  -31.0910   22.1130 N   0  0  0  0  0  0  0  0  0  0  0  0
  -23.4670  -32.1090   23.7500 O   0  0  0  0  0  0  0  0  0  0  0  0
  -22.7740  -29.4230   22.4630 C   0  0  0  0  0  0  0  0  0  0  0  0
  -21.4510  -29.2350   22.3230 N   0  0  0  0  0  0  0  0  0  0  0  0
  -23.4560  -28.7790   23.2650 O   0  0  0  0  0  0  0  0  0  0  0  0
  -20.9620  -29.8090   21.6500 H   0  0  0  0  0  0  0  0  0  0  0  0
  -18.0780  -28.0270   22.7850 C   0  0  0  0  0  0  0  0  0  0  0  0
  -20.6370  -28.2700   23.0610 C   0  0  0  0  0  3  0  0  0  0  0  0
  -20.7360  -26.8630   22.4310 C   0  0  0  0  0  2  0  0  0  0  0  0
  -19.6310  -26.5810   21.4080 C   0  0  0  0  0  2  0  0  0  0  0  0
  -18.2500  -26.7030   22.0600 C   0  0  0  0  0  2  0  0  0  0  0  0
  -19.1980  -28.7710   23.2420 C   0  0  0  0  0  0  0  0  0  0  0  0
  -18.9820  -30.0120   23.8770 C   0  0  0  0  0  3  0  0  0  0  0  0
  -17.6790  -30.5100   24.0640 C   0  0  0  0  0  3  0  0  0  0  0  0
  -16.5730  -29.7630   23.6250 C   0  0  0  0  0  3  0  0  0  0  0  0
  -16.7730  -28.5220   22.9920 C   0  0  0  0  0  3  0  0  0  0  0  0
  -25.8240  -32.5160   23.8890 C   0  0  0  0  0  3  0  0  0  0  0  0
  -25.4930  -33.9130   24.2020 N   0  0  0  0  0  0  0  0  0  0  0  0
  -25.8350  -34.9620   23.4440 C   0  0  0  0  0  0  0  0  0  0  0  0
  -26.5320  -34.8590   22.4300 O   0  0  0  0  0  0  0  0  0  0  0  0
  -24.8800  -34.0670   24.9880 H   0  0  0  0  0  0  0  0  0  0  0  0
  -24.1000  -36.7330   23.0240 C   0  0  0  0  0  1  0  0  0  0  0  0
  -25.3200  -36.3480   23.8780 C   0  0  0  0  0  3  0  0  0  0  0  0
  -27.4160  -37.2590   24.7730 C   0  0  0  0  0  1  0  0  0  0  0  0
  -26.3440  -37.4120   23.7910 N   0  0  0  0  0  0  0  0  0  0  0  0
  -25.9230  -38.3290   23.9190 H   0  0  0  0  0  0  0  0  0  0  0  0
  -26.3050  -31.7540   25.1840 C   0  0  1  0  0  0  0  0  0  0  0  0
  -25.1830  -31.5150   26.2210 C   0  0  0  0  0  1  0  0  0  0  0  0
  -26.9100  -30.3820   24.8130 C   0  0  0  0  0  1  0  0  0  0  0  0
  -27.4290  -32.5620   25.8770 C   0  0  0  0  0  1  0  0  0  0  0  0
  -32.8010  -21.9780   20.5180 C   0  0  0  0  0  2  0  0  0  0  0  0
  -35.1770  -22.0490   19.7100 C   0  0  0  0  0  1  0  0  0  0  0  0
  -33.9750  -19.8660   19.6380 C   0  0  0  0  0  1  0  0  0  0  0  0
  -34.6930  -20.8600   21.8430 C   0  0  0  0  0  1  0  0  0  0  0  0
  -34.1370  -21.1750   20.4370 C   0  0  2  0  0  0  0  0  0  0  0  0
  1 54  1  0
  1  4  1  0
  2  1  1  0
  3  1  1  0
  5  4  1  0
  5  7  1  0
  7  6  1  0
  8 47  1  0
  8 17  1  0
  8  5  1  0
  9 17  1  0
 10 15  1  0
 11 12  1  0
 11 10  1  0
 13 12  1  0
 13 22  1  0
 13 14  1  0
 15  9  1  0
 15 14  1  0
 16  9  2  0
 17 18  1  0
 19 20  2  0
 20 39  1  0
 21 20  1  0
 21 24  1  0
 22 23  1  0
 22 19  1  0
 23 21  2  0
 24 25  1  0
 25 26  2  0
 27 30  1  0
 27 26  1  0
 28 27  2  0
 29 28  1  0
 29 24  2  0
 30 31  1  0
 31 32  1  0
 32 33  2  0
 34 33  1  0
 34 38  1  0
 35 34  2  0
 36 31  2  0
 36 35  1  0
 37 36  1  0
 39 40  1  0
 40 43  1  0
 40 42  1  0
 41 39  2  0
 44 45  1  0
 44 19  1  0
 46 44  1  0
 48 49  1  0
 48 50  1  0
 49 51  1  0
 50 52  1  0
 51 53  1  0
 52 53  1  0
 53 47  1  0
 54100  1  0
 54 55  1  0
 56 57  1  0
 56 55  1  0
 58 59  1  0
 58 57  1  0
 60 71  2  0
 61 59  1  0
 61 66  1  0
 62 70  1  0
 62 72  1  0
 63 69  1  0
 63 65  1  0
 64 70  1  0
 65 66  2  0
 65 64  1  0
 67 61  2  0
 68 67  1  0
 68 63  2  0
 69 62  1  0
 70 60  1  0
 72 74  2  0
 73 72  1  0
 75 73  1  0
 76 85  2  0
 76 81  1  0
 77 73  1  0
 77 81  1  0
 78 77  1  0
 79 80  1  0
 79 78  1  0
 80 76  1  0
 81 82  2  0
 82 83  1  0
 84 83  2  0
 85 84  1  0
 86 60  1  0
 86 87  1  0
 86 96  1  0
 87 90  1  0
 88 92  1  0
 88 87  1  0
 89 88  2  0
 92 91  1  0
 94 92  1  0
 94 95  1  0
 94 93  1  0
 96 99  1  1
 96 97  1  0
 98 96  1  0
104101  1  6
102104  1  0
104100  1  0
104103  1  0
M  ISO  4   9 100  17 100  58 101  59 101
M  END
>  <TORSDO>  (22) 
F 29

>  <SCORE>  (22) 
-9.525

>  <name>  (22) 
21

>  <ligand_id>  (22) 
21

>  <original_smiles>  (22) 
[H]c1c([H])c([H])c2c(c1[H])C([H])([H])C([H])([H])C([H])([H])C2([H])N([H])C(=O)C1([H])N(C(=O)C([H])(N([H])C(=O)C([H])(N([H])C([H])([H])[H])C([H])([H])[H])C(C([H])([H])[H])(C([H])([H])[H])C([H])([H])[H])C([H])([H])c2c([H])c(OC([H])([H])C([H])([H])C([H])([H])C([H])([H])C([H])(C([H])([H])C(C([H])([H])[H])(C([H])([H])[H])C([H])([H])[H])[N+]([H])([H])C([H])([H])C([H])(C([H])([H])C([H])([H])[H])C([H])(N([H])C(=O)N3C([H])([H])C([H])([H])C([H])([H])C([H])(n4nc(-c5c([H])c([H])c(Oc6c([H])c([H])c(F)c([H])c6F)c([H])c5[H])c(C(=O)N([H])[H])c4N([H])[H])C3([H])[H])C([H])([H])C3([H])C([H])([H])C([H])([H])C([H])([H])C([H])([H])C3([H])[H])c([H])c([H])c2C1([H])[H]

>  <smiles>  (22) 
[H]c1c([H])c([H])c2c(c1[H])C([H])([H])C([H])([H])C([H])([H])C2([H])N([H])C(=O)C1([H])N(C(=O)C([H])(N([H])C(=O)C([H])(N([H])C([H])([H])[H])C([H])([H])[H])C(C([H])([H])[H])(C([H])([H])[H])C([H])([H])[H])C([H])([H])c2c([H])c(OC([H])([H])C([H])([H])C([H])([H])C([H])([H])C([H])(C([H])([H])C(C([H])([H])[H])(C([H])([H])[H])C([H])([H])[H])[N+]([H])([H])C([H])([H])C([H])(C([H])([H])C([H])([H])[H])C([H])(N([H])C(=O)N3C([H])([H])C([H])([H])C([H])([H])C([H])(n4nc(-c5c([H])c([H])c(Oc6c([H])c([H])c(F)c([H])c6F)c([H])c5[H])c(C(=O)N([H])[H])c4N([H])[H])C3([H])[H])C([H])([H])C3([H])C([H])([H])C([H])([H])C([H])([H])C([H])([H])C3([H])[H])c([H])c([H])c2C1([H])[H]

$$$$
22:0:0
     RDKit          3D

103111  0  0  1  0  0  0  0  0999 V2000
  -31.3710  -21.6730   22.7190 C   0  0  0  0  0  2  0  0  0  0  0  0
  -30.4270  -22.7790   22.2020 C   0  0  0  0  0  2  0  0  0  0  0  0
  -32.2570  -23.7720   18.9930 C   0  0  0  0  0  2  0  0  0  0  0  0
  -29.7710  -23.5610   18.5230 C   0  0  0  0  0  2  0  0  0  0  0  0
  -31.9080  -23.8340   20.4910 C   0  0  0  0  0  2  0  0  0  0  0  0
  -29.5260  -23.6400   20.0410 C   0  0  0  0  0  2  0  0  0  0  0  0
  -31.0950  -24.2280   18.0720 C   0  0  0  0  0  3  0  0  0  0  0  0
  -30.6770  -23.0540   20.7650 N   0  0  2  0  0  4  0  0  0  0  0  0
  -30.8100  -22.1430   20.3530 H   0  0  0  0  0  0  0  0  0  0  0  0
  -31.4250  -23.9230   16.5800 C   0  0  0  0  0  3  0  0  0  0  0  0
  -33.9030  -24.2550   16.3560 C   0  0  0  0  0  0  0  0  0  0  0  0
  -36.1240  -24.2480   15.2810 C   0  0  0  0  0  2  0  0  0  0  0  0
  -37.1350  -25.2040   15.9360 C   0  0  0  0  0  2  0  0  0  0  0  0
  -36.9980  -26.6220   15.3570 C   0  0  0  0  0  2  0  0  0  0  0  0
  -35.5320  -27.1230   15.3630 C   0  0  0  0  0  3  0  0  0  0  0  0
  -34.5880  -26.0690   14.7480 C   0  0  0  0  0  2  0  0  0  0  0  0
  -34.7730  -24.7930   15.4670 N   0  0  0  0  0  0  0  0  0  0  0  0
  -34.2090  -23.3740   17.1650 O   0  0  0  0  0  0  0  0  0  0  0  0
  -32.6330  -24.6340   16.1590 N   0  0  0  0  0  0  0  0  0  0  0  0
  -32.5040  -25.3510   15.4630 H   0  0  0  0  0  0  0  0  0  0  0  0
  -34.7820  -29.5750   15.1150 C   0  0  0  0  0  0  0  0  0  0  0  0
  -35.0210  -30.5100   14.1420 C   0  0  0  0  0  0  0  0  0  0  0  0
  -35.8080  -29.8520   13.1470 C   0  0  0  0  0  0  0  0  0  0  0  0
  -35.4080  -28.4140   14.6870 N   0  0  0  0  0  0  0  0  0  0  0  0
  -35.9830  -28.5770   13.4680 N   0  0  0  0  0  0  0  0  0  0  0  0
  -36.4520  -30.3770   11.9370 C   0  0  0  0  0  0  0  0  0  0  0  0
  -36.4110  -29.6730   10.7130 C   0  0  0  0  0  3  0  0  0  0  0  0
  -37.0220  -30.2070    9.5590 C   0  0  0  0  0  3  0  0  0  0  0  0
  -37.6820  -31.4570    9.6200 C   0  0  0  0  0  0  0  0  0  0  0  0
  -37.7400  -32.1440   10.8450 C   0  0  0  0  0  3  0  0  0  0  0  0
  -37.1340  -31.6080   11.9940 C   0  0  0  0  0  3  0  0  0  0  0  0
  -38.3260  -32.0410    8.5550 O   0  0  0  0  0  0  0  0  0  0  0  0
  -38.1650  -31.5790    7.2740 C   0  0  0  0  0  0  0  0  0  0  0  0
  -36.8900  -31.4650    6.6770 C   0  0  0  0  0  3  0  0  0  0  0  0
  -36.7770  -31.0530    5.3350 C   0  0  0  0  0  3  0  0  0  0  0  0
  -37.9320  -30.7600    4.5860 C   0  0  0  0  0  0  0  0  0  0  0  0
  -39.2020  -30.8770    5.1780 C   0  0  0  0  0  3  0  0  0  0  0  0
  -39.3190  -31.2870    6.5170 C   0  0  0  0  0  0  0  0  0  0  0  0
  -40.5450  -31.4190    7.0760 F   0  0  0  0  0  0  0  0  0  0  0  0
  -37.8230  -30.3690    3.2950 F   0  0  0  0  0  0  0  0  0  0  0  0
  -34.6220  -31.9570   14.1750 C   0  0  0  0  0  0  0  0  0  0  0  0
  -34.2570  -32.5180   13.0280 N   0  0  0  0  0  0  0  0  0  0  0  0
  -34.5880  -32.5870   15.2310 O   0  0  0  0  0  0  0  0  0  0  0  0
  -34.2680  -31.9950   12.1650 H   0  0  0  0  0  0  0  0  0  0  0  0
  -33.9610  -33.4840   13.0110 H   0  0  0  0  0  0  0  0  0  0  0  0
  -34.1050  -29.6190   16.3290 N   0  0  0  0  0  0  0  0  0  0  0  0
  -33.6870  -30.4700   16.6880 H   0  0  0  0  0  0  0  0  0  0  0  0
  -34.0330  -28.8400   16.9720 H   0  0  0  0  0  0  0  0  0  0  0  0
  -29.9840  -25.7350   15.4470 C   0  0  0  0  0  1  0  0  0  0  0  0
  -30.2870  -24.2270   15.5630 C   0  0  0  0  0  3  0  0  0  0  0  0
  -29.4540  -23.7740   13.1580 C   0  0  0  0  0  1  0  0  0  0  0  0
  -30.5900  -23.6070   14.1780 C   0  0  0  0  0  2  0  0  0  0  0  0
  -32.3040  -21.0750   21.6520 C   0  0  0  0  0  2  0  0  0  0  0  0
  -33.7550  -21.0010   22.1600 C   0  0  0  0  0  2  0  0  0  0  0  0
  -34.7580  -20.5190   21.1000 C   0  0  0  0  0  2  0  0  0  0  0  0
  -36.1350  -21.1980   21.2520 C   0  0  0  0  0  2  0  0  0  0  0  0
  -37.0790  -21.0110   20.0440 C   0  0  0  0  0  2  0  0  0  0  0  0
  -38.4590  -20.5950   20.3980 N   0  0  0  0  0  4  0  0  0  0  0  0
  -38.9130  -21.3120   20.9410 H   0  0  0  0  0  0  0  0  0  0  0  0
  -38.9570  -20.5560   19.5220 H   0  0  0  0  0  0  0  0  0  0  0  0
  -38.6160  -19.2650   21.0350 C   0  0  0  0  0  2  0  0  0  0  0  0
  -39.3160  -19.3230   22.4090 C   0  0  0  0  0  2  0  0  0  0  0  0
  -39.1430  -18.0900   23.1000 O   0  0  0  0  0  0  0  0  0  0  0  0
  -39.3610  -11.7060   19.9830 C   0  0  0  0  0  0  0  0  0  0  0  0
  -39.9150  -17.0610   22.6350 C   0  0  0  0  0  0  0  0  0  0  0  0
  -41.4840  -12.4990   20.9810 C   0  0  0  0  0  3  0  0  0  0  0  0
  -41.5220  -14.9450   21.7010 C   0  0  0  0  0  0  0  0  0  0  0  0
  -39.7370  -14.1600   20.1320 C   0  0  0  0  0  2  0  0  0  0  0  0
  -40.2290  -15.1210   21.1910 C   0  0  0  0  0  0  0  0  0  0  0  0
  -39.4160  -16.1710   21.6620 C   0  0  0  0  0  3  0  0  0  0  0  0
  -41.2110  -16.8730   23.1530 C   0  0  0  0  0  3  0  0  0  0  0  0
  -42.0190  -15.8150   22.6890 C   0  0  0  0  0  3  0  0  0  0  0  0
  -42.3250  -13.7950   21.1400 C   0  0  0  0  0  2  0  0  0  0  0  0
  -40.1400  -12.7550   20.3670 N   0  0  0  0  0  0  0  0  0  0  0  0
  -39.7600  -10.5390   20.0910 O   0  0  0  0  0  0  0  0  0  0  0  0
  -41.4030  -11.7910   22.3530 C   0  0  0  0  0  0  0  0  0  0  0  0
  -42.3070  -10.8250   22.5810 N   0  0  0  0  0  0  0  0  0  0  0  0
  -40.5650  -12.1300   23.1910 O   0  0  0  0  0  0  0  0  0  0  0  0
  -42.9580  -10.6040   21.8410 H   0  0  0  0  0  0  0  0  0  0  0  0
  -43.8680   -7.9010   24.0160 C   0  0  0  0  0  0  0  0  0  0  0  0
  -42.4450  -10.0480   23.8130 C   0  0  0  0  0  3  0  0  0  0  0  0
  -43.4730  -10.6980   24.7660 C   0  0  0  0  0  2  0  0  0  0  0  0
  -44.8900  -10.1410   24.5960 C   0  0  0  0  0  2  0  0  0  0  0  0
  -44.9080   -8.6310   24.8470 C   0  0  0  0  0  2  0  0  0  0  0  0
  -42.7210   -8.5700   23.5150 C   0  0  0  0  0  0  0  0  0  0  0  0
  -41.8050   -7.8530   22.7150 C   0  0  0  0  0  3  0  0  0  0  0  0
  -42.0190   -6.4930   22.4180 C   0  0  0  0  0  3  0  0  0  0  0  0
  -43.1480   -5.8330   22.9310 C   0  0  0  0  0  3  0  0  0  0  0  0
  -44.0680   -6.5340   23.7290 C   0  0  0  0  0  3  0  0  0  0  0  0
  -37.9420  -11.9220   19.3680 C   0  0  0  0  0  3  0  0  0  0  0  0
  -37.7820  -10.9520   18.2750 N   0  0  0  0  0  0  0  0  0  0  0  0
  -37.9440  -11.2380   16.9770 C   0  0  0  0  0  0  0  0  0  0  0  0
  -38.1730  -12.3780   16.5650 O   0  0  0  0  0  0  0  0  0  0  0  0
  -37.6440   -9.9880   18.5430 H   0  0  0  0  0  0  0  0  0  0  0  0
  -39.2420   -9.6220   15.5540 C   0  0  0  0  0  1  0  0  0  0  0  0
  -37.8340  -10.0720   15.9750 C   0  0  0  0  0  3  0  0  0  0  0  0
  -35.6160  -10.5950   15.0650 C   0  0  0  0  0  1  0  0  0  0  0  0
  -37.0350  -10.4000   14.7760 N   0  0  0  0  0  0  0  0  0  0  0  0
  -37.1160   -9.6670   14.0760 H   0  0  0  0  0  0  0  0  0  0  0  0
  -36.7760  -11.7760   20.4220 C   0  0  1  0  0  0  0  0  0  0  0  0
  -36.8770  -10.4990   21.2890 C   0  0  0  0  0  1  0  0  0  0  0  0
  -36.7460  -12.9920   21.3770 C   0  0  0  0  0  1  0  0  0  0  0  0
  -35.4120  -11.7540   19.6940 C   0  0  0  0  0  1  0  0  0  0  0  0
  2  1  1  0
  3  5  1  0
  4  6  1  0
  5  8  1  0
  6  8  1  0
  7 10  1  0
  7  4  1  0
  7  3  1  0
  8  2  1  0
  8  9  1  6
 10 19  1  0
 11 18  2  0
 12 17  1  0
 12 13  1  0
 14 15  1  0
 14 13  1  0
 15 24  1  0
 16 15  1  0
 16 17  1  0
 17 11  1  0
 19 11  1  0
 20 19  1  0
 21 46  1  0
 22 41  1  0
 22 21  2  0
 23 25  2  0
 23 22  1  0
 24 21  1  0
 25 24  1  0
 26 31  1  0
 26 23  1  0
 27 26  2  0
 28 29  2  0
 28 27  1  0
 29 30  1  0
 30 31  2  0
 32 29  1  0
 33 32  1  0
 34 33  1  0
 35 34  2  0
 36 37  2  0
 36 35  1  0
 37 38  1  0
 38 39  1  0
 38 33  2  0
 40 36  1  0
 41 43  2  0
 42 41  1  0
 44 42  1  0
 45 42  1  0
 46 47  1  0
 46 48  1  0
 50 49  1  0
 50 10  1  0
 51 52  1  0
 52 50  1  0
 53 54  1  0
 53  1  1  0
 55 56  1  0
 55 54  1  0
 57 58  1  0
 57 56  1  0
 58 59  1  0
 58 61  1  0
 60 58  1  0
 61 62  1  0
 62 63  1  0
 64 75  2  0
 64 74  1  0
 65 63  1  0
 65 71  1  0
 66 73  1  0
 66 76  1  0
 67 72  1  0
 68 74  1  0
 68 69  1  0
 69 70  1  0
 69 67  2  0
 70 65  2  0
 72 71  2  0
 73 67  1  0
 74 66  1  0
 76 77  1  0
 76 78  2  0
 79 77  1  0
 80 84  1  0
 81 77  1  0
 81 82  1  0
 83 82  1  0
 83 84  1  0
 85 81  1  0
 85 80  2  0
 86 85  1  0
 87 86  2  0
 87 88  1  0
 88 89  2  0
 89 80  1  0
 90 64  1  0
 90100  1  0
 91 94  1  0
 91 90  1  0
 92 91  1  0
 93 92  2  0
 96 95  1  0
 96 92  1  0
 98 97  1  0
 98 96  1  0
 99 98  1  0
100101  1  1
100102  1  0
103100  1  0
M  ISO  4  11 100  19 100  62 101  63 101
M  END
>  <TORSDO>  (23) 
F 29

>  <SCORE>  (23) 
-2.015

>  <name>  (23) 
22

>  <ligand_id>  (23) 
22

>  <original_smiles>  (23) 
[H]c1c([H])c([H])c2c(c1[H])C([H])([H])C([H])([H])C([H])([H])C2([H])N([H])C(=O)C1([H])N(C(=O)C([H])(N([H])C(=O)C([H])(N([H])C([H])([H])[H])C([H])([H])[H])C(C([H])([H])[H])(C([H])([H])[H])C([H])([H])[H])C([H])([H])c2c([H])c(OC([H])([H])C([H])([H])[N+]([H])([H])C([H])([H])C([H])([H])C([H])([H])C([H])([H])C([H])([H])C([H])([H])C([H])([H])[N+]3([H])C([H])([H])C([H])([H])C([H])(C([H])(N([H])C(=O)N4C([H])([H])C([H])([H])C([H])([H])C([H])(n5nc(-c6c([H])c([H])c(Oc7c([H])c([H])c(F)c([H])c7F)c([H])c6[H])c(C(=O)N([H])[H])c5N([H])[H])C4([H])[H])C([H])(C([H])([H])[H])C([H])([H])C([H])([H])[H])C([H])([H])C3([H])[H])c([H])c([H])c2C1([H])[H]

>  <smiles>  (23) 
[H]c1c([H])c([H])c2c(c1[H])C([H])([H])C([H])([H])C([H])([H])C2([H])N([H])C(=O)C1([H])N(C(=O)C([H])(N([H])C(=O)C([H])(N([H])C([H])([H])[H])C([H])([H])[H])C(C([H])([H])[H])(C([H])([H])[H])C([H])([H])[H])C([H])([H])c2c([H])c(OC([H])([H])C([H])([H])[N+]([H])([H])C([H])([H])C([H])([H])C([H])([H])C([H])([H])C([H])([H])C([H])([H])C([H])([H])[N+]3([H])C([H])([H])C([H])([H])C([H])(C([H])(N([H])C(=O)N4C([H])([H])C([H])([H])C([H])([H])C([H])(n5nc(-c6c([H])c([H])c(Oc7c([H])c([H])c(F)c([H])c7F)c([H])c6[H])c(C(=O)N([H])[H])c5N([H])[H])C4([H])[H])C([H])(C([H])([H])[H])C([H])([H])C([H])([H])[H])C([H])([H])C3([H])[H])c([H])c([H])c2C1([H])[H]

$$$$
23:0:0
     RDKit          3D

114122  0  0  1  0  0  0  0  0999 V2000
  -29.0390  -17.6770   19.7850 C   0  0  0  0  0  3  0  0  0  0  0  0
  -29.3830  -18.1550   18.3920 N   0  0  0  0  0  4  0  0  0  0  0  0
  -29.8050  -17.4080   17.8560 H   0  0  0  0  0  0  0  0  0  0  0  0
  -28.5250  -18.3930   17.9290 H   0  0  0  0  0  0  0  0  0  0  0  0
  -30.3020  -19.3580   18.3130 C   0  0  0  0  0  3  0  0  0  0  0  0
  -31.7830  -18.8810   18.4760 C   0  0  0  0  0  3  0  0  0  0  0  0
  -32.4540  -18.7180   17.2030 N   0  0  0  0  0  0  0  0  0  0  0  0
  -32.7910  -19.6270   16.8700 H   0  0  0  0  0  0  0  0  0  0  0  0
  -31.7990  -18.3830   16.4930 H   0  0  0  0  0  0  0  0  0  0  0  0
  -33.0530  -18.6090   20.6670 C   0  0  0  0  0  1  0  0  0  0  0  0
  -32.7450  -19.5790   19.5100 C   0  0  0  0  0  3  0  0  0  0  0  0
  -31.6580  -20.9860   21.4160 C   0  0  0  0  0  1  0  0  0  0  0  0
  -32.3790  -20.9880   20.0540 C   0  0  0  0  0  2  0  0  0  0  0  0
  -30.0430  -20.3120   17.0800 C   0  0  0  0  0  2  0  0  0  0  0  0
  -29.5730  -21.7820   17.3360 C   0  0  0  0  0  2  0  0  0  0  0  0
  -30.0620  -22.8220   16.3060 C   0  0  0  0  0  0  0  0  0  0  0  0
  -29.5480  -24.0480   16.3340 N   0  0  0  0  0  0  0  0  0  0  0  0
  -30.9130  -22.5440   15.4690 O   0  0  0  0  0  0  0  0  0  0  0  0
  -28.8150  -24.3100   16.9710 H   0  0  0  0  0  0  0  0  0  0  0  0
  -29.8690  -24.7340   15.6620 H   0  0  0  0  0  0  0  0  0  0  0  0
  -28.1230  -18.8000   20.4960 C   0  0  0  0  0  2  0  0  0  0  0  0
  -27.7840  -20.2070   19.8430 C   0  0  0  0  0  2  0  0  0  0  0  0
  -27.8650  -21.3420   20.9280 C   0  0  0  0  0  2  0  0  0  0  0  0
  -27.2470  -22.7350   20.5850 C   0  0  0  0  0  2  0  0  0  0  0  0
  -27.2850  -23.7500   21.7300 N   0  0  0  0  0  4  0  0  0  0  0  0
  -27.4260  -23.2620   22.6070 H   0  0  0  0  0  0  0  0  0  0  0  0
  -26.3150  -24.0490   21.7690 H   0  0  0  0  0  0  0  0  0  0  0  0
  -28.0680  -25.0510   21.5740 C   0  0  0  0  0  2  0  0  0  0  0  0
  -29.3270  -25.3240   22.5370 C   0  0  0  0  0  2  0  0  0  0  0  0
  -30.7740  -25.4950   21.9360 C   0  0  0  0  0  2  0  0  0  0  0  0
  -31.5810  -26.7550   22.0780 O   0  0  0  0  0  0  0  0  0  0  0  0
  -27.5700  -31.5320   25.2610 C   0  0  0  0  0  0  0  0  0  0  0  0
  -30.7360  -27.8000   21.7970 C   0  0  0  0  0  0  0  0  0  0  0  0
  -26.6840  -30.4470   23.2280 C   0  0  0  0  0  3  0  0  0  0  0  0
  -28.4210  -29.3600   21.6960 C   0  0  0  0  0  0  0  0  0  0  0  0
  -29.1990  -30.8750   23.5100 C   0  0  0  0  0  2  0  0  0  0  0  0
  -29.4220  -29.6810   22.6210 C   0  0  0  0  0  0  0  0  0  0  0  0
  -30.6070  -28.9060   22.6700 C   0  0  0  0  0  3  0  0  0  0  0  0
  -29.8150  -27.6340   20.7460 C   0  0  0  0  0  3  0  0  0  0  0  0
  -28.6290  -28.3880   20.7260 C   0  0  0  0  0  3  0  0  0  0  0  0
  -27.1020  -30.0980   21.7680 C   0  0  0  0  0  2  0  0  0  0  0  0
  -27.8300  -30.9570   24.0640 N   0  0  0  0  0  0  0  0  0  0  0  0
  -26.4090  -31.6750   25.6610 O   0  0  0  0  0  0  0  0  0  0  0  0
  -26.0030  -29.2120   23.8620 C   0  0  0  0  0  0  0  0  0  0  0  0
  -24.8170  -28.8660   23.3310 N   0  0  0  0  0  0  0  0  0  0  0  0
  -26.5410  -28.6040   24.7900 O   0  0  0  0  0  0  0  0  0  0  0  0
  -24.5010  -29.3680   22.5050 H   0  0  0  0  0  0  0  0  0  0  0  0
  -21.6870  -27.1880   22.6940 C   0  0  0  0  0  0  0  0  0  0  0  0
  -23.9690  -27.7540   23.7450 C   0  0  0  0  0  3  0  0  0  0  0  0
  -24.4830  -26.4140   23.1590 C   0  0  0  0  0  2  0  0  0  0  0  0
  -23.7890  -25.9810   21.8510 C   0  0  0  0  0  2  0  0  0  0  0  0
  -22.2720  -25.9110   22.0700 C   0  0  0  0  0  2  0  0  0  0  0  0
  -22.4920  -28.0630   23.4780 C   0  0  0  0  0  0  0  0  0  0  0  0
  -21.9240  -29.2550   24.0030 C   0  0  0  0  0  3  0  0  0  0  0  0
  -20.5760  -29.5810   23.7650 C   0  0  0  0  0  3  0  0  0  0  0  0
  -19.7670  -28.7000   23.0010 C   0  0  0  0  0  3  0  0  0  0  0  0
  -20.3160  -27.5190   22.4750 C   0  0  0  0  0  3  0  0  0  0  0  0
  -28.7040  -32.0770   26.1710 C   0  0  0  0  0  3  0  0  0  0  0  0
  -28.6000  -33.5430   26.1930 N   0  0  0  0  0  0  0  0  0  0  0  0
  -29.3800  -34.3730   25.4800 C   0  0  0  0  0  0  0  0  0  0  0  0
  -30.3190  -33.9750   24.7860 O   0  0  0  0  0  0  0  0  0  0  0  0
  -27.8040  -33.9360   26.6770 H   0  0  0  0  0  0  0  0  0  0  0  0
  -28.2950  -36.3070   24.3050 C   0  0  0  0  0  1  0  0  0  0  0  0
  -29.0670  -35.8800   25.5610 C   0  0  0  0  0  3  0  0  0  0  0  0
  -30.9380  -36.5230   27.0150 C   0  0  0  0  0  1  0  0  0  0  0  0
  -30.2750  -36.7200   25.7290 N   0  0  0  0  0  0  0  0  0  0  0  0
  -30.0380  -37.7030   25.6390 H   0  0  0  0  0  0  0  0  0  0  0  0
  -28.6730  -31.4810   27.6300 C   0  0  1  0  0  0  0  0  0  0  0  0
  -27.2890  -31.5840   28.3060 C   0  0  0  0  0  1  0  0  0  0  0  0
  -29.0760  -29.9900   27.6300 C   0  0  0  0  0  1  0  0  0  0  0  0
  -29.7000  -32.2230   28.5110 C   0  0  0  0  0  1  0  0  0  0  0  0
  -28.5860  -16.1230   19.9740 C   0  0  0  0  0  3  0  0  0  0  0  0
  -30.5770  -14.1150   19.6150 C   0  0  0  0  0  0  0  0  0  0  0  0
  -30.7820  -11.6480   19.0820 C   0  0  0  0  0  2  0  0  0  0  0  0
  -29.8300  -11.3280   17.8900 C   0  0  0  0  0  2  0  0  0  0  0  0
  -28.3280  -11.2350   18.2810 C   0  0  0  0  0  2  0  0  0  0  0  0
  -27.9210  -12.4010   19.1920 C   0  0  0  0  0  3  0  0  0  0  0  0
  -28.9250  -12.4160   20.3680 C   0  0  0  0  0  2  0  0  0  0  0  0
  -30.2310  -12.8110   19.8010 N   0  0  0  0  0  0  0  0  0  0  0  0
  -31.7310  -14.4390   19.2390 O   0  0  0  0  0  0  0  0  0  0  0  0
  -29.4210  -14.8710   19.7200 N   0  0  0  0  0  0  0  0  0  0  0  0
  -28.7440  -14.1320   19.8540 H   0  0  0  0  0  0  0  0  0  0  0  0
  -25.5840  -13.3610   19.7250 C   0  0  0  0  0  0  0  0  0  0  0  0
  -24.4610  -12.7570   20.2130 C   0  0  0  0  0  0  0  0  0  0  0  0
  -24.8040  -11.3810   20.3980 C   0  0  0  0  0  0  0  0  0  0  0  0
  -26.5460  -12.3560   19.6560 N   0  0  0  0  0  0  0  0  0  0  0  0
  -26.0820  -11.1780   20.1260 N   0  0  0  0  0  0  0  0  0  0  0  0
  -23.9750  -10.2290   20.7340 C   0  0  0  0  0  0  0  0  0  0  0  0
  -24.3900   -9.2910   21.7040 C   0  0  0  0  0  3  0  0  0  0  0  0
  -23.5760   -8.1850   22.0220 C   0  0  0  0  0  3  0  0  0  0  0  0
  -22.3310   -8.0140   21.3640 C   0  0  0  0  0  0  0  0  0  0  0  0
  -21.9350   -8.9350   20.3780 C   0  0  0  0  0  3  0  0  0  0  0  0
  -22.7540  -10.0320   20.0630 C   0  0  0  0  0  3  0  0  0  0  0  0
  -21.4810   -6.9600   21.5890 O   0  0  0  0  0  0  0  0  0  0  0  0
  -21.5520   -6.2200   22.7410 C   0  0  0  0  0  0  0  0  0  0  0  0
  -21.3360   -6.7940   24.0080 C   0  0  0  0  0  3  0  0  0  0  0  0
  -21.3450   -5.9820   25.1650 C   0  0  0  0  0  3  0  0  0  0  0  0
  -21.5640   -4.6000   25.0490 C   0  0  0  0  0  0  0  0  0  0  0  0
  -21.7760   -4.0200   23.7820 C   0  0  0  0  0  3  0  0  0  0  0  0
  -21.7670   -4.8280   22.6330 C   0  0  0  0  0  0  0  0  0  0  0  0
  -21.9510   -4.2690   21.4140 F   0  0  0  0  0  0  0  0  0  0  0  0
  -21.5630   -3.8140   26.1510 F   0  0  0  0  0  0  0  0  0  0  0  0
  -23.1030  -13.3800   20.3750 C   0  0  0  0  0  0  0  0  0  0  0  0
  -22.3340  -12.9320   21.3590 N   0  0  0  0  0  0  0  0  0  0  0  0
  -22.7310  -14.3030   19.6500 O   0  0  0  0  0  0  0  0  0  0  0  0
  -22.6370  -12.1870   21.9660 H   0  0  0  0  0  0  0  0  0  0  0  0
  -21.4260  -13.3420   21.5140 H   0  0  0  0  0  0  0  0  0  0  0  0
  -25.8300  -14.6550   19.2750 N   0  0  0  0  0  4  0  0  0  0  0  0
  -24.9670  -15.1750   19.1360 H   0  0  0  0  0  0  0  0  0  0  0  0
  -26.3830  -14.6530   18.4290 H   0  0  0  0  0  0  0  0  0  0  0  0
  -25.9950  -16.1560   20.0800 C   0  0  0  0  0  2  0  0  0  0  0  0
  -27.3040  -15.8980   20.8740 C   0  0  0  0  0  3  0  0  0  0  0  0
  -25.8530  -14.6060   22.5750 C   0  0  0  0  0  1  0  0  0  0  0  0
  -27.0770  -14.5630   21.6260 C   0  0  0  0  0  2  0  0  0  0  0  0
  1 21  1  0
  2  1  1  0
  3  2  1  0
  4  2  1  0
  5 14  1  0
  5  2  1  0
  5  6  1  0
  6  7  1  0
  6 11  1  0
  8  7  1  0
  9  7  1  0
 11 13  1  0
 11 10  1  0
 13 12  1  0
 14 15  1  0
 16 17  1  0
 16 15  1  0
 17 19  1  0
 18 16  2  0
 20 17  1  0
 22 21  1  0
 22 23  1  0
 24 23  1  0
 24 25  1  0
 25 27  1  0
 25 26  1  0
 28 25  1  0
 28 29  1  0
 30 31  1  0
 30 29  1  0
 32 43  2  0
 33 31  1  0
 33 38  1  0
 34 44  1  0
 34 42  1  0
 35 41  1  0
 35 37  1  0
 36 42  1  0
 37 38  2  0
 37 36  1  0
 39 33  2  0
 40 39  1  0
 40 35  2  0
 41 34  1  0
 42 32  1  0
 44 46  2  0
 45 44  1  0
 47 45  1  0
 48 53  1  0
 49 45  1  0
 50 49  1  0
 51 52  1  0
 51 50  1  0
 52 48  1  0
 53 49  1  0
 53 54  2  0
 55 54  1  0
 56 55  2  0
 57 48  2  0
 57 56  1  0
 58 32  1  0
 58 59  1  0
 58 68  1  0
 59 62  1  0
 60 64  1  0
 60 59  1  0
 61 60  2  0
 64 63  1  0
 64 66  1  0
 66 65  1  0
 67 66  1  0
 68 70  1  6
 68 69  1  0
 68 71  1  0
 72  1  1  0
 72112  1  0
 73 81  1  0
 73 79  1  0
 74 79  1  0
 75 76  1  0
 75 74  1  0
 77 76  1  0
 77 86  1  0
 77 78  1  0
 79 78  1  0
 80 73  2  0
 81 82  1  0
 81 72  1  0
 83 84  2  0
 84103  1  0
 84 85  1  0
 85 88  1  0
 86 83  1  0
 86 87  1  0
 87 85  2  0
 88 89  1  0
 89 90  2  0
 91 94  1  0
 91 90  1  0
 92 91  2  0
 93 92  1  0
 93 88  2  0
 94 95  1  0
 95 96  1  0
 96 97  2  0
 98 97  1  0
 98102  1  0
 99 98  2  0
100 95  2  0
100 99  1  0
101100  1  0
103104  1  0
104107  1  0
104106  1  0
105103  2  0
108 83  1  0
108111  1  0
109108  1  0
110108  1  0
111112  1  0
112114  1  0
114113  1  0
M  ISO  4  30 101  31 101  73 100  81 100
M  END
>  <TORSDO>  (24) 
F 36

>  <SCORE>  (24) 
-5.227

>  <name>  (24) 
23

>  <ligand_id>  (24) 
23

>  <original_smiles>  (24) 
[H]c1c([H])c([H])c2c(c1[H])C([H])([H])C([H])([H])C([H])([H])C2([H])N([H])C(=O)C1([H])N(C(=O)C([H])(N([H])C(=O)C([H])(N([H])C([H])([H])[H])C([H])([H])[H])C(C([H])([H])[H])(C([H])([H])[H])C([H])([H])[H])C([H])([H])c2c([H])c(OC([H])([H])C([H])([H])C([H])([H])[N+]([H])([H])C([H])([H])C([H])([H])C([H])([H])C([H])([H])C([H])(C([H])(N([H])C(=O)N3C([H])([H])C([H])([H])C([H])([H])C([H])(n4nc(-c5c([H])c([H])c(Oc6c([H])c([H])c(F)c([H])c6F)c([H])c5[H])c(C(=O)N([H])[H])c4N([H])[H])C3([H])[H])C([H])(C([H])([H])[H])C([H])([H])C([H])([H])[H])[N+]([H])([H])C([H])(C([H])([H])C([H])([H])C(=O)N([H])[H])C([H])(N([H])[H])C([H])(C([H])([H])[H])C([H])([H])C([H])([H])[H])c([H])c([H])c2C1([H])[H]

>  <smiles>  (24) 
[H]c1c([H])c([H])c2c(c1[H])C([H])([H])C([H])([H])C([H])([H])C2([H])N([H])C(=O)C1([H])N(C(=O)C([H])(N([H])C(=O)C([H])(N([H])C([H])([H])[H])C([H])([H])[H])C(C([H])([H])[H])(C([H])([H])[H])C([H])([H])[H])C([H])([H])c2c([H])c(OC([H])([H])C([H])([H])C([H])([H])[N+]([H])([H])C([H])([H])C([H])([H])C([H])([H])C([H])([H])C([H])(C([H])(N([H])C(=O)N3C([H])([H])C([H])([H])C([H])([H])C([H])(n4nc(-c5c([H])c([H])c(Oc6c([H])c([H])c(F)c([H])c6F)c([H])c5[H])c(C(=O)N([H])[H])c4N([H])[H])C3([H])[H])C([H])(C([H])([H])[H])C([H])([H])C([H])([H])[H])[N+]([H])([H])C([H])(C([H])([H])C([H])([H])C(=O)N([H])[H])C([H])(N([H])[H])C([H])(C([H])([H])[H])C([H])([H])C([H])([H])[H])c([H])c([H])c2C1([H])[H]

$$$$
24:0:0
     RDKit          3D

100107  0  0  1  0  0  0  0  0999 V2000
  -28.2050  -20.2480   20.4140 C   0  0  0  0  0  3  0  0  0  0  0  0
  -29.2400  -17.9640   20.4210 C   0  0  0  0  0  0  0  0  0  0  0  0
  -29.3380  -19.3050   20.4700 N   0  0  0  0  0  0  0  0  0  0  0  0
  -28.1560  -17.3750   20.4050 O   0  0  0  0  0  0  0  0  0  0  0  0
  -30.2690  -19.7030   20.4880 H   0  0  0  0  0  0  0  0  0  0  0  0
  -30.5360  -17.1370   20.3670 C   0  0  0  0  0  3  0  0  0  0  0  0
  -30.8070  -14.6770   19.9290 C   0  0  0  0  0  0  0  0  0  0  0  0
  -30.6370  -12.2850   19.3330 C   0  0  0  0  0  2  0  0  0  0  0  0
  -29.6950  -12.0890   18.1300 C   0  0  0  0  0  2  0  0  0  0  0  0
  -28.2330  -11.9640   18.5970 C   0  0  0  0  0  2  0  0  0  0  0  0
  -27.8230  -13.0900   19.5830 C   0  0  0  0  0  3  0  0  0  0  0  0
  -28.8740  -13.2440   20.7040 C   0  0  0  0  0  2  0  0  0  0  0  0
  -30.1900  -13.4740   20.0760 N   0  0  0  0  0  0  0  0  0  0  0  0
  -31.8560  -14.8240   19.2970 O   0  0  0  0  0  0  0  0  0  0  0  0
  -30.1720  -15.7190   20.4780 N   0  0  0  0  0  0  0  0  0  0  0  0
  -29.2850  -15.5390   20.9220 H   0  0  0  0  0  0  0  0  0  0  0  0
  -25.5170  -13.7840   20.4980 C   0  0  0  0  0  0  0  0  0  0  0  0
  -24.4220  -13.0500   20.8670 C   0  0  0  0  0  0  0  0  0  0  0  0
  -24.7850  -11.6810   20.6870 C   0  0  0  0  0  0  0  0  0  0  0  0
  -26.4840  -12.8630   20.1250 N   0  0  0  0  0  0  0  0  0  0  0  0
  -26.0480  -11.5880   20.2920 N   0  0  0  0  0  0  0  0  0  0  0  0
  -23.9860  -10.4540   20.8130 C   0  0  0  0  0  0  0  0  0  0  0  0
  -24.3200   -9.4490   21.7470 C   0  0  0  0  0  3  0  0  0  0  0  0
  -23.5250   -8.2880   21.8640 C   0  0  0  0  0  3  0  0  0  0  0  0
  -22.3840   -8.1240   21.0440 C   0  0  0  0  0  0  0  0  0  0  0  0
  -22.0690   -9.1170   20.1010 C   0  0  0  0  0  3  0  0  0  0  0  0
  -22.8630  -10.2700   19.9830 C   0  0  0  0  0  3  0  0  0  0  0  0
  -21.5700   -7.0170   21.0690 O   0  0  0  0  0  0  0  0  0  0  0  0
  -21.3200   -6.3330   22.2310 C   0  0  0  0  0  0  0  0  0  0  0  0
  -20.7270   -6.9560   23.3510 C   0  0  0  0  0  3  0  0  0  0  0  0
  -20.4240   -6.1990   24.5000 C   0  0  0  0  0  3  0  0  0  0  0  0
  -20.7060   -4.8190   24.5300 C   0  0  0  0  0  0  0  0  0  0  0  0
  -21.2930   -4.1960   23.4140 C   0  0  0  0  0  3  0  0  0  0  0  0
  -21.5970   -4.9510   22.2670 C   0  0  0  0  0  0  0  0  0  0  0  0
  -22.1420   -4.3410   21.1870 F   0  0  0  0  0  0  0  0  0  0  0  0
  -20.4090   -4.0900   25.6310 F   0  0  0  0  0  0  0  0  0  0  0  0
  -23.0800  -13.5880   21.2760 C   0  0  0  0  0  0  0  0  0  0  0  0
  -22.3640  -12.8640   22.1290 N   0  0  0  0  0  0  0  0  0  0  0  0
  -22.6800  -14.6810   20.8770 O   0  0  0  0  0  0  0  0  0  0  0  0
  -22.7020  -11.9770   22.4710 H   0  0  0  0  0  0  0  0  0  0  0  0
  -21.4660  -13.2020   22.4450 H   0  0  0  0  0  0  0  0  0  0  0  0
  -25.7680  -15.1510   20.4350 N   0  0  0  0  0  0  0  0  0  0  0  0
  -25.0710  -15.8450   20.6790 H   0  0  0  0  0  0  0  0  0  0  0  0
  -26.6610  -15.5590   20.1810 H   0  0  0  0  0  0  0  0  0  0  0  0
  -31.5570  -17.4880   21.4770 C   0  0  0  0  0  2  0  0  0  0  0  0
  -32.2800  -19.8520   20.8070 C   0  0  0  0  0  1  0  0  0  0  0  0
  -32.4070  -19.1150   23.2160 C   0  0  0  0  0  1  0  0  0  0  0  0
  -31.6370  -18.9740   21.8940 C   0  0  0  0  0  3  0  0  0  0  0  0
  -28.2830  -21.3630   21.5030 C   0  0  0  0  0  2  0  0  0  0  0  0
  -28.9990  -22.6870   21.1600 C   0  0  0  0  0  0  0  0  0  0  0  0
  -28.2900  -23.8080   21.3600 N   0  0  0  0  0  0  0  0  0  0  0  0
  -30.1610  -22.6960   20.7510 O   0  0  0  0  0  0  0  0  0  0  0  0
  -27.3490  -23.6880   21.7100 H   0  0  0  0  0  0  0  0  0  0  0  0
  -28.7180  -25.1950   21.1650 C   0  0  0  0  0  2  0  0  0  0  0  0
  -28.3800  -25.7230   19.7590 C   0  0  0  0  0  2  0  0  0  0  0  0
  -28.3360  -27.1570   19.7790 O   0  0  0  0  0  0  0  0  0  0  0  0
  -24.5150  -32.0590   23.2570 C   0  0  0  0  0  0  0  0  0  0  0  0
  -27.1220  -27.8090   19.8780 C   0  0  0  0  0  0  0  0  0  0  0  0
  -23.2760  -30.7230   21.5860 C   0  0  0  0  0  3  0  0  0  0  0  0
  -24.7020  -29.2730   20.0480 C   0  0  0  0  0  0  0  0  0  0  0  0
  -25.7900  -31.1220   21.3300 C   0  0  0  0  0  2  0  0  0  0  0  0
  -25.8710  -29.7850   20.6230 C   0  0  0  0  0  0  0  0  0  0  0  0
  -27.0810  -29.0610   20.5340 C   0  0  0  0  0  3  0  0  0  0  0  0
  -25.9300  -27.3130   19.2950 C   0  0  0  0  0  3  0  0  0  0  0  0
  -24.7250  -28.0350   19.3850 C   0  0  0  0  0  3  0  0  0  0  0  0
  -23.4490  -30.1120   20.1710 C   0  0  0  0  0  2  0  0  0  0  0  0
  -24.5470  -31.3150   22.1160 N   0  0  0  0  0  0  0  0  0  0  0  0
  -23.4480  -32.2910   23.8420 O   0  0  0  0  0  0  0  0  0  0  0  0
  -22.6670  -29.6490   22.5160 C   0  0  0  0  0  0  0  0  0  0  0  0
  -21.3490  -29.4270   22.3940 N   0  0  0  0  0  0  0  0  0  0  0  0
  -23.3790  -29.0150   23.2990 O   0  0  0  0  0  0  0  0  0  0  0  0
  -20.8350  -29.9900   21.7310 H   0  0  0  0  0  0  0  0  0  0  0  0
  -18.0190  -28.1150   22.8800 C   0  0  0  0  0  0  0  0  0  0  0  0
  -20.5700  -28.4380   23.1380 C   0  0  0  0  0  3  0  0  0  0  0  0
  -20.7090  -27.0330   22.5090 C   0  0  0  0  0  2  0  0  0  0  0  0
  -19.6060  -26.7160   21.4930 C   0  0  0  0  0  2  0  0  0  0  0  0
  -18.2260  -26.7980   22.1530 C   0  0  0  0  0  2  0  0  0  0  0  0
  -19.1180  -28.8940   23.3290 C   0  0  0  0  0  0  0  0  0  0  0  0
  -18.8660  -30.1280   23.9670 C   0  0  0  0  0  3  0  0  0  0  0  0
  -17.5490  -30.5850   24.1590 C   0  0  0  0  0  3  0  0  0  0  0  0
  -16.4640  -29.8020   23.7270 C   0  0  0  0  0  3  0  0  0  0  0  0
  -16.7000  -28.5700   23.0920 C   0  0  0  0  0  3  0  0  0  0  0  0
  -25.8140  -32.6740   23.8660 C   0  0  0  0  0  3  0  0  0  0  0  0
  -26.3420  -31.8860   25.1260 C   0  0  1  0  0  0  0  0  0  0  0  0
  -25.2550  -31.6290   26.1940 C   0  0  0  0  0  1  0  0  0  0  0  0
  -26.9290  -30.5190   24.7100 C   0  0  0  0  0  1  0  0  0  0  0  0
  -27.4960  -32.6770   25.7890 C   0  0  0  0  0  1  0  0  0  0  0  0
  -25.5190  -34.0700   24.2090 N   0  0  0  0  0  0  0  0  0  0  0  0
  -25.8530  -35.1260   23.4550 C   0  0  0  0  0  0  0  0  0  0  0  0
  -26.5120  -35.0250   22.4150 O   0  0  0  0  0  0  0  0  0  0  0  0
  -24.9240  -34.2220   25.0090 H   0  0  0  0  0  0  0  0  0  0  0  0
  -24.1300  -36.9300   23.1400 C   0  0  0  0  0  1  0  0  0  0  0  0
  -25.3840  -36.5140   23.9270 C   0  0  0  0  0  3  0  0  0  0  0  0
  -27.5390  -37.3800   24.7240 C   0  0  0  0  0  1  0  0  0  0  0  0
  -26.4200  -37.5620   23.8020 N   0  0  0  0  0  0  0  0  0  0  0  0
  -26.0230  -38.4840   23.9630 H   0  0  0  0  0  0  0  0  0  0  0  0
  -27.9740  -20.7490   18.9650 C   0  0  0  0  0  2  0  0  0  0  0  0
  -26.2920  -19.0070   18.1240 C   0  0  0  0  0  1  0  0  0  0  0  0
  -27.8080  -20.1920   16.4930 C   0  0  0  0  0  1  0  0  0  0  0  0
  -27.6760  -19.6450   17.9220 C   0  0  0  0  0  3  0  0  0  0  0  0
  1 97  1  0
  1  3  1  0
  1 49  1  0
  2  3  1  0
  3  5  1  0
  4  2  2  0
  6  2  1  0
  6 15  1  0
  6 45  1  0
  7 13  1  0
  7 15  1  0
  8 13  1  0
  9 10  1  0
  9  8  1  0
 11 10  1  0
 11 20  1  0
 11 12  1  0
 13 12  1  0
 14  7  2  0
 15 16  1  0
 17 18  2  0
 18 37  1  0
 19 22  1  0
 19 18  1  0
 20 21  1  0
 20 17  1  0
 21 19  2  0
 22 23  1  0
 23 24  2  0
 25 28  1  0
 25 24  1  0
 26 25  2  0
 27 26  1  0
 27 22  2  0
 28 29  1  0
 29 34  2  0
 29 30  1  0
 30 31  2  0
 31 32  1  0
 32 36  1  0
 33 32  2  0
 34 33  1  0
 35 34  1  0
 37 38  1  0
 38 41  1  0
 38 40  1  0
 39 37  2  0
 42 17  1  0
 42 43  1  0
 44 42  1  0
 45 48  1  0
 46 48  1  0
 48 47  1  0
 50 51  1  0
 50 49  1  0
 51 53  1  0
 52 50  2  0
 54 51  1  0
 55 56  1  0
 55 54  1  0
 56 58  1  0
 57 68  2  0
 58 63  1  0
 59 67  1  0
 59 69  1  0
 60 66  1  0
 60 62  1  0
 61 67  1  0
 62 61  1  0
 63 62  2  0
 64 65  1  0
 64 58  2  0
 65 60  2  0
 66 59  1  0
 67 57  1  0
 69 71  2  0
 70 69  1  0
 72 70  1  0
 73 82  2  0
 73 78  1  0
 74 70  1  0
 74 78  1  0
 75 74  1  0
 76 77  1  0
 76 75  1  0
 77 73  1  0
 78 79  2  0
 79 80  1  0
 81 80  2  0
 82 81  1  0
 83 57  1  0
 83 88  1  0
 83 84  1  0
 84 87  1  1
 84 85  1  0
 86 84  1  0
 88 91  1  0
 89 93  1  0
 89 88  1  0
 90 89  2  0
 93 92  1  0
 95 93  1  0
 95 96  1  0
 95 94  1  0
 99100  1  0
100 98  1  0
100 97  1  0
M  ISO  4   7 100  15 100  55 101  56 101
M  END
>  <TORSDO>  (25) 
F 26

>  <SCORE>  (25) 
-10.299

>  <name>  (25) 
24

>  <ligand_id>  (25) 
24

>  <original_smiles>  (25) 
[H]c1c([H])c([H])c2c(c1[H])C([H])([H])C([H])([H])C([H])([H])C2([H])N([H])C(=O)C1([H])N(C(=O)C([H])(N([H])C(=O)C([H])(N([H])C([H])([H])[H])C([H])([H])[H])C(C([H])([H])[H])(C([H])([H])[H])C([H])([H])[H])C([H])([H])c2c([H])c(OC([H])([H])C([H])([H])N([H])C(=O)C([H])([H])C([H])(N([H])C(=O)C([H])(N([H])C(=O)N3C([H])([H])C([H])([H])C([H])([H])C([H])(n4nc(-c5c([H])c([H])c(Oc6c([H])c([H])c(F)c([H])c6F)c([H])c5[H])c(C(=O)N([H])[H])c4N([H])[H])C3([H])[H])C([H])([H])C([H])(C([H])([H])[H])C([H])([H])[H])C([H])([H])C([H])(C([H])([H])[H])C([H])([H])[H])c([H])c([H])c2C1([H])[H]

>  <smiles>  (25) 
[H]c1c([H])c([H])c2c(c1[H])C([H])([H])C([H])([H])C([H])([H])C2([H])N([H])C(=O)C1([H])N(C(=O)C([H])(N([H])C(=O)C([H])(N([H])C([H])([H])[H])C([H])([H])[H])C(C([H])([H])[H])(C([H])([H])[H])C([H])([H])[H])C([H])([H])c2c([H])c(OC([H])([H])C([H])([H])N([H])C(=O)C([H])([H])C([H])(N([H])C(=O)C([H])(N([H])C(=O)N3C([H])([H])C([H])([H])C([H])([H])C([H])(n4nc(-c5c([H])c([H])c(Oc6c([H])c([H])c(F)c([H])c6F)c([H])c5[H])c(C(=O)N([H])[H])c4N([H])[H])C3([H])[H])C([H])([H])C([H])(C([H])([H])[H])C([H])([H])[H])C([H])([H])C([H])(C([H])([H])[H])C([H])([H])[H])c([H])c([H])c2C1([H])[H]

$$$$
25:0:0
     RDKit          3D

108115  0  0  1  0  0  0  0  0999 V2000
  -26.9000  -22.1090   17.6680 C   0  0  0  0  0  3  0  0  0  0  0  0
  -26.3670  -23.4910   17.8330 N   0  0  0  0  0  4  0  0  0  0  0  0
  -27.1270  -24.1160   17.6080 H   0  0  0  0  0  0  0  0  0  0  0  0
  -26.1750  -23.6090   18.8160 H   0  0  0  0  0  0  0  0  0  0  0  0
  -25.4170  -25.4140   16.6430 C   0  0  0  0  0  1  0  0  0  0  0  0
  -24.7200  -23.1490   15.8740 C   0  0  0  0  0  1  0  0  0  0  0  0
  -23.9790  -23.9920   18.1200 C   0  0  0  0  0  1  0  0  0  0  0  0
  -25.1440  -23.9700   17.1160 C   0  0  1  0  0  0  0  0  0  0  0  0
  -26.9260  -21.4110   19.0680 C   0  0  0  0  0  2  0  0  0  0  0  0
  -25.7650  -19.1330   19.0920 C   0  0  0  0  0  1  0  0  0  0  0  0
  -27.1170  -19.8720   19.0530 C   0  0  0  0  0  3  0  0  0  0  0  0
  -28.0730  -19.3760   20.1690 C   0  0  0  0  0  2  0  0  0  0  0  0
  -28.8230  -18.1790   19.7240 N   0  0  0  0  0  4  0  0  0  0  0  0
  -29.3960  -18.4250   18.9320 H   0  0  0  0  0  0  0  0  0  0  0  0
  -28.1470  -17.5040   19.4020 H   0  0  0  0  0  0  0  0  0  0  0  0
  -30.8420  -18.3900   21.2120 C   0  0  0  0  0  1  0  0  0  0  0  0
  -29.6780  -17.4990   20.7280 C   0  0  0  0  0  3  0  0  0  0  0  0
  -30.2030  -16.1890   20.1060 C   0  0  0  0  0  2  0  0  0  0  0  0
  -30.7600  -15.1450   21.0930 C   0  0  0  0  0  2  0  0  0  0  0  0
  -31.2830  -13.9420   20.2950 C   0  0  0  0  0  0  0  0  0  0  0  0
  -30.7790  -11.9210   18.9760 C   0  0  0  0  0  2  0  0  0  0  0  0
  -29.8340  -12.2900   17.8130 C   0  0  0  0  0  2  0  0  0  0  0  0
  -28.3600  -12.2320   18.2650 C   0  0  0  0  0  2  0  0  0  0  0  0
  -28.1150  -13.0040   19.5890 C   0  0  0  0  0  3  0  0  0  0  0  0
  -29.1660  -12.6080   20.6510 C   0  0  0  0  0  2  0  0  0  0  0  0
  -30.5070  -12.8420   20.0900 N   0  0  0  0  0  0  0  0  0  0  0  0
  -32.3750  -14.0890   19.7400 O   0  0  0  0  0  0  0  0  0  0  0  0
  -25.7550  -13.7510   20.3070 C   0  0  0  0  0  0  0  0  0  0  0  0
  -24.6540  -13.0420   20.7030 C   0  0  0  0  0  0  0  0  0  0  0  0
  -25.0470  -11.6680   20.6890 C   0  0  0  0  0  0  0  0  0  0  0  0
  -26.7530  -12.8140   20.0810 N   0  0  0  0  0  0  0  0  0  0  0  0
  -26.3290  -11.5580   20.3650 N   0  0  0  0  0  0  0  0  0  0  0  0
  -24.2650  -10.4450   20.9080 C   0  0  0  0  0  0  0  0  0  0  0  0
  -24.6460   -9.4920   21.8780 C   0  0  0  0  0  3  0  0  0  0  0  0
  -23.8680   -8.3310   22.0840 C   0  0  0  0  0  3  0  0  0  0  0  0
  -22.6990   -8.1160   21.3170 C   0  0  0  0  0  0  0  0  0  0  0  0
  -22.3370   -9.0580   20.3360 C   0  0  0  0  0  3  0  0  0  0  0  0
  -23.1150  -10.2080   20.1300 C   0  0  0  0  0  3  0  0  0  0  0  0
  -21.9000   -7.0040   21.4280 O   0  0  0  0  0  0  0  0  0  0  0  0
  -21.7560   -6.3380   22.6190 C   0  0  0  0  0  0  0  0  0  0  0  0
  -21.2730   -6.9800   23.7800 C   0  0  0  0  0  3  0  0  0  0  0  0
  -21.0740   -6.2390   24.9630 C   0  0  0  0  0  3  0  0  0  0  0  0
  -21.3510   -4.8610   24.9860 C   0  0  0  0  0  0  0  0  0  0  0  0
  -21.8270   -4.2170   23.8290 C   0  0  0  0  0  3  0  0  0  0  0  0
  -22.0270   -4.9540   22.6490 C   0  0  0  0  0  0  0  0  0  0  0  0
  -22.4680   -4.3250   21.5310 F   0  0  0  0  0  0  0  0  0  0  0  0
  -21.1510   -4.1480   26.1180 F   0  0  0  0  0  0  0  0  0  0  0  0
  -23.2850  -13.5900   20.9890 C   0  0  0  0  0  0  0  0  0  0  0  0
  -22.5490  -12.9600   21.8940 N   0  0  0  0  0  0  0  0  0  0  0  0
  -22.8790  -14.6170   20.4460 O   0  0  0  0  0  0  0  0  0  0  0  0
  -22.8850  -12.1280   22.3570 H   0  0  0  0  0  0  0  0  0  0  0  0
  -21.6330  -13.3150   22.1320 H   0  0  0  0  0  0  0  0  0  0  0  0
  -25.9900  -15.1050   20.1010 N   0  0  0  0  0  0  0  0  0  0  0  0
  -25.2740  -15.8170   20.2020 H   0  0  0  0  0  0  0  0  0  0  0  0
  -26.8620  -15.4570   19.7370 H   0  0  0  0  0  0  0  0  0  0  0  0
  -28.2710  -22.1600   16.8790 C   0  0  0  0  0  3  0  0  0  0  0  0
  -30.5440  -22.6540   18.0350 C   0  0  0  0  0  1  0  0  0  0  0  0
  -29.7480  -24.0540   16.0490 C   0  0  0  0  0  1  0  0  0  0  0  0
  -29.3130  -23.2730   17.3180 C   0  0  1  0  0  0  0  0  0  0  0  0
  -28.6670  -24.1630   18.2580 O   0  0  0  0  0  0  0  0  0  0  0  0
  -29.2930  -25.1710   18.9390 C   0  0  0  0  0  0  0  0  0  0  0  0
  -30.3180  -25.7650   18.5970 O   0  0  0  0  0  0  0  0  0  0  0  0
  -28.6210  -25.4840   20.2740 C   0  0  0  0  0  2  0  0  0  0  0  0
  -28.5720  -26.8940   20.4730 O   0  0  0  0  0  0  0  0  0  0  0  0
  -24.5390  -31.8250   23.5580 C   0  0  0  0  0  0  0  0  0  0  0  0
  -27.3500  -27.5240   20.4550 C   0  0  0  0  0  0  0  0  0  0  0  0
  -23.3870  -30.4070   21.8870 C   0  0  0  0  0  3  0  0  0  0  0  0
  -24.9010  -28.9320   20.4650 C   0  0  0  0  0  0  0  0  0  0  0  0
  -25.9010  -30.8530   21.7140 C   0  0  0  0  0  2  0  0  0  0  0  0
  -26.0340  -29.4920   21.0660 C   0  0  0  0  0  0  0  0  0  0  0  0
  -27.2600  -28.7950   21.0580 C   0  0  0  0  0  3  0  0  0  0  0  0
  -26.1970  -26.9690   19.8510 C   0  0  0  0  0  3  0  0  0  0  0  0
  -24.9760  -27.6690   19.8570 C   0  0  0  0  0  3  0  0  0  0  0  0
  -23.6300  -29.7500   20.5020 C   0  0  0  0  0  2  0  0  0  0  0  0
  -24.6260  -31.0440   22.4440 N   0  0  0  0  0  0  0  0  0  0  0  0
  -23.4460  -32.0580   24.0900 O   0  0  0  0  0  0  0  0  0  0  0  0
  -22.7590  -29.3560   22.8280 C   0  0  0  0  0  0  0  0  0  0  0  0
  -21.4980  -28.9880   22.5530 N   0  0  0  0  0  0  0  0  0  0  0  0
  -23.4080  -28.8730   23.7580 O   0  0  0  0  0  0  0  0  0  0  0  0
  -21.0340  -29.4360   21.7750 H   0  0  0  0  0  0  0  0  0  0  0  0
  -18.3650  -27.1930   22.5640 C   0  0  0  0  0  0  0  0  0  0  0  0
  -20.7180  -27.9880   23.2790 C   0  0  0  0  0  3  0  0  0  0  0  0
  -21.1950  -26.5560   22.9390 C   0  0  0  0  0  2  0  0  0  0  0  0
  -20.4100  -25.9170   21.7900 C   0  0  0  0  0  2  0  0  0  0  0  0
  -18.9180  -25.8460   22.1330 C   0  0  0  0  0  2  0  0  0  0  0  0
  -19.2130  -28.2040   23.0900 C   0  0  0  0  0  0  0  0  0  0  0  0
  -18.6540  -29.4520   23.4410 C   0  0  0  0  0  3  0  0  0  0  0  0
  -17.2770  -29.6950   23.2810 C   0  0  0  0  0  3  0  0  0  0  0  0
  -16.4390  -28.6830   22.7770 C   0  0  0  0  0  3  0  0  0  0  0  0
  -16.9820  -27.4360   22.4240 C   0  0  0  0  0  3  0  0  0  0  0  0
  -25.8030  -32.4840   24.1960 C   0  0  0  0  0  3  0  0  0  0  0  0
  -25.5220  -33.9170   24.3520 N   0  0  0  0  0  0  0  0  0  0  0  0
  -25.9540  -34.8700   23.5170 C   0  0  0  0  0  0  0  0  0  0  0  0
  -26.7030  -34.6370   22.5630 O   0  0  0  0  0  0  0  0  0  0  0  0
  -24.8730  -34.1750   25.0810 H   0  0  0  0  0  0  0  0  0  0  0  0
  -24.3290  -36.6590   22.8260 C   0  0  0  0  0  1  0  0  0  0  0  0
  -25.4820  -36.3130   23.7810 C   0  0  0  0  0  3  0  0  0  0  0  0
  -27.5710  -37.2220   24.6960 C   0  0  0  0  0  1  0  0  0  0  0  0
  -26.5590  -37.3180   23.6480 N   0  0  0  0  0  0  0  0  0  0  0  0
  -26.1740  -38.2590   23.6610 H   0  0  0  0  0  0  0  0  0  0  0  0
  -26.2100  -31.8390   25.5780 C   0  0  1  0  0  0  0  0  0  0  0  0
  -25.0360  -31.7180   26.5740 C   0  0  0  0  0  1  0  0  0  0  0  0
  -26.7990  -30.4260   25.3660 C   0  0  0  0  0  1  0  0  0  0  0  0
  -27.3190  -32.6860   26.2440 C   0  0  0  0  0  1  0  0  0  0  0  0
  -28.9760  -20.7900   16.6140 C   0  0  0  0  0  2  0  0  0  0  0  0
  -29.3670  -18.9930   14.8950 C   0  0  0  0  0  1  0  0  0  0  0  0
  -27.4190  -18.7180   16.4350 C   0  0  0  0  0  1  0  0  0  0  0  0
  -28.2900  -19.7490   15.6940 C   0  0  0  0  0  3  0  0  0  0  0  0
  1  2  1  0
  1  9  1  0
  2  4  1  0
  3  2  1  0
  8  5  1  6
  6  8  1  0
  8  2  1  0
  8  7  1  0
 11  9  1  0
 11 10  1  0
 11 12  1  0
 13 12  1  0
 13 17  1  0
 14 13  1  0
 15 13  1  0
 17 16  1  0
 18 17  1  0
 18 19  1  0
 20 19  1  0
 21 26  1  0
 22 23  1  0
 22 21  1  0
 24 23  1  0
 24 31  1  0
 24 25  1  0
 26 20  1  0
 26 25  1  0
 27 20  2  0
 28 29  2  0
 29 48  1  0
 30 29  1  0
 30 33  1  0
 31 28  1  0
 31 32  1  0
 32 30  2  0
 33 34  1  0
 34 35  2  0
 36 39  1  0
 36 35  1  0
 37 36  2  0
 38 37  1  0
 38 33  2  0
 39 40  1  0
 40 45  2  0
 40 41  1  0
 41 42  2  0
 42 43  1  0
 43 47  1  0
 44 43  2  0
 45 44  1  0
 46 45  1  0
 48 49  1  0
 49 52  1  0
 49 51  1  0
 50 48  2  0
 53 54  1  0
 53 28  1  0
 55 53  1  0
 56105  1  0
 56 59  1  0
 56  1  1  0
 59 58  1  6
 59 57  1  0
 59 60  1  0
 60 61  1  0
 61 63  1  0
 62 61  2  0
 63 64  1  0
 65 76  2  0
 66 64  1  0
 66 71  1  0
 67 75  1  0
 67 77  1  0
 68 74  1  0
 68 70  1  0
 69 75  1  0
 70 69  1  0
 71 70  2  0
 72 73  1  0
 72 66  2  0
 73 68  2  0
 74 67  1  0
 75 65  1  0
 77 79  2  0
 78 77  1  0
 80 78  1  0
 81 86  1  0
 82 78  1  0
 83 82  1  0
 84 85  1  0
 84 83  1  0
 85 81  1  0
 86 82  1  0
 86 87  2  0
 88 87  1  0
 89 88  2  0
 90 81  2  0
 90 89  1  0
 91 65  1  0
 91 92  1  0
 91101  1  0
 92 95  1  0
 93 97  1  0
 93 92  1  0
 94 93  2  0
 97 96  1  0
 99100  1  0
 99 97  1  0
 99 98  1  0
101104  1  1
101102  1  0
103101  1  0
106108  1  0
108107  1  0
108105  1  0
M  ISO  4  19 100  20 100  63 101  64 101
M  END
>  <TORSDO>  (26) 
F 32

>  <SCORE>  (26) 
-8.080

>  <name>  (26) 
25

>  <ligand_id>  (26) 
25

>  <original_smiles>  (26) 
[H]c1c([H])c([H])c2c(c1[H])C([H])([H])C([H])([H])C([H])([H])C2([H])N([H])C(=O)C1([H])N(C(=O)C([H])(N([H])C(=O)C([H])(N([H])C([H])([H])[H])C([H])([H])[H])C(C([H])([H])[H])(C([H])([H])[H])C([H])([H])[H])C([H])([H])c2c([H])c(OC([H])([H])C(=O)OC(C([H])([H])[H])(C([H])([H])[H])C([H])(C([H])([H])C([H])(C([H])([H])[H])C([H])([H])[H])C([H])(C([H])([H])C([H])(C([H])([H])[H])C([H])([H])[N+]([H])([H])C([H])(C([H])([H])[H])C([H])([H])C([H])([H])C(=O)N3C([H])([H])C([H])([H])C([H])([H])C([H])(n4nc(-c5c([H])c([H])c(Oc6c([H])c([H])c(F)c([H])c6F)c([H])c5[H])c(C(=O)N([H])[H])c4N([H])[H])C3([H])[H])[N+]([H])([H])C(C([H])([H])[H])(C([H])([H])[H])C([H])([H])[H])c([H])c([H])c2C1([H])[H]

>  <smiles>  (26) 
[H]c1c([H])c([H])c2c(c1[H])C([H])([H])C([H])([H])C([H])([H])C2([H])N([H])C(=O)C1([H])N(C(=O)C([H])(N([H])C(=O)C([H])(N([H])C([H])([H])[H])C([H])([H])[H])C(C([H])([H])[H])(C([H])([H])[H])C([H])([H])[H])C([H])([H])c2c([H])c(OC([H])([H])C(=O)OC(C([H])([H])[H])(C([H])([H])[H])C([H])(C([H])([H])C([H])(C([H])([H])[H])C([H])([H])[H])C([H])(C([H])([H])C([H])(C([H])([H])[H])C([H])([H])[N+]([H])([H])C([H])(C([H])([H])[H])C([H])([H])C([H])([H])C(=O)N3C([H])([H])C([H])([H])C([H])([H])C([H])(n4nc(-c5c([H])c([H])c(Oc6c([H])c([H])c(F)c([H])c6F)c([H])c5[H])c(C(=O)N([H])[H])c4N([H])[H])C3([H])[H])[N+]([H])([H])C(C([H])([H])[H])(C([H])([H])[H])C([H])([H])[H])c([H])c([H])c2C1([H])[H]

$$$$
26:0:0
     RDKit          3D

112120  0  0  1  0  0  0  0  0999 V2000
  -31.4040  -21.7990   21.1940 C   0  0  0  0  0  3  0  0  0  0  0  0
  -31.3700  -21.2060   22.4070 N   0  0  0  0  0  0  0  0  0  0  0  0
  -32.0500  -21.1810   20.1710 N   0  0  0  0  0  0  0  0  0  0  0  0
  -31.7890  -20.2880   22.4420 H   0  0  0  0  0  0  0  0  0  0  0  0
  -32.0130  -21.6650   19.2820 H   0  0  0  0  0  0  0  0  0  0  0  0
  -31.7750  -24.2870   21.0760 C   0  0  0  0  0  2  0  0  0  0  0  0
  -31.3940  -25.5870   20.3280 C   0  0  0  0  0  2  0  0  0  0  0  0
  -30.0560  -23.1670   19.5590 C   0  0  0  0  0  2  0  0  0  0  0  0
  -30.7380  -23.1470   20.9380 C   0  0  0  0  0  3  0  0  0  0  0  0
  -29.3340  -24.5160   19.2300 C   0  0  0  0  0  3  0  0  0  0  0  0
  -29.8830  -25.7260   20.0660 C   0  0  0  0  0  3  0  0  0  0  0  0
  -29.4000  -24.7470   17.7080 C   0  0  0  0  0  0  0  0  0  0  0  0
  -28.2650  -24.6590   17.0200 N   0  0  0  0  0  0  0  0  0  0  0  0
  -30.4660  -24.9690   17.1340 O   0  0  0  0  0  0  0  0  0  0  0  0
  -27.3910  -24.4510   17.4810 H   0  0  0  0  0  0  0  0  0  0  0  0
  -28.2680  -24.7820   16.0180 H   0  0  0  0  0  0  0  0  0  0  0  0
  -29.6500  -27.0380   19.5080 O   0  0  0  0  0  0  0  0  0  0  0  0
  -25.0160  -30.8830   23.3090 C   0  0  0  0  0  0  0  0  0  0  0  0
  -28.3750  -27.5510   19.5970 C   0  0  0  0  0  0  0  0  0  0  0  0
  -24.0680  -29.6190   21.4070 C   0  0  0  0  0  3  0  0  0  0  0  0
  -25.7650  -28.6220   19.7840 C   0  0  0  0  0  0  0  0  0  0  0  0
  -26.4990  -30.4160   21.3610 C   0  0  0  0  0  2  0  0  0  0  0  0
  -26.8160  -29.2160   20.4930 C   0  0  0  0  0  0  0  0  0  0  0  0
  -28.1250  -28.6920   20.3940 C   0  0  0  0  0  3  0  0  0  0  0  0
  -27.3070  -26.9750   18.8790 C   0  0  0  0  0  3  0  0  0  0  0  0
  -26.0040  -27.5000   18.9720 C   0  0  0  0  0  3  0  0  0  0  0  0
  -24.3950  -29.2430   19.9380 C   0  0  0  0  0  2  0  0  0  0  0  0
  -25.2090  -30.3130   22.0860 N   0  0  0  0  0  0  0  0  0  0  0  0
  -23.9040  -30.8740   23.8520 O   0  0  0  0  0  0  0  0  0  0  0  0
  -23.5950  -28.3470   22.1480 C   0  0  0  0  0  0  0  0  0  0  0  0
  -22.4240  -27.8240   21.7470 N   0  0  0  0  0  0  0  0  0  0  0  0
  -24.2810  -27.8420   23.0410 O   0  0  0  0  0  0  0  0  0  0  0  0
  -21.9190  -28.3020   21.0150 H   0  0  0  0  0  0  0  0  0  0  0  0
  -19.7270  -25.4760   21.2240 C   0  0  0  0  0  0  0  0  0  0  0  0
  -21.8010  -26.6100   22.2720 C   0  0  0  0  0  3  0  0  0  0  0  0
  -22.5840  -25.3480   21.8390 C   0  0  0  0  0  2  0  0  0  0  0  0
  -22.0470  -24.7190   20.5500 C   0  0  0  0  0  2  0  0  0  0  0  0
  -20.5770  -24.3230   20.7180 C   0  0  0  0  0  2  0  0  0  0  0  0
  -20.3050  -26.5580   21.9400 C   0  0  0  0  0  0  0  0  0  0  0  0
  -19.4790  -27.6230   22.3560 C   0  0  0  0  0  3  0  0  0  0  0  0
  -18.1020  -27.6180   22.0750 C   0  0  0  0  0  3  0  0  0  0  0  0
  -17.5300  -26.5380   21.3810 C   0  0  0  0  0  3  0  0  0  0  0  0
  -18.3420  -25.4690   20.9590 C   0  0  0  0  0  3  0  0  0  0  0  0
  -26.1770  -31.5940   24.0720 C   0  0  0  0  0  3  0  0  0  0  0  0
  -26.7310  -30.7520   25.2860 C   0  0  1  0  0  0  0  0  0  0  0  0
  -25.6290  -30.2560   26.2530 C   0  0  0  0  0  1  0  0  0  0  0  0
  -27.5080  -29.5150   24.7800 C   0  0  0  0  0  1  0  0  0  0  0  0
  -27.7330  -31.6050   26.1000 C   0  0  0  0  0  1  0  0  0  0  0  0
  -25.6730  -32.8950   24.5280 N   0  0  0  0  0  0  0  0  0  0  0  0
  -26.0160  -34.0740   23.9900 C   0  0  0  0  0  0  0  0  0  0  0  0
  -26.8560  -34.1850   23.0950 O   0  0  0  0  0  0  0  0  0  0  0  0
  -24.9360  -32.8780   25.2190 H   0  0  0  0  0  0  0  0  0  0  0  0
  -24.2240  -35.7820   23.5520 C   0  0  0  0  0  1  0  0  0  0  0  0
  -25.3140  -35.3310   24.5370 C   0  0  0  0  0  3  0  0  0  0  0  0
  -27.1360  -36.2090   25.9260 C   0  0  0  0  0  1  0  0  0  0  0  0
  -26.2390  -36.4530   24.7990 N   0  0  0  0  0  0  0  0  0  0  0  0
  -25.7240  -37.3100   24.9840 H   0  0  0  0  0  0  0  0  0  0  0  0
  -32.9090  -19.9670   20.0980 C   0  0  0  0  0  2  0  0  0  0  0  0
  -32.6590  -18.8420   21.1330 C   0  0  0  0  0  2  0  0  0  0  0  0
  -31.4570  -17.9340   20.8130 C   0  0  0  0  0  2  0  0  0  0  0  0
  -31.7860  -16.7250   19.9050 C   0  0  0  0  0  3  0  0  0  0  0  0
  -32.1110  -14.3870   20.7630 C   0  0  0  0  0  0  0  0  0  0  0  0
  -31.8680  -11.9760   20.3920 C   0  0  0  0  0  2  0  0  0  0  0  0
  -31.1200  -11.7810   19.0580 C   0  0  0  0  0  2  0  0  0  0  0  0
  -29.5940  -11.8000   19.2760 C   0  0  0  0  0  2  0  0  0  0  0  0
  -29.1190  -13.0010   20.1380 C   0  0  0  0  0  3  0  0  0  0  0  0
  -29.9980  -13.1640   21.3990 C   0  0  0  0  0  2  0  0  0  0  0  0
  -31.4050  -13.2450   20.9670 N   0  0  0  0  0  0  0  0  0  0  0  0
  -33.3240  -14.4020   20.5440 O   0  0  0  0  0  0  0  0  0  0  0  0
  -31.3570  -15.4750   20.5530 N   0  0  0  0  0  0  0  0  0  0  0  0
  -30.3690  -15.3630   20.7240 H   0  0  0  0  0  0  0  0  0  0  0  0
  -26.7470  -13.9030   20.5730 C   0  0  0  0  0  0  0  0  0  0  0  0
  -25.5600  -13.2680   20.8250 C   0  0  0  0  0  0  0  0  0  0  0  0
  -25.8590  -11.8710   20.8520 C   0  0  0  0  0  0  0  0  0  0  0  0
  -27.6990  -12.8990   20.4650 N   0  0  0  0  0  0  0  0  0  0  0  0
  -27.1610  -11.6740   20.6890 N   0  0  0  0  0  0  0  0  0  0  0  0
  -24.9730  -10.7060   20.9650 C   0  0  0  0  0  0  0  0  0  0  0  0
  -25.1110   -9.7720   22.0160 C   0  0  0  0  0  3  0  0  0  0  0  0
  -24.2360   -8.6690   22.1140 C   0  0  0  0  0  3  0  0  0  0  0  0
  -23.2070   -8.4930   21.1590 C   0  0  0  0  0  0  0  0  0  0  0  0
  -23.0870   -9.4130   20.1010 C   0  0  0  0  0  3  0  0  0  0  0  0
  -23.9630  -10.5070   20.0020 C   0  0  0  0  0  3  0  0  0  0  0  0
  -22.3260   -7.4390   21.1600 O   0  0  0  0  0  0  0  0  0  0  0  0
  -21.9100   -6.8510   22.3270 C   0  0  0  0  0  0  0  0  0  0  0  0
  -21.1860   -7.5690   23.3050 C   0  0  0  0  0  3  0  0  0  0  0  0
  -20.7160   -6.9090   24.4590 C   0  0  0  0  0  3  0  0  0  0  0  0
  -20.9600   -5.5330   24.6320 C   0  0  0  0  0  0  0  0  0  0  0  0
  -21.6760   -4.8160   23.6560 C   0  0  0  0  0  3  0  0  0  0  0  0
  -22.1460   -5.4740   22.5060 C   0  0  0  0  0  0  0  0  0  0  0  0
  -22.8170   -4.7740   21.5590 F   0  0  0  0  0  0  0  0  0  0  0  0
  -20.5040   -4.8960   25.7350 F   0  0  0  0  0  0  0  0  0  0  0  0
  -24.2080  -13.9100   20.9390 C   0  0  0  0  0  0  0  0  0  0  0  0
  -23.3260  -13.3430   21.7550 N   0  0  0  0  0  0  0  0  0  0  0  0
  -23.9400  -14.9500   20.3370 O   0  0  0  0  0  0  0  0  0  0  0  0
  -23.5520  -12.5010   22.2640 H   0  0  0  0  0  0  0  0  0  0  0  0
  -22.4110  -13.7550   21.8720 H   0  0  0  0  0  0  0  0  0  0  0  0
  -27.0900  -15.2410   20.4050 N   0  0  0  0  0  0  0  0  0  0  0  0
  -26.3930  -15.9770   20.4230 H   0  0  0  0  0  0  0  0  0  0  0  0
  -28.0080  -15.5700   20.1380 H   0  0  0  0  0  0  0  0  0  0  0  0
  -29.6280  -16.6870   18.4720 C   0  0  0  0  0  1  0  0  0  0  0  0
  -31.8390  -16.0660   17.4090 C   0  0  0  0  0  1  0  0  0  0  0  0
  -31.1520  -16.9090   18.4950 C   0  0  0  0  0  3  0  0  0  0  0  0
  -30.7780  -21.6370   23.6880 C   0  0  0  0  0  3  0  0  0  0  0  0
  -28.5660  -20.3780   23.4870 C   0  0  0  0  0  1  0  0  0  0  0  0
  -29.8990  -20.4820   24.2630 C   0  0  0  0  0  3  0  0  0  0  0  0
  -28.9770  -19.3440   26.4010 C   0  0  0  0  0  1  0  0  0  0  0  0
  -29.6130  -20.6000   25.7820 C   0  0  0  0  0  2  0  0  0  0  0  0
  -31.8920  -22.1630   24.6310 C   0  0  0  0  0  2  0  0  0  0  0  0
  -33.1120  -21.3280   24.6480 N   0  0  0  0  0  4  0  0  0  0  0  0
  -32.9180  -20.3840   24.9280 H   0  0  0  0  0  0  0  0  0  0  0  0
  -33.7660  -21.7100   25.3080 H   0  0  0  0  0  0  0  0  0  0  0  0
  -33.5660  -21.3180   23.7520 H   0  0  0  0  0  0  0  0  0  0  0  0
  1  3  1  0
  1  2  1  0
  2  4  1  0
  2103  1  0
  5  3  1  0
  7  6  1  0
  8  9  1  0
  9  6  1  0
  9  1  1  0
 10 12  1  0
 10  8  1  0
 10 11  1  0
 11 17  1  0
 11  7  1  0
 13 15  1  0
 13 12  1  0
 14 12  2  0
 16 13  1  0
 17 19  1  0
 18 29  2  0
 19 24  1  0
 20 28  1  0
 20 30  1  0
 21 27  1  0
 21 23  1  0
 22 28  1  0
 23 22  1  0
 24 23  2  0
 25 26  1  0
 25 19  2  0
 26 21  2  0
 27 20  1  0
 28 18  1  0
 30 32  2  0
 31 30  1  0
 33 31  1  0
 34 39  1  0
 35 31  1  0
 36 35  1  0
 37 38  1  0
 37 36  1  0
 38 34  1  0
 39 35  1  0
 39 40  2  0
 41 40  1  0
 42 41  2  0
 43 34  2  0
 43 42  1  0
 44 18  1  0
 44 49  1  0
 44 45  1  0
 45 48  1  1
 45 46  1  0
 47 45  1  0
 49 52  1  0
 50 49  1  0
 50 54  1  0
 51 50  2  0
 54 53  1  0
 54 56  1  0
 56 57  1  0
 56 55  1  0
 58  3  1  0
 58 59  1  0
 60 59  1  0
 61 70  1  0
 61 60  1  0
 62 68  1  0
 63 68  1  0
 64 65  1  0
 64 63  1  0
 66 65  1  0
 66 75  1  0
 66 67  1  0
 68 67  1  0
 69 62  2  0
 70 71  1  0
 70 62  1  0
 72 73  2  0
 73 74  1  0
 73 92  1  0
 74 77  1  0
 75 72  1  0
 75 76  1  0
 76 74  2  0
 77 78  1  0
 78 79  2  0
 80 83  1  0
 80 79  1  0
 81 80  2  0
 82 81  1  0
 82 77  2  0
 83 84  1  0
 84 89  2  0
 84 85  1  0
 85 86  2  0
 86 87  1  0
 87 91  1  0
 88 87  2  0
 89 88  1  0
 90 89  1  0
 92 93  1  0
 93 96  1  0
 93 95  1  0
 94 92  2  0
 97 98  1  0
 97 72  1  0
 99 97  1  0
100102  1  0
101102  1  0
102 61  1  0
103105  1  0
103108  1  0
105104  1  0
105107  1  0
107106  1  0
108109  1  0
109110  1  0
109111  1  0
112109  1  0
M  ISO  4  11 101  17 101  62 100  70 100
M  END
>  <TORSDO>  (27) 
F 28

>  <SCORE>  (27) 
0.631

>  <name>  (27) 
26

>  <ligand_id>  (27) 
26

>  <original_smiles>  (27) 
[H]c1c([H])c([H])c2c(c1[H])C([H])([H])C([H])([H])C([H])([H])C2([H])N([H])C(=O)C1([H])N(C(=O)C([H])(N([H])C(=O)C([H])(N([H])C([H])([H])[H])C([H])([H])[H])C(C([H])([H])[H])(C([H])([H])[H])C([H])([H])[H])C([H])([H])c2c([H])c(OC3([H])C([H])([H])C([H])([H])C([H])(C(N([H])C([H])(C([H])(C([H])([H])[H])C([H])([H])C([H])([H])[H])C([H])([H])[N+]([H])([H])[H])=[N+]([H])C([H])([H])C([H])([H])C([H])([H])C([H])(N([H])C(=O)N4C([H])([H])C([H])([H])C([H])([H])C([H])(n5nc(-c6c([H])c([H])c(Oc7c([H])c([H])c(F)c([H])c7F)c([H])c6[H])c(C(=O)N([H])[H])c5N([H])[H])C4([H])[H])C([H])(C([H])([H])[H])C([H])([H])[H])C([H])([H])C3([H])C(=O)N([H])[H])c([H])c([H])c2C1([H])[H]

>  <smiles>  (27) 
[H]c1c([H])c([H])c2c(c1[H])C([H])([H])C([H])([H])C([H])([H])C2([H])N([H])C(=O)C1([H])N(C(=O)C([H])(N([H])C(=O)C([H])(N([H])C([H])([H])[H])C([H])([H])[H])C(C([H])([H])[H])(C([H])([H])[H])C([H])([H])[H])C([H])([H])c2c([H])c(OC3([H])C([H])([H])C([H])([H])C([H])(C(N([H])C([H])(C([H])(C([H])([H])[H])C([H])([H])C([H])([H])[H])C([H])([H])[N+]([H])([H])[H])=[N+]([H])C([H])([H])C([H])([H])C([H])([H])C([H])(N([H])C(=O)N4C([H])([H])C([H])([H])C([H])([H])C([H])(n5nc(-c6c([H])c([H])c(Oc7c([H])c([H])c(F)c([H])c7F)c([H])c6[H])c(C(=O)N([H])[H])c5N([H])[H])C4([H])[H])C([H])(C([H])([H])[H])C([H])([H])[H])C([H])([H])C3([H])C(=O)N([H])[H])c([H])c([H])c2C1([H])[H]

$$$$
27:0:0
     RDKit          3D

106114  0  0  1  0  0  0  0  0999 V2000
  -27.4680  -24.1420   21.4800 C   0  0  0  0  0  3  0  0  0  0  0  0
  -29.4250  -23.9000   19.9290 C   0  0  0  0  0  3  0  0  0  0  0  0
  -28.1160  -23.8990   20.1870 N   0  0  0  0  0  0  0  0  0  0  0  0
  -30.2850  -24.2140   20.7540 O   0  0  0  0  0  0  0  0  0  0  0  0
  -27.5230  -23.7390   19.3860 H   0  0  0  0  0  0  0  0  0  0  0  0
  -29.8090  -23.3970   18.5430 C   0  0  0  0  0  2  0  0  0  0  0  0
  -31.3160  -23.4710   18.2230 C   0  0  0  0  0  2  0  0  0  0  0  0
  -32.0400  -22.6680   20.4820 C   0  0  0  0  0  1  0  0  0  0  0  0
  -32.0750  -22.3540   18.9640 C   0  0  0  0  0  3  0  0  0  0  0  0
  -33.5230  -22.0630   18.4700 C   0  0  0  0  0  3  0  0  0  0  0  0
  -34.9790  -20.0820   19.1930 C   0  0  0  0  0  0  0  0  0  0  0  0
  -35.7660  -17.7550   19.3450 C   0  0  0  0  0  2  0  0  0  0  0  0
  -35.3280  -17.0380   18.0520 C   0  0  0  0  0  2  0  0  0  0  0  0
  -33.8930  -16.4820   18.1840 C   0  0  0  0  0  2  0  0  0  0  0  0
  -32.8900  -17.5400   18.7110 C   0  0  0  0  0  3  0  0  0  0  0  0
  -33.4700  -18.2220   19.9690 C   0  0  0  0  0  2  0  0  0  0  0  0
  -34.7780  -18.8040   19.6060 N   0  0  0  0  0  0  0  0  0  0  0  0
  -36.0870  -20.5630   18.9410 O   0  0  0  0  0  0  0  0  0  0  0  0
  -33.8320  -20.7130   18.9300 N   0  0  0  0  0  0  0  0  0  0  0  0
  -33.0140  -20.1680   19.1490 H   0  0  0  0  0  0  0  0  0  0  0  0
  -30.3260  -17.5790   18.9770 C   0  0  0  0  0  0  0  0  0  0  0  0
  -29.4170  -16.5770   19.1830 C   0  0  0  0  0  0  0  0  0  0  0  0
  -30.1740  -15.3680   19.2590 C   0  0  0  0  0  0  0  0  0  0  0  0
  -31.5690  -16.9640   18.9520 N   0  0  0  0  0  0  0  0  0  0  0  0
  -31.4700  -15.6270   19.1690 N   0  0  0  0  0  0  0  0  0  0  0  0
  -29.7380  -13.9690   19.3510 C   0  0  0  0  0  0  0  0  0  0  0  0
  -29.9110  -13.2180   20.5350 C   0  0  0  0  0  3  0  0  0  0  0  0
  -29.4710  -11.8780   20.5980 C   0  0  0  0  0  3  0  0  0  0  0  0
  -28.8490  -11.2790   19.4770 C   0  0  0  0  0  0  0  0  0  0  0  0
  -28.7030  -12.0250   18.2950 C   0  0  0  0  0  3  0  0  0  0  0  0
  -29.1460  -13.3570   18.2300 C   0  0  0  0  0  3  0  0  0  0  0  0
  -28.4110   -9.9770   19.4420 O   0  0  0  0  0  0  0  0  0  0  0  0
  -27.5750   -9.4750   20.4090 C   0  0  0  0  0  0  0  0  0  0  0  0
  -26.3640  -10.1130   20.7530 C   0  0  0  0  0  3  0  0  0  0  0  0
  -25.5040   -9.5250   21.7030 C   0  0  0  0  0  3  0  0  0  0  0  0
  -25.8480   -8.2980   22.3000 C   0  0  0  0  0  0  0  0  0  0  0  0
  -27.0500   -7.6580   21.9540 C   0  0  0  0  0  3  0  0  0  0  0  0
  -27.9100   -8.2440   21.0100 C   0  0  0  0  0  0  0  0  0  0  0  0
  -29.0590   -7.6130   20.6630 F   0  0  0  0  0  0  0  0  0  0  0  0
  -25.0170   -7.7290   23.2060 F   0  0  0  0  0  0  0  0  0  0  0  0
  -27.9200  -16.7120   19.2120 C   0  0  0  0  0  0  0  0  0  0  0  0
  -27.2420  -15.8520   19.9630 N   0  0  0  0  0  0  0  0  0  0  0  0
  -27.3460  -17.6130   18.5980 O   0  0  0  0  0  0  0  0  0  0  0  0
  -27.7180  -15.1230   20.4720 H   0  0  0  0  0  0  0  0  0  0  0  0
  -26.2380  -15.9220   20.0360 H   0  0  0  0  0  0  0  0  0  0  0  0
  -30.2020  -18.9530   18.7930 N   0  0  0  0  0  0  0  0  0  0  0  0
  -29.2980  -19.4060   18.7460 H   0  0  0  0  0  0  0  0  0  0  0  0
  -30.9640  -19.5600   18.5200 H   0  0  0  0  0  0  0  0  0  0  0  0
  -33.8300  -22.3150   16.9530 C   0  0  0  0  0  2  0  0  0  0  0  0
  -31.5870  -21.8180   15.6740 C   0  0  0  0  0  1  0  0  0  0  0  0
  -33.4120  -20.0620   15.7260 C   0  0  0  0  0  1  0  0  0  0  0  0
  -33.0970  -21.5610   15.8030 C   0  0  0  0  0  3  0  0  0  0  0  0
  -26.0100  -24.7020   21.3060 C   0  0  0  0  0  3  0  0  0  0  0  0
  -25.9740  -26.0430   20.6850 N   0  0  0  0  0  4  0  0  0  0  0  0
  -26.4090  -26.0180   19.7810 H   0  0  0  0  0  0  0  0  0  0  0  0
  -26.4460  -26.7150   21.2620 H   0  0  0  0  0  0  0  0  0  0  0  0
  -25.0260  -26.3520   20.5720 H   0  0  0  0  0  0  0  0  0  0  0  0
  -25.7260  -23.0270   19.3360 C   0  0  0  0  0  1  0  0  0  0  0  0
  -25.0630  -23.7210   20.5480 C   0  0  0  0  0  3  0  0  0  0  0  0
  -22.6700  -23.4420   19.6030 C   0  0  0  0  0  1  0  0  0  0  0  0
  -23.7350  -24.4070   20.1490 C   0  0  0  0  0  2  0  0  0  0  0  0
  -28.3840  -24.9980   22.3940 C   0  0  0  0  0  2  0  0  0  0  0  0
  -29.6570  -25.5830   21.7440 C   0  0  0  0  0  3  0  0  0  0  0  0
  -30.4340  -26.4820   22.7150 C   0  0  0  0  0  2  0  0  0  0  0  0
  -31.6240  -27.2230   22.0650 C   0  0  0  0  0  2  0  0  0  0  0  0
  -31.7370  -28.5660   22.5500 O   0  0  0  0  0  0  0  0  0  0  0  0
  -27.4120  -31.5940   27.2760 C   0  0  0  0  0  0  0  0  0  0  0  0
  -30.5520  -29.2430   22.7330 C   0  0  0  0  0  0  0  0  0  0  0  0
  -26.4530  -31.2270   25.0270 C   0  0  0  0  0  3  0  0  0  0  0  0
  -28.1120  -30.5820   23.2050 C   0  0  0  0  0  0  0  0  0  0  0  0
  -28.9680  -31.5840   25.3330 C   0  0  0  0  0  2  0  0  0  0  0  0
  -29.1780  -30.7280   24.1030 C   0  0  0  0  0  0  0  0  0  0  0  0
  -30.4040  -30.0740   23.8620 C   0  0  0  0  0  3  0  0  0  0  0  0
  -29.4670  -29.0990   21.8380 C   0  0  0  0  0  3  0  0  0  0  0  0
  -28.2510  -29.7670   22.0700 C   0  0  0  0  0  3  0  0  0  0  0  0
  -26.8390  -31.3260   23.5280 C   0  0  0  0  0  2  0  0  0  0  0  0
  -27.6220  -31.4510   25.9370 N   0  0  0  0  0  0  0  0  0  0  0  0
  -26.2690  -31.5850   27.7490 O   0  0  0  0  0  0  0  0  0  0  0  0
  -25.7380  -29.8790   25.2640 C   0  0  0  0  0  0  0  0  0  0  0  0
  -24.6420  -29.6440   24.5230 N   0  0  0  0  0  0  0  0  0  0  0  0
  -26.1820  -29.0610   26.0750 O   0  0  0  0  0  0  0  0  0  0  0  0
  -24.3400  -30.3640   23.8810 H   0  0  0  0  0  0  0  0  0  0  0  0
  -21.9790  -27.8900   22.8320 C   0  0  0  0  0  0  0  0  0  0  0  0
  -23.8290  -28.4300   24.5510 C   0  0  0  0  0  3  0  0  0  0  0  0
  -24.6000  -27.2330   23.9500 C   0  0  0  0  0  2  0  0  0  0  0  0
  -24.3320  -27.0340   22.4550 C   0  0  0  0  0  2  0  0  0  0  0  0
  -22.8380  -26.8050   22.2030 C   0  0  0  0  0  2  0  0  0  0  0  0
  -22.4510  -28.6640   23.9230 C   0  0  0  0  0  0  0  0  0  0  0  0
  -21.6280  -29.6850   24.4460 C   0  0  0  0  0  3  0  0  0  0  0  0
  -20.3550  -29.9340   23.9010 C   0  0  0  0  0  3  0  0  0  0  0  0
  -19.8850  -29.1530   22.8310 C   0  0  0  0  0  3  0  0  0  0  0  0
  -20.6930  -28.1320   22.3010 C   0  0  0  0  0  3  0  0  0  0  0  0
  -28.5990  -31.8010   28.2710 C   0  0  0  0  0  3  0  0  0  0  0  0
  -28.6820  -30.6810   29.3790 C   0  0  1  0  0  0  0  0  0  0  0  0
  -27.3340  -30.4020   30.0840 C   0  0  0  0  0  1  0  0  0  0  0  0
  -29.1810  -29.3480   28.7740 C   0  0  0  0  0  1  0  0  0  0  0  0
  -29.7110  -31.0870   30.4620 C   0  0  0  0  0  1  0  0  0  0  0  0
  -28.4340  -33.1260   28.8830 N   0  0  0  0  0  0  0  0  0  0  0  0
  -29.1470  -34.2090   28.5510 C   0  0  0  0  0  0  0  0  0  0  0  0
  -30.0740  -34.1780   27.7350 O   0  0  0  0  0  0  0  0  0  0  0  0
  -27.6580  -33.2390   29.5180 H   0  0  0  0  0  0  0  0  0  0  0  0
  -27.9770  -36.4150   28.2480 C   0  0  0  0  0  1  0  0  0  0  0  0
  -28.7720  -35.5390   29.2300 C   0  0  0  0  0  3  0  0  0  0  0  0
  -30.6200  -35.6280   30.8440 C   0  0  0  0  0  1  0  0  0  0  0  0
  -29.9400  -36.2930   29.7350 N   0  0  0  0  0  0  0  0  0  0  0  0
  -29.6630  -37.2200   30.0440 H   0  0  0  0  0  0  0  0  0  0  0  0
  1 53  1  0
  1 62  1  0
  2  6  1  0
  2  3  1  0
  2  4  1  0
  3  1  1  0
  4 63  1  0
  5  3  1  0
  7  6  1  0
  7  9  1  0
  9  8  1  0
 10 49  1  0
 10 19  1  0
 10  9  1  0
 11 17  1  0
 12 17  1  0
 13 14  1  0
 13 12  1  0
 15 14  1  0
 15 24  1  0
 15 16  1  0
 17 16  1  0
 18 11  2  0
 19 20  1  0
 19 11  1  0
 21 22  2  0
 22 41  1  0
 22 23  1  0
 23 26  1  0
 24 21  1  0
 24 25  1  0
 25 23  2  0
 26 27  1  0
 27 28  2  0
 29 28  1  0
 30 29  2  0
 31 30  1  0
 31 26  2  0
 32 29  1  0
 32 33  1  0
 33 34  2  0
 33 38  1  0
 34 35  1  0
 35 36  2  0
 36 40  1  0
 37 36  1  0
 38 37  2  0
 39 38  1  0
 41 42  1  0
 42 45  1  0
 42 44  1  0
 43 41  2  0
 46 21  1  0
 47 46  1  0
 48 46  1  0
 50 52  1  0
 51 52  1  0
 52 49  1  0
 53 54  1  0
 54 56  1  0
 55 54  1  0
 57 54  1  0
 59 58  1  0
 59 53  1  0
 60 61  1  0
 61 59  1  0
 63 62  1  0
 63 64  1  0
 65 66  1  0
 65 64  1  0
 66 68  1  0
 67 78  2  0
 68 73  1  0
 69 79  1  0
 69 77  1  0
 70 76  1  0
 70 72  1  0
 71 77  1  0
 72 71  1  0
 73 72  2  0
 74 75  1  0
 74 68  2  0
 75 70  2  0
 76 69  1  0
 77 67  1  0
 79 81  2  0
 80 79  1  0
 82 80  1  0
 83 88  1  0
 84 80  1  0
 85 84  1  0
 86 85  1  0
 87 86  1  0
 87 83  1  0
 88 89  2  0
 88 84  1  0
 90 89  1  0
 91 90  2  0
 92 91  1  0
 92 83  2  0
 93 67  1  0
 93 98  1  0
 93 94  1  0
 94 95  1  1
 94 97  1  0
 96 94  1  0
 98101  1  0
 99 98  1  0
 99103  1  0
100 99  2  0
103102  1  0
103105  1  0
105106  1  0
105104  1  0
M  ISO  4  11 100  19 100  65 101  66 101
M  END
>  <TORSDO>  (28) 
F 31

>  <SCORE>  (28) 
-4.744

>  <name>  (28) 
27

>  <ligand_id>  (28) 
27

>  <original_smiles>  (28) 
[H]c1c([H])c([H])c2c(c1[H])C([H])([H])C([H])([H])C([H])([H])C2([H])N([H])C(=O)C1([H])N(C(=O)C([H])(N([H])C(=O)C([H])(N([H])C([H])([H])[H])C([H])([H])[H])C(C([H])([H])[H])(C([H])([H])[H])C([H])([H])[H])C([H])([H])c2c([H])c(OC([H])([H])C([H])([H])C([H])([H])C([H])([H])C([H])(N([H])C(=O)C([H])([H])C([H])([H])C([H])(C([H])([H])[H])C([H])(N([H])C(=O)N3C([H])([H])C([H])([H])C([H])([H])C([H])(n4nc(-c5c([H])c([H])c(Oc6c([H])c([H])c(F)c([H])c6F)c([H])c5[H])c(C(=O)N([H])[H])c4N([H])[H])C3([H])[H])C([H])([H])C([H])(C([H])([H])[H])C([H])([H])[H])C([H])(C([H])(C([H])([H])[H])C([H])([H])C([H])([H])[H])[N+]([H])([H])[H])c([H])c([H])c2C1([H])[H]

>  <smiles>  (28) 
[H]c1c([H])c([H])c2c(c1[H])C([H])([H])C([H])([H])C([H])([H])C2([H])N([H])C(=O)C1([H])N(C(=O)C([H])(N([H])C(=O)C([H])(N([H])C([H])([H])[H])C([H])([H])[H])C(C([H])([H])[H])(C([H])([H])[H])C([H])([H])[H])C([H])([H])c2c([H])c(OC([H])([H])C([H])([H])C([H])([H])C([H])([H])C([H])(N([H])C(=O)C([H])([H])C([H])([H])C([H])(C([H])([H])[H])C([H])(N([H])C(=O)N3C([H])([H])C([H])([H])C([H])([H])C([H])(n4nc(-c5c([H])c([H])c(Oc6c([H])c([H])c(F)c([H])c6F)c([H])c5[H])c(C(=O)N([H])[H])c4N([H])[H])C3([H])[H])C([H])([H])C([H])(C([H])([H])[H])C([H])([H])[H])C([H])(C([H])(C([H])([H])[H])C([H])([H])C([H])([H])[H])[N+]([H])([H])[H])c([H])c([H])c2C1([H])[H]

$$$$
28:0:0
     RDKit          3D

100107  0  0  1  0  0  0  0  0999 V2000
  -28.8580  -21.1180   19.8380 C   0  0  0  0  0  3  0  0  0  0  0  0
  -29.3090  -18.5020   20.1120 C   0  0  0  0  0  0  0  0  0  0  0  0
  -29.6260  -19.8490   20.2150 N   0  0  0  0  0  0  0  0  0  0  0  0
  -28.1530  -18.1380   19.8870 O   0  0  0  0  0  0  0  0  0  0  0  0
  -30.5950  -20.0130   20.4550 H   0  0  0  0  0  0  0  0  0  0  0  0
  -31.3700  -17.6430   18.9880 C   0  0  0  0  0  1  0  0  0  0  0  0
  -30.4510  -17.3730   20.2110 C   0  0  2  0  0  0  0  0  0  0  0  0
  -30.6820  -14.7190   20.0610 C   0  0  0  0  0  0  0  0  0  0  0  0
  -30.3860  -12.4260   19.1230 C   0  0  0  0  0  2  0  0  0  0  0  0
  -29.4230  -12.4870   17.9200 C   0  0  0  0  0  2  0  0  0  0  0  0
  -27.9610  -12.3580   18.3910 C   0  0  0  0  0  2  0  0  0  0  0  0
  -27.6340  -13.2750   19.6020 C   0  0  0  0  0  3  0  0  0  0  0  0
  -28.7270  -13.2180   20.6910 C   0  0  0  0  0  2  0  0  0  0  0  0
  -30.0020  -13.5250   20.0400 N   0  0  0  0  0  0  0  0  0  0  0  0
  -31.8760  -14.7260   19.7630 O   0  0  0  0  0  0  0  0  0  0  0  0
  -29.9750  -15.9080   20.2040 N   0  0  0  0  0  0  0  0  0  0  0  0
  -28.9830  -15.8080   20.3460 H   0  0  0  0  0  0  0  0  0  0  0  0
  -25.2940  -13.9070   20.4400 C   0  0  0  0  0  0  0  0  0  0  0  0
  -24.2240  -13.1530   20.8360 C   0  0  0  0  0  0  0  0  0  0  0  0
  -24.6510  -11.7920   20.7650 C   0  0  0  0  0  0  0  0  0  0  0  0
  -26.3050  -13.0080   20.1450 N   0  0  0  0  0  0  0  0  0  0  0  0
  -25.9290  -11.7290   20.4040 N   0  0  0  0  0  0  0  0  0  0  0  0
  -23.8980  -10.5450   20.9620 C   0  0  0  0  0  0  0  0  0  0  0  0
  -24.3330   -9.5540   21.8680 C   0  0  0  0  0  3  0  0  0  0  0  0
  -23.5810   -8.3740   22.0540 C   0  0  0  0  0  3  0  0  0  0  0  0
  -22.3800   -8.1750   21.3320 C   0  0  0  0  0  0  0  0  0  0  0  0
  -21.9640   -9.1560   20.4150 C   0  0  0  0  0  3  0  0  0  0  0  0
  -22.7160  -10.3270   20.2260 C   0  0  0  0  0  3  0  0  0  0  0  0
  -21.5980   -7.0500   21.4310 O   0  0  0  0  0  0  0  0  0  0  0  0
  -21.5540   -6.3010   22.5780 C   0  0  0  0  0  0  0  0  0  0  0  0
  -21.1690   -6.8570   23.8180 C   0  0  0  0  0  3  0  0  0  0  0  0
  -21.0690   -6.0340   24.9580 C   0  0  0  0  0  3  0  0  0  0  0  0
  -21.3450   -4.6570   24.8600 C   0  0  0  0  0  0  0  0  0  0  0  0
  -21.7240   -4.1010   23.6270 C   0  0  0  0  0  3  0  0  0  0  0  0
  -21.8240   -4.9200   22.4890 C   0  0  0  0  0  0  0  0  0  0  0  0
  -22.1670   -4.3750   21.2980 F   0  0  0  0  0  0  0  0  0  0  0  0
  -21.2450   -3.8650   25.9550 F   0  0  0  0  0  0  0  0  0  0  0  0
  -22.8500  -13.6600   21.1650 C   0  0  0  0  0  0  0  0  0  0  0  0
  -22.1370  -12.9730   22.0510 N   0  0  0  0  0  0  0  0  0  0  0  0
  -22.4190  -14.7020   20.6730 O   0  0  0  0  0  0  0  0  0  0  0  0
  -22.5010  -12.1330   22.4770 H   0  0  0  0  0  0  0  0  0  0  0  0
  -21.2150  -13.2910   22.3100 H   0  0  0  0  0  0  0  0  0  0  0  0
  -25.4830  -15.2760   20.2830 N   0  0  0  0  0  0  0  0  0  0  0  0
  -24.7330  -15.9400   20.4380 H   0  0  0  0  0  0  0  0  0  0  0  0
  -26.3300  -15.7120   19.9400 H   0  0  0  0  0  0  0  0  0  0  0  0
  -30.5610  -17.1530   22.8130 C   0  0  0  0  0  1  0  0  0  0  0  0
  -31.2650  -17.5980   21.5170 C   0  0  0  0  0  2  0  0  0  0  0  0
  -29.3150  -21.5870   18.4320 C   0  0  0  0  0  2  0  0  0  0  0  0
  -29.2970  -20.5350   17.3030 C   0  0  0  0  0  2  0  0  0  0  0  0
  -31.3150  -21.4750   16.0190 C   0  0  0  0  0  1  0  0  0  0  0  0
  -29.6600  -19.9800   14.8580 C   0  0  0  0  0  1  0  0  0  0  0  0
  -29.8360  -21.0480   15.9480 C   0  0  0  0  0  3  0  0  0  0  0  0
  -29.0330  -22.3750   20.8390 C   0  0  0  0  0  2  0  0  0  0  0  0
  -28.1830  -23.7740   20.8310 C   0  0  0  0  0  3  0  0  0  0  0  0
  -26.7250  -23.5100   20.8650 N   0  0  0  0  0  4  0  0  0  0  0  0
  -26.3740  -23.1980   19.9750 H   0  0  0  0  0  0  0  0  0  0  0  0
  -26.2230  -24.3430   21.1240 H   0  0  0  0  0  0  0  0  0  0  0  0
  -26.5020  -22.8130   21.5560 H   0  0  0  0  0  0  0  0  0  0  0  0
  -28.5240  -25.0440   19.8950 C   0  0  0  0  0  2  0  0  0  0  0  0
  -28.4250  -26.4540   20.4000 O   0  0  0  0  0  0  0  0  0  0  0  0
  -24.6250  -31.8890   23.2730 C   0  0  0  0  0  0  0  0  0  0  0  0
  -27.2900  -27.2830   20.2970 C   0  0  0  0  0  0  0  0  0  0  0  0
  -23.4510  -30.4750   21.6230 C   0  0  0  0  0  3  0  0  0  0  0  0
  -24.9260  -28.9090   20.2350 C   0  0  0  0  0  0  0  0  0  0  0  0
  -25.9930  -30.7870   21.4840 C   0  0  0  0  0  2  0  0  0  0  0  0
  -26.0830  -29.4010   20.8490 C   0  0  0  0  0  0  0  0  0  0  0  0
  -27.2630  -28.5970   20.8710 C   0  0  0  0  0  3  0  0  0  0  0  0
  -26.1110  -26.8510   19.6510 C   0  0  0  0  0  3  0  0  0  0  0  0
  -24.9430  -27.6410   19.6270 C   0  0  0  0  0  3  0  0  0  0  0  0
  -23.6900  -29.7870   20.2530 C   0  0  0  0  0  2  0  0  0  0  0  0
  -24.7070  -31.0710   22.1830 N   0  0  0  0  0  0  0  0  0  0  0  0
  -23.5310  -32.1700   23.7870 O   0  0  0  0  0  0  0  0  0  0  0  0
  -22.7720  -29.4680   22.5820 C   0  0  0  0  0  0  0  0  0  0  0  0
  -21.4490  -29.2850   22.4350 N   0  0  0  0  0  0  0  0  0  0  0  0
  -23.4370  -28.8510   23.4180 O   0  0  0  0  0  0  0  0  0  0  0  0
  -20.9690  -29.8350   21.7350 H   0  0  0  0  0  0  0  0  0  0  0  0
  -18.0690  -28.0740   22.8830 C   0  0  0  0  0  0  0  0  0  0  0  0
  -20.6200  -28.3520   23.2020 C   0  0  0  0  0  3  0  0  0  0  0  0
  -20.7410  -26.9140   22.6470 C   0  0  0  0  0  2  0  0  0  0  0  0
  -19.6630  -26.5730   21.6140 C   0  0  0  0  0  2  0  0  0  0  0  0
  -18.2670  -26.7180   22.2270 C   0  0  0  0  0  2  0  0  0  0  0  0
  -19.1740  -28.8470   23.3260 C   0  0  0  0  0  0  0  0  0  0  0  0
  -18.9360  -30.1160   23.8990 C   0  0  0  0  0  3  0  0  0  0  0  0
  -17.6250  -30.6110   24.0340 C   0  0  0  0  0  3  0  0  0  0  0  0
  -16.5340  -29.8340   23.6080 C   0  0  0  0  0  3  0  0  0  0  0  0
  -16.7570  -28.5680   23.0370 C   0  0  0  0  0  3  0  0  0  0  0  0
  -25.8950  -32.5310   23.9110 C   0  0  0  0  0  3  0  0  0  0  0  0
  -26.3910  -31.7740   25.2040 C   0  0  1  0  0  0  0  0  0  0  0  0
  -25.2810  -31.5440   26.2550 C   0  0  0  0  0  1  0  0  0  0  0  0
  -26.9860  -30.3950   24.8390 C   0  0  0  0  0  1  0  0  0  0  0  0
  -27.5270  -32.5790   25.8790 C   0  0  0  0  0  1  0  0  0  0  0  0
  -25.5750  -33.9320   24.2250 N   0  0  0  0  0  0  0  0  0  0  0  0
  -25.9000  -34.9810   23.4580 C   0  0  0  0  0  0  0  0  0  0  0  0
  -26.5710  -34.8720   22.4270 O   0  0  0  0  0  0  0  0  0  0  0  0
  -24.9770  -34.0890   25.0240 H   0  0  0  0  0  0  0  0  0  0  0  0
  -24.1570  -36.7580   23.0940 C   0  0  0  0  0  1  0  0  0  0  0  0
  -25.4050  -36.3700   23.9040 C   0  0  0  0  0  3  0  0  0  0  0  0
  -27.5350  -37.2830   24.7150 C   0  0  0  0  0  1  0  0  0  0  0  0
  -26.4280  -37.4310   23.7750 N   0  0  0  0  0  0  0  0  0  0  0  0
  -26.0150  -38.3490   23.9150 H   0  0  0  0  0  0  0  0  0  0  0  0
  1 48  1  0
  1  3  1  0
  1 53  1  0
  2  7  1  0
  2  3  1  0
  3  5  1  0
  4  2  2  0
  7  6  1  6
  7 47  1  0
  8 16  1  0
  9 14  1  0
 10 11  1  0
 10  9  1  0
 12 11  1  0
 12 21  1  0
 12 13  1  0
 14  8  1  0
 14 13  1  0
 15  8  2  0
 16  7  1  0
 16 17  1  0
 18 19  2  0
 19 38  1  0
 20 19  1  0
 20 23  1  0
 21 22  1  0
 21 18  1  0
 22 20  2  0
 23 24  1  0
 24 25  2  0
 26 29  1  0
 26 25  1  0
 27 26  2  0
 28 27  1  0
 28 23  2  0
 29 30  1  0
 30 31  1  0
 31 32  2  0
 33 32  1  0
 33 37  1  0
 34 33  2  0
 35 30  2  0
 35 34  1  0
 36 35  1  0
 38 39  1  0
 39 42  1  0
 39 41  1  0
 40 38  2  0
 43 44  1  0
 43 18  1  0
 45 43  1  0
 47 46  1  0
 49 48  1  0
 51 52  1  0
 52 50  1  0
 52 49  1  0
 54 59  1  0
 54 53  1  0
 54 55  1  0
 55 57  1  0
 55 58  1  0
 56 55  1  0
 59 60  1  0
 61 72  2  0
 62 60  1  0
 62 67  1  0
 63 71  1  0
 63 73  1  0
 64 70  1  0
 64 66  1  0
 65 71  1  0
 66 67  2  0
 66 65  1  0
 68 62  2  0
 69 68  1  0
 69 64  2  0
 70 63  1  0
 71 61  1  0
 73 75  2  0
 74 73  1  0
 76 74  1  0
 77 86  2  0
 77 82  1  0
 78 74  1  0
 78 82  1  0
 79 78  1  0
 80 81  1  0
 80 79  1  0
 81 77  1  0
 82 83  2  0
 83 84  1  0
 85 84  2  0
 86 85  1  0
 87 61  1  0
 87 92  1  0
 87 88  1  0
 88 91  1  1
 88 89  1  0
 90 88  1  0
 92 95  1  0
 93 97  1  0
 93 92  1  0
 94 93  2  0
 97 96  1  0
 99 97  1  0
 99100  1  0
 99 98  1  0
M  ISO  4   8 100  16 100  59 101  60 101
M  END
>  <TORSDO>  (29) 
F 26

>  <SCORE>  (29) 
-12.263

>  <name>  (29) 
28

>  <ligand_id>  (29) 
28

>  <original_smiles>  (29) 
[H]c1c([H])c([H])c2c(c1[H])C([H])([H])C([H])([H])C([H])([H])C2([H])N([H])C(=O)C1([H])N(C(=O)C([H])(N([H])C(=O)C([H])(N([H])C([H])([H])[H])C([H])([H])[H])C(C([H])([H])[H])(C([H])([H])[H])C([H])([H])[H])C([H])([H])c2c([H])c(OC([H])([H])C([H])(C([H])([H])C([H])(N([H])C(=O)C(N([H])C(=O)N3C([H])([H])C([H])([H])C([H])([H])C([H])(n4nc(-c5c([H])c([H])c(Oc6c([H])c([H])c(F)c([H])c6F)c([H])c5[H])c(C(=O)N([H])[H])c4N([H])[H])C3([H])[H])(C([H])([H])[H])C([H])([H])C([H])([H])[H])C([H])([H])C([H])([H])C([H])(C([H])([H])[H])C([H])([H])[H])[N+]([H])([H])[H])c([H])c([H])c2C1([H])[H]

>  <smiles>  (29) 
[H]c1c([H])c([H])c2c(c1[H])C([H])([H])C([H])([H])C([H])([H])C2([H])N([H])C(=O)C1([H])N(C(=O)C([H])(N([H])C(=O)C([H])(N([H])C([H])([H])[H])C([H])([H])[H])C(C([H])([H])[H])(C([H])([H])[H])C([H])([H])[H])C([H])([H])c2c([H])c(OC([H])([H])C([H])(C([H])([H])C([H])(N([H])C(=O)C(N([H])C(=O)N3C([H])([H])C([H])([H])C([H])([H])C([H])(n4nc(-c5c([H])c([H])c(Oc6c([H])c([H])c(F)c([H])c6F)c([H])c5[H])c(C(=O)N([H])[H])c4N([H])[H])C3([H])[H])(C([H])([H])[H])C([H])([H])C([H])([H])[H])C([H])([H])C([H])([H])C([H])(C([H])([H])[H])C([H])([H])[H])[N+]([H])([H])[H])c([H])c([H])c2C1([H])[H]

$$$$
29:0:0
     RDKit          3D

113121  0  0  1  0  0  0  0  0999 V2000
  -29.4430  -19.4520   16.7750 C   0  0  0  0  0  3  0  0  0  0  0  0
  -30.6620  -21.1390   15.3860 C   0  0  0  0  0  0  0  0  0  0  0  0
  -30.0470  -20.7640   16.5180 N   0  0  0  0  0  0  0  0  0  0  0  0
  -30.9960  -20.3320   14.5140 O   0  0  0  0  0  0  0  0  0  0  0  0
  -29.8410  -21.4930   17.1850 H   0  0  0  0  0  0  0  0  0  0  0  0
  -30.8990  -22.6470   15.1800 C   0  0  0  0  0  3  0  0  0  0  0  0
  -32.0210  -22.8750   14.2500 N   0  0  0  0  0  4  0  0  0  0  0  0
  -31.8350  -22.4000   13.3840 H   0  0  0  0  0  0  0  0  0  0  0  0
  -32.8610  -22.4780   14.6300 H   0  0  0  0  0  0  0  0  0  0  0  0
  -32.1740  -23.8510   14.0830 H   0  0  0  0  0  0  0  0  0  0  0  0
  -29.3140  -23.2290   13.1920 C   0  0  0  0  0  1  0  0  0  0  0  0
  -29.5850  -23.3550   14.7090 C   0  0  0  0  0  3  0  0  0  0  0  0
  -29.1450  -25.0180   16.6260 C   0  0  0  0  0  1  0  0  0  0  0  0
  -29.4850  -24.8370   15.1400 C   0  0  0  0  0  2  0  0  0  0  0  0
  -30.5180  -18.3500   17.0230 C   0  0  0  0  0  2  0  0  0  0  0  0
  -30.8700  -18.1590   18.4500 N   0  0  0  0  0  4  0  0  0  0  0  0
  -31.8560  -17.9530   18.4910 H   0  0  0  0  0  0  0  0  0  0  0  0
  -30.7110  -19.0180   18.9470 H   0  0  0  0  0  0  0  0  0  0  0  0
  -30.1650  -17.0210   19.0840 C   0  0  0  0  0  2  0  0  0  0  0  0
  -30.4500  -16.8100   20.6010 C   0  0  0  0  0  3  0  0  0  0  0  0
  -30.7460  -14.3760   20.5580 C   0  0  0  0  0  0  0  0  0  0  0  0
  -30.4040  -12.2460   19.4190 C   0  0  0  0  0  2  0  0  0  0  0  0
  -29.4880  -12.4860   18.2050 C   0  0  0  0  0  2  0  0  0  0  0  0
  -28.0060  -12.3670   18.6160 C   0  0  0  0  0  2  0  0  0  0  0  0
  -27.6600  -13.2040   19.8770 C   0  0  0  0  0  3  0  0  0  0  0  0
  -28.6990  -12.9720   21.0000 C   0  0  0  0  0  2  0  0  0  0  0  0
  -30.0400  -13.2280   20.4450 N   0  0  0  0  0  0  0  0  0  0  0  0
  -31.8880  -14.5280   20.1220 O   0  0  0  0  0  0  0  0  0  0  0  0
  -30.0220  -15.4420   20.9100 N   0  0  0  0  0  0  0  0  0  0  0  0
  -29.0700  -15.2870   21.2060 H   0  0  0  0  0  0  0  0  0  0  0  0
  -25.2540  -13.8180   20.5680 C   0  0  0  0  0  0  0  0  0  0  0  0
  -24.1780  -13.0430   20.9190 C   0  0  0  0  0  0  0  0  0  0  0  0
  -24.6340  -11.6910   20.8730 C   0  0  0  0  0  0  0  0  0  0  0  0
  -26.2990  -12.9350   20.3370 N   0  0  0  0  0  0  0  0  0  0  0  0
  -25.9260  -11.6510   20.5740 N   0  0  0  0  0  0  0  0  0  0  0  0
  -23.9030  -10.4270   21.0420 C   0  0  0  0  0  0  0  0  0  0  0  0
  -24.3610   -9.4180   21.9180 C   0  0  0  0  0  3  0  0  0  0  0  0
  -23.6270   -8.2220   22.0760 C   0  0  0  0  0  3  0  0  0  0  0  0
  -22.4250   -8.0280   21.3550 C   0  0  0  0  0  0  0  0  0  0  0  0
  -21.9890   -9.0260   20.4650 C   0  0  0  0  0  3  0  0  0  0  0  0
  -22.7220  -10.2130   20.3040 C   0  0  0  0  0  3  0  0  0  0  0  0
  -21.6620   -6.8870   21.4250 O   0  0  0  0  0  0  0  0  0  0  0  0
  -21.6830   -6.0730   22.5290 C   0  0  0  0  0  0  0  0  0  0  0  0
  -21.4020   -6.5640   23.8220 C   0  0  0  0  0  3  0  0  0  0  0  0
  -21.3680   -5.6800   24.9190 C   0  0  0  0  0  3  0  0  0  0  0  0
  -21.6030   -4.3060   24.7230 C   0  0  0  0  0  0  0  0  0  0  0  0
  -21.8810   -3.8160   23.4350 C   0  0  0  0  0  3  0  0  0  0  0  0
  -21.9170   -4.6980   22.3410 C   0  0  0  0  0  0  0  0  0  0  0  0
  -22.1630   -4.2160   21.0990 F   0  0  0  0  0  0  0  0  0  0  0  0
  -21.5640   -3.4530   25.7750 F   0  0  0  0  0  0  0  0  0  0  0  0
  -22.7800  -13.5250   21.1860 C   0  0  0  0  0  0  0  0  0  0  0  0
  -22.0420  -12.8230   22.0430 N   0  0  0  0  0  0  0  0  0  0  0  0
  -22.3520  -14.5560   20.6730 O   0  0  0  0  0  0  0  0  0  0  0  0
  -22.4020  -11.9930   22.4870 H   0  0  0  0  0  0  0  0  0  0  0  0
  -21.1060  -13.1310   22.2630 H   0  0  0  0  0  0  0  0  0  0  0  0
  -25.4210  -15.1890   20.4110 N   0  0  0  0  0  0  0  0  0  0  0  0
  -24.6490  -15.8360   20.5260 H   0  0  0  0  0  0  0  0  0  0  0  0
  -26.2700  -15.6370   20.0960 H   0  0  0  0  0  0  0  0  0  0  0  0
  -29.4840  -19.6110   23.9480 C   0  0  0  0  0  2  0  0  0  0  0  0
  -28.7020  -18.2970   23.8480 C   0  0  0  0  0  2  0  0  0  0  0  0
  -29.8040  -20.1680   22.5550 C   0  0  0  0  0  2  0  0  0  0  0  0
  -29.4300  -17.2740   22.9590 C   0  0  0  0  0  2  0  0  0  0  0  0
  -30.5590  -19.1400   21.7000 C   0  0  0  0  0  2  0  0  0  0  0  0
  -29.7450  -17.8310   21.5440 C   0  0  0  0  0  3  0  0  0  0  0  0
  -28.3760  -19.5730   17.8980 C   0  0  0  0  0  2  0  0  0  0  0  0
  -27.2940  -20.6580   17.7100 C   0  0  0  0  0  2  0  0  0  0  0  0
  -26.5720  -21.0040   19.0310 C   0  0  0  0  0  2  0  0  0  0  0  0
  -26.9970  -22.3860   19.5680 C   0  0  0  0  0  2  0  0  0  0  0  0
  -26.4970  -22.6800   20.9920 C   0  0  0  0  0  2  0  0  0  0  0  0
  -26.7020  -24.1240   21.5010 C   0  0  0  0  0  2  0  0  0  0  0  0
  -28.1340  -24.6840   21.3740 C   0  0  0  0  0  2  0  0  0  0  0  0
  -28.4640  -25.3520   20.0210 C   0  0  0  0  0  2  0  0  0  0  0  0
  -28.4340  -26.7800   20.0960 O   0  0  0  0  0  0  0  0  0  0  0  0
  -24.6120  -31.8760   23.2150 C   0  0  0  0  0  0  0  0  0  0  0  0
  -27.2330  -27.4550   20.0930 C   0  0  0  0  0  0  0  0  0  0  0  0
  -23.3980  -30.4970   21.5560 C   0  0  0  0  0  3  0  0  0  0  0  0
  -24.8430  -28.9660   20.1200 C   0  0  0  0  0  0  0  0  0  0  0  0
  -25.9270  -30.8440   21.3630 C   0  0  0  0  0  2  0  0  0  0  0  0
  -26.0030  -29.4820   20.7070 C   0  0  0  0  0  0  0  0  0  0  0  0
  -27.2010  -28.7370   20.6840 C   0  0  0  0  0  3  0  0  0  0  0  0
  -26.0540  -26.9490   19.4980 C   0  0  0  0  0  3  0  0  0  0  0  0
  -24.8630  -27.6980   19.5140 C   0  0  0  0  0  3  0  0  0  0  0  0
  -23.6070  -29.8310   20.1690 C   0  0  0  0  0  2  0  0  0  0  0  0
  -24.6640  -31.0870   22.1040 N   0  0  0  0  0  0  0  0  0  0  0  0
  -23.5310  -32.1490   23.7550 O   0  0  0  0  0  0  0  0  0  0  0  0
  -22.7410  -29.4660   22.5000 C   0  0  0  0  0  0  0  0  0  0  0  0
  -21.4150  -29.3020   22.3720 N   0  0  0  0  0  0  0  0  0  0  0  0
  -23.4210  -28.8170   23.3000 O   0  0  0  0  0  0  0  0  0  0  0  0
  -20.9360  -29.8810   21.6980 H   0  0  0  0  0  0  0  0  0  0  0  0
  -18.0280  -28.1360   22.8460 C   0  0  0  0  0  0  0  0  0  0  0  0
  -20.5860  -28.3640   23.1290 C   0  0  0  0  0  3  0  0  0  0  0  0
  -20.6750  -26.9370   22.5400 C   0  0  0  0  0  2  0  0  0  0  0  0
  -19.5740  -26.6370   21.5190 C   0  0  0  0  0  2  0  0  0  0  0  0
  -18.1930  -26.7920   22.1590 C   0  0  0  0  0  2  0  0  0  0  0  0
  -19.1520  -28.8810   23.2890 C   0  0  0  0  0  0  0  0  0  0  0  0
  -18.9460  -30.1410   23.8910 C   0  0  0  0  0  3  0  0  0  0  0  0
  -17.6460  -30.6570   24.0540 C   0  0  0  0  0  3  0  0  0  0  0  0
  -16.5350  -29.9070   23.6290 C   0  0  0  0  0  3  0  0  0  0  0  0
  -16.7270  -28.6480   23.0330 C   0  0  0  0  0  3  0  0  0  0  0  0
  -25.9040  -32.4840   23.8480 C   0  0  0  0  0  3  0  0  0  0  0  0
  -25.5970  -33.8650   24.2420 N   0  0  0  0  0  0  0  0  0  0  0  0
  -25.9040  -34.9480   23.5150 C   0  0  0  0  0  0  0  0  0  0  0  0
  -26.5560  -34.8910   22.4690 O   0  0  0  0  0  0  0  0  0  0  0  0
  -25.0340  -33.9880   25.0710 H   0  0  0  0  0  0  0  0  0  0  0  0
  -24.1500  -36.7280   23.2630 C   0  0  0  0  0  1  0  0  0  0  0  0
  -25.4110  -36.3110   24.0360 C   0  0  0  0  0  3  0  0  0  0  0  0
  -27.5590  -37.1790   24.8480 C   0  0  0  0  0  1  0  0  0  0  0  0
  -26.4300  -37.3800   23.9430 N   0  0  0  0  0  0  0  0  0  0  0  0
  -26.0180  -38.2870   24.1440 H   0  0  0  0  0  0  0  0  0  0  0  0
  -26.4490  -31.6600   25.0770 C   0  0  1  0  0  0  0  0  0  0  0  0
  -25.3780  -31.3670   26.1520 C   0  0  0  0  0  1  0  0  0  0  0  0
  -27.0250  -30.3030   24.6050 C   0  0  0  0  0  1  0  0  0  0  0  0
  -27.6100  -32.4280   25.7550 C   0  0  0  0  0  1  0  0  0  0  0  0
  1 15  1  0
  1 65  1  0
  2  3  1  0
  3  1  1  0
  3  5  1  0
  4  2  2  0
  6  2  1  0
  7  9  1  0
  7  6  1  0
  8  7  1  0
 10  7  1  0
 12 11  1  0
 12 14  1  0
 12  6  1  0
 14 13  1  0
 15 16  1  0
 16 17  1  0
 16 18  1  0
 16 19  1  0
 20 19  1  0
 20 29  1  0
 20 64  1  0
 21 29  1  0
 22 27  1  0
 23 24  1  0
 23 22  1  0
 25 24  1  0
 25 34  1  0
 25 26  1  0
 27 21  1  0
 27 26  1  0
 28 21  2  0
 29 30  1  0
 31 32  2  0
 32 51  1  0
 33 32  1  0
 33 36  1  0
 34 31  1  0
 34 35  1  0
 35 33  2  0
 36 37  1  0
 37 38  2  0
 39 42  1  0
 39 38  1  0
 40 39  2  0
 41 40  1  0
 41 36  2  0
 42 43  1  0
 43 44  1  0
 44 45  2  0
 46 45  1  0
 46 50  1  0
 47 46  2  0
 48 43  2  0
 48 47  1  0
 49 48  1  0
 51 52  1  0
 52 55  1  0
 52 54  1  0
 53 51  2  0
 56 57  1  0
 56 31  1  0
 58 56  1  0
 60 59  1  0
 61 59  1  0
 62 60  1  0
 63 61  1  0
 64 63  1  0
 64 62  1  0
 66 65  1  0
 66 67  1  0
 67 68  1  0
 68 69  1  0
 69 70  1  0
 71 70  1  0
 72 73  1  0
 72 71  1  0
 74 85  2  0
 75 73  1  0
 75 80  1  0
 76 84  1  0
 76 86  1  0
 77 83  1  0
 77 79  1  0
 78 84  1  0
 79 78  1  0
 80 79  2  0
 81 82  1  0
 81 75  2  0
 82 77  2  0
 83 76  1  0
 84 74  1  0
 86 88  2  0
 87 86  1  0
 89 87  1  0
 90 99  2  0
 90 95  1  0
 91 87  1  0
 91 95  1  0
 92 91  1  0
 93 94  1  0
 93 92  1  0
 94 90  1  0
 95 96  2  0
 96 97  1  0
 98 97  2  0
 99 98  1  0
100 74  1  0
100101  1  0
100110  1  0
101104  1  0
102106  1  0
102101  1  0
103102  2  0
106105  1  0
108106  1  0
108109  1  0
108107  1  0
110113  1  1
110111  1  0
112110  1  0
M  ISO  4  21 100  29 100  72 101  73 101
M  END
>  <TORSDO>  (30) 
F 34

>  <SCORE>  (30) 
-1.189

>  <name>  (30) 
29

>  <ligand_id>  (30) 
29

>  <original_smiles>  (30) 
[H]c1c([H])c([H])c2c(c1[H])C([H])([H])C([H])([H])C([H])([H])C2([H])N([H])C(=O)C1([H])N(C(=O)C([H])(N([H])C(=O)C([H])(N([H])C([H])([H])[H])C([H])([H])[H])C(C([H])([H])[H])(C([H])([H])[H])C([H])([H])[H])C([H])([H])c2c([H])c(OC([H])([H])C([H])([H])C([H])([H])C([H])([H])C([H])([H])C([H])([H])C([H])([H])C([H])([H])C([H])(N([H])C(=O)C([H])(C([H])(C([H])([H])[H])C([H])([H])C([H])([H])[H])[N+]([H])([H])[H])C([H])([H])[N+]([H])([H])C([H])([H])C([H])(N([H])C(=O)N3C([H])([H])C([H])([H])C([H])([H])C([H])(n4nc(-c5c([H])c([H])c(Oc6c([H])c([H])c(F)c([H])c6F)c([H])c5[H])c(C(=O)N([H])[H])c4N([H])[H])C3([H])[H])C3([H])C([H])([H])C([H])([H])C([H])([H])C([H])([H])C3([H])[H])c([H])c([H])c2C1([H])[H]

>  <smiles>  (30) 
[H]c1c([H])c([H])c2c(c1[H])C([H])([H])C([H])([H])C([H])([H])C2([H])N([H])C(=O)C1([H])N(C(=O)C([H])(N([H])C(=O)C([H])(N([H])C([H])([H])[H])C([H])([H])[H])C(C([H])([H])[H])(C([H])([H])[H])C([H])([H])[H])C([H])([H])c2c([H])c(OC([H])([H])C([H])([H])C([H])([H])C([H])([H])C([H])([H])C([H])([H])C([H])([H])C([H])([H])C([H])(N([H])C(=O)C([H])(C([H])(C([H])([H])[H])C([H])([H])C([H])([H])[H])[N+]([H])([H])[H])C([H])([H])[N+]([H])([H])C([H])([H])C([H])(N([H])C(=O)N3C([H])([H])C([H])([H])C([H])([H])C([H])(n4nc(-c5c([H])c([H])c(Oc6c([H])c([H])c(F)c([H])c6F)c([H])c5[H])c(C(=O)N([H])[H])c4N([H])[H])C3([H])[H])C3([H])C([H])([H])C([H])([H])C([H])([H])C([H])([H])C3([H])[H])c([H])c([H])c2C1([H])[H]

$$$$
30:0:0
     RDKit          3D

108115  0  0  1  0  0  0  0  0999 V2000
  -30.7030  -19.0070   23.3250 C   0  0  0  0  0  3  0  0  0  0  0  0
  -30.3530  -17.2220   21.6500 C   0  0  0  0  0  0  0  0  0  0  0  0
  -30.6240  -17.6060   22.9010 N   0  0  0  0  0  0  0  0  0  0  0  0
  -30.7390  -17.8470   20.6600 O   0  0  0  0  0  0  0  0  0  0  0  0
  -30.3410  -16.9750   23.6420 H   0  0  0  0  0  0  0  0  0  0  0  0
  -29.3570  -16.0580   21.4940 C   0  0  0  0  0  3  0  0  0  0  0  0
  -30.7380  -14.1830   20.6730 C   0  0  0  0  0  0  0  0  0  0  0  0
  -30.8360  -11.7260   20.5210 C   0  0  0  0  0  2  0  0  0  0  0  0
  -30.1560  -11.2780   19.2110 C   0  0  0  0  0  2  0  0  0  0  0  0
  -28.6270  -11.1460   19.3820 C   0  0  0  0  0  2  0  0  0  0  0  0
  -27.9900  -12.3720   20.0880 C   0  0  0  0  0  3  0  0  0  0  0  0
  -28.7980  -12.7160   21.3590 C   0  0  0  0  0  2  0  0  0  0  0  0
  -30.1880  -12.9710   20.9530 N   0  0  0  0  0  0  0  0  0  0  0  0
  -31.9150  -14.3310   20.3400 O   0  0  0  0  0  0  0  0  0  0  0  0
  -29.8620  -15.1710   20.4490 N   0  0  0  0  0  0  0  0  0  0  0  0
  -30.2250  -15.7790   19.7240 H   0  0  0  0  0  0  0  0  0  0  0  0
  -25.4970  -13.0070   20.2730 C   0  0  0  0  0  0  0  0  0  0  0  0
  -24.3890  -12.2770   20.6030 C   0  0  0  0  0  0  0  0  0  0  0  0
  -24.8580  -10.9560   20.8740 C   0  0  0  0  0  0  0  0  0  0  0  0
  -26.5760  -12.1410   20.3790 N   0  0  0  0  0  0  0  0  0  0  0  0
  -26.1810  -10.9090   20.7880 N   0  0  0  0  0  0  0  0  0  0  0  0
  -24.1180   -9.7210   21.1540 C   0  0  0  0  0  0  0  0  0  0  0  0
  -24.5640   -8.7970   22.1240 C   0  0  0  0  0  3  0  0  0  0  0  0
  -23.8250   -7.6240   22.3890 C   0  0  0  0  0  3  0  0  0  0  0  0
  -22.6250   -7.3680   21.6860 C   0  0  0  0  0  0  0  0  0  0  0  0
  -22.1970   -8.2800   20.7040 C   0  0  0  0  0  3  0  0  0  0  0  0
  -22.9370   -9.4430   20.4380 C   0  0  0  0  0  3  0  0  0  0  0  0
  -21.8550   -6.2440   21.8600 O   0  0  0  0  0  0  0  0  0  0  0  0
  -21.8720   -5.5340   23.0350 C   0  0  0  0  0  0  0  0  0  0  0  0
  -21.5870   -6.1420   24.2770 C   0  0  0  0  0  3  0  0  0  0  0  0
  -21.5470   -5.3620   25.4500 C   0  0  0  0  0  3  0  0  0  0  0  0
  -21.7830   -3.9770   25.3820 C   0  0  0  0  0  0  0  0  0  0  0  0
  -22.0640   -3.3690   24.1470 C   0  0  0  0  0  3  0  0  0  0  0  0
  -22.1050   -4.1460   22.9750 C   0  0  0  0  0  0  0  0  0  0  0  0
  -22.3530   -3.5520   21.7830 F   0  0  0  0  0  0  0  0  0  0  0  0
  -21.7390   -3.2250   26.5080 F   0  0  0  0  0  0  0  0  0  0  0  0
  -22.9640  -12.7480   20.5650 C   0  0  0  0  0  0  0  0  0  0  0  0
  -22.1220  -12.2200   21.4480 N   0  0  0  0  0  0  0  0  0  0  0  0
  -22.5980  -13.6250   19.7840 O   0  0  0  0  0  0  0  0  0  0  0  0
  -22.4290  -11.5170   22.1030 H   0  0  0  0  0  0  0  0  0  0  0  0
  -21.1590  -12.5260   21.4690 H   0  0  0  0  0  0  0  0  0  0  0  0
  -25.6690  -14.3240   19.8680 N   0  0  0  0  0  0  0  0  0  0  0  0
  -24.8840  -14.9550   19.7460 H   0  0  0  0  0  0  0  0  0  0  0  0
  -26.5460  -14.7080   19.5440 H   0  0  0  0  0  0  0  0  0  0  0  0
  -27.9810  -16.6420   21.0390 C   0  0  0  0  0  2  0  0  0  0  0  0
  -27.6470  -16.6070   19.5140 C   0  0  0  0  0  2  0  0  0  0  0  0
  -27.3000  -17.9650   18.8930 C   0  0  0  0  0  0  0  0  0  0  0  0
  -26.6900  -17.9560   17.7160 N   0  0  0  0  0  0  0  0  0  0  0  0
  -27.5880  -19.0260   19.4420 O   0  0  0  0  0  0  0  0  0  0  0  0
  -26.4420  -17.0800   17.2780 H   0  0  0  0  0  0  0  0  0  0  0  0
  -26.4340  -18.8230   17.2670 H   0  0  0  0  0  0  0  0  0  0  0  0
  -30.2300  -19.1030   24.7890 C   0  0  0  0  0  0  0  0  0  0  0  0
  -30.3550  -18.1550   25.5770 O   0  0  0  0  0  0  0  0  0  0  0  0
  -29.5560  -20.4020   25.2500 C   0  0  0  0  0  2  0  0  0  0  0  0
  -28.6070  -20.0820   26.3290 N   0  0  0  0  0  4  0  0  0  0  0  0
  -27.9300  -19.4260   25.9780 H   0  0  0  0  0  0  0  0  0  0  0  0
  -28.1330  -20.9030   26.6560 H   0  0  0  0  0  0  0  0  0  0  0  0
  -29.1000  -19.6460   27.0880 H   0  0  0  0  0  0  0  0  0  0  0  0
  -32.0620  -19.6790   22.9970 C   0  0  0  0  0  2  0  0  0  0  0  0
  -32.0030  -21.2090   22.7600 C   0  0  0  0  0  2  0  0  0  0  0  0
  -31.0390  -21.6550   21.6330 C   0  0  0  0  0  2  0  0  0  0  0  0
  -30.8960  -23.1880   21.5290 C   0  0  0  0  0  2  0  0  0  0  0  0
  -29.8520  -23.5700   20.5760 N   0  0  0  0  0  4  0  0  0  0  0  0
  -28.9800  -23.1240   20.8220 H   0  0  0  0  0  0  0  0  0  0  0  0
  -30.0760  -23.2210   19.6560 H   0  0  0  0  0  0  0  0  0  0  0  0
  -29.6930  -25.0270   20.5500 C   0  0  0  0  0  2  0  0  0  0  0  0
  -28.5820  -25.4780   19.5810 C   0  0  0  0  0  2  0  0  0  0  0  0
  -28.5630  -26.9060   19.5980 O   0  0  0  0  0  0  0  0  0  0  0  0
  -24.8100  -31.7990   23.1020 C   0  0  0  0  0  0  0  0  0  0  0  0
  -27.3530  -27.5550   19.6910 C   0  0  0  0  0  0  0  0  0  0  0  0
  -23.5390  -30.4640   21.4510 C   0  0  0  0  0  3  0  0  0  0  0  0
  -24.9370  -29.0090   19.8920 C   0  0  0  0  0  0  0  0  0  0  0  0
  -26.0460  -30.8630   21.1550 C   0  0  0  0  0  2  0  0  0  0  0  0
  -26.1130  -29.5260   20.4480 C   0  0  0  0  0  0  0  0  0  0  0  0
  -27.3220  -28.8080   20.3420 C   0  0  0  0  0  3  0  0  0  0  0  0
  -26.1600  -27.0460   19.1310 C   0  0  0  0  0  3  0  0  0  0  0  0
  -24.9560  -27.7690   19.2300 C   0  0  0  0  0  3  0  0  0  0  0  0
  -23.6880  -29.8490   20.0320 C   0  0  0  0  0  2  0  0  0  0  0  0
  -24.8190  -31.0530   21.9610 N   0  0  0  0  0  0  0  0  0  0  0  0
  -23.7520  -32.0330   23.7040 O   0  0  0  0  0  0  0  0  0  0  0  0
  -22.9460  -29.3900   22.3900 C   0  0  0  0  0  0  0  0  0  0  0  0
  -21.6230  -29.1760   22.2920 N   0  0  0  0  0  0  0  0  0  0  0  0
  -23.6700  -28.7540   23.1610 O   0  0  0  0  0  0  0  0  0  0  0  0
  -21.1000  -29.7460   21.6440 H   0  0  0  0  0  0  0  0  0  0  0  0
  -18.3050  -27.8380   22.7920 C   0  0  0  0  0  0  0  0  0  0  0  0
  -20.8530  -28.1900   23.0490 C   0  0  0  0  0  3  0  0  0  0  0  0
  -21.0070  -26.7770   22.4420 C   0  0  0  0  0  2  0  0  0  0  0  0
  -19.9090  -26.4310   21.4300 C   0  0  0  0  0  2  0  0  0  0  0  0
  -18.5280  -26.5090   22.0880 C   0  0  0  0  0  2  0  0  0  0  0  0
  -19.3970  -28.6340   23.2290 C   0  0  0  0  0  0  0  0  0  0  0  0
  -19.1330  -29.8750   23.8450 C   0  0  0  0  0  3  0  0  0  0  0  0
  -17.8120  -30.3220   24.0310 C   0  0  0  0  0  3  0  0  0  0  0  0
  -16.7360  -29.5230   23.6110 C   0  0  0  0  0  3  0  0  0  0  0  0
  -16.9820  -28.2830   22.9960 C   0  0  0  0  0  3  0  0  0  0  0  0
  -26.1200  -32.4120   23.6900 C   0  0  0  0  0  3  0  0  0  0  0  0
  -25.8240  -33.7950   24.0830 N   0  0  0  0  0  0  0  0  0  0  0  0
  -26.1350  -34.8750   23.3560 C   0  0  0  0  0  0  0  0  0  0  0  0
  -26.7720  -34.8120   22.3020 O   0  0  0  0  0  0  0  0  0  0  0  0
  -25.2540  -33.9180   24.9080 H   0  0  0  0  0  0  0  0  0  0  0  0
  -24.3970  -36.6740   23.1180 C   0  0  0  0  0  1  0  0  0  0  0  0
  -25.6590  -36.2430   23.8790 C   0  0  0  0  0  3  0  0  0  0  0  0
  -27.8150  -37.0970   24.6890 C   0  0  0  0  0  1  0  0  0  0  0  0
  -26.6890  -37.2990   23.7800 N   0  0  0  0  0  0  0  0  0  0  0  0
  -26.2870  -38.2140   23.9720 H   0  0  0  0  0  0  0  0  0  0  0  0
  -26.6970  -31.5960   24.9110 C   0  0  1  0  0  0  0  0  0  0  0  0
  -25.6520  -31.3070   26.0140 C   0  0  0  0  0  1  0  0  0  0  0  0
  -27.2730  -30.2400   24.4370 C   0  0  0  0  0  1  0  0  0  0  0  0
  -27.8710  -32.3730   25.5520 C   0  0  0  0  0  1  0  0  0  0  0  0
  1 59  1  0
  1 52  1  0
  2  3  1  0
  3  1  1  0
  3  5  1  0
  4  2  2  0
  6 45  1  0
  6  2  1  0
  7 13  1  0
  8 13  1  0
  9 10  1  0
  9  8  1  0
 11 10  1  0
 11 20  1  0
 11 12  1  0
 13 12  1  0
 14  7  2  0
 15  7  1  0
 15  6  1  0
 16 15  1  0
 17 20  1  0
 17 18  2  0
 18 19  1  0
 19 22  1  0
 20 21  1  0
 21 19  2  0
 22 23  1  0
 23 24  2  0
 25 28  1  0
 25 24  1  0
 26 25  2  0
 27 26  1  0
 27 22  2  0
 28 29  1  0
 29 30  1  0
 30 31  2  0
 32 31  1  0
 32 36  1  0
 33 32  2  0
 34 29  2  0
 34 33  1  0
 35 34  1  0
 37 18  1  0
 37 38  1  0
 38 41  1  0
 38 40  1  0
 39 37  2  0
 42 17  1  0
 43 42  1  0
 44 42  1  0
 46 45  1  0
 47 49  2  0
 47 46  1  0
 48 47  1  0
 50 48  1  0
 51 48  1  0
 52 54  1  0
 52 53  2  0
 54 55  1  0
 55 57  1  0
 55 58  1  0
 56 55  1  0
 60 59  1  0
 61 60  1  0
 62 61  1  0
 63 64  1  0
 63 62  1  0
 65 63  1  0
 66 63  1  0
 67 68  1  0
 67 66  1  0
 68 70  1  0
 69 80  2  0
 70 75  1  0
 71 79  1  0
 71 81  1  0
 72 78  1  0
 72 74  1  0
 73 79  1  0
 74 73  1  0
 75 74  2  0
 76 77  1  0
 76 70  2  0
 77 72  2  0
 78 71  1  0
 79 69  1  0
 81 83  2  0
 82 81  1  0
 84 82  1  0
 85 94  2  0
 85 90  1  0
 86 82  1  0
 86 90  1  0
 87 86  1  0
 88 89  1  0
 88 87  1  0
 89 85  1  0
 90 91  2  0
 91 92  1  0
 93 92  2  0
 94 93  1  0
 95 69  1  0
 95 96  1  0
 95105  1  0
 96 99  1  0
 97101  1  0
 97 96  1  0
 98 97  2  0
101100  1  0
103101  1  0
103104  1  0
103102  1  0
105108  1  1
105106  1  0
107105  1  0
M  ISO  4   7 100  15 100  67 101  68 101
M  END
>  <TORSDO>  (31) 
F 31

>  <SCORE>  (31) 
-2.963

>  <name>  (31) 
30

>  <ligand_id>  (31) 
30

>  <original_smiles>  (31) 
[H]c1c([H])c([H])c2c(c1[H])C([H])([H])C([H])([H])C([H])([H])C2([H])N([H])C(=O)C1([H])N(C(=O)C([H])(N([H])C(=O)C([H])(N([H])C([H])([H])[H])C([H])([H])[H])C(C([H])([H])[H])(C([H])([H])[H])C([H])([H])[H])C([H])([H])c2c([H])c(OC([H])([H])C([H])([H])[N+]([H])([H])C([H])([H])C([H])([H])C([H])([H])C([H])([H])C([H])(C(=O)C([H])([H])[N+]([H])([H])[H])N([H])C(=O)C([H])(N([H])C(=O)N3C([H])([H])C([H])([H])C([H])([H])C([H])(n4nc(-c5c([H])c([H])c(Oc6c([H])c([H])c(F)c([H])c6F)c([H])c5[H])c(C(=O)N([H])[H])c4N([H])[H])C3([H])[H])C([H])([H])C([H])([H])C(=O)N([H])[H])c([H])c([H])c2C1([H])[H]

>  <smiles>  (31) 
[H]c1c([H])c([H])c2c(c1[H])C([H])([H])C([H])([H])C([H])([H])C2([H])N([H])C(=O)C1([H])N(C(=O)C([H])(N([H])C(=O)C([H])(N([H])C([H])([H])[H])C([H])([H])[H])C(C([H])([H])[H])(C([H])([H])[H])C([H])([H])[H])C([H])([H])c2c([H])c(OC([H])([H])C([H])([H])[N+]([H])([H])C([H])([H])C([H])([H])C([H])([H])C([H])([H])C([H])(C(=O)C([H])([H])[N+]([H])([H])[H])N([H])C(=O)C([H])(N([H])C(=O)N3C([H])([H])C([H])([H])C([H])([H])C([H])(n4nc(-c5c([H])c([H])c(Oc6c([H])c([H])c(F)c([H])c6F)c([H])c5[H])c(C(=O)N([H])[H])c4N([H])[H])C3([H])[H])C([H])([H])C([H])([H])C(=O)N([H])[H])c([H])c([H])c2C1([H])[H]

$$$$
31:0:0
     RDKit          3D

103111  0  0  1  0  0  0  0  0999 V2000
  -30.1430  -19.2940   21.4170 C   0  0  0  0  0  3  0  0  0  0  0  0
  -32.9580  -22.6450   22.4210 C   0  0  0  0  0  2  0  0  0  0  0  0
  -32.8370  -22.1400   20.9770 C   0  0  0  0  0  2  0  0  0  0  0  0
  -32.7590  -21.5030   23.4310 C   0  0  0  0  0  2  0  0  0  0  0  0
  -31.5180  -21.3810   20.7590 C   0  0  0  0  0  2  0  0  0  0  0  0
  -31.4590  -20.7200   23.1700 C   0  0  0  0  0  2  0  0  0  0  0  0
  -31.3980  -20.1740   21.7220 C   0  0  0  0  0  3  0  0  0  0  0  0
  -30.2990  -17.7850   21.7690 C   0  0  0  0  0  2  0  0  0  0  0  0
  -30.8540  -16.8800   20.6370 C   0  0  0  0  0  2  0  0  0  0  0  0
  -30.9740  -15.3780   21.0260 C   0  0  0  0  0  3  0  0  0  0  0  0
  -29.7500  -14.1400   19.1760 C   0  0  0  0  0  0  0  0  0  0  0  0
  -29.0490  -12.1920   17.8270 C   0  0  0  0  0  2  0  0  0  0  0  0
  -27.7840  -12.4210   16.9810 C   0  0  0  0  0  2  0  0  0  0  0  0
  -26.5190  -12.1300   17.8040 C   0  0  0  0  0  2  0  0  0  0  0  0
  -26.5290  -12.8510   19.1750 C   0  0  0  0  0  3  0  0  0  0  0  0
  -27.8660  -12.6300   19.9180 C   0  0  0  0  0  2  0  0  0  0  0  0
  -28.9790  -13.0290   19.0350 N   0  0  0  0  0  0  0  0  0  0  0  0
  -30.4220  -14.6150   18.2560 O   0  0  0  0  0  0  0  0  0  0  0  0
  -29.8960  -14.5570   20.4460 N   0  0  0  0  0  0  0  0  0  0  0  0
  -29.3050  -14.0870   21.1150 H   0  0  0  0  0  0  0  0  0  0  0  0
  -24.4290  -13.2400   20.6170 C   0  0  0  0  0  0  0  0  0  0  0  0
  -23.5340  -12.3710   21.1810 C   0  0  0  0  0  0  0  0  0  0  0  0
  -23.9930  -11.0600   20.8530 C   0  0  0  0  0  0  0  0  0  0  0  0
  -25.3820  -12.4500   19.9890 N   0  0  0  0  0  0  0  0  0  0  0  0
  -25.1370  -11.1280   20.1820 N   0  0  0  0  0  0  0  0  0  0  0  0
  -23.3830   -9.7450   21.0900 C   0  0  0  0  0  0  0  0  0  0  0  0
  -23.9860   -8.7920   21.9390 C   0  0  0  0  0  3  0  0  0  0  0  0
  -23.3700   -7.5430   22.1660 C   0  0  0  0  0  3  0  0  0  0  0  0
  -22.1360   -7.2370   21.5440 C   0  0  0  0  0  0  0  0  0  0  0  0
  -21.5500   -8.1800   20.6810 C   0  0  0  0  0  3  0  0  0  0  0  0
  -22.1680   -9.4210   20.4520 C   0  0  0  0  0  3  0  0  0  0  0  0
  -21.4770   -6.0390   21.6850 O   0  0  0  0  0  0  0  0  0  0  0  0
  -21.4680   -5.3580   22.8750 C   0  0  0  0  0  0  0  0  0  0  0  0
  -20.9660   -5.9380   24.0610 C   0  0  0  0  0  3  0  0  0  0  0  0
  -20.9130   -5.1800   25.2480 C   0  0  0  0  0  3  0  0  0  0  0  0
  -21.3480   -3.8410   25.2480 C   0  0  0  0  0  0  0  0  0  0  0  0
  -21.8430   -3.2600   24.0680 C   0  0  0  0  0  3  0  0  0  0  0  0
  -21.9000   -4.0170   22.8840 C   0  0  0  0  0  0  0  0  0  0  0  0
  -22.3570   -3.4460   21.7440 F   0  0  0  0  0  0  0  0  0  0  0  0
  -21.2890   -3.1100   26.3860 F   0  0  0  0  0  0  0  0  0  0  0  0
  -22.2690  -12.7350   21.9050 C   0  0  0  0  0  0  0  0  0  0  0  0
  -21.8850  -11.9460   22.9010 N   0  0  0  0  0  0  0  0  0  0  0  0
  -21.6400  -13.7540   21.6230 O   0  0  0  0  0  0  0  0  0  0  0  0
  -22.4110  -11.1190   23.1450 H   0  0  0  0  0  0  0  0  0  0  0  0
  -21.0520  -12.1700   23.4280 H   0  0  0  0  0  0  0  0  0  0  0  0
  -24.5050  -14.6280   20.5680 N   0  0  0  0  0  0  0  0  0  0  0  0
  -23.7970  -15.2250   20.9830 H   0  0  0  0  0  0  0  0  0  0  0  0
  -25.2240  -15.1470   20.0780 H   0  0  0  0  0  0  0  0  0  0  0  0
  -33.1600  -14.5340   22.1310 C   0  0  0  0  0  1  0  0  0  0  0  0
  -32.3980  -14.7700   20.8060 C   0  0  0  0  0  3  0  0  0  0  0  0
  -31.7730  -12.2440   20.6770 C   0  0  0  0  0  1  0  0  0  0  0  0
  -32.4060  -13.4600   19.9760 C   0  0  0  0  0  2  0  0  0  0  0  0
  -29.6610  -19.4700   19.9510 C   0  0  0  0  0  2  0  0  0  0  0  0
  -28.3150  -20.2050   19.7960 C   0  0  0  0  0  3  0  0  0  0  0  0
  -28.0570  -20.3500   18.4030 O   0  0  0  0  0  0  0  0  0  0  0  0
  -28.0570  -19.4770   18.0150 H   0  0  0  0  0  0  0  0  0  0  0  0
  -28.2960  -21.6250   20.4090 C   0  0  0  0  0  2  0  0  0  0  0  0
  -27.4340  -22.4810   19.5710 N   0  0  0  0  0  4  0  0  0  0  0  0
  -27.7460  -22.2190   18.6440 H   0  0  0  0  0  0  0  0  0  0  0  0
  -26.4760  -22.1770   19.6520 H   0  0  0  0  0  0  0  0  0  0  0  0
  -27.5510  -23.9460   19.7640 C   0  0  0  0  0  2  0  0  0  0  0  0
  -27.1110  -24.6920   18.4930 C   0  0  0  0  0  2  0  0  0  0  0  0
  -27.3160  -26.0980   18.6470 O   0  0  0  0  0  0  0  0  0  0  0  0
  -25.1150  -30.9000   23.3760 C   0  0  0  0  0  0  0  0  0  0  0  0
  -26.2830  -26.9410   19.0030 C   0  0  0  0  0  0  0  0  0  0  0  0
  -23.4210  -30.1900   21.7170 C   0  0  0  0  0  3  0  0  0  0  0  0
  -24.2950  -28.8060   19.7670 C   0  0  0  0  0  0  0  0  0  0  0  0
  -25.9140  -30.1160   21.1500 C   0  0  0  0  0  2  0  0  0  0  0  0
  -25.6070  -28.9490   20.2370 C   0  0  0  0  0  0  0  0  0  0  0  0
  -26.5990  -28.0220   19.8580 C   0  0  0  0  0  3  0  0  0  0  0  0
  -24.9500  -26.8170   18.5350 C   0  0  0  0  0  3  0  0  0  0  0  0
  -23.9620  -27.7400   18.9180 C   0  0  0  0  0  3  0  0  0  0  0  0
  -23.2920  -29.8450   20.2110 C   0  0  0  0  0  2  0  0  0  0  0  0
  -24.8450  -30.3980   22.1380 N   0  0  0  0  0  0  0  0  0  0  0  0
  -24.2020  -31.2260   24.1460 O   0  0  0  0  0  0  0  0  0  0  0  0
  -22.6930  -29.1020   22.5380 C   0  0  0  0  0  0  0  0  0  0  0  0
  -21.3560  -29.0720   22.4360 N   0  0  0  0  0  0  0  0  0  0  0  0
  -23.3290  -28.2950   23.2240 O   0  0  0  0  0  0  0  0  0  0  0  0
  -20.9090  -29.7730   21.8610 H   0  0  0  0  0  0  0  0  0  0  0  0
  -17.9100  -28.0230   22.7020 C   0  0  0  0  0  0  0  0  0  0  0  0
  -20.4640  -28.1140   23.0870 C   0  0  0  0  0  3  0  0  0  0  0  0
  -20.5190  -26.7380   22.3860 C   0  0  0  0  0  2  0  0  0  0  0  0
  -19.4430  -26.5670   21.3090 C   0  0  0  0  0  2  0  0  0  0  0  0
  -18.0450  -26.7300   21.9130 C   0  0  0  0  0  2  0  0  0  0  0  0
  -19.0470  -28.6800   23.2380 C   0  0  0  0  0  0  0  0  0  0  0  0
  -18.8700  -29.8980   23.9320 C   0  0  0  0  0  3  0  0  0  0  0  0
  -17.5870  -30.4540   24.0930 C   0  0  0  0  0  3  0  0  0  0  0  0
  -16.4630  -29.7910   23.5740 C   0  0  0  0  0  3  0  0  0  0  0  0
  -16.6250  -28.5760   22.8850 C   0  0  0  0  0  3  0  0  0  0  0  0
  -26.5790  -31.1100   23.8740 C   0  0  0  0  0  3  0  0  0  0  0  0
  -26.6200  -32.3800   24.6090 N   0  0  0  0  0  0  0  0  0  0  0  0
  -27.1290  -33.5210   24.1260 C   0  0  0  0  0  0  0  0  0  0  0  0
  -27.6840  -33.5960   23.0270 O   0  0  0  0  0  0  0  0  0  0  0  0
  -26.1500  -32.4040   25.5020 H   0  0  0  0  0  0  0  0  0  0  0  0
  -25.8570  -35.6600   24.4640 C   0  0  0  0  0  1  0  0  0  0  0  0
  -26.9970  -34.7820   25.0020 C   0  0  0  0  0  3  0  0  0  0  0  0
  -29.3030  -34.9020   25.8330 C   0  0  0  0  0  1  0  0  0  0  0  0
  -28.2440  -35.5740   25.0840 N   0  0  0  0  0  0  0  0  0  0  0  0
  -28.0690  -36.4750   25.5200 H   0  0  0  0  0  0  0  0  0  0  0  0
  -27.1060  -29.9280   24.7750 C   0  0  1  0  0  0  0  0  0  0  0  0
  -26.1520  -29.5580   25.9350 C   0  0  0  0  0  1  0  0  0  0  0  0
  -27.3320  -28.6590   23.9230 C   0  0  0  0  0  1  0  0  0  0  0  0
  -28.4770  -30.3030   25.3870 C   0  0  0  0  0  1  0  0  0  0  0  0
  1 53  1  0
  1  7  1  0
  1  8  1  0
  2  4  1  0
  3  2  1  0
  5  3  1  0
  5  7  1  0
  6  4  1  0
  7  6  1  0
  9  8  1  0
 10  9  1  0
 11 19  1  0
 12 17  1  0
 13 14  1  0
 13 12  1  0
 15 14  1  0
 15 16  1  0
 15 24  1  0
 17 11  1  0
 17 16  1  0
 18 11  2  0
 19 10  1  0
 19 20  1  0
 21 22  2  0
 22 41  1  0
 23 26  1  0
 23 22  1  0
 24 25  1  0
 24 21  1  0
 25 23  2  0
 26 27  1  0
 27 28  2  0
 29 32  1  0
 29 28  1  0
 30 29  2  0
 31 30  1  0
 31 26  2  0
 32 33  1  0
 33 38  2  0
 33 34  1  0
 34 35  2  0
 36 35  1  0
 36 40  1  0
 37 36  2  0
 38 37  1  0
 39 38  1  0
 41 42  1  0
 42 44  1  0
 42 45  1  0
 43 41  2  0
 46 21  1  0
 46 47  1  0
 48 46  1  0
 50 10  1  0
 50 49  1  0
 52 51  1  0
 52 50  1  0
 54 53  1  0
 54 57  1  0
 55 54  1  0
 56 55  1  0
 58 60  1  0
 58 61  1  0
 58 57  1  0
 59 58  1  0
 62 63  1  0
 62 61  1  0
 63 65  1  0
 64 75  2  0
 65 70  1  0
 66 74  1  0
 66 76  1  0
 67 73  1  0
 67 69  1  0
 68 74  1  0
 69 68  1  0
 70 69  2  0
 71 72  1  0
 71 65  2  0
 72 67  2  0
 73 66  1  0
 74 64  1  0
 76 78  2  0
 77 76  1  0
 79 77  1  0
 80 89  2  0
 80 85  1  0
 81 77  1  0
 81 85  1  0
 82 81  1  0
 83 84  1  0
 83 82  1  0
 84 80  1  0
 85 86  2  0
 86 87  1  0
 88 87  2  0
 89 88  1  0
 90 64  1  0
 90 91  1  0
 90100  1  0
 91 94  1  0
 92 91  1  0
 92 96  1  0
 93 92  2  0
 96 95  1  0
 96 98  1  0
 98 99  1  0
 98 97  1  0
100103  1  1
100101  1  0
102100  1  0
M  ISO  4  11 100  19 100  62 101  63 101
M  END
>  <TORSDO>  (32) 
F 29

>  <SCORE>  (32) 
-1.711

>  <name>  (32) 
31

>  <ligand_id>  (32) 
31

>  <original_smiles>  (32) 
[H]OC([H])(C([H])([H])C([H])(C([H])([H])C([H])([H])C([H])(N([H])C(=O)N1C([H])([H])C([H])([H])C([H])([H])C([H])(n2nc(-c3c([H])c([H])c(Oc4c([H])c([H])c(F)c([H])c4F)c([H])c3[H])c(C(=O)N([H])[H])c2N([H])[H])C1([H])[H])C([H])(C([H])([H])[H])C([H])([H])C([H])([H])[H])C1([H])C([H])([H])C([H])([H])C([H])([H])C([H])([H])C1([H])[H])C([H])([H])[N+]([H])([H])C([H])([H])C([H])([H])Oc1c([H])c([H])c2c(c1[H])C([H])([H])N(C(=O)C([H])(N([H])C(=O)C([H])(N([H])C([H])([H])[H])C([H])([H])[H])C(C([H])([H])[H])(C([H])([H])[H])C([H])([H])[H])C([H])(C(=O)N([H])C1([H])c3c([H])c([H])c([H])c([H])c3C([H])([H])C([H])([H])C1([H])[H])C2([H])[H]

>  <smiles>  (32) 
[H]OC([H])(C([H])([H])C([H])(C([H])([H])C([H])([H])C([H])(N([H])C(=O)N1C([H])([H])C([H])([H])C([H])([H])C([H])(n2nc(-c3c([H])c([H])c(Oc4c([H])c([H])c(F)c([H])c4F)c([H])c3[H])c(C(=O)N([H])[H])c2N([H])[H])C1([H])[H])C([H])(C([H])([H])[H])C([H])([H])C([H])([H])[H])C1([H])C([H])([H])C([H])([H])C([H])([H])C([H])([H])C1([H])[H])C([H])([H])[N+]([H])([H])C([H])([H])C([H])([H])Oc1c([H])c([H])c2c(c1[H])C([H])([H])N(C(=O)C([H])(N([H])C(=O)C([H])(N([H])C([H])([H])[H])C([H])([H])[H])C(C([H])([H])[H])(C([H])([H])[H])C([H])([H])[H])C([H])(C(=O)N([H])C1([H])c3c([H])c([H])c([H])c([H])c3C([H])([H])C([H])([H])C1([H])[H])C2([H])[H]

$$$$
32:0:0
     RDKit          3D

 98105  0  0  1  0  0  0  0  0999 V2000
  -31.0370  -19.8760   21.8100 C   0  0  0  0  0  0  0  0  0  0  0  0
  -30.8910  -21.0450   21.1600 N   0  0  0  0  0  0  0  0  0  0  0  0
  -30.6180  -19.6920   22.9530 O   0  0  0  0  0  0  0  0  0  0  0  0
  -31.2520  -21.0810   20.2170 H   0  0  0  0  0  0  0  0  0  0  0  0
  -31.8710  -18.7860   21.1210 C   0  0  0  0  0  2  0  0  0  0  0  0
  -31.1230  -17.7050   20.3050 C   0  0  0  0  0  2  0  0  0  0  0  0
  -29.9600  -16.9220   21.0000 C   0  0  0  0  0  3  0  0  0  0  0  0
  -30.7270  -14.5080   20.4360 C   0  0  0  0  0  0  0  0  0  0  0  0
  -30.4190  -12.3710   19.2530 C   0  0  0  0  0  2  0  0  0  0  0  0
  -29.4820  -12.5900   18.0490 C   0  0  0  0  0  2  0  0  0  0  0  0
  -28.0050  -12.4590   18.4640 C   0  0  0  0  0  2  0  0  0  0  0  0
  -27.6730  -13.2720   19.7450 C   0  0  0  0  0  3  0  0  0  0  0  0
  -28.7200  -13.0220   20.8520 C   0  0  0  0  0  2  0  0  0  0  0  0
  -30.0530  -13.3310   20.3070 N   0  0  0  0  0  0  0  0  0  0  0  0
  -31.7880  -14.7180   19.8530 O   0  0  0  0  0  0  0  0  0  0  0  0
  -30.0960  -15.4540   21.1680 N   0  0  0  0  0  0  0  0  0  0  0  0
  -29.3730  -15.0640   21.7540 H   0  0  0  0  0  0  0  0  0  0  0  0
  -25.2690  -13.9020   20.4250 C   0  0  0  0  0  0  0  0  0  0  0  0
  -24.1990  -13.1420   20.8100 C   0  0  0  0  0  0  0  0  0  0  0  0
  -24.6490  -11.7900   20.7940 C   0  0  0  0  0  0  0  0  0  0  0  0
  -26.3110  -13.0110   20.2110 N   0  0  0  0  0  0  0  0  0  0  0  0
  -25.9400  -11.7370   20.4900 N   0  0  0  0  0  0  0  0  0  0  0  0
  -23.9130  -10.5350   20.9990 C   0  0  0  0  0  0  0  0  0  0  0  0
  -24.3550   -9.5690   21.9290 C   0  0  0  0  0  3  0  0  0  0  0  0
  -23.6300   -8.3750   22.1210 C   0  0  0  0  0  3  0  0  0  0  0  0
  -22.4460   -8.1360   21.3810 C   0  0  0  0  0  0  0  0  0  0  0  0
  -22.0210   -9.0910   20.4400 C   0  0  0  0  0  3  0  0  0  0  0  0
  -22.7470  -10.2800   20.2490 C   0  0  0  0  0  3  0  0  0  0  0  0
  -21.6900   -6.9930   21.4740 O   0  0  0  0  0  0  0  0  0  0  0  0
  -21.6580   -6.2470   22.6240 C   0  0  0  0  0  0  0  0  0  0  0  0
  -21.2790   -6.8070   23.8630 C   0  0  0  0  0  3  0  0  0  0  0  0
  -21.1980   -5.9900   25.0060 C   0  0  0  0  0  3  0  0  0  0  0  0
  -21.4830   -4.6140   24.9140 C   0  0  0  0  0  0  0  0  0  0  0  0
  -21.8520   -4.0520   23.6780 C   0  0  0  0  0  3  0  0  0  0  0  0
  -21.9380   -4.8690   22.5380 C   0  0  0  0  0  0  0  0  0  0  0  0
  -22.2740   -4.3230   21.3440 F   0  0  0  0  0  0  0  0  0  0  0  0
  -21.3940   -3.8270   26.0100 F   0  0  0  0  0  0  0  0  0  0  0  0
  -22.8040  -13.6280   21.0800 C   0  0  0  0  0  0  0  0  0  0  0  0
  -22.0750  -12.9520   21.9620 N   0  0  0  0  0  0  0  0  0  0  0  0
  -22.3690  -14.6470   20.5440 O   0  0  0  0  0  0  0  0  0  0  0  0
  -22.4390  -12.1340   22.4270 H   0  0  0  0  0  0  0  0  0  0  0  0
  -21.1370  -13.2570   22.1710 H   0  0  0  0  0  0  0  0  0  0  0  0
  -25.4400  -15.2670   20.2260 N   0  0  0  0  0  0  0  0  0  0  0  0
  -24.6740  -15.9260   20.2980 H   0  0  0  0  0  0  0  0  0  0  0  0
  -26.2750  -15.6830   19.8350 H   0  0  0  0  0  0  0  0  0  0  0  0
  -28.6120  -17.1390   20.2680 C   0  0  0  0  0  2  0  0  0  0  0  0
  -28.0440  -18.5730   20.2500 C   0  0  0  0  0  2  0  0  0  0  0  0
  -28.2970  -19.3520   18.9380 C   0  0  0  0  0  2  0  0  0  0  0  0
  -27.3100  -20.5240   18.7650 C   0  0  0  0  0  2  0  0  0  0  0  0
  -27.4130  -21.1870   17.4500 N   0  0  0  0  0  4  0  0  0  0  0  0
  -28.3570  -21.4070   17.1920 H   0  0  0  0  0  0  0  0  0  0  0  0
  -26.8960  -22.0480   17.4710 H   0  0  0  0  0  0  0  0  0  0  0  0
  -27.0110  -20.6070   16.7360 H   0  0  0  0  0  0  0  0  0  0  0  0
  -30.5420  -22.3390   21.7620 C   0  0  0  0  0  2  0  0  0  0  0  0
  -29.3790  -23.0490   21.0350 C   0  0  0  0  0  2  0  0  0  0  0  0
  -29.2990  -24.5740   21.3050 C   0  0  0  0  0  2  0  0  0  0  0  0
  -28.0240  -25.2630   20.7590 C   0  0  0  0  0  2  0  0  0  0  0  0
  -28.3110  -26.6210   20.3490 O   0  0  0  0  0  0  0  0  0  0  0  0
  -24.5840  -31.8920   23.2380 C   0  0  0  0  0  0  0  0  0  0  0  0
  -27.1970  -27.4230   20.2280 C   0  0  0  0  0  0  0  0  0  0  0  0
  -23.3740  -30.4930   21.5890 C   0  0  0  0  0  3  0  0  0  0  0  0
  -24.8290  -28.9670   20.1560 C   0  0  0  0  0  0  0  0  0  0  0  0
  -25.8980  -30.8570   21.3920 C   0  0  0  0  0  2  0  0  0  0  0  0
  -25.9840  -29.4850   20.7550 C   0  0  0  0  0  0  0  0  0  0  0  0
  -27.1790  -28.7280   20.7760 C   0  0  0  0  0  3  0  0  0  0  0  0
  -26.0320  -26.9330   19.5990 C   0  0  0  0  0  3  0  0  0  0  0  0
  -24.8540  -27.6980   19.5580 C   0  0  0  0  0  3  0  0  0  0  0  0
  -23.5800  -29.8130   20.2080 C   0  0  0  0  0  2  0  0  0  0  0  0
  -24.6350  -31.0980   22.1310 N   0  0  0  0  0  0  0  0  0  0  0  0
  -23.5040  -32.1610   23.7830 O   0  0  0  0  0  0  0  0  0  0  0  0
  -22.7260  -29.4690   22.5520 C   0  0  0  0  0  0  0  0  0  0  0  0
  -21.3970  -29.2990   22.4420 N   0  0  0  0  0  0  0  0  0  0  0  0
  -23.4110  -28.8380   23.3600 O   0  0  0  0  0  0  0  0  0  0  0  0
  -20.8980  -29.8700   21.7730 H   0  0  0  0  0  0  0  0  0  0  0  0
  -18.0190  -28.1210   22.9660 C   0  0  0  0  0  0  0  0  0  0  0  0
  -20.5810  -28.3630   23.2210 C   0  0  0  0  0  3  0  0  0  0  0  0
  -20.6660  -26.9270   22.6480 C   0  0  0  0  0  2  0  0  0  0  0  0
  -19.5550  -26.6140   21.6400 C   0  0  0  0  0  2  0  0  0  0  0  0
  -18.1780  -26.7710   22.2910 C   0  0  0  0  0  2  0  0  0  0  0  0
  -19.1450  -28.8760   23.3900 C   0  0  0  0  0  0  0  0  0  0  0  0
  -18.9380  -30.1420   23.9790 C   0  0  0  0  0  3  0  0  0  0  0  0
  -17.6370  -30.6530   24.1470 C   0  0  0  0  0  3  0  0  0  0  0  0
  -16.5260  -29.8950   23.7390 C   0  0  0  0  0  3  0  0  0  0  0  0
  -16.7170  -28.6310   23.1530 C   0  0  0  0  0  3  0  0  0  0  0  0
  -25.8710  -32.5200   23.8590 C   0  0  0  0  0  3  0  0  0  0  0  0
  -26.3970  -31.7470   25.1310 C   0  0  1  0  0  0  0  0  0  0  0  0
  -25.3090  -31.5120   26.2060 C   0  0  0  0  0  1  0  0  0  0  0  0
  -26.9770  -30.3700   24.7350 C   0  0  0  0  0  1  0  0  0  0  0  0
  -27.5560  -32.5370   25.7830 C   0  0  0  0  0  1  0  0  0  0  0  0
  -25.5660  -33.9180   24.1910 N   0  0  0  0  0  0  0  0  0  0  0  0
  -25.9060  -34.9700   23.4310 C   0  0  0  0  0  0  0  0  0  0  0  0
  -26.5780  -34.8630   22.4020 O   0  0  0  0  0  0  0  0  0  0  0  0
  -24.9710  -34.0760   24.9910 H   0  0  0  0  0  0  0  0  0  0  0  0
  -24.1890  -36.7680   23.0650 C   0  0  0  0  0  1  0  0  0  0  0  0
  -25.4240  -36.3610   23.8860 C   0  0  0  0  0  3  0  0  0  0  0  0
  -27.5620  -37.2340   24.7190 C   0  0  0  0  0  1  0  0  0  0  0  0
  -26.4620  -37.4080   23.7730 N   0  0  0  0  0  0  0  0  0  0  0  0
  -26.0630  -38.3320   23.9170 H   0  0  0  0  0  0  0  0  0  0  0  0
  1  3  2  0
  2 54  1  0
  2  1  1  0
  4  2  1  0
  5  1  1  0
  6  7  1  0
  6  5  1  0
  7 46  1  0
  7 16  1  0
  8 16  1  0
  9 14  1  0
 10 11  1  0
 10  9  1  0
 12 11  1  0
 12 21  1  0
 12 13  1  0
 14  8  1  0
 14 13  1  0
 15  8  2  0
 16 17  1  0
 18 19  2  0
 19 38  1  0
 20 19  1  0
 20 23  1  0
 21 18  1  0
 21 22  1  0
 22 20  2  0
 23 24  1  0
 24 25  2  0
 26 29  1  0
 26 25  1  0
 27 26  2  0
 28 27  1  0
 28 23  2  0
 29 30  1  0
 30 31  1  0
 31 32  2  0
 33 32  1  0
 33 37  1  0
 34 33  2  0
 35 30  2  0
 35 34  1  0
 36 35  1  0
 38 39  1  0
 39 42  1  0
 39 41  1  0
 40 38  2  0
 43 44  1  0
 43 18  1  0
 45 43  1  0
 47 46  1  0
 48 47  1  0
 49 48  1  0
 50 52  1  0
 50 49  1  0
 51 50  1  0
 53 50  1  0
 55 56  1  0
 55 54  1  0
 57 56  1  0
 58 57  1  0
 59 70  2  0
 60 58  1  0
 60 65  1  0
 61 69  1  0
 61 71  1  0
 62 68  1  0
 62 64  1  0
 63 69  1  0
 64 65  2  0
 64 63  1  0
 66 60  2  0
 67 66  1  0
 67 62  2  0
 68 61  1  0
 69 59  1  0
 71 73  2  0
 72 71  1  0
 74 72  1  0
 75 84  2  0
 75 80  1  0
 76 72  1  0
 76 80  1  0
 77 76  1  0
 78 79  1  0
 78 77  1  0
 79 75  1  0
 80 81  2  0
 81 82  1  0
 83 82  2  0
 84 83  1  0
 85 59  1  0
 85 90  1  0
 85 86  1  0
 86 89  1  1
 86 87  1  0
 88 86  1  0
 90 93  1  0
 91 95  1  0
 91 90  1  0
 92 91  2  0
 95 94  1  0
 97 95  1  0
 97 98  1  0
 97 96  1  0
M  ISO  4   8 100  16 100  57 101  58 101
M  END
>  <TORSDO>  (33) 
F 28

>  <SCORE>  (33) 
-11.801

>  <name>  (33) 
32

>  <ligand_id>  (33) 
32

>  <original_smiles>  (33) 
[H]c1c([H])c([H])c2c(c1[H])C([H])([H])C([H])([H])C([H])([H])C2([H])N([H])C(=O)C1([H])N(C(=O)C([H])(N([H])C(=O)C([H])(N([H])C([H])([H])[H])C([H])([H])[H])C(C([H])([H])[H])(C([H])([H])[H])C([H])([H])[H])C([H])([H])c2c([H])c(OC([H])([H])C([H])([H])C([H])([H])C([H])([H])N([H])C(=O)C([H])([H])C([H])([H])C([H])(N([H])C(=O)N3C([H])([H])C([H])([H])C([H])([H])C([H])(n4nc(-c5c([H])c([H])c(Oc6c([H])c([H])c(F)c([H])c6F)c([H])c5[H])c(C(=O)N([H])[H])c4N([H])[H])C3([H])[H])C([H])([H])C([H])([H])C([H])([H])C([H])([H])[N+]([H])([H])[H])c([H])c([H])c2C1([H])[H]

>  <smiles>  (33) 
[H]c1c([H])c([H])c2c(c1[H])C([H])([H])C([H])([H])C([H])([H])C2([H])N([H])C(=O)C1([H])N(C(=O)C([H])(N([H])C(=O)C([H])(N([H])C([H])([H])[H])C([H])([H])[H])C(C([H])([H])[H])(C([H])([H])[H])C([H])([H])[H])C([H])([H])c2c([H])c(OC([H])([H])C([H])([H])C([H])([H])C([H])([H])N([H])C(=O)C([H])([H])C([H])([H])C([H])(N([H])C(=O)N3C([H])([H])C([H])([H])C([H])([H])C([H])(n4nc(-c5c([H])c([H])c(Oc6c([H])c([H])c(F)c([H])c6F)c([H])c5[H])c(C(=O)N([H])[H])c4N([H])[H])C3([H])[H])C([H])([H])C([H])([H])C([H])([H])C([H])([H])[N+]([H])([H])[H])c([H])c([H])c2C1([H])[H]

$$$$
33:0:0
     RDKit          3D

 94102  0  0  1  0  0  0  0  0999 V2000
  -29.1600  -19.2340   20.0300 C   0  0  0  0  0  0  0  0  0  0  0  0
  -30.6930  -22.1940   18.3870 C   0  0  0  0  0  2  0  0  0  0  0  0
  -29.2010  -22.3480   18.1070 C   0  0  0  0  0  2  0  0  0  0  0  0
  -30.7640  -20.8350   19.0820 C   0  0  0  0  0  2  0  0  0  0  0  0
  -28.5780  -21.9220   19.4440 C   0  0  0  0  0  3  0  0  0  0  0  0
  -29.4590  -20.6070   19.7270 N   0  0  0  0  0  0  0  0  0  0  0  0
  -27.9870  -18.9340   20.2650 O   0  0  0  0  0  0  0  0  0  0  0  0
  -28.5360  -23.3860   20.3330 C   0  0  0  0  0  0  0  0  0  0  0  0
  -29.2030  -23.4750   21.3690 O   0  0  0  0  0  0  0  0  0  0  0  0
  -27.6490  -24.7370   19.8890 C   0  0  0  0  0  2  0  0  0  0  0  0
  -27.9510  -26.2220   20.3090 O   0  0  0  0  0  0  0  0  0  0  0  0
  -24.6190  -32.0710   23.3580 C   0  0  0  0  0  0  0  0  0  0  0  0
  -26.9510  -27.2710   20.2390 C   0  0  0  0  0  0  0  0  0  0  0  0
  -23.3350  -30.7360   21.7340 C   0  0  0  0  0  3  0  0  0  0  0  0
  -24.6930  -29.1230   20.2610 C   0  0  0  0  0  0  0  0  0  0  0  0
  -25.8950  -30.9020   21.5190 C   0  0  0  0  0  2  0  0  0  0  0  0
  -25.9010  -29.5110   20.8560 C   0  0  0  0  0  0  0  0  0  0  0  0
  -27.0270  -28.6000   20.8320 C   0  0  0  0  0  3  0  0  0  0  0  0
  -25.7240  -27.0020   19.5880 C   0  0  0  0  0  3  0  0  0  0  0  0
  -24.6210  -27.8820   19.6110 C   0  0  0  0  0  3  0  0  0  0  0  0
  -23.5010  -30.0670   20.3430 C   0  0  0  0  0  2  0  0  0  0  0  0
  -24.6380  -31.2590   22.2580 N   0  0  0  0  0  0  0  0  0  0  0  0
  -23.5550  -32.3890   23.9120 O   0  0  0  0  0  0  0  0  0  0  0  0
  -22.6400  -29.7450   22.7020 C   0  0  0  0  0  0  0  0  0  0  0  0
  -21.3170  -29.5590   22.5480 N   0  0  0  0  0  0  0  0  0  0  0  0
  -23.2980  -29.1450   23.5560 O   0  0  0  0  0  0  0  0  0  0  0  0
  -20.8420  -30.0960   21.8350 H   0  0  0  0  0  0  0  0  0  0  0  0
  -17.9500  -28.2820   22.9480 C   0  0  0  0  0  0  0  0  0  0  0  0
  -20.4850  -28.6350   23.3230 C   0  0  0  0  0  3  0  0  0  0  0  0
  -20.6540  -27.1820   22.8230 C   0  0  0  0  0  2  0  0  0  0  0  0
  -19.6120  -26.7800   21.7740 C   0  0  0  0  0  2  0  0  0  0  0  0
  -18.1980  -26.9110   22.3430 C   0  0  0  0  0  2  0  0  0  0  0  0
  -19.0240  -29.0980   23.3950 C   0  0  0  0  0  0  0  0  0  0  0  0
  -18.7380  -30.3770   23.9190 C   0  0  0  0  0  3  0  0  0  0  0  0
  -17.4130  -30.8420   24.0020 C   0  0  0  0  0  3  0  0  0  0  0  0
  -16.3530  -30.0260   23.5710 C   0  0  0  0  0  3  0  0  0  0  0  0
  -16.6220  -28.7480   23.0500 C   0  0  0  0  0  3  0  0  0  0  0  0
  -25.9310  -32.6560   23.9630 C   0  0  0  0  0  3  0  0  0  0  0  0
  -25.6860  -34.0710   24.2860 N   0  0  0  0  0  0  0  0  0  0  0  0
  -26.0320  -35.1050   23.5080 C   0  0  0  0  0  0  0  0  0  0  0  0
  -26.6600  -34.9660   22.4550 O   0  0  0  0  0  0  0  0  0  0  0  0
  -25.1300  -34.2570   25.1080 H   0  0  0  0  0  0  0  0  0  0  0  0
  -24.3510  -36.9560   23.2190 C   0  0  0  0  0  1  0  0  0  0  0  0
  -25.6180  -36.5160   23.9710 C   0  0  0  0  0  3  0  0  0  0  0  0
  -27.8200  -37.3400   24.6820 C   0  0  0  0  0  1  0  0  0  0  0  0
  -26.6790  -37.5310   23.7900 N   0  0  0  0  0  0  0  0  0  0  0  0
  -26.3110  -38.4670   23.9390 H   0  0  0  0  0  0  0  0  0  0  0  0
  -26.4220  -31.8770   25.2450 C   0  0  1  0  0  0  0  0  0  0  0  0
  -25.3270  -31.6970   26.3210 C   0  0  0  0  0  1  0  0  0  0  0  0
  -26.9520  -30.4750   24.8710 C   0  0  0  0  0  1  0  0  0  0  0  0
  -27.6060  -32.6330   25.8940 C   0  0  0  0  0  1  0  0  0  0  0  0
  -30.2510  -17.9550   20.1300 C   0  0  0  0  0  3  0  0  0  0  0  0
  -30.6950  -15.2010   19.9420 C   0  0  0  0  0  0  0  0  0  0  0  0
  -30.6180  -12.7640   19.2070 C   0  0  0  0  0  2  0  0  0  0  0  0
  -29.6660  -12.5600   18.0060 C   0  0  0  0  0  2  0  0  0  0  0  0
  -28.2210  -12.3410   18.4910 C   0  0  0  0  0  2  0  0  0  0  0  0
  -27.8060  -13.3630   19.5820 C   0  0  0  0  0  3  0  0  0  0  0  0
  -28.8800  -13.5310   20.6770 C   0  0  0  0  0  2  0  0  0  0  0  0
  -30.1200  -13.9280   20.0000 N   0  0  0  0  0  0  0  0  0  0  0  0
  -31.8880  -15.2500   19.6290 O   0  0  0  0  0  0  0  0  0  0  0  0
  -29.9140  -16.3930   20.0600 N   0  0  0  0  0  0  0  0  0  0  0  0
  -28.9330  -16.2100   20.2060 H   0  0  0  0  0  0  0  0  0  0  0  0
  -25.4790  -13.9600   20.4570 C   0  0  0  0  0  0  0  0  0  0  0  0
  -24.4190  -13.1940   20.8540 C   0  0  0  0  0  0  0  0  0  0  0  0
  -24.8540  -11.8370   20.7600 C   0  0  0  0  0  0  0  0  0  0  0  0
  -26.4910  -13.0700   20.1390 N   0  0  0  0  0  0  0  0  0  0  0  0
  -26.1280  -11.7850   20.3880 N   0  0  0  0  0  0  0  0  0  0  0  0
  -24.1110  -10.5830   20.9460 C   0  0  0  0  0  0  0  0  0  0  0  0
  -24.5330   -9.6040   21.8730 C   0  0  0  0  0  3  0  0  0  0  0  0
  -23.7890   -8.4180   22.0480 C   0  0  0  0  0  3  0  0  0  0  0  0
  -22.6090   -8.2010   21.2970 C   0  0  0  0  0  0  0  0  0  0  0  0
  -22.2070   -9.1690   20.3600 C   0  0  0  0  0  3  0  0  0  0  0  0
  -22.9510  -10.3460   20.1820 C   0  0  0  0  0  3  0  0  0  0  0  0
  -21.8370   -7.0670   21.3830 O   0  0  0  0  0  0  0  0  0  0  0  0
  -21.7290   -6.3550   22.5510 C   0  0  0  0  0  0  0  0  0  0  0  0
  -21.2370   -6.9410   23.7380 C   0  0  0  0  0  3  0  0  0  0  0  0
  -21.0790   -6.1550   24.8970 C   0  0  0  0  0  3  0  0  0  0  0  0
  -21.4020   -4.7850   24.8690 C   0  0  0  0  0  0  0  0  0  0  0  0
  -21.8880   -4.2000   23.6850 C   0  0  0  0  0  3  0  0  0  0  0  0
  -22.0470   -4.9830   22.5290 C   0  0  0  0  0  0  0  0  0  0  0  0
  -22.4950   -4.4080   21.3870 F   0  0  0  0  0  0  0  0  0  0  0  0
  -21.2430   -4.0270   25.9800 F   0  0  0  0  0  0  0  0  0  0  0  0
  -23.0460  -13.6890   21.2050 C   0  0  0  0  0  0  0  0  0  0  0  0
  -22.3500  -12.9870   22.0900 N   0  0  0  0  0  0  0  0  0  0  0  0
  -22.6050  -14.7340   20.7290 O   0  0  0  0  0  0  0  0  0  0  0  0
  -22.7240  -12.1410   22.4940 H   0  0  0  0  0  0  0  0  0  0  0  0
  -21.4320  -13.3000   22.3700 H   0  0  0  0  0  0  0  0  0  0  0  0
  -25.6610  -15.3320   20.3120 N   0  0  0  0  0  0  0  0  0  0  0  0
  -24.9070  -15.9910   20.4670 H   0  0  0  0  0  0  0  0  0  0  0  0
  -26.4930  -15.7690   19.9370 H   0  0  0  0  0  0  0  0  0  0  0  0
  -30.8700  -17.1460   22.5000 C   0  0  0  0  0  1  0  0  0  0  0  0
  -31.1340  -18.1980   21.4010 C   0  0  0  0  0  3  0  0  0  0  0  0
  -33.0650  -19.5940   20.3990 C   0  0  0  0  0  1  0  0  0  0  0  0
  -32.6540  -18.3190   21.1490 C   0  0  0  0  0  2  0  0  0  0  0  0
  1  7  2  0
  2  4  1  0
  3  2  1  0
  3  5  1  0
  4  6  1  0
  5  6  1  0
  5  8  1  0
  6  1  1  0
  8  9  2  0
 10 11  1  0
 10  8  1  0
 12 23  2  0
 13 11  1  0
 13 18  1  0
 14 22  1  0
 14 24  1  0
 15 21  1  0
 15 17  1  0
 16 22  1  0
 17 16  1  0
 18 17  2  0
 19 20  1  0
 19 13  2  0
 20 15  2  0
 21 14  1  0
 22 12  1  0
 24 26  2  0
 25 24  1  0
 27 25  1  0
 28 37  2  0
 28 33  1  0
 29 25  1  0
 29 33  1  0
 30 29  1  0
 31 32  1  0
 31 30  1  0
 32 28  1  0
 33 34  2  0
 34 35  1  0
 36 35  2  0
 37 36  1  0
 38 12  1  0
 38 39  1  0
 38 48  1  0
 39 42  1  0
 40 44  1  0
 40 39  1  0
 41 40  2  0
 44 43  1  0
 46 47  1  0
 46 44  1  0
 46 45  1  0
 48 51  1  1
 48 49  1  0
 50 48  1  0
 52  1  1  0
 52 92  1  0
 53 59  1  0
 53 61  1  0
 54 59  1  0
 55 56  1  0
 55 54  1  0
 57 56  1  0
 57 66  1  0
 57 58  1  0
 59 58  1  0
 60 53  2  0
 61 52  1  0
 61 62  1  0
 63 64  2  0
 64 83  1  0
 65 64  1  0
 65 68  1  0
 66 67  1  0
 66 63  1  0
 67 65  2  0
 68 69  1  0
 69 70  2  0
 71 74  1  0
 71 70  1  0
 72 71  2  0
 73 72  1  0
 73 68  2  0
 74 75  1  0
 75 76  1  0
 76 77  2  0
 78 77  1  0
 78 82  1  0
 79 78  2  0
 80 75  2  0
 80 79  1  0
 81 80  1  0
 83 84  1  0
 84 87  1  0
 84 86  1  0
 85 83  2  0
 88 63  1  0
 88 89  1  0
 90 88  1  0
 92 91  1  0
 93 94  1  0
 94 92  1  0
M  ISO  4  10 101  11 101  53 100  61 100
M  END
>  <TORSDO>  (34) 
F 21

>  <SCORE>  (34) 
-13.699

>  <name>  (34) 
33

>  <ligand_id>  (34) 
33

>  <original_smiles>  (34) 
[H]c1c([H])c([H])c2c(c1[H])C([H])([H])C([H])([H])C([H])([H])C2([H])N([H])C(=O)C1([H])N(C(=O)C([H])(N([H])C(=O)C([H])(N([H])C([H])([H])[H])C([H])([H])[H])C(C([H])([H])[H])(C([H])([H])[H])C([H])([H])[H])C([H])([H])c2c([H])c(OC([H])([H])C(=O)C3([H])N(C(=O)C([H])(N([H])C(=O)N4C([H])([H])C([H])([H])C([H])([H])C([H])(n5nc(-c6c([H])c([H])c(Oc7c([H])c([H])c(F)c([H])c7F)c([H])c6[H])c(C(=O)N([H])[H])c5N([H])[H])C4([H])[H])C([H])(C([H])([H])[H])C([H])([H])C([H])([H])[H])C([H])([H])C([H])([H])C3([H])[H])c([H])c([H])c2C1([H])[H]

>  <smiles>  (34) 
[H]c1c([H])c([H])c2c(c1[H])C([H])([H])C([H])([H])C([H])([H])C2([H])N([H])C(=O)C1([H])N(C(=O)C([H])(N([H])C(=O)C([H])(N([H])C([H])([H])[H])C([H])([H])[H])C(C([H])([H])[H])(C([H])([H])[H])C([H])([H])[H])C([H])([H])c2c([H])c(OC([H])([H])C(=O)C3([H])N(C(=O)C([H])(N([H])C(=O)N4C([H])([H])C([H])([H])C([H])([H])C([H])(n5nc(-c6c([H])c([H])c(Oc7c([H])c([H])c(F)c([H])c7F)c([H])c6[H])c(C(=O)N([H])[H])c5N([H])[H])C4([H])[H])C([H])(C([H])([H])[H])C([H])([H])C([H])([H])[H])C([H])([H])C([H])([H])C3([H])[H])c([H])c([H])c2C1([H])[H]

$$$$
34:0:0
     RDKit          3D

 97104  0  0  1  0  0  0  0  0999 V2000
  -28.8130  -22.5350   19.7950 C   0  0  0  0  0  3  0  0  0  0  0  0
  -27.9340  -22.4110   18.5190 C   0  0  0  0  0  2  0  0  0  0  0  0
  -26.4020  -22.4310   18.7810 C   0  0  0  0  0  2  0  0  0  0  0  0
  -25.5660  -21.5810   17.8150 C   0  0  0  0  0  0  0  0  0  0  0  0
  -24.3490  -22.0150   17.5130 N   0  0  0  0  0  0  0  0  0  0  0  0
  -25.9900  -20.5240   17.3510 O   0  0  0  0  0  0  0  0  0  0  0  0
  -23.9960  -22.8770   17.9060 H   0  0  0  0  0  0  0  0  0  0  0  0
  -23.7510  -21.4760   16.9030 H   0  0  0  0  0  0  0  0  0  0  0  0
  -28.7120  -21.1550   20.6220 C   0  0  0  0  0  3  0  0  0  0  0  0
  -29.3440  -19.8270   19.9890 C   0  0  0  0  0  3  0  0  0  0  0  0
  -29.1380  -18.4060   20.6940 C   0  0  0  0  0  3  0  0  0  0  0  0
  -29.9480  -17.1810   20.0750 C   0  0  0  0  0  3  0  0  0  0  0  0
  -30.4940  -14.6860   20.3160 C   0  0  0  0  0  0  0  0  0  0  0  0
  -30.2930  -12.4250   19.3170 C   0  0  0  0  0  2  0  0  0  0  0  0
  -29.3320  -12.5040   18.1100 C   0  0  0  0  0  2  0  0  0  0  0  0
  -27.8720  -12.3250   18.5640 C   0  0  0  0  0  2  0  0  0  0  0  0
  -27.5100  -13.2060   19.7900 C   0  0  0  0  0  3  0  0  0  0  0  0
  -28.5890  -13.1130   20.8940 C   0  0  0  0  0  2  0  0  0  0  0  0
  -29.8800  -13.4610   20.2870 N   0  0  0  0  0  0  0  0  0  0  0  0
  -31.6430  -14.8310   19.8920 O   0  0  0  0  0  0  0  0  0  0  0  0
  -29.7170  -15.7810   20.5950 N   0  0  0  0  0  0  0  0  0  0  0  0
  -28.7940  -15.5830   20.9520 H   0  0  0  0  0  0  0  0  0  0  0  0
  -25.1270  -13.7580   20.5730 C   0  0  0  0  0  0  0  0  0  0  0  0
  -24.0810  -12.9650   20.9560 C   0  0  0  0  0  0  0  0  0  0  0  0
  -24.5600  -11.6200   20.8930 C   0  0  0  0  0  0  0  0  0  0  0  0
  -26.1780  -12.8970   20.3030 N   0  0  0  0  0  0  0  0  0  0  0  0
  -25.8430  -11.6050   20.5550 N   0  0  0  0  0  0  0  0  0  0  0  0
  -23.8540  -10.3460   21.0810 C   0  0  0  0  0  0  0  0  0  0  0  0
  -24.3200   -9.3700   21.9900 C   0  0  0  0  0  3  0  0  0  0  0  0
  -23.6140   -8.1600   22.1660 C   0  0  0  0  0  3  0  0  0  0  0  0
  -22.4270   -7.9170   21.4330 C   0  0  0  0  0  0  0  0  0  0  0  0
  -21.9800   -8.8820   20.5120 C   0  0  0  0  0  3  0  0  0  0  0  0
  -22.6880  -10.0820   20.3350 C   0  0  0  0  0  3  0  0  0  0  0  0
  -21.6900   -6.7610   21.5220 O   0  0  0  0  0  0  0  0  0  0  0  0
  -21.6780   -6.0000   22.6630 C   0  0  0  0  0  0  0  0  0  0  0  0
  -21.2800   -6.5300   23.9100 C   0  0  0  0  0  3  0  0  0  0  0  0
  -21.2160   -5.6950   25.0430 C   0  0  0  0  0  3  0  0  0  0  0  0
  -21.5410   -4.3300   24.9300 C   0  0  0  0  0  0  0  0  0  0  0  0
  -21.9320   -3.7980   23.6890 C   0  0  0  0  0  3  0  0  0  0  0  0
  -21.9970   -4.6310   22.5580 C   0  0  0  0  0  0  0  0  0  0  0  0
  -22.3540   -4.1090   21.3590 F   0  0  0  0  0  0  0  0  0  0  0  0
  -21.4710   -3.5240   26.0160 F   0  0  0  0  0  0  0  0  0  0  0  0
  -22.6830  -13.4180   21.2650 C   0  0  0  0  0  0  0  0  0  0  0  0
  -21.9860  -12.7050   22.1440 N   0  0  0  0  0  0  0  0  0  0  0  0
  -22.2180  -14.4400   20.7630 O   0  0  0  0  0  0  0  0  0  0  0  0
  -22.3750  -11.8810   22.5780 H   0  0  0  0  0  0  0  0  0  0  0  0
  -21.0480  -12.9890   22.3880 H   0  0  0  0  0  0  0  0  0  0  0  0
  -25.2660  -15.1340   20.4110 N   0  0  0  0  0  0  0  0  0  0  0  0
  -24.4860  -15.7700   20.5420 H   0  0  0  0  0  0  0  0  0  0  0  0
  -26.0910  -15.5880   20.0420 H   0  0  0  0  0  0  0  0  0  0  0  0
  -28.5460  -23.9490   20.5380 C   0  0  0  0  0  3  0  0  0  0  0  0
  -29.4790  -24.1160   21.6740 N   0  0  0  0  0  4  0  0  0  0  0  0
  -29.3180  -25.0060   22.1160 H   0  0  0  0  0  0  0  0  0  0  0  0
  -30.4370  -24.0990   21.3680 H   0  0  0  0  0  0  0  0  0  0  0  0
  -29.3460  -23.4010   22.3680 H   0  0  0  0  0  0  0  0  0  0  0  0
  -28.6190  -25.2770   19.6460 C   0  0  0  0  0  2  0  0  0  0  0  0
  -28.4730  -26.5970   20.3100 O   0  0  0  0  0  0  0  0  0  0  0  0
  -24.6100  -31.9090   23.2640 C   0  0  0  0  0  0  0  0  0  0  0  0
  -27.3100  -27.3830   20.2310 C   0  0  0  0  0  0  0  0  0  0  0  0
  -23.4400  -30.5010   21.6060 C   0  0  0  0  0  3  0  0  0  0  0  0
  -24.9220  -28.9680   20.1990 C   0  0  0  0  0  0  0  0  0  0  0  0
  -25.9780  -30.8450   21.4560 C   0  0  0  0  0  2  0  0  0  0  0  0
  -26.0770  -29.4690   20.8100 C   0  0  0  0  0  0  0  0  0  0  0  0
  -27.2710  -28.6890   20.8170 C   0  0  0  0  0  3  0  0  0  0  0  0
  -26.1200  -26.9290   19.6130 C   0  0  0  0  0  3  0  0  0  0  0  0
  -24.9460  -27.7040   19.5940 C   0  0  0  0  0  3  0  0  0  0  0  0
  -23.6770  -29.8290   20.2290 C   0  0  0  0  0  2  0  0  0  0  0  0
  -24.6940  -31.1020   22.1650 N   0  0  0  0  0  0  0  0  0  0  0  0
  -23.5180  -32.1760   23.7840 O   0  0  0  0  0  0  0  0  0  0  0  0
  -22.7770  -29.4750   22.5560 C   0  0  0  0  0  0  0  0  0  0  0  0
  -21.4520  -29.2980   22.4210 N   0  0  0  0  0  0  0  0  0  0  0  0
  -23.4530  -28.8410   23.3700 O   0  0  0  0  0  0  0  0  0  0  0  0
  -20.9650  -29.8610   21.7380 H   0  0  0  0  0  0  0  0  0  0  0  0
  -18.0680  -28.1250   22.9240 C   0  0  0  0  0  0  0  0  0  0  0  0
  -20.6300  -28.3550   23.1820 C   0  0  0  0  0  3  0  0  0  0  0  0
  -20.7160  -26.9330   22.5820 C   0  0  0  0  0  2  0  0  0  0  0  0
  -19.6040  -26.6370   21.5710 C   0  0  0  0  0  2  0  0  0  0  0  0
  -18.2270  -26.7850   22.2240 C   0  0  0  0  0  2  0  0  0  0  0  0
  -19.1960  -28.8690   23.3580 C   0  0  0  0  0  0  0  0  0  0  0  0
  -18.9930  -30.1250   23.9700 C   0  0  0  0  0  3  0  0  0  0  0  0
  -17.6930  -30.6350   24.1540 C   0  0  0  0  0  3  0  0  0  0  0  0
  -16.5800  -29.8870   23.7340 C   0  0  0  0  0  3  0  0  0  0  0  0
  -16.7680  -28.6340   23.1240 C   0  0  0  0  0  3  0  0  0  0  0  0
  -25.8780  -32.5520   23.9030 C   0  0  0  0  0  3  0  0  0  0  0  0
  -26.3740  -31.7940   25.1960 C   0  0  1  0  0  0  0  0  0  0  0  0
  -25.2630  -31.5600   26.2440 C   0  0  0  0  0  1  0  0  0  0  0  0
  -26.9710  -30.4160   24.8270 C   0  0  0  0  0  1  0  0  0  0  0  0
  -27.5070  -32.6000   25.8730 C   0  0  0  0  0  1  0  0  0  0  0  0
  -25.5560  -33.9520   24.2160 N   0  0  0  0  0  0  0  0  0  0  0  0
  -25.8930  -35.0000   23.4520 C   0  0  0  0  0  0  0  0  0  0  0  0
  -26.5780  -34.8910   22.4320 O   0  0  0  0  0  0  0  0  0  0  0  0
  -24.9520  -34.1120   25.0080 H   0  0  0  0  0  0  0  0  0  0  0  0
  -24.1530  -36.7770   23.0650 C   0  0  0  0  0  1  0  0  0  0  0  0
  -25.3910  -36.3890   23.8910 C   0  0  0  0  0  3  0  0  0  0  0  0
  -27.5120  -37.2990   24.7300 C   0  0  0  0  0  1  0  0  0  0  0  0
  -26.4160  -37.4500   23.7760 N   0  0  0  0  0  0  0  0  0  0  0  0
  -26.0010  -38.3670   23.9140 H   0  0  0  0  0  0  0  0  0  0  0  0
  1  2  1  0
  1 51  1  0
  1  9  1  0
  2  3  1  0
  4  3  1  0
  5  4  1  0
  5  7  1  0
  6  4  2  0
  8  5  1  0
 10  9  2  0
 10 11  1  0
 12 21  1  0
 12 11  2  0
 13 21  1  0
 14 19  1  0
 15 16  1  0
 15 14  1  0
 17 16  1  0
 17 26  1  0
 17 18  1  0
 19 13  1  0
 19 18  1  0
 20 13  2  0
 21 22  1  0
 23 24  2  0
 24 43  1  0
 25 24  1  0
 25 28  1  0
 26 27  1  0
 26 23  1  0
 27 25  2  0
 28 29  1  0
 29 30  2  0
 31 34  1  0
 31 30  1  0
 32 31  2  0
 33 32  1  0
 33 28  2  0
 34 35  1  0
 35 36  1  0
 36 37  2  0
 38 37  1  0
 38 42  1  0
 39 38  2  0
 40 35  2  0
 40 39  1  0
 41 40  1  0
 43 44  1  0
 44 47  1  0
 44 46  1  0
 45 43  2  0
 48 49  1  0
 48 23  1  0
 50 48  1  0
 51 56  1  0
 51 52  1  0
 52 53  1  0
 52 55  1  0
 54 52  1  0
 56 57  1  0
 58 69  2  0
 59 57  1  0
 59 64  1  0
 60 68  1  0
 60 70  1  0
 61 67  1  0
 61 63  1  0
 62 68  1  0
 63 64  2  0
 63 62  1  0
 65 59  2  0
 66 65  1  0
 66 61  2  0
 67 60  1  0
 68 58  1  0
 70 72  2  0
 71 70  1  0
 73 71  1  0
 74 83  2  0
 74 79  1  0
 75 71  1  0
 75 79  1  0
 76 75  1  0
 77 78  1  0
 77 76  1  0
 78 74  1  0
 79 80  2  0
 80 81  1  0
 82 81  2  0
 83 82  1  0
 84 58  1  0
 84 89  1  0
 84 85  1  0
 85 88  1  1
 85 86  1  0
 87 85  1  0
 89 92  1  0
 90 94  1  0
 90 89  1  0
 91 90  2  0
 94 93  1  0
 96 94  1  0
 96 97  1  0
 96 95  1  0
M  ISO  4  13 100  21 100  56 101  57 101
M  END
>  <TORSDO>  (35) 
F 26

>  <SCORE>  (35) 
-12.357

>  <name>  (35) 
34

>  <ligand_id>  (35) 
34

>  <original_smiles>  (35) 
[H]c1c([H])c([H])c2c(c1[H])C([H])([H])C([H])([H])C([H])([H])C2([H])N([H])C(=O)C1([H])N(C(=O)C([H])(N([H])C(=O)C([H])(N([H])C([H])([H])[H])C([H])([H])[H])C(C([H])([H])[H])(C([H])([H])[H])C([H])([H])[H])C([H])([H])c2c([H])c(OC([H])([H])C([H])(C([H])(C([H])([H])C([H])([H])C(=O)N([H])[H])C([H])([H])C([H])([H])C([H])([H])C([H])([H])N([H])C(=O)N3C([H])([H])C([H])([H])C([H])([H])C([H])(n4nc(-c5c([H])c([H])c(Oc6c([H])c([H])c(F)c([H])c6F)c([H])c5[H])c(C(=O)N([H])[H])c4N([H])[H])C3([H])[H])[N+]([H])([H])[H])c([H])c([H])c2C1([H])[H]

>  <smiles>  (35) 
[H]c1c([H])c([H])c2c(c1[H])C([H])([H])C([H])([H])C([H])([H])C2([H])N([H])C(=O)C1([H])N(C(=O)C([H])(N([H])C(=O)C([H])(N([H])C([H])([H])[H])C([H])([H])[H])C(C([H])([H])[H])(C([H])([H])[H])C([H])([H])[H])C([H])([H])c2c([H])c(OC([H])([H])C([H])(C([H])(C([H])([H])C([H])([H])C(=O)N([H])[H])C([H])([H])C([H])([H])C([H])([H])C([H])([H])N([H])C(=O)N3C([H])([H])C([H])([H])C([H])([H])C([H])(n4nc(-c5c([H])c([H])c(Oc6c([H])c([H])c(F)c([H])c6F)c([H])c5[H])c(C(=O)N([H])[H])c4N([H])[H])C3([H])[H])[N+]([H])([H])[H])c([H])c([H])c2C1([H])[H]

$$$$
35:0:0
     RDKit          3D

 99107  0  0  1  0  0  0  0  0999 V2000
  -28.9850  -23.6030   22.8340 C   0  0  0  0  0  2  0  0  0  0  0  0
  -28.1460  -23.3400   20.4640 C   0  0  0  0  0  2  0  0  0  0  0  0
  -29.0500  -22.0610   22.6750 C   0  0  0  0  0  2  0  0  0  0  0  0
  -29.3330  -22.3840   20.2130 C   0  0  0  0  0  2  0  0  0  0  0  0
  -28.4970  -24.3630   21.5630 C   0  0  0  0  0  3  0  0  0  0  0  0
  -29.8210  -21.6840   21.4550 N   0  0  2  0  0  4  0  0  0  0  0  0
  -30.7540  -22.0400   21.6100 H   0  0  0  0  0  0  0  0  0  0  0  0
  -29.9940  -20.2120   21.2900 C   0  0  0  0  0  2  0  0  0  0  0  0
  -31.4580  -19.6580   21.5170 C   0  0  0  0  0  3  0  0  0  0  0  0
  -31.2830  -19.3540   24.1080 C   0  0  0  0  0  1  0  0  0  0  0  0
  -32.0220  -19.9940   22.9200 C   0  0  0  0  0  2  0  0  0  0  0  0
  -31.5490  -18.0950   21.2860 C   0  0  0  0  0  2  0  0  0  0  0  0
  -31.4400  -17.0410   20.1150 C   0  0  0  0  0  3  0  0  0  0  0  0
  -31.8650  -14.6080   20.0610 C   0  0  0  0  0  0  0  0  0  0  0  0
  -31.3850  -12.3730   19.1590 C   0  0  0  0  0  2  0  0  0  0  0  0
  -30.4500  -12.4930   17.9360 C   0  0  0  0  0  2  0  0  0  0  0  0
  -28.9780  -12.4740   18.3900 C   0  0  0  0  0  2  0  0  0  0  0  0
  -28.6950  -13.4790   19.5370 C   0  0  0  0  0  3  0  0  0  0  0  0
  -29.7550  -13.3530   20.6650 C   0  0  0  0  0  2  0  0  0  0  0  0
  -31.1020  -13.4860   20.0800 N   0  0  0  0  0  0  0  0  0  0  0  0
  -32.9210  -14.6960   19.4280 O   0  0  0  0  0  0  0  0  0  0  0  0
  -31.3330  -15.6800   20.6650 N   0  0  0  0  0  0  0  0  0  0  0  0
  -30.5410  -15.4900   21.2580 H   0  0  0  0  0  0  0  0  0  0  0  0
  -26.3800  -14.3160   20.3220 C   0  0  0  0  0  0  0  0  0  0  0  0
  -25.2610  -13.6610   20.7330 C   0  0  0  0  0  0  0  0  0  0  0  0
  -25.5710  -12.2720   20.6300 C   0  0  0  0  0  0  0  0  0  0  0  0
  -27.3310  -13.3430   20.0460 N   0  0  0  0  0  0  0  0  0  0  0  0
  -26.8410  -12.1010   20.2760 N   0  0  0  0  0  0  0  0  0  0  0  0
  -24.7050  -11.1010   20.7790 C   0  0  0  0  0  0  0  0  0  0  0  0
  -25.0280  -10.0650   21.6800 C   0  0  0  0  0  3  0  0  0  0  0  0
  -24.1670   -8.9560   21.8300 C   0  0  0  0  0  3  0  0  0  0  0  0
  -22.9740   -8.8820   21.0740 C   0  0  0  0  0  0  0  0  0  0  0  0
  -22.6680   -9.9060   20.1630 C   0  0  0  0  0  3  0  0  0  0  0  0
  -23.5290  -11.0040   20.0090 C   0  0  0  0  0  3  0  0  0  0  0  0
  -22.0940   -7.8270   21.1320 O   0  0  0  0  0  0  0  0  0  0  0  0
  -21.9150   -7.1060   22.2830 C   0  0  0  0  0  0  0  0  0  0  0  0
  -21.5090   -7.7180   23.4900 C   0  0  0  0  0  3  0  0  0  0  0  0
  -21.2760   -6.9320   24.6370 C   0  0  0  0  0  3  0  0  0  0  0  0
  -21.4250   -5.5330   24.5800 C   0  0  0  0  0  0  0  0  0  0  0  0
  -21.8180   -4.9210   23.3780 C   0  0  0  0  0  3  0  0  0  0  0  0
  -22.0600   -5.7030   22.2370 C   0  0  0  0  0  0  0  0  0  0  0  0
  -22.4210   -5.1040   21.0750 F   0  0  0  0  0  0  0  0  0  0  0  0
  -21.1830   -4.7780   25.6770 F   0  0  0  0  0  0  0  0  0  0  0  0
  -23.9380  -14.2820   21.0830 C   0  0  0  0  0  0  0  0  0  0  0  0
  -23.1940  -13.6580   21.9920 N   0  0  0  0  0  0  0  0  0  0  0  0
  -23.5840  -15.3560   20.5910 O   0  0  0  0  0  0  0  0  0  0  0  0
  -23.5010  -12.7950   22.4200 H   0  0  0  0  0  0  0  0  0  0  0  0
  -22.3000  -14.0430   22.2600 H   0  0  0  0  0  0  0  0  0  0  0  0
  -26.6450  -15.6580   20.1290 N   0  0  0  0  0  0  0  0  0  0  0  0
  -25.9480  -16.3730   20.2920 H   0  0  0  0  0  0  0  0  0  0  0  0
  -27.5390  -16.0410   19.8610 H   0  0  0  0  0  0  0  0  0  0  0  0
  -30.2560  -17.2170   19.0760 C   0  0  0  0  0  3  0  0  0  0  0  0
  -27.7710  -18.1860   19.0220 C   0  0  0  0  0  1  0  0  0  0  0  0
  -28.8820  -17.4390   19.7850 C   0  0  0  0  0  2  0  0  0  0  0  0
  -29.8110  -18.1130   16.6350 C   0  0  0  0  0  1  0  0  0  0  0  0
  -30.6600  -18.1780   17.9150 C   0  0  0  0  0  2  0  0  0  0  0  0
  -29.5540  -25.3890   21.0940 C   0  0  0  0  0  2  0  0  0  0  0  0
  -29.2030  -26.2090   19.8320 C   0  0  0  0  0  2  0  0  0  0  0  0
  -28.9650  -27.5520   20.2190 O   0  0  0  0  0  0  0  0  0  0  0  0
  -24.8590  -32.0580   23.7370 C   0  0  0  0  0  0  0  0  0  0  0  0
  -27.7080  -28.1060   20.2450 C   0  0  0  0  0  0  0  0  0  0  0  0
  -23.7290  -30.8460   21.8990 C   0  0  0  0  0  3  0  0  0  0  0  0
  -25.2600  -29.5050   20.3570 C   0  0  0  0  0  0  0  0  0  0  0  0
  -26.2460  -31.2810   21.8230 C   0  0  0  0  0  2  0  0  0  0  0  0
  -26.3770  -29.9970   21.0390 C   0  0  0  0  0  0  0  0  0  0  0  0
  -27.5990  -29.3000   20.9810 C   0  0  0  0  0  3  0  0  0  0  0  0
  -26.5760  -27.6040   19.5640 C   0  0  0  0  0  3  0  0  0  0  0  0
  -25.3520  -28.3080   19.6200 C   0  0  0  0  0  3  0  0  0  0  0  0
  -23.9900  -30.3230   20.4600 C   0  0  0  0  0  2  0  0  0  0  0  0
  -24.9600  -31.4040   22.5480 N   0  0  0  0  0  0  0  0  0  0  0  0
  -23.7550  -32.2450   24.2680 O   0  0  0  0  0  0  0  0  0  0  0  0
  -23.0720  -29.7120   22.7090 C   0  0  0  0  0  0  0  0  0  0  0  0
  -21.7620  -29.5140   22.4960 N   0  0  0  0  0  0  0  0  0  0  0  0
  -23.7350  -29.0100   23.4790 O   0  0  0  0  0  0  0  0  0  0  0  0
  -21.2900  -30.1150   21.8350 H   0  0  0  0  0  0  0  0  0  0  0  0
  -18.4170  -28.1730   22.6790 C   0  0  0  0  0  0  0  0  0  0  0  0
  -20.9450  -28.4770   23.1170 C   0  0  0  0  0  3  0  0  0  0  0  0
  -21.1380  -27.1250   22.3970 C   0  0  0  0  0  2  0  0  0  0  0  0
  -20.1010  -26.8850   21.2950 C   0  0  0  0  0  2  0  0  0  0  0  0
  -18.6860  -26.9100   21.8780 C   0  0  0  0  0  2  0  0  0  0  0  0
  -19.4830  -28.9180   23.2490 C   0  0  0  0  0  0  0  0  0  0  0  0
  -19.1890  -30.1010   23.9600 C   0  0  0  0  0  3  0  0  0  0  0  0
  -17.8630  -30.5430   24.1100 C   0  0  0  0  0  3  0  0  0  0  0  0
  -16.8090  -29.7940   23.5590 C   0  0  0  0  0  3  0  0  0  0  0  0
  -17.0860  -28.6100   22.8500 C   0  0  0  0  0  3  0  0  0  0  0  0
  -26.1160  -32.6260   24.4710 C   0  0  0  0  0  3  0  0  0  0  0  0
  -26.5280  -31.7850   25.7400 C   0  0  1  0  0  0  0  0  0  0  0  0
  -25.3530  -31.5020   26.7030 C   0  0  0  0  0  1  0  0  0  0  0  0
  -27.1440  -30.4270   25.3250 C   0  0  0  0  0  1  0  0  0  0  0  0
  -27.6210  -32.5400   26.5360 C   0  0  0  0  0  1  0  0  0  0  0  0
  -25.8190  -34.0160   24.8390 N   0  0  0  0  0  0  0  0  0  0  0  0
  -26.2350  -35.0880   24.1560 C   0  0  0  0  0  0  0  0  0  0  0  0
  -26.9860  -35.0070   23.1780 O   0  0  0  0  0  0  0  0  0  0  0  0
  -25.1670  -34.1590   25.5950 H   0  0  0  0  0  0  0  0  0  0  0  0
  -24.5870  -36.9420   23.7470 C   0  0  0  0  0  1  0  0  0  0  0  0
  -25.7490  -36.4690   24.6330 C   0  0  0  0  0  3  0  0  0  0  0  0
  -27.8320  -37.2600   25.6630 C   0  0  0  0  0  1  0  0  0  0  0  0
  -26.8120  -37.4980   24.6460 N   0  0  0  0  0  0  0  0  0  0  0  0
  -26.4160  -38.4210   24.8010 H   0  0  0  0  0  0  0  0  0  0  0  0
  2  5  1  0
  3  1  1  0
  4  2  1  0
  4  6  1  0
  5 57  1  0
  5  1  1  0
  6  7  1  1
  6  3  1  0
  8  6  1  0
  8  9  1  0
  9 12  1  0
  9 11  1  0
 11 10  1  0
 13 22  1  0
 13 12  1  0
 14 20  1  0
 14 22  1  0
 15 20  1  0
 16 17  1  0
 16 15  1  0
 18 17  1  0
 18 27  1  0
 18 19  1  0
 20 19  1  0
 21 14  2  0
 22 23  1  0
 24 25  2  0
 25 44  1  0
 26 25  1  0
 26 29  1  0
 27 28  1  0
 27 24  1  0
 28 26  2  0
 29 30  1  0
 30 31  2  0
 32 35  1  0
 32 31  1  0
 33 32  2  0
 34 33  1  0
 34 29  2  0
 35 36  1  0
 36 37  1  0
 37 38  2  0
 39 38  1  0
 39 43  1  0
 40 39  2  0
 41 36  2  0
 41 40  1  0
 42 41  1  0
 44 45  1  0
 45 48  1  0
 45 47  1  0
 46 44  2  0
 49 50  1  0
 49 24  1  0
 51 49  1  0
 52 54  1  0
 52 13  1  0
 53 54  1  0
 55 56  1  0
 56 52  1  0
 58 59  1  0
 58 57  1  0
 59 61  1  0
 60 71  2  0
 61 66  1  0
 62 70  1  0
 62 72  1  0
 63 69  1  0
 63 65  1  0
 64 70  1  0
 65 64  1  0
 66 65  2  0
 67 68  1  0
 67 61  2  0
 68 63  2  0
 69 62  1  0
 70 60  1  0
 72 74  2  0
 73 72  1  0
 75 73  1  0
 76 85  2  0
 76 81  1  0
 77 73  1  0
 77 81  1  0
 78 77  1  0
 79 80  1  0
 79 78  1  0
 80 76  1  0
 81 82  2  0
 82 83  1  0
 84 83  2  0
 85 84  1  0
 86 60  1  0
 86 91  1  0
 86 87  1  0
 87 90  1  1
 87 88  1  0
 89 87  1  0
 91 94  1  0
 92 96  1  0
 92 91  1  0
 93 92  2  0
 96 95  1  0
 96 98  1  0
 98 99  1  0
 98 97  1  0
M  ISO  4  14 100  22 100  58 101  59 101
M  END
>  <TORSDO>  (36) 
F 26

>  <SCORE>  (36) 
-10.059

>  <name>  (36) 
35

>  <ligand_id>  (36) 
35

>  <original_smiles>  (36) 
[H]c1c([H])c([H])c2c(c1[H])C([H])([H])C([H])([H])C([H])([H])C2([H])N([H])C(=O)C1([H])N(C(=O)C([H])(N([H])C(=O)C([H])(N([H])C([H])([H])[H])C([H])([H])[H])C(C([H])([H])[H])(C([H])([H])[H])C([H])([H])[H])C([H])([H])c2c([H])c(OC([H])([H])C([H])([H])C3([H])C([H])([H])C([H])([H])[N+]([H])(C([H])([H])C([H])(C([H])([H])C([H])([H])[H])C([H])([H])C([H])(N([H])C(=O)N4C([H])([H])C([H])([H])C([H])([H])C([H])(n5nc(-c6c([H])c([H])c(Oc7c([H])c([H])c(F)c([H])c7F)c([H])c6[H])c(C(=O)N([H])[H])c5N([H])[H])C4([H])[H])C([H])(C([H])([H])C([H])([H])[H])C([H])([H])C([H])([H])[H])C([H])([H])C3([H])[H])c([H])c([H])c2C1([H])[H]

>  <smiles>  (36) 
[H]c1c([H])c([H])c2c(c1[H])C([H])([H])C([H])([H])C([H])([H])C2([H])N([H])C(=O)C1([H])N(C(=O)C([H])(N([H])C(=O)C([H])(N([H])C([H])([H])[H])C([H])([H])[H])C(C([H])([H])[H])(C([H])([H])[H])C([H])([H])[H])C([H])([H])c2c([H])c(OC([H])([H])C([H])([H])C3([H])C([H])([H])C([H])([H])[N+]([H])(C([H])([H])C([H])(C([H])([H])C([H])([H])[H])C([H])([H])C([H])(N([H])C(=O)N4C([H])([H])C([H])([H])C([H])([H])C([H])(n5nc(-c6c([H])c([H])c(Oc7c([H])c([H])c(F)c([H])c7F)c([H])c6[H])c(C(=O)N([H])[H])c5N([H])[H])C4([H])[H])C([H])(C([H])([H])C([H])([H])[H])C([H])([H])C([H])([H])[H])C([H])([H])C3([H])[H])c([H])c([H])c2C1([H])[H]

$$$$
36:0:0
     RDKit          3D

 99107  0  0  1  0  0  0  0  0999 V2000
  -30.8860  -19.8440   18.2860 C   0  0  0  0  0  0  0  0  0  0  0  0
  -32.3840  -21.4250   15.2930 C   0  0  0  0  0  2  0  0  0  0  0  0
  -32.3970  -20.2840   16.3320 C   0  0  0  0  0  2  0  0  0  0  0  0
  -30.3640  -21.5170   16.5260 C   0  0  0  0  0  2  0  0  0  0  0  0
  -31.3950  -22.4470   15.8730 C   0  0  0  0  0  3  0  0  0  0  0  0
  -31.1360  -20.3940   17.0720 N   0  0  0  0  0  0  0  0  0  0  0  0
  -30.0340  -20.3280   19.0340 O   0  0  0  0  0  0  0  0  0  0  0  0
  -32.0340  -23.3950   16.9150 C   0  0  0  0  0  0  0  0  0  0  0  0
  -33.2260  -23.3170   17.2260 O   0  0  0  0  0  0  0  0  0  0  0  0
  -31.1270  -24.4170   17.6070 C   0  0  0  0  0  2  0  0  0  0  0  0
  -30.7490  -23.9950   19.0440 C   0  0  0  0  0  2  0  0  0  0  0  0
  -30.1950  -24.6850   21.4010 C   0  0  0  0  0  1  0  0  0  0  0  0
  -30.2120  -25.1380   19.9260 C   0  0  0  0  0  3  0  0  0  0  0  0
  -28.8240  -25.6660   19.4670 C   0  0  0  0  0  2  0  0  0  0  0  0
  -28.5200  -26.8330   20.2210 O   0  0  0  0  0  0  0  0  0  0  0  0
  -24.5840  -31.8740   23.2320 C   0  0  0  0  0  0  0  0  0  0  0  0
  -27.2880  -27.4540   20.1680 C   0  0  0  0  0  0  0  0  0  0  0  0
  -23.3830  -30.4530   21.5980 C   0  0  0  0  0  3  0  0  0  0  0  0
  -24.8490  -28.9000   20.1860 C   0  0  0  0  0  0  0  0  0  0  0  0
  -25.8970  -30.8250   21.3940 C   0  0  0  0  0  2  0  0  0  0  0  0
  -25.9940  -29.4460   20.7770 C   0  0  0  0  0  0  0  0  0  0  0  0
  -27.2010  -28.7210   20.7830 C   0  0  0  0  0  3  0  0  0  0  0  0
  -26.1280  -26.9120   19.5640 C   0  0  0  0  0  3  0  0  0  0  0  0
  -24.9080  -27.6280   19.5860 C   0  0  0  0  0  3  0  0  0  0  0  0
  -23.5970  -29.7520   20.2270 C   0  0  0  0  0  2  0  0  0  0  0  0
  -24.6390  -31.0650   22.1360 N   0  0  0  0  0  0  0  0  0  0  0  0
  -23.5030  -32.1500   23.7710 O   0  0  0  0  0  0  0  0  0  0  0  0
  -22.7310  -29.4420   22.5680 C   0  0  0  0  0  0  0  0  0  0  0  0
  -21.4070  -29.2650   22.4400 N   0  0  0  0  0  0  0  0  0  0  0  0
  -23.4140  -28.8200   23.3870 O   0  0  0  0  0  0  0  0  0  0  0  0
  -20.9200  -29.8200   21.7500 H   0  0  0  0  0  0  0  0  0  0  0  0
  -18.0270  -28.0910   22.9330 C   0  0  0  0  0  0  0  0  0  0  0  0
  -20.5840  -28.3320   23.2110 C   0  0  0  0  0  3  0  0  0  0  0  0
  -20.6830  -26.9020   22.6310 C   0  0  0  0  0  2  0  0  0  0  0  0
  -19.5790  -26.5860   21.6180 C   0  0  0  0  0  2  0  0  0  0  0  0
  -18.1970  -26.7380   22.2620 C   0  0  0  0  0  2  0  0  0  0  0  0
  -19.1500  -28.8470   23.3640 C   0  0  0  0  0  0  0  0  0  0  0  0
  -18.9380  -30.1140   23.9480 C   0  0  0  0  0  3  0  0  0  0  0  0
  -17.6370  -30.6220   24.1150 C   0  0  0  0  0  3  0  0  0  0  0  0
  -16.5280  -29.8620   23.7040 C   0  0  0  0  0  3  0  0  0  0  0  0
  -16.7250  -28.5990   23.1150 C   0  0  0  0  0  3  0  0  0  0  0  0
  -25.8710  -32.5060   23.8520 C   0  0  0  0  0  3  0  0  0  0  0  0
  -26.3920  -31.7350   25.1250 C   0  0  1  0  0  0  0  0  0  0  0  0
  -25.3020  -31.4970   26.1970 C   0  0  0  0  0  1  0  0  0  0  0  0
  -26.9750  -30.3590   24.7230 C   0  0  0  0  0  1  0  0  0  0  0  0
  -27.5460  -32.5270   25.7830 C   0  0  0  0  0  1  0  0  0  0  0  0
  -25.5620  -33.9050   24.1810 N   0  0  0  0  0  0  0  0  0  0  0  0
  -25.8990  -34.9560   23.4220 C   0  0  0  0  0  0  0  0  0  0  0  0
  -26.5710  -34.8510   22.3920 O   0  0  0  0  0  0  0  0  0  0  0  0
  -24.9650  -34.0630   24.9800 H   0  0  0  0  0  0  0  0  0  0  0  0
  -24.1710  -36.7470   23.0640 C   0  0  0  0  0  1  0  0  0  0  0  0
  -25.4120  -36.3460   23.8770 C   0  0  0  0  0  3  0  0  0  0  0  0
  -27.5480  -37.2280   24.7060 C   0  0  0  0  0  1  0  0  0  0  0  0
  -26.4470  -37.3970   23.7630 N   0  0  0  0  0  0  0  0  0  0  0  0
  -26.0420  -38.3180   23.9090 H   0  0  0  0  0  0  0  0  0  0  0  0
  -31.6340  -18.5660   18.7210 C   0  0  0  0  0  2  0  0  0  0  0  0
  -30.9950  -17.7690   19.9090 C   0  0  0  0  0  2  0  0  0  0  0  0
  -29.9420  -16.6810   19.5200 C   0  0  0  0  0  3  0  0  0  0  0  0
  -30.6610  -14.4690   20.3490 C   0  0  0  0  0  0  0  0  0  0  0  0
  -30.3450  -12.2930   19.2930 C   0  0  0  0  0  2  0  0  0  0  0  0
  -29.4130  -12.5010   18.0810 C   0  0  0  0  0  2  0  0  0  0  0  0
  -27.9410  -12.3700   18.5120 C   0  0  0  0  0  2  0  0  0  0  0  0
  -27.6080  -13.2340   19.7570 C   0  0  0  0  0  3  0  0  0  0  0  0
  -28.6550  -13.0260   20.8780 C   0  0  0  0  0  2  0  0  0  0  0  0
  -29.9840  -13.2910   20.3060 N   0  0  0  0  0  0  0  0  0  0  0  0
  -31.8250  -14.5800   19.9590 O   0  0  0  0  0  0  0  0  0  0  0  0
  -29.8900  -15.5640   20.4910 N   0  0  0  0  0  0  0  0  0  0  0  0
  -29.0020  -15.4370   20.9570 H   0  0  0  0  0  0  0  0  0  0  0  0
  -25.2170  -13.8840   20.4320 C   0  0  0  0  0  0  0  0  0  0  0  0
  -24.1410  -13.1190   20.8050 C   0  0  0  0  0  0  0  0  0  0  0  0
  -24.5910  -11.7660   20.7950 C   0  0  0  0  0  0  0  0  0  0  0  0
  -26.2530  -12.9870   20.2310 N   0  0  0  0  0  0  0  0  0  0  0  0
  -25.8850  -11.7130   20.5110 N   0  0  0  0  0  0  0  0  0  0  0  0
  -23.8610  -10.5090   20.9880 C   0  0  0  0  0  0  0  0  0  0  0  0
  -24.2870   -9.5540   21.9360 C   0  0  0  0  0  3  0  0  0  0  0  0
  -23.5530   -8.3620   22.1240 C   0  0  0  0  0  3  0  0  0  0  0  0
  -22.3810   -8.1240   21.3650 C   0  0  0  0  0  0  0  0  0  0  0  0
  -21.9730   -9.0730   20.4100 C   0  0  0  0  0  3  0  0  0  0  0  0
  -22.7070  -10.2570   20.2200 C   0  0  0  0  0  3  0  0  0  0  0  0
  -21.6160   -6.9860   21.4560 O   0  0  0  0  0  0  0  0  0  0  0  0
  -21.5580   -6.2490   22.6090 C   0  0  0  0  0  0  0  0  0  0  0  0
  -21.1420   -6.8130   23.8370 C   0  0  0  0  0  3  0  0  0  0  0  0
  -21.0310   -5.9990   24.9790 C   0  0  0  0  0  3  0  0  0  0  0  0
  -21.3270   -4.6260   24.9030 C   0  0  0  0  0  0  0  0  0  0  0  0
  -21.7300   -4.0630   23.6770 C   0  0  0  0  0  3  0  0  0  0  0  0
  -21.8440   -4.8700   22.5360 C   0  0  0  0  0  0  0  0  0  0  0  0
  -22.2110   -4.3150   21.3550 F   0  0  0  0  0  0  0  0  0  0  0  0
  -21.2150   -3.8470   26.0040 F   0  0  0  0  0  0  0  0  0  0  0  0
  -22.7470  -13.6170   21.0400 C   0  0  0  0  0  0  0  0  0  0  0  0
  -22.0030  -12.9430   21.9140 N   0  0  0  0  0  0  0  0  0  0  0  0
  -22.3240  -14.6320   20.4910 O   0  0  0  0  0  0  0  0  0  0  0  0
  -22.3720  -12.1370   22.3930 H   0  0  0  0  0  0  0  0  0  0  0  0
  -21.0620  -13.2490   22.1180 H   0  0  0  0  0  0  0  0  0  0  0  0
  -25.3750  -15.2480   20.2120 N   0  0  0  0  0  0  0  0  0  0  0  0
  -24.5350  -15.8140   20.1550 H   0  0  0  0  0  0  0  0  0  0  0  0
  -26.1510  -15.6720   19.7170 H   0  0  0  0  0  0  0  0  0  0  0  0
  -28.2460  -17.7000   17.8250 C   0  0  0  0  0  1  0  0  0  0  0  0
  -27.9310  -18.0860   20.3960 C   0  0  0  0  0  1  0  0  0  0  0  0
  -28.4920  -17.1860   19.2660 C   0  0  0  0  0  3  0  0  0  0  0  0
  1 56  1  0
  1  7  2  0
  2  5  1  0
  2  3  1  0
  3  6  1  0
  4  6  1  0
  5  4  1  0
  5  8  1  0
  6  1  1  0
  8  9  2  0
  8 10  1  0
 10 11  1  0
 11 13  1  0
 13 12  1  0
 14 13  1  0
 14 15  1  0
 16 27  2  0
 17 15  1  0
 17 22  1  0
 18 26  1  0
 18 28  1  0
 19 25  1  0
 19 21  1  0
 20 26  1  0
 21 22  2  0
 21 20  1  0
 23 24  1  0
 23 17  2  0
 24 19  2  0
 25 18  1  0
 26 16  1  0
 28 30  2  0
 29 28  1  0
 31 29  1  0
 32 41  2  0
 32 37  1  0
 33 29  1  0
 33 37  1  0
 34 33  1  0
 35 36  1  0
 35 34  1  0
 36 32  1  0
 37 38  2  0
 38 39  1  0
 40 39  2  0
 41 40  1  0
 42 16  1  0
 42 47  1  0
 42 43  1  0
 43 46  1  1
 43 44  1  0
 45 43  1  0
 47 50  1  0
 48 52  1  0
 48 47  1  0
 49 48  2  0
 52 51  1  0
 54 52  1  0
 54 55  1  0
 54 53  1  0
 56 57  1  0
 58 57  1  0
 58 67  1  0
 59 67  1  0
 60 65  1  0
 61 62  1  0
 61 60  1  0
 63 62  1  0
 63 72  1  0
 63 64  1  0
 65 59  1  0
 65 64  1  0
 66 59  2  0
 67 68  1  0
 69 70  2  0
 70 89  1  0
 71 70  1  0
 71 74  1  0
 72 69  1  0
 72 73  1  0
 73 71  2  0
 74 75  1  0
 75 76  2  0
 77 80  1  0
 77 76  1  0
 78 77  2  0
 79 78  1  0
 79 74  2  0
 80 81  1  0
 81 82  1  0
 82 83  2  0
 84 83  1  0
 84 88  1  0
 85 84  2  0
 86 81  2  0
 86 85  1  0
 87 86  1  0
 89 90  1  0
 90 93  1  0
 90 92  1  0
 91 89  2  0
 94 69  1  0
 95 94  1  0
 96 94  1  0
 97 99  1  0
 99 58  1  0
 99 98  1  0
M  ISO  4  14 101  15 101  59 100  67 100
M  END
>  <TORSDO>  (37) 
F 25

>  <SCORE>  (37) 
-12.238

>  <name>  (37) 
36

>  <ligand_id>  (37) 
36

>  <original_smiles>  (37) 
[H]c1c([H])c([H])c2c(c1[H])C([H])([H])C([H])([H])C([H])([H])C2([H])N([H])C(=O)C1([H])N(C(=O)C([H])(N([H])C(=O)C([H])(N([H])C([H])([H])[H])C([H])([H])[H])C(C([H])([H])[H])(C([H])([H])[H])C([H])([H])[H])C([H])([H])c2c([H])c(OC([H])([H])C([H])(C([H])([H])[H])C([H])([H])C([H])([H])C(=O)C3([H])C([H])([H])N(C(=O)C([H])([H])C([H])([H])C([H])(N([H])C(=O)N4C([H])([H])C([H])([H])C([H])([H])C([H])(n5nc(-c6c([H])c([H])c(Oc7c([H])c([H])c(F)c([H])c7F)c([H])c6[H])c(C(=O)N([H])[H])c5N([H])[H])C4([H])[H])C([H])(C([H])([H])[H])C([H])([H])[H])C([H])([H])C3([H])[H])c([H])c([H])c2C1([H])[H]

>  <smiles>  (37) 
[H]c1c([H])c([H])c2c(c1[H])C([H])([H])C([H])([H])C([H])([H])C2([H])N([H])C(=O)C1([H])N(C(=O)C([H])(N([H])C(=O)C([H])(N([H])C([H])([H])[H])C([H])([H])[H])C(C([H])([H])[H])(C([H])([H])[H])C([H])([H])[H])C([H])([H])c2c([H])c(OC([H])([H])C([H])(C([H])([H])[H])C([H])([H])C([H])([H])C(=O)C3([H])C([H])([H])N(C(=O)C([H])([H])C([H])([H])C([H])(N([H])C(=O)N4C([H])([H])C([H])([H])C([H])([H])C([H])(n5nc(-c6c([H])c([H])c(Oc7c([H])c([H])c(F)c([H])c7F)c([H])c6[H])c(C(=O)N([H])[H])c5N([H])[H])C4([H])[H])C([H])(C([H])([H])[H])C([H])([H])[H])C([H])([H])C3([H])[H])c([H])c([H])c2C1([H])[H]

$$$$
37:0:0
     RDKit          3D

 96103  0  0  1  0  0  0  0  0999 V2000
  -29.3400  -18.3430   20.2520 C   0  0  0  0  0  3  0  0  0  0  0  0
  -29.1030  -20.9430   20.7010 C   0  0  0  0  0  0  0  0  0  0  0  0
  -29.6220  -19.8250   20.0840 N   0  0  0  0  0  0  0  0  0  0  0  0
  -28.5110  -20.8530   21.7770 O   0  0  0  0  0  0  0  0  0  0  0  0
  -30.1920  -20.0210   19.2710 H   0  0  0  0  0  0  0  0  0  0  0  0
  -29.1760  -22.3580   19.9840 C   0  0  0  0  0  2  0  0  0  0  0  0
  -29.0080  -23.7390   20.8010 C   0  0  0  0  0  2  0  0  0  0  0  0
  -28.1910  -24.9290   20.1050 C   0  0  0  0  0  2  0  0  0  0  0  0
  -28.3720  -26.3570   20.5040 O   0  0  0  0  0  0  0  0  0  0  0  0
  -24.5580  -31.8350   23.2710 C   0  0  0  0  0  0  0  0  0  0  0  0
  -27.2770  -27.2350   20.3640 C   0  0  0  0  0  0  0  0  0  0  0  0
  -23.4220  -30.4260   21.5940 C   0  0  0  0  0  3  0  0  0  0  0  0
  -24.9280  -28.8710   20.2320 C   0  0  0  0  0  0  0  0  0  0  0  0
  -25.9680  -30.7340   21.5160 C   0  0  0  0  0  2  0  0  0  0  0  0
  -26.0730  -29.3520   20.8790 C   0  0  0  0  0  0  0  0  0  0  0  0
  -27.2510  -28.5470   20.9350 C   0  0  0  0  0  3  0  0  0  0  0  0
  -26.1130  -26.8220   19.6740 C   0  0  0  0  0  3  0  0  0  0  0  0
  -24.9540  -27.6140   19.6170 C   0  0  0  0  0  3  0  0  0  0  0  0
  -23.6890  -29.7440   20.2290 C   0  0  0  0  0  2  0  0  0  0  0  0
  -24.6660  -31.0170   22.1840 N   0  0  0  0  0  0  0  0  0  0  0  0
  -23.4550  -32.1190   23.7590 O   0  0  0  0  0  0  0  0  0  0  0  0
  -22.7200  -29.4140   22.5310 C   0  0  0  0  0  0  0  0  0  0  0  0
  -21.3910  -29.2710   22.3830 N   0  0  0  0  0  0  0  0  0  0  0  0
  -23.3680  -28.7660   23.3570 O   0  0  0  0  0  0  0  0  0  0  0  0
  -20.9250  -29.8420   21.6920 H   0  0  0  0  0  0  0  0  0  0  0  0
  -17.9690  -28.2140   22.8760 C   0  0  0  0  0  0  0  0  0  0  0  0
  -20.5370  -28.3530   23.1360 C   0  0  0  0  0  3  0  0  0  0  0  0
  -20.5720  -26.9380   22.5180 C   0  0  0  0  0  2  0  0  0  0  0  0
  -19.4510  -26.6930   21.5030 C   0  0  0  0  0  2  0  0  0  0  0  0
  -18.0830  -26.8790   22.1620 C   0  0  0  0  0  2  0  0  0  0  0  0
  -19.1230  -28.9130   23.3180 C   0  0  0  0  0  0  0  0  0  0  0  0
  -18.9650  -30.1680   23.9450 C   0  0  0  0  0  3  0  0  0  0  0  0
  -17.6840  -30.7190   24.1340 C   0  0  0  0  0  3  0  0  0  0  0  0
  -16.5440  -30.0160   23.7080 C   0  0  0  0  0  3  0  0  0  0  0  0
  -16.6890  -28.7650   23.0850 C   0  0  0  0  0  3  0  0  0  0  0  0
  -25.8160  -32.4730   23.9400 C   0  0  0  0  0  3  0  0  0  0  0  0
  -26.2580  -31.7320   25.2600 C   0  0  1  0  0  0  0  0  0  0  0  0
  -25.1120  -31.5400   26.2800 C   0  0  0  0  0  1  0  0  0  0  0  0
  -26.8390  -30.3350   24.9370 C   0  0  0  0  0  1  0  0  0  0  0  0
  -27.3880  -32.5280   25.9540 C   0  0  0  0  0  1  0  0  0  0  0  0
  -25.5060  -33.8830   24.2190 N   0  0  0  0  0  0  0  0  0  0  0  0
  -25.8940  -34.9120   23.4530 C   0  0  0  0  0  0  0  0  0  0  0  0
  -26.6200  -34.7750   22.4650 O   0  0  0  0  0  0  0  0  0  0  0  0
  -24.8700  -34.0640   24.9810 H   0  0  0  0  0  0  0  0  0  0  0  0
  -24.2010  -36.7080   22.9700 C   0  0  0  0  0  1  0  0  0  0  0  0
  -25.4010  -36.3170   23.8480 C   0  0  0  0  0  3  0  0  0  0  0  0
  -27.4980  -37.2140   24.7560 C   0  0  0  0  0  1  0  0  0  0  0  0
  -26.4480  -37.3590   23.7520 N   0  0  0  0  0  0  0  0  0  0  0  0
  -26.0430  -38.2870   23.8450 H   0  0  0  0  0  0  0  0  0  0  0  0
  -28.4570  -17.8710   19.0590 C   0  0  0  0  0  2  0  0  0  0  0  0
  -27.5290  -18.8010   16.8870 C   0  0  0  0  0  1  0  0  0  0  0  0
  -26.0600  -18.7360   18.9460 C   0  0  0  0  0  1  0  0  0  0  0  0
  -27.4920  -18.8980   18.4190 C   0  0  0  0  0  3  0  0  0  0  0  0
  -30.6180  -17.3520   20.3810 C   0  0  0  0  0  3  0  0  0  0  0  0
  -31.1090  -14.8240   20.8890 C   0  0  0  0  0  0  0  0  0  0  0  0
  -30.9030  -12.5380   19.9310 C   0  0  0  0  0  2  0  0  0  0  0  0
  -30.0990  -12.6460   18.6170 C   0  0  0  0  0  2  0  0  0  0  0  0
  -28.5870  -12.5460   18.8990 C   0  0  0  0  0  2  0  0  0  0  0  0
  -28.1360  -13.4730   20.0600 C   0  0  0  0  0  3  0  0  0  0  0  0
  -29.0720  -13.3590   21.2840 C   0  0  0  0  0  2  0  0  0  0  0  0
  -30.4420  -13.6230   20.8230 N   0  0  0  0  0  0  0  0  0  0  0  0
  -32.3140  -14.8830   20.6350 O   0  0  0  0  0  0  0  0  0  0  0  0
  -30.3460  -15.9730   20.9740 N   0  0  0  0  0  0  0  0  0  0  0  0
  -29.3830  -15.8060   21.2270 H   0  0  0  0  0  0  0  0  0  0  0  0
  -25.7180  -14.1790   20.5480 C   0  0  0  0  0  0  0  0  0  0  0  0
  -24.5870  -13.4590   20.8270 C   0  0  0  0  0  0  0  0  0  0  0  0
  -24.9890  -12.0890   20.8510 C   0  0  0  0  0  0  0  0  0  0  0  0
  -26.7380  -13.2500   20.4210 N   0  0  0  0  0  0  0  0  0  0  0  0
  -26.2990  -11.9890   20.6630 N   0  0  0  0  0  0  0  0  0  0  0  0
  -24.1900  -10.8650   20.9850 C   0  0  0  0  0  0  0  0  0  0  0  0
  -24.5370   -9.8540   21.9090 C   0  0  0  0  0  3  0  0  0  0  0  0
  -23.7420   -8.6940   22.0300 C   0  0  0  0  0  3  0  0  0  0  0  0
  -22.5860   -8.5390   21.2300 C   0  0  0  0  0  0  0  0  0  0  0  0
  -22.2600   -9.5360   20.2960 C   0  0  0  0  0  3  0  0  0  0  0  0
  -23.0530  -10.6870   20.1710 C   0  0  0  0  0  3  0  0  0  0  0  0
  -21.7710   -7.4330   21.2620 O   0  0  0  0  0  0  0  0  0  0  0  0
  -21.6610   -6.6500   22.3850 C   0  0  0  0  0  0  0  0  0  0  0  0
  -21.2690   -7.1890   23.6300 C   0  0  0  0  0  3  0  0  0  0  0  0
  -21.0980   -6.3400   24.7420 C   0  0  0  0  0  3  0  0  0  0  0  0
  -21.3100   -4.9540   24.6090 C   0  0  0  0  0  0  0  0  0  0  0  0
  -21.6930   -4.4150   23.3680 C   0  0  0  0  0  3  0  0  0  0  0  0
  -21.8640   -5.2620   22.2580 C   0  0  0  0  0  0  0  0  0  0  0  0
  -22.2140   -4.7360   21.0600 F   0  0  0  0  0  0  0  0  0  0  0  0
  -21.1390   -4.1360   25.6740 F   0  0  0  0  0  0  0  0  0  0  0  0
  -23.1960  -14.0050   20.9600 C   0  0  0  0  0  0  0  0  0  0  0  0
  -22.3720  -13.3790   21.7950 N   0  0  0  0  0  0  0  0  0  0  0  0
  -22.8460  -15.0220   20.3650 O   0  0  0  0  0  0  0  0  0  0  0  0
  -22.6660  -12.5560   22.3010 H   0  0  0  0  0  0  0  0  0  0  0  0
  -21.4340  -13.7280   21.9290 H   0  0  0  0  0  0  0  0  0  0  0  0
  -25.9540  -15.5340   20.3670 N   0  0  0  0  0  0  0  0  0  0  0  0
  -25.2020  -16.2120   20.3870 H   0  0  0  0  0  0  0  0  0  0  0  0
  -26.8390  -15.9330   20.0830 H   0  0  0  0  0  0  0  0  0  0  0  0
  -31.3520  -17.0610   19.0280 C   0  0  0  0  0  2  0  0  0  0  0  0
  -31.0860  -18.7210   17.0280 C   0  0  0  0  0  1  0  0  0  0  0  0
  -32.7970  -19.2410   18.9130 C   0  0  0  0  0  1  0  0  0  0  0  0
  -31.9920  -18.1710   18.1500 C   0  0  0  0  0  3  0  0  0  0  0  0
  1 50  1  0
  1 54  1  0
  2  4  2  0
  3  1  1  0
  3  2  1  0
  5  3  1  0
  6  2  1  0
  6  7  1  0
  8  9  1  0
  8  7  1  0
 10 21  2  0
 11  9  1  0
 11 16  1  0
 12 20  1  0
 12 22  1  0
 13 15  1  0
 14 20  1  0
 15 16  2  0
 15 14  1  0
 17 11  2  0
 18 17  1  0
 18 13  2  0
 19 13  1  0
 19 12  1  0
 20 10  1  0
 22 24  2  0
 23 22  1  0
 25 23  1  0
 26 35  2  0
 26 31  1  0
 27 23  1  0
 27 31  1  0
 28 27  1  0
 29 30  1  0
 29 28  1  0
 30 26  1  0
 31 32  2  0
 32 33  1  0
 34 33  2  0
 35 34  1  0
 36 10  1  0
 36 41  1  0
 36 37  1  0
 37 40  1  1
 37 38  1  0
 39 37  1  0
 41 44  1  0
 42 46  1  0
 42 41  1  0
 43 42  2  0
 46 45  1  0
 48 49  1  0
 48 46  1  0
 48 47  1  0
 51 53  1  0
 53 52  1  0
 53 50  1  0
 54 93  1  0
 54 63  1  0
 55 63  1  0
 56 61  1  0
 57 58  1  0
 57 56  1  0
 59 58  1  0
 59 68  1  0
 59 60  1  0
 61 55  1  0
 61 60  1  0
 62 55  2  0
 63 64  1  0
 65 66  2  0
 66 67  1  0
 66 85  1  0
 67 70  1  0
 68 65  1  0
 68 69  1  0
 69 67  2  0
 70 71  1  0
 71 72  2  0
 73 76  1  0
 73 72  1  0
 74 73  2  0
 75 74  1  0
 75 70  2  0
 76 77  1  0
 77 78  1  0
 78 79  2  0
 80 79  1  0
 80 84  1  0
 81 80  2  0
 82 77  2  0
 82 81  1  0
 83 82  1  0
 85 86  1  0
 86 89  1  0
 86 88  1  0
 87 85  2  0
 90 91  1  0
 90 65  1  0
 92 90  1  0
 94 96  1  0
 96 95  1  0
 96 93  1  0
M  ISO  4   8 101   9 101  55 100  63 100
M  END
>  <TORSDO>  (38) 
F 25

>  <SCORE>  (38) 
-11.384

>  <name>  (38) 
37

>  <ligand_id>  (38) 
37

>  <original_smiles>  (38) 
[H]c1c([H])c([H])c2c(c1[H])C([H])([H])C([H])([H])C([H])([H])C2([H])N([H])C(=O)C1([H])N(C(=O)C([H])(N([H])C(=O)C([H])(N([H])C([H])([H])[H])C([H])([H])[H])C(C([H])([H])[H])(C([H])([H])[H])C([H])([H])[H])C([H])([H])c2c([H])c(OC([H])([H])C([H])([H])C([H])([H])C(=O)N([H])C([H])(C([H])([H])C([H])(C([H])([H])[H])C([H])([H])[H])C([H])(N([H])C(=O)N3C([H])([H])C([H])([H])C([H])([H])C([H])(n4nc(-c5c([H])c([H])c(Oc6c([H])c([H])c(F)c([H])c6F)c([H])c5[H])c(C(=O)N([H])[H])c4N([H])[H])C3([H])[H])C([H])([H])C([H])(C([H])([H])[H])C([H])([H])[H])c([H])c([H])c2C1([H])[H]

>  <smiles>  (38) 
[H]c1c([H])c([H])c2c(c1[H])C([H])([H])C([H])([H])C([H])([H])C2([H])N([H])C(=O)C1([H])N(C(=O)C([H])(N([H])C(=O)C([H])(N([H])C([H])([H])[H])C([H])([H])[H])C(C([H])([H])[H])(C([H])([H])[H])C([H])([H])[H])C([H])([H])c2c([H])c(OC([H])([H])C([H])([H])C([H])([H])C(=O)N([H])C([H])(C([H])([H])C([H])(C([H])([H])[H])C([H])([H])[H])C([H])(N([H])C(=O)N3C([H])([H])C([H])([H])C([H])([H])C([H])(n4nc(-c5c([H])c([H])c(Oc6c([H])c([H])c(F)c([H])c6F)c([H])c5[H])c(C(=O)N([H])[H])c4N([H])[H])C3([H])[H])C([H])([H])C([H])(C([H])([H])[H])C([H])([H])[H])c([H])c([H])c2C1([H])[H]

$$$$
38:0:0
     RDKit          3D

110117  0  0  1  0  0  0  0  0999 V2000
  -30.8950  -22.6120   20.8570 C   0  0  0  0  0  0  0  0  0  0  0  0
  -31.9950  -23.3870   20.9000 N   0  0  0  0  0  4  0  0  0  0  0  0
  -30.2770  -22.3280   19.6880 N   0  0  0  0  0  0  0  0  0  0  0  0
  -32.4310  -23.6310   21.7810 H   0  0  0  0  0  0  0  0  0  0  0  0
  -32.4080  -23.7950   20.0760 H   0  0  0  0  0  0  0  0  0  0  0  0
  -29.4950  -21.6850   19.6620 H   0  0  0  0  0  0  0  0  0  0  0  0
  -30.6060  -22.8500   18.3510 C   0  0  0  0  0  3  0  0  0  0  0  0
  -30.2870  -21.7480   17.3340 C   0  0  0  0  0  0  0  0  0  0  0  0
  -30.8500  -21.8270   16.1360 N   0  0  0  0  0  0  0  0  0  0  0  0
  -29.5070  -20.8410   17.6210 O   0  0  0  0  0  0  0  0  0  0  0  0
  -31.4780  -22.5870   15.9150 H   0  0  0  0  0  0  0  0  0  0  0  0
  -30.6330  -21.1460   15.4230 H   0  0  0  0  0  0  0  0  0  0  0  0
  -29.7570  -24.1010   18.0280 C   0  0  0  0  0  2  0  0  0  0  0  0
  -29.7780  -25.1860   19.1170 C   0  0  0  0  0  2  0  0  0  0  0  0
  -28.8990  -26.3870   18.7610 C   0  0  0  0  0  2  0  0  0  0  0  0
  -28.5170  -27.0030   19.9850 O   0  0  0  0  0  0  0  0  0  0  0  0
  -24.6270  -31.9610   23.2350 C   0  0  0  0  0  0  0  0  0  0  0  0
  -27.3060  -27.6510   20.0200 C   0  0  0  0  0  0  0  0  0  0  0  0
  -23.4150  -30.5660   21.5890 C   0  0  0  0  0  3  0  0  0  0  0  0
  -24.8720  -29.0740   20.1210 C   0  0  0  0  0  0  0  0  0  0  0  0
  -25.9280  -30.9740   21.3590 C   0  0  0  0  0  2  0  0  0  0  0  0
  -26.0250  -29.6160   20.7010 C   0  0  0  0  0  0  0  0  0  0  0  0
  -27.2400  -28.9020   20.6630 C   0  0  0  0  0  3  0  0  0  0  0  0
  -26.1270  -27.0980   19.4660 C   0  0  0  0  0  3  0  0  0  0  0  0
  -24.9140  -27.8090   19.5090 C   0  0  0  0  0  3  0  0  0  0  0  0
  -23.6120  -29.9060   20.1980 C   0  0  0  0  0  2  0  0  0  0  0  0
  -24.6750  -31.1800   22.1190 N   0  0  0  0  0  0  0  0  0  0  0  0
  -23.5520  -32.2090   23.7960 O   0  0  0  0  0  0  0  0  0  0  0  0
  -22.7970  -29.5200   22.5430 C   0  0  0  0  0  0  0  0  0  0  0  0
  -21.4800  -29.2950   22.4050 N   0  0  0  0  0  0  0  0  0  0  0  0
  -23.4980  -28.9140   23.3570 O   0  0  0  0  0  0  0  0  0  0  0  0
  -20.9760  -29.8380   21.7190 H   0  0  0  0  0  0  0  0  0  0  0  0
  -18.1430  -28.0070   22.8900 C   0  0  0  0  0  0  0  0  0  0  0  0
  -20.6920  -28.3290   23.1670 C   0  0  0  0  0  3  0  0  0  0  0  0
  -20.8330  -26.9070   22.5750 C   0  0  0  0  0  2  0  0  0  0  0  0
  -19.7400  -26.5660   21.5580 C   0  0  0  0  0  2  0  0  0  0  0  0
  -18.3540  -26.6700   22.2010 C   0  0  0  0  0  2  0  0  0  0  0  0
  -19.2410  -28.7940   23.3280 C   0  0  0  0  0  0  0  0  0  0  0  0
  -18.9900  -30.0470   23.9290 C   0  0  0  0  0  3  0  0  0  0  0  0
  -17.6730  -30.5140   24.0970 C   0  0  0  0  0  3  0  0  0  0  0  0
  -16.5900  -29.7260   23.6740 C   0  0  0  0  0  3  0  0  0  0  0  0
  -16.8250  -28.4740   23.0780 C   0  0  0  0  0  3  0  0  0  0  0  0
  -25.9140  -32.5990   23.8460 C   0  0  0  0  0  3  0  0  0  0  0  0
  -25.5930  -33.9890   24.1920 N   0  0  0  0  0  0  0  0  0  0  0  0
  -25.8820  -35.0490   23.4250 C   0  0  0  0  0  0  0  0  0  0  0  0
  -26.5160  -34.9590   22.3700 O   0  0  0  0  0  0  0  0  0  0  0  0
  -25.0220  -34.1320   25.0120 H   0  0  0  0  0  0  0  0  0  0  0  0
  -24.1060  -36.8060   23.1430 C   0  0  0  0  0  1  0  0  0  0  0  0
  -25.3870  -36.4270   23.9040 C   0  0  0  0  0  3  0  0  0  0  0  0
  -27.5230  -37.3640   24.6680 C   0  0  0  0  0  1  0  0  0  0  0  0
  -26.3940  -37.4990   23.7510 N   0  0  0  0  0  0  0  0  0  0  0  0
  -25.9730  -38.4130   23.9010 H   0  0  0  0  0  0  0  0  0  0  0  0
  -26.4590  -31.8180   25.1050 C   0  0  1  0  0  0  0  0  0  0  0  0
  -25.3800  -31.5370   26.1760 C   0  0  0  0  0  1  0  0  0  0  0  0
  -27.0670  -30.4610   24.6820 C   0  0  0  0  0  1  0  0  0  0  0  0
  -27.5990  -32.6250   25.7700 C   0  0  0  0  0  1  0  0  0  0  0  0
  -30.3530  -22.0650   22.1490 C   0  0  0  0  0  2  0  0  0  0  0  0
  -30.4700  -20.5310   22.2150 C   0  0  0  0  0  2  0  0  0  0  0  0
  -31.8120  -19.9580   21.7060 C   0  0  0  0  0  3  0  0  0  0  0  0
  -31.7010  -18.4770   21.5910 N   0  0  0  0  0  4  0  0  0  0  0  0
  -32.0370  -18.0330   22.4330 H   0  0  0  0  0  0  0  0  0  0  0  0
  -30.7270  -18.2380   21.5050 H   0  0  0  0  0  0  0  0  0  0  0  0
  -32.3790  -17.8870   20.4140 C   0  0  0  0  0  2  0  0  0  0  0  0
  -31.4960  -16.9080   19.5990 C   0  0  0  0  0  3  0  0  0  0  0  0
  -31.7210  -14.5870   20.3620 C   0  0  0  0  0  0  0  0  0  0  0  0
  -31.2530  -12.5660   19.0970 C   0  0  0  0  0  2  0  0  0  0  0  0
  -30.3630  -12.9910   17.9120 C   0  0  0  0  0  2  0  0  0  0  0  0
  -28.8710  -12.9450   18.3100 C   0  0  0  0  0  2  0  0  0  0  0  0
  -28.5730  -13.6490   19.6650 C   0  0  0  0  0  3  0  0  0  0  0  0
  -29.6070  -13.2650   20.7520 C   0  0  0  0  0  2  0  0  0  0  0  0
  -30.9530  -13.4820   20.2010 N   0  0  0  0  0  0  0  0  0  0  0  0
  -32.9280  -14.6260   20.1230 O   0  0  0  0  0  0  0  0  0  0  0  0
  -31.0250  -15.7350   20.3630 N   0  0  0  0  0  0  0  0  0  0  0  0
  -30.0320  -15.6320   20.4960 H   0  0  0  0  0  0  0  0  0  0  0  0
  -26.1650  -14.3300   20.2660 C   0  0  0  0  0  0  0  0  0  0  0  0
  -25.0660  -13.5920   20.6100 C   0  0  0  0  0  0  0  0  0  0  0  0
  -25.4970  -12.2300   20.6280 C   0  0  0  0  0  0  0  0  0  0  0  0
  -27.1980  -13.4180   20.1000 N   0  0  0  0  0  0  0  0  0  0  0  0
  -26.7960  -12.1530   20.3750 N   0  0  0  0  0  0  0  0  0  0  0  0
  -24.7350  -10.9930   20.8140 C   0  0  0  0  0  0  0  0  0  0  0  0
  -25.1350  -10.0160   21.7520 C   0  0  0  0  0  3  0  0  0  0  0  0
  -24.3780   -8.8380   21.9270 C   0  0  0  0  0  3  0  0  0  0  0  0
  -23.2040   -8.6310   21.1650 C   0  0  0  0  0  0  0  0  0  0  0  0
  -22.8220   -9.5950   20.2150 C   0  0  0  0  0  3  0  0  0  0  0  0
  -23.5800  -10.7640   20.0390 C   0  0  0  0  0  3  0  0  0  0  0  0
  -22.4130   -7.5100   21.2530 O   0  0  0  0  0  0  0  0  0  0  0  0
  -22.1750   -6.8880   22.4520 C   0  0  0  0  0  0  0  0  0  0  0  0
  -21.6120   -7.5750   23.5490 C   0  0  0  0  0  3  0  0  0  0  0  0
  -21.3260   -6.8800   24.7430 C   0  0  0  0  0  3  0  0  0  0  0  0
  -21.5860   -5.5000   24.8340 C   0  0  0  0  0  0  0  0  0  0  0  0
  -22.1330   -4.8120   23.7380 C   0  0  0  0  0  3  0  0  0  0  0  0
  -22.4260   -5.5050   22.5490 C   0  0  0  0  0  0  0  0  0  0  0  0
  -22.9390   -4.8320   21.4910 F   0  0  0  0  0  0  0  0  0  0  0  0
  -21.3010   -4.8310   25.9770 F   0  0  0  0  0  0  0  0  0  0  0  0
  -23.6700  -14.1080   20.8130 C   0  0  0  0  0  0  0  0  0  0  0  0
  -22.9160  -13.4930   21.7190 N   0  0  0  0  0  0  0  0  0  0  0  0
  -23.2560  -15.0940   20.2040 O   0  0  0  0  0  0  0  0  0  0  0  0
  -23.2630  -12.6950   22.2310 H   0  0  0  0  0  0  0  0  0  0  0  0
  -21.9780  -13.8200   21.8970 H   0  0  0  0  0  0  0  0  0  0  0  0
  -26.3610  -15.6900   20.0540 N   0  0  0  0  0  0  0  0  0  0  0  0
  -25.5950  -16.3530   20.1180 H   0  0  0  0  0  0  0  0  0  0  0  0
  -27.1960  -16.0900   19.6490 H   0  0  0  0  0  0  0  0  0  0  0  0
  -28.9610  -17.3110   19.3870 C   0  0  0  0  0  1  0  0  0  0  0  0
  -30.3520  -17.6040   18.8040 C   0  0  0  0  0  3  0  0  0  0  0  0
  -31.5320  -17.9710   16.5170 C   0  0  0  0  0  1  0  0  0  0  0  0
  -30.3680  -17.3220   17.2790 C   0  0  0  0  0  2  0  0  0  0  0  0
  -33.0050  -20.3870   22.5980 C   0  0  0  0  0  2  0  0  0  0  0  0
  -34.4940  -21.0750   20.5990 C   0  0  0  0  0  1  0  0  0  0  0  0
  -35.4540  -20.9410   22.9130 C   0  0  0  0  0  1  0  0  0  0  0  0
  -34.4140  -20.3460   21.9520 C   0  0  0  0  0  3  0  0  0  0  0  0
  1  2  2  0
  1 57  1  0
  2  4  1  0
  3  1  1  0
  5  2  1  0
  6  3  1  0
  7 13  1  0
  7  3  1  0
  8 10  2  0
  8  7  1  0
  9  8  1  0
 11  9  1  0
 12  9  1  0
 13 14  1  0
 15 14  1  0
 15 16  1  0
 16 18  1  0
 17 28  2  0
 18 23  1  0
 19 27  1  0
 19 29  1  0
 20 26  1  0
 20 22  1  0
 21 27  1  0
 22 21  1  0
 23 22  2  0
 24 25  1  0
 24 18  2  0
 25 20  2  0
 26 19  1  0
 27 17  1  0
 29 31  2  0
 30 29  1  0
 32 30  1  0
 33 42  2  0
 33 38  1  0
 34 30  1  0
 34 38  1  0
 35 34  1  0
 36 37  1  0
 36 35  1  0
 37 33  1  0
 38 39  2  0
 39 40  1  0
 41 40  2  0
 42 41  1  0
 43 17  1  0
 43 44  1  0
 43 53  1  0
 44 47  1  0
 45 49  1  0
 45 44  1  0
 46 45  2  0
 49 48  1  0
 51 52  1  0
 51 49  1  0
 51 50  1  0
 53 56  1  1
 53 54  1  0
 55 53  1  0
 57 58  1  0
 59 58  1  0
 59107  1  0
 60 59  1  0
 60 61  1  0
 62 60  1  0
 63 60  1  0
 64 73  1  0
 64 63  1  0
 65 73  1  0
 66 71  1  0
 67 68  1  0
 67 66  1  0
 69 68  1  0
 69 78  1  0
 69 70  1  0
 71 65  1  0
 71 70  1  0
 72 65  2  0
 73 74  1  0
 75 76  2  0
 76 77  1  0
 76 95  1  0
 77 80  1  0
 78 75  1  0
 78 79  1  0
 79 77  2  0
 80 81  1  0
 81 82  2  0
 83 86  1  0
 83 82  1  0
 84 83  2  0
 85 84  1  0
 85 80  2  0
 86 87  1  0
 87 92  2  0
 87 88  1  0
 88 89  2  0
 89 90  1  0
 90 94  1  0
 91 90  2  0
 92 91  1  0
 93 92  1  0
 95 96  1  0
 96 99  1  0
 96 98  1  0
 97 95  2  0
100101  1  0
100 75  1  0
102100  1  0
104103  1  0
104 64  1  0
105106  1  0
106104  1  0
108110  1  0
110107  1  0
110109  1  0
M  ISO  4  15 101  16 101  65 100  73 100
M  END
>  <TORSDO>  (39) 
F 31

>  <SCORE>  (39) 
-10.232

>  <name>  (39) 
38

>  <ligand_id>  (39) 
38

>  <original_smiles>  (39) 
[H]c1c([H])c([H])c2c(c1[H])C([H])([H])C([H])([H])C([H])([H])C2([H])N([H])C(=O)C1([H])N(C(=O)C([H])(N([H])C(=O)C([H])(N([H])C([H])([H])[H])C([H])([H])[H])C(C([H])([H])[H])(C([H])([H])[H])C([H])([H])[H])C([H])([H])c2c([H])c(OC([H])([H])C([H])([H])C([H])([H])C([H])(C(=O)N([H])[H])[N+]([H])=C(N([H])[H])C([H])([H])C([H])([H])C([H])(C([H])([H])C([H])(C([H])([H])[H])C([H])([H])[H])[N+]([H])([H])C([H])([H])C([H])(N([H])C(=O)N3C([H])([H])C([H])([H])C([H])([H])C([H])(n4nc(-c5c([H])c([H])c(Oc6c([H])c([H])c(F)c([H])c6F)c([H])c5[H])c(C(=O)N([H])[H])c4N([H])[H])C3([H])[H])C([H])(C([H])([H])[H])C([H])([H])C([H])([H])[H])c([H])c([H])c2C1([H])[H]

>  <smiles>  (39) 
[H]c1c([H])c([H])c2c(c1[H])C([H])([H])C([H])([H])C([H])([H])C2([H])N([H])C(=O)C1([H])N(C(=O)C([H])(N([H])C(=O)C([H])(N([H])C([H])([H])[H])C([H])([H])[H])C(C([H])([H])[H])(C([H])([H])[H])C([H])([H])[H])C([H])([H])c2c([H])c(OC([H])([H])C([H])([H])C([H])([H])C([H])(C(=O)N([H])[H])[N+]([H])=C(N([H])[H])C([H])([H])C([H])([H])C([H])(C([H])([H])C([H])(C([H])([H])[H])C([H])([H])[H])[N+]([H])([H])C([H])([H])C([H])(N([H])C(=O)N3C([H])([H])C([H])([H])C([H])([H])C([H])(n4nc(-c5c([H])c([H])c(Oc6c([H])c([H])c(F)c([H])c6F)c([H])c5[H])c(C(=O)N([H])[H])c4N([H])[H])C3([H])[H])C([H])(C([H])([H])[H])C([H])([H])C([H])([H])[H])c([H])c([H])c2C1([H])[H]

$$$$
39:0:0
     RDKit          3D

 94101  0  0  1  0  0  0  0  0999 V2000
  -29.0080  -23.4530   20.3840 C   0  0  0  0  0  3  0  0  0  0  0  0
  -29.6400  -20.7700   20.1170 C   0  0  0  0  0  0  0  0  0  0  0  0
  -28.8480  -21.9390   19.8930 N   0  0  0  0  0  0  0  0  0  0  0  0
  -30.7470  -20.9270   20.6310 O   0  0  0  0  0  0  0  0  0  0  0  0
  -27.9710  -21.7490   19.4230 H   0  0  0  0  0  0  0  0  0  0  0  0
  -29.1260  -19.0900   18.2420 C   0  0  0  0  0  1  0  0  0  0  0  0
  -27.8420  -18.9490   20.3870 C   0  0  0  0  0  1  0  0  0  0  0  0
  -29.2370  -19.1830   19.7740 C   0  0  2  0  0  0  0  0  0  0  0  0
  -30.2230  -17.8760   20.2460 C   0  0  0  0  0  2  0  0  0  0  0  0
  -30.6400  -15.1350   20.1210 C   0  0  0  0  0  0  0  0  0  0  0  0
  -30.5300  -12.7620   19.2400 C   0  0  0  0  0  2  0  0  0  0  0  0
  -29.5990  -12.6940   18.0100 C   0  0  0  0  0  2  0  0  0  0  0  0
  -28.1390  -12.4740   18.4560 C   0  0  0  0  0  2  0  0  0  0  0  0
  -27.7260  -13.4190   19.6150 C   0  0  0  0  0  3  0  0  0  0  0  0
  -28.7850  -13.4680   20.7320 C   0  0  0  0  0  2  0  0  0  0  0  0
  -30.0470  -13.8750   20.1020 N   0  0  0  0  0  0  0  0  0  0  0  0
  -31.8520  -15.1870   19.8850 O   0  0  0  0  0  0  0  0  0  0  0  0
  -29.8590  -16.3270   20.1980 N   0  0  0  0  0  0  0  0  0  0  0  0
  -28.8730  -16.1410   20.3030 H   0  0  0  0  0  0  0  0  0  0  0  0
  -25.3490  -13.9920   20.3740 C   0  0  0  0  0  0  0  0  0  0  0  0
  -24.2920  -13.2160   20.7600 C   0  0  0  0  0  0  0  0  0  0  0  0
  -24.7640  -11.8650   20.7360 C   0  0  0  0  0  0  0  0  0  0  0  0
  -26.3940  -13.1170   20.1290 N   0  0  0  0  0  0  0  0  0  0  0  0
  -26.0530  -11.8340   20.4140 N   0  0  0  0  0  0  0  0  0  0  0  0
  -24.0450  -10.6020   20.9390 C   0  0  0  0  0  0  0  0  0  0  0  0
  -24.4740   -9.6520   21.8920 C   0  0  0  0  0  3  0  0  0  0  0  0
  -23.7510   -8.4550   22.0840 C   0  0  0  0  0  3  0  0  0  0  0  0
  -22.5850   -8.1990   21.3240 C   0  0  0  0  0  0  0  0  0  0  0  0
  -22.1750   -9.1380   20.3610 C   0  0  0  0  0  3  0  0  0  0  0  0
  -22.8980  -10.3270   20.1660 C   0  0  0  0  0  3  0  0  0  0  0  0
  -21.8350   -7.0510   21.4240 O   0  0  0  0  0  0  0  0  0  0  0  0
  -21.7690   -6.3340   22.5920 C   0  0  0  0  0  0  0  0  0  0  0  0
  -21.2880   -6.9050   23.7910 C   0  0  0  0  0  3  0  0  0  0  0  0
  -21.1710   -6.1150   24.9510 C   0  0  0  0  0  3  0  0  0  0  0  0
  -21.5240   -4.7520   24.9130 C   0  0  0  0  0  0  0  0  0  0  0  0
  -21.9980   -4.1800   23.7190 C   0  0  0  0  0  3  0  0  0  0  0  0
  -22.1180   -4.9690   22.5610 C   0  0  0  0  0  0  0  0  0  0  0  0
  -22.5530   -4.4070   21.4080 F   0  0  0  0  0  0  0  0  0  0  0  0
  -21.4050   -3.9900   26.0260 F   0  0  0  0  0  0  0  0  0  0  0  0
  -22.8940  -13.6870   21.0360 C   0  0  0  0  0  0  0  0  0  0  0  0
  -22.1770  -12.9990   21.9170 N   0  0  0  0  0  0  0  0  0  0  0  0
  -22.4450  -14.7020   20.5040 O   0  0  0  0  0  0  0  0  0  0  0  0
  -22.5510  -12.1750   22.3680 H   0  0  0  0  0  0  0  0  0  0  0  0
  -21.2390  -13.2980   22.1440 H   0  0  0  0  0  0  0  0  0  0  0  0
  -25.5010  -15.3640   20.1820 N   0  0  0  0  0  0  0  0  0  0  0  0
  -24.7240  -16.0070   20.2890 H   0  0  0  0  0  0  0  0  0  0  0  0
  -26.3300  -15.8070   19.8120 H   0  0  0  0  0  0  0  0  0  0  0  0
  -28.9500  -23.3370   21.9420 C   0  0  0  0  0  2  0  0  0  0  0  0
  -27.9920  -25.3070   23.2850 C   0  0  0  0  0  1  0  0  0  0  0  0
  -29.8070  -23.9480   24.2130 C   0  0  0  0  0  1  0  0  0  0  0  0
  -30.3470  -25.4710   22.3240 C   0  0  0  0  0  1  0  0  0  0  0  0
  -29.2650  -24.5310   22.8930 C   0  0  1  0  0  0  0  0  0  0  0  0
  -28.0650  -24.7530   19.8070 C   0  0  0  0  0  2  0  0  0  0  0  0
  -28.2760  -26.2990   20.0070 O   0  0  0  0  0  0  0  0  0  0  0  0
  -24.6420  -31.8900   23.1960 C   0  0  0  0  0  0  0  0  0  0  0  0
  -27.2100  -27.2770   19.9750 C   0  0  0  0  0  0  0  0  0  0  0  0
  -23.4250  -30.5210   21.5500 C   0  0  0  0  0  3  0  0  0  0  0  0
  -24.8580  -28.9950   20.0570 C   0  0  0  0  0  0  0  0  0  0  0  0
  -25.9710  -30.8120   21.3410 C   0  0  0  0  0  2  0  0  0  0  0  0
  -26.0460  -29.4360   20.6530 C   0  0  0  0  0  0  0  0  0  0  0  0
  -27.2210  -28.5930   20.5990 C   0  0  0  0  0  3  0  0  0  0  0  0
  -25.9960  -26.9450   19.3360 C   0  0  0  0  0  3  0  0  0  0  0  0
  -24.8470  -27.7620   19.3870 C   0  0  0  0  0  3  0  0  0  0  0  0
  -23.6230  -29.8750   20.1520 C   0  0  0  0  0  2  0  0  0  0  0  0
  -24.7010  -31.0940   22.0840 N   0  0  0  0  0  0  0  0  0  0  0  0
  -23.5620  -32.1540   23.7490 O   0  0  0  0  0  0  0  0  0  0  0  0
  -22.7710  -29.4900   22.5020 C   0  0  0  0  0  0  0  0  0  0  0  0
  -21.4530  -29.2730   22.3540 N   0  0  0  0  0  0  0  0  0  0  0  0
  -23.4530  -28.8860   23.3340 O   0  0  0  0  0  0  0  0  0  0  0  0
  -20.9580  -29.8110   21.6560 H   0  0  0  0  0  0  0  0  0  0  0  0
  -18.1280  -27.8900   22.7540 C   0  0  0  0  0  0  0  0  0  0  0  0
  -20.6560  -28.3010   23.1090 C   0  0  0  0  0  3  0  0  0  0  0  0
  -20.8600  -26.8710   22.5580 C   0  0  0  0  0  2  0  0  0  0  0  0
  -19.8170  -26.4720   21.5090 C   0  0  0  0  0  2  0  0  0  0  0  0
  -18.4070  -26.5450   22.1030 C   0  0  0  0  0  2  0  0  0  0  0  0
  -19.1860  -28.7220   23.2100 C   0  0  0  0  0  0  0  0  0  0  0  0
  -18.8740  -29.9750   23.7760 C   0  0  0  0  0  3  0  0  0  0  0  0
  -17.5380  -30.4030   23.8910 C   0  0  0  0  0  3  0  0  0  0  0  0
  -16.4950  -29.5700   23.4530 C   0  0  0  0  0  3  0  0  0  0  0  0
  -16.7910  -28.3170   22.8900 C   0  0  0  0  0  3  0  0  0  0  0  0
  -25.9270  -32.5220   23.8120 C   0  0  0  0  0  3  0  0  0  0  0  0
  -25.6150  -33.9190   24.1610 N   0  0  0  0  0  0  0  0  0  0  0  0
  -25.9310  -34.9830   23.4110 C   0  0  0  0  0  0  0  0  0  0  0  0
  -26.5870  -34.8920   22.3690 O   0  0  0  0  0  0  0  0  0  0  0  0
  -25.0320  -34.0600   24.9750 H   0  0  0  0  0  0  0  0  0  0  0  0
  -24.1940  -36.7790   23.1040 C   0  0  0  0  0  1  0  0  0  0  0  0
  -25.4470  -36.3660   23.8930 C   0  0  0  0  0  3  0  0  0  0  0  0
  -27.5870  -37.2520   24.7070 C   0  0  0  0  0  1  0  0  0  0  0  0
  -26.4750  -37.4240   23.7770 N   0  0  0  0  0  0  0  0  0  0  0  0
  -26.0670  -38.3400   23.9360 H   0  0  0  0  0  0  0  0  0  0  0  0
  -26.4520  -31.7420   25.0800 C   0  0  1  0  0  0  0  0  0  0  0  0
  -25.3670  -31.4990   26.1530 C   0  0  0  0  0  1  0  0  0  0  0  0
  -27.0330  -30.3660   24.6840 C   0  0  0  0  0  1  0  0  0  0  0  0
  -27.6050  -32.5340   25.7400 C   0  0  0  0  0  1  0  0  0  0  0  0
  1 53  1  0
  1 48  1  0
  2  4  2  0
  3  2  1  0
  3  1  1  0
  5  3  1  0
  8  6  1  6
  8  2  1  0
  8  9  1  0
  8  7  1  0
 10 18  1  0
 11 16  1  0
 12 13  1  0
 12 11  1  0
 14 13  1  0
 14 23  1  0
 14 15  1  0
 16 10  1  0
 16 15  1  0
 17 10  2  0
 18  9  1  0
 18 19  1  0
 20 21  2  0
 21 40  1  0
 22 21  1  0
 22 25  1  0
 23 20  1  0
 23 24  1  0
 24 22  2  0
 25 26  1  0
 26 27  2  0
 28 31  1  0
 28 27  1  0
 29 28  2  0
 30 29  1  0
 30 25  2  0
 31 32  1  0
 32 33  1  0
 33 34  2  0
 35 34  1  0
 35 39  1  0
 36 35  2  0
 37 32  2  0
 37 36  1  0
 38 37  1  0
 40 41  1  0
 41 44  1  0
 41 43  1  0
 42 40  2  0
 45 46  1  0
 45 20  1  0
 47 45  1  0
 48 52  1  0
 52 51  1  6
 52 49  1  0
 52 50  1  0
 53 54  1  0
 55 66  2  0
 56 54  1  0
 56 61  1  0
 57 65  1  0
 57 67  1  0
 58 64  1  0
 58 60  1  0
 59 65  1  0
 60 59  1  0
 61 60  2  0
 62 63  1  0
 62 56  2  0
 63 58  2  0
 64 57  1  0
 65 55  1  0
 67 69  2  0
 68 67  1  0
 70 68  1  0
 71 80  2  0
 71 76  1  0
 72 68  1  0
 72 76  1  0
 73 72  1  0
 74 75  1  0
 74 73  1  0
 75 71  1  0
 76 77  2  0
 77 78  1  0
 79 78  2  0
 80 79  1  0
 81 55  1  0
 81 82  1  0
 81 91  1  0
 82 85  1  0
 83 87  1  0
 83 82  1  0
 84 83  2  0
 87 86  1  0
 89 87  1  0
 89 90  1  0
 89 88  1  0
 91 94  1  1
 91 92  1  0
 93 91  1  0
M  ISO  4  10 100  18 100  53 101  54 101
M  END
>  <TORSDO>  (40) 
F 22

>  <SCORE>  (40) 
-13.300

>  <name>  (40) 
39

>  <ligand_id>  (40) 
39

>  <original_smiles>  (40) 
[H]c1c([H])c([H])c2c(c1[H])C([H])([H])C([H])([H])C([H])([H])C2([H])N([H])C(=O)C1([H])N(C(=O)C([H])(N([H])C(=O)C([H])(N([H])C([H])([H])[H])C([H])([H])[H])C(C([H])([H])[H])(C([H])([H])[H])C([H])([H])[H])C([H])([H])c2c([H])c(OC([H])([H])C([H])(N([H])C(=O)C(C([H])([H])[H])(C([H])([H])[H])C([H])([H])N([H])C(=O)N3C([H])([H])C([H])([H])C([H])([H])C([H])(n4nc(-c5c([H])c([H])c(Oc6c([H])c([H])c(F)c([H])c6F)c([H])c5[H])c(C(=O)N([H])[H])c4N([H])[H])C3([H])[H])C([H])([H])C(C([H])([H])[H])(C([H])([H])[H])C([H])([H])[H])c([H])c([H])c2C1([H])[H]

>  <smiles>  (40) 
[H]c1c([H])c([H])c2c(c1[H])C([H])([H])C([H])([H])C([H])([H])C2([H])N([H])C(=O)C1([H])N(C(=O)C([H])(N([H])C(=O)C([H])(N([H])C([H])([H])[H])C([H])([H])[H])C(C([H])([H])[H])(C([H])([H])[H])C([H])([H])[H])C([H])([H])c2c([H])c(OC([H])([H])C([H])(N([H])C(=O)C(C([H])([H])[H])(C([H])([H])[H])C([H])([H])N([H])C(=O)N3C([H])([H])C([H])([H])C([H])([H])C([H])(n4nc(-c5c([H])c([H])c(Oc6c([H])c([H])c(F)c([H])c6F)c([H])c5[H])c(C(=O)N([H])[H])c4N([H])[H])C3([H])[H])C([H])([H])C(C([H])([H])[H])(C([H])([H])[H])C([H])([H])[H])c([H])c([H])c2C1([H])[H]

$$$$
40:0:0
     RDKit          3D

104112  0  0  1  0  0  0  0  0999 V2000
  -30.0300  -20.1520   24.4070 C   0  0  0  0  0  2  0  0  0  0  0  0
  -30.8380  -18.8700   24.5730 C   0  0  0  0  0  2  0  0  0  0  0  0
  -30.4720  -20.8500   23.1220 C   0  0  0  0  0  2  0  0  0  0  0  0
  -30.5650  -17.9500   23.3770 C   0  0  0  0  0  2  0  0  0  0  0  0
  -30.4150  -19.9670   21.8360 C   0  0  0  0  0  3  0  0  0  0  0  0
  -30.9340  -18.5670   22.0610 N   0  0  2  0  0  4  0  0  0  0  0  0
  -31.9360  -18.6740   22.1060 H   0  0  0  0  0  0  0  0  0  0  0  0
  -29.5350  -16.6280   21.1710 C   0  0  0  0  0  1  0  0  0  0  0  0
  -30.6820  -17.6370   20.9050 C   0  0  0  0  0  3  0  0  0  0  0  0
  -32.0060  -17.0160   20.3360 C   0  0  0  0  0  3  0  0  0  0  0  0
  -32.4080  -14.6130   19.4810 C   0  0  0  0  0  0  0  0  0  0  0  0
  -32.0010  -12.3710   18.5380 C   0  0  0  0  0  2  0  0  0  0  0  0
  -30.9320  -12.4850   17.4310 C   0  0  0  0  0  2  0  0  0  0  0  0
  -29.5040  -12.4270   18.0170 C   0  0  0  0  0  2  0  0  0  0  0  0
  -29.3150  -13.3870   19.2230 C   0  0  0  0  0  3  0  0  0  0  0  0
  -30.4720  -13.1880   20.2270 C   0  0  0  0  0  2  0  0  0  0  0  0
  -31.7360  -13.4360   19.5110 N   0  0  0  0  0  0  0  0  0  0  0  0
  -33.4820  -14.7670   18.8970 O   0  0  0  0  0  0  0  0  0  0  0  0
  -31.7210  -15.6060   20.0570 N   0  0  0  0  0  0  0  0  0  0  0  0
  -30.8470  -15.2820   20.4400 H   0  0  0  0  0  0  0  0  0  0  0  0
  -27.1030  -14.1640   20.3000 C   0  0  0  0  0  0  0  0  0  0  0  0
  -26.0120  -13.4660   20.7450 C   0  0  0  0  0  0  0  0  0  0  0  0
  -26.3120  -12.0860   20.5280 C   0  0  0  0  0  0  0  0  0  0  0  0
  -28.0080  -13.2110   19.8520 N   0  0  0  0  0  0  0  0  0  0  0  0
  -27.5380  -11.9530   20.0420 N   0  0  0  0  0  0  0  0  0  0  0  0
  -25.4820  -10.8880   20.7010 C   0  0  0  0  0  0  0  0  0  0  0  0
  -25.9330   -9.7820   21.4540 C   0  0  0  0  0  3  0  0  0  0  0  0
  -25.1100   -8.6470   21.6220 C   0  0  0  0  0  3  0  0  0  0  0  0
  -23.8210   -8.6120   21.0380 C   0  0  0  0  0  0  0  0  0  0  0  0
  -23.3850   -9.7100   20.2730 C   0  0  0  0  0  3  0  0  0  0  0  0
  -24.2070  -10.8350   20.1030 C   0  0  0  0  0  3  0  0  0  0  0  0
  -22.9620   -7.5450   21.1270 O   0  0  0  0  0  0  0  0  0  0  0  0
  -22.7650   -6.8770   22.3090 C   0  0  0  0  0  0  0  0  0  0  0  0
  -22.3690   -7.5490   23.4880 C   0  0  0  0  0  3  0  0  0  0  0  0
  -22.1120   -6.8150   24.6620 C   0  0  0  0  0  3  0  0  0  0  0  0
  -22.2390   -5.4120   24.6590 C   0  0  0  0  0  0  0  0  0  0  0  0
  -22.6270   -4.7430   23.4850 C   0  0  0  0  0  3  0  0  0  0  0  0
  -22.8880   -5.4740   22.3140 C   0  0  0  0  0  0  0  0  0  0  0  0
  -23.2430   -4.8220   21.1790 F   0  0  0  0  0  0  0  0  0  0  0  0
  -21.9830   -4.7060   25.7840 F   0  0  0  0  0  0  0  0  0  0  0  0
  -24.7210  -14.0490   21.2450 C   0  0  0  0  0  0  0  0  0  0  0  0
  -24.0710  -13.3800   22.1910 N   0  0  0  0  0  0  0  0  0  0  0  0
  -24.3060  -15.1320   20.8340 O   0  0  0  0  0  0  0  0  0  0  0  0
  -24.4210  -12.5020   22.5430 H   0  0  0  0  0  0  0  0  0  0  0  0
  -23.2090  -13.7500   22.5660 H   0  0  0  0  0  0  0  0  0  0  0  0
  -27.3900  -15.5230   20.2180 N   0  0  0  0  0  0  0  0  0  0  0  0
  -26.6670  -16.2040   20.4220 H   0  0  0  0  0  0  0  0  0  0  0  0
  -28.1480  -15.9070   19.6700 H   0  0  0  0  0  0  0  0  0  0  0  0
  -32.4370  -17.7950   19.0550 C   0  0  0  0  0  2  0  0  0  0  0  0
  -33.9470  -17.9280   18.7520 C   0  0  0  0  0  2  0  0  0  0  0  0
  -34.2120  -18.5890   17.3910 C   0  0  0  0  0  0  0  0  0  0  0  0
  -35.2840  -19.3570   17.2720 N   0  0  0  0  0  0  0  0  0  0  0  0
  -33.4550  -18.4130   16.4400 O   0  0  0  0  0  0  0  0  0  0  0  0
  -35.9110  -19.5030   18.0510 H   0  0  0  0  0  0  0  0  0  0  0  0
  -35.4900  -19.8010   16.3860 H   0  0  0  0  0  0  0  0  0  0  0  0
  -31.2410  -20.6980   20.7310 C   0  0  0  0  0  2  0  0  0  0  0  0
  -30.4900  -21.7880   19.9300 C   0  0  0  0  0  2  0  0  0  0  0  0
  -31.3680  -22.9240   19.5640 N   0  0  0  0  0  4  0  0  0  0  0  0
  -30.8610  -23.4990   18.9070 H   0  0  0  0  0  0  0  0  0  0  0  0
  -32.1840  -22.5820   19.0800 H   0  0  0  0  0  0  0  0  0  0  0  0
  -31.7550  -23.7770   20.7150 C   0  0  0  0  0  2  0  0  0  0  0  0
  -32.4290  -25.0870   20.2740 C   0  0  0  0  0  2  0  0  0  0  0  0
  -32.4790  -26.1300   21.4300 C   0  0  0  0  0  2  0  0  0  0  0  0
  -32.1660  -27.5280   21.5870 O   0  0  0  0  0  0  0  0  0  0  0  0
  -26.6670  -30.8630   24.6090 C   0  0  0  0  0  0  0  0  0  0  0  0
  -30.8660  -27.9750   21.4320 C   0  0  0  0  0  0  0  0  0  0  0  0
  -26.1920  -29.7490   22.4520 C   0  0  0  0  0  3  0  0  0  0  0  0
  -28.2300  -28.9340   21.1570 C   0  0  0  0  0  0  0  0  0  0  0  0
  -28.5400  -30.6030   22.9900 C   0  0  0  0  0  2  0  0  0  0  0  0
  -29.0790  -29.4890   22.1190 C   0  0  0  0  0  0  0  0  0  0  0  0
  -30.3990  -29.0140   22.2610 C   0  0  0  0  0  3  0  0  0  0  0  0
  -30.0020  -27.4370   20.4530 C   0  0  0  0  0  3  0  0  0  0  0  0
  -28.6860  -27.9030   20.3200 C   0  0  0  0  0  3  0  0  0  0  0  0
  -26.8350  -29.5040   21.0590 C   0  0  0  0  0  2  0  0  0  0  0  0
  -27.1350  -30.4040   23.4140 N   0  0  0  0  0  0  0  0  0  0  0  0
  -25.4650  -30.7860   24.8970 O   0  0  0  0  0  0  0  0  0  0  0  0
  -25.6250  -28.4080   22.9720 C   0  0  0  0  0  0  0  0  0  0  0  0
  -24.5360  -27.9410   22.3420 N   0  0  0  0  0  0  0  0  0  0  0  0
  -26.1750  -27.8040   23.8970 O   0  0  0  0  0  0  0  0  0  0  0  0
  -24.1440  -28.5020   21.5970 H   0  0  0  0  0  0  0  0  0  0  0  0
  -21.8980  -25.7410   21.2220 C   0  0  0  0  0  0  0  0  0  0  0  0
  -23.8510  -26.6810   22.6270 C   0  0  0  0  0  3  0  0  0  0  0  0
  -24.6680  -25.4730   22.1150 C   0  0  0  0  0  2  0  0  0  0  0  0
  -24.2700  -25.0260   20.7070 C   0  0  0  0  0  2  0  0  0  0  0  0
  -22.7860  -24.6470   20.6590 C   0  0  0  0  0  2  0  0  0  0  0  0
  -22.4010  -26.7050   22.1350 C   0  0  0  0  0  0  0  0  0  0  0  0
  -21.5410  -27.7220   22.6020 C   0  0  0  0  0  3  0  0  0  0  0  0
  -20.2010  -27.7840   22.1740 C   0  0  0  0  0  3  0  0  0  0  0  0
  -19.7040  -26.8210   21.2780 C   0  0  0  0  0  3  0  0  0  0  0  0
  -20.5510  -25.8010   20.8080 C   0  0  0  0  0  3  0  0  0  0  0  0
  -27.6160  -31.5260   25.6560 C   0  0  0  0  0  3  0  0  0  0  0  0
  -27.1740  -32.9140   25.8350 N   0  0  0  0  0  0  0  0  0  0  0  0
  -27.6860  -33.9660   25.1820 C   0  0  0  0  0  0  0  0  0  0  0  0
  -28.6460  -33.8710   24.4100 O   0  0  0  0  0  0  0  0  0  0  0  0
  -26.3610  -33.0570   26.4170 H   0  0  0  0  0  0  0  0  0  0  0  0
  -26.0890  -35.6660   24.2490 C   0  0  0  0  0  1  0  0  0  0  0  0
  -27.0310  -35.3380   25.4200 C   0  0  0  0  0  3  0  0  0  0  0  0
  -28.8730  -36.2500   26.7620 C   0  0  0  0  0  1  0  0  0  0  0  0
  -28.0090  -36.4340   25.5980 N   0  0  0  0  0  0  0  0  0  0  0  0
  -27.5360  -37.3290   25.6970 H   0  0  0  0  0  0  0  0  0  0  0  0
  -27.6420  -30.7680   27.0400 C   0  0  1  0  0  0  0  0  0  0  0  0
  -26.2370  -30.3990   27.5710 C   0  0  0  0  0  1  0  0  0  0  0  0
  -28.4670  -29.4640   26.9300 C   0  0  0  0  0  1  0  0  0  0  0  0
  -28.3420  -31.6460   28.1050 C   0  0  0  0  0  1  0  0  0  0  0  0
  1  2  1  0
  3  1  1  0
  4  2  1  0
  5 56  1  0
  5  6  1  0
  5  3  1  0
  6  7  1  1
  6  4  1  0
  9  8  1  0
  9  6  1  0
 10 49  1  0
 10  9  1  0
 11 17  1  0
 11 19  1  0
 12 17  1  0
 13 14  1  0
 13 12  1  0
 15 14  1  0
 15 24  1  0
 15 16  1  0
 17 16  1  0
 18 11  2  0
 19 10  1  0
 19 20  1  0
 21 22  2  0
 22 41  1  0
 23 26  1  0
 23 22  1  0
 24 25  1  0
 24 21  1  0
 25 23  2  0
 26 27  1  0
 27 28  2  0
 29 32  1  0
 29 28  1  0
 30 29  2  0
 31 30  1  0
 31 26  2  0
 32 33  1  0
 33 38  2  0
 33 34  1  0
 34 35  2  0
 36 35  1  0
 36 40  1  0
 37 36  2  0
 38 37  1  0
 39 38  1  0
 41 42  1  0
 42 44  1  0
 42 45  1  0
 43 41  2  0
 46 21  1  0
 46 47  1  0
 48 46  1  0
 50 49  1  0
 51 50  1  0
 52 51  1  0
 52 54  1  0
 53 51  2  0
 55 52  1  0
 57 56  1  0
 58 57  1  0
 58 61  1  0
 59 58  1  0
 60 58  1  0
 62 61  1  0
 62 63  1  0
 63 64  1  0
 65 76  2  0
 66 64  1  0
 66 71  1  0
 67 77  1  0
 67 75  1  0
 68 70  1  0
 69 75  1  0
 70 71  2  0
 70 69  1  0
 72 66  2  0
 73 72  1  0
 73 68  2  0
 74 68  1  0
 74 67  1  0
 75 65  1  0
 77 79  2  0
 78 77  1  0
 80 78  1  0
 81 86  1  0
 82 78  1  0
 83 82  1  0
 84 83  1  0
 85 84  1  0
 85 81  1  0
 86 87  2  0
 86 82  1  0
 88 87  1  0
 89 88  2  0
 90 81  2  0
 90 89  1  0
 91 65  1  0
 91 92  1  0
 91101  1  0
 92 95  1  0
 93 97  1  0
 93 92  1  0
 94 93  2  0
 97 96  1  0
 97 99  1  0
 99100  1  0
 99 98  1  0
101102  1  1
101104  1  0
103101  1  0
M  ISO  4  11 100  19 100  63 101  64 101
M  END
>  <TORSDO>  (41) 
F 27

>  <SCORE>  (41) 
-4.847

>  <name>  (41) 
40

>  <ligand_id>  (41) 
40

>  <original_smiles>  (41) 
[H]c1c([H])c([H])c2c(c1[H])C([H])([H])C([H])([H])C([H])([H])C2([H])N([H])C(=O)C1([H])N(C(=O)C([H])(N([H])C(=O)C([H])(N([H])C([H])([H])[H])C([H])([H])[H])C(C([H])([H])[H])(C([H])([H])[H])C([H])([H])[H])C([H])([H])c2c([H])c(OC([H])([H])C([H])([H])C([H])([H])[N+]([H])([H])C([H])([H])C([H])([H])C3([H])C([H])([H])C([H])([H])C([H])([H])C([H])([H])[N+]3([H])C([H])(C([H])([H])[H])C([H])(N([H])C(=O)N3C([H])([H])C([H])([H])C([H])([H])C([H])(n4nc(-c5c([H])c([H])c(Oc6c([H])c([H])c(F)c([H])c6F)c([H])c5[H])c(C(=O)N([H])[H])c4N([H])[H])C3([H])[H])C([H])([H])C([H])([H])C(=O)N([H])[H])c([H])c([H])c2C1([H])[H]

>  <smiles>  (41) 
[H]c1c([H])c([H])c2c(c1[H])C([H])([H])C([H])([H])C([H])([H])C2([H])N([H])C(=O)C1([H])N(C(=O)C([H])(N([H])C(=O)C([H])(N([H])C([H])([H])[H])C([H])([H])[H])C(C([H])([H])[H])(C([H])([H])[H])C([H])([H])[H])C([H])([H])c2c([H])c(OC([H])([H])C([H])([H])C([H])([H])[N+]([H])([H])C([H])([H])C([H])([H])C3([H])C([H])([H])C([H])([H])C([H])([H])C([H])([H])[N+]3([H])C([H])(C([H])([H])[H])C([H])(N([H])C(=O)N3C([H])([H])C([H])([H])C([H])([H])C([H])(n4nc(-c5c([H])c([H])c(Oc6c([H])c([H])c(F)c([H])c6F)c([H])c5[H])c(C(=O)N([H])[H])c4N([H])[H])C3([H])[H])C([H])([H])C([H])([H])C(=O)N([H])[H])c([H])c([H])c2C1([H])[H]

$$$$
41:0:0
     RDKit          3D

 95102  0  0  1  0  0  0  0  0999 V2000
  -29.4690  -18.5470   20.3890 C   0  0  0  0  0  0  0  0  0  0  0  0
  -28.5480  -18.1830   19.6520 O   0  0  0  0  0  0  0  0  0  0  0  0
  -30.8530  -20.5910   19.6440 C   0  0  0  0  0  1  0  0  0  0  0  0
  -29.7030  -20.1250   20.5600 C   0  0  0  0  0  3  0  0  0  0  0  0
  -28.5090  -21.1800   20.3090 C   0  0  0  0  0  2  0  0  0  0  0  0
  -28.6820  -22.6840   20.8610 C   0  0  0  0  0  3  0  0  0  0  0  0
  -27.9140  -23.9200   20.1770 C   0  0  0  0  0  3  0  0  0  0  0  0
  -28.1190  -25.3870   20.7910 C   0  0  0  0  0  2  0  0  0  0  0  0
  -28.0340  -26.6190   19.9710 O   0  0  0  0  0  0  0  0  0  0  0  0
  -24.5020  -32.0160   23.2370 C   0  0  0  0  0  0  0  0  0  0  0  0
  -26.9150  -27.4520   20.0540 C   0  0  0  0  0  0  0  0  0  0  0  0
  -23.2070  -30.6520   21.6340 C   0  0  0  0  0  3  0  0  0  0  0  0
  -24.5720  -29.0860   20.1400 C   0  0  0  0  0  0  0  0  0  0  0  0
  -25.7380  -30.9410   21.3400 C   0  0  0  0  0  2  0  0  0  0  0  0
  -25.7700  -29.5630   20.6850 C   0  0  0  0  0  0  0  0  0  0  0  0
  -26.9480  -28.7600   20.6250 C   0  0  0  0  0  3  0  0  0  0  0  0
  -25.6980  -27.0150   19.4940 C   0  0  0  0  0  3  0  0  0  0  0  0
  -24.5380  -27.8170   19.5320 C   0  0  0  0  0  3  0  0  0  0  0  0
  -23.3520  -29.9800   20.2430 C   0  0  0  0  0  2  0  0  0  0  0  0
  -24.5050  -31.2200   22.1270 N   0  0  0  0  0  0  0  0  0  0  0  0
  -23.4480  -32.3030   23.8190 O   0  0  0  0  0  0  0  0  0  0  0  0
  -22.5700  -29.6390   22.6140 C   0  0  0  0  0  0  0  0  0  0  0  0
  -21.2440  -29.4450   22.5070 N   0  0  0  0  0  0  0  0  0  0  0  0
  -23.2670  -29.0250   23.4250 O   0  0  0  0  0  0  0  0  0  0  0  0
  -20.7370  -29.9930   21.8250 H   0  0  0  0  0  0  0  0  0  0  0  0
  -17.8980  -28.1610   23.0150 C   0  0  0  0  0  0  0  0  0  0  0  0
  -20.4470  -28.5030   23.2970 C   0  0  0  0  0  3  0  0  0  0  0  0
  -20.5960  -27.0620   22.7590 C   0  0  0  0  0  2  0  0  0  0  0  0
  -19.5130  -26.6780   21.7470 C   0  0  0  0  0  2  0  0  0  0  0  0
  -18.1210  -26.8000   22.3760 C   0  0  0  0  0  2  0  0  0  0  0  0
  -18.9910  -28.9670   23.4320 C   0  0  0  0  0  0  0  0  0  0  0  0
  -18.7300  -30.2380   23.9870 C   0  0  0  0  0  3  0  0  0  0  0  0
  -17.4090  -30.7040   24.1310 C   0  0  0  0  0  3  0  0  0  0  0  0
  -16.3330  -29.8960   23.7280 C   0  0  0  0  0  3  0  0  0  0  0  0
  -16.5780  -28.6250   23.1760 C   0  0  0  0  0  3  0  0  0  0  0  0
  -25.8190  -32.6190   23.8110 C   0  0  0  0  0  3  0  0  0  0  0  0
  -26.3780  -31.8270   25.0570 C   0  0  1  0  0  0  0  0  0  0  0  0
  -25.3270  -31.5970   26.1690 C   0  0  0  0  0  1  0  0  0  0  0  0
  -26.9180  -30.4430   24.6300 C   0  0  0  0  0  1  0  0  0  0  0  0
  -27.5710  -32.5960   25.6740 C   0  0  0  0  0  1  0  0  0  0  0  0
  -25.5480  -34.0190   24.1670 N   0  0  0  0  0  0  0  0  0  0  0  0
  -25.8820  -35.0760   23.4130 C   0  0  0  0  0  0  0  0  0  0  0  0
  -26.5200  -34.9710   22.3620 O   0  0  0  0  0  0  0  0  0  0  0  0
  -24.9730  -34.1760   24.9830 H   0  0  0  0  0  0  0  0  0  0  0  0
  -24.1840  -36.9150   23.1320 C   0  0  0  0  0  1  0  0  0  0  0  0
  -25.4380  -36.4690   23.9020 C   0  0  0  0  0  3  0  0  0  0  0  0
  -27.6160  -37.2930   24.6860 C   0  0  0  0  0  1  0  0  0  0  0  0
  -26.4910  -37.5020   23.7760 N   0  0  0  0  0  0  0  0  0  0  0  0
  -26.1120  -38.4280   23.9500 H   0  0  0  0  0  0  0  0  0  0  0  0
  -30.3500  -17.4270   21.1680 C   0  0  0  0  0  0  0  0  0  0  0  0
  -30.7100  -14.8790   20.4550 C   0  0  0  0  0  0  0  0  0  0  0  0
  -30.5350  -12.5760   19.5050 C   0  0  0  0  0  2  0  0  0  0  0  0
  -29.6220  -12.5920   18.2610 C   0  0  0  0  0  2  0  0  0  0  0  0
  -28.1480  -12.4120   18.6710 C   0  0  0  0  0  2  0  0  0  0  0  0
  -27.7400  -13.3450   19.8420 C   0  0  0  0  0  3  0  0  0  0  0  0
  -28.7760  -13.3170   20.9890 C   0  0  0  0  0  2  0  0  0  0  0  0
  -30.0850  -13.6550   20.4140 N   0  0  0  0  0  0  0  0  0  0  0  0
  -31.8440  -15.0070   19.9890 O   0  0  0  0  0  0  0  0  0  0  0  0
  -30.0080  -15.9540   20.9500 N   0  0  0  0  0  4  0  0  0  0  0  0
  -29.0790  -15.7060   21.2540 H   0  0  0  0  0  0  0  0  0  0  0  0
  -25.3510  -13.9380   20.5700 C   0  0  0  0  0  0  0  0  0  0  0  0
  -24.2820  -13.1600   20.9250 C   0  0  0  0  0  0  0  0  0  0  0  0
  -24.7390  -11.8080   20.8750 C   0  0  0  0  0  0  0  0  0  0  0  0
  -26.3920  -13.0580   20.3230 N   0  0  0  0  0  0  0  0  0  0  0  0
  -26.0300  -11.7700   20.5660 N   0  0  0  0  0  0  0  0  0  0  0  0
  -24.0070  -10.5460   21.0470 C   0  0  0  0  0  0  0  0  0  0  0  0
  -24.4250   -9.5710   21.9790 C   0  0  0  0  0  3  0  0  0  0  0  0
  -23.6940   -8.3740   22.1400 C   0  0  0  0  0  3  0  0  0  0  0  0
  -22.5290   -8.1460   21.3680 C   0  0  0  0  0  0  0  0  0  0  0  0
  -22.1310   -9.1100   20.4260 C   0  0  0  0  0  3  0  0  0  0  0  0
  -22.8630  -10.2980   20.2650 C   0  0  0  0  0  3  0  0  0  0  0  0
  -21.7720   -7.0020   21.4360 O   0  0  0  0  0  0  0  0  0  0  0  0
  -21.6820   -6.2650   22.5890 C   0  0  0  0  0  0  0  0  0  0  0  0
  -21.2110   -6.8230   23.7970 C   0  0  0  0  0  3  0  0  0  0  0  0
  -21.0710   -6.0140   24.9410 C   0  0  0  0  0  3  0  0  0  0  0  0
  -21.3910   -4.6430   24.8770 C   0  0  0  0  0  0  0  0  0  0  0  0
  -21.8560   -4.0840   23.6730 C   0  0  0  0  0  3  0  0  0  0  0  0
  -21.9990   -4.8920   22.5320 C   0  0  0  0  0  0  0  0  0  0  0  0
  -22.4260   -4.3420   21.3690 F   0  0  0  0  0  0  0  0  0  0  0  0
  -21.2500   -3.8620   25.9730 F   0  0  0  0  0  0  0  0  0  0  0  0
  -22.8870  -13.6400   21.2020 C   0  0  0  0  0  0  0  0  0  0  0  0
  -22.1580  -12.9380   22.0630 N   0  0  0  0  0  0  0  0  0  0  0  0
  -22.4500  -14.6700   20.6890 O   0  0  0  0  0  0  0  0  0  0  0  0
  -22.5240  -12.1020   22.4950 H   0  0  0  0  0  0  0  0  0  0  0  0
  -21.2210  -13.2390   22.2880 H   0  0  0  0  0  0  0  0  0  0  0  0
  -25.5260  -15.3100   20.4150 N   0  0  0  0  0  0  0  0  0  0  0  0
  -24.7680  -15.9730   20.5430 H   0  0  0  0  0  0  0  0  0  0  0  0
  -26.3850  -15.7480   20.1010 H   0  0  0  0  0  0  0  0  0  0  0  0
  -31.8910  -17.6770   21.2320 C   0  0  0  0  0  2  0  0  0  0  0  0
  -32.3650  -18.8590   22.1240 C   0  0  0  0  0  2  0  0  0  0  0  0
  -33.3870  -19.7960   21.4660 C   0  0  0  0  0  0  0  0  0  0  0  0
  -33.4200  -21.0600   21.8730 N   0  0  0  0  0  0  0  0  0  0  0  0
  -34.1460  -19.3990   20.5850 O   0  0  0  0  0  0  0  0  0  0  0  0
  -32.8030  -21.3870   22.6040 H   0  0  0  0  0  0  0  0  0  0  0  0
  -34.0810  -21.7110   21.4730 H   0  0  0  0  0  0  0  0  0  0  0  0
  1  4  1  0
  1 50  1  0
  2  1  2  0
  4  3  1  0
  5  4  1  0
  5  6  1  0
  7  8  1  0
  7  6  2  0
  9 11  1  0
  9  8  1  0
 10 21  2  0
 11 16  1  0
 12 20  1  0
 12 22  1  0
 13 19  1  0
 13 15  1  0
 14 20  1  0
 15 14  1  0
 16 15  2  0
 17 18  1  0
 17 11  2  0
 18 13  2  0
 19 12  1  0
 20 10  1  0
 22 24  2  0
 23 22  1  0
 25 23  1  0
 26 35  2  0
 26 31  1  0
 27 23  1  0
 27 31  1  0
 28 27  1  0
 29 30  1  0
 29 28  1  0
 30 26  1  0
 31 32  2  0
 32 33  1  0
 34 33  2  0
 35 34  1  0
 36 10  1  0
 36 41  1  0
 36 37  1  0
 37 40  1  1
 37 38  1  0
 39 37  1  0
 41 44  1  0
 42 46  1  0
 42 41  1  0
 43 42  2  0
 46 45  1  0
 48 46  1  0
 48 49  1  0
 48 47  1  0
 50 89  1  0
 51 59  1  0
 52 57  1  0
 53 54  1  0
 53 52  1  0
 55 54  1  0
 55 64  1  0
 55 56  1  0
 57 51  1  0
 57 56  1  0
 58 51  2  0
 59 50  2  0
 59 60  1  0
 61 62  2  0
 62 81  1  0
 63 62  1  0
 63 66  1  0
 64 65  1  0
 64 61  1  0
 65 63  2  0
 66 67  1  0
 67 68  2  0
 69 72  1  0
 69 68  1  0
 70 69  2  0
 71 70  1  0
 71 66  2  0
 72 73  1  0
 73 74  1  0
 74 75  2  0
 76 75  1  0
 76 80  1  0
 77 76  2  0
 78 73  2  0
 78 77  1  0
 79 78  1  0
 81 82  1  0
 82 85  1  0
 82 84  1  0
 83 81  2  0
 86 87  1  0
 86 61  1  0
 88 86  1  0
 89 90  1  0
 91 92  1  0
 91 90  1  0
 92 94  1  0
 93 91  2  0
 95 92  1  0
M  ISO  4   8 101   9 101  51 100  59 100
M  END
>  <TORSDO>  (42) 
F 25

>  <SCORE>  (42) 
-12.168

>  <name>  (42) 
41

>  <ligand_id>  (42) 
41

>  <original_smiles>  (42) 
[H]c1c([H])c([H])c2c(c1[H])C([H])([H])C([H])([H])C([H])([H])C2([H])N([H])C(=O)C1([H])N(C(=O)C([H])(N([H])C(=O)C([H])(N([H])C([H])([H])[H])C([H])([H])[H])C(C([H])([H])[H])(C([H])([H])[H])C([H])([H])[H])C([H])([H])c2c([H])c(OC([H])([H])C([H])([H])C([H])([H])C([H])([H])C([H])(C(=O)C([H])(N([H])C(=O)N3C([H])([H])C([H])([H])C([H])([H])C([H])(n4nc(-c5c([H])c([H])c(Oc6c([H])c([H])c(F)c([H])c6F)c([H])c5[H])c(C(=O)N([H])[H])c4N([H])[H])C3([H])[H])C([H])([H])C([H])([H])C(=O)N([H])[H])C([H])([H])[H])c([H])c([H])c2C1([H])[H]

>  <smiles>  (42) 
[H]c1c([H])c([H])c2c(c1[H])C([H])([H])C([H])([H])C([H])([H])C2([H])N([H])C(=O)C1([H])N(C(=O)C([H])(N([H])C(=O)C([H])(N([H])C([H])([H])[H])C([H])([H])[H])C(C([H])([H])[H])(C([H])([H])[H])C([H])([H])[H])C([H])([H])c2c([H])c(OC([H])([H])C([H])([H])C([H])([H])C([H])([H])C([H])(C(=O)C([H])(N([H])C(=O)N3C([H])([H])C([H])([H])C([H])([H])C([H])(n4nc(-c5c([H])c([H])c(Oc6c([H])c([H])c(F)c([H])c6F)c([H])c5[H])c(C(=O)N([H])[H])c4N([H])[H])C3([H])[H])C([H])([H])C([H])([H])C(=O)N([H])[H])C([H])([H])[H])c([H])c([H])c2C1([H])[H]

$$$$
42:0:0
     RDKit          3D

 99107  0  0  1  0  0  0  0  0999 V2000
  -32.2290  -21.3190   21.0990 C   0  0  0  0  0  2  0  0  0  0  0  0
  -32.4980  -19.8170   20.8850 C   0  0  0  0  0  2  0  0  0  0  0  0
  -33.4230  -19.5470   19.6790 C   0  0  0  0  0  2  0  0  0  0  0  0
  -33.0920  -17.0760   20.1580 C   0  0  0  0  0  1  0  0  0  0  0  0
  -33.3820  -18.1170   19.0430 C   0  0  2  0  0  0  0  0  0  0  0  0
  -35.8970  -17.4130   19.3580 C   0  0  0  0  0  1  0  0  0  0  0  0
  -34.7670  -17.8130   18.3950 C   0  0  0  0  0  2  0  0  0  0  0  0
  -32.2990  -17.9650   17.9270 C   0  0  0  0  0  0  0  0  0  0  0  0
  -31.6330  -16.9250   17.8660 O   0  0  0  0  0  0  0  0  0  0  0  0
  -32.6940  -17.7810   14.8410 C   0  0  0  0  0  0  0  0  0  0  0  0
  -33.6440  -16.8370   12.7620 C   0  0  0  0  0  2  0  0  0  0  0  0
  -34.2780  -17.9630   11.9140 C   0  0  0  0  0  2  0  0  0  0  0  0
  -33.2280  -18.6250   11.0010 C   0  0  0  0  0  2  0  0  0  0  0  0
  -31.9280  -18.9860   11.7640 C   0  0  0  0  0  3  0  0  0  0  0  0
  -31.4520  -17.7590   12.5730 C   0  0  0  0  0  2  0  0  0  0  0  0
  -32.5160  -17.4140   13.5290 N   0  0  0  0  0  0  0  0  0  0  0  0
  -33.7350  -17.4600   15.4170 O   0  0  0  0  0  0  0  0  0  0  0  0
  -29.9910  -20.1080   16.0950 C   0  0  0  0  0  3  0  0  0  0  0  0
  -30.8930  -19.9570   17.2990 C   0  0  0  0  0  2  0  0  0  0  0  0
  -30.5180  -19.1420   15.0440 C   0  0  0  0  0  3  0  0  0  0  0  0
  -32.0960  -19.0920   16.8700 C   0  0  0  0  0  3  0  0  0  0  0  0
  -31.7960  -18.5830   15.5030 N   0  0  0  0  0  0  0  0  0  0  0  0
  -30.2370  -20.6910   10.8300 C   0  0  0  0  0  0  0  0  0  0  0  0
  -29.3980  -20.6440    9.7520 C   0  0  0  0  0  0  0  0  0  0  0  0
  -29.5880  -19.3560    9.1600 C   0  0  0  0  0  0  0  0  0  0  0  0
  -30.8860  -19.4650   10.8620 N   0  0  0  0  0  0  0  0  0  0  0  0
  -30.4470  -18.6440    9.8760 N   0  0  0  0  0  0  0  0  0  0  0  0
  -29.0480  -18.7820    7.9240 C   0  0  0  0  0  0  0  0  0  0  0  0
  -28.4000  -17.5270    7.9110 C   0  0  0  0  0  3  0  0  0  0  0  0
  -27.8720  -17.0050    6.7120 C   0  0  0  0  0  3  0  0  0  0  0  0
  -27.9870  -17.7400    5.5070 C   0  0  0  0  0  0  0  0  0  0  0  0
  -28.6570  -18.9760    5.5190 C   0  0  0  0  0  3  0  0  0  0  0  0
  -29.1860  -19.4920    6.7140 C   0  0  0  0  0  3  0  0  0  0  0  0
  -27.5300  -17.2980    4.2910 O   0  0  0  0  0  0  0  0  0  0  0  0
  -26.4770  -16.4250    4.1910 C   0  0  0  0  0  0  0  0  0  0  0  0
  -25.2150  -16.7120    4.7540 C   0  0  0  0  0  3  0  0  0  0  0  0
  -24.1410  -15.8180    4.5680 C   0  0  0  0  0  3  0  0  0  0  0  0
  -24.3260  -14.6440    3.8140 C   0  0  0  0  0  0  0  0  0  0  0  0
  -25.5790  -14.3590    3.2460 C   0  0  0  0  0  3  0  0  0  0  0  0
  -26.6520  -15.2490    3.4330 C   0  0  0  0  0  0  0  0  0  0  0  0
  -27.8530  -14.9820    2.8670 F   0  0  0  0  0  0  0  0  0  0  0  0
  -23.2930  -13.7900    3.6250 F   0  0  0  0  0  0  0  0  0  0  0  0
  -28.5370  -21.7610    9.2350 C   0  0  0  0  0  0  0  0  0  0  0  0
  -27.4040  -21.4300    8.6290 N   0  0  0  0  0  0  0  0  0  0  0  0
  -28.8470  -22.9400    9.4100 O   0  0  0  0  0  0  0  0  0  0  0  0
  -27.1400  -20.4630    8.5070 H   0  0  0  0  0  0  0  0  0  0  0  0
  -26.7880  -22.1520    8.2800 H   0  0  0  0  0  0  0  0  0  0  0  0
  -30.5170  -21.6780   11.7690 N   0  0  0  0  0  0  0  0  0  0  0  0
  -30.0870  -22.5960   11.7230 H   0  0  0  0  0  0  0  0  0  0  0  0
  -31.2190  -21.6050   12.4940 H   0  0  0  0  0  0  0  0  0  0  0  0
  -31.5870  -21.5960   22.4730 C   0  0  0  0  0  2  0  0  0  0  0  0
  -31.4660  -23.0330   22.8040 N   0  0  0  0  0  4  0  0  0  0  0  0
  -32.3880  -23.4370   22.8220 H   0  0  0  0  0  0  0  0  0  0  0  0
  -31.1020  -23.0790   23.7410 H   0  0  0  0  0  0  0  0  0  0  0  0
  -30.5900  -23.8570   21.9360 C   0  0  0  0  0  2  0  0  0  0  0  0
  -31.7100  -26.0300   22.7250 C   0  0  0  0  0  1  0  0  0  0  0  0
  -30.3760  -25.2660   22.5380 C   0  0  0  0  0  3  0  0  0  0  0  0
  -29.3400  -26.1170   21.7600 C   0  0  0  0  0  2  0  0  0  0  0  0
  -29.0910  -27.2180   22.6190 O   0  0  0  0  0  0  0  0  0  0  0  0
  -24.1030  -28.3950   27.4740 C   0  0  0  0  0  0  0  0  0  0  0  0
  -27.8300  -27.7180   22.8240 C   0  0  0  0  0  0  0  0  0  0  0  0
  -23.4620  -28.9770   25.1520 C   0  0  0  0  0  3  0  0  0  0  0  0
  -25.3540  -28.9290   23.4390 C   0  0  0  0  0  0  0  0  0  0  0  0
  -25.9090  -29.0170   25.8830 C   0  0  0  0  0  2  0  0  0  0  0  0
  -26.2740  -28.6570   24.4580 C   0  0  0  0  0  0  0  0  0  0  0  0
  -27.5120  -28.0640   24.1520 C   0  0  0  0  0  3  0  0  0  0  0  0
  -26.8900  -27.9720   21.8000 C   0  0  0  0  0  3  0  0  0  0  0  0
  -25.6530  -28.5840   22.1050 C   0  0  0  0  0  3  0  0  0  0  0  0
  -24.0640  -29.5940   23.8590 C   0  0  0  0  0  2  0  0  0  0  0  0
  -24.4920  -28.7560   26.2200 N   0  0  0  0  0  0  0  0  0  0  0  0
  -22.9040  -28.2910   27.7660 O   0  0  0  0  0  0  0  0  0  0  0  0
  -22.6940  -27.6920   24.7690 C   0  0  0  0  0  0  0  0  0  0  0  0
  -21.6200  -27.8570   23.9800 N   0  0  0  0  0  0  0  0  0  0  0  0
  -23.0800  -26.5840   25.1500 O   0  0  0  0  0  0  0  0  0  0  0  0
  -21.3640  -28.8010   23.7270 H   0  0  0  0  0  0  0  0  0  0  0  0
  -18.9200  -27.1640   21.6840 C   0  0  0  0  0  0  0  0  0  0  0  0
  -20.7650  -26.7950   23.4550 C   0  0  0  0  0  3  0  0  0  0  0  0
  -21.5000  -25.9730   22.3720 C   0  0  0  0  0  2  0  0  0  0  0  0
  -21.2460  -26.4870   20.9510 C   0  0  0  0  0  2  0  0  0  0  0  0
  -19.7490  -26.4520   20.6260 C   0  0  0  0  0  2  0  0  0  0  0  0
  -19.4050  -27.3400   23.0080 C   0  0  0  0  0  0  0  0  0  0  0  0
  -18.6100  -28.0420   23.9400 C   0  0  0  0  0  3  0  0  0  0  0  0
  -17.3560  -28.5610   23.5730 C   0  0  0  0  0  3  0  0  0  0  0  0
  -16.8720  -28.3680   22.2670 C   0  0  0  0  0  3  0  0  0  0  0  0
  -17.6510  -27.6680   21.3270 C   0  0  0  0  0  3  0  0  0  0  0  0
  -25.1390  -28.1180   28.6100 C   0  0  0  0  0  3  0  0  0  0  0  0
  -25.6460  -26.6250   28.6400 C   0  0  1  0  0  0  0  0  0  0  0  0
  -24.5020  -25.5840   28.6860 C   0  0  0  0  0  1  0  0  0  0  0  0
  -26.5170  -26.3240   27.3970 C   0  0  0  0  0  1  0  0  0  0  0  0
  -26.5480  -26.3990   29.8790 C   0  0  0  0  0  1  0  0  0  0  0  0
  -24.5050  -28.4790   29.8840 N   0  0  0  0  0  0  0  0  0  0  0  0
  -24.7480  -29.6120   30.5610 C   0  0  0  0  0  0  0  0  0  0  0  0
  -25.5960  -30.4370   30.2060 O   0  0  0  0  0  0  0  0  0  0  0  0
  -23.7730  -27.8700   30.2150 H   0  0  0  0  0  0  0  0  0  0  0  0
  -22.7660  -30.8260   31.5100 C   0  0  0  0  0  1  0  0  0  0  0  0
  -23.9210  -29.8680   31.8350 C   0  0  0  0  0  3  0  0  0  0  0  0
  -25.6780  -29.4520   33.5000 C   0  0  0  0  0  1  0  0  0  0  0  0
  -24.7180  -30.4090   32.9580 N   0  0  0  0  0  0  0  0  0  0  0  0
  -24.1110  -30.7070   33.7170 H   0  0  0  0  0  0  0  0  0  0  0  0
  1 51  1  0
  2  1  1  0
  3  2  1  0
  5  3  1  0
  5  4  1  1
  7  5  1  0
  7  6  1  0
  8  5  1  0
  9  8  2  0
 10 17  2  0
 10 22  1  0
 11 16  1  0
 12 11  1  0
 13 14  1  0
 13 12  1  0
 14 26  1  0
 14 15  1  0
 15 16  1  0
 16 10  1  0
 18 19  1  0
 20 22  1  0
 20 18  2  0
 21 19  1  0
 21  8  1  0
 22 21  1  0
 23 26  1  0
 23 48  1  0
 24 23  2  0
 25 24  1  0
 25 27  2  0
 27 26  1  0
 28 25  1  0
 29 28  1  0
 30 29  2  0
 31 32  2  0
 31 30  1  0
 32 33  1  0
 33 28  2  0
 34 31  1  0
 35 34  1  0
 35 36  1  0
 37 36  2  0
 38 37  1  0
 39 40  1  0
 39 38  2  0
 40 35  2  0
 41 40  1  0
 42 38  1  0
 43 45  2  0
 43 24  1  0
 44 43  1  0
 46 44  1  0
 47 44  1  0
 48 50  1  0
 49 48  1  0
 51 52  1  0
 52 53  1  0
 52 54  1  0
 55 57  1  0
 55 52  1  0
 57 56  1  0
 58 57  1  0
 58 59  1  0
 59 61  1  0
 60 71  2  0
 61 66  1  0
 62 72  1  0
 62 70  1  0
 63 69  1  0
 63 65  1  0
 64 70  1  0
 65 64  1  0
 66 65  2  0
 67 68  1  0
 67 61  2  0
 68 63  2  0
 69 62  1  0
 70 60  1  0
 72 74  2  0
 73 72  1  0
 75 73  1  0
 76 81  1  0
 77 73  1  0
 78 77  1  0
 79 78  1  0
 80 79  1  0
 80 76  1  0
 81 77  1  0
 81 82  2  0
 83 82  1  0
 84 83  2  0
 85 76  2  0
 85 84  1  0
 86 60  1  0
 86 87  1  0
 86 91  1  0
 87 88  1  1
 87 90  1  0
 89 87  1  0
 91 94  1  0
 91 92  1  0
 92 96  1  0
 93 92  2  0
 96 95  1  0
 96 98  1  0
 98 97  1  0
 98 99  1  0
M  ISO  4  10 100  22 100  58 101  59 101
M  END
>  <TORSDO>  (43) 
F 26

>  <SCORE>  (43) 
0.087

>  <name>  (43) 
42

>  <ligand_id>  (43) 
42

>  <original_smiles>  (43) 
[H]c1c([H])c([H])c2c(c1[H])C([H])([H])C([H])([H])C([H])([H])C2([H])N([H])C(=O)C1([H])N(C(=O)C([H])(N([H])C(=O)C([H])(N([H])C([H])([H])[H])C([H])([H])[H])C(C([H])([H])[H])(C([H])([H])[H])C([H])([H])[H])C([H])([H])c2c([H])c(OC([H])([H])C([H])(C([H])([H])[H])C([H])([H])[N+]([H])([H])C([H])([H])C([H])([H])C([H])([H])C([H])([H])C(C(=O)C3([H])N(C(=O)N4C([H])([H])C([H])([H])C([H])([H])C([H])(n5nc(-c6c([H])c([H])c(Oc7c([H])c([H])c(F)c([H])c7F)c([H])c6[H])c(C(=O)N([H])[H])c5N([H])[H])C4([H])[H])C([H])([H])C([H])([H])C3([H])[H])(C([H])([H])[H])C([H])([H])C([H])([H])[H])c([H])c([H])c2C1([H])[H]

>  <smiles>  (43) 
[H]c1c([H])c([H])c2c(c1[H])C([H])([H])C([H])([H])C([H])([H])C2([H])N([H])C(=O)C1([H])N(C(=O)C([H])(N([H])C(=O)C([H])(N([H])C([H])([H])[H])C([H])([H])[H])C(C([H])([H])[H])(C([H])([H])[H])C([H])([H])[H])C([H])([H])c2c([H])c(OC([H])([H])C([H])(C([H])([H])[H])C([H])([H])[N+]([H])([H])C([H])([H])C([H])([H])C([H])([H])C([H])([H])C(C(=O)C3([H])N(C(=O)N4C([H])([H])C([H])([H])C([H])([H])C([H])(n5nc(-c6c([H])c([H])c(Oc7c([H])c([H])c(F)c([H])c7F)c([H])c6[H])c(C(=O)N([H])[H])c5N([H])[H])C4([H])[H])C([H])([H])C([H])([H])C3([H])[H])(C([H])([H])[H])C([H])([H])C([H])([H])[H])c([H])c([H])c2C1([H])[H]

$$$$
43:0:0
     RDKit          3D

102109  0  0  1  0  0  0  0  0999 V2000
  -30.8700  -19.2490   21.9950 C   0  0  0  0  0  3  0  0  0  0  0  0
  -31.3710  -21.6650   21.6090 C   0  0  0  0  0  0  0  0  0  0  0  0
  -30.5280  -20.6730   21.9340 N   0  0  0  0  0  0  0  0  0  0  0  0
  -32.5510  -21.4790   21.3050 O   0  0  0  0  0  0  0  0  0  0  0  0
  -29.5710  -20.9140   22.1440 H   0  0  0  0  0  0  0  0  0  0  0  0
  -30.8070  -23.0880   21.6110 C   0  0  0  0  0  2  0  0  0  0  0  0
  -30.7170  -23.7110   20.1940 C   0  0  0  0  0  2  0  0  0  0  0  0
  -29.3640  -24.4020   19.9370 C   0  0  0  0  0  2  0  0  0  0  0  0
  -29.1750  -24.9180   18.4990 C   0  0  0  0  0  2  0  0  0  0  0  0
  -27.8710  -25.7240   18.3250 C   0  0  0  0  0  2  0  0  0  0  0  0
  -27.9780  -26.9940   18.9690 O   0  0  0  0  0  0  0  0  0  0  0  0
  -24.9300  -31.6780   23.3290 C   0  0  0  0  0  0  0  0  0  0  0  0
  -26.8380  -27.7380   19.2010 C   0  0  0  0  0  0  0  0  0  0  0  0
  -23.4250  -30.6570   21.6530 C   0  0  0  0  0  3  0  0  0  0  0  0
  -24.5730  -29.3300   19.8000 C   0  0  0  0  0  0  0  0  0  0  0  0
  -25.9250  -30.9170   21.1770 C   0  0  0  0  0  2  0  0  0  0  0  0
  -25.8280  -29.6810   20.3070 C   0  0  0  0  0  0  0  0  0  0  0  0
  -26.9570  -28.8860   20.0170 C   0  0  0  0  0  3  0  0  0  0  0  0
  -25.5620  -27.4070   18.6830 C   0  0  0  0  0  3  0  0  0  0  0  0
  -24.4330  -28.1900   18.9890 C   0  0  0  0  0  3  0  0  0  0  0  0
  -23.4090  -30.2260   20.1610 C   0  0  0  0  0  2  0  0  0  0  0  0
  -24.7860  -31.0860   22.1100 N   0  0  0  0  0  0  0  0  0  0  0  0
  -23.9500  -31.9030   24.0510 O   0  0  0  0  0  0  0  0  0  0  0  0
  -22.8270  -29.5140   22.5030 C   0  0  0  0  0  0  0  0  0  0  0  0
  -21.5130  -29.2840   22.3590 N   0  0  0  0  0  0  0  0  0  0  0  0
  -23.5430  -28.8400   23.2490 O   0  0  0  0  0  0  0  0  0  0  0  0
  -20.9900  -29.8810   21.7320 H   0  0  0  0  0  0  0  0  0  0  0  0
  -18.2580  -27.7290   22.5320 C   0  0  0  0  0  0  0  0  0  0  0  0
  -20.7430  -28.2370   23.0310 C   0  0  0  0  0  3  0  0  0  0  0  0
  -21.0430  -26.8470   22.4210 C   0  0  0  0  0  2  0  0  0  0  0  0
  -20.0680  -26.4540   21.3070 C   0  0  0  0  0  2  0  0  0  0  0  0
  -18.6310  -26.4330   21.8360 C   0  0  0  0  0  2  0  0  0  0  0  0
  -19.2500  -28.5850   23.0810 C   0  0  0  0  0  0  0  0  0  0  0  0
  -18.8540  -29.7970   23.6860 C   0  0  0  0  0  3  0  0  0  0  0  0
  -17.4950  -30.1590   23.7510 C   0  0  0  0  0  3  0  0  0  0  0  0
  -16.5140  -29.2990   23.2240 C   0  0  0  0  0  3  0  0  0  0  0  0
  -16.8950  -28.0880   22.6210 C   0  0  0  0  0  3  0  0  0  0  0  0
  -26.3280  -32.1210   23.8630 C   0  0  0  0  0  3  0  0  0  0  0  0
  -26.1780  -33.4700   24.4230 N   0  0  0  0  0  0  0  0  0  0  0  0
  -26.5440  -34.5980   23.7970 C   0  0  0  0  0  0  0  0  0  0  0  0
  -27.1130  -34.6020   22.7030 O   0  0  0  0  0  0  0  0  0  0  0  0
  -25.6610  -33.5460   25.2870 H   0  0  0  0  0  0  0  0  0  0  0  0
  -24.9620  -36.5490   23.8800 C   0  0  0  0  0  1  0  0  0  0  0  0
  -26.2250  -35.9320   24.4980 C   0  0  0  0  0  3  0  0  0  0  0  0
  -28.4960  -36.5090   25.2340 C   0  0  0  0  0  1  0  0  0  0  0  0
  -27.3370  -36.9070   24.4400 N   0  0  0  0  0  0  0  0  0  0  0  0
  -27.0310  -37.8200   24.7660 H   0  0  0  0  0  0  0  0  0  0  0  0
  -26.9240  -31.1330   24.9390 C   0  0  1  0  0  0  0  0  0  0  0  0
  -25.9490  -30.8090   26.0950 C   0  0  0  0  0  1  0  0  0  0  0  0
  -27.3380  -29.7970   24.2790 C   0  0  0  0  0  1  0  0  0  0  0  0
  -28.2100  -31.7360   25.5500 C   0  0  0  0  0  1  0  0  0  0  0  0
  -30.6250  -19.2720   19.3800 C   0  0  0  0  0  1  0  0  0  0  0  0
  -30.4240  -18.4950   20.7090 C   0  0  0  0  0  3  0  0  0  0  0  0
  -31.0830  -17.0880   20.5690 C   0  0  0  0  0  2  0  0  0  0  0  0
  -30.8990  -14.7340   20.2830 C   0  0  0  0  0  0  0  0  0  0  0  0
  -30.5490  -12.5490   19.2470 C   0  0  0  0  0  2  0  0  0  0  0  0
  -29.6140  -12.6380   18.0280 C   0  0  0  0  0  2  0  0  0  0  0  0
  -28.1310  -12.6120   18.4550 C   0  0  0  0  0  2  0  0  0  0  0  0
  -27.7820  -13.4540   19.7180 C   0  0  0  0  0  3  0  0  0  0  0  0
  -28.8560  -13.3320   20.8180 C   0  0  0  0  0  2  0  0  0  0  0  0
  -30.1550  -13.6000   20.1940 N   0  0  0  0  0  0  0  0  0  0  0  0
  -32.1290  -14.6900   20.2110 O   0  0  0  0  0  0  0  0  0  0  0  0
  -30.2980  -15.9420   20.0190 N   0  0  0  0  0  0  0  0  0  0  0  0
  -25.3620  -13.9900   20.4080 C   0  0  0  0  0  0  0  0  0  0  0  0
  -24.3190  -13.1930   20.7860 C   0  0  0  0  0  0  0  0  0  0  0  0
  -24.8260  -11.8540   20.7990 C   0  0  0  0  0  0  0  0  0  0  0  0
  -26.4420  -13.1420   20.2150 N   0  0  0  0  0  0  0  0  0  0  0  0
  -26.1230  -11.8550   20.5200 N   0  0  0  0  0  0  0  0  0  0  0  0
  -24.1410  -10.5710   21.0050 C   0  0  0  0  0  0  0  0  0  0  0  0
  -24.5600   -9.6620   22.0010 C   0  0  0  0  0  3  0  0  0  0  0  0
  -23.8730   -8.4450   22.1960 C   0  0  0  0  0  3  0  0  0  0  0  0
  -22.7510   -8.1260   21.3910 C   0  0  0  0  0  0  0  0  0  0  0  0
  -22.3570   -9.0240   20.3840 C   0  0  0  0  0  3  0  0  0  0  0  0
  -23.0460  -10.2300   20.1870 C   0  0  0  0  0  3  0  0  0  0  0  0
  -22.0340   -6.9590   21.4910 O   0  0  0  0  0  0  0  0  0  0  0  0
  -21.9140   -6.2910   22.6820 C   0  0  0  0  0  0  0  0  0  0  0  0
  -21.3560   -6.9030   23.8270 C   0  0  0  0  0  3  0  0  0  0  0  0
  -21.1870   -6.1580   25.0100 C   0  0  0  0  0  3  0  0  0  0  0  0
  -21.5610   -4.8010   25.0470 C   0  0  0  0  0  0  0  0  0  0  0  0
  -22.1130   -4.1900   23.9090 C   0  0  0  0  0  3  0  0  0  0  0  0
  -22.2850   -4.9310   22.7290 C   0  0  0  0  0  0  0  0  0  0  0  0
  -22.8010   -4.3330   21.6290 F   0  0  0  0  0  0  0  0  0  0  0  0
  -21.3840   -4.0860   26.1820 F   0  0  0  0  0  0  0  0  0  0  0  0
  -22.8970  -13.6250   21.0170 C   0  0  0  0  0  0  0  0  0  0  0  0
  -22.1870  -12.9410   21.9030 N   0  0  0  0  0  0  0  0  0  0  0  0
  -22.4270  -14.6070   20.4420 O   0  0  0  0  0  0  0  0  0  0  0  0
  -22.5960  -12.1520   22.3860 H   0  0  0  0  0  0  0  0  0  0  0  0
  -21.2350  -13.2050   22.1070 H   0  0  0  0  0  0  0  0  0  0  0  0
  -25.4800  -15.3560   20.1890 N   0  0  0  0  0  0  0  0  0  0  0  0
  -24.6840  -15.9790   20.2540 H   0  0  0  0  0  0  0  0  0  0  0  0
  -26.2990  -15.8040   19.8000 H   0  0  0  0  0  0  0  0  0  0  0  0
  -30.0610  -16.0970   18.5520 C   0  0  0  0  0  2  0  0  0  0  0  0
  -28.0410  -17.6990   18.2950 C   0  0  0  0  0  1  0  0  0  0  0  0
  -29.7610  -17.5270   16.4610 C   0  0  0  0  0  1  0  0  0  0  0  0
  -29.5190  -17.4280   17.9720 C   0  0  0  0  0  3  0  0  0  0  0  0
  -30.1990  -18.6030   23.2340 C   0  0  0  0  0  2  0  0  0  0  0  0
  -29.2890  -19.9240   25.3040 C   0  0  0  0  0  1  0  0  0  0  0  0
  -30.4710  -19.1940   24.6390 C   0  0  0  0  0  3  0  0  0  0  0  0
  -31.8510  -19.8960   24.7470 C   0  0  0  0  0  2  0  0  0  0  0  0
  -31.0610  -22.2860   24.0630 C   0  0  0  0  0  1  0  0  0  0  0  0
  -33.3940  -21.8590   24.8500 C   0  0  0  0  0  1  0  0  0  0  0  0
  -31.9300  -21.4250   24.9960 C   0  0  0  0  0  3  0  0  0  0  0  0
  1 96  1  0
  2  6  1  0
  2  3  1  0
  3  1  1  0
  3  5  1  0
  4  2  2  0
  7  6  1  0
  8  7  1  0
  9  8  1  0
 10  9  1  0
 10 11  1  0
 11 13  1  0
 12 23  2  0
 13 18  1  0
 14 22  1  0
 14 24  1  0
 15 21  1  0
 15 17  1  0
 16 22  1  0
 17 16  1  0
 18 17  2  0
 19 20  1  0
 19 13  2  0
 20 15  2  0
 21 14  1  0
 22 12  1  0
 24 26  2  0
 25 24  1  0
 27 25  1  0
 28 37  2  0
 28 33  1  0
 29 25  1  0
 29 33  1  0
 30 29  1  0
 31 32  1  0
 31 30  1  0
 32 28  1  0
 33 34  2  0
 34 35  1  0
 36 35  2  0
 37 36  1  0
 38 12  1  0
 38 39  1  0
 38 48  1  0
 39 42  1  0
 40 39  1  0
 40 44  1  0
 41 40  2  0
 44 43  1  0
 46 44  1  0
 46 47  1  0
 46 45  1  0
 48 51  1  1
 48 49  1  0
 50 48  1  0
 53 52  1  0
 53  1  1  0
 54 53  1  0
 56 61  1  0
 57 58  1  0
 57 56  1  0
 59 58  1  0
 59 67  1  0
 59 60  1  0
 61 55  1  0
 61 60  1  0
 62 55  2  0
 63 55  1  0
 63 54  1  0
 64 65  2  0
 65 66  1  0
 65 84  1  0
 66 69  1  0
 67 64  1  0
 67 68  1  0
 68 66  2  0
 69 70  1  0
 70 71  2  0
 72 75  1  0
 72 71  1  0
 73 72  2  0
 74 73  1  0
 74 69  2  0
 75 76  1  0
 76 81  2  0
 76 77  1  0
 77 78  2  0
 78 79  1  0
 79 83  1  0
 80 79  2  0
 81 80  1  0
 82 81  1  0
 84 85  1  0
 85 88  1  0
 85 87  1  0
 86 84  2  0
 89 90  1  0
 89 64  1  0
 91 89  1  0
 92 63  1  0
 94 95  1  0
 95 93  1  0
 95 92  1  0
 96 98  1  0
 98 99  1  0
 98 97  1  0
 99102  1  0
100102  1  0
101102  1  0
M  ISO  4  10 101  11 101  55 100  63 100
M  END
>  <TORSDO>  (44) 
F 30

>  <SCORE>  (44) 
-2.962

>  <name>  (44) 
43

>  <ligand_id>  (44) 
43

>  <original_smiles>  (44) 
[H]c1c([H])c([H])c2c(c1[H])C([H])([H])C([H])([H])C([H])([H])C2([H])N([H])C(=O)C1([H])N(C(=O)C([H])(N([H])C(=O)C([H])(N([H])C([H])([H])[H])C([H])([H])[H])C(C([H])([H])[H])(C([H])([H])[H])C([H])([H])[H])C([H])([H])c2c([H])c(OC([H])([H])C([H])([H])C([H])([H])C([H])([H])C([H])([H])C(=O)N([H])C([H])(C([H])([H])C([H])(C([H])([H])[H])C([H])([H])C([H])(C([H])([H])[H])C([H])([H])[H])C([H])(C([H])([H])[H])C([H])([H])N(C(=O)N3C([H])([H])C([H])([H])C([H])([H])C([H])(n4nc(-c5c([H])c([H])c(Oc6c([H])c([H])c(F)c([H])c6F)c([H])c5[H])c(C(=O)N([H])[H])c4N([H])[H])C3([H])[H])C([H])([H])C([H])(C([H])([H])[H])C([H])([H])[H])c([H])c([H])c2C1([H])[H]

>  <smiles>  (44) 
[H]c1c([H])c([H])c2c(c1[H])C([H])([H])C([H])([H])C([H])([H])C2([H])N([H])C(=O)C1([H])N(C(=O)C([H])(N([H])C(=O)C([H])(N([H])C([H])([H])[H])C([H])([H])[H])C(C([H])([H])[H])(C([H])([H])[H])C([H])([H])[H])C([H])([H])c2c([H])c(OC([H])([H])C([H])([H])C([H])([H])C([H])([H])C([H])([H])C(=O)N([H])C([H])(C([H])([H])C([H])(C([H])([H])[H])C([H])([H])C([H])(C([H])([H])[H])C([H])([H])[H])C([H])(C([H])([H])[H])C([H])([H])N(C(=O)N3C([H])([H])C([H])([H])C([H])([H])C([H])(n4nc(-c5c([H])c([H])c(Oc6c([H])c([H])c(F)c([H])c6F)c([H])c5[H])c(C(=O)N([H])[H])c4N([H])[H])C3([H])[H])C([H])([H])C([H])(C([H])([H])[H])C([H])([H])[H])c([H])c([H])c2C1([H])[H]

$$$$
44:0:0
     RDKit          3D

 97104  0  0  1  0  0  0  0  0999 V2000
  -30.6880  -22.4730   20.0690 N   0  0  0  0  0  4  0  0  0  0  0  0
  -31.4990  -23.0670   19.9880 H   0  0  0  0  0  0  0  0  0  0  0  0
  -30.6280  -22.1990   21.0340 H   0  0  0  0  0  0  0  0  0  0  0  0
  -30.9610  -21.2860   19.2170 C   0  0  0  0  0  2  0  0  0  0  0  0
  -29.7920  -20.2770   19.1040 C   0  0  0  0  0  2  0  0  0  0  0  0
  -30.0210  -18.0130   20.1410 C   0  0  0  0  0  0  0  0  0  0  0  0
  -29.7600  -19.3270   20.2250 N   0  0  0  0  0  0  0  0  0  0  0  0
  -30.3100  -17.4780   19.0690 O   0  0  0  0  0  0  0  0  0  0  0  0
  -29.4910  -19.6840   21.1360 H   0  0  0  0  0  0  0  0  0  0  0  0
  -29.9410  -17.1760   21.4460 C   0  0  0  0  0  3  0  0  0  0  0  0
  -30.2960  -14.8360   20.5110 C   0  0  0  0  0  0  0  0  0  0  0  0
  -30.1170  -12.6670   19.3480 C   0  0  0  0  0  2  0  0  0  0  0  0
  -29.1450  -12.7830   18.1570 C   0  0  0  0  0  2  0  0  0  0  0  0
  -27.6960  -12.5300   18.6090 C   0  0  0  0  0  2  0  0  0  0  0  0
  -27.3090  -13.3830   19.8440 C   0  0  0  0  0  3  0  0  0  0  0  0
  -28.3810  -13.2530   20.9500 C   0  0  0  0  0  2  0  0  0  0  0  0
  -29.6810  -13.6310   20.3720 N   0  0  0  0  0  0  0  0  0  0  0  0
  -31.3830  -15.0890   19.9930 O   0  0  0  0  0  0  0  0  0  0  0  0
  -29.5840  -15.7700   21.1670 N   0  0  0  0  0  0  0  0  0  0  0  0
  -28.6660  -15.4840   21.4730 H   0  0  0  0  0  0  0  0  0  0  0  0
  -24.9010  -13.8600   20.6160 C   0  0  0  0  0  0  0  0  0  0  0  0
  -23.8790  -13.0260   20.9850 C   0  0  0  0  0  0  0  0  0  0  0  0
  -24.4050  -11.7020   20.9120 C   0  0  0  0  0  0  0  0  0  0  0  0
  -25.9800  -13.0350   20.3390 N   0  0  0  0  0  0  0  0  0  0  0  0
  -25.6880  -11.7320   20.5780 N   0  0  0  0  0  0  0  0  0  0  0  0
  -23.7480  -10.4030   21.0870 C   0  0  0  0  0  0  0  0  0  0  0  0
  -24.2330   -9.4480   22.0090 C   0  0  0  0  0  3  0  0  0  0  0  0
  -23.5770   -8.2080   22.1690 C   0  0  0  0  0  3  0  0  0  0  0  0
  -22.4190   -7.9150   21.4110 C   0  0  0  0  0  0  0  0  0  0  0  0
  -21.9530   -8.8600   20.4780 C   0  0  0  0  0  3  0  0  0  0  0  0
  -22.6110  -10.0910   20.3150 C   0  0  0  0  0  3  0  0  0  0  0  0
  -21.7260   -6.7320   21.4860 O   0  0  0  0  0  0  0  0  0  0  0  0
  -21.7070   -5.9800   22.6330 C   0  0  0  0  0  0  0  0  0  0  0  0
  -21.2310   -6.5010   23.8560 C   0  0  0  0  0  3  0  0  0  0  0  0
  -21.1650   -5.6720   24.9940 C   0  0  0  0  0  3  0  0  0  0  0  0
  -21.5650   -4.3250   24.9100 C   0  0  0  0  0  0  0  0  0  0  0  0
  -22.0320   -3.8040   23.6900 C   0  0  0  0  0  3  0  0  0  0  0  0
  -22.1020   -4.6300   22.5560 C   0  0  0  0  0  0  0  0  0  0  0  0
  -22.5350   -4.1180   21.3780 F   0  0  0  0  0  0  0  0  0  0  0  0
  -21.4940   -3.5270   26.0010 F   0  0  0  0  0  0  0  0  0  0  0  0
  -22.4650  -13.4280   21.2940 C   0  0  0  0  0  0  0  0  0  0  0  0
  -21.7970  -12.6900   22.1730 N   0  0  0  0  0  0  0  0  0  0  0  0
  -21.9610  -14.4310   20.7890 O   0  0  0  0  0  0  0  0  0  0  0  0
  -22.2170  -11.8780   22.5980 H   0  0  0  0  0  0  0  0  0  0  0  0
  -20.8470  -12.9330   22.4190 H   0  0  0  0  0  0  0  0  0  0  0  0
  -25.0040  -15.2380   20.4760 N   0  0  0  0  0  0  0  0  0  0  0  0
  -24.2350  -15.8630   20.6960 H   0  0  0  0  0  0  0  0  0  0  0  0
  -25.8330  -15.7250   20.1540 H   0  0  0  0  0  0  0  0  0  0  0  0
  -32.1200  -18.4510   22.2230 C   0  0  0  0  0  1  0  0  0  0  0  0
  -30.5560  -17.4600   23.9260 C   0  0  0  0  0  1  0  0  0  0  0  0
  -31.1080  -17.3200   22.4910 C   0  0  0  0  0  3  0  0  0  0  0  0
  -29.5040  -23.2910   19.6970 C   0  0  0  0  0  2  0  0  0  0  0  0
  -30.7590  -25.4790   19.6190 C   0  0  0  0  0  1  0  0  0  0  0  0
  -29.6720  -24.7480   21.7810 C   0  0  0  0  0  1  0  0  0  0  0  0
  -29.5500  -24.7490   20.2400 C   0  0  2  0  0  0  0  0  0  0  0  0
  -28.2300  -25.4780   19.8340 C   0  0  0  0  0  2  0  0  0  0  0  0
  -28.2450  -26.8740   20.1830 O   0  0  0  0  0  0  0  0  0  0  0  0
  -24.4550  -32.0020   23.3150 C   0  0  0  0  0  0  0  0  0  0  0  0
  -27.0500  -27.5700   20.1810 C   0  0  0  0  0  0  0  0  0  0  0  0
  -23.2180  -30.6060   21.6900 C   0  0  0  0  0  3  0  0  0  0  0  0
  -24.6440  -29.0740   20.2320 C   0  0  0  0  0  0  0  0  0  0  0  0
  -25.7360  -30.9720   21.4370 C   0  0  0  0  0  2  0  0  0  0  0  0
  -25.8100  -29.5970   20.8010 C   0  0  0  0  0  0  0  0  0  0  0  0
  -27.0110  -28.8530   20.7760 C   0  0  0  0  0  3  0  0  0  0  0  0
  -25.8590  -27.0550   19.6160 C   0  0  0  0  0  3  0  0  0  0  0  0
  -24.6650  -27.7990   19.6380 C   0  0  0  0  0  3  0  0  0  0  0  0
  -23.3980  -29.9280   20.3030 C   0  0  0  0  0  2  0  0  0  0  0  0
  -24.4900  -31.2080   22.2050 N   0  0  0  0  0  0  0  0  0  0  0  0
  -23.3830  -32.2690   23.8750 O   0  0  0  0  0  0  0  0  0  0  0  0
  -22.5870  -29.5850   22.6600 C   0  0  0  0  0  0  0  0  0  0  0  0
  -21.2720  -29.3560   22.5180 N   0  0  0  0  0  0  0  0  0  0  0  0
  -23.2800  -28.9910   23.4900 O   0  0  0  0  0  0  0  0  0  0  0  0
  -20.7690  -29.8830   21.8170 H   0  0  0  0  0  0  0  0  0  0  0  0
  -17.9390  -28.0320   22.9580 C   0  0  0  0  0  0  0  0  0  0  0  0
  -20.4770  -28.4070   23.2970 C   0  0  0  0  0  3  0  0  0  0  0  0
  -20.6580  -26.9650   22.7710 C   0  0  0  0  0  2  0  0  0  0  0  0
  -19.6030  -26.5660   21.7350 C   0  0  0  0  0  2  0  0  0  0  0  0
  -18.1950  -26.6730   22.3300 C   0  0  0  0  0  2  0  0  0  0  0  0
  -19.0120  -28.8540   23.3960 C   0  0  0  0  0  0  0  0  0  0  0  0
  -18.7210  -30.1260   23.9330 C   0  0  0  0  0  3  0  0  0  0  0  0
  -17.3920  -30.5750   24.0450 C   0  0  0  0  0  3  0  0  0  0  0  0
  -16.3360  -29.7500   23.6230 C   0  0  0  0  0  3  0  0  0  0  0  0
  -16.6080  -28.4830   23.0810 C   0  0  0  0  0  3  0  0  0  0  0  0
  -25.7540  -32.6330   23.9070 C   0  0  0  0  0  3  0  0  0  0  0  0
  -25.4660  -34.0410   24.2110 N   0  0  0  0  0  0  0  0  0  0  0  0
  -25.7790  -35.0710   23.4150 C   0  0  0  0  0  0  0  0  0  0  0  0
  -26.4180  -34.9370   22.3680 O   0  0  0  0  0  0  0  0  0  0  0  0
  -24.9020  -34.2210   25.0290 H   0  0  0  0  0  0  0  0  0  0  0  0
  -24.0350  -36.8470   23.0780 C   0  0  0  0  0  1  0  0  0  0  0  0
  -25.3090  -36.4710   23.8500 C   0  0  0  0  0  3  0  0  0  0  0  0
  -27.4720  -37.3820   24.5670 C   0  0  0  0  0  1  0  0  0  0  0  0
  -26.3330  -37.5220   23.6640 N   0  0  0  0  0  0  0  0  0  0  0  0
  -25.9290  -38.4440   23.8010 H   0  0  0  0  0  0  0  0  0  0  0  0
  -26.2730  -31.8810   25.1940 C   0  0  1  0  0  0  0  0  0  0  0  0
  -25.1880  -31.6690   26.2720 C   0  0  0  0  0  1  0  0  0  0  0  0
  -26.8430  -30.4950   24.8170 C   0  0  0  0  0  1  0  0  0  0  0  0
  -27.4330  -32.6750   25.8380 C   0  0  0  0  0  1  0  0  0  0  0  0
  1  3  1  0
  2  1  1  0
  4  1  1  0
  5  4  1  0
  5  7  1  0
  6  7  1  0
  7  9  1  0
  8  6  2  0
 10  6  1  0
 10 51  1  0
 11 19  1  0
 12 17  1  0
 13 14  1  0
 13 12  1  0
 15 14  1  0
 15 24  1  0
 15 16  1  0
 17 11  1  0
 17 16  1  0
 18 11  2  0
 19 10  1  0
 19 20  1  0
 21 22  2  0
 22 41  1  0
 23 22  1  0
 23 26  1  0
 24 25  1  0
 24 21  1  0
 25 23  2  0
 26 27  1  0
 27 28  2  0
 29 32  1  0
 29 28  1  0
 30 29  2  0
 31 30  1  0
 31 26  2  0
 32 33  1  0
 33 34  1  0
 34 35  2  0
 36 35  1  0
 36 40  1  0
 37 36  2  0
 38 33  2  0
 38 37  1  0
 39 38  1  0
 41 42  1  0
 42 45  1  0
 42 44  1  0
 43 41  2  0
 46 21  1  0
 46 47  1  0
 48 46  1  0
 49 51  1  0
 51 50  1  0
 52  1  1  0
 52 55  1  0
 55 53  1  6
 55 54  1  0
 56 57  1  0
 56 55  1  0
 58 69  2  0
 59 57  1  0
 59 64  1  0
 60 68  1  0
 60 70  1  0
 61 67  1  0
 61 63  1  0
 62 68  1  0
 63 62  1  0
 64 63  2  0
 65 66  1  0
 65 59  2  0
 66 61  2  0
 67 60  1  0
 68 58  1  0
 70 72  2  0
 71 70  1  0
 73 71  1  0
 74 83  2  0
 74 79  1  0
 75 71  1  0
 75 79  1  0
 76 75  1  0
 77 78  1  0
 77 76  1  0
 78 74  1  0
 79 80  2  0
 80 81  1  0
 82 81  2  0
 83 82  1  0
 84 58  1  0
 84 85  1  0
 84 94  1  0
 85 88  1  0
 86 90  1  0
 86 85  1  0
 87 86  2  0
 90 89  1  0
 92 93  1  0
 92 90  1  0
 92 91  1  0
 94 97  1  1
 94 95  1  0
 96 94  1  0
M  ISO  4  11 100  19 100  56 101  57 101
M  END
>  <TORSDO>  (45) 
F 24

>  <SCORE>  (45) 
-10.964

>  <name>  (45) 
44

>  <ligand_id>  (45) 
44

>  <original_smiles>  (45) 
[H]c1c([H])c([H])c2c(c1[H])C([H])([H])C([H])([H])C([H])([H])C2([H])N([H])C(=O)C1([H])N(C(=O)C([H])(N([H])C(=O)C([H])(N([H])C([H])([H])[H])C([H])([H])[H])C(C([H])([H])[H])(C([H])([H])[H])C([H])([H])[H])C([H])([H])c2c([H])c(OC([H])([H])C(C([H])([H])[H])(C([H])([H])[H])C([H])([H])[N+]([H])([H])C([H])([H])C([H])([H])N([H])C(=O)C([H])(N([H])C(=O)N3C([H])([H])C([H])([H])C([H])([H])C([H])(n4nc(-c5c([H])c([H])c(Oc6c([H])c([H])c(F)c([H])c6F)c([H])c5[H])c(C(=O)N([H])[H])c4N([H])[H])C3([H])[H])C([H])(C([H])([H])[H])C([H])([H])[H])c([H])c([H])c2C1([H])[H]

>  <smiles>  (45) 
[H]c1c([H])c([H])c2c(c1[H])C([H])([H])C([H])([H])C([H])([H])C2([H])N([H])C(=O)C1([H])N(C(=O)C([H])(N([H])C(=O)C([H])(N([H])C([H])([H])[H])C([H])([H])[H])C(C([H])([H])[H])(C([H])([H])[H])C([H])([H])[H])C([H])([H])c2c([H])c(OC([H])([H])C(C([H])([H])[H])(C([H])([H])[H])C([H])([H])[N+]([H])([H])C([H])([H])C([H])([H])N([H])C(=O)C([H])(N([H])C(=O)N3C([H])([H])C([H])([H])C([H])([H])C([H])(n4nc(-c5c([H])c([H])c(Oc6c([H])c([H])c(F)c([H])c6F)c([H])c5[H])c(C(=O)N([H])[H])c4N([H])[H])C3([H])[H])C([H])(C([H])([H])[H])C([H])([H])[H])c([H])c([H])c2C1([H])[H]

$$$$
45:0:0
     RDKit          3D

 95102  0  0  1  0  0  0  0  0999 V2000
  -29.2420  -21.1140   19.4250 C   0  0  0  0  0  3  0  0  0  0  0  0
  -30.0200  -21.4120   18.2100 N   0  0  0  0  0  4  0  0  0  0  0  0
  -30.9880  -21.5760   18.4270 H   0  0  0  0  0  0  0  0  0  0  0  0
  -29.6500  -22.2190   17.7410 H   0  0  0  0  0  0  0  0  0  0  0  0
  -29.9690  -20.6450   17.5630 H   0  0  0  0  0  0  0  0  0  0  0  0
  -29.7740  -19.7350   20.0520 C   0  0  0  0  0  2  0  0  0  0  0  0
  -29.6500  -18.3450   19.2530 C   0  0  0  0  0  2  0  0  0  0  0  0
  -30.7410  -17.1930   19.5170 C   0  0  0  0  0  3  0  0  0  0  0  0
  -31.0100  -14.6410   18.9670 C   0  0  0  0  0  0  0  0  0  0  0  0
  -30.5900  -12.3250   18.1530 C   0  0  0  0  0  2  0  0  0  0  0  0
  -29.4640  -12.3550   17.0970 C   0  0  0  0  0  2  0  0  0  0  0  0
  -28.0780  -12.2810   17.7690 C   0  0  0  0  0  2  0  0  0  0  0  0
  -27.9330  -13.2740   18.9520 C   0  0  0  0  0  3  0  0  0  0  0  0
  -29.1520  -13.2000   19.8960 C   0  0  0  0  0  2  0  0  0  0  0  0
  -30.3500  -13.4460   19.0820 N   0  0  0  0  0  0  0  0  0  0  0  0
  -32.1220  -14.7110   18.4390 O   0  0  0  0  0  0  0  0  0  0  0  0
  -30.3000  -15.7660   19.3040 N   0  0  0  0  0  0  0  0  0  0  0  0
  -29.3620  -15.5700   19.6190 H   0  0  0  0  0  0  0  0  0  0  0  0
  -25.7560  -14.0360   20.0820 C   0  0  0  0  0  0  0  0  0  0  0  0
  -24.7160  -13.3380   20.6330 C   0  0  0  0  0  0  0  0  0  0  0  0
  -25.0660  -11.9570   20.5240 C   0  0  0  0  0  0  0  0  0  0  0  0
  -26.6750  -13.0850   19.6690 N   0  0  0  0  0  0  0  0  0  0  0  0
  -26.2770  -11.8290   19.9960 N   0  0  0  0  0  0  0  0  0  0  0  0
  -24.2940  -10.7480   20.8390 C   0  0  0  0  0  0  0  0  0  0  0  0
  -24.7140   -9.8440   21.8390 C   0  0  0  0  0  3  0  0  0  0  0  0
  -23.9450   -8.6980   22.1360 C   0  0  0  0  0  3  0  0  0  0  0  0
  -22.7420   -8.4480   21.4340 C   0  0  0  0  0  0  0  0  0  0  0  0
  -22.3410   -9.3390   20.4230 C   0  0  0  0  0  3  0  0  0  0  0  0
  -23.1090  -10.4770   20.1250 C   0  0  0  0  0  3  0  0  0  0  0  0
  -21.9440   -7.3490   21.6380 O   0  0  0  0  0  0  0  0  0  0  0  0
  -21.7720   -6.8050   22.8850 C   0  0  0  0  0  0  0  0  0  0  0  0
  -21.2360   -7.5530   23.9560 C   0  0  0  0  0  3  0  0  0  0  0  0
  -21.0120   -6.9350   25.2030 C   0  0  0  0  0  3  0  0  0  0  0  0
  -21.3120   -5.5700   25.3790 C   0  0  0  0  0  0  0  0  0  0  0  0
  -21.8410   -4.8230   24.3100 C   0  0  0  0  0  3  0  0  0  0  0  0
  -22.0670   -5.4390   23.0670 C   0  0  0  0  0  0  0  0  0  0  0  0
  -22.5570   -4.7080   22.0360 F   0  0  0  0  0  0  0  0  0  0  0  0
  -21.0900   -4.9750   26.5730 F   0  0  0  0  0  0  0  0  0  0  0  0
  -23.4250  -13.9110   21.1430 C   0  0  0  0  0  0  0  0  0  0  0  0
  -22.8350  -13.2850   22.1550 N   0  0  0  0  0  0  0  0  0  0  0  0
  -22.9580  -14.9470   20.6760 O   0  0  0  0  0  0  0  0  0  0  0  0
  -23.2290  -12.4450   22.5510 H   0  0  0  0  0  0  0  0  0  0  0  0
  -21.9770  -13.6520   22.5410 H   0  0  0  0  0  0  0  0  0  0  0  0
  -25.9850  -15.3930   19.8760 N   0  0  0  0  0  0  0  0  0  0  0  0
  -25.2910  -16.0940   20.1100 H   0  0  0  0  0  0  0  0  0  0  0  0
  -26.7770  -15.7760   19.3750 H   0  0  0  0  0  0  0  0  0  0  0  0
  -30.3290  -16.8570   22.0290 C   0  0  0  0  0  1  0  0  0  0  0  0
  -31.3410  -17.2960   20.9520 C   0  0  0  0  0  3  0  0  0  0  0  0
  -33.7770  -16.9400   20.1600 C   0  0  0  0  0  1  0  0  0  0  0  0
  -32.6700  -16.5270   21.1410 C   0  0  0  0  0  2  0  0  0  0  0  0
  -29.1940  -22.3850   20.4170 C   0  0  0  0  0  2  0  0  0  0  0  0
  -30.6790  -24.3910   19.7200 C   0  0  0  0  0  1  0  0  0  0  0  0
  -29.2240  -23.9100   19.8920 C   0  0  0  0  0  3  0  0  0  0  0  0
  -28.4630  -24.9950   20.7870 C   0  0  0  0  0  2  0  0  0  0  0  0
  -28.6440  -26.4370   20.4900 O   0  0  0  0  0  0  0  0  0  0  0  0
  -24.7670  -31.7960   23.3850 C   0  0  0  0  0  0  0  0  0  0  0  0
  -27.5130  -27.2580   20.4420 C   0  0  0  0  0  0  0  0  0  0  0  0
  -23.6320  -30.3950   21.6960 C   0  0  0  0  0  3  0  0  0  0  0  0
  -25.1410  -28.8450   20.3320 C   0  0  0  0  0  0  0  0  0  0  0  0
  -26.1730  -30.7270   21.6080 C   0  0  0  0  0  2  0  0  0  0  0  0
  -26.2830  -29.3480   20.9690 C   0  0  0  0  0  0  0  0  0  0  0  0
  -27.4750  -28.5680   21.0090 C   0  0  0  0  0  3  0  0  0  0  0  0
  -26.3520  -26.8000   19.7850 C   0  0  0  0  0  3  0  0  0  0  0  0
  -25.1770  -27.5760   19.7290 C   0  0  0  0  0  3  0  0  0  0  0  0
  -23.9010  -29.7150   20.3260 C   0  0  0  0  0  2  0  0  0  0  0  0
  -24.8730  -30.9900   22.2880 N   0  0  0  0  0  0  0  0  0  0  0  0
  -23.6640  -32.0690   23.8780 O   0  0  0  0  0  0  0  0  0  0  0  0
  -22.9340  -29.3780   22.6310 C   0  0  0  0  0  0  0  0  0  0  0  0
  -21.6060  -29.2300   22.4810 N   0  0  0  0  0  0  0  0  0  0  0  0
  -23.5870  -28.7250   23.4490 O   0  0  0  0  0  0  0  0  0  0  0  0
  -21.1410  -29.8090   21.7960 H   0  0  0  0  0  0  0  0  0  0  0  0
  -18.1900  -28.1410   22.9560 C   0  0  0  0  0  0  0  0  0  0  0  0
  -20.7580  -28.2980   23.2250 C   0  0  0  0  0  3  0  0  0  0  0  0
  -20.8060  -26.8830   22.6030 C   0  0  0  0  0  2  0  0  0  0  0  0
  -19.6900  -26.6330   21.5840 C   0  0  0  0  0  2  0  0  0  0  0  0
  -18.3160  -26.8090   22.2360 C   0  0  0  0  0  2  0  0  0  0  0  0
  -19.3370  -28.8470   23.4070 C   0  0  0  0  0  0  0  0  0  0  0  0
  -19.1670  -30.0970   24.0410 C   0  0  0  0  0  3  0  0  0  0  0  0
  -17.8820  -30.6400   24.2280 C   0  0  0  0  0  3  0  0  0  0  0  0
  -16.7490  -29.9300   23.7930 C   0  0  0  0  0  3  0  0  0  0  0  0
  -16.9040  -28.6820   23.1640 C   0  0  0  0  0  3  0  0  0  0  0  0
  -26.0240  -32.4310   24.0570 C   0  0  0  0  0  3  0  0  0  0  0  0
  -26.5330  -31.6200   25.3130 C   0  0  1  0  0  0  0  0  0  0  0  0
  -25.4170  -31.2710   26.3240 C   0  0  0  0  0  1  0  0  0  0  0  0
  -27.2030  -30.2980   24.8730 C   0  0  0  0  0  1  0  0  0  0  0  0
  -27.6170  -32.4360   26.0580 C   0  0  0  0  0  1  0  0  0  0  0  0
  -25.6770  -33.8070   24.4370 N   0  0  0  0  0  0  0  0  0  0  0  0
  -25.9880  -34.8970   23.7220 C   0  0  0  0  0  0  0  0  0  0  0  0
  -26.6680  -34.8500   22.6940 O   0  0  0  0  0  0  0  0  0  0  0  0
  -25.0730  -33.9160   25.2390 H   0  0  0  0  0  0  0  0  0  0  0  0
  -24.2210  -36.6610   23.4240 C   0  0  0  0  0  1  0  0  0  0  0  0
  -25.4640  -36.2530   24.2310 C   0  0  0  0  0  3  0  0  0  0  0  0
  -27.5700  -37.1540   25.1160 C   0  0  0  0  0  1  0  0  0  0  0  0
  -26.4720  -37.3340   24.1700 N   0  0  0  0  0  0  0  0  0  0  0  0
  -26.0430  -38.2380   24.3520 H   0  0  0  0  0  0  0  0  0  0  0  0
  1  6  1  0
  1 51  1  0
  2  3  1  0
  2  1  1  0
  4  2  1  0
  5  2  1  0
  7  6  1  0
  8  7  1  0
  8 48  1  0
  9 15  1  0
  9 17  1  0
 10 15  1  0
 11 12  1  0
 11 10  1  0
 13 12  1  0
 13 22  1  0
 13 14  1  0
 15 14  1  0
 16  9  2  0
 17  8  1  0
 17 18  1  0
 19 20  2  0
 20 39  1  0
 21 20  1  0
 21 24  1  0
 22 23  1  0
 22 19  1  0
 23 21  2  0
 24 25  1  0
 25 26  2  0
 27 30  1  0
 27 26  1  0
 28 27  2  0
 29 28  1  0
 29 24  2  0
 30 31  1  0
 31 36  2  0
 31 32  1  0
 32 33  2  0
 33 34  1  0
 34 38  1  0
 35 34  2  0
 36 35  1  0
 37 36  1  0
 39 40  1  0
 40 43  1  0
 40 42  1  0
 41 39  2  0
 44 19  1  0
 44 45  1  0
 46 44  1  0
 48 50  1  0
 48 47  1  0
 49 50  1  0
 53 52  1  0
 53 51  1  0
 53 54  1  0
 55 54  1  0
 56 67  2  0
 57 55  1  0
 57 62  1  0
 58 66  1  0
 58 68  1  0
 59 61  1  0
 60 66  1  0
 61 62  2  0
 61 60  1  0
 63 57  2  0
 64 63  1  0
 64 59  2  0
 65 59  1  0
 65 58  1  0
 66 56  1  0
 68 70  2  0
 69 68  1  0
 71 69  1  0
 72 81  2  0
 72 77  1  0
 73 69  1  0
 73 77  1  0
 74 73  1  0
 75 76  1  0
 75 74  1  0
 76 72  1  0
 77 78  2  0
 78 79  1  0
 80 79  2  0
 81 80  1  0
 82 56  1  0
 82 87  1  0
 82 83  1  0
 83 86  1  1
 83 84  1  0
 85 83  1  0
 87 90  1  0
 88 92  1  0
 88 87  1  0
 89 88  2  0
 92 91  1  0
 94 92  1  0
 94 95  1  0
 94 93  1  0
M  ISO  4   9 100  17 100  54 101  55 101
M  END
>  <TORSDO>  (46) 
F 25

>  <SCORE>  (46) 
-8.593

>  <name>  (46) 
45

>  <ligand_id>  (46) 
45

>  <original_smiles>  (46) 
[H]c1c([H])c([H])c2c(c1[H])C([H])([H])C([H])([H])C([H])([H])C2([H])N([H])C(=O)C1([H])N(C(=O)C([H])(N([H])C(=O)C([H])(N([H])C([H])([H])[H])C([H])([H])[H])C(C([H])([H])[H])(C([H])([H])[H])C([H])([H])[H])C([H])([H])c2c([H])c(OC([H])([H])C([H])(C([H])([H])[H])C([H])([H])C([H])(C([H])([H])C([H])([H])C([H])(N([H])C(=O)N3C([H])([H])C([H])([H])C([H])([H])C([H])(n4nc(-c5c([H])c([H])c(Oc6c([H])c([H])c(F)c([H])c6F)c([H])c5[H])c(C(=O)N([H])[H])c4N([H])[H])C3([H])[H])C([H])(C([H])([H])[H])C([H])([H])C([H])([H])[H])[N+]([H])([H])[H])c([H])c([H])c2C1([H])[H]

>  <smiles>  (46) 
[H]c1c([H])c([H])c2c(c1[H])C([H])([H])C([H])([H])C([H])([H])C2([H])N([H])C(=O)C1([H])N(C(=O)C([H])(N([H])C(=O)C([H])(N([H])C([H])([H])[H])C([H])([H])[H])C(C([H])([H])[H])(C([H])([H])[H])C([H])([H])[H])C([H])([H])c2c([H])c(OC([H])([H])C([H])(C([H])([H])[H])C([H])([H])C([H])(C([H])([H])C([H])([H])C([H])(N([H])C(=O)N3C([H])([H])C([H])([H])C([H])([H])C([H])(n4nc(-c5c([H])c([H])c(Oc6c([H])c([H])c(F)c([H])c6F)c([H])c5[H])c(C(=O)N([H])[H])c4N([H])[H])C3([H])[H])C([H])(C([H])([H])[H])C([H])([H])C([H])([H])[H])[N+]([H])([H])[H])c([H])c([H])c2C1([H])[H]

$$$$
46:0:0
     RDKit          3D

 94101  0  0  1  0  0  0  0  0999 V2000
  -28.9290  -20.0030   19.2720 C   0  0  0  0  0  0  0  0  0  0  0  0
  -29.0480  -21.4620   19.5710 N   0  0  0  0  0  4  0  0  0  0  0  0
  -27.9010  -19.6810   18.6780 O   0  0  0  0  0  0  0  0  0  0  0  0
  -29.8750  -21.6440   20.1260 H   0  0  0  0  0  0  0  0  0  0  0  0
  -30.0020  -18.6260   19.5480 C   0  0  0  0  0  0  0  0  0  0  0  0
  -30.5920  -15.7010   19.5350 C   0  0  0  0  0  0  0  0  0  0  0  0
  -30.6380  -13.1820   18.8650 C   0  0  0  0  0  2  0  0  0  0  0  0
  -29.6600  -12.8020   17.7220 C   0  0  0  0  0  2  0  0  0  0  0  0
  -28.2570  -12.5080   18.2790 C   0  0  0  0  0  2  0  0  0  0  0  0
  -27.8250  -13.5530   19.3360 C   0  0  0  0  0  3  0  0  0  0  0  0
  -28.9260  -13.8610   20.3720 C   0  0  0  0  0  2  0  0  0  0  0  0
  -30.0810  -14.3700   19.6140 N   0  0  0  0  0  0  0  0  0  0  0  0
  -31.8000  -15.7200   19.2490 O   0  0  0  0  0  0  0  0  0  0  0  0
  -29.7890  -16.9560   19.6070 N   0  0  0  0  0  4  0  0  0  0  0  0
  -28.8140  -16.7350   19.7500 H   0  0  0  0  0  0  0  0  0  0  0  0
  -25.5550  -14.1060   20.3540 C   0  0  0  0  0  0  0  0  0  0  0  0
  -24.5150  -13.3270   20.7740 C   0  0  0  0  0  0  0  0  0  0  0  0
  -24.9440  -11.9730   20.6110 C   0  0  0  0  0  0  0  0  0  0  0  0
  -26.5460  -13.2300   19.9540 N   0  0  0  0  0  0  0  0  0  0  0  0
  -26.1980  -11.9350   20.1760 N   0  0  0  0  0  0  0  0  0  0  0  0
  -24.2050  -10.7150   20.7880 C   0  0  0  0  0  0  0  0  0  0  0  0
  -24.6080   -9.7460   21.7340 C   0  0  0  0  0  3  0  0  0  0  0  0
  -23.8690   -8.5550   21.8970 C   0  0  0  0  0  3  0  0  0  0  0  0
  -22.7120   -8.3250   21.1170 C   0  0  0  0  0  0  0  0  0  0  0  0
  -22.3290   -9.2810   20.1600 C   0  0  0  0  0  3  0  0  0  0  0  0
  -23.0690  -10.4630   19.9920 C   0  0  0  0  0  3  0  0  0  0  0  0
  -21.9450   -7.1870   21.1910 O   0  0  0  0  0  0  0  0  0  0  0  0
  -21.7700   -6.5140   22.3720 C   0  0  0  0  0  0  0  0  0  0  0  0
  -21.1170   -7.1040   23.4770 C   0  0  0  0  0  3  0  0  0  0  0  0
  -20.8960   -6.3510   24.6500 C   0  0  0  0  0  3  0  0  0  0  0  0
  -21.3190   -5.0100   24.7160 C   0  0  0  0  0  0  0  0  0  0  0  0
  -21.9630   -4.4200   23.6140 C   0  0  0  0  0  3  0  0  0  0  0  0
  -22.1860   -5.1680   22.4460 C   0  0  0  0  0  0  0  0  0  0  0  0
  -22.7880   -4.5890   21.3810 F   0  0  0  0  0  0  0  0  0  0  0  0
  -21.1010   -4.2850   25.8370 F   0  0  0  0  0  0  0  0  0  0  0  0
  -23.1620  -13.8110   21.2040 C   0  0  0  0  0  0  0  0  0  0  0  0
  -22.5090  -13.0870   22.1050 N   0  0  0  0  0  0  0  0  0  0  0  0
  -22.6960  -14.8670   20.7740 O   0  0  0  0  0  0  0  0  0  0  0  0
  -22.9030  -12.2320   22.4710 H   0  0  0  0  0  0  0  0  0  0  0  0
  -21.6040  -13.3920   22.4360 H   0  0  0  0  0  0  0  0  0  0  0  0
  -25.7290  -15.4830   20.2470 N   0  0  0  0  0  0  0  0  0  0  0  0
  -24.9800  -16.1320   20.4630 H   0  0  0  0  0  0  0  0  0  0  0  0
  -26.5260  -15.9310   19.8150 H   0  0  0  0  0  0  0  0  0  0  0  0
  -31.0360  -18.9790   20.6360 C   0  0  0  0  0  2  0  0  0  0  0  0
  -30.4700  -19.7690   21.8330 C   0  0  0  0  0  2  0  0  0  0  0  0
  -31.1920  -21.2000   23.8170 C   0  0  0  0  0  1  0  0  0  0  0  0
  -31.6670  -18.7290   23.8350 C   0  0  0  0  0  1  0  0  0  0  0  0
  -31.5180  -19.9770   22.9480 C   0  0  0  0  0  3  0  0  0  0  0  0
  -28.3390  -22.9180   19.0780 C   0  0  0  0  0  0  0  0  0  0  0  0
  -28.7900  -22.3440   16.5930 C   0  0  0  0  0  1  0  0  0  0  0  0
  -30.5320  -23.5820   17.9440 C   0  0  0  0  0  1  0  0  0  0  0  0
  -29.0300  -23.3280   17.7540 C   0  0  0  0  0  3  0  0  0  0  0  0
  -27.9430  -24.4920   19.9050 C   0  0  0  0  0  2  0  0  0  0  0  0
  -27.9660  -26.1180   19.5440 O   0  0  0  0  0  0  0  0  0  0  0  0
  -24.5310  -31.9120   23.0640 C   0  0  0  0  0  0  0  0  0  0  0  0
  -26.9250  -27.1820   19.6890 C   0  0  0  0  0  0  0  0  0  0  0  0
  -23.2510  -30.5910   21.4280 C   0  0  0  0  0  3  0  0  0  0  0  0
  -24.6210  -29.0540   19.8590 C   0  0  0  0  0  0  0  0  0  0  0  0
  -25.8040  -30.8210   21.1460 C   0  0  0  0  0  2  0  0  0  0  0  0
  -25.8430  -29.4400   20.4270 C   0  0  0  0  0  0  0  0  0  0  0  0
  -26.9900  -28.5300   20.3070 C   0  0  0  0  0  3  0  0  0  0  0  0
  -25.6660  -26.9490   19.0940 C   0  0  0  0  0  3  0  0  0  0  0  0
  -24.5550  -27.8320   19.1730 C   0  0  0  0  0  3  0  0  0  0  0  0
  -23.4070  -29.9720   20.0120 C   0  0  0  0  0  2  0  0  0  0  0  0
  -24.5530  -31.1330   21.9310 N   0  0  0  0  0  0  0  0  0  0  0  0
  -23.4720  -32.1680   23.6600 O   0  0  0  0  0  0  0  0  0  0  0  0
  -22.6140  -29.5450   22.3820 C   0  0  0  0  0  0  0  0  0  0  0  0
  -21.2860  -29.3490   22.2950 N   0  0  0  0  0  0  0  0  0  0  0  0
  -23.3240  -28.9130   23.1670 O   0  0  0  0  0  0  0  0  0  0  0  0
  -20.7620  -29.9110   21.6390 H   0  0  0  0  0  0  0  0  0  0  0  0
  -17.9610  -28.0120   22.8580 C   0  0  0  0  0  0  0  0  0  0  0  0
  -20.5170  -28.3630   23.0640 C   0  0  0  0  0  3  0  0  0  0  0  0
  -20.6520  -26.9500   22.4470 C   0  0  0  0  0  2  0  0  0  0  0  0
  -19.5360  -26.6160   21.4530 C   0  0  0  0  0  2  0  0  0  0  0  0
  -18.1690  -26.6900   22.1370 C   0  0  0  0  0  2  0  0  0  0  0  0
  -19.0620  -28.8040   23.2790 C   0  0  0  0  0  0  0  0  0  0  0  0
  -18.8110  -30.0390   23.9160 C   0  0  0  0  0  3  0  0  0  0  0  0
  -17.4920  -30.4800   24.1380 C   0  0  0  0  0  3  0  0  0  0  0  0
  -16.4070  -29.6860   23.7280 C   0  0  0  0  0  3  0  0  0  0  0  0
  -16.6430  -28.4530   23.0940 C   0  0  0  0  0  3  0  0  0  0  0  0
  -25.8330  -32.5310   23.6540 C   0  0  0  0  0  3  0  0  0  0  0  0
  -25.5290  -33.9100   24.0780 N   0  0  0  0  0  0  0  0  0  0  0  0
  -25.8360  -35.0120   23.3800 C   0  0  0  0  0  0  0  0  0  0  0  0
  -26.4670  -34.9740   22.3210 O   0  0  0  0  0  0  0  0  0  0  0  0
  -24.9660  -34.0110   24.9090 H   0  0  0  0  0  0  0  0  0  0  0  0
  -24.1130  -36.8390   23.1970 C   0  0  0  0  0  1  0  0  0  0  0  0
  -25.3730  -36.3710   23.9440 C   0  0  0  0  0  3  0  0  0  0  0  0
  -27.5250  -37.2030   24.7910 C   0  0  0  0  0  1  0  0  0  0  0  0
  -26.4100  -37.4250   23.8730 N   0  0  0  0  0  0  0  0  0  0  0  0
  -26.0100  -38.3380   24.0760 H   0  0  0  0  0  0  0  0  0  0  0  0
  -26.4120  -31.7090   24.8720 C   0  0  1  0  0  0  0  0  0  0  0  0
  -25.3640  -31.3990   25.9680 C   0  0  0  0  0  1  0  0  0  0  0  0
  -27.0050  -30.3630   24.3970 C   0  0  0  0  0  1  0  0  0  0  0  0
  -27.5730  -32.4910   25.5290 C   0  0  0  0  0  1  0  0  0  0  0  0
  1  5  1  0
  1  2  1  0
  2  4  1  0
  3  1  2  0
  5 14  2  0
  5 44  1  0
  6 14  1  0
  6 12  1  0
  7 12  1  0
  8  9  1  0
  8  7  1  0
 10  9  1  0
 10 19  1  0
 10 11  1  0
 12 11  1  0
 13  6  2  0
 14 15  1  0
 16 17  2  0
 17 36  1  0
 18 17  1  0
 18 21  1  0
 19 20  1  0
 19 16  1  0
 20 18  2  0
 21 22  1  0
 22 23  2  0
 24 27  1  0
 24 23  1  0
 25 24  2  0
 26 25  1  0
 26 21  2  0
 27 28  1  0
 28 33  2  0
 28 29  1  0
 29 30  2  0
 30 31  1  0
 31 35  1  0
 32 31  2  0
 33 32  1  0
 34 33  1  0
 36 37  1  0
 37 40  1  0
 37 39  1  0
 38 36  2  0
 41 16  1  0
 41 42  1  0
 43 41  1  0
 44 45  1  0
 45 48  1  0
 48 46  1  0
 48 47  1  0
 49  2  2  3
 49 53  1  0
 50 52  1  0
 52 51  1  0
 52 49  1  0
 54 56  1  0
 54 53  1  0
 55 66  2  0
 56 61  1  0
 57 65  1  0
 57 67  1  0
 58 64  1  0
 58 60  1  0
 59 65  1  0
 60 59  1  0
 61 60  2  0
 62 63  1  0
 62 56  2  0
 63 58  2  0
 64 57  1  0
 65 55  1  0
 67 69  2  0
 68 67  1  0
 70 68  1  0
 71 80  2  0
 71 76  1  0
 72 68  1  0
 72 76  1  0
 73 72  1  0
 74 75  1  0
 74 73  1  0
 75 71  1  0
 76 77  2  0
 77 78  1  0
 79 78  2  0
 80 79  1  0
 81 55  1  0
 81 82  1  0
 81 91  1  0
 82 85  1  0
 83 87  1  0
 83 82  1  0
 84 83  2  0
 87 86  1  0
 89 87  1  0
 89 90  1  0
 89 88  1  0
 91 94  1  1
 91 92  1  0
 93 91  1  0
M  ISO  4   6 100  14 100  53 101  54 101
M  END
>  <TORSDO>  (47) 
F 23

>  <SCORE>  (47) 
-13.581

>  <name>  (47) 
46

>  <ligand_id>  (47) 
46

>  <original_smiles>  (47) 
[H]c1c([H])c([H])c2c(c1[H])C([H])([H])C([H])([H])C([H])([H])C2([H])N([H])C(=O)C1([H])N(C(=O)C([H])(N([H])C(=O)C([H])(N([H])C([H])([H])[H])C([H])([H])[H])C(C([H])([H])[H])(C([H])([H])[H])C([H])([H])[H])C([H])([H])c2c([H])c(OC([H])([H])C([H])(N([H])C(=O)C([H])(N([H])C(=O)N3C([H])([H])C([H])([H])C([H])([H])C([H])(n4nc(-c5c([H])c([H])c(Oc6c([H])c([H])c(F)c([H])c6F)c([H])c5[H])c(C(=O)N([H])[H])c4N([H])[H])C3([H])[H])C([H])([H])C([H])([H])C([H])(C([H])([H])[H])C([H])([H])[H])C([H])(C([H])([H])[H])C([H])([H])[H])c([H])c([H])c2C1([H])[H]

>  <smiles>  (47) 
[H]c1c([H])c([H])c2c(c1[H])C([H])([H])C([H])([H])C([H])([H])C2([H])N([H])C(=O)C1([H])N(C(=O)C([H])(N([H])C(=O)C([H])(N([H])C([H])([H])[H])C([H])([H])[H])C(C([H])([H])[H])(C([H])([H])[H])C([H])([H])[H])C([H])([H])c2c([H])c(OC([H])([H])C([H])(N([H])C(=O)C([H])(N([H])C(=O)N3C([H])([H])C([H])([H])C([H])([H])C([H])(n4nc(-c5c([H])c([H])c(Oc6c([H])c([H])c(F)c([H])c6F)c([H])c5[H])c(C(=O)N([H])[H])c4N([H])[H])C3([H])[H])C([H])([H])C([H])([H])C([H])(C([H])([H])[H])C([H])([H])[H])C([H])(C([H])([H])[H])C([H])([H])[H])c([H])c([H])c2C1([H])[H]

$$$$
47:0:0
     RDKit          3D

 98105  0  0  1  0  0  0  0  0999 V2000
  -29.8750  -22.9880   21.1840 C   0  0  0  0  0  2  0  0  0  0  0  0
  -31.8490  -24.0970   19.8320 C   0  0  0  0  0  1  0  0  0  0  0  0
  -30.3190  -23.9490   20.0300 C   0  0  0  0  0  3  0  0  0  0  0  0
  -29.6790  -25.3860   20.0510 C   0  0  0  0  0  3  0  0  0  0  0  0
  -30.0280  -26.1450   21.2750 N   0  0  0  0  0  4  0  0  0  0  0  0
  -29.5760  -25.7820   22.0980 H   0  0  0  0  0  0  0  0  0  0  0  0
  -29.7360  -27.1010   21.1580 H   0  0  0  0  0  0  0  0  0  0  0  0
  -31.0230  -26.1480   21.4250 H   0  0  0  0  0  0  0  0  0  0  0  0
  -28.1600  -25.5360   19.7790 C   0  0  0  0  0  2  0  0  0  0  0  0
  -28.0140  -26.8560   19.2330 O   0  0  0  0  0  0  0  0  0  0  0  0
  -24.4880  -31.7360   23.0080 C   0  0  0  0  0  0  0  0  0  0  0  0
  -26.8220  -27.5240   19.4060 C   0  0  0  0  0  0  0  0  0  0  0  0
  -23.1260  -30.4340   21.4050 C   0  0  0  0  0  3  0  0  0  0  0  0
  -24.4320  -28.9940   19.7540 C   0  0  0  0  0  0  0  0  0  0  0  0
  -25.6190  -30.8220   20.9860 C   0  0  0  0  0  2  0  0  0  0  0  0
  -25.6400  -29.4970   20.2510 C   0  0  0  0  0  0  0  0  0  0  0  0
  -26.8370  -28.7720   20.0670 C   0  0  0  0  0  3  0  0  0  0  0  0
  -25.5970  -27.0270   18.9090 C   0  0  0  0  0  3  0  0  0  0  0  0
  -24.4050  -27.7570   19.0840 C   0  0  0  0  0  3  0  0  0  0  0  0
  -23.1980  -29.8420   19.9740 C   0  0  0  0  0  2  0  0  0  0  0  0
  -24.4340  -31.0100   21.8580 N   0  0  0  0  0  0  0  0  0  0  0  0
  -23.4670  -31.9670   23.6690 O   0  0  0  0  0  0  0  0  0  0  0  0
  -22.5730  -29.3510   22.3580 C   0  0  0  0  0  0  0  0  0  0  0  0
  -21.2570  -29.0940   22.2720 N   0  0  0  0  0  0  0  0  0  0  0  0
  -23.3230  -28.7430   23.1260 O   0  0  0  0  0  0  0  0  0  0  0  0
  -20.7100  -29.6400   21.6220 H   0  0  0  0  0  0  0  0  0  0  0  0
  -18.0070  -27.5930   22.7480 C   0  0  0  0  0  0  0  0  0  0  0  0
  -20.5260  -28.0890   23.0430 C   0  0  0  0  0  3  0  0  0  0  0  0
  -20.7670  -26.6700   22.4790 C   0  0  0  0  0  2  0  0  0  0  0  0
  -19.7120  -26.2400   21.4560 C   0  0  0  0  0  2  0  0  0  0  0  0
  -18.3160  -26.2610   22.0850 C   0  0  0  0  0  2  0  0  0  0  0  0
  -19.0460  -28.4580   23.1830 C   0  0  0  0  0  0  0  0  0  0  0  0
  -18.7050  -29.7010   23.7600 C   0  0  0  0  0  3  0  0  0  0  0  0
  -17.3580  -30.0810   23.9070 C   0  0  0  0  0  3  0  0  0  0  0  0
  -16.3330  -29.2140   23.4900 C   0  0  0  0  0  3  0  0  0  0  0  0
  -16.6590  -27.9720   22.9160 C   0  0  0  0  0  3  0  0  0  0  0  0
  -25.8300  -32.3330   23.5370 C   0  0  0  0  0  3  0  0  0  0  0  0
  -26.4870  -31.4740   24.6880 C   0  0  1  0  0  0  0  0  0  0  0  0
  -25.5190  -31.1460   25.8480 C   0  0  0  0  0  1  0  0  0  0  0  0
  -27.0240  -30.1350   24.1290 C   0  0  0  0  0  1  0  0  0  0  0  0
  -27.7030  -32.2270   25.2760 C   0  0  0  0  0  1  0  0  0  0  0  0
  -25.5530  -33.6980   24.0040 N   0  0  0  0  0  0  0  0  0  0  0  0
  -25.8820  -34.8110   23.3360 C   0  0  0  0  0  0  0  0  0  0  0  0
  -26.5230  -34.7950   22.2820 O   0  0  0  0  0  0  0  0  0  0  0  0
  -24.9860  -33.7860   24.8350 H   0  0  0  0  0  0  0  0  0  0  0  0
  -24.1880  -36.6620   23.1730 C   0  0  0  0  0  1  0  0  0  0  0  0
  -25.4260  -36.1570   23.9320 C   0  0  0  0  0  3  0  0  0  0  0  0
  -27.5830  -36.9120   24.8280 C   0  0  0  0  0  1  0  0  0  0  0  0
  -26.4780  -37.1960   23.9160 N   0  0  0  0  0  0  0  0  0  0  0  0
  -26.0910  -38.1030   24.1600 H   0  0  0  0  0  0  0  0  0  0  0  0
  -30.9350  -22.1160   21.9570 C   0  0  0  0  0  3  0  0  0  0  0  0
  -29.4320  -22.6940   24.0050 C   0  0  0  0  0  1  0  0  0  0  0  0
  -31.6320  -21.6130   24.3990 C   0  0  0  0  0  1  0  0  0  0  0  0
  -30.4630  -21.7230   23.4000 C   0  0  0  0  0  3  0  0  0  0  0  0
  -31.5250  -20.8850   21.1780 C   0  0  0  0  0  2  0  0  0  0  0  0
  -30.5530  -19.7960   20.9040 N   0  0  0  0  0  4  0  0  0  0  0  0
  -29.7430  -19.9850   21.4680 H   0  0  0  0  0  0  0  0  0  0  0  0
  -30.2760  -19.8590   19.9370 H   0  0  0  0  0  0  0  0  0  0  0  0
  -31.0010  -18.4030   21.1970 C   0  0  0  0  0  2  0  0  0  0  0  0
  -29.9990  -17.3650   20.6380 C   0  0  0  0  0  2  0  0  0  0  0  0
  -30.9470  -15.0440   20.7380 C   0  0  0  0  0  0  0  0  0  0  0  0
  -30.8280  -12.8240   19.6760 C   0  0  0  0  0  2  0  0  0  0  0  0
  -29.9420  -12.9470   18.4160 C   0  0  0  0  0  2  0  0  0  0  0  0
  -28.4430  -12.8090   18.7590 C   0  0  0  0  0  2  0  0  0  0  0  0
  -28.0180  -13.6670   19.9800 C   0  0  0  0  0  3  0  0  0  0  0  0
  -29.0150  -13.4790   21.1490 C   0  0  0  0  0  2  0  0  0  0  0  0
  -30.3630  -13.8180   20.6550 N   0  0  0  0  0  0  0  0  0  0  0  0
  -32.0550  -15.3100   20.2700 O   0  0  0  0  0  0  0  0  0  0  0  0
  -30.1200  -16.0030   21.1780 N   0  0  0  0  0  0  0  0  0  0  0  0
  -29.2840  -15.6390   21.6150 H   0  0  0  0  0  0  0  0  0  0  0  0
  -25.5900  -14.2580   20.6210 C   0  0  0  0  0  0  0  0  0  0  0  0
  -24.5020  -13.4740   20.9030 C   0  0  0  0  0  0  0  0  0  0  0  0
  -24.9580  -12.1240   20.8150 C   0  0  0  0  0  0  0  0  0  0  0  0
  -26.6410  -13.3820   20.3850 N   0  0  0  0  0  0  0  0  0  0  0  0
  -26.2580  -12.0910   20.5530 N   0  0  0  0  0  0  0  0  0  0  0  0
  -24.2200  -10.8570   20.9100 C   0  0  0  0  0  0  0  0  0  0  0  0
  -24.5810   -9.8590   21.8420 C   0  0  0  0  0  3  0  0  0  0  0  0
  -23.8440   -8.6580   21.9280 C   0  0  0  0  0  3  0  0  0  0  0  0
  -22.7330   -8.4440   21.0780 C   0  0  0  0  0  0  0  0  0  0  0  0
  -22.3900   -9.4340   20.1380 C   0  0  0  0  0  3  0  0  0  0  0  0
  -23.1290  -10.6250   20.0510 C   0  0  0  0  0  3  0  0  0  0  0  0
  -21.9800   -7.2960   21.0660 O   0  0  0  0  0  0  0  0  0  0  0  0
  -21.7710   -6.5630   22.2050 C   0  0  0  0  0  0  0  0  0  0  0  0
  -21.1610   -7.1210   23.3500 C   0  0  0  0  0  3  0  0  0  0  0  0
  -20.8980   -6.3150   24.4740 C   0  0  0  0  0  3  0  0  0  0  0  0
  -21.2370   -4.9490   24.4540 C   0  0  0  0  0  0  0  0  0  0  0  0
  -21.8420   -4.3890   23.3160 C   0  0  0  0  0  3  0  0  0  0  0  0
  -22.1020   -5.1930   22.1930 C   0  0  0  0  0  0  0  0  0  0  0  0
  -22.6630   -4.6440   21.0880 F   0  0  0  0  0  0  0  0  0  0  0  0
  -20.9810   -4.1700   25.5330 F   0  0  0  0  0  0  0  0  0  0  0  0
  -23.0970  -13.9470   21.1500 C   0  0  0  0  0  0  0  0  0  0  0  0
  -22.3390  -13.2170   21.9620 N   0  0  0  0  0  0  0  0  0  0  0  0
  -22.6770  -14.9950   20.6620 O   0  0  0  0  0  0  0  0  0  0  0  0
  -22.6970  -12.3720   22.3810 H   0  0  0  0  0  0  0  0  0  0  0  0
  -21.3950  -13.5100   22.1680 H   0  0  0  0  0  0  0  0  0  0  0  0
  -25.7710  -15.6340   20.5270 N   0  0  0  0  0  0  0  0  0  0  0  0
  -25.0110  -16.2920   20.6630 H   0  0  0  0  0  0  0  0  0  0  0  0
  -26.6280  -16.0800   20.2290 H   0  0  0  0  0  0  0  0  0  0  0  0
  1 51  1  0
  3  2  1  0
  3  4  1  0
  3  1  1  0
  4  9  1  0
  4  5  1  0
  5  8  1  0
  5  6  1  0
  7  5  1  0
 10 12  1  0
 10  9  1  0
 11 22  2  0
 12 17  1  0
 13 21  1  0
 13 23  1  0
 14 20  1  0
 14 16  1  0
 15 21  1  0
 16 15  1  0
 17 16  2  0
 18 19  1  0
 18 12  2  0
 19 14  2  0
 20 13  1  0
 21 11  1  0
 23 25  2  0
 24 23  1  0
 26 24  1  0
 27 36  2  0
 27 32  1  0
 28 24  1  0
 28 32  1  0
 29 28  1  0
 30 31  1  0
 30 29  1  0
 31 27  1  0
 32 33  2  0
 33 34  1  0
 35 34  2  0
 36 35  1  0
 37 11  1  0
 37 42  1  0
 37 38  1  0
 38 41  1  1
 38 39  1  0
 40 38  1  0
 42 45  1  0
 43 47  1  0
 43 42  1  0
 44 43  2  0
 47 46  1  0
 49 47  1  0
 49 50  1  0
 49 48  1  0
 51 55  1  0
 51 54  1  0
 54 52  1  0
 54 53  1  0
 56 55  1  0
 56 59  1  0
 56 57  1  0
 58 56  1  0
 60 69  1  0
 60 59  1  0
 61 69  1  0
 62 67  1  0
 63 64  1  0
 63 62  1  0
 65 64  1  0
 65 74  1  0
 65 66  1  0
 67 61  1  0
 67 66  1  0
 68 61  2  0
 69 70  1  0
 71 72  2  0
 72 91  1  0
 73 72  1  0
 73 76  1  0
 74 75  1  0
 74 71  1  0
 75 73  2  0
 76 77  1  0
 77 78  2  0
 79 78  1  0
 80 79  2  0
 81 80  1  0
 81 76  2  0
 82 79  1  0
 82 83  1  0
 83 84  1  0
 84 85  2  0
 86 85  1  0
 86 90  1  0
 87 86  2  0
 88 83  2  0
 88 87  1  0
 89 88  1  0
 91 92  1  0
 92 95  1  0
 92 94  1  0
 93 91  2  0
 96 71  1  0
 96 97  1  0
 98 96  1  0
M  ISO  4   9 101  10 101  61 100  69 100
M  END
>  <TORSDO>  (48) 
F 26

>  <SCORE>  (48) 
-11.215

>  <name>  (48) 
47

>  <ligand_id>  (48) 
47

>  <original_smiles>  (48) 
[H]c1c([H])c([H])c2c(c1[H])C([H])([H])C([H])([H])C([H])([H])C2([H])N([H])C(=O)C1([H])N(C(=O)C([H])(N([H])C(=O)C([H])(N([H])C([H])([H])[H])C([H])([H])[H])C(C([H])([H])[H])(C([H])([H])[H])C([H])([H])[H])C([H])([H])c2c([H])c(OC([H])([H])C([H])(C([H])(C([H])([H])[H])C([H])([H])C([H])(C([H])(C([H])([H])[H])C([H])([H])[H])C([H])([H])[N+]([H])([H])C([H])([H])C([H])([H])N([H])C(=O)N3C([H])([H])C([H])([H])C([H])([H])C([H])(n4nc(-c5c([H])c([H])c(Oc6c([H])c([H])c(F)c([H])c6F)c([H])c5[H])c(C(=O)N([H])[H])c4N([H])[H])C3([H])[H])[N+]([H])([H])[H])c([H])c([H])c2C1([H])[H]

>  <smiles>  (48) 
[H]c1c([H])c([H])c2c(c1[H])C([H])([H])C([H])([H])C([H])([H])C2([H])N([H])C(=O)C1([H])N(C(=O)C([H])(N([H])C(=O)C([H])(N([H])C([H])([H])[H])C([H])([H])[H])C(C([H])([H])[H])(C([H])([H])[H])C([H])([H])[H])C([H])([H])c2c([H])c(OC([H])([H])C([H])(C([H])(C([H])([H])[H])C([H])([H])C([H])(C([H])(C([H])([H])[H])C([H])([H])[H])C([H])([H])[N+]([H])([H])C([H])([H])C([H])([H])N([H])C(=O)N3C([H])([H])C([H])([H])C([H])([H])C([H])(n4nc(-c5c([H])c([H])c(Oc6c([H])c([H])c(F)c([H])c6F)c([H])c5[H])c(C(=O)N([H])[H])c4N([H])[H])C3([H])[H])[N+]([H])([H])[H])c([H])c([H])c2C1([H])[H]

$$$$
48:0:0
     RDKit          3D

 97104  0  0  1  0  0  0  0  0999 V2000
  -33.3920  -21.8870   18.3740 C   0  0  0  0  0  3  0  0  0  0  0  0
  -34.2490  -22.5270   17.5560 C   0  0  0  0  0  3  0  0  0  0  0  0
  -32.5110  -20.7000   17.9870 C   0  0  0  0  0  2  0  0  0  0  0  0
  -31.0190  -20.9290   18.3330 C   0  0  0  0  0  2  0  0  0  0  0  0
  -29.5530  -20.2470   16.3510 C   0  0  0  0  0  1  0  0  0  0  0  0
  -30.1300  -21.4330   17.1510 C   0  0  0  0  0  3  0  0  0  0  0  0
  -28.9860  -22.4090   17.6170 C   0  0  0  0  0  3  0  0  0  0  0  0
  -29.8820  -24.7440   17.0700 C   0  0  0  0  0  0  0  0  0  0  0  0
  -29.9710  -27.1600   16.5650 C   0  0  0  0  0  2  0  0  0  0  0  0
  -28.6740  -27.8240   17.0700 C   0  0  0  0  0  2  0  0  0  0  0  0
  -27.5280  -27.7060   16.0390 C   0  0  0  0  0  2  0  0  0  0  0  0
  -27.3820  -26.2700   15.4740 C   0  0  0  0  0  3  0  0  0  0  0  0
  -28.7540  -25.7140   15.0460 C   0  0  0  0  0  2  0  0  0  0  0  0
  -29.6410  -25.7760   16.2150 N   0  0  0  0  0  0  0  0  0  0  0  0
  -30.7040  -24.8150   17.9870 O   0  0  0  0  0  0  0  0  0  0  0  0
  -29.0380  -23.7080   16.9300 N   0  0  0  0  0  0  0  0  0  0  0  0
  -28.3710  -23.8040   16.1790 H   0  0  0  0  0  0  0  0  0  0  0  0
  -25.2510  -26.9440   14.2040 C   0  0  0  0  0  0  0  0  0  0  0  0
  -24.7540  -26.5660   12.9840 C   0  0  0  0  0  0  0  0  0  0  0  0
  -25.6750  -25.6050   12.4680 C   0  0  0  0  0  0  0  0  0  0  0  0
  -26.4180  -26.2160   14.3820 N   0  0  0  0  0  0  0  0  0  0  0  0
  -26.6390  -25.3640   13.3490 N   0  0  0  0  0  0  0  0  0  0  0  0
  -25.7240  -24.9410   11.1570 C   0  0  0  0  0  0  0  0  0  0  0  0
  -26.0610  -23.5760   11.0380 C   0  0  0  0  0  3  0  0  0  0  0  0
  -26.0880  -22.9510    9.7730 C   0  0  0  0  0  3  0  0  0  0  0  0
  -25.7810  -23.6940    8.6060 C   0  0  0  0  0  0  0  0  0  0  0  0
  -25.4610  -25.0600    8.7300 C   0  0  0  0  0  3  0  0  0  0  0  0
  -25.4350  -25.6780    9.9910 C   0  0  0  0  0  3  0  0  0  0  0  0
  -25.8010  -23.1740    7.3350 O   0  0  0  0  0  0  0  0  0  0  0  0
  -24.6720  -23.1160    6.5610 C   0  0  0  0  0  0  0  0  0  0  0  0
  -24.5080  -23.9300    5.4200 C   0  0  0  0  0  3  0  0  0  0  0  0
  -23.3620  -23.7890    4.6130 C   0  0  0  0  0  3  0  0  0  0  0  0
  -22.3840  -22.8270    4.9420 C   0  0  0  0  0  0  0  0  0  0  0  0
  -22.5510  -22.0110    6.0740 C   0  0  0  0  0  3  0  0  0  0  0  0
  -23.6940  -22.1530    6.8790 C   0  0  0  0  0  0  0  0  0  0  0  0
  -23.8630  -21.3520    7.9570 F   0  0  0  0  0  0  0  0  0  0  0  0
  -21.2830  -22.6790    4.1660 F   0  0  0  0  0  0  0  0  0  0  0  0
  -23.5580  -27.1410   12.2900 C   0  0  0  0  0  0  0  0  0  0  0  0
  -22.4830  -26.3670   12.1950 N   0  0  0  0  0  0  0  0  0  0  0  0
  -23.5590  -28.2950   11.8640 O   0  0  0  0  0  0  0  0  0  0  0  0
  -22.4850  -25.4290   12.5700 H   0  0  0  0  0  0  0  0  0  0  0  0
  -21.6510  -26.7150   11.7440 H   0  0  0  0  0  0  0  0  0  0  0  0
  -24.8120  -27.8470   15.1630 N   0  0  0  0  0  0  0  0  0  0  0  0
  -23.9820  -28.4050   15.0220 H   0  0  0  0  0  0  0  0  0  0  0  0
  -25.3540  -28.1390   15.9670 H   0  0  0  0  0  0  0  0  0  0  0  0
  -28.9570  -22.7160   19.1440 C   0  0  0  0  0  3  0  0  0  0  0  0
  -27.6700  -23.4040   19.6690 C   0  0  0  0  0  3  0  0  0  0  0  0
  -28.3060  -24.4960   21.9200 C   0  0  0  0  0  1  0  0  0  0  0  0
  -26.0030  -23.5400   21.5800 C   0  0  0  0  0  1  0  0  0  0  0  0
  -27.4900  -23.3950   21.2130 C   0  0  0  0  0  3  0  0  0  0  0  0
  -35.0890  -23.7650   17.9020 C   0  0  0  0  0  3  0  0  0  0  0  0
  -36.2120  -23.3450   18.7840 N   0  0  0  0  0  4  0  0  0  0  0  0
  -35.9300  -23.0460   19.7020 H   0  0  0  0  0  0  0  0  0  0  0  0
  -36.9050  -24.0750   18.8750 H   0  0  0  0  0  0  0  0  0  0  0  0
  -36.6910  -22.5620   18.3740 H   0  0  0  0  0  0  0  0  0  0  0  0
  -34.1500  -24.8700   18.5030 C   0  0  0  0  0  2  0  0  0  0  0  0
  -34.7030  -26.1850   18.6930 O   0  0  0  0  0  0  0  0  0  0  0  0
  -33.3150  -27.9760   11.9710 C   0  0  0  0  0  0  0  0  0  0  0  0
  -34.3760  -27.2300   17.8510 C   0  0  0  0  0  0  0  0  0  0  0  0
  -33.7470  -29.8650   13.5180 C   0  0  0  0  0  3  0  0  0  0  0  0
  -33.7540  -29.2830   16.0090 C   0  0  0  0  0  0  0  0  0  0  0  0
  -32.7460  -27.6790   14.3820 C   0  0  0  0  0  2  0  0  0  0  0  0
  -33.4380  -27.9570   15.7030 C   0  0  0  0  0  0  0  0  0  0  0  0
  -33.7540  -26.9260   16.6190 C   0  0  0  0  0  3  0  0  0  0  0  0
  -34.6390  -28.5830   18.1610 C   0  0  0  0  0  3  0  0  0  0  0  0
  -34.3380  -29.6030   17.2440 C   0  0  0  0  0  3  0  0  0  0  0  0
  -33.4230  -30.3300   14.9670 C   0  0  0  0  0  2  0  0  0  0  0  0
  -33.2880  -28.4630   13.2470 N   0  0  0  0  0  0  0  0  0  0  0  0
  -33.6830  -28.6820   11.0210 O   0  0  0  0  0  0  0  0  0  0  0  0
  -35.2600  -30.0690   13.2450 C   0  0  0  0  0  0  0  0  0  0  0  0
  -35.5830  -30.7750   12.1500 N   0  0  0  0  0  0  0  0  0  0  0  0
  -36.1080  -29.6230   14.0200 O   0  0  0  0  0  0  0  0  0  0  0  0
  -34.8330  -31.0960   11.5550 H   0  0  0  0  0  0  0  0  0  0  0  0
  -37.6520  -31.4080    9.2530 C   0  0  0  0  0  0  0  0  0  0  0  0
  -36.9350  -31.1310   11.7220 C   0  0  0  0  0  3  0  0  0  0  0  0
  -37.1850  -32.6520   11.8550 C   0  0  0  0  0  2  0  0  0  0  0  0
  -36.8820  -33.4260   10.5680 C   0  0  0  0  0  2  0  0  0  0  0  0
  -37.7490  -32.9150    9.4160 C   0  0  0  0  0  2  0  0  0  0  0  0
  -37.2550  -30.5700   10.3300 C   0  0  0  0  0  0  0  0  0  0  0  0
  -37.1440  -29.1800   10.1130 C   0  0  0  0  0  3  0  0  0  0  0  0
  -37.4200  -28.6250    8.8480 C   0  0  0  0  0  3  0  0  0  0  0  0
  -37.8260  -29.4550    7.7900 C   0  0  0  0  0  3  0  0  0  0  0  0
  -37.9480  -30.8390    7.9960 C   0  0  0  0  0  3  0  0  0  0  0  0
  -32.8680  -26.5150   11.6430 C   0  0  0  0  0  3  0  0  0  0  0  0
  -34.0750  -25.5060   11.5170 C   0  0  1  0  0  0  0  0  0  0  0  0
  -34.4110  -25.1060   10.0600 C   0  0  0  0  0  1  0  0  0  0  0  0
  -35.3500  -26.1090   12.1490 C   0  0  0  0  0  1  0  0  0  0  0  0
  -33.7610  -24.2120   12.3080 C   0  0  0  0  0  1  0  0  0  0  0  0
  -32.0890  -26.5540   10.3990 N   0  0  0  0  0  0  0  0  0  0  0  0
  -30.7520  -26.6060   10.3400 C   0  0  0  0  0  0  0  0  0  0  0  0
  -30.0340  -26.5530   11.3460 O   0  0  0  0  0  0  0  0  0  0  0  0
  -32.6130  -26.6420    9.5380 H   0  0  0  0  0  0  0  0  0  0  0  0
  -29.6850  -28.2000    8.7140 C   0  0  0  0  0  1  0  0  0  0  0  0
  -30.1060  -26.7410    8.9470 C   0  0  0  0  0  3  0  0  0  0  0  0
  -29.2830  -24.5870    8.1030 C   0  0  0  0  0  1  0  0  0  0  0  0
  -28.9410  -25.8520    8.7500 N   0  0  0  0  0  0  0  0  0  0  0  0
  -28.2300  -26.3110    8.1880 H   0  0  0  0  0  0  0  0  0  0  0  0
  2  1  2  0
  3  4  1  0
  3  1  1  0
  6  5  1  0
  6  7  1  0
  6  4  1  0
  7 46  1  0
  8 15  2  0
  9 10  1  0
 11 10  1  0
 12 21  1  0
 12 11  1  0
 13 12  1  0
 13 14  1  0
 14  9  1  0
 14  8  1  0
 16  8  1  0
 16  7  1  0
 17 16  1  0
 18 21  1  0
 18 43  1  0
 19 18  2  0
 20 19  1  0
 20 22  2  0
 22 21  1  0
 23 20  1  0
 24 23  1  0
 25 24  2  0
 26 27  2  0
 26 25  1  0
 27 28  1  0
 28 23  2  0
 29 26  1  0
 30 35  1  0
 30 29  1  0
 31 30  2  0
 32 33  2  0
 32 31  1  0
 33 34  1  0
 34 35  2  0
 35 36  1  0
 37 33  1  0
 38 19  1  0
 39 38  1  0
 39 41  1  0
 40 38  2  0
 42 39  1  0
 43 45  1  0
 44 43  1  0
 46 47  2  0
 47 50  1  0
 50 49  1  0
 50 48  1  0
 51  2  1  0
 51 56  1  0
 51 52  1  0
 52 54  1  0
 52 53  1  0
 55 52  1  0
 56 57  1  0
 58 68  1  0
 59 65  1  0
 59 57  1  0
 60 70  1  0
 60 67  1  0
 61 66  1  0
 62 63  1  0
 63 61  2  0
 63 64  1  0
 64 59  2  0
 66 65  2  0
 67 61  1  0
 68 60  1  0
 68 62  1  0
 69 58  2  0
 70 72  2  0
 71 70  1  0
 73 71  1  0
 74 78  1  0
 74 79  1  0
 75 76  1  0
 75 71  1  0
 77 76  1  0
 78 77  1  0
 79 75  1  0
 80 79  2  0
 81 80  1  0
 82 83  1  0
 82 81  2  0
 83 74  2  0
 84 58  1  0
 85 84  1  0
 85 87  1  1
 85 88  1  0
 86 85  1  0
 89 84  1  0
 90 89  1  0
 90 91  2  0
 92 89  1  0
 94 93  1  0
 94 90  1  0
 95 96  1  0
 96 94  1  0
 97 96  1  0
M  ISO  4   8 100  16 100  56 101  57 101
M  END
>  <TORSDO>  (49) 
F 26

>  <SCORE>  (49) 
-2.950

>  <name>  (49) 
48

>  <ligand_id>  (49) 
48

>  <original_smiles>  (49) 
[H]C(=C([H])C([H])(C([H])([H])Oc1c([H])c([H])c2c(c1[H])C([H])([H])N(C(=O)C([H])(N([H])C(=O)C([H])(N([H])C([H])([H])[H])C([H])([H])[H])C(C([H])([H])[H])(C([H])([H])[H])C([H])([H])[H])C([H])(C(=O)N([H])C1([H])c3c([H])c([H])c([H])c([H])c3C([H])([H])C([H])([H])C1([H])[H])C2([H])[H])[N+]([H])([H])[H])C([H])([H])C([H])([H])C([H])(C([H])([H])[H])C([H])(N([H])C(=O)N1C([H])([H])C([H])([H])C([H])([H])C([H])(n2nc(-c3c([H])c([H])c(Oc4c([H])c([H])c(F)c([H])c4F)c([H])c3[H])c(C(=O)N([H])[H])c2N([H])[H])C1([H])[H])C([H])([H])C([H])([H])C([H])(C([H])([H])[H])C([H])([H])[H]

>  <smiles>  (49) 
[H]C(=C([H])C([H])(C([H])([H])Oc1c([H])c([H])c2c(c1[H])C([H])([H])N(C(=O)C([H])(N([H])C(=O)C([H])(N([H])C([H])([H])[H])C([H])([H])[H])C(C([H])([H])[H])(C([H])([H])[H])C([H])([H])[H])C([H])(C(=O)N([H])C1([H])c3c([H])c([H])c([H])c([H])c3C([H])([H])C([H])([H])C1([H])[H])C2([H])[H])[N+]([H])([H])[H])C([H])([H])C([H])([H])C([H])(C([H])([H])[H])C([H])(N([H])C(=O)N1C([H])([H])C([H])([H])C([H])([H])C([H])(n2nc(-c3c([H])c([H])c(Oc4c([H])c([H])c(F)c([H])c4F)c([H])c3[H])c(C(=O)N([H])[H])c2N([H])[H])C1([H])[H])C([H])([H])C([H])([H])C([H])(C([H])([H])[H])C([H])([H])[H]

$$$$
49:0:0
     RDKit          3D

105113  0  0  1  0  0  0  0  0999 V2000
  -30.2270  -18.0730   20.3340 C   0  0  0  0  0  3  0  0  0  0  0  0
  -30.5800  -15.1780   20.3030 C   0  0  0  0  0  0  0  0  0  0  0  0
  -30.4050  -12.8170   19.2660 C   0  0  0  0  0  2  0  0  0  0  0  0
  -29.4570  -12.7720   18.0410 C   0  0  0  0  0  2  0  0  0  0  0  0
  -28.0020  -12.5570   18.4880 C   0  0  0  0  0  2  0  0  0  0  0  0
  -27.6280  -13.4570   19.6920 C   0  0  0  0  0  3  0  0  0  0  0  0
  -28.6950  -13.4550   20.8060 C   0  0  0  0  0  2  0  0  0  0  0  0
  -29.9470  -13.9160   20.1890 N   0  0  0  0  0  0  0  0  0  0  0  0
  -31.7870  -15.1490   20.0310 O   0  0  0  0  0  0  0  0  0  0  0  0
  -29.8780  -16.4610   20.5030 N   0  0  0  0  0  0  0  0  0  0  0  0
  -28.9070  -16.2980   20.7270 H   0  0  0  0  0  0  0  0  0  0  0  0
  -25.2740  -14.0740   20.4450 C   0  0  0  0  0  0  0  0  0  0  0  0
  -24.1980  -13.3230   20.8250 C   0  0  0  0  0  0  0  0  0  0  0  0
  -24.6360  -11.9630   20.8060 C   0  0  0  0  0  0  0  0  0  0  0  0
  -26.2960  -13.1740   20.2050 N   0  0  0  0  0  0  0  0  0  0  0  0
  -25.9260  -11.9000   20.4910 N   0  0  0  0  0  0  0  0  0  0  0  0
  -23.8830  -10.7180   21.0060 C   0  0  0  0  0  0  0  0  0  0  0  0
  -24.2800   -9.7590   21.9640 C   0  0  0  0  0  3  0  0  0  0  0  0
  -23.5270   -8.5800   22.1520 C   0  0  0  0  0  3  0  0  0  0  0  0
  -22.3610   -8.3520   21.3820 C   0  0  0  0  0  0  0  0  0  0  0  0
  -21.9840   -9.2990   20.4120 C   0  0  0  0  0  3  0  0  0  0  0  0
  -22.7390  -10.4690   20.2230 C   0  0  0  0  0  3  0  0  0  0  0  0
  -21.5800   -7.2260   21.4790 O   0  0  0  0  0  0  0  0  0  0  0  0
  -21.4880   -6.5140   22.6480 C   0  0  0  0  0  0  0  0  0  0  0  0
  -21.0330   -7.1050   23.8470 C   0  0  0  0  0  3  0  0  0  0  0  0
  -20.8860   -6.3200   25.0080 C   0  0  0  0  0  3  0  0  0  0  0  0
  -21.1830   -4.9450   24.9700 C   0  0  0  0  0  0  0  0  0  0  0  0
  -21.6270   -4.3530   23.7770 C   0  0  0  0  0  3  0  0  0  0  0  0
  -21.7770   -5.1350   22.6170 C   0  0  0  0  0  0  0  0  0  0  0  0
  -22.1880   -4.5540   21.4640 F   0  0  0  0  0  0  0  0  0  0  0  0
  -21.0330   -4.1890   26.0840 F   0  0  0  0  0  0  0  0  0  0  0  0
  -22.8110  -13.8320   21.0880 C   0  0  0  0  0  0  0  0  0  0  0  0
  -22.0670  -13.1610   21.9620 N   0  0  0  0  0  0  0  0  0  0  0  0
  -22.3970  -14.8610   20.5550 O   0  0  0  0  0  0  0  0  0  0  0  0
  -22.4140  -12.3280   22.4140 H   0  0  0  0  0  0  0  0  0  0  0  0
  -21.1390  -13.4870   22.1850 H   0  0  0  0  0  0  0  0  0  0  0  0
  -25.4640  -15.4390   20.2520 N   0  0  0  0  0  0  0  0  0  0  0  0
  -24.7010  -16.1030   20.3390 H   0  0  0  0  0  0  0  0  0  0  0  0
  -26.2970  -15.8410   19.8470 H   0  0  0  0  0  0  0  0  0  0  0  0
  -30.8140  -18.1390   18.9030 C   0  0  0  0  0  2  0  0  0  0  0  0
  -31.6190  -19.3940   18.5020 C   0  0  0  0  0  2  0  0  0  0  0  0
  -31.5210  -19.6780   16.9910 C   0  0  0  0  0  2  0  0  0  0  0  0
  -29.4980  -21.1690   16.7610 C   0  0  0  0  0  0  0  0  0  0  0  0
  -30.1380  -22.2510   17.2400 N   0  0  0  0  0  4  0  0  0  0  0  0
  -30.1360  -19.9920   16.6020 N   0  0  0  0  0  0  0  0  0  0  0  0
  -29.6630  -23.1410   17.3040 H   0  0  0  0  0  0  0  0  0  0  0  0
  -31.1180  -22.2490   17.4760 H   0  0  0  0  0  0  0  0  0  0  0  0
  -29.6240  -19.2320   16.1700 H   0  0  0  0  0  0  0  0  0  0  0  0
  -28.0390  -21.2660   16.4050 C   0  0  0  0  0  2  0  0  0  0  0  0
  -24.7690  -22.3280   19.1920 C   0  0  0  0  0  2  0  0  0  0  0  0
  -26.1780  -22.8450   19.5050 C   0  0  0  0  0  2  0  0  0  0  0  0
  -24.8280  -20.8970   18.6390 C   0  0  0  0  0  2  0  0  0  0  0  0
  -27.0890  -22.7610   18.2700 C   0  0  0  0  0  2  0  0  0  0  0  0
  -25.7340  -20.8150   17.3980 C   0  0  0  0  0  2  0  0  0  0  0  0
  -27.1620  -21.3340   17.6780 C   0  0  0  0  0  3  0  0  0  0  0  0
  -29.1530  -19.4920   20.4680 C   0  0  0  0  0  3  0  0  0  0  0  0
  -28.0230  -18.8720   21.0540 O   0  0  0  0  0  0  0  0  0  0  0  0
  -27.7030  -18.2130   20.4490 H   0  0  0  0  0  0  0  0  0  0  0  0
  -29.2080  -21.1290   21.2290 C   0  0  0  0  0  3  0  0  0  0  0  0
  -31.5320  -21.1140   22.3510 C   0  0  0  0  0  1  0  0  0  0  0  0
  -29.5220  -21.9170   23.6620 C   0  0  0  0  0  1  0  0  0  0  0  0
  -30.0130  -20.9800   22.5460 C   0  0  0  0  0  3  0  0  0  0  0  0
  -29.2810  -22.8340   20.6970 C   0  0  0  0  0  3  0  0  0  0  0  0
  -28.4240  -24.3120   21.2140 C   0  0  0  0  0  3  0  0  0  0  0  0
  -28.6400  -25.9180   21.0340 O   0  0  0  0  0  0  0  0  0  0  0  0
  -24.6630  -31.8500   23.4190 C   0  0  0  0  0  0  0  0  0  0  0  0
  -27.5860  -26.9450   20.8870 C   0  0  0  0  0  0  0  0  0  0  0  0
  -23.6480  -30.3350   21.7640 C   0  0  0  0  0  3  0  0  0  0  0  0
  -25.2500  -28.7150   20.5520 C   0  0  0  0  0  0  0  0  0  0  0  0
  -26.2040  -30.6330   21.8130 C   0  0  0  0  0  2  0  0  0  0  0  0
  -26.3680  -29.1990   21.2420 C   0  0  0  0  0  0  0  0  0  0  0  0
  -27.5390  -28.3320   21.3790 C   0  0  0  0  0  3  0  0  0  0  0  0
  -26.4370  -26.5960   20.1460 C   0  0  0  0  0  3  0  0  0  0  0  0
  -25.3070  -27.4330   19.9840 C   0  0  0  0  0  3  0  0  0  0  0  0
  -24.0070  -29.5940   20.4480 C   0  0  0  0  0  2  0  0  0  0  0  0
  -24.8540  -30.9700   22.3860 N   0  0  0  0  0  0  0  0  0  0  0  0
  -23.5280  -32.1310   23.8350 O   0  0  0  0  0  0  0  0  0  0  0  0
  -22.9070  -29.3670   22.7210 C   0  0  0  0  0  0  0  0  0  0  0  0
  -21.5870  -29.1900   22.5230 N   0  0  0  0  0  0  0  0  0  0  0  0
  -23.5260  -28.7760   23.6090 O   0  0  0  0  0  0  0  0  0  0  0  0
  -21.1430  -29.7160   21.7840 H   0  0  0  0  0  0  0  0  0  0  0  0
  -18.1710  -28.0480   22.9410 C   0  0  0  0  0  0  0  0  0  0  0  0
  -20.7260  -28.2730   23.2760 C   0  0  0  0  0  3  0  0  0  0  0  0
  -20.8200  -26.8350   22.7160 C   0  0  0  0  0  2  0  0  0  0  0  0
  -19.7440  -26.5230   21.6720 C   0  0  0  0  0  2  0  0  0  0  0  0
  -18.3450  -26.6940   22.2750 C   0  0  0  0  0  2  0  0  0  0  0  0
  -19.2880  -28.7960   23.3970 C   0  0  0  0  0  0  0  0  0  0  0  0
  -19.0740  -30.0630   23.9820 C   0  0  0  0  0  3  0  0  0  0  0  0
  -17.7720  -30.5850   24.1100 C   0  0  0  0  0  3  0  0  0  0  0  0
  -16.6680  -29.8340   23.6710 C   0  0  0  0  0  3  0  0  0  0  0  0
  -16.8680  -28.5680   23.0920 C   0  0  0  0  0  3  0  0  0  0  0  0
  -25.8630  -32.5600   24.1190 C   0  0  0  0  0  3  0  0  0  0  0  0
  -25.5010  -33.9750   24.3110 N   0  0  0  0  0  0  0  0  0  0  0  0
  -25.8650  -34.9770   23.5000 C   0  0  0  0  0  0  0  0  0  0  0  0
  -26.6040  -34.8120   22.5280 O   0  0  0  0  0  0  0  0  0  0  0  0
  -24.8440  -34.1750   25.0500 H   0  0  0  0  0  0  0  0  0  0  0  0
  -24.1140  -36.6930   22.9260 C   0  0  0  0  0  1  0  0  0  0  0  0
  -25.3270  -36.3860   23.8190 C   0  0  0  0  0  3  0  0  0  0  0  0
  -27.3950  -37.4030   24.6710 C   0  0  0  0  0  1  0  0  0  0  0  0
  -26.3390  -37.4530   23.6620 N   0  0  0  0  0  0  0  0  0  0  0  0
  -25.9060  -38.3710   23.7080 H   0  0  0  0  0  0  0  0  0  0  0  0
  -26.2500  -31.9030   25.5020 C   0  0  1  0  0  0  0  0  0  0  0  0
  -25.0470  -31.7220   26.4580 C   0  0  0  0  0  1  0  0  0  0  0  0
  -26.8970  -30.5140   25.2960 C   0  0  0  0  0  1  0  0  0  0  0  0
  -27.3090  -32.7780   26.2160 C   0  0  0  0  0  1  0  0  0  0  0  0
  1 40  1  0
  1 56  1  0
  1 10  1  0
  2 10  1  0
  3  8  1  0
  4  5  1  0
  4  3  1  0
  6  5  1  0
  6 15  1  0
  6  7  1  0
  8  2  1  0
  8  7  1  0
  9  2  2  0
 10 11  1  0
 12 13  2  0
 13 32  1  0
 14 13  1  0
 14 17  1  0
 15 12  1  0
 15 16  1  0
 16 14  2  0
 17 18  1  0
 18 19  2  0
 20 23  1  0
 20 19  1  0
 21 20  2  0
 22 21  1  0
 22 17  2  0
 23 24  1  0
 24 25  1  0
 25 26  2  0
 27 26  1  0
 27 31  1  0
 28 27  2  0
 29 24  2  0
 29 28  1  0
 30 29  1  0
 32 33  1  0
 33 36  1  0
 33 35  1  0
 34 32  2  0
 37 38  1  0
 37 12  1  0
 39 37  1  0
 41 40  1  0
 42 41  1  0
 43 44  2  0
 44 46  1  0
 44 47  1  0
 45 43  1  0
 45 42  1  0
 48 45  1  0
 49 43  1  0
 49 55  1  0
 50 51  1  0
 52 50  1  0
 53 51  1  0
 54 55  1  0
 54 52  1  0
 55 53  1  0
 56 57  1  0
 56 59  1  0
 58 57  1  0
 59 63  1  0
 59 62  1  0
 60 62  1  0
 62 61  1  0
 63 64  2  0
 65 64  1  0
 66 77  2  0
 67 65  1  0
 67 72  1  0
 68 76  1  0
 68 78  1  0
 69 71  1  0
 70 76  1  0
 71 72  2  0
 71 70  1  0
 73 67  2  0
 74 73  1  0
 74 69  2  0
 75 69  1  0
 75 68  1  0
 76 66  1  0
 78 80  2  0
 79 78  1  0
 81 79  1  0
 82 91  2  0
 82 87  1  0
 83 79  1  0
 83 87  1  0
 84 83  1  0
 85 86  1  0
 85 84  1  0
 86 82  1  0
 87 88  2  0
 88 89  1  0
 90 89  2  0
 91 90  1  0
 92 66  1  0
 92 93  1  0
 92102  1  0
 93 96  1  0
 94 98  1  0
 94 93  1  0
 95 94  2  0
 98 97  1  0
100101  1  0
100 98  1  0
100 99  1  0
102105  1  1
102103  1  0
104102  1  0
M  ISO  4   2 100  10 100  64 101  65 101
M  END
>  <TORSDO>  (50) 
F 28

>  <SCORE>  (50) 
-11.954

>  <name>  (50) 
49

>  <ligand_id>  (50) 
49

>  <original_smiles>  (50) 
[H]OC([H])(C([H])(N([H])C(=O)N1C([H])([H])C([H])([H])C([H])([H])C([H])(n2nc(-c3c([H])c([H])c(Oc4c([H])c([H])c(F)c([H])c4F)c([H])c3[H])c(C(=O)N([H])[H])c2N([H])[H])C1([H])[H])C([H])([H])C([H])([H])C([H])([H])[N+]([H])=C(N([H])[H])C([H])([H])C1([H])C([H])([H])C([H])([H])C([H])([H])C([H])([H])C1([H])[H])C([H])(C([H])([H])C([H])([H])Oc1c([H])c([H])c2c(c1[H])C([H])([H])N(C(=O)C([H])(N([H])C(=O)C([H])(N([H])C([H])([H])[H])C([H])([H])[H])C(C([H])([H])[H])(C([H])([H])[H])C([H])([H])[H])C([H])(C(=O)N([H])C1([H])c3c([H])c([H])c([H])c([H])c3C([H])([H])C([H])([H])C1([H])[H])C2([H])[H])C([H])(C([H])([H])[H])C([H])([H])[H]

>  <smiles>  (50) 
[H]OC([H])(C([H])(N([H])C(=O)N1C([H])([H])C([H])([H])C([H])([H])C([H])(n2nc(-c3c([H])c([H])c(Oc4c([H])c([H])c(F)c([H])c4F)c([H])c3[H])c(C(=O)N([H])[H])c2N([H])[H])C1([H])[H])C([H])([H])C([H])([H])C([H])([H])[N+]([H])=C(N([H])[H])C([H])([H])C1([H])C([H])([H])C([H])([H])C([H])([H])C([H])([H])C1([H])[H])C([H])(C([H])([H])C([H])([H])Oc1c([H])c([H])c2c(c1[H])C([H])([H])N(C(=O)C([H])(N([H])C(=O)C([H])(N([H])C([H])([H])[H])C([H])([H])[H])C(C([H])([H])[H])(C([H])([H])[H])C([H])([H])[H])C([H])(C(=O)N([H])C1([H])c3c([H])c([H])c([H])c([H])c3C([H])([H])C([H])([H])C1([H])[H])C2([H])[H])C([H])(C([H])([H])[H])C([H])([H])[H]

$$$$
50:0:0
     RDKit          3D

 92100  0  0  1  0  0  0  0  0999 V2000
  -29.3590  -19.1620   20.3960 C   0  0  0  0  0  0  0  0  0  0  0  0
  -28.3240  -21.5360   17.7010 C   0  0  0  0  0  2  0  0  0  0  0  0
  -27.3290  -21.7420   18.8280 C   0  0  0  0  0  2  0  0  0  0  0  0
  -29.1650  -20.3750   18.2280 C   0  0  0  0  0  2  0  0  0  0  0  0
  -28.2620  -21.7170   20.0440 C   0  0  0  0  0  3  0  0  0  0  0  0
  -29.1300  -20.4100   19.7030 N   0  0  0  0  0  0  0  0  0  0  0  0
  -28.8170  -19.0450   21.4970 O   0  0  0  0  0  0  0  0  0  0  0  0
  -31.5820  -18.0630   20.8410 C   0  0  0  0  0  1  0  0  0  0  0  0
  -30.7850  -17.8530   18.5030 C   0  0  0  0  0  1  0  0  0  0  0  0
  -30.3180  -17.8210   19.9780 C   0  0  2  0  0  0  0  0  0  0  0  0
  -30.6040  -15.0570   20.0340 C   0  0  0  0  0  0  0  0  0  0  0  0
  -30.3740  -12.7390   19.0320 C   0  0  0  0  0  2  0  0  0  0  0  0
  -29.3830  -12.7400   17.8460 C   0  0  0  0  0  2  0  0  0  0  0  0
  -27.9460  -12.5210   18.3540 C   0  0  0  0  0  2  0  0  0  0  0  0
  -27.6110  -13.4170   19.5750 C   0  0  0  0  0  3  0  0  0  0  0  0
  -28.7240  -13.4030   20.6450 C   0  0  0  0  0  2  0  0  0  0  0  0
  -29.9590  -13.8210   19.9760 N   0  0  0  0  0  0  0  0  0  0  0  0
  -31.7900  -15.0520   19.6910 O   0  0  0  0  0  0  0  0  0  0  0  0
  -29.9080  -16.2950   20.2440 N   0  0  0  0  0  0  0  0  0  0  0  0
  -28.9440  -16.1830   20.5200 H   0  0  0  0  0  0  0  0  0  0  0  0
  -25.2740  -13.9750   20.4450 C   0  0  0  0  0  0  0  0  0  0  0  0
  -24.2290  -13.1910   20.8490 C   0  0  0  0  0  0  0  0  0  0  0  0
  -24.6930  -11.8410   20.7710 C   0  0  0  0  0  0  0  0  0  0  0  0
  -26.3030  -13.1040   20.1370 N   0  0  0  0  0  0  0  0  0  0  0  0
  -25.9680  -11.8120   20.4000 N   0  0  0  0  0  0  0  0  0  0  0  0
  -23.9770  -10.5740   20.9690 C   0  0  0  0  0  0  0  0  0  0  0  0
  -24.4300   -9.6030   21.8880 C   0  0  0  0  0  3  0  0  0  0  0  0
  -23.7100   -8.4030   22.0750 C   0  0  0  0  0  3  0  0  0  0  0  0
  -22.5220   -8.1660   21.3430 C   0  0  0  0  0  0  0  0  0  0  0  0
  -22.0890   -9.1250   20.4100 C   0  0  0  0  0  3  0  0  0  0  0  0
  -22.8100  -10.3170   20.2220 C   0  0  0  0  0  3  0  0  0  0  0  0
  -21.7720   -7.0190   21.4400 O   0  0  0  0  0  0  0  0  0  0  0  0
  -21.7230   -6.2870   22.5990 C   0  0  0  0  0  0  0  0  0  0  0  0
  -21.2300   -6.8330   23.8040 C   0  0  0  0  0  3  0  0  0  0  0  0
  -21.1320   -6.0260   24.9560 C   0  0  0  0  0  3  0  0  0  0  0  0
  -21.5180   -4.6740   24.9020 C   0  0  0  0  0  0  0  0  0  0  0  0
  -22.0040   -4.1260   23.7020 C   0  0  0  0  0  3  0  0  0  0  0  0
  -22.1030   -4.9310   22.5530 C   0  0  0  0  0  0  0  0  0  0  0  0
  -22.5520   -4.3940   21.3930 F   0  0  0  0  0  0  0  0  0  0  0  0
  -21.4180   -3.8950   26.0040 F   0  0  0  0  0  0  0  0  0  0  0  0
  -22.8460  -13.6600   21.1950 C   0  0  0  0  0  0  0  0  0  0  0  0
  -22.1630  -12.9490   22.0840 N   0  0  0  0  0  0  0  0  0  0  0  0
  -22.3860  -14.6940   20.7150 O   0  0  0  0  0  0  0  0  0  0  0  0
  -22.5520  -12.1100   22.4890 H   0  0  0  0  0  0  0  0  0  0  0  0
  -21.2400  -13.2460   22.3640 H   0  0  0  0  0  0  0  0  0  0  0  0
  -25.4300  -15.3490   20.2840 N   0  0  0  0  0  0  0  0  0  0  0  0
  -24.6670  -16.0010   20.4350 H   0  0  0  0  0  0  0  0  0  0  0  0
  -26.2600  -15.7910   19.9140 H   0  0  0  0  0  0  0  0  0  0  0  0
  -28.8270  -23.3250   20.2320 C   0  0  0  0  0  0  0  0  0  0  0  0
  -29.9990  -23.5200   20.5740 O   0  0  0  0  0  0  0  0  0  0  0  0
  -27.8660  -24.6730   19.9860 C   0  0  0  0  0  2  0  0  0  0  0  0
  -28.2510  -26.1730   20.2420 O   0  0  0  0  0  0  0  0  0  0  0  0
  -24.6480  -31.8970   23.2150 C   0  0  0  0  0  0  0  0  0  0  0  0
  -27.2290  -27.1960   20.1590 C   0  0  0  0  0  0  0  0  0  0  0  0
  -23.4600  -30.5260   21.5470 C   0  0  0  0  0  3  0  0  0  0  0  0
  -24.9170  -28.9720   20.1130 C   0  0  0  0  0  0  0  0  0  0  0  0
  -26.0180  -30.7840   21.4130 C   0  0  0  0  0  2  0  0  0  0  0  0
  -26.0920  -29.3990   20.7420 C   0  0  0  0  0  0  0  0  0  0  0  0
  -27.2500  -28.5290   20.7480 C   0  0  0  0  0  3  0  0  0  0  0  0
  -26.0250  -26.8820   19.4850 C   0  0  0  0  0  3  0  0  0  0  0  0
  -24.8960  -27.7270   19.4700 C   0  0  0  0  0  3  0  0  0  0  0  0
  -23.6930  -29.8720   20.1590 C   0  0  0  0  0  2  0  0  0  0  0  0
  -24.7290  -31.0920   22.1130 N   0  0  0  0  0  0  0  0  0  0  0  0
  -23.5570  -32.1760   23.7370 O   0  0  0  0  0  0  0  0  0  0  0  0
  -22.7720  -29.5070   22.4900 C   0  0  0  0  0  0  0  0  0  0  0  0
  -21.4440  -29.3380   22.3530 N   0  0  0  0  0  0  0  0  0  0  0  0
  -23.4360  -28.8690   23.3110 O   0  0  0  0  0  0  0  0  0  0  0  0
  -20.9620  -29.9040   21.6690 H   0  0  0  0  0  0  0  0  0  0  0  0
  -18.0550  -28.1440   22.8310 C   0  0  0  0  0  0  0  0  0  0  0  0
  -20.6140  -28.3930   23.1080 C   0  0  0  0  0  3  0  0  0  0  0  0
  -20.7110  -26.9670   22.5160 C   0  0  0  0  0  2  0  0  0  0  0  0
  -19.6130  -26.6630   21.4930 C   0  0  0  0  0  2  0  0  0  0  0  0
  -18.2300  -26.8060   22.1320 C   0  0  0  0  0  2  0  0  0  0  0  0
  -19.1750  -28.8980   23.2730 C   0  0  0  0  0  0  0  0  0  0  0  0
  -18.9580  -30.1520   23.8840 C   0  0  0  0  0  3  0  0  0  0  0  0
  -17.6540  -30.6540   24.0550 C   0  0  0  0  0  3  0  0  0  0  0  0
  -16.5480  -29.8980   23.6280 C   0  0  0  0  0  3  0  0  0  0  0  0
  -16.7500  -28.6440   23.0230 C   0  0  0  0  0  3  0  0  0  0  0  0
  -25.9220  -32.5240   23.8590 C   0  0  0  0  0  3  0  0  0  0  0  0
  -26.4130  -31.7530   25.1450 C   0  0  1  0  0  0  0  0  0  0  0  0
  -25.3010  -31.5180   26.1950 C   0  0  0  0  0  1  0  0  0  0  0  0
  -27.0020  -30.3740   24.7710 C   0  0  0  0  0  1  0  0  0  0  0  0
  -27.5540  -32.5450   25.8280 C   0  0  0  0  0  1  0  0  0  0  0  0
  -25.6160  -33.9260   24.1910 N   0  0  0  0  0  0  0  0  0  0  0  0
  -25.9220  -34.9790   23.4230 C   0  0  0  0  0  0  0  0  0  0  0  0
  -26.5630  -34.8760   22.3730 O   0  0  0  0  0  0  0  0  0  0  0  0
  -25.0550  -34.0820   25.0160 H   0  0  0  0  0  0  0  0  0  0  0  0
  -24.1700  -36.7610   23.1280 C   0  0  0  0  0  1  0  0  0  0  0  0
  -25.4450  -36.3680   23.8930 C   0  0  0  0  0  3  0  0  0  0  0  0
  -27.5960  -37.2780   24.6500 C   0  0  0  0  0  1  0  0  0  0  0  0
  -26.4660  -37.4290   23.7380 N   0  0  0  0  0  0  0  0  0  0  0  0
  -26.0550  -38.3460   23.8900 H   0  0  0  0  0  0  0  0  0  0  0  0
  1  7  2  0
  2  4  1  0
  2  3  1  0
  3  5  1  0
  4  6  1  0
  5 49  1  0
  6  5  1  0
  6  1  1  0
 10  9  1  6
 10 19  1  0
 10  1  1  0
 10  8  1  0
 11 19  1  0
 12 17  1  0
 13 14  1  0
 13 12  1  0
 15 14  1  0
 15 24  1  0
 15 16  1  0
 17 11  1  0
 17 16  1  0
 18 11  2  0
 19 20  1  0
 21 22  2  0
 22 41  1  0
 23 22  1  0
 23 26  1  0
 24 25  1  0
 24 21  1  0
 25 23  2  0
 26 27  1  0
 27 28  2  0
 29 32  1  0
 29 28  1  0
 30 29  2  0
 31 30  1  0
 31 26  2  0
 32 33  1  0
 33 34  1  0
 34 35  2  0
 36 35  1  0
 36 40  1  0
 37 36  2  0
 38 33  2  0
 38 37  1  0
 39 38  1  0
 41 42  1  0
 42 45  1  0
 42 44  1  0
 43 41  2  0
 46 47  1  0
 46 21  1  0
 48 46  1  0
 49 50  2  0
 51 49  1  0
 51 52  1  0
 53 64  2  0
 54 52  1  0
 54 59  1  0
 55 63  1  0
 55 65  1  0
 56 62  1  0
 56 58  1  0
 57 63  1  0
 58 59  2  0
 58 57  1  0
 60 54  2  0
 61 60  1  0
 61 56  2  0
 62 55  1  0
 63 53  1  0
 65 67  2  0
 66 65  1  0
 68 66  1  0
 69 78  2  0
 69 74  1  0
 70 66  1  0
 70 74  1  0
 71 70  1  0
 72 73  1  0
 72 71  1  0
 73 69  1  0
 74 75  2  0
 75 76  1  0
 77 76  2  0
 78 77  1  0
 79 53  1  0
 79 84  1  0
 79 80  1  0
 80 83  1  1
 80 81  1  0
 82 80  1  0
 84 87  1  0
 85 89  1  0
 85 84  1  0
 86 85  2  0
 89 88  1  0
 91 92  1  0
 91 89  1  0
 91 90  1  0
M  ISO  4  11 100  19 100  51 101  52 101
M  END
>  <TORSDO>  (51) 
F 19

>  <SCORE>  (51) 
-14.656

>  <name>  (51) 
50

>  <ligand_id>  (51) 
50

>  <original_smiles>  (51) 
[H]c1c([H])c([H])c2c(c1[H])C([H])([H])C([H])([H])C([H])([H])C2([H])N([H])C(=O)C1([H])N(C(=O)C([H])(N([H])C(=O)C([H])(N([H])C([H])([H])[H])C([H])([H])[H])C(C([H])([H])[H])(C([H])([H])[H])C([H])([H])[H])C([H])([H])c2c([H])c(OC([H])([H])C(=O)C3([H])N(C(=O)C(N([H])C(=O)N4C([H])([H])C([H])([H])C([H])([H])C([H])(n5nc(-c6c([H])c([H])c(Oc7c([H])c([H])c(F)c([H])c7F)c([H])c6[H])c(C(=O)N([H])[H])c5N([H])[H])C4([H])[H])(C([H])([H])[H])C([H])([H])[H])C([H])([H])C([H])([H])C3([H])[H])c([H])c([H])c2C1([H])[H]

>  <smiles>  (51) 
[H]c1c([H])c([H])c2c(c1[H])C([H])([H])C([H])([H])C([H])([H])C2([H])N([H])C(=O)C1([H])N(C(=O)C([H])(N([H])C(=O)C([H])(N([H])C([H])([H])[H])C([H])([H])[H])C(C([H])([H])[H])(C([H])([H])[H])C([H])([H])[H])C([H])([H])c2c([H])c(OC([H])([H])C(=O)C3([H])N(C(=O)C(N([H])C(=O)N4C([H])([H])C([H])([H])C([H])([H])C([H])(n5nc(-c6c([H])c([H])c(Oc7c([H])c([H])c(F)c([H])c7F)c([H])c6[H])c(C(=O)N([H])[H])c5N([H])[H])C4([H])[H])(C([H])([H])[H])C([H])([H])[H])C([H])([H])C([H])([H])C3([H])[H])c([H])c([H])c2C1([H])[H]

$$$$
51:0:0
     RDKit          3D

 98105  0  0  1  0  0  0  0  0999 V2000
  -29.6700  -19.9160   20.1980 C   0  0  0  0  0  2  0  0  0  0  0  0
  -31.2900  -21.7830   20.9510 C   0  0  0  0  0  1  0  0  0  0  0  0
  -29.8090  -21.3510   20.8970 C   0  0  0  0  0  3  0  0  0  0  0  0
  -28.9470  -22.5240   20.2260 C   0  0  0  0  0  2  0  0  0  0  0  0
  -29.0880  -24.0410   20.7190 C   0  0  0  0  0  3  0  0  0  0  0  0
  -28.8780  -24.0400   22.1210 O   0  0  0  0  0  0  0  0  0  0  0  0
  -28.9740  -24.9410   22.4190 H   0  0  0  0  0  0  0  0  0  0  0  0
  -28.0670  -25.0930   20.1010 C   0  0  0  0  0  2  0  0  0  0  0  0
  -28.3040  -26.5460   20.2710 O   0  0  0  0  0  0  0  0  0  0  0  0
  -24.6110  -31.9740   23.2410 C   0  0  0  0  0  0  0  0  0  0  0  0
  -27.1920  -27.4030   20.1900 C   0  0  0  0  0  0  0  0  0  0  0  0
  -23.3940  -30.5700   21.6160 C   0  0  0  0  0  3  0  0  0  0  0  0
  -24.8320  -29.0210   20.1780 C   0  0  0  0  0  0  0  0  0  0  0  0
  -25.9300  -30.8900   21.4100 C   0  0  0  0  0  2  0  0  0  0  0  0
  -26.0040  -29.5080   20.7700 C   0  0  0  0  0  0  0  0  0  0  0  0
  -27.1870  -28.7120   20.7660 C   0  0  0  0  0  3  0  0  0  0  0  0
  -26.0000  -26.9790   19.5550 C   0  0  0  0  0  3  0  0  0  0  0  0
  -24.8330  -27.7640   19.5570 C   0  0  0  0  0  3  0  0  0  0  0  0
  -23.5950  -29.8940   20.2360 C   0  0  0  0  0  2  0  0  0  0  0  0
  -24.6660  -31.1610   22.1470 N   0  0  0  0  0  0  0  0  0  0  0  0
  -23.5330  -32.2560   23.7820 O   0  0  0  0  0  0  0  0  0  0  0  0
  -22.7390  -29.5560   22.5850 C   0  0  0  0  0  0  0  0  0  0  0  0
  -21.4120  -29.3760   22.4630 N   0  0  0  0  0  0  0  0  0  0  0  0
  -23.4200  -28.9370   23.4050 O   0  0  0  0  0  0  0  0  0  0  0  0
  -20.9210  -29.9280   21.7750 H   0  0  0  0  0  0  0  0  0  0  0  0
  -18.0360  -28.1830   22.9760 C   0  0  0  0  0  0  0  0  0  0  0  0
  -20.5940  -28.4430   23.2410 C   0  0  0  0  0  3  0  0  0  0  0  0
  -20.6950  -27.0080   22.6750 C   0  0  0  0  0  2  0  0  0  0  0  0
  -19.5910  -26.6770   21.6650 C   0  0  0  0  0  2  0  0  0  0  0  0
  -18.2110  -26.8290   22.3110 C   0  0  0  0  0  2  0  0  0  0  0  0
  -19.1550  -28.9480   23.3990 C   0  0  0  0  0  0  0  0  0  0  0  0
  -18.9370  -30.2160   23.9800 C   0  0  0  0  0  3  0  0  0  0  0  0
  -17.6330  -30.7180   24.1440 C   0  0  0  0  0  3  0  0  0  0  0  0
  -16.5280  -29.9500   23.7380 C   0  0  0  0  0  3  0  0  0  0  0  0
  -16.7310  -28.6830   23.1590 C   0  0  0  0  0  3  0  0  0  0  0  0
  -25.9000  -32.6060   23.8530 C   0  0  0  0  0  3  0  0  0  0  0  0
  -25.5910  -34.0030   24.1880 N   0  0  0  0  0  0  0  0  0  0  0  0
  -25.9160  -35.0580   23.4300 C   0  0  0  0  0  0  0  0  0  0  0  0
  -26.5800  -34.9560   22.3930 O   0  0  0  0  0  0  0  0  0  0  0  0
  -25.0000  -34.1550   24.9920 H   0  0  0  0  0  0  0  0  0  0  0  0
  -24.1840  -36.8510   23.0880 C   0  0  0  0  0  1  0  0  0  0  0  0
  -25.4310  -36.4450   23.8920 C   0  0  0  0  0  3  0  0  0  0  0  0
  -27.5730  -37.3280   24.7070 C   0  0  0  0  0  1  0  0  0  0  0  0
  -26.4620  -37.4990   23.7740 N   0  0  0  0  0  0  0  0  0  0  0  0
  -26.0570  -38.4190   23.9270 H   0  0  0  0  0  0  0  0  0  0  0  0
  -26.4270  -31.8330   25.1240 C   0  0  1  0  0  0  0  0  0  0  0  0
  -25.3400  -31.5810   26.1970 C   0  0  0  0  0  1  0  0  0  0  0  0
  -27.0160  -30.4610   24.7230 C   0  0  0  0  0  1  0  0  0  0  0  0
  -27.5750  -32.6310   25.7860 C   0  0  0  0  0  1  0  0  0  0  0  0
  -30.0740  -18.5200   20.9120 C   0  0  0  0  0  3  0  0  0  0  0  0
  -31.3730  -18.5620   21.5990 N   0  0  0  0  0  4  0  0  0  0  0  0
  -32.1270  -18.7050   20.9490 H   0  0  0  0  0  0  0  0  0  0  0  0
  -31.5330  -17.6890   22.0710 H   0  0  0  0  0  0  0  0  0  0  0  0
  -31.3830  -19.2900   22.2910 H   0  0  0  0  0  0  0  0  0  0  0  0
  -30.0260  -17.2250   19.9800 C   0  0  0  0  0  0  0  0  0  0  0  0
  -30.8000  -14.7380   20.4510 C   0  0  0  0  0  0  0  0  0  0  0  0
  -30.5710  -12.5190   19.3810 C   0  0  0  0  0  2  0  0  0  0  0  0
  -29.6570  -12.6810   18.1480 C   0  0  0  0  0  2  0  0  0  0  0  0
  -28.1720  -12.5450   18.5390 C   0  0  0  0  0  2  0  0  0  0  0  0
  -27.7980  -13.3900   19.7880 C   0  0  0  0  0  3  0  0  0  0  0  0
  -28.8320  -13.2190   20.9250 C   0  0  0  0  0  2  0  0  0  0  0  0
  -30.1570  -13.5320   20.3730 N   0  0  0  0  0  0  0  0  0  0  0  0
  -31.9890  -14.8430   20.1480 O   0  0  0  0  0  0  0  0  0  0  0  0
  -30.0010  -15.8430   20.6130 N   0  0  0  0  0  4  0  0  0  0  0  0
  -29.0840  -15.5900   20.9480 H   0  0  0  0  0  0  0  0  0  0  0  0
  -25.3890  -13.9960   20.4420 C   0  0  0  0  0  0  0  0  0  0  0  0
  -24.3160  -13.2270   20.7990 C   0  0  0  0  0  0  0  0  0  0  0  0
  -24.7810  -11.8760   20.8010 C   0  0  0  0  0  0  0  0  0  0  0  0
  -26.4400  -13.1130   20.2440 N   0  0  0  0  0  0  0  0  0  0  0  0
  -26.0770  -11.8350   20.5220 N   0  0  0  0  0  0  0  0  0  0  0  0
  -24.0510  -10.6150   20.9950 C   0  0  0  0  0  0  0  0  0  0  0  0
  -24.4610   -9.6590   21.9490 C   0  0  0  0  0  3  0  0  0  0  0  0
  -23.7300   -8.4650   22.1290 C   0  0  0  0  0  3  0  0  0  0  0  0
  -22.5730   -8.2180   21.3530 C   0  0  0  0  0  0  0  0  0  0  0  0
  -22.1810   -9.1630   20.3870 C   0  0  0  0  0  3  0  0  0  0  0  0
  -22.9130  -10.3470   20.2070 C   0  0  0  0  0  3  0  0  0  0  0  0
  -21.8170   -7.0730   21.4400 O   0  0  0  0  0  0  0  0  0  0  0  0
  -21.7410   -6.3480   22.6030 C   0  0  0  0  0  0  0  0  0  0  0  0
  -21.3070   -6.9270   23.8150 C   0  0  0  0  0  3  0  0  0  0  0  0
  -21.1750   -6.1300   24.9690 C   0  0  0  0  0  3  0  0  0  0  0  0
  -21.4680   -4.7540   24.9110 C   0  0  0  0  0  0  0  0  0  0  0  0
  -21.8980   -4.1740   23.7030 C   0  0  0  0  0  3  0  0  0  0  0  0
  -22.0290   -4.9700   22.5520 C   0  0  0  0  0  0  0  0  0  0  0  0
  -22.4220   -4.4030   21.3840 F   0  0  0  0  0  0  0  0  0  0  0  0
  -21.3360   -3.9840   26.0160 F   0  0  0  0  0  0  0  0  0  0  0  0
  -22.9120  -13.7060   21.0310 C   0  0  0  0  0  0  0  0  0  0  0  0
  -22.1700  -13.0310   21.9030 N   0  0  0  0  0  0  0  0  0  0  0  0
  -22.4810  -14.7150   20.4740 O   0  0  0  0  0  0  0  0  0  0  0  0
  -22.5340  -12.2150   22.3720 H   0  0  0  0  0  0  0  0  0  0  0  0
  -21.2270  -13.3330   22.1010 H   0  0  0  0  0  0  0  0  0  0  0  0
  -25.5540  -15.3640   20.2480 N   0  0  0  0  0  0  0  0  0  0  0  0
  -24.7730  -16.0060   20.3280 H   0  0  0  0  0  0  0  0  0  0  0  0
  -26.3930  -15.8030   19.8960 H   0  0  0  0  0  0  0  0  0  0  0  0
  -30.9690  -17.3330   18.7410 C   0  0  0  0  0  2  0  0  0  0  0  0
  -30.2040  -17.4540   17.4140 C   0  0  0  0  0  2  0  0  0  0  0  0
  -28.6090  -18.9470   16.1280 C   0  0  0  0  0  1  0  0  0  0  0  0
  -30.9900  -19.7090   16.5060 C   0  0  0  0  0  1  0  0  0  0  0  0
  -29.8090  -18.9090   17.0810 C   0  0  0  0  0  3  0  0  0  0  0  0
  1  3  1  0
  3  2  1  0
  4  5  1  0
  4  3  1  0
  5  8  1  0
  5  6  1  0
  6  7  1  0
  8  9  1  0
 10 21  2  0
 11  9  1  0
 11 16  1  0
 12 20  1  0
 12 22  1  0
 13 19  1  0
 13 15  1  0
 14 20  1  0
 15 14  1  0
 16 15  2  0
 17 18  1  0
 17 11  2  0
 18 13  2  0
 19 12  1  0
 20 10  1  0
 22 24  2  0
 23 22  1  0
 25 23  1  0
 26 35  2  0
 26 31  1  0
 27 23  1  0
 27 31  1  0
 28 27  1  0
 29 30  1  0
 29 28  1  0
 30 26  1  0
 31 32  2  0
 32 33  1  0
 34 33  2  0
 35 34  1  0
 36 10  1  0
 36 37  1  0
 36 46  1  0
 37 40  1  0
 38 42  1  0
 38 37  1  0
 39 38  2  0
 42 41  1  0
 44 42  1  0
 44 45  1  0
 44 43  1  0
 46 49  1  1
 46 47  1  0
 48 46  1  0
 50  1  1  0
 50 51  1  0
 51 53  1  0
 51 54  1  0
 52 51  1  0
 55 64  2  0
 55 50  1  0
 56 64  1  0
 57 62  1  0
 58 59  1  0
 58 57  1  0
 60 59  1  0
 60 69  1  0
 60 61  1  0
 62 56  1  0
 62 61  1  0
 63 56  2  0
 64 65  1  0
 66 67  2  0
 67 68  1  0
 67 86  1  0
 68 71  1  0
 69 66  1  0
 69 70  1  0
 70 68  2  0
 71 72  1  0
 72 73  2  0
 74 77  1  0
 74 73  1  0
 75 74  2  0
 76 75  1  0
 76 71  2  0
 77 78  1  0
 78 79  1  0
 79 80  2  0
 81 80  1  0
 81 85  1  0
 82 81  2  0
 83 78  2  0
 83 82  1  0
 84 83  1  0
 86 87  1  0
 87 90  1  0
 87 89  1  0
 88 86  2  0
 91 92  1  0
 91 66  1  0
 93 91  1  0
 94 55  1  0
 95 94  1  0
 96 98  1  0
 97 98  1  0
 98 95  1  0
M  ISO  4   8 101   9 101  56 100  64 100
M  END
>  <TORSDO>  (52) 
F 27

>  <SCORE>  (52) 
-11.915

>  <name>  (52) 
51

>  <ligand_id>  (52) 
51

>  <original_smiles>  (52) 
[H]OC([H])(C([H])([H])Oc1c([H])c([H])c2c(c1[H])C([H])([H])N(C(=O)C([H])(N([H])C(=O)C([H])(N([H])C([H])([H])[H])C([H])([H])[H])C(C([H])([H])[H])(C([H])([H])[H])C([H])([H])[H])C([H])(C(=O)N([H])C1([H])c3c([H])c([H])c([H])c([H])c3C([H])([H])C([H])([H])C1([H])[H])C2([H])[H])C([H])([H])C([H])(C([H])([H])[H])C([H])([H])C([H])(C([H])(N([H])C(=O)N1C([H])([H])C([H])([H])C([H])([H])C([H])(n2nc(-c3c([H])c([H])c(Oc4c([H])c([H])c(F)c([H])c4F)c([H])c3[H])c(C(=O)N([H])[H])c2N([H])[H])C1([H])[H])C([H])([H])C([H])([H])C([H])(C([H])([H])[H])C([H])([H])[H])[N+]([H])([H])[H]

>  <smiles>  (52) 
[H]OC([H])(C([H])([H])Oc1c([H])c([H])c2c(c1[H])C([H])([H])N(C(=O)C([H])(N([H])C(=O)C([H])(N([H])C([H])([H])[H])C([H])([H])[H])C(C([H])([H])[H])(C([H])([H])[H])C([H])([H])[H])C([H])(C(=O)N([H])C1([H])c3c([H])c([H])c([H])c([H])c3C([H])([H])C([H])([H])C1([H])[H])C2([H])[H])C([H])([H])C([H])(C([H])([H])[H])C([H])([H])C([H])(C([H])(N([H])C(=O)N1C([H])([H])C([H])([H])C([H])([H])C([H])(n2nc(-c3c([H])c([H])c(Oc4c([H])c([H])c(F)c([H])c4F)c([H])c3[H])c(C(=O)N([H])[H])c2N([H])[H])C1([H])[H])C([H])([H])C([H])([H])C([H])(C([H])([H])[H])C([H])([H])[H])[N+]([H])([H])[H]

$$$$
52:0:0
     RDKit          3D

100107  0  0  1  0  0  0  0  0999 V2000
  -30.7970  -21.0490   19.1630 C   0  0  0  0  0  3  0  0  0  0  0  0
  -32.9010  -21.2510   17.7000 C   0  0  0  0  0  1  0  0  0  0  0  0
  -30.8270  -20.1820   16.7580 C   0  0  0  0  0  1  0  0  0  0  0  0
  -30.9110  -22.6350   17.1060 C   0  0  0  0  0  1  0  0  0  0  0  0
  -31.3550  -21.2800   17.7100 C   0  0  1  0  0  0  0  0  0  0  0  0
  -30.8250  -22.3120   20.0830 C   0  0  0  0  0  0  0  0  0  0  0  0
  -29.7500  -23.1280   20.0050 N   0  0  0  0  0  0  0  0  0  0  0  0
  -31.8320  -22.6090   20.7270 O   0  0  0  0  0  0  0  0  0  0  0  0
  -28.9530  -22.7710   19.4960 H   0  0  0  0  0  0  0  0  0  0  0  0
  -29.6940  -24.5530   20.3720 C   0  0  0  0  0  2  0  0  0  0  0  0
  -28.4050  -25.2600   19.8640 C   0  0  0  0  0  2  0  0  0  0  0  0
  -28.4090  -26.6680   20.1740 O   0  0  0  0  0  0  0  0  0  0  0  0
  -24.5820  -31.8530   23.2310 C   0  0  0  0  0  0  0  0  0  0  0  0
  -27.2180  -27.3800   20.1500 C   0  0  0  0  0  0  0  0  0  0  0  0
  -23.3650  -30.4490   21.5980 C   0  0  0  0  0  3  0  0  0  0  0  0
  -24.8110  -28.8930   20.1770 C   0  0  0  0  0  0  0  0  0  0  0  0
  -25.8920  -30.7940   21.3890 C   0  0  0  0  0  2  0  0  0  0  0  0
  -25.9730  -29.4190   20.7530 C   0  0  0  0  0  0  0  0  0  0  0  0
  -27.1750  -28.6710   20.7350 C   0  0  0  0  0  3  0  0  0  0  0  0
  -26.0310  -26.8730   19.5660 C   0  0  0  0  0  3  0  0  0  0  0  0
  -24.8350  -27.6170   19.5870 C   0  0  0  0  0  3  0  0  0  0  0  0
  -23.5680  -29.7550   20.2220 C   0  0  0  0  0  2  0  0  0  0  0  0
  -24.6320  -31.0470   22.1310 N   0  0  0  0  0  0  0  0  0  0  0  0
  -23.5040  -32.1300   23.7750 O   0  0  0  0  0  0  0  0  0  0  0  0
  -22.7120  -29.4360   22.5650 C   0  0  0  0  0  0  0  0  0  0  0  0
  -21.3860  -29.2640   22.4480 N   0  0  0  0  0  0  0  0  0  0  0  0
  -23.3970  -28.8060   23.3770 O   0  0  0  0  0  0  0  0  0  0  0  0
  -20.8940  -29.8270   21.7670 H   0  0  0  0  0  0  0  0  0  0  0  0
  -18.0090  -28.0870   22.9620 C   0  0  0  0  0  0  0  0  0  0  0  0
  -20.5690  -28.3320   23.2240 C   0  0  0  0  0  3  0  0  0  0  0  0
  -20.6610  -26.8980   22.6490 C   0  0  0  0  0  2  0  0  0  0  0  0
  -19.5540  -26.5800   21.6400 C   0  0  0  0  0  2  0  0  0  0  0  0
  -18.1760  -26.7350   22.2890 C   0  0  0  0  0  2  0  0  0  0  0  0
  -19.1330  -28.8430   23.3870 C   0  0  0  0  0  0  0  0  0  0  0  0
  -18.9240  -30.1100   23.9760 C   0  0  0  0  0  3  0  0  0  0  0  0
  -17.6230  -30.6210   24.1420 C   0  0  0  0  0  3  0  0  0  0  0  0
  -16.5130  -29.8610   23.7340 C   0  0  0  0  0  3  0  0  0  0  0  0
  -16.7060  -28.5940   23.1520 C   0  0  0  0  0  3  0  0  0  0  0  0
  -25.8740  -32.4820   23.8450 C   0  0  0  0  0  3  0  0  0  0  0  0
  -26.4060  -31.7030   25.1110 C   0  0  1  0  0  0  0  0  0  0  0  0
  -25.3250  -31.4590   26.1880 C   0  0  0  0  0  1  0  0  0  0  0  0
  -26.9840  -30.3280   24.7010 C   0  0  0  0  0  1  0  0  0  0  0  0
  -27.5610  -32.4940   25.7680 C   0  0  0  0  0  1  0  0  0  0  0  0
  -25.5660  -33.8760   24.1880 N   0  0  0  0  0  0  0  0  0  0  0  0
  -25.8850  -34.9340   23.4290 C   0  0  0  0  0  0  0  0  0  0  0  0
  -26.5420  -34.8390   22.3890 O   0  0  0  0  0  0  0  0  0  0  0  0
  -24.9820  -34.0230   24.9980 H   0  0  0  0  0  0  0  0  0  0  0  0
  -24.1410  -36.7180   23.1150 C   0  0  0  0  0  1  0  0  0  0  0  0
  -25.4000  -36.3170   23.9000 C   0  0  0  0  0  3  0  0  0  0  0  0
  -27.5470  -37.2090   24.6920 C   0  0  0  0  0  1  0  0  0  0  0  0
  -26.4250  -37.3750   23.7710 N   0  0  0  0  0  0  0  0  0  0  0  0
  -26.0160  -38.2910   23.9320 H   0  0  0  0  0  0  0  0  0  0  0  0
  -31.3400  -19.1460   20.8560 C   0  0  0  0  0  0  0  0  0  0  0  0
  -31.2810  -19.7330   19.6480 N   0  0  0  0  0  0  0  0  0  0  0  0
  -31.2020  -19.7540   21.9180 O   0  0  0  0  0  0  0  0  0  0  0  0
  -31.4610  -19.0980   18.8870 H   0  0  0  0  0  0  0  0  0  0  0  0
  -31.4760  -17.5940   20.8480 C   0  0  0  0  0  2  0  0  0  0  0  0
  -30.0990  -16.8540   20.9890 C   0  0  0  0  0  3  0  0  0  0  0  0
  -30.6600  -14.3980   20.3560 C   0  0  0  0  0  0  0  0  0  0  0  0
  -30.3410  -12.2000   19.2700 C   0  0  0  0  0  2  0  0  0  0  0  0
  -29.3810  -12.3430   18.0680 C   0  0  0  0  0  2  0  0  0  0  0  0
  -27.9120  -12.2100   18.5120 C   0  0  0  0  0  2  0  0  0  0  0  0
  -27.5730  -13.0820   19.7500 C   0  0  0  0  0  3  0  0  0  0  0  0
  -28.6510  -12.9250   20.8530 C   0  0  0  0  0  2  0  0  0  0  0  0
  -29.9790  -13.2170   20.2720 N   0  0  0  0  0  0  0  0  0  0  0  0
  -31.7090  -14.6050   19.7440 O   0  0  0  0  0  0  0  0  0  0  0  0
  -30.0590  -15.3640   21.0760 N   0  0  0  0  0  0  0  0  0  0  0  0
  -29.2760  -15.0140   21.6080 H   0  0  0  0  0  0  0  0  0  0  0  0
  -25.1600  -13.6750   20.4540 C   0  0  0  0  0  0  0  0  0  0  0  0
  -24.1080  -12.9160   20.8720 C   0  0  0  0  0  0  0  0  0  0  0  0
  -24.5760  -11.5680   20.8570 C   0  0  0  0  0  0  0  0  0  0  0  0
  -26.2230  -12.8060   20.2470 N   0  0  0  0  0  0  0  0  0  0  0  0
  -25.8670  -11.5280   20.5370 N   0  0  0  0  0  0  0  0  0  0  0  0
  -23.8490  -10.3120   21.0680 C   0  0  0  0  0  0  0  0  0  0  0  0
  -24.3140   -9.3380   21.9780 C   0  0  0  0  0  3  0  0  0  0  0  0
  -23.5870   -8.1440   22.1780 C   0  0  0  0  0  3  0  0  0  0  0  0
  -22.3830   -7.9200   21.4700 C   0  0  0  0  0  0  0  0  0  0  0  0
  -21.9360   -8.8830   20.5480 C   0  0  0  0  0  3  0  0  0  0  0  0
  -22.6630  -10.0680   20.3460 C   0  0  0  0  0  3  0  0  0  0  0  0
  -21.6300   -6.7760   21.5840 O   0  0  0  0  0  0  0  0  0  0  0  0
  -21.6480   -6.0120   22.7220 C   0  0  0  0  0  0  0  0  0  0  0  0
  -21.3160   -6.5510   23.9840 C   0  0  0  0  0  3  0  0  0  0  0  0
  -21.2780   -5.7170   25.1180 C   0  0  0  0  0  3  0  0  0  0  0  0
  -21.5620   -4.3440   24.9930 C   0  0  0  0  0  0  0  0  0  0  0  0
  -21.8880   -3.8030   23.7360 C   0  0  0  0  0  3  0  0  0  0  0  0
  -21.9270   -4.6340   22.6020 C   0  0  0  0  0  0  0  0  0  0  0  0
  -22.2230   -4.1070   21.3900 F   0  0  0  0  0  0  0  0  0  0  0  0
  -21.5170   -3.5410   26.0790 F   0  0  0  0  0  0  0  0  0  0  0  0
  -22.7160  -13.4010   21.1630 C   0  0  0  0  0  0  0  0  0  0  0  0
  -22.0090  -12.7310   22.0630 N   0  0  0  0  0  0  0  0  0  0  0  0
  -22.2670  -14.4170   20.6320 O   0  0  0  0  0  0  0  0  0  0  0  0
  -22.3800  -11.9110   22.5210 H   0  0  0  0  0  0  0  0  0  0  0  0
  -21.0790  -13.0480   22.3000 H   0  0  0  0  0  0  0  0  0  0  0  0
  -25.2740  -15.0300   20.2070 N   0  0  0  0  0  0  0  0  0  0  0  0
  -24.4910  -15.6600   20.3270 H   0  0  0  0  0  0  0  0  0  0  0  0
  -26.1140  -15.4950   19.8860 H   0  0  0  0  0  0  0  0  0  0  0  0
  -29.3640  -16.8810   18.5090 C   0  0  0  0  0  1  0  0  0  0  0  0
  -29.0430  -17.3300   19.9510 C   0  0  0  0  0  3  0  0  0  0  0  0
  -26.5370  -17.7290   19.6640 C   0  0  0  0  0  1  0  0  0  0  0  0
  -27.6320  -16.9680   20.4260 C   0  0  0  0  0  2  0  0  0  0  0  0
  1 54  1  0
  1  6  1  0
  5  2  1  1
  3  5  1  0
  4  5  1  0
  5  1  1  0
  6  8  2  0
  7  6  1  0
  7 10  1  0
  9  7  1  0
 11 12  1  0
 11 10  1  0
 13 24  2  0
 14 12  1  0
 14 19  1  0
 15 23  1  0
 15 25  1  0
 16 22  1  0
 16 18  1  0
 17 23  1  0
 18 17  1  0
 19 18  2  0
 20 21  1  0
 20 14  2  0
 21 16  2  0
 22 15  1  0
 23 13  1  0
 25 27  2  0
 26 25  1  0
 28 26  1  0
 29 38  2  0
 29 34  1  0
 30 26  1  0
 30 34  1  0
 31 30  1  0
 32 33  1  0
 32 31  1  0
 33 29  1  0
 34 35  2  0
 35 36  1  0
 37 36  2  0
 38 37  1  0
 39 13  1  0
 39 44  1  0
 39 40  1  0
 40 43  1  1
 40 41  1  0
 42 40  1  0
 44 47  1  0
 45 49  1  0
 45 44  1  0
 46 45  2  0
 49 48  1  0
 51 49  1  0
 51 52  1  0
 51 50  1  0
 53 55  2  0
 54 53  1  0
 56 54  1  0
 57 53  1  0
 58 57  1  0
 58 67  1  0
 59 67  1  0
 60 65  1  0
 61 62  1  0
 61 60  1  0
 63 62  1  0
 63 72  1  0
 63 64  1  0
 65 59  1  0
 65 64  1  0
 66 59  2  0
 67 68  1  0
 69 70  2  0
 70 89  1  0
 71 70  1  0
 71 74  1  0
 72 69  1  0
 72 73  1  0
 73 71  2  0
 74 75  1  0
 75 76  2  0
 77 80  1  0
 77 76  1  0
 78 77  2  0
 79 78  1  0
 79 74  2  0
 80 81  1  0
 81 82  1  0
 82 83  2  0
 84 83  1  0
 84 88  1  0
 85 84  2  0
 86 81  2  0
 86 85  1  0
 87 86  1  0
 89 90  1  0
 90 93  1  0
 90 92  1  0
 91 89  2  0
 94 95  1  0
 94 69  1  0
 96 94  1  0
 98 97  1  0
 98100  1  0
 98 58  1  0
 99100  1  0
M  ISO  4  11 101  12 101  59 100  67 100
M  END
>  <TORSDO>  (53) 
F 25

>  <SCORE>  (53) 
-12.141

>  <name>  (53) 
52

>  <ligand_id>  (53) 
52

>  <original_smiles>  (53) 
[H]c1c([H])c([H])c2c(c1[H])C([H])([H])C([H])([H])C([H])([H])C2([H])N([H])C(=O)C1([H])N(C(=O)C([H])(N([H])C(=O)C([H])(N([H])C([H])([H])[H])C([H])([H])[H])C(C([H])([H])[H])(C([H])([H])[H])C([H])([H])[H])C([H])([H])c2c([H])c(OC([H])([H])C([H])([H])N([H])C(=O)C([H])(N([H])C(=O)C([H])([H])C([H])(N([H])C(=O)N3C([H])([H])C([H])([H])C([H])([H])C([H])(n4nc(-c5c([H])c([H])c(Oc6c([H])c([H])c(F)c([H])c6F)c([H])c5[H])c(C(=O)N([H])[H])c4N([H])[H])C3([H])[H])C([H])(C([H])([H])[H])C([H])([H])C([H])([H])[H])C(C([H])([H])[H])(C([H])([H])[H])C([H])([H])[H])c([H])c([H])c2C1([H])[H]

>  <smiles>  (53) 
[H]c1c([H])c([H])c2c(c1[H])C([H])([H])C([H])([H])C([H])([H])C2([H])N([H])C(=O)C1([H])N(C(=O)C([H])(N([H])C(=O)C([H])(N([H])C([H])([H])[H])C([H])([H])[H])C(C([H])([H])[H])(C([H])([H])[H])C([H])([H])[H])C([H])([H])c2c([H])c(OC([H])([H])C([H])([H])N([H])C(=O)C([H])(N([H])C(=O)C([H])([H])C([H])(N([H])C(=O)N3C([H])([H])C([H])([H])C([H])([H])C([H])(n4nc(-c5c([H])c([H])c(Oc6c([H])c([H])c(F)c([H])c6F)c([H])c5[H])c(C(=O)N([H])[H])c4N([H])[H])C3([H])[H])C([H])(C([H])([H])[H])C([H])([H])C([H])([H])[H])C(C([H])([H])[H])(C([H])([H])[H])C([H])([H])[H])c([H])c([H])c2C1([H])[H]

$$$$
53:0:0
     RDKit          3D

104111  0  0  1  0  0  0  0  0999 V2000
  -29.6110  -20.0240   21.7540 C   0  0  0  0  0  2  0  0  0  0  0  0
  -28.6620  -21.1500   21.2730 C   0  0  0  0  0  2  0  0  0  0  0  0
  -28.5320  -22.2900   22.3040 C   0  0  0  0  0  2  0  0  0  0  0  0
  -27.6750  -23.4910   21.8470 C   0  0  0  0  0  2  0  0  0  0  0  0
  -28.4300  -25.8930   21.5750 C   0  0  0  0  0  0  0  0  0  0  0  0
  -27.5720  -26.3740   22.4870 N   0  0  0  0  0  4  0  0  0  0  0  0
  -28.4870  -24.5800   21.2680 N   0  0  0  0  0  0  0  0  0  0  0  0
  -27.5430  -27.3640   22.6730 H   0  0  0  0  0  0  0  0  0  0  0  0
  -26.9220  -25.7910   22.9860 H   0  0  0  0  0  0  0  0  0  0  0  0
  -29.1080  -24.3190   20.5130 H   0  0  0  0  0  0  0  0  0  0  0  0
  -29.3500  -26.8560   20.8780 C   0  0  0  0  0  2  0  0  0  0  0  0
  -28.7910  -27.3400   19.6620 O   0  0  0  0  0  0  0  0  0  0  0  0
  -24.5240  -31.8760   23.1650 C   0  0  0  0  0  0  0  0  0  0  0  0
  -27.5700  -27.9500   19.7880 C   0  0  0  0  0  0  0  0  0  0  0  0
  -23.4470  -30.4620   21.4450 C   0  0  0  0  0  3  0  0  0  0  0  0
  -25.0340  -29.1730   19.9200 C   0  0  0  0  0  0  0  0  0  0  0  0
  -25.9170  -31.0930   21.2560 C   0  0  0  0  0  2  0  0  0  0  0  0
  -26.1360  -29.7790   20.5380 C   0  0  0  0  0  0  0  0  0  0  0  0
  -27.4080  -29.1710   20.4790 C   0  0  0  0  0  3  0  0  0  0  0  0
  -26.4590  -27.3520   19.1640 C   0  0  0  0  0  3  0  0  0  0  0  0
  -25.1890  -27.9540   19.2360 C   0  0  0  0  0  3  0  0  0  0  0  0
  -23.7080  -29.8930   20.0260 C   0  0  0  0  0  2  0  0  0  0  0  0
  -24.6460  -31.1580   22.0140 N   0  0  0  0  0  0  0  0  0  0  0  0
  -23.4280  -32.0020   23.7290 O   0  0  0  0  0  0  0  0  0  0  0  0
  -22.9170  -29.3200   22.3430 C   0  0  0  0  0  0  0  0  0  0  0  0
  -21.6200  -29.0040   22.2020 N   0  0  0  0  0  0  0  0  0  0  0  0
  -23.6700  -28.7240   23.1170 O   0  0  0  0  0  0  0  0  0  0  0  0
  -21.0710  -29.5420   21.5480 H   0  0  0  0  0  0  0  0  0  0  0  0
  -18.3940  -27.4360   22.6290 C   0  0  0  0  0  0  0  0  0  0  0  0
  -20.9120  -27.9410   22.9150 C   0  0  0  0  0  3  0  0  0  0  0  0
  -21.1590  -26.5670   22.2500 C   0  0  0  0  0  2  0  0  0  0  0  0
  -20.0880  -26.1940   21.2210 C   0  0  0  0  0  2  0  0  0  0  0  0
  -18.7040  -26.1550   21.8730 C   0  0  0  0  0  2  0  0  0  0  0  0
  -19.4300  -28.2820   23.1040 C   0  0  0  0  0  0  0  0  0  0  0  0
  -19.0860  -29.4780   23.7710 C   0  0  0  0  0  3  0  0  0  0  0  0
  -17.7370  -29.8300   23.9680 C   0  0  0  0  0  3  0  0  0  0  0  0
  -16.7140  -28.9790   23.5100 C   0  0  0  0  0  3  0  0  0  0  0  0
  -17.0440  -27.7850   22.8460 C   0  0  0  0  0  3  0  0  0  0  0  0
  -25.7490  -32.5940   23.8160 C   0  0  0  0  0  3  0  0  0  0  0  0
  -26.2990  -31.8510   25.0960 C   0  0  1  0  0  0  0  0  0  0  0  0
  -25.2090  -31.5200   26.1420 C   0  0  0  0  0  1  0  0  0  0  0  0
  -26.9910  -30.5250   24.7000 C   0  0  0  0  0  1  0  0  0  0  0  0
  -27.3780  -32.7210   25.7830 C   0  0  0  0  0  1  0  0  0  0  0  0
  -25.3330  -33.9620   24.1490 N   0  0  0  0  0  0  0  0  0  0  0  0
  -25.6120  -35.0420   23.4050 C   0  0  0  0  0  0  0  0  0  0  0  0
  -26.3140  -34.9940   22.3920 O   0  0  0  0  0  0  0  0  0  0  0  0
  -24.7120  -34.0680   24.9350 H   0  0  0  0  0  0  0  0  0  0  0  0
  -23.7710  -36.7080   23.0060 C   0  0  0  0  0  1  0  0  0  0  0  0
  -25.0120  -36.3880   23.8550 C   0  0  0  0  0  3  0  0  0  0  0  0
  -27.0480  -37.4140   24.7620 C   0  0  0  0  0  1  0  0  0  0  0  0
  -25.9700  -37.5120   23.7820 N   0  0  0  0  0  0  0  0  0  0  0  0
  -25.4950  -38.3990   23.9210 H   0  0  0  0  0  0  0  0  0  0  0  0
  -29.7800  -18.7770   20.8220 C   0  0  0  0  0  3  0  0  0  0  0  0
  -29.5440  -19.1160   19.3190 C   0  0  0  0  0  2  0  0  0  0  0  0
  -29.0720  -17.9810   18.3740 C   0  0  0  0  0  2  0  0  0  0  0  0
  -27.9060  -17.1220   18.8860 C   0  0  0  0  0  0  0  0  0  0  0  0
  -27.6020  -16.0450   18.1770 N   0  0  0  0  0  0  0  0  0  0  0  0
  -27.2720  -17.4120   19.8980 O   0  0  0  0  0  0  0  0  0  0  0  0
  -28.1190  -15.8190   17.3370 H   0  0  0  0  0  0  0  0  0  0  0  0
  -26.8300  -15.4550   18.4500 H   0  0  0  0  0  0  0  0  0  0  0  0
  -31.1300  -18.0170   21.0640 C   0  0  0  0  0  3  0  0  0  0  0  0
  -32.2400  -18.9570   21.3180 N   0  0  0  0  0  4  0  0  0  0  0  0
  -32.1100  -19.4590   22.1780 H   0  0  0  0  0  0  0  0  0  0  0  0
  -32.3220  -19.6200   20.5670 H   0  0  0  0  0  0  0  0  0  0  0  0
  -33.1090  -18.4540   21.3740 H   0  0  0  0  0  0  0  0  0  0  0  0
  -31.0680  -16.9270   22.1740 C   0  0  0  0  0  2  0  0  0  0  0  0
  -30.9800  -14.8010   20.9110 C   0  0  0  0  0  0  0  0  0  0  0  0
  -30.6980  -12.7350   19.5980 C   0  0  0  0  0  2  0  0  0  0  0  0
  -29.7900  -12.9930   18.3810 C   0  0  0  0  0  2  0  0  0  0  0  0
  -28.3090  -12.8140   18.7640 C   0  0  0  0  0  2  0  0  0  0  0  0
  -27.9270  -13.5890   20.0540 C   0  0  0  0  0  3  0  0  0  0  0  0
  -28.9500  -13.3260   21.1820 C   0  0  0  0  0  2  0  0  0  0  0  0
  -30.2900  -13.6560   20.6700 N   0  0  0  0  0  0  0  0  0  0  0  0
  -32.0640  -15.0550   20.3790 O   0  0  0  0  0  0  0  0  0  0  0  0
  -30.4100  -15.6860   21.7430 N   0  0  0  0  0  0  0  0  0  0  0  0
  -29.5130  -15.4520   22.1440 H   0  0  0  0  0  0  0  0  0  0  0  0
  -25.4950  -14.1260   20.7000 C   0  0  0  0  0  0  0  0  0  0  0  0
  -24.4340  -13.3210   21.0200 C   0  0  0  0  0  0  0  0  0  0  0  0
  -24.9250  -11.9810   20.9660 C   0  0  0  0  0  0  0  0  0  0  0  0
  -26.5650  -13.2740   20.4800 N   0  0  0  0  0  0  0  0  0  0  0  0
  -26.2230  -11.9780   20.6950 N   0  0  0  0  0  0  0  0  0  0  0  0
  -24.2210  -10.6980   21.0980 C   0  0  0  0  0  0  0  0  0  0  0  0
  -24.6260   -9.7270   22.0400 C   0  0  0  0  0  3  0  0  0  0  0  0
  -23.9230   -8.5080   22.1600 C   0  0  0  0  0  3  0  0  0  0  0  0
  -22.8000   -8.2530   21.3370 C   0  0  0  0  0  0  0  0  0  0  0  0
  -22.4150   -9.2140   20.3860 C   0  0  0  0  0  3  0  0  0  0  0  0
  -23.1190  -10.4230   20.2640 C   0  0  0  0  0  3  0  0  0  0  0  0
  -22.0720   -7.0880   21.3670 O   0  0  0  0  0  0  0  0  0  0  0  0
  -21.9470   -6.3460   22.5140 C   0  0  0  0  0  0  0  0  0  0  0  0
  -21.3870   -6.8850   23.6920 C   0  0  0  0  0  3  0  0  0  0  0  0
  -21.2120   -6.0670   24.8260 C   0  0  0  0  0  3  0  0  0  0  0  0
  -21.5890   -4.7120   24.7820 C   0  0  0  0  0  0  0  0  0  0  0  0
  -22.1420   -4.1720   23.6080 C   0  0  0  0  0  3  0  0  0  0  0  0
  -22.3170   -4.9870   22.4760 C   0  0  0  0  0  0  0  0  0  0  0  0
  -22.8320   -4.4560   21.3400 F   0  0  0  0  0  0  0  0  0  0  0  0
  -21.4150   -3.9230   25.8700 F   0  0  0  0  0  0  0  0  0  0  0  0
  -23.0180  -13.7610   21.2620 C   0  0  0  0  0  0  0  0  0  0  0  0
  -22.2800  -13.0270   22.0870 N   0  0  0  0  0  0  0  0  0  0  0  0
  -22.5730  -14.7890   20.7550 O   0  0  0  0  0  0  0  0  0  0  0  0
  -22.6530  -12.1940   22.5210 H   0  0  0  0  0  0  0  0  0  0  0  0
  -21.3300  -13.3020   22.2900 H   0  0  0  0  0  0  0  0  0  0  0  0
  -25.6350  -15.5040   20.5550 N   0  0  0  0  0  0  0  0  0  0  0  0
  -24.8370  -16.1260   20.6140 H   0  0  0  0  0  0  0  0  0  0  0  0
  -26.4490  -15.9500   20.1430 H   0  0  0  0  0  0  0  0  0  0  0  0
  2  1  1  0
  2  3  1  0
  4  3  1  0
  5  6  2  0
  6  8  1  0
  6  9  1  0
  7  5  1  0
  7  4  1  0
 10  7  1  0
 11  5  1  0
 12 14  1  0
 12 11  1  0
 13 24  2  0
 14 19  1  0
 15 23  1  0
 15 25  1  0
 16 22  1  0
 16 18  1  0
 17 23  1  0
 18 17  1  0
 19 18  2  0
 20 21  1  0
 20 14  2  0
 21 16  2  0
 22 15  1  0
 23 13  1  0
 25 27  2  0
 26 25  1  0
 28 26  1  0
 29 38  2  0
 29 34  1  0
 30 26  1  0
 30 34  1  0
 31 30  1  0
 32 33  1  0
 32 31  1  0
 33 29  1  0
 34 35  2  0
 35 36  1  0
 37 36  2  0
 38 37  1  0
 39 13  1  0
 39 44  1  0
 39 40  1  0
 40 43  1  1
 40 41  1  0
 42 40  1  0
 44 47  1  0
 45 49  1  0
 45 44  1  0
 46 45  2  0
 49 48  1  0
 51 49  1  0
 51 52  1  0
 51 50  1  0
 53 54  1  0
 53 61  1  0
 53  1  1  0
 55 56  1  0
 55 54  1  0
 56 58  2  0
 57 60  1  0
 57 56  1  0
 59 57  1  0
 61 62  1  0
 61 66  1  0
 62 65  1  0
 62 63  1  0
 64 62  1  0
 67 75  1  0
 68 73  1  0
 69 70  1  0
 69 68  1  0
 71 70  1  0
 71 80  1  0
 71 72  1  0
 73 67  1  0
 73 72  1  0
 74 67  2  0
 75 76  1  0
 75 66  1  0
 77 78  2  0
 78 97  1  0
 79 78  1  0
 79 82  1  0
 80 81  1  0
 80 77  1  0
 81 79  2  0
 82 83  1  0
 83 84  2  0
 85 88  1  0
 85 84  1  0
 86 85  2  0
 87 86  1  0
 87 82  2  0
 88 89  1  0
 89 90  1  0
 90 91  2  0
 92 91  1  0
 92 96  1  0
 93 92  2  0
 94 89  2  0
 94 93  1  0
 95 94  1  0
 97 98  1  0
 98101  1  0
 98100  1  0
 99 97  2  0
102103  1  0
102 77  1  0
104102  1  0
M  ISO  4  11 101  12 101  67 100  75 100
M  END
>  <TORSDO>  (54) 
F 28

>  <SCORE>  (54) 
-9.866

>  <name>  (54) 
53

>  <ligand_id>  (54) 
53

>  <original_smiles>  (54) 
[H]c1c([H])c([H])c2c(c1[H])C([H])([H])C([H])([H])C([H])([H])C2([H])N([H])C(=O)C1([H])N(C(=O)C([H])(N([H])C(=O)C([H])(N([H])C([H])([H])[H])C([H])([H])[H])C(C([H])([H])[H])(C([H])([H])[H])C([H])([H])[H])C([H])([H])c2c([H])c(OC([H])([H])C(N([H])[H])=[N+]([H])C([H])([H])C([H])([H])C([H])([H])C([H])([H])C([H])(C([H])([H])C([H])([H])C(=O)N([H])[H])C([H])(C([H])([H])N([H])C(=O)N3C([H])([H])C([H])([H])C([H])([H])C([H])(n4nc(-c5c([H])c([H])c(Oc6c([H])c([H])c(F)c([H])c6F)c([H])c5[H])c(C(=O)N([H])[H])c4N([H])[H])C3([H])[H])[N+]([H])([H])[H])c([H])c([H])c2C1([H])[H]

>  <smiles>  (54) 
[H]c1c([H])c([H])c2c(c1[H])C([H])([H])C([H])([H])C([H])([H])C2([H])N([H])C(=O)C1([H])N(C(=O)C([H])(N([H])C(=O)C([H])(N([H])C([H])([H])[H])C([H])([H])[H])C(C([H])([H])[H])(C([H])([H])[H])C([H])([H])[H])C([H])([H])c2c([H])c(OC([H])([H])C(N([H])[H])=[N+]([H])C([H])([H])C([H])([H])C([H])([H])C([H])([H])C([H])(C([H])([H])C([H])([H])C(=O)N([H])[H])C([H])(C([H])([H])N([H])C(=O)N3C([H])([H])C([H])([H])C([H])([H])C([H])(n4nc(-c5c([H])c([H])c(Oc6c([H])c([H])c(F)c([H])c6F)c([H])c5[H])c(C(=O)N([H])[H])c4N([H])[H])C3([H])[H])[N+]([H])([H])[H])c([H])c([H])c2C1([H])[H]

$$$$
54:0:0
     RDKit          3D

 95102  0  0  1  0  0  0  0  0999 V2000
  -29.1570  -19.0720   20.3650 C   0  0  0  0  0  3  0  0  0  0  0  0
  -29.6040  -20.6840   20.5120 C   0  0  0  0  0  0  0  0  0  0  0  0
  -28.8160  -21.8470   20.2800 N   0  0  0  0  0  0  0  0  0  0  0  0
  -30.7530  -20.8790   20.9080 O   0  0  0  0  0  0  0  0  0  0  0  0
  -27.8850  -21.6470   19.9370 H   0  0  0  0  0  0  0  0  0  0  0  0
  -29.1160  -23.3930   20.4690 C   0  0  0  0  0  3  0  0  0  0  0  0
  -28.0520  -24.6570   20.1200 C   0  0  0  0  0  3  0  0  0  0  0  0
  -28.3030  -26.1910   20.2740 O   0  0  0  0  0  0  0  0  0  0  0  0
  -24.6100  -31.8740   23.1870 C   0  0  0  0  0  0  0  0  0  0  0  0
  -27.2360  -27.1610   20.1990 C   0  0  0  0  0  0  0  0  0  0  0  0
  -23.4260  -30.4520   21.5610 C   0  0  0  0  0  3  0  0  0  0  0  0
  -24.8910  -28.8820   20.1480 C   0  0  0  0  0  0  0  0  0  0  0  0
  -25.9760  -30.7430   21.3920 C   0  0  0  0  0  2  0  0  0  0  0  0
  -26.0650  -29.3460   20.7540 C   0  0  0  0  0  0  0  0  0  0  0  0
  -27.2380  -28.5000   20.7640 C   0  0  0  0  0  3  0  0  0  0  0  0
  -26.0340  -26.7990   19.5520 C   0  0  0  0  0  3  0  0  0  0  0  0
  -24.8890  -27.6230   19.5300 C   0  0  0  0  0  3  0  0  0  0  0  0
  -23.6540  -29.7660   20.1870 C   0  0  0  0  0  2  0  0  0  0  0  0
  -24.6910  -31.0450   22.1010 N   0  0  0  0  0  0  0  0  0  0  0  0
  -23.5220  -32.1540   23.7110 O   0  0  0  0  0  0  0  0  0  0  0  0
  -22.7580  -29.4450   22.5310 C   0  0  0  0  0  0  0  0  0  0  0  0
  -21.4300  -29.2670   22.4110 N   0  0  0  0  0  0  0  0  0  0  0  0
  -23.4360  -28.8290   23.3570 O   0  0  0  0  0  0  0  0  0  0  0  0
  -20.9400  -29.8180   21.7220 H   0  0  0  0  0  0  0  0  0  0  0  0
  -18.0550  -28.0650   22.9400 C   0  0  0  0  0  0  0  0  0  0  0  0
  -20.6160  -28.3310   23.1910 C   0  0  0  0  0  3  0  0  0  0  0  0
  -20.7160  -26.8980   22.6190 C   0  0  0  0  0  2  0  0  0  0  0  0
  -19.6080  -26.5700   21.6130 C   0  0  0  0  0  2  0  0  0  0  0  0
  -18.2300  -26.7130   22.2670 C   0  0  0  0  0  2  0  0  0  0  0  0
  -19.1750  -28.8300   23.3600 C   0  0  0  0  0  0  0  0  0  0  0  0
  -18.9560  -30.0930   23.9520 C   0  0  0  0  0  3  0  0  0  0  0  0
  -17.6510  -30.5890   24.1310 C   0  0  0  0  0  3  0  0  0  0  0  0
  -16.5460  -29.8190   23.7270 C   0  0  0  0  0  3  0  0  0  0  0  0
  -16.7490  -28.5600   23.1350 C   0  0  0  0  0  3  0  0  0  0  0  0
  -25.8820  -32.5270   23.8090 C   0  0  0  0  0  3  0  0  0  0  0  0
  -26.3990  -31.7740   25.0950 C   0  0  1  0  0  0  0  0  0  0  0  0
  -25.3040  -31.5370   26.1610 C   0  0  0  0  0  1  0  0  0  0  0  0
  -26.9970  -30.3960   24.7230 C   0  0  0  0  0  1  0  0  0  0  0  0
  -27.5410  -32.5820   25.7530 C   0  0  0  0  0  1  0  0  0  0  0  0
  -25.5560  -33.9260   24.1320 N   0  0  0  0  0  0  0  0  0  0  0  0
  -25.8860  -34.9820   23.3760 C   0  0  0  0  0  0  0  0  0  0  0  0
  -26.5650  -34.8820   22.3500 O   0  0  0  0  0  0  0  0  0  0  0  0
  -24.9510  -34.0760   24.9250 H   0  0  0  0  0  0  0  0  0  0  0  0
  -24.1560  -36.7710   23.0020 C   0  0  0  0  0  1  0  0  0  0  0  0
  -25.3870  -36.3680   23.8300 C   0  0  0  0  0  3  0  0  0  0  0  0
  -27.5020  -37.2680   24.6950 C   0  0  0  0  0  1  0  0  0  0  0  0
  -26.4160  -37.4270   23.7310 N   0  0  0  0  0  0  0  0  0  0  0  0
  -26.0030  -38.3450   23.8690 H   0  0  0  0  0  0  0  0  0  0  0  0
  -28.2600  -18.8310   19.1170 C   0  0  0  0  0  2  0  0  0  0  0  0
  -26.9900  -20.6190   17.8040 C   0  0  0  0  0  1  0  0  0  0  0  0
  -25.7020  -18.7610   18.9050 C   0  0  0  0  0  1  0  0  0  0  0  0
  -26.9470  -19.6540   19.0040 C   0  0  0  0  0  3  0  0  0  0  0  0
  -30.2830  -17.7880   20.4770 C   0  0  0  0  0  3  0  0  0  0  0  0
  -30.6660  -15.0230   20.6700 C   0  0  0  0  0  0  0  0  0  0  0  0
  -30.5660  -12.6630   19.7500 C   0  0  0  0  0  2  0  0  0  0  0  0
  -29.7060  -12.6120   18.4690 C   0  0  0  0  0  2  0  0  0  0  0  0
  -28.2190  -12.4180   18.8220 C   0  0  0  0  0  2  0  0  0  0  0  0
  -27.7540  -13.3530   19.9690 C   0  0  0  0  0  3  0  0  0  0  0  0
  -28.7470  -13.3760   21.1500 C   0  0  0  0  0  2  0  0  0  0  0  0
  -30.0480  -13.7740   20.5980 N   0  0  0  0  0  0  0  0  0  0  0  0
  -31.8890  -15.0290   20.5150 O   0  0  0  0  0  0  0  0  0  0  0  0
  -29.9140  -16.2410   20.6880 N   0  0  0  0  0  0  0  0  0  0  0  0
  -28.9250  -16.0780   20.8030 H   0  0  0  0  0  0  0  0  0  0  0  0
  -25.3380  -13.9430   20.5610 C   0  0  0  0  0  0  0  0  0  0  0  0
  -24.2530  -13.1760   20.8830 C   0  0  0  0  0  0  0  0  0  0  0  0
  -24.7160  -11.8250   20.9030 C   0  0  0  0  0  0  0  0  0  0  0  0
  -26.3920  -13.0610   20.3980 N   0  0  0  0  0  0  0  0  0  0  0  0
  -26.0250  -11.7830   20.6710 N   0  0  0  0  0  0  0  0  0  0  0  0
  -23.9760  -10.5690   21.0720 C   0  0  0  0  0  0  0  0  0  0  0  0
  -24.3780   -9.5940   22.0110 C   0  0  0  0  0  3  0  0  0  0  0  0
  -23.6380   -8.4020   22.1690 C   0  0  0  0  0  3  0  0  0  0  0  0
  -22.4810   -8.1750   21.3860 C   0  0  0  0  0  0  0  0  0  0  0  0
  -22.0990   -9.1390   20.4350 C   0  0  0  0  0  3  0  0  0  0  0  0
  -22.8400  -10.3220   20.2770 C   0  0  0  0  0  3  0  0  0  0  0  0
  -21.7140   -7.0380   21.4530 O   0  0  0  0  0  0  0  0  0  0  0  0
  -21.6580   -6.2730   22.5910 C   0  0  0  0  0  0  0  0  0  0  0  0
  -21.2170   -6.8030   23.8230 C   0  0  0  0  0  3  0  0  0  0  0  0
  -21.1090   -5.9660   24.9510 C   0  0  0  0  0  3  0  0  0  0  0  0
  -21.4300   -4.6000   24.8460 C   0  0  0  0  0  0  0  0  0  0  0  0
  -21.8630   -4.0680   23.6200 C   0  0  0  0  0  3  0  0  0  0  0  0
  -21.9730   -4.9030   22.4930 C   0  0  0  0  0  0  0  0  0  0  0  0
  -22.3710   -4.3820   21.3090 F   0  0  0  0  0  0  0  0  0  0  0  0
  -21.3180   -3.7930   25.9280 F   0  0  0  0  0  0  0  0  0  0  0  0
  -22.8440  -13.6610   21.0580 C   0  0  0  0  0  0  0  0  0  0  0  0
  -22.0660  -12.9900   21.9000 N   0  0  0  0  0  0  0  0  0  0  0  0
  -22.4390  -14.6710   20.4820 O   0  0  0  0  0  0  0  0  0  0  0  0
  -22.4060  -12.1750   22.3880 H   0  0  0  0  0  0  0  0  0  0  0  0
  -21.1180  -13.2990   22.0620 H   0  0  0  0  0  0  0  0  0  0  0  0
  -25.5130  -15.3090   20.3650 N   0  0  0  0  0  0  0  0  0  0  0  0
  -24.7320  -15.9550   20.3970 H   0  0  0  0  0  0  0  0  0  0  0  0
  -26.3630  -15.7330   20.0230 H   0  0  0  0  0  0  0  0  0  0  0  0
  -31.1060  -16.9370   18.1510 C   0  0  0  0  0  1  0  0  0  0  0  0
  -31.2890  -17.9650   19.2860 C   0  0  0  0  0  3  0  0  0  0  0  0
  -33.7380  -18.4780   18.6220 C   0  0  0  0  0  1  0  0  0  0  0  0
  -32.7580  -18.1080   19.7460 C   0  0  0  0  0  2  0  0  0  0  0  0
  1 49  1  0
  1 53  1  0
  1  2  1  0
  2  4  2  0
  3  6  1  0
  3  2  1  0
  5  3  1  0
  7  8  1  0
  7  6  2  0
  9 20  2  0
 10  8  1  0
 10 15  1  0
 11 19  1  0
 11 21  1  0
 12 18  1  0
 12 14  1  0
 13 19  1  0
 14 15  2  0
 14 13  1  0
 16 10  2  0
 17 16  1  0
 17 12  2  0
 18 11  1  0
 19  9  1  0
 21 23  2  0
 22 21  1  0
 24 22  1  0
 25 34  2  0
 25 30  1  0
 26 22  1  0
 26 30  1  0
 27 26  1  0
 28 29  1  0
 28 27  1  0
 29 25  1  0
 30 31  2  0
 31 32  1  0
 33 32  2  0
 34 33  1  0
 35  9  1  0
 35 40  1  0
 35 36  1  0
 36 39  1  1
 36 37  1  0
 38 36  1  0
 40 43  1  0
 41 45  1  0
 41 40  1  0
 42 41  2  0
 45 44  1  0
 47 45  1  0
 47 48  1  0
 47 46  1  0
 50 52  1  0
 51 52  1  0
 52 49  1  0
 53 62  1  0
 54 62  1  0
 55 60  1  0
 56 57  1  0
 56 55  1  0
 58 57  1  0
 58 67  1  0
 58 59  1  0
 60 54  1  0
 60 59  1  0
 61 54  2  0
 62 63  1  0
 64 65  2  0
 65 66  1  0
 65 84  1  0
 66 69  1  0
 67 64  1  0
 67 68  1  0
 68 66  2  0
 69 70  1  0
 70 71  2  0
 72 75  1  0
 72 71  1  0
 73 72  2  0
 74 73  1  0
 74 69  2  0
 75 76  1  0
 76 77  1  0
 77 78  2  0
 79 78  1  0
 79 83  1  0
 80 79  2  0
 81 76  2  0
 81 80  1  0
 82 81  1  0
 84 85  1  0
 85 88  1  0
 85 87  1  0
 86 84  2  0
 89 90  1  0
 89 64  1  0
 91 89  1  0
 93 92  1  0
 93 95  1  0
 93 53  1  0
 94 95  1  0
M  ISO  4   7 101   8 101  54 100  62 100
M  END
>  <TORSDO>  (55) 
F 24

>  <SCORE>  (55) 
-12.404

>  <name>  (55) 
54

>  <ligand_id>  (55) 
54

>  <original_smiles>  (55) 
[H]c1c([H])c([H])c2c(c1[H])C([H])([H])C([H])([H])C([H])([H])C2([H])N([H])C(=O)C1([H])N(C(=O)C([H])(N([H])C(=O)C([H])(N([H])C([H])([H])[H])C([H])([H])[H])C(C([H])([H])[H])(C([H])([H])[H])C([H])([H])[H])C([H])([H])c2c([H])c(OC([H])([H])C([H])([H])N([H])C(=O)C([H])(C([H])([H])C([H])(C([H])([H])[H])C([H])([H])[H])C([H])(N([H])C(=O)N3C([H])([H])C([H])([H])C([H])([H])C([H])(n4nc(-c5c([H])c([H])c(Oc6c([H])c([H])c(F)c([H])c6F)c([H])c5[H])c(C(=O)N([H])[H])c4N([H])[H])C3([H])[H])C([H])(C([H])([H])[H])C([H])([H])C([H])([H])[H])c([H])c([H])c2C1([H])[H]

>  <smiles>  (55) 
[H]c1c([H])c([H])c2c(c1[H])C([H])([H])C([H])([H])C([H])([H])C2([H])N([H])C(=O)C1([H])N(C(=O)C([H])(N([H])C(=O)C([H])(N([H])C([H])([H])[H])C([H])([H])[H])C(C([H])([H])[H])(C([H])([H])[H])C([H])([H])[H])C([H])([H])c2c([H])c(OC([H])([H])C([H])([H])N([H])C(=O)C([H])(C([H])([H])C([H])(C([H])([H])[H])C([H])([H])[H])C([H])(N([H])C(=O)N3C([H])([H])C([H])([H])C([H])([H])C([H])(n4nc(-c5c([H])c([H])c(Oc6c([H])c([H])c(F)c([H])c6F)c([H])c5[H])c(C(=O)N([H])[H])c4N([H])[H])C3([H])[H])C([H])(C([H])([H])[H])C([H])([H])C([H])([H])[H])c([H])c([H])c2C1([H])[H]

$$$$
55:0:0
     RDKit          3D

100108  0  0  1  0  0  0  0  0999 V2000
  -30.3570  -22.2150   19.2890 C   0  0  0  0  0  2  0  0  0  0  0  0
  -30.8650  -20.7340   19.2960 C   0  0  0  0  0  2  0  0  0  0  0  0
  -30.2250  -21.3220   21.4780 C   0  0  0  0  0  2  0  0  0  0  0  0
  -29.5670  -22.4620   20.5940 C   0  0  0  0  0  3  0  0  0  0  0  0
  -30.4640  -20.1210   20.5870 N   0  0  2  0  0  4  0  0  0  0  0  0
  -29.5340  -19.7510   20.4510 H   0  0  0  0  0  0  0  0  0  0  0  0
  -31.2390  -18.8820   21.0960 C   0  0  0  0  0  3  0  0  0  0  0  0
  -30.5110  -18.3360   22.3260 C   0  0  0  0  0  0  0  0  0  0  0  0
  -31.3360  -18.2110   23.5900 C   0  0  0  0  0  1  0  0  0  0  0  0
  -29.2860  -18.0180   22.2890 N   0  0  0  0  0  0  0  0  0  0  0  0
  -28.9510  -17.6680   23.1800 H   0  0  0  0  0  0  0  0  0  0  0  0
  -31.5310  -17.6790   20.0340 C   0  0  0  0  0  3  0  0  0  0  0  0
  -32.1050  -15.0870   20.1330 C   0  0  0  0  0  0  0  0  0  0  0  0
  -31.6860  -12.9290   18.9570 C   0  0  0  0  0  2  0  0  0  0  0  0
  -30.7770  -13.1950   17.7350 C   0  0  0  0  0  2  0  0  0  0  0  0
  -29.2870  -13.2090   18.1350 C   0  0  0  0  0  2  0  0  0  0  0  0
  -29.0040  -14.0130   19.4320 C   0  0  0  0  0  3  0  0  0  0  0  0
  -30.0290  -13.6900   20.5440 C   0  0  0  0  0  2  0  0  0  0  0  0
  -31.3710  -13.9330   19.9960 N   0  0  0  0  0  0  0  0  0  0  0  0
  -33.2710  -15.1450   19.7380 O   0  0  0  0  0  0  0  0  0  0  0  0
  -31.4120  -16.2220   20.4960 N   0  0  0  0  0  0  0  0  0  0  0  0
  -30.5050  -15.9940   20.8740 H   0  0  0  0  0  0  0  0  0  0  0  0
  -26.6440  -14.7950   20.0790 C   0  0  0  0  0  0  0  0  0  0  0  0
  -25.5160  -14.1100   20.4410 C   0  0  0  0  0  0  0  0  0  0  0  0
  -25.8810  -12.7290   20.4550 C   0  0  0  0  0  0  0  0  0  0  0  0
  -27.6280  -13.8380   19.8910 N   0  0  0  0  0  0  0  0  0  0  0  0
  -27.1720  -12.5910   20.1800 N   0  0  0  0  0  0  0  0  0  0  0  0
  -25.0610  -11.5280   20.6590 C   0  0  0  0  0  0  0  0  0  0  0  0
  -25.3940  -10.5600   21.6300 C   0  0  0  0  0  3  0  0  0  0  0  0
  -24.5800   -9.4230   21.8180 C   0  0  0  0  0  3  0  0  0  0  0  0
  -23.4160   -9.2460   21.0330 C   0  0  0  0  0  0  0  0  0  0  0  0
  -23.1000  -10.2010   20.0510 C   0  0  0  0  0  3  0  0  0  0  0  0
  -23.9150  -11.3290   19.8620 C   0  0  0  0  0  3  0  0  0  0  0  0
  -22.5780   -8.1610   21.1290 O   0  0  0  0  0  0  0  0  0  0  0  0
  -22.3760   -7.5100   22.3200 C   0  0  0  0  0  0  0  0  0  0  0  0
  -21.9290   -8.1920   23.4730 C   0  0  0  0  0  3  0  0  0  0  0  0
  -21.6670   -7.4740   24.6580 C   0  0  0  0  0  3  0  0  0  0  0  0
  -21.8410   -6.0770   24.6870 C   0  0  0  0  0  0  0  0  0  0  0  0
  -22.2810   -5.3960   23.5390 C   0  0  0  0  0  3  0  0  0  0  0  0
  -22.5440   -6.1110   22.3570 C   0  0  0  0  0  0  0  0  0  0  0  0
  -22.9480   -5.4480   21.2470 F   0  0  0  0  0  0  0  0  0  0  0  0
  -21.5820   -5.3850   25.8230 F   0  0  0  0  0  0  0  0  0  0  0  0
  -24.1520  -14.6950   20.6660 C   0  0  0  0  0  0  0  0  0  0  0  0
  -23.3670  -14.0960   21.5540 N   0  0  0  0  0  0  0  0  0  0  0  0
  -23.7910  -15.7190   20.0880 O   0  0  0  0  0  0  0  0  0  0  0  0
  -23.6690  -13.2670   22.0430 H   0  0  0  0  0  0  0  0  0  0  0  0
  -22.4500  -14.4750   21.7490 H   0  0  0  0  0  0  0  0  0  0  0  0
  -26.9070  -16.1450   19.8730 N   0  0  0  0  0  0  0  0  0  0  0  0
  -26.1820  -16.8500   19.9610 H   0  0  0  0  0  0  0  0  0  0  0  0
  -27.7940  -16.5290   19.5790 H   0  0  0  0  0  0  0  0  0  0  0  0
  -30.6100  -17.8260   18.7900 C   0  0  0  0  0  2  0  0  0  0  0  0
  -31.3110  -17.6530   17.4320 C   0  0  0  0  0  2  0  0  0  0  0  0
  -30.0730  -19.6230   16.3470 C   0  0  0  0  0  1  0  0  0  0  0  0
  -31.1980  -17.8890   14.9050 C   0  0  0  0  0  1  0  0  0  0  0  0
  -30.4690  -18.1410   16.2340 C   0  0  0  0  0  3  0  0  0  0  0  0
  -29.4620  -24.0060   21.1000 C   0  0  0  0  0  3  0  0  0  0  0  0
  -29.0440  -25.3990   23.2750 C   0  0  0  0  0  1  0  0  0  0  0  0
  -28.9730  -24.0330   22.5720 C   0  0  0  0  0  2  0  0  0  0  0  0
  -28.5430  -24.9850   20.2110 C   0  0  0  0  0  2  0  0  0  0  0  0
  -28.6360  -26.4760   20.3210 O   0  0  0  0  0  0  0  0  0  0  0  0
  -24.6270  -31.7980   23.1160 C   0  0  0  0  0  0  0  0  0  0  0  0
  -27.4850  -27.2840   20.1980 C   0  0  0  0  0  0  0  0  0  0  0  0
  -23.5150  -30.3180   21.4840 C   0  0  0  0  0  3  0  0  0  0  0  0
  -25.0550  -28.8100   20.1080 C   0  0  0  0  0  0  0  0  0  0  0  0
  -26.0420  -30.7370   21.3430 C   0  0  0  0  0  2  0  0  0  0  0  0
  -26.1910  -29.3510   20.7230 C   0  0  0  0  0  0  0  0  0  0  0  0
  -27.4050  -28.5990   20.7620 C   0  0  0  0  0  3  0  0  0  0  0  0
  -26.3290  -26.8160   19.5290 C   0  0  0  0  0  3  0  0  0  0  0  0
  -25.1300  -27.5490   19.5000 C   0  0  0  0  0  3  0  0  0  0  0  0
  -23.7820  -29.6320   20.1190 C   0  0  0  0  0  2  0  0  0  0  0  0
  -24.7450  -30.9720   22.0360 N   0  0  0  0  0  0  0  0  0  0  0  0
  -23.5230  -32.0390   23.6270 O   0  0  0  0  0  0  0  0  0  0  0  0
  -22.8810  -29.2900   22.4510 C   0  0  0  0  0  0  0  0  0  0  0  0
  -21.5660  -29.0490   22.3050 N   0  0  0  0  0  0  0  0  0  0  0  0
  -23.5720  -28.7120   23.2940 O   0  0  0  0  0  0  0  0  0  0  0  0
  -21.0670  -29.5710   21.5980 H   0  0  0  0  0  0  0  0  0  0  0  0
  -18.2370  -27.7140   22.7720 C   0  0  0  0  0  0  0  0  0  0  0  0
  -20.7760  -28.0940   23.0820 C   0  0  0  0  0  3  0  0  0  0  0  0
  -20.9510  -26.6560   22.5410 C   0  0  0  0  0  2  0  0  0  0  0  0
  -19.8850  -26.2630   21.5140 C   0  0  0  0  0  2  0  0  0  0  0  0
  -18.4850  -26.3600   22.1270 C   0  0  0  0  0  2  0  0  0  0  0  0
  -19.3120  -28.5340   23.2040 C   0  0  0  0  0  0  0  0  0  0  0  0
  -19.0250  -29.7990   23.7640 C   0  0  0  0  0  3  0  0  0  0  0  0
  -17.6960  -30.2420   23.8970 C   0  0  0  0  0  3  0  0  0  0  0  0
  -16.6360  -29.4200   23.4800 C   0  0  0  0  0  3  0  0  0  0  0  0
  -16.9060  -28.1570   22.9220 C   0  0  0  0  0  3  0  0  0  0  0  0
  -25.8700  -32.4980   23.7460 C   0  0  0  0  0  3  0  0  0  0  0  0
  -26.4320  -31.7420   25.0140 C   0  0  1  0  0  0  0  0  0  0  0  0
  -25.3550  -31.4230   26.0770 C   0  0  0  0  0  1  0  0  0  0  0  0
  -27.1020  -30.4080   24.6070 C   0  0  0  0  0  1  0  0  0  0  0  0
  -27.5280  -32.5990   25.6880 C   0  0  0  0  0  1  0  0  0  0  0  0
  -25.4770  -33.8700   24.0960 N   0  0  0  0  0  0  0  0  0  0  0  0
  -25.7670  -34.9560   23.3670 C   0  0  0  0  0  0  0  0  0  0  0  0
  -26.4640  -34.9110   22.3490 O   0  0  0  0  0  0  0  0  0  0  0  0
  -24.8620  -33.9740   24.8890 H   0  0  0  0  0  0  0  0  0  0  0  0
  -23.9560  -36.6630   23.0000 C   0  0  0  0  0  1  0  0  0  0  0  0
  -25.1930  -36.3060   23.8400 C   0  0  0  0  0  3  0  0  0  0  0  0
  -27.2570  -37.2810   24.7470 C   0  0  0  0  0  1  0  0  0  0  0  0
  -26.1700  -37.4140   23.7790 N   0  0  0  0  0  0  0  0  0  0  0  0
  -25.7120  -38.3080   23.9370 H   0  0  0  0  0  0  0  0  0  0  0  0
  1  2  1  0
  1  4  1  0
  2  5  1  0
  4 56  1  0
  4  3  1  0
  5  7  1  0
  5  3  1  0
  5  6  1  6
  7  8  1  0
  8  9  1  0
 10  8  2  0
 10 11  1  0
 12 51  1  0
 12 21  1  0
 12  7  1  0
 13 21  1  0
 14 19  1  0
 15 16  1  0
 15 14  1  0
 17 16  1  0
 17 26  1  0
 17 18  1  0
 19 13  1  0
 19 18  1  0
 20 13  2  0
 21 22  1  0
 23 24  2  0
 24 25  1  0
 24 43  1  0
 25 28  1  0
 26 23  1  0
 26 27  1  0
 27 25  2  0
 28 29  1  0
 29 30  2  0
 31 34  1  0
 31 30  1  0
 32 31  2  0
 33 32  1  0
 33 28  2  0
 34 35  1  0
 35 40  2  0
 35 36  1  0
 36 37  2  0
 37 38  1  0
 38 42  1  0
 39 38  2  0
 40 39  1  0
 41 40  1  0
 43 44  1  0
 44 47  1  0
 44 46  1  0
 45 43  2  0
 48 49  1  0
 48 23  1  0
 50 48  1  0
 52 51  1  0
 54 55  1  0
 55 53  1  0
 55 52  1  0
 56 59  1  0
 56 58  1  0
 58 57  1  0
 59 60  1  0
 61 72  2  0
 62 60  1  0
 62 67  1  0
 63 71  1  0
 63 73  1  0
 64 70  1  0
 64 66  1  0
 65 71  1  0
 66 67  2  0
 66 65  1  0
 68 62  2  0
 69 68  1  0
 69 64  2  0
 70 63  1  0
 71 61  1  0
 73 75  2  0
 74 73  1  0
 76 74  1  0
 77 86  2  0
 77 82  1  0
 78 74  1  0
 78 82  1  0
 79 78  1  0
 80 81  1  0
 80 79  1  0
 81 77  1  0
 82 83  2  0
 83 84  1  0
 85 84  2  0
 86 85  1  0
 87 61  1  0
 87 92  1  0
 87 88  1  0
 88 91  1  1
 88 89  1  0
 90 88  1  0
 92 95  1  0
 93 97  1  0
 93 92  1  0
 94 93  2  0
 97 96  1  0
 99 97  1  0
 99100  1  0
 99 98  1  0
M  ISO  4  13 100  21 100  59 101  60 101
M  END
>  <TORSDO>  (56) 
F 25

>  <SCORE>  (56) 
-8.673

>  <name>  (56) 
55

>  <ligand_id>  (56) 
55

>  <original_smiles>  (56) 
[H]N=C(C([H])([H])[H])C([H])(C([H])(N([H])C(=O)N1C([H])([H])C([H])([H])C([H])([H])C([H])(n2nc(-c3c([H])c([H])c(Oc4c([H])c([H])c(F)c([H])c4F)c([H])c3[H])c(C(=O)N([H])[H])c2N([H])[H])C1([H])[H])C([H])([H])C([H])([H])C([H])(C([H])([H])[H])C([H])([H])[H])[N+]1([H])C([H])([H])C([H])([H])C([H])(C([H])(C([H])([H])Oc2c([H])c([H])c3c(c2[H])C([H])([H])N(C(=O)C([H])(N([H])C(=O)C([H])(N([H])C([H])([H])[H])C([H])([H])[H])C(C([H])([H])[H])(C([H])([H])[H])C([H])([H])[H])C([H])(C(=O)N([H])C2([H])c4c([H])c([H])c([H])c([H])c4C([H])([H])C([H])([H])C2([H])[H])C3([H])[H])C([H])([H])C([H])([H])[H])C1([H])[H]

>  <smiles>  (56) 
[H]N=C(C([H])([H])[H])C([H])(C([H])(N([H])C(=O)N1C([H])([H])C([H])([H])C([H])([H])C([H])(n2nc(-c3c([H])c([H])c(Oc4c([H])c([H])c(F)c([H])c4F)c([H])c3[H])c(C(=O)N([H])[H])c2N([H])[H])C1([H])[H])C([H])([H])C([H])([H])C([H])(C([H])([H])[H])C([H])([H])[H])[N+]1([H])C([H])([H])C([H])([H])C([H])(C([H])(C([H])([H])Oc2c([H])c([H])c3c(c2[H])C([H])([H])N(C(=O)C([H])(N([H])C(=O)C([H])(N([H])C([H])([H])[H])C([H])([H])[H])C(C([H])([H])[H])(C([H])([H])[H])C([H])([H])[H])C([H])(C(=O)N([H])C2([H])c4c([H])c([H])c([H])c([H])c4C([H])([H])C([H])([H])C2([H])[H])C3([H])[H])C([H])([H])C([H])([H])[H])C1([H])[H]

$$$$
56:0:0
     RDKit          3D

104112  0  0  1  0  0  0  0  0999 V2000
  -28.4540  -21.7560   19.5600 C   0  0  0  0  0  3  0  0  0  0  0  0
  -25.6610  -23.8960   21.1580 C   0  0  0  0  0  2  0  0  0  0  0  0
  -26.4900  -24.7100   22.1550 C   0  0  0  0  0  2  0  0  0  0  0  0
  -26.4000  -22.6130   20.7620 C   0  0  0  0  0  2  0  0  0  0  0  0
  -28.5890  -23.7250   21.1370 C   0  0  0  0  0  2  0  0  0  0  0  0
  -27.8810  -25.0440   21.5670 C   0  0  0  0  0  3  0  0  0  0  0  0
  -27.7500  -22.9130   20.2060 N   0  0  1  0  0  4  0  0  0  0  0  0
  -27.5850  -23.5280   19.4220 H   0  0  0  0  0  0  0  0  0  0  0  0
  -28.0070  -26.6750   23.6200 C   0  0  0  0  0  1  0  0  0  0  0  0
  -28.7730  -25.9290   22.5020 C   0  0  0  0  0  3  0  0  0  0  0  0
  -29.7280  -26.8880   21.7300 C   0  0  0  0  0  2  0  0  0  0  0  0
  -29.2490  -27.3350   20.4560 O   0  0  0  0  0  0  0  0  0  0  0  0
  -24.8340  -31.9990   23.5620 C   0  0  0  0  0  0  0  0  0  0  0  0
  -28.0660  -28.0310   20.4310 C   0  0  0  0  0  0  0  0  0  0  0  0
  -23.8790  -30.6420   21.7250 C   0  0  0  0  0  3  0  0  0  0  0  0
  -25.5640  -29.3310   20.3290 C   0  0  0  0  0  0  0  0  0  0  0  0
  -26.3710  -31.2070   21.7710 C   0  0  0  0  0  2  0  0  0  0  0  0
  -26.6200  -29.8990   21.0540 C   0  0  0  0  0  0  0  0  0  0  0  0
  -27.8760  -29.2580   21.1070 C   0  0  0  0  0  3  0  0  0  0  0  0
  -27.0040  -27.4810   19.6880 C   0  0  0  0  0  3  0  0  0  0  0  0
  -25.7490  -28.1160   19.6430 C   0  0  0  0  0  3  0  0  0  0  0  0
  -24.2530  -30.0840   20.3250 C   0  0  0  0  0  2  0  0  0  0  0  0
  -25.0410  -31.2930   22.4140 N   0  0  0  0  0  0  0  0  0  0  0  0
  -23.6950  -32.1520   24.0230 O   0  0  0  0  0  0  0  0  0  0  0  0
  -23.2350  -29.5060   22.5520 C   0  0  0  0  0  0  0  0  0  0  0  0
  -21.9350  -29.2630   22.3200 N   0  0  0  0  0  0  0  0  0  0  0  0
  -23.9040  -28.8510   23.3570 O   0  0  0  0  0  0  0  0  0  0  0  0
  -21.4570  -29.8490   21.6510 H   0  0  0  0  0  0  0  0  0  0  0  0
  -18.5970  -27.9010   22.5420 C   0  0  0  0  0  0  0  0  0  0  0  0
  -21.1290  -28.2200   22.9520 C   0  0  0  0  0  3  0  0  0  0  0  0
  -21.3140  -26.8630   22.2330 C   0  0  0  0  0  2  0  0  0  0  0  0
  -20.2660  -26.6120   21.1420 C   0  0  0  0  0  2  0  0  0  0  0  0
  -18.8550  -26.6380   21.7370 C   0  0  0  0  0  2  0  0  0  0  0  0
  -19.6660  -28.6520   23.0990 C   0  0  0  0  0  0  0  0  0  0  0  0
  -19.3740  -29.8380   23.8070 C   0  0  0  0  0  3  0  0  0  0  0  0
  -18.0450  -30.2710   23.9660 C   0  0  0  0  0  3  0  0  0  0  0  0
  -16.9890  -29.5160   23.4280 C   0  0  0  0  0  3  0  0  0  0  0  0
  -17.2660  -28.3320   22.7210 C   0  0  0  0  0  3  0  0  0  0  0  0
  -26.0130  -32.6690   24.3340 C   0  0  0  0  0  3  0  0  0  0  0  0
  -26.3840  -31.9230   25.6740 C   0  0  1  0  0  0  0  0  0  0  0  0
  -25.1650  -31.6320   26.5800 C   0  0  0  0  0  1  0  0  0  0  0  0
  -27.0810  -30.5750   25.3730 C   0  0  0  0  0  1  0  0  0  0  0  0
  -27.3910  -32.7710   26.4860 C   0  0  0  0  0  1  0  0  0  0  0  0
  -25.6330  -34.0620   24.6010 N   0  0  0  0  0  0  0  0  0  0  0  0
  -26.0250  -35.1110   23.8650 C   0  0  0  0  0  0  0  0  0  0  0  0
  -26.8120  -35.0090   22.9200 O   0  0  0  0  0  0  0  0  0  0  0  0
  -24.9460  -34.2130   25.3250 H   0  0  0  0  0  0  0  0  0  0  0  0
  -24.3020  -36.8450   23.2720 C   0  0  0  0  0  1  0  0  0  0  0  0
  -25.4480  -36.4910   24.2340 C   0  0  0  0  0  3  0  0  0  0  0  0
  -27.4470  -37.4480   25.2920 C   0  0  0  0  0  1  0  0  0  0  0  0
  -26.4580  -37.5720   24.2240 N   0  0  0  0  0  0  0  0  0  0  0  0
  -26.0120  -38.4810   24.3100 H   0  0  0  0  0  0  0  0  0  0  0  0
  -28.1650  -23.1560   17.4080 C   0  0  0  0  0  1  0  0  0  0  0  0
  -28.0930  -21.7430   18.0330 C   0  0  0  0  0  3  0  0  0  0  0  0
  -30.4160  -20.9650   17.1190 C   0  0  0  0  0  1  0  0  0  0  0  0
  -28.8910  -20.7610   17.1360 C   0  0  0  0  0  2  0  0  0  0  0  0
  -28.1850  -20.4170   20.3250 C   0  0  0  0  0  2  0  0  0  0  0  0
  -29.2160  -18.1770   19.9400 C   0  0  0  0  0  0  0  0  0  0  0  0
  -29.2960  -19.4630   20.3100 N   0  0  0  0  0  0  0  0  0  0  0  0
  -28.1590  -17.6460   19.5920 O   0  0  0  0  0  0  0  0  0  0  0  0
  -30.2030  -19.8030   20.6000 H   0  0  0  0  0  0  0  0  0  0  0  0
  -30.5130  -17.3590   19.9420 C   0  0  0  0  0  3  0  0  0  0  0  0
  -30.7740  -14.9080   19.5250 C   0  0  0  0  0  0  0  0  0  0  0  0
  -30.7240  -12.4730   19.1310 C   0  0  0  0  0  2  0  0  0  0  0  0
  -29.7580  -12.1180   17.9850 C   0  0  0  0  0  2  0  0  0  0  0  0
  -28.3220  -11.9470   18.5160 C   0  0  0  0  0  2  0  0  0  0  0  0
  -27.8760  -13.1280   19.4160 C   0  0  0  0  0  3  0  0  0  0  0  0
  -28.9500  -13.4450   20.4800 C   0  0  0  0  0  2  0  0  0  0  0  0
  -30.2300  -13.6920   19.7890 N   0  0  0  0  0  0  0  0  0  0  0  0
  -31.7580  -15.0650   18.7970 O   0  0  0  0  0  0  0  0  0  0  0  0
  -30.1700  -15.9460   20.1100 N   0  0  0  0  0  0  0  0  0  0  0  0
  -29.3440  -15.7630   20.6620 H   0  0  0  0  0  0  0  0  0  0  0  0
  -25.5910  -13.7650   20.4220 C   0  0  0  0  0  0  0  0  0  0  0  0
  -24.5420  -13.0040   20.8640 C   0  0  0  0  0  0  0  0  0  0  0  0
  -24.9450  -11.6430   20.6990 C   0  0  0  0  0  0  0  0  0  0  0  0
  -26.5720  -12.8690   20.0250 N   0  0  0  0  0  0  0  0  0  0  0  0
  -26.1900  -11.5840   20.2450 N   0  0  0  0  0  0  0  0  0  0  0  0
  -24.1980  -10.3940   20.8960 C   0  0  0  0  0  0  0  0  0  0  0  0
  -24.6150   -9.4240   21.8330 C   0  0  0  0  0  3  0  0  0  0  0  0
  -23.8710   -8.2390   22.0170 C   0  0  0  0  0  3  0  0  0  0  0  0
  -22.6940   -8.0160   21.2620 C   0  0  0  0  0  0  0  0  0  0  0  0
  -22.2960   -8.9750   20.3150 C   0  0  0  0  0  3  0  0  0  0  0  0
  -23.0410  -10.1520   20.1290 C   0  0  0  0  0  3  0  0  0  0  0  0
  -21.9220   -6.8840   21.3540 O   0  0  0  0  0  0  0  0  0  0  0  0
  -21.7680   -6.2110   22.5400 C   0  0  0  0  0  0  0  0  0  0  0  0
  -21.2050   -6.8280   23.6780 C   0  0  0  0  0  3  0  0  0  0  0  0
  -21.0020   -6.0810   24.8550 C   0  0  0  0  0  3  0  0  0  0  0  0
  -21.3510   -4.7180   24.8950 C   0  0  0  0  0  0  0  0  0  0  0  0
  -21.9060   -4.1010   23.7600 C   0  0  0  0  0  3  0  0  0  0  0  0
  -22.1110   -4.8450   22.5850 C   0  0  0  0  0  0  0  0  0  0  0  0
  -22.6270   -4.2410   21.4870 F   0  0  0  0  0  0  0  0  0  0  0  0
  -21.1480   -3.9970   26.0220 F   0  0  0  0  0  0  0  0  0  0  0  0
  -23.2040  -13.5050   21.3240 C   0  0  0  0  0  0  0  0  0  0  0  0
  -22.5610  -12.7870   22.2380 N   0  0  0  0  0  0  0  0  0  0  0  0
  -22.7400  -14.5660   20.9090 O   0  0  0  0  0  0  0  0  0  0  0  0
  -22.9500  -11.9260   22.5940 H   0  0  0  0  0  0  0  0  0  0  0  0
  -21.6680  -13.1020   22.5880 H   0  0  0  0  0  0  0  0  0  0  0  0
  -25.7860  -15.1380   20.3090 N   0  0  0  0  0  0  0  0  0  0  0  0
  -25.0670  -15.8100   20.5550 H   0  0  0  0  0  0  0  0  0  0  0  0
  -26.6280  -15.5710   19.9510 H   0  0  0  0  0  0  0  0  0  0  0  0
  -31.5490  -17.7780   21.0160 C   0  0  0  0  0  2  0  0  0  0  0  0
  -32.0720  -20.1410   20.1710 C   0  0  0  0  0  1  0  0  0  0  0  0
  -32.5230  -19.5190   22.5710 C   0  0  0  0  0  1  0  0  0  0  0  0
  -31.6080  -19.2830   21.3610 C   0  0  0  0  0  3  0  0  0  0  0  0
  1  7  1  0
  1 57  1  0
  2  3  1  0
  4  2  1  0
  5  6  1  0
  6  3  1  0
  6 10  1  0
  7  4  1  0
  7  5  1  0
  7  8  1  6
 10  9  1  0
 11 10  1  0
 12 11  1  0
 13 24  2  0
 14 12  1  0
 14 19  1  0
 15 23  1  0
 15 25  1  0
 16 18  1  0
 17 23  1  0
 18 19  2  0
 18 17  1  0
 20 14  2  0
 21 20  1  0
 21 16  2  0
 22 16  1  0
 22 15  1  0
 23 13  1  0
 25 27  2  0
 26 25  1  0
 28 26  1  0
 29 38  2  0
 29 34  1  0
 30 26  1  0
 30 34  1  0
 31 30  1  0
 32 33  1  0
 32 31  1  0
 33 29  1  0
 34 35  2  0
 35 36  1  0
 37 36  2  0
 38 37  1  0
 39 13  1  0
 39 44  1  0
 39 40  1  0
 40 43  1  1
 40 41  1  0
 42 40  1  0
 44 47  1  0
 45 49  1  0
 45 44  1  0
 46 45  2  0
 49 48  1  0
 51 49  1  0
 51 52  1  0
 51 50  1  0
 54 53  1  0
 54  1  1  0
 55 56  1  0
 56 54  1  0
 58 62  1  0
 58 59  1  0
 59 57  1  0
 59 61  1  0
 60 58  2  0
 62 71  1  0
 62101  1  0
 63 69  1  0
 63 71  1  0
 64 69  1  0
 65 66  1  0
 65 64  1  0
 67 66  1  0
 67 76  1  0
 67 68  1  0
 69 68  1  0
 70 63  2  0
 71 72  1  0
 73 74  2  0
 74 93  1  0
 75 74  1  0
 75 78  1  0
 76 77  1  0
 76 73  1  0
 77 75  2  0
 78 79  1  0
 79 80  2  0
 81 84  1  0
 81 80  1  0
 82 81  2  0
 83 82  1  0
 83 78  2  0
 84 85  1  0
 85 90  2  0
 85 86  1  0
 86 87  2  0
 87 88  1  0
 88 92  1  0
 89 88  2  0
 90 89  1  0
 91 90  1  0
 93 94  1  0
 94 97  1  0
 94 96  1  0
 95 93  2  0
 98 73  1  0
 98 99  1  0
100 98  1  0
101104  1  0
102104  1  0
104103  1  0
M  ISO  4  11 101  12 101  63 100  71 100
M  END
>  <TORSDO>  (57) 
F 26

>  <SCORE>  (57) 
-11.163

>  <name>  (57) 
56

>  <ligand_id>  (57) 
56

>  <original_smiles>  (57) 
[H]c1c([H])c([H])c2c(c1[H])C([H])([H])C([H])([H])C([H])([H])C2([H])N([H])C(=O)C1([H])N(C(=O)C([H])(N([H])C(=O)C([H])(N([H])C([H])([H])[H])C([H])([H])[H])C(C([H])([H])[H])(C([H])([H])[H])C([H])([H])[H])C([H])([H])c2c([H])c(OC([H])([H])C([H])(C([H])([H])[H])C3([H])C([H])([H])C([H])([H])C([H])([H])[N+]([H])(C([H])(C([H])([H])N([H])C(=O)C([H])(N([H])C(=O)N4C([H])([H])C([H])([H])C([H])([H])C([H])(n5nc(-c6c([H])c([H])c(Oc7c([H])c([H])c(F)c([H])c7F)c([H])c6[H])c(C(=O)N([H])[H])c5N([H])[H])C4([H])[H])C([H])([H])C([H])(C([H])([H])[H])C([H])([H])[H])C([H])(C([H])([H])[H])C([H])([H])C([H])([H])[H])C3([H])[H])c([H])c([H])c2C1([H])[H]

>  <smiles>  (57) 
[H]c1c([H])c([H])c2c(c1[H])C([H])([H])C([H])([H])C([H])([H])C2([H])N([H])C(=O)C1([H])N(C(=O)C([H])(N([H])C(=O)C([H])(N([H])C([H])([H])[H])C([H])([H])[H])C(C([H])([H])[H])(C([H])([H])[H])C([H])([H])[H])C([H])([H])c2c([H])c(OC([H])([H])C([H])(C([H])([H])[H])C3([H])C([H])([H])C([H])([H])C([H])([H])[N+]([H])(C([H])(C([H])([H])N([H])C(=O)C([H])(N([H])C(=O)N4C([H])([H])C([H])([H])C([H])([H])C([H])(n5nc(-c6c([H])c([H])c(Oc7c([H])c([H])c(F)c([H])c7F)c([H])c6[H])c(C(=O)N([H])[H])c5N([H])[H])C4([H])[H])C([H])([H])C([H])(C([H])([H])[H])C([H])([H])[H])C([H])(C([H])([H])[H])C([H])([H])C([H])([H])[H])C3([H])[H])c([H])c([H])c2C1([H])[H]

$$$$
57:0:0
     RDKit          3D

104112  0  0  1  0  0  0  0  0999 V2000
  -27.8960  -23.6720   16.4320 C   0  0  0  0  0  2  0  0  0  0  0  0
  -28.8890  -23.9130   17.6130 C   0  0  0  0  0  3  0  0  0  0  0  0
  -33.0310  -22.2410   17.5260 C   0  0  0  0  0  2  0  0  0  0  0  0
  -32.8350  -23.6700   18.0410 C   0  0  0  0  0  2  0  0  0  0  0  0
  -32.1030  -21.9710   16.3380 C   0  0  0  0  0  2  0  0  0  0  0  0
  -31.3660  -23.9360   18.4110 C   0  0  0  0  0  2  0  0  0  0  0  0
  -30.6350  -22.2250   16.7140 C   0  0  0  0  0  2  0  0  0  0  0  0
  -30.3870  -23.6650   17.2350 C   0  0  0  0  0  3  0  0  0  0  0  0
  -28.6720  -25.3150   18.2200 C   0  0  0  0  0  0  0  0  0  0  0  0
  -28.7350  -26.3300   17.5190 O   0  0  0  0  0  0  0  0  0  0  0  0
  -28.3960  -25.3850   19.7330 C   0  0  0  0  0  2  0  0  0  0  0  0
  -28.3430  -26.7340   20.2100 O   0  0  0  0  0  0  0  0  0  0  0  0
  -24.5400  -31.9000   23.2640 C   0  0  0  0  0  0  0  0  0  0  0  0
  -27.1410  -27.4110   20.2140 C   0  0  0  0  0  0  0  0  0  0  0  0
  -23.3190  -30.5040   21.6260 C   0  0  0  0  0  3  0  0  0  0  0  0
  -24.7550  -28.9320   20.2260 C   0  0  0  0  0  0  0  0  0  0  0  0
  -25.8500  -30.8260   21.4370 C   0  0  0  0  0  2  0  0  0  0  0  0
  -25.9170  -29.4490   20.8110 C   0  0  0  0  0  0  0  0  0  0  0  0
  -27.1090  -28.6950   20.8060 C   0  0  0  0  0  3  0  0  0  0  0  0
  -25.9530  -26.8980   19.6410 C   0  0  0  0  0  3  0  0  0  0  0  0
  -24.7660  -27.6520   19.6450 C   0  0  0  0  0  3  0  0  0  0  0  0
  -23.5240  -29.8080   20.2550 C   0  0  0  0  0  2  0  0  0  0  0  0
  -24.5880  -31.0910   22.1680 N   0  0  0  0  0  0  0  0  0  0  0  0
  -23.4600  -32.1930   23.7970 O   0  0  0  0  0  0  0  0  0  0  0  0
  -22.6500  -29.4980   22.5900 C   0  0  0  0  0  0  0  0  0  0  0  0
  -21.3250  -29.3340   22.4540 N   0  0  0  0  0  0  0  0  0  0  0  0
  -23.3210  -28.8700   23.4130 O   0  0  0  0  0  0  0  0  0  0  0  0
  -20.8470  -29.8940   21.7620 H   0  0  0  0  0  0  0  0  0  0  0  0
  -17.9290  -28.2070   22.9410 C   0  0  0  0  0  0  0  0  0  0  0  0
  -20.4880  -28.4140   23.2250 C   0  0  0  0  0  3  0  0  0  0  0  0
  -20.5660  -26.9800   22.6550 C   0  0  0  0  0  2  0  0  0  0  0  0
  -19.4640  -26.6750   21.6360 C   0  0  0  0  0  2  0  0  0  0  0  0
  -18.0820  -26.8520   22.2710 C   0  0  0  0  0  2  0  0  0  0  0  0
  -19.0590  -28.9470   23.3750 C   0  0  0  0  0  0  0  0  0  0  0  0
  -18.8630  -30.2180   23.9580 C   0  0  0  0  0  3  0  0  0  0  0  0
  -17.5690  -30.7480   24.1140 C   0  0  0  0  0  3  0  0  0  0  0  0
  -16.4510  -30.0020   23.6980 C   0  0  0  0  0  3  0  0  0  0  0  0
  -16.6320  -28.7340   23.1180 C   0  0  0  0  0  3  0  0  0  0  0  0
  -25.8320  -32.5140   23.8860 C   0  0  0  0  0  3  0  0  0  0  0  0
  -25.5470  -33.9190   24.2020 N   0  0  0  0  0  0  0  0  0  0  0  0
  -25.8920  -34.9580   23.4310 C   0  0  0  0  0  0  0  0  0  0  0  0
  -26.5580  -34.8340   22.3990 O   0  0  0  0  0  0  0  0  0  0  0  0
  -24.9560  -34.0920   25.0030 H   0  0  0  0  0  0  0  0  0  0  0  0
  -24.1830  -36.7660   23.0630 C   0  0  0  0  0  1  0  0  0  0  0  0
  -25.4240  -36.3580   23.8720 C   0  0  0  0  0  3  0  0  0  0  0  0
  -27.5760  -37.2260   24.6750 C   0  0  0  0  0  1  0  0  0  0  0  0
  -26.4690  -37.3960   23.7400 N   0  0  0  0  0  0  0  0  0  0  0  0
  -26.0750  -38.3230   23.8780 H   0  0  0  0  0  0  0  0  0  0  0  0
  -26.3330  -31.7430   25.1690 C   0  0  1  0  0  0  0  0  0  0  0  0
  -25.2320  -31.5260   26.2330 C   0  0  0  0  0  1  0  0  0  0  0  0
  -26.8990  -30.3550   24.7850 C   0  0  0  0  0  1  0  0  0  0  0  0
  -27.4910  -32.5250   25.8330 C   0  0  0  0  0  1  0  0  0  0  0  0
  -26.8870  -22.5220   16.6510 C   0  0  0  0  0  2  0  0  0  0  0  0
  -27.5190  -21.1850   16.6430 N   0  0  0  0  0  4  0  0  0  0  0  0
  -28.1170  -21.1160   15.8350 H   0  0  0  0  0  0  0  0  0  0  0  0
  -28.0890  -21.0840   17.4670 H   0  0  0  0  0  0  0  0  0  0  0  0
  -26.5690  -20.0530   16.5960 C   0  0  0  0  0  2  0  0  0  0  0  0
  -27.2010  -18.7570   17.1400 C   0  0  0  0  0  2  0  0  0  0  0  0
  -27.4850  -18.8150   18.6520 C   0  0  0  0  0  2  0  0  0  0  0  0
  -28.5020  -17.7610   19.1120 C   0  0  0  0  0  2  0  0  0  0  0  0
  -28.9100  -17.9500   20.5880 C   0  0  0  0  0  2  0  0  0  0  0  0
  -30.1880  -17.1720   20.9740 C   0  0  0  0  0  3  0  0  0  0  0  0
  -30.5730  -14.7870   20.3500 C   0  0  0  0  0  0  0  0  0  0  0  0
  -30.4180  -12.4910   19.4750 C   0  0  0  0  0  2  0  0  0  0  0  0
  -29.4820  -12.4810   18.2510 C   0  0  0  0  0  2  0  0  0  0  0  0
  -28.0100  -12.3170   18.6820 C   0  0  0  0  0  2  0  0  0  0  0  0
  -27.6050  -13.3020   19.8090 C   0  0  0  0  0  3  0  0  0  0  0  0
  -28.6490  -13.2700   20.9470 C   0  0  0  0  0  2  0  0  0  0  0  0
  -29.9740  -13.5690   20.3660 N   0  0  0  0  0  0  0  0  0  0  0  0
  -31.6300  -15.0220   19.7580 O   0  0  0  0  0  0  0  0  0  0  0  0
  -29.8780  -15.7450   20.9610 N   0  0  0  0  0  0  0  0  0  0  0  0
  -29.0640  -15.4560   21.4800 H   0  0  0  0  0  0  0  0  0  0  0  0
  -25.2160  -13.9000   20.5700 C   0  0  0  0  0  0  0  0  0  0  0  0
  -24.1570  -13.1200   20.9470 C   0  0  0  0  0  0  0  0  0  0  0  0
  -24.6160  -11.7690   20.8770 C   0  0  0  0  0  0  0  0  0  0  0  0
  -26.2570  -13.0240   20.3030 N   0  0  0  0  0  0  0  0  0  0  0  0
  -25.8990  -11.7360   20.5420 N   0  0  0  0  0  0  0  0  0  0  0  0
  -23.8950  -10.5030   21.0550 C   0  0  0  0  0  0  0  0  0  0  0  0
  -24.3240   -9.5370   21.9920 C   0  0  0  0  0  3  0  0  0  0  0  0
  -23.6050   -8.3340   22.1590 C   0  0  0  0  0  3  0  0  0  0  0  0
  -22.4430   -8.0890   21.3910 C   0  0  0  0  0  0  0  0  0  0  0  0
  -22.0330   -9.0440   20.4440 C   0  0  0  0  0  3  0  0  0  0  0  0
  -22.7510  -10.2390   20.2740 C   0  0  0  0  0  3  0  0  0  0  0  0
  -21.6960   -6.9380   21.4670 O   0  0  0  0  0  0  0  0  0  0  0  0
  -21.6090   -6.2120   22.6270 C   0  0  0  0  0  0  0  0  0  0  0  0
  -21.1220   -6.7790   23.8250 C   0  0  0  0  0  3  0  0  0  0  0  0
  -20.9820   -5.9780   24.9760 C   0  0  0  0  0  3  0  0  0  0  0  0
  -21.3190   -4.6110   24.9300 C   0  0  0  0  0  0  0  0  0  0  0  0
  -21.7960   -4.0440   23.7360 C   0  0  0  0  0  3  0  0  0  0  0  0
  -21.9380   -4.8410   22.5870 C   0  0  0  0  0  0  0  0  0  0  0  0
  -22.3810   -4.2840   21.4340 F   0  0  0  0  0  0  0  0  0  0  0  0
  -21.1750   -3.8410   26.0330 F   0  0  0  0  0  0  0  0  0  0  0  0
  -22.7650  -13.5900   21.2610 C   0  0  0  0  0  0  0  0  0  0  0  0
  -22.0590  -12.8820   22.1350 N   0  0  0  0  0  0  0  0  0  0  0  0
  -22.3140  -14.6240   20.7680 O   0  0  0  0  0  0  0  0  0  0  0  0
  -22.4340  -12.0460   22.5580 H   0  0  0  0  0  0  0  0  0  0  0  0
  -21.1280  -13.1820   22.3880 H   0  0  0  0  0  0  0  0  0  0  0  0
  -25.3760  -15.2750   20.4170 N   0  0  0  0  0  0  0  0  0  0  0  0
  -24.6120  -15.9230   20.5680 H   0  0  0  0  0  0  0  0  0  0  0  0
  -26.2210  -15.7260   20.0920 H   0  0  0  0  0  0  0  0  0  0  0  0
  -30.6850  -17.5710   22.3770 C   0  0  0  0  0  0  0  0  0  0  0  0
  -30.9250  -16.7410   23.2620 O   0  0  0  0  0  0  0  0  0  0  0  0
  -31.2620  -19.3990   24.1000 C   0  0  0  0  0  1  0  0  0  0  0  0
  -30.8770  -19.0690   22.6480 C   0  0  0  0  0  2  0  0  0  0  0  0
  1 53  1  0
  2  1  1  0
  2  9  1  0
  3  4  1  0
  4  6  1  0
  5  7  1  0
  5  3  1  0
  7  8  1  0
  8  2  1  0
  8  6  1  0
  9 11  1  0
 10  9  2  0
 11 12  1  0
 12 14  1  0
 13 24  2  0
 14 19  1  0
 15 23  1  0
 15 25  1  0
 16 22  1  0
 16 18  1  0
 17 23  1  0
 18 17  1  0
 19 18  2  0
 20 21  1  0
 20 14  2  0
 21 16  2  0
 22 15  1  0
 23 13  1  0
 25 27  2  0
 26 25  1  0
 28 26  1  0
 29 38  2  0
 29 34  1  0
 30 26  1  0
 30 34  1  0
 31 30  1  0
 32 33  1  0
 32 31  1  0
 33 29  1  0
 34 35  2  0
 35 36  1  0
 37 36  2  0
 38 37  1  0
 39 13  1  0
 39 40  1  0
 39 49  1  0
 40 43  1  0
 41 45  1  0
 41 40  1  0
 42 41  2  0
 45 44  1  0
 47 45  1  0
 47 48  1  0
 47 46  1  0
 49 52  1  1
 49 50  1  0
 51 49  1  0
 54 53  1  0
 54 56  1  0
 55 54  1  0
 57 54  1  0
 57 58  1  0
 58 59  1  0
 59 60  1  0
 60 61  1  0
 62 61  1  0
 62101  1  0
 63 69  1  0
 63 71  1  0
 64 69  1  0
 65 66  1  0
 65 64  1  0
 67 66  1  0
 67 76  1  0
 67 68  1  0
 69 68  1  0
 70 63  2  0
 71 62  1  0
 71 72  1  0
 73 74  2  0
 74 93  1  0
 75 74  1  0
 75 78  1  0
 76 77  1  0
 76 73  1  0
 77 75  2  0
 78 79  1  0
 79 80  2  0
 81 84  1  0
 81 80  1  0
 82 81  2  0
 83 82  1  0
 83 78  2  0
 84 85  1  0
 85 86  1  0
 86 87  2  0
 88 87  1  0
 88 92  1  0
 89 88  2  0
 90 85  2  0
 90 89  1  0
 91 90  1  0
 93 94  1  0
 94 97  1  0
 94 96  1  0
 95 93  2  0
 98 99  1  0
 98 73  1  0
100 98  1  0
101104  1  0
101102  2  0
104103  1  0
M  ISO  4  11 101  12 101  63 100  71 100
M  END
>  <TORSDO>  (58) 
F 30

>  <SCORE>  (58) 
-7.872

>  <name>  (58) 
57

>  <ligand_id>  (58) 
57

>  <original_smiles>  (58) 
[H]c1c([H])c([H])c2c(c1[H])C([H])([H])C([H])([H])C([H])([H])C2([H])N([H])C(=O)C1([H])N(C(=O)C([H])(N([H])C(=O)C([H])(N([H])C([H])([H])[H])C([H])([H])[H])C(C([H])([H])[H])(C([H])([H])[H])C([H])([H])[H])C([H])([H])c2c([H])c(OC([H])([H])C(=O)C([H])(C([H])([H])C([H])([H])[N+]([H])([H])C([H])([H])C([H])([H])C([H])([H])C([H])([H])C([H])([H])C([H])(C(=O)C([H])([H])C([H])([H])[H])N([H])C(=O)N3C([H])([H])C([H])([H])C([H])([H])C([H])(n4nc(-c5c([H])c([H])c(Oc6c([H])c([H])c(F)c([H])c6F)c([H])c5[H])c(C(=O)N([H])[H])c4N([H])[H])C3([H])[H])C3([H])C([H])([H])C([H])([H])C([H])([H])C([H])([H])C3([H])[H])c([H])c([H])c2C1([H])[H]

>  <smiles>  (58) 
[H]c1c([H])c([H])c2c(c1[H])C([H])([H])C([H])([H])C([H])([H])C2([H])N([H])C(=O)C1([H])N(C(=O)C([H])(N([H])C(=O)C([H])(N([H])C([H])([H])[H])C([H])([H])[H])C(C([H])([H])[H])(C([H])([H])[H])C([H])([H])[H])C([H])([H])c2c([H])c(OC([H])([H])C(=O)C([H])(C([H])([H])C([H])([H])[N+]([H])([H])C([H])([H])C([H])([H])C([H])([H])C([H])([H])C([H])([H])C([H])(C(=O)C([H])([H])C([H])([H])[H])N([H])C(=O)N3C([H])([H])C([H])([H])C([H])([H])C([H])(n4nc(-c5c([H])c([H])c(Oc6c([H])c([H])c(F)c([H])c6F)c([H])c5[H])c(C(=O)N([H])[H])c4N([H])[H])C3([H])[H])C3([H])C([H])([H])C([H])([H])C([H])([H])C([H])([H])C3([H])[H])c([H])c([H])c2C1([H])[H]

$$$$
58:0:0
     RDKit          3D

117125  0  0  1  0  0  0  0  0999 V2000
  -32.4230  -21.8480   18.2110 C   0  0  0  0  0  3  0  0  0  0  0  0
  -30.4600  -23.8970   20.8470 C   0  0  0  0  0  3  0  0  0  0  0  0
  -29.5620  -24.3830   18.6410 C   0  0  0  0  0  3  0  0  0  0  0  0
  -31.4040  -23.0170   20.2740 C   0  0  0  0  0  3  0  0  0  0  0  0
  -30.5050  -23.5090   18.0660 C   0  0  0  0  0  3  0  0  0  0  0  0
  -29.5300  -24.5840   20.0360 C   0  0  0  0  0  0  0  0  0  0  0  0
  -31.4230  -22.7990   18.8760 C   0  0  0  0  0  0  0  0  0  0  0  0
  -28.4580  -25.4740   20.6520 C   0  0  0  0  0  2  0  0  0  0  0  0
  -28.4660  -26.7990   20.1140 O   0  0  0  0  0  0  0  0  0  0  0  0
  -24.5930  -31.8870   23.2530 C   0  0  0  0  0  0  0  0  0  0  0  0
  -27.2730  -27.4830   20.1630 C   0  0  0  0  0  0  0  0  0  0  0  0
  -23.3950  -30.4830   21.6030 C   0  0  0  0  0  3  0  0  0  0  0  0
  -24.8590  -28.9540   20.1820 C   0  0  0  0  0  0  0  0  0  0  0  0
  -25.9160  -30.8590   21.4090 C   0  0  0  0  0  2  0  0  0  0  0  0
  -26.0120  -29.4910   20.7710 C   0  0  0  0  0  0  0  0  0  0  0  0
  -27.2230  -28.7650   20.7550 C   0  0  0  0  0  3  0  0  0  0  0  0
  -26.1080  -26.9570   19.5710 C   0  0  0  0  0  3  0  0  0  0  0  0
  -24.9010  -27.6840   19.5800 C   0  0  0  0  0  3  0  0  0  0  0  0
  -23.6090  -29.8020   20.2230 C   0  0  0  0  0  2  0  0  0  0  0  0
  -24.6520  -31.0910   22.1470 N   0  0  0  0  0  0  0  0  0  0  0  0
  -23.5100  -32.1530   23.7920 O   0  0  0  0  0  0  0  0  0  0  0  0
  -22.7440  -29.4590   22.5590 C   0  0  0  0  0  0  0  0  0  0  0  0
  -21.4220  -29.2750   22.4280 N   0  0  0  0  0  0  0  0  0  0  0  0
  -23.4290  -28.8320   23.3730 O   0  0  0  0  0  0  0  0  0  0  0  0
  -20.9300  -29.8350   21.7470 H   0  0  0  0  0  0  0  0  0  0  0  0
  -18.0490  -28.0730   22.9090 C   0  0  0  0  0  0  0  0  0  0  0  0
  -20.6050  -28.3310   23.1920 C   0  0  0  0  0  3  0  0  0  0  0  0
  -20.7120  -26.9020   22.6110 C   0  0  0  0  0  2  0  0  0  0  0  0
  -19.6140  -26.5830   21.5920 C   0  0  0  0  0  2  0  0  0  0  0  0
  -18.2290  -26.7270   22.2280 C   0  0  0  0  0  2  0  0  0  0  0  0
  -19.1660  -28.8350   23.3470 C   0  0  0  0  0  0  0  0  0  0  0  0
  -18.9430  -30.0970   23.9380 C   0  0  0  0  0  3  0  0  0  0  0  0
  -17.6380  -30.5970   24.0990 C   0  0  0  0  0  3  0  0  0  0  0  0
  -16.5360  -29.8320   23.6790 C   0  0  0  0  0  3  0  0  0  0  0  0
  -16.7430  -28.5720   23.0890 C   0  0  0  0  0  3  0  0  0  0  0  0
  -25.8760  -32.5190   23.8780 C   0  0  0  0  0  3  0  0  0  0  0  0
  -25.5660  -33.9160   24.2080 N   0  0  0  0  0  0  0  0  0  0  0  0
  -25.9060  -34.9690   23.4510 C   0  0  0  0  0  0  0  0  0  0  0  0
  -26.5860  -34.8660   22.4260 O   0  0  0  0  0  0  0  0  0  0  0  0
  -24.9680  -34.0720   25.0070 H   0  0  0  0  0  0  0  0  0  0  0  0
  -24.1890  -36.7640   23.0710 C   0  0  0  0  0  1  0  0  0  0  0  0
  -25.4140  -36.3570   23.9050 C   0  0  0  0  0  3  0  0  0  0  0  0
  -27.5370  -37.2310   24.7770 C   0  0  0  0  0  1  0  0  0  0  0  0
  -26.4510  -37.4070   23.8140 N   0  0  0  0  0  0  0  0  0  0  0  0
  -26.0460  -38.3270   23.9600 H   0  0  0  0  0  0  0  0  0  0  0  0
  -26.3920  -31.7470   25.1520 C   0  0  1  0  0  0  0  0  0  0  0  0
  -25.2980  -31.5030   26.2200 C   0  0  0  0  0  1  0  0  0  0  0  0
  -26.9800  -30.3740   24.7540 C   0  0  0  0  0  1  0  0  0  0  0  0
  -27.5410  -32.5430   25.8180 C   0  0  0  0  0  1  0  0  0  0  0  0
  -33.6860  -22.5540   17.9390 N   0  0  0  0  0  4  0  0  0  0  0  0
  -33.4660  -23.5330   17.8600 H   0  0  0  0  0  0  0  0  0  0  0  0
  -34.3010  -22.4370   18.7270 H   0  0  0  0  0  0  0  0  0  0  0  0
  -34.3560  -22.1390   16.6880 C   0  0  0  0  0  2  0  0  0  0  0  0
  -35.6870  -22.8780   16.4560 C   0  0  0  0  0  2  0  0  0  0  0  0
  -35.0640  -25.2330   15.9170 C   0  0  0  0  0  0  0  0  0  0  0  0
  -35.6220  -24.3180   16.7200 N   0  0  0  0  0  0  0  0  0  0  0  0
  -34.3840  -24.9210   14.9400 O   0  0  0  0  0  0  0  0  0  0  0  0
  -36.1630  -24.6560   17.5050 H   0  0  0  0  0  0  0  0  0  0  0  0
  -35.3480  -26.7130   16.2540 C   0  0  0  0  0  3  0  0  0  0  0  0
  -34.2930  -28.6250   17.5900 C   0  0  0  0  0  1  0  0  0  0  0  0
  -34.0360  -27.5170   16.5470 C   0  0  0  0  0  3  0  0  0  0  0  0
  -31.9220  -28.6580   15.5720 C   0  0  0  0  0  1  0  0  0  0  0  0
  -33.3170  -28.0750   15.2890 C   0  0  0  0  0  2  0  0  0  0  0  0
  -36.2710  -27.3780   15.1910 C   0  0  0  0  0  2  0  0  0  0  0  0
  -37.6540  -26.8510   15.1720 N   0  0  0  0  0  4  0  0  0  0  0  0
  -38.1210  -27.0200   16.0450 H   0  0  0  0  0  0  0  0  0  0  0  0
  -38.1830  -27.3170   14.4560 H   0  0  0  0  0  0  0  0  0  0  0  0
  -37.6820  -25.8680   14.9720 H   0  0  0  0  0  0  0  0  0  0  0  0
  -32.6680  -20.4830   18.9230 C   0  0  0  0  0  2  0  0  0  0  0  0
  -31.5680  -19.5500   18.7010 N   0  0  0  0  0  0  0  0  0  0  0  0
  -31.3310  -19.5120   17.7140 H   0  0  0  0  0  0  0  0  0  0  0  0
  -31.8480  -18.1880   19.1600 C   0  0  0  0  0  2  0  0  0  0  0  0
  -30.6190  -16.1430   18.1270 C   0  0  0  0  0  1  0  0  0  0  0  0
  -30.5390  -17.3600   19.0730 C   0  0  0  0  0  3  0  0  0  0  0  0
  -29.8730  -17.1050   20.4720 C   0  0  0  0  0  3  0  0  0  0  0  0
  -30.7350  -14.7250   21.0340 C   0  0  0  0  0  0  0  0  0  0  0  0
  -30.7230  -12.4190   20.1870 C   0  0  0  0  0  2  0  0  0  0  0  0
  -29.9250  -12.4330   18.8640 C   0  0  0  0  0  2  0  0  0  0  0  0
  -28.4070  -12.2910   19.1130 C   0  0  0  0  0  2  0  0  0  0  0  0
  -27.8810  -13.2450   20.2200 C   0  0  0  0  0  3  0  0  0  0  0  0
  -28.8010  -13.1930   21.4670 C   0  0  0  0  0  2  0  0  0  0  0  0
  -30.1770  -13.4880   21.0320 N   0  0  0  0  0  0  0  0  0  0  0  0
  -31.9420  -14.9360   20.8840 O   0  0  0  0  0  0  0  0  0  0  0  0
  -29.8010  -15.6910   20.8960 N   0  0  0  0  0  0  0  0  0  0  0  0
  -28.8660  -15.3350   20.9980 H   0  0  0  0  0  0  0  0  0  0  0  0
  -25.4210  -13.8550   20.6400 C   0  0  0  0  0  0  0  0  0  0  0  0
  -24.3260  -13.0860   20.9190 C   0  0  0  0  0  0  0  0  0  0  0  0
  -24.7970  -11.7390   20.9930 C   0  0  0  0  0  0  0  0  0  0  0  0
  -26.4890  -12.9750   20.5620 N   0  0  0  0  0  0  0  0  0  0  0  0
  -26.1120  -11.7010   20.8340 N   0  0  0  0  0  0  0  0  0  0  0  0
  -24.0630  -10.4780   21.1480 C   0  0  0  0  0  0  0  0  0  0  0  0
  -24.4120   -9.5380   22.1450 C   0  0  0  0  0  3  0  0  0  0  0  0
  -23.6810   -8.3400   22.2840 C   0  0  0  0  0  3  0  0  0  0  0  0
  -22.5890   -8.0700   21.4250 C   0  0  0  0  0  0  0  0  0  0  0  0
  -22.2610   -8.9990   20.4220 C   0  0  0  0  0  3  0  0  0  0  0  0
  -22.9930  -10.1890   20.2810 C   0  0  0  0  0  3  0  0  0  0  0  0
  -21.8440   -6.9170   21.4680 O   0  0  0  0  0  0  0  0  0  0  0  0
  -21.7000   -6.1940   22.6250 C   0  0  0  0  0  0  0  0  0  0  0  0
  -21.1590   -6.7700   23.7980 C   0  0  0  0  0  3  0  0  0  0  0  0
  -20.9680   -5.9760   24.9470 C   0  0  0  0  0  3  0  0  0  0  0  0
  -21.3000   -4.6100   24.9230 C   0  0  0  0  0  0  0  0  0  0  0  0
  -21.8270   -4.0320   23.7530 C   0  0  0  0  0  3  0  0  0  0  0  0
  -22.0260   -4.8250   22.6090 C   0  0  0  0  0  0  0  0  0  0  0  0
  -22.5160   -4.2590   21.4790 F   0  0  0  0  0  0  0  0  0  0  0  0
  -21.1070   -3.8460   26.0230 F   0  0  0  0  0  0  0  0  0  0  0  0
  -22.9050  -13.5580   21.0120 C   0  0  0  0  0  0  0  0  0  0  0  0
  -22.0890  -12.8930   21.8250 N   0  0  0  0  0  0  0  0  0  0  0  0
  -22.5200  -14.5550   20.4040 O   0  0  0  0  0  0  0  0  0  0  0  0
  -22.4020  -12.0840   22.3380 H   0  0  0  0  0  0  0  0  0  0  0  0
  -21.1360  -13.2060   21.9350 H   0  0  0  0  0  0  0  0  0  0  0  0
  -25.5900  -15.2210   20.4230 N   0  0  0  0  0  0  0  0  0  0  0  0
  -24.7990  -15.8560   20.3890 H   0  0  0  0  0  0  0  0  0  0  0  0
  -26.4540  -15.6600   20.1320 H   0  0  0  0  0  0  0  0  0  0  0  0
  -28.4210  -17.6860   20.4650 C   0  0  0  0  0  2  0  0  0  0  0  0
  -28.3170  -19.2120   20.2100 C   0  0  0  0  0  2  0  0  0  0  0  0
  -28.0260  -21.0560   18.4670 C   0  0  0  0  0  1  0  0  0  0  0  0
  -27.6570  -19.6240   18.8700 C   0  0  0  0  0  2  0  0  0  0  0  0
  1  7  1  0
  1 69  1  0
  3  6  1  0
  4  2  1  0
  5  3  2  0
  5  7  1  0
  6  8  1  0
  6  2  2  0
  7  4  2  0
  9 11  1  0
  9  8  1  0
 10 21  2  0
 11 16  1  0
 12 20  1  0
 12 22  1  0
 13 19  1  0
 13 15  1  0
 14 20  1  0
 15 14  1  0
 16 15  2  0
 17 18  1  0
 17 11  2  0
 18 13  2  0
 19 12  1  0
 20 10  1  0
 22 24  2  0
 23 22  1  0
 25 23  1  0
 26 35  2  0
 26 31  1  0
 27 23  1  0
 27 31  1  0
 28 27  1  0
 29 30  1  0
 29 28  1  0
 30 26  1  0
 31 32  2  0
 32 33  1  0
 34 33  2  0
 35 34  1  0
 36 10  1  0
 36 37  1  0
 36 46  1  0
 37 40  1  0
 38 42  1  0
 38 37  1  0
 39 38  2  0
 42 41  1  0
 44 42  1  0
 44 45  1  0
 44 43  1  0
 46 49  1  1
 46 47  1  0
 48 46  1  0
 50  1  1  0
 50 52  1  0
 51 50  1  0
 53 50  1  0
 54 53  1  0
 54 56  1  0
 55 59  1  0
 55 56  1  0
 56 58  1  0
 57 55  2  0
 59 64  1  0
 59 61  1  0
 61 60  1  0
 63 62  1  0
 63 61  1  0
 65 64  1  0
 65 66  1  0
 67 65  1  0
 68 65  1  0
 70 69  1  0
 70 72  1  0
 71 70  1  0
 74 73  1  0
 74 72  1  0
 74 75  1  0
 75114  1  0
 75 84  1  0
 77 82  1  0
 78 79  1  0
 78 77  1  0
 80 79  1  0
 80 89  1  0
 80 81  1  0
 82 76  1  0
 82 81  1  0
 83 76  2  0
 84 85  1  0
 84 76  1  0
 86 87  2  0
 87 88  1  0
 87106  1  0
 88 91  1  0
 89 86  1  0
 89 90  1  0
 90 88  2  0
 91 92  1  0
 92 93  2  0
 94 97  1  0
 94 93  1  0
 95 94  2  0
 96 95  1  0
 96 91  2  0
 97 98  1  0
 98 99  1  0
 99100  2  0
101100  1  0
101105  1  0
102101  2  0
103 98  2  0
103102  1  0
104103  1  0
106107  1  0
107110  1  0
107109  1  0
108106  2  0
111 86  1  0
112111  1  0
113111  1  0
115114  1  0
116117  1  0
117115  1  0
M  ISO  4   8 101   9 101  76 100  84 100
M  END
>  <TORSDO>  (59) 
F 35

>  <SCORE>  (59) 
-9.793

>  <name>  (59) 
58

>  <ligand_id>  (59) 
58

>  <original_smiles>  (59) 
[H]c1c([H])c([H])c2c(c1[H])C([H])([H])C([H])([H])C([H])([H])C2([H])N([H])C(=O)C1([H])N(C(=O)C([H])(N([H])C(=O)C([H])(N([H])C([H])([H])[H])C([H])([H])[H])C(C([H])([H])[H])(C([H])([H])[H])C([H])([H])[H])C([H])([H])c2c([H])c(OC([H])([H])c3c([H])c([H])c(C([H])(C([H])([H])N([H])C([H])([H])C([H])(C([H])([H])[H])C([H])(N([H])C(=O)N4C([H])([H])C([H])([H])C([H])([H])C([H])(n5nc(-c6c([H])c([H])c(Oc7c([H])c([H])c(F)c([H])c7F)c([H])c6[H])c(C(=O)N([H])[H])c5N([H])[H])C4([H])[H])C([H])([H])C([H])([H])C([H])([H])C([H])([H])[H])[N+]([H])([H])C([H])([H])C([H])([H])N([H])C(=O)C([H])(C([H])(C([H])([H])[H])C([H])([H])C([H])([H])[H])C([H])([H])[N+]([H])([H])[H])c([H])c3[H])c([H])c([H])c2C1([H])[H]

>  <smiles>  (59) 
[H]c1c([H])c([H])c2c(c1[H])C([H])([H])C([H])([H])C([H])([H])C2([H])N([H])C(=O)C1([H])N(C(=O)C([H])(N([H])C(=O)C([H])(N([H])C([H])([H])[H])C([H])([H])[H])C(C([H])([H])[H])(C([H])([H])[H])C([H])([H])[H])C([H])([H])c2c([H])c(OC([H])([H])c3c([H])c([H])c(C([H])(C([H])([H])N([H])C([H])([H])C([H])(C([H])([H])[H])C([H])(N([H])C(=O)N4C([H])([H])C([H])([H])C([H])([H])C([H])(n5nc(-c6c([H])c([H])c(Oc7c([H])c([H])c(F)c([H])c7F)c([H])c6[H])c(C(=O)N([H])[H])c5N([H])[H])C4([H])[H])C([H])([H])C([H])([H])C([H])([H])C([H])([H])[H])[N+]([H])([H])C([H])([H])C([H])([H])N([H])C(=O)C([H])(C([H])(C([H])([H])[H])C([H])([H])C([H])([H])[H])C([H])([H])[N+]([H])([H])[H])c([H])c3[H])c([H])c([H])c2C1([H])[H]

$$$$
59:0:0
     RDKit          3D

101108  0  0  1  0  0  0  0  0999 V2000
  -29.7530  -21.2310   21.4250 C   0  0  0  0  0  3  0  0  0  0  0  0
  -29.9790  -20.9560   22.9400 C   0  0  0  0  0  2  0  0  0  0  0  0
  -30.5480  -23.4150   23.4590 C   0  0  0  0  0  1  0  0  0  0  0  0
  -30.2810  -21.7430   25.3240 C   0  0  0  0  0  1  0  0  0  0  0  0
  -29.8130  -22.1450   23.9180 C   0  0  0  0  0  3  0  0  0  0  0  0
  -28.2660  -21.5390   21.0960 C   0  0  0  0  0  2  0  0  0  0  0  0
  -26.4670  -22.1600   19.4530 C   0  0  0  0  0  1  0  0  0  0  0  0
  -27.9780  -22.2520   19.7460 C   0  0  0  0  0  3  0  0  0  0  0  0
  -28.4840  -23.7270   19.7310 C   0  0  0  0  0  2  0  0  0  0  0  0
  -28.9150  -23.9090   17.2170 C   0  0  0  0  0  1  0  0  0  0  0  0
  -28.2090  -24.5350   18.4340 C   0  0  0  0  0  3  0  0  0  0  0  0
  -28.6010  -26.0340   18.5450 C   0  0  0  0  0  2  0  0  0  0  0  0
  -28.2490  -26.7060   19.7590 O   0  0  0  0  0  0  0  0  0  0  0  0
  -24.5580  -31.7700   23.1400 C   0  0  0  0  0  0  0  0  0  0  0  0
  -27.0780  -27.4300   19.8000 C   0  0  0  0  0  0  0  0  0  0  0  0
  -23.2910  -30.4280   21.4940 C   0  0  0  0  0  3  0  0  0  0  0  0
  -24.6870  -28.9310   19.9710 C   0  0  0  0  0  0  0  0  0  0  0  0
  -25.8110  -30.7750   21.2310 C   0  0  0  0  0  2  0  0  0  0  0  0
  -25.8650  -29.4260   20.5420 C   0  0  0  0  0  0  0  0  0  0  0  0
  -27.0590  -28.6750   20.4700 C   0  0  0  0  0  3  0  0  0  0  0  0
  -25.8800  -26.9410   19.2380 C   0  0  0  0  0  3  0  0  0  0  0  0
  -24.6870  -27.6830   19.3240 C   0  0  0  0  0  3  0  0  0  0  0  0
  -23.4500  -29.7930   20.0870 C   0  0  0  0  0  2  0  0  0  0  0  0
  -24.5730  -31.0040   22.0120 N   0  0  0  0  0  0  0  0  0  0  0  0
  -23.4970  -32.0330   23.7230 O   0  0  0  0  0  0  0  0  0  0  0  0
  -22.6640  -29.3780   22.4400 C   0  0  0  0  0  0  0  0  0  0  0  0
  -21.3460  -29.1590   22.3040 N   0  0  0  0  0  0  0  0  0  0  0  0
  -23.3620  -28.7640   23.2510 O   0  0  0  0  0  0  0  0  0  0  0  0
  -20.8410  -29.7120   21.6240 H   0  0  0  0  0  0  0  0  0  0  0  0
  -18.0210  -27.8110   22.7150 C   0  0  0  0  0  0  0  0  0  0  0  0
  -20.5540  -28.1910   23.0610 C   0  0  0  0  0  3  0  0  0  0  0  0
  -20.7420  -26.7610   22.5060 C   0  0  0  0  0  2  0  0  0  0  0  0
  -19.6880  -26.3760   21.4620 C   0  0  0  0  0  2  0  0  0  0  0  0
  -18.2820  -26.4640   22.0620 C   0  0  0  0  0  2  0  0  0  0  0  0
  -19.0890  -28.6280   23.1700 C   0  0  0  0  0  0  0  0  0  0  0  0
  -18.7950  -29.8870   23.7360 C   0  0  0  0  0  3  0  0  0  0  0  0
  -17.4640  -30.3300   23.8550 C   0  0  0  0  0  3  0  0  0  0  0  0
  -16.4090  -29.5100   23.4200 C   0  0  0  0  0  3  0  0  0  0  0  0
  -16.6890  -28.2520   22.8540 C   0  0  0  0  0  3  0  0  0  0  0  0
  -25.8690  -32.3710   23.7360 C   0  0  0  0  0  3  0  0  0  0  0  0
  -25.5760  -33.7520   24.1410 N   0  0  0  0  0  0  0  0  0  0  0  0
  -25.8840  -34.8370   23.4190 C   0  0  0  0  0  0  0  0  0  0  0  0
  -26.5150  -34.7800   22.3600 O   0  0  0  0  0  0  0  0  0  0  0  0
  -25.0120  -33.8710   24.9700 H   0  0  0  0  0  0  0  0  0  0  0  0
  -24.1430  -36.6400   23.2140 C   0  0  0  0  0  1  0  0  0  0  0  0
  -25.4160  -36.2030   23.9570 C   0  0  0  0  0  3  0  0  0  0  0  0
  -27.5820  -37.0510   24.7400 C   0  0  0  0  0  1  0  0  0  0  0  0
  -26.4430  -37.2610   23.8500 N   0  0  0  0  0  0  0  0  0  0  0  0
  -26.0450  -38.1730   24.0570 H   0  0  0  0  0  0  0  0  0  0  0  0
  -26.4400  -31.5410   24.9500 C   0  0  1  0  0  0  0  0  0  0  0  0
  -25.3910  -31.2420   26.0460 C   0  0  0  0  0  1  0  0  0  0  0  0
  -27.0160  -30.1900   24.4660 C   0  0  0  0  0  1  0  0  0  0  0  0
  -27.6140  -32.3100   25.6040 C   0  0  0  0  0  1  0  0  0  0  0  0
  -30.3340  -20.1090   20.4910 C   0  0  0  0  0  3  0  0  0  0  0  0
  -30.2070  -17.6250   20.9390 C   0  0  0  0  0  0  0  0  0  0  0  0
  -30.6550  -18.8600   21.1990 N   0  0  0  0  0  0  0  0  0  0  0  0
  -29.3660  -17.3770   20.0710 O   0  0  0  0  0  0  0  0  0  0  0  0
  -31.3310  -18.9390   21.9470 H   0  0  0  0  0  0  0  0  0  0  0  0
  -30.8090  -16.5020   21.7960 C   0  0  0  0  0  2  0  0  0  0  0  0
  -30.8140  -14.3280   20.5550 C   0  0  0  0  0  0  0  0  0  0  0  0
  -30.4850  -12.1870   19.3650 C   0  0  0  0  0  2  0  0  0  0  0  0
  -29.5390  -12.3610   18.1600 C   0  0  0  0  0  2  0  0  0  0  0  0
  -28.0650  -12.2380   18.5920 C   0  0  0  0  0  2  0  0  0  0  0  0
  -27.7320  -13.1120   19.8290 C   0  0  0  0  0  3  0  0  0  0  0  0
  -28.7770  -12.8900   20.9440 C   0  0  0  0  0  2  0  0  0  0  0  0
  -30.1140  -13.1750   20.3880 N   0  0  0  0  0  0  0  0  0  0  0  0
  -31.8530  -14.5860   19.9410 O   0  0  0  0  0  0  0  0  0  0  0  0
  -30.2990  -15.1710   21.4590 N   0  0  0  0  0  0  0  0  0  0  0  0
  -29.4430  -14.8850   21.9090 H   0  0  0  0  0  0  0  0  0  0  0  0
  -25.3450  -13.7690   20.5380 C   0  0  0  0  0  0  0  0  0  0  0  0
  -24.2620  -13.0170   20.9100 C   0  0  0  0  0  0  0  0  0  0  0  0
  -24.6970  -11.6560   20.8760 C   0  0  0  0  0  0  0  0  0  0  0  0
  -26.3730  -12.8660   20.3060 N   0  0  0  0  0  0  0  0  0  0  0  0
  -25.9850  -11.5910   20.5640 N   0  0  0  0  0  0  0  0  0  0  0  0
  -23.9470  -10.4090   21.0680 C   0  0  0  0  0  0  0  0  0  0  0  0
  -24.3480   -9.4440   22.0190 C   0  0  0  0  0  3  0  0  0  0  0  0
  -23.6010   -8.2610   22.1970 C   0  0  0  0  0  3  0  0  0  0  0  0
  -22.4380   -8.0310   21.4230 C   0  0  0  0  0  0  0  0  0  0  0  0
  -22.0570   -8.9830   20.4620 C   0  0  0  0  0  3  0  0  0  0  0  0
  -22.8040  -10.1580   20.2810 C   0  0  0  0  0  3  0  0  0  0  0  0
  -21.6660   -6.8980   21.5090 O   0  0  0  0  0  0  0  0  0  0  0  0
  -21.5640   -6.1830   22.6750 C   0  0  0  0  0  0  0  0  0  0  0  0
  -21.1050   -6.7720   23.8730 C   0  0  0  0  0  3  0  0  0  0  0  0
  -20.9500   -5.9830   25.0320 C   0  0  0  0  0  3  0  0  0  0  0  0
  -21.2440   -4.6080   24.9910 C   0  0  0  0  0  0  0  0  0  0  0  0
  -21.6970   -4.0190   23.7970 C   0  0  0  0  0  3  0  0  0  0  0  0
  -21.8530   -4.8040   22.6420 C   0  0  0  0  0  0  0  0  0  0  0  0
  -22.2690   -4.2270   21.4880 F   0  0  0  0  0  0  0  0  0  0  0  0
  -21.0890   -3.8480   26.1010 F   0  0  0  0  0  0  0  0  0  0  0  0
  -22.8760  -13.5200   21.1890 C   0  0  0  0  0  0  0  0  0  0  0  0
  -22.1390  -12.8380   22.0580 N   0  0  0  0  0  0  0  0  0  0  0  0
  -22.4550  -14.5540   20.6710 O   0  0  0  0  0  0  0  0  0  0  0  0
  -22.4910  -12.0010   22.4980 H   0  0  0  0  0  0  0  0  0  0  0  0
  -21.2080  -13.1570   22.2860 H   0  0  0  0  0  0  0  0  0  0  0  0
  -25.5360  -15.1350   20.3600 N   0  0  0  0  0  0  0  0  0  0  0  0
  -24.7850  -15.8060   20.4650 H   0  0  0  0  0  0  0  0  0  0  0  0
  -26.4010  -15.5550   20.0390 H   0  0  0  0  0  0  0  0  0  0  0  0
  -31.6020  -20.6020   19.7500 C   0  0  0  0  0  2  0  0  0  0  0  0
  -33.5630  -20.1030   18.2180 C   0  0  0  0  0  1  0  0  0  0  0  0
  -31.2290  -19.5370   17.4550 C   0  0  0  0  0  1  0  0  0  0  0  0
  -32.1650  -19.6500   18.6690 C   0  0  0  0  0  3  0  0  0  0  0  0
  1  6  1  0
  1  2  1  0
  2  5  1  0
  3  5  1  0
  5  4  1  0
  8  7  1  0
  8  6  1  0
  9  8  1  0
 11 10  1  0
 11 12  1  0
 11  9  1  0
 12 13  1  0
 13 15  1  0
 14 25  2  0
 15 20  1  0
 16 24  1  0
 16 26  1  0
 17 23  1  0
 17 19  1  0
 18 24  1  0
 19 18  1  0
 20 19  2  0
 21 22  1  0
 21 15  2  0
 22 17  2  0
 23 16  1  0
 24 14  1  0
 26 28  2  0
 27 26  1  0
 29 27  1  0
 30 39  2  0
 30 35  1  0
 31 27  1  0
 31 35  1  0
 32 31  1  0
 33 34  1  0
 33 32  1  0
 34 30  1  0
 35 36  2  0
 36 37  1  0
 38 37  2  0
 39 38  1  0
 40 14  1  0
 40 41  1  0
 40 50  1  0
 41 44  1  0
 42 46  1  0
 42 41  1  0
 43 42  2  0
 46 45  1  0
 48 46  1  0
 48 49  1  0
 48 47  1  0
 50 53  1  1
 50 51  1  0
 52 50  1  0
 54 98  1  0
 54 56  1  0
 54  1  1  0
 55 56  1  0
 55 59  1  0
 56 58  1  0
 57 55  2  0
 60 68  1  0
 61 66  1  0
 62 63  1  0
 62 61  1  0
 64 63  1  0
 64 73  1  0
 64 65  1  0
 66 60  1  0
 66 65  1  0
 67 60  2  0
 68 59  1  0
 68 69  1  0
 70 71  2  0
 71 90  1  0
 72 71  1  0
 72 75  1  0
 73 70  1  0
 73 74  1  0
 74 72  2  0
 75 76  1  0
 76 77  2  0
 78 81  1  0
 78 77  1  0
 79 78  2  0
 80 79  1  0
 80 75  2  0
 81 82  1  0
 82 83  1  0
 83 84  2  0
 85 84  1  0
 85 89  1  0
 86 85  2  0
 87 82  2  0
 87 86  1  0
 88 87  1  0
 90 91  1  0
 91 94  1  0
 91 93  1  0
 92 90  2  0
 95 96  1  0
 95 70  1  0
 97 95  1  0
 99101  1  0
100101  1  0
101 98  1  0
M  ISO  4  12 101  13 101  60 100  68 100
M  END
>  <TORSDO>  (60) 
F 28

>  <SCORE>  (60) 
-10.809

>  <name>  (60) 
59

>  <ligand_id>  (60) 
59

>  <original_smiles>  (60) 
[H]c1c([H])c([H])c2c(c1[H])C([H])([H])C([H])([H])C([H])([H])C2([H])N([H])C(=O)C1([H])N(C(=O)C([H])(N([H])C(=O)C([H])(N([H])C([H])([H])[H])C([H])([H])[H])C(C([H])([H])[H])(C([H])([H])[H])C([H])([H])[H])C([H])([H])c2c([H])c(OC([H])([H])C([H])(C([H])([H])[H])C([H])([H])C([H])(C([H])([H])[H])C([H])([H])C([H])(C([H])([H])C([H])(C([H])([H])[H])C([H])([H])[H])C([H])(N([H])C(=O)C([H])([H])N([H])C(=O)N3C([H])([H])C([H])([H])C([H])([H])C([H])(n4nc(-c5c([H])c([H])c(Oc6c([H])c([H])c(F)c([H])c6F)c([H])c5[H])c(C(=O)N([H])[H])c4N([H])[H])C3([H])[H])C([H])([H])C([H])(C([H])([H])[H])C([H])([H])[H])c([H])c([H])c2C1([H])[H]

>  <smiles>  (60) 
[H]c1c([H])c([H])c2c(c1[H])C([H])([H])C([H])([H])C([H])([H])C2([H])N([H])C(=O)C1([H])N(C(=O)C([H])(N([H])C(=O)C([H])(N([H])C([H])([H])[H])C([H])([H])[H])C(C([H])([H])[H])(C([H])([H])[H])C([H])([H])[H])C([H])([H])c2c([H])c(OC([H])([H])C([H])(C([H])([H])[H])C([H])([H])C([H])(C([H])([H])[H])C([H])([H])C([H])(C([H])([H])C([H])(C([H])([H])[H])C([H])([H])[H])C([H])(N([H])C(=O)C([H])([H])N([H])C(=O)N3C([H])([H])C([H])([H])C([H])([H])C([H])(n4nc(-c5c([H])c([H])c(Oc6c([H])c([H])c(F)c([H])c6F)c([H])c5[H])c(C(=O)N([H])[H])c4N([H])[H])C3([H])[H])C([H])([H])C([H])(C([H])([H])[H])C([H])([H])[H])c([H])c([H])c2C1([H])[H]

$$$$
60:0:0
     RDKit          3D

104111  0  0  1  0  0  0  0  0999 V2000
  -29.3520  -19.7780   20.2940 C   0  0  0  0  0  3  0  0  0  0  0  0
  -28.9040  -21.1870   20.3440 N   0  0  0  0  0  4  0  0  0  0  0  0
  -29.4890  -21.7660   19.7620 H   0  0  0  0  0  0  0  0  0  0  0  0
  -27.9630  -21.2300   19.9760 H   0  0  0  0  0  0  0  0  0  0  0  0
  -28.7750  -21.7820   21.6880 C   0  0  0  0  0  2  0  0  0  0  0  0
  -27.7560  -22.9050   21.5330 C   0  0  0  0  0  0  0  0  0  0  0  0
  -26.7540  -22.7420   20.8330 O   0  0  0  0  0  0  0  0  0  0  0  0
  -28.0660  -24.2590   22.1660 C   0  0  0  0  0  2  0  0  0  0  0  0
  -28.7700  -25.1850   21.1630 C   0  0  0  0  0  2  0  0  0  0  0  0
  -28.7980  -26.6530   21.6090 C   0  0  0  0  0  2  0  0  0  0  0  0
  -29.0510  -27.5830   20.4130 C   0  0  0  0  0  2  0  0  0  0  0  0
  -27.9500  -27.5010   19.5090 O   0  0  0  0  0  0  0  0  0  0  0  0
  -24.3420  -32.2060   23.5190 C   0  0  0  0  0  0  0  0  0  0  0  0
  -26.8110  -28.2360   19.7590 C   0  0  0  0  0  0  0  0  0  0  0  0
  -23.0400  -31.0410   21.7620 C   0  0  0  0  0  3  0  0  0  0  0  0
  -24.4090  -29.6930   20.0830 C   0  0  0  0  0  0  0  0  0  0  0  0
  -25.5480  -31.4200   21.4900 C   0  0  0  0  0  2  0  0  0  0  0  0
  -25.5880  -30.1390   20.6880 C   0  0  0  0  0  0  0  0  0  0  0  0
  -26.7840  -29.4150   20.5420 C   0  0  0  0  0  3  0  0  0  0  0  0
  -25.6160  -27.7960   19.1540 C   0  0  0  0  0  3  0  0  0  0  0  0
  -24.4130  -28.5120   19.3170 C   0  0  0  0  0  3  0  0  0  0  0  0
  -23.1700  -30.5310   20.3000 C   0  0  0  0  0  2  0  0  0  0  0  0
  -24.3320  -31.5620   22.3180 N   0  0  0  0  0  0  0  0  0  0  0  0
  -23.2920  -32.4140   24.1400 O   0  0  0  0  0  0  0  0  0  0  0  0
  -22.4200  -29.9130   22.6130 C   0  0  0  0  0  0  0  0  0  0  0  0
  -21.0930  -29.7520   22.5020 N   0  0  0  0  0  0  0  0  0  0  0  0
  -23.1260  -29.1890   23.3200 O   0  0  0  0  0  0  0  0  0  0  0  0
  -20.5900  -30.3900   21.9030 H   0  0  0  0  0  0  0  0  0  0  0  0
  -17.7350  -28.4760   22.8750 C   0  0  0  0  0  0  0  0  0  0  0  0
  -20.2910  -28.7270   23.1680 C   0  0  0  0  0  3  0  0  0  0  0  0
  -20.4070  -27.3700   22.4350 C   0  0  0  0  0  2  0  0  0  0  0  0
  -19.3050  -27.1480   21.3960 C   0  0  0  0  0  2  0  0  0  0  0  0
  -17.9230  -27.2080   22.0580 C   0  0  0  0  0  2  0  0  0  0  0  0
  -18.8490  -29.1980   23.3820 C   0  0  0  0  0  0  0  0  0  0  0  0
  -18.6220  -30.3890   24.1040 C   0  0  0  0  0  3  0  0  0  0  0  0
  -17.3150  -30.8600   24.3240 C   0  0  0  0  0  3  0  0  0  0  0  0
  -16.2150  -30.1330   23.8350 C   0  0  0  0  0  3  0  0  0  0  0  0
  -16.4260  -28.9420   23.1170 C   0  0  0  0  0  3  0  0  0  0  0  0
  -25.6680  -32.7320   24.1580 C   0  0  0  0  0  3  0  0  0  0  0  0
  -25.4440  -34.1250   24.5570 N   0  0  0  0  0  0  0  0  0  0  0  0
  -25.8580  -35.1910   23.8580 C   0  0  0  0  0  0  0  0  0  0  0  0
  -26.5400  -35.0970   22.8330 O   0  0  0  0  0  0  0  0  0  0  0  0
  -24.8430  -34.2770   25.3540 H   0  0  0  0  0  0  0  0  0  0  0  0
  -24.2620  -37.1080   23.5550 C   0  0  0  0  0  1  0  0  0  0  0  0
  -25.4500  -36.5830   24.3780 C   0  0  0  0  0  3  0  0  0  0  0  0
  -27.6090  -37.2770   25.3210 C   0  0  0  0  0  1  0  0  0  0  0  0
  -26.5560  -37.5670   24.3510 N   0  0  0  0  0  0  0  0  0  0  0  0
  -26.2090  -38.5050   24.5290 H   0  0  0  0  0  0  0  0  0  0  0  0
  -26.1470  -31.8690   25.3880 C   0  0  1  0  0  0  0  0  0  0  0  0
  -25.0420  -31.6320   26.4430 C   0  0  0  0  0  1  0  0  0  0  0  0
  -26.6610  -30.4890   24.9150 C   0  0  0  0  0  1  0  0  0  0  0  0
  -27.3330  -32.5710   26.0900 C   0  0  0  0  0  1  0  0  0  0  0  0
  -29.2130  -19.2330   18.8390 C   0  0  0  0  0  3  0  0  0  0  0  0
  -30.9790  -19.9240   17.2060 C   0  0  0  0  0  0  0  0  0  0  0  0
  -31.3170  -20.9140   16.1010 C   0  0  0  0  0  1  0  0  0  0  0  0
  -29.8400  -20.1470   17.8760 N   0  0  0  0  0  0  0  0  0  0  0  0
  -31.7200  -18.9670   17.4290 O   0  0  0  0  0  0  0  0  0  0  0  0
  -29.2930  -20.9350   17.5590 H   0  0  0  0  0  0  0  0  0  0  0  0
  -27.1740  -17.6380   18.9140 C   0  0  0  0  0  1  0  0  0  0  0  0
  -27.5880  -19.0360   16.8560 C   0  0  0  0  0  1  0  0  0  0  0  0
  -27.7420  -18.9710   18.3910 C   0  0  0  0  0  3  0  0  0  0  0  0
  -30.7840  -19.6500   20.8860 C   0  0  0  0  0  2  0  0  0  0  0  0
  -32.9270  -18.3740   21.1000 C   0  0  0  0  0  1  0  0  0  0  0  0
  -31.3970  -18.2290   20.9700 C   0  0  0  0  0  3  0  0  0  0  0  0
  -30.8130  -17.4100   22.1490 C   0  0  0  0  0  2  0  0  0  0  0  0
  -31.2530  -15.9360   22.2440 C   0  0  0  0  0  2  0  0  0  0  0  0
  -30.6320  -14.4840   20.3090 C   0  0  0  0  0  0  0  0  0  0  0  0
  -30.2320  -12.5090   18.8900 C   0  0  0  0  0  2  0  0  0  0  0  0
  -29.2360  -12.7570   17.7450 C   0  0  0  0  0  2  0  0  0  0  0  0
  -27.7870  -12.5590   18.2270 C   0  0  0  0  0  2  0  0  0  0  0  0
  -27.4830  -13.3180   19.5450 C   0  0  0  0  0  3  0  0  0  0  0  0
  -28.5770  -13.0460   20.6000 C   0  0  0  0  0  2  0  0  0  0  0  0
  -29.8890  -13.3880   20.0170 N   0  0  0  0  0  0  0  0  0  0  0  0
  -31.5620  -14.8820   19.6020 O   0  0  0  0  0  0  0  0  0  0  0  0
  -30.3840  -15.0170   21.5110 N   0  0  0  0  0  0  0  0  0  0  0  0
  -29.6290  -14.5930   22.0300 H   0  0  0  0  0  0  0  0  0  0  0  0
  -25.0630  -13.8170   20.2760 C   0  0  0  0  0  0  0  0  0  0  0  0
  -24.0410  -13.0000   20.6810 C   0  0  0  0  0  0  0  0  0  0  0  0
  -24.5710  -11.6750   20.6690 C   0  0  0  0  0  0  0  0  0  0  0  0
  -26.1490  -12.9880   20.0500 N   0  0  0  0  0  0  0  0  0  0  0  0
  -25.8550  -11.6940   20.3390 N   0  0  0  0  0  0  0  0  0  0  0  0
  -23.9130  -10.3800   20.8940 C   0  0  0  0  0  0  0  0  0  0  0  0
  -24.3370   -9.5030   21.9140 C   0  0  0  0  0  3  0  0  0  0  0  0
  -23.6780   -8.2720   22.1200 C   0  0  0  0  0  3  0  0  0  0  0  0
  -22.5790   -7.9110   21.3030 C   0  0  0  0  0  0  0  0  0  0  0  0
  -22.1760   -8.7800   20.2730 C   0  0  0  0  0  3  0  0  0  0  0  0
  -22.8380  -10.0010   20.0660 C   0  0  0  0  0  3  0  0  0  0  0  0
  -21.8930   -6.7260   21.4130 O   0  0  0  0  0  0  0  0  0  0  0  0
  -21.7100   -6.1110   22.6260 C   0  0  0  0  0  0  0  0  0  0  0  0
  -21.0370   -6.7500   23.6910 C   0  0  0  0  0  3  0  0  0  0  0  0
  -20.8100   -6.0560   24.8970 C   0  0  0  0  0  3  0  0  0  0  0  0
  -21.2450   -4.7250   25.0370 C   0  0  0  0  0  0  0  0  0  0  0  0
  -21.9090   -4.0860   23.9750 C   0  0  0  0  0  3  0  0  0  0  0  0
  -22.1380   -4.7760   22.7720 C   0  0  0  0  0  0  0  0  0  0  0  0
  -22.7590   -4.1480   21.7440 F   0  0  0  0  0  0  0  0  0  0  0  0
  -21.0200   -4.0560   26.1920 F   0  0  0  0  0  0  0  0  0  0  0  0
  -22.6250  -13.4120   20.9690 C   0  0  0  0  0  0  0  0  0  0  0  0
  -21.9570  -12.7150   21.8820 N   0  0  0  0  0  0  0  0  0  0  0  0
  -22.1170  -14.3910   20.4210 O   0  0  0  0  0  0  0  0  0  0  0  0
  -22.3820  -11.9250   22.3450 H   0  0  0  0  0  0  0  0  0  0  0  0
  -21.0100  -12.9740   22.1190 H   0  0  0  0  0  0  0  0  0  0  0  0
  -25.1550  -15.1870   20.0640 N   0  0  0  0  0  0  0  0  0  0  0  0
  -24.3710  -15.8140   20.1930 H   0  0  0  0  0  0  0  0  0  0  0  0
  -25.9760  -15.6460   19.6910 H   0  0  0  0  0  0  0  0  0  0  0  0
  1  2  1  0
  1 62  1  0
  2  5  1  0
  3  2  1  0
  4  2  1  0
  6  5  1  0
  6  8  1  0
  7  6  2  0
  9 10  1  0
  9  8  1  0
 11 10  1  0
 12 14  1  0
 12 11  1  0
 13 24  2  0
 14 19  1  0
 15 23  1  0
 15 25  1  0
 16 22  1  0
 16 18  1  0
 17 23  1  0
 18 17  1  0
 19 18  2  0
 20 21  1  0
 20 14  2  0
 21 16  2  0
 22 15  1  0
 23 13  1  0
 25 27  2  0
 26 25  1  0
 28 26  1  0
 29 38  2  0
 29 34  1  0
 30 26  1  0
 30 34  1  0
 31 30  1  0
 32 33  1  0
 32 31  1  0
 33 29  1  0
 34 35  2  0
 35 36  1  0
 37 36  2  0
 38 37  1  0
 39 13  1  0
 39 40  1  0
 39 49  1  0
 40 43  1  0
 41 45  1  0
 41 40  1  0
 42 41  2  0
 45 44  1  0
 47 45  1  0
 47 48  1  0
 47 46  1  0
 49 52  1  1
 49 50  1  0
 51 49  1  0
 53 61  1  0
 53  1  1  0
 54 57  2  0
 54 56  1  0
 55 54  1  0
 56 53  1  0
 58 56  1  0
 60 61  1  0
 61 59  1  0
 62 64  1  0
 64 63  1  0
 64 65  1  0
 65 66  1  0
 67 75  1  0
 68 73  1  0
 69 70  1  0
 69 68  1  0
 71 70  1  0
 71 80  1  0
 71 72  1  0
 73 67  1  0
 73 72  1  0
 74 67  2  0
 75 76  1  0
 75 66  1  0
 77 78  2  0
 78 97  1  0
 79 78  1  0
 79 82  1  0
 80 77  1  0
 80 81  1  0
 81 79  2  0
 82 83  1  0
 83 84  2  0
 85 88  1  0
 85 84  1  0
 86 85  2  0
 87 86  1  0
 87 82  2  0
 88 89  1  0
 89 94  2  0
 89 90  1  0
 90 91  2  0
 91 92  1  0
 92 96  1  0
 93 92  2  0
 94 93  1  0
 95 94  1  0
 97 98  1  0
 98101  1  0
 98100  1  0
 99 97  2  0
102103  1  0
102 77  1  0
104102  1  0
M  ISO  4  11 101  12 101  67 100  75 100
M  END
>  <TORSDO>  (61) 
F 30

>  <SCORE>  (61) 
-8.992

>  <name>  (61) 
60

>  <ligand_id>  (61) 
60

>  <original_smiles>  (61) 
[H]c1c([H])c([H])c2c(c1[H])C([H])([H])C([H])([H])C([H])([H])C2([H])N([H])C(=O)C1([H])N(C(=O)C([H])(N([H])C(=O)C([H])(N([H])C([H])([H])[H])C([H])([H])[H])C(C([H])([H])[H])(C([H])([H])[H])C([H])([H])[H])C([H])([H])c2c([H])c(OC([H])([H])C([H])([H])C([H])([H])C([H])([H])C(=O)C([H])([H])[N+]([H])([H])C([H])(C([H])([H])C([H])(C([H])([H])[H])C([H])([H])C([H])([H])N([H])C(=O)N3C([H])([H])C([H])([H])C([H])([H])C([H])(n4nc(-c5c([H])c([H])c(Oc6c([H])c([H])c(F)c([H])c6F)c([H])c5[H])c(C(=O)N([H])[H])c4N([H])[H])C3([H])[H])C([H])(N([H])C(=O)C([H])([H])[H])C([H])(C([H])([H])[H])C([H])([H])[H])c([H])c([H])c2C1([H])[H]

>  <smiles>  (61) 
[H]c1c([H])c([H])c2c(c1[H])C([H])([H])C([H])([H])C([H])([H])C2([H])N([H])C(=O)C1([H])N(C(=O)C([H])(N([H])C(=O)C([H])(N([H])C([H])([H])[H])C([H])([H])[H])C(C([H])([H])[H])(C([H])([H])[H])C([H])([H])[H])C([H])([H])c2c([H])c(OC([H])([H])C([H])([H])C([H])([H])C([H])([H])C(=O)C([H])([H])[N+]([H])([H])C([H])(C([H])([H])C([H])(C([H])([H])[H])C([H])([H])C([H])([H])N([H])C(=O)N3C([H])([H])C([H])([H])C([H])([H])C([H])(n4nc(-c5c([H])c([H])c(Oc6c([H])c([H])c(F)c([H])c6F)c([H])c5[H])c(C(=O)N([H])[H])c4N([H])[H])C3([H])[H])C([H])(N([H])C(=O)C([H])([H])[H])C([H])(C([H])([H])[H])C([H])([H])[H])c([H])c([H])c2C1([H])[H]

$$$$
61:0:0
     RDKit          3D

106115  0  0  1  0  0  0  0  0999 V2000
  -30.2700  -20.1430   18.7630 C   0  0  0  0  0  0  0  0  0  0  0  0
  -31.1490  -19.3860   19.4380 N   0  0  0  0  0  0  0  0  0  0  0  0
  -29.7690  -19.7880   17.6940 O   0  0  0  0  0  0  0  0  0  0  0  0
  -31.4980  -19.7550   20.3110 H   0  0  0  0  0  0  0  0  0  0  0  0
  -27.9470  -22.3370   20.9120 C   0  0  0  0  0  2  0  0  0  0  0  0
  -27.8950  -23.8390   20.6080 C   0  0  0  0  0  2  0  0  0  0  0  0
  -28.3490  -21.4570   19.7150 C   0  0  0  0  0  2  0  0  0  0  0  0
  -29.2150  -24.4130   20.0720 C   0  0  0  0  0  2  0  0  0  0  0  0
  -30.3300  -22.7040   18.5120 C   0  0  0  0  0  2  0  0  0  0  0  0
  -29.8660  -21.4940   19.3920 C   0  0  0  0  0  3  0  0  0  0  0  0
  -29.4910  -24.0050   18.6040 C   0  0  0  0  0  3  0  0  0  0  0  0
  -30.0750  -25.1980   17.7880 C   0  0  0  0  0  2  0  0  0  0  0  0
  -28.9380  -26.0720   17.2040 C   0  0  0  0  0  2  0  0  0  0  0  0
  -28.8400  -27.4270   17.6880 O   0  0  0  0  0  0  0  0  0  0  0  0
  -24.6390  -30.1450   22.7510 C   0  0  0  0  0  0  0  0  0  0  0  0
  -27.5580  -27.8450   18.0150 C   0  0  0  0  0  0  0  0  0  0  0  0
  -23.4800  -29.1040   20.8320 C   0  0  0  0  0  3  0  0  0  0  0  0
  -24.9390  -28.5910   18.8070 C   0  0  0  0  0  0  0  0  0  0  0  0
  -25.7910  -30.1680   20.5400 C   0  0  0  0  0  2  0  0  0  0  0  0
  -26.0510  -29.1650   19.4340 C   0  0  0  0  0  0  0  0  0  0  0  0
  -27.3610  -28.8010   19.0400 C   0  0  0  0  0  3  0  0  0  0  0  0
  -26.4150  -27.3100   17.3700 C   0  0  0  0  0  3  0  0  0  0  0  0
  -25.1160  -27.6620   17.7710 C   0  0  0  0  0  3  0  0  0  0  0  0
  -23.5690  -29.0090   19.2870 C   0  0  0  0  0  2  0  0  0  0  0  0
  -24.6630  -29.8030   21.4310 N   0  0  0  0  0  0  0  0  0  0  0  0
  -23.6450  -29.9230   23.4540 O   0  0  0  0  0  0  0  0  0  0  0  0
  -23.2540  -27.6840   21.4040 C   0  0  0  0  0  0  0  0  0  0  0  0
  -22.0430  -27.1410   21.1970 N   0  0  0  0  0  0  0  0  0  0  0  0
  -24.1610  -27.0870   21.9900 O   0  0  0  0  0  0  0  0  0  0  0  0
  -21.3530  -27.6990   20.7120 H   0  0  0  0  0  0  0  0  0  0  0  0
  -19.2660  -24.8290   21.1590 C   0  0  0  0  0  0  0  0  0  0  0  0
  -21.6170  -25.8060   21.6140 C   0  0  0  0  0  3  0  0  0  0  0  0
  -22.1430  -24.7260   20.6410 C   0  0  0  0  0  2  0  0  0  0  0  0
  -21.1480  -24.3820   19.5280 C   0  0  0  0  0  2  0  0  0  0  0  0
  -19.8310  -23.8740   20.1210 C   0  0  0  0  0  2  0  0  0  0  0  0
  -20.1020  -25.7480   21.8470 C   0  0  0  0  0  0  0  0  0  0  0  0
  -19.5220  -26.6390   22.7760 C   0  0  0  0  0  3  0  0  0  0  0  0
  -18.1370  -26.6190   23.0240 C   0  0  0  0  0  3  0  0  0  0  0  0
  -17.3160  -25.6970   22.3520 C   0  0  0  0  0  3  0  0  0  0  0  0
  -17.8820  -24.8030   21.4250 C   0  0  0  0  0  3  0  0  0  0  0  0
  -25.8510  -30.8530   23.4320 C   0  0  0  0  0  3  0  0  0  0  0  0
  -26.5050  -29.9950   24.5840 C   0  0  1  0  0  0  0  0  0  0  0  0
  -25.4840  -29.4400   25.6040 C   0  0  0  0  0  1  0  0  0  0  0  0
  -27.2800  -28.7940   23.9950 C   0  0  0  0  0  1  0  0  0  0  0  0
  -27.5370  -30.8530   25.3530 C   0  0  0  0  0  1  0  0  0  0  0  0
  -25.3770  -32.1430   23.9480 N   0  0  0  0  0  0  0  0  0  0  0  0
  -25.5600  -33.3210   23.3360 C   0  0  0  0  0  0  0  0  0  0  0  0
  -26.2180  -33.4400   22.2980 O   0  0  0  0  0  0  0  0  0  0  0  0
  -24.7860  -32.1160   24.7660 H   0  0  0  0  0  0  0  0  0  0  0  0
  -23.6250  -34.9200   23.2110 C   0  0  0  0  0  1  0  0  0  0  0  0
  -24.9110  -34.5620   23.9750 C   0  0  0  0  0  3  0  0  0  0  0  0
  -26.9240  -35.5790   24.9420 C   0  0  0  0  0  1  0  0  0  0  0  0
  -25.8050  -35.7390   24.0170 N   0  0  0  0  0  0  0  0  0  0  0  0
  -25.2900  -36.5740   24.2830 H   0  0  0  0  0  0  0  0  0  0  0  0
  -31.7380  -18.1130   18.9930 C   0  0  0  0  0  3  0  0  0  0  0  0
  -33.7930  -17.1510   17.7370 C   0  0  0  0  0  1  0  0  0  0  0  0
  -33.2210  -18.3340   18.5430 C   0  0  0  0  0  3  0  0  0  0  0  0
  -33.7720  -22.1140   16.4500 C   0  0  0  0  0  3  0  0  0  0  0  0
  -34.2110  -21.9730   17.7810 C   0  0  0  0  0  3  0  0  0  0  0  0
  -33.1830  -21.0220   15.7860 C   0  0  0  0  0  3  0  0  0  0  0  0
  -34.0500  -20.7450   18.4500 C   0  0  0  0  0  3  0  0  0  0  0  0
  -33.0260  -19.7920   16.4530 C   0  0  0  0  0  3  0  0  0  0  0  0
  -33.4470  -19.6480   17.7940 C   0  0  0  0  0  0  0  0  0  0  0  0
  -31.6330  -17.0350   20.1260 C   0  0  0  0  0  3  0  0  0  0  0  0
  -31.0860  -14.9700   18.8230 C   0  0  0  0  0  0  0  0  0  0  0  0
  -30.7140  -12.6560   18.0400 C   0  0  0  0  0  2  0  0  0  0  0  0
  -29.5380  -12.5460   17.0550 C   0  0  0  0  0  2  0  0  0  0  0  0
  -28.2100  -12.3690   17.8140 C   0  0  0  0  0  2  0  0  0  0  0  0
  -28.0300  -13.4150   18.9450 C   0  0  0  0  0  3  0  0  0  0  0  0
  -29.2930  -13.4980   19.8270 C   0  0  0  0  0  2  0  0  0  0  0  0
  -30.4510  -13.7770   18.9570 N   0  0  0  0  0  0  0  0  0  0  0  0
  -31.9350  -15.1850   17.9540 O   0  0  0  0  0  0  0  0  0  0  0  0
  -30.7960  -15.8860   19.7600 N   0  0  0  0  0  0  0  0  0  0  0  0
  -30.0590  -15.6440   20.4030 H   0  0  0  0  0  0  0  0  0  0  0  0
  -26.0390  -14.0120   20.4640 C   0  0  0  0  0  0  0  0  0  0  0  0
  -25.0120  -13.2570   20.9650 C   0  0  0  0  0  0  0  0  0  0  0  0
  -25.2380  -11.9260   20.5020 C   0  0  0  0  0  0  0  0  0  0  0  0
  -26.8350  -13.1380   19.7410 N   0  0  0  0  0  0  0  0  0  0  0  0
  -26.3700  -11.8640   19.8120 N   0  0  0  0  0  0  0  0  0  0  0  0
  -24.4130  -10.7180   20.6250 C   0  0  0  0  0  0  0  0  0  0  0  0
  -24.9190   -9.5330   21.2040 C   0  0  0  0  0  3  0  0  0  0  0  0
  -24.0990   -8.3910   21.3270 C   0  0  0  0  0  3  0  0  0  0  0  0
  -22.7600   -8.4240   20.8730 C   0  0  0  0  0  0  0  0  0  0  0  0
  -22.2690   -9.5990   20.2760 C   0  0  0  0  0  3  0  0  0  0  0  0
  -23.0870  -10.7330   20.1480 C   0  0  0  0  0  3  0  0  0  0  0  0
  -21.8980   -7.3560   20.9270 O   0  0  0  0  0  0  0  0  0  0  0  0
  -21.9750   -6.4190   21.9260 C   0  0  0  0  0  0  0  0  0  0  0  0
  -21.8280   -6.7680   23.2870 C   0  0  0  0  0  3  0  0  0  0  0  0
  -21.8450   -5.7660   24.2770 C   0  0  0  0  0  3  0  0  0  0  0  0
  -22.0010   -4.4160   23.9100 C   0  0  0  0  0  0  0  0  0  0  0  0
  -22.1420   -4.0660   22.5560 C   0  0  0  0  0  3  0  0  0  0  0  0
  -22.1280   -5.0640   21.5680 C   0  0  0  0  0  0  0  0  0  0  0  0
  -22.2440   -4.7200   20.2620 F   0  0  0  0  0  0  0  0  0  0  0  0
  -22.0080   -3.4510   24.8600 F   0  0  0  0  0  0  0  0  0  0  0  0
  -23.8320  -13.7590   21.7490 C   0  0  0  0  0  0  0  0  0  0  0  0
  -23.2970  -12.9370   22.6450 N   0  0  0  0  0  0  0  0  0  0  0  0
  -23.4080  -14.9050   21.6030 O   0  0  0  0  0  0  0  0  0  0  0  0
  -23.6590  -12.0050   22.7810 H   0  0  0  0  0  0  0  0  0  0  0  0
  -22.5140  -13.2470   23.2040 H   0  0  0  0  0  0  0  0  0  0  0  0
  -26.3500  -15.3660   20.5460 N   0  0  0  0  0  0  0  0  0  0  0  0
  -25.7460  -16.0340   21.0130 H   0  0  0  0  0  0  0  0  0  0  0  0
  -27.1330  -15.8020   20.0750 H   0  0  0  0  0  0  0  0  0  0  0  0
  -31.2260  -17.5860   21.5200 C   0  0  0  0  0  2  0  0  0  0  0  0
  -31.7360  -15.2670   22.5300 C   0  0  0  0  0  1  0  0  0  0  0  0
  -30.8810  -17.1400   23.9900 C   0  0  0  0  0  1  0  0  0  0  0  0
  -30.8480  -16.5230   22.5830 C   0  0  0  0  0  3  0  0  0  0  0  0
  1  2  1  0
  2  4  1  0
  3  1  2  0
  6  5  1  0
  7  5  1  0
  8  6  1  0
  9 11  1  0
  9 10  1  0
 10  1  1  0
 10  7  1  0
 11 12  1  0
 11  8  1  0
 13 14  1  0
 13 12  1  0
 14 16  1  0
 15 26  2  0
 16 21  1  0
 17 27  1  0
 17 25  1  0
 18 24  1  0
 18 20  1  0
 19 25  1  0
 20 19  1  0
 21 20  2  0
 22 23  1  0
 22 16  2  0
 23 18  2  0
 24 17  1  0
 25 15  1  0
 27 29  2  0
 28 27  1  0
 30 28  1  0
 31 40  2  0
 31 36  1  0
 32 28  1  0
 32 36  1  0
 33 32  1  0
 34 35  1  0
 34 33  1  0
 35 31  1  0
 36 37  2  0
 37 38  1  0
 39 38  2  0
 40 39  1  0
 41 15  1  0
 41 46  1  0
 41 42  1  0
 42 45  1  1
 42 43  1  0
 44 42  1  0
 46 49  1  0
 47 46  1  0
 47 51  1  0
 48 47  2  0
 51 50  1  0
 51 53  1  0
 53 54  1  0
 53 52  1  0
 55  2  1  0
 55 64  1  0
 57 56  1  0
 57 55  1  0
 58 59  1  0
 59 61  2  0
 60 58  2  0
 60 62  1  0
 62 63  2  0
 63 61  1  0
 63 57  1  0
 64103  1  0
 65 71  1  0
 65 73  1  0
 66 71  1  0
 67 68  1  0
 67 66  1  0
 69 68  1  0
 69 78  1  0
 69 70  1  0
 71 70  1  0
 72 65  2  0
 73 64  1  0
 73 74  1  0
 75100  1  0
 75 76  2  0
 76 95  1  0
 77 80  1  0
 77 76  1  0
 78 79  1  0
 78 75  1  0
 79 77  2  0
 80 81  1  0
 81 82  2  0
 83 86  1  0
 83 82  1  0
 84 83  2  0
 85 84  1  0
 85 80  2  0
 86 87  1  0
 87 88  1  0
 88 89  2  0
 90 89  1  0
 90 94  1  0
 91 90  2  0
 92 87  2  0
 92 91  1  0
 93 92  1  0
 95 96  1  0
 96 98  1  0
 96 99  1  0
 97 95  2  0
100101  1  0
102100  1  0
103106  1  0
104106  1  0
106105  1  0
M  ISO  4  13 101  14 101  65 100  73 100
M  END
>  <TORSDO>  (62) 
F 25

>  <SCORE>  (62) 
-3.156

>  <name>  (62) 
61

>  <ligand_id>  (62) 
61

>  <original_smiles>  (62) 
[H]c1c([H])c([H])c(C([H])(C([H])([H])[H])C([H])(N([H])C(=O)C2([H])C([H])([H])C([H])([H])C([H])([H])C([H])([H])C([H])(C([H])([H])C([H])([H])Oc3c([H])c([H])c4c(c3[H])C([H])([H])N(C(=O)C([H])(N([H])C(=O)C([H])(N([H])C([H])([H])[H])C([H])([H])[H])C(C([H])([H])[H])(C([H])([H])[H])C([H])([H])[H])C([H])(C(=O)N([H])C3([H])c5c([H])c([H])c([H])c([H])c5C([H])([H])C([H])([H])C3([H])[H])C4([H])[H])C2([H])[H])C([H])(N([H])C(=O)N2C([H])([H])C([H])([H])C([H])([H])C([H])(n3nc(-c4c([H])c([H])c(Oc5c([H])c([H])c(F)c([H])c5F)c([H])c4[H])c(C(=O)N([H])[H])c3N([H])[H])C2([H])[H])C([H])([H])C([H])(C([H])([H])[H])C([H])([H])[H])c([H])c1[H]

>  <smiles>  (62) 
[H]c1c([H])c([H])c(C([H])(C([H])([H])[H])C([H])(N([H])C(=O)C2([H])C([H])([H])C([H])([H])C([H])([H])C([H])([H])C([H])(C([H])([H])C([H])([H])Oc3c([H])c([H])c4c(c3[H])C([H])([H])N(C(=O)C([H])(N([H])C(=O)C([H])(N([H])C([H])([H])[H])C([H])([H])[H])C(C([H])([H])[H])(C([H])([H])[H])C([H])([H])[H])C([H])(C(=O)N([H])C3([H])c5c([H])c([H])c([H])c([H])c5C([H])([H])C([H])([H])C3([H])[H])C4([H])[H])C2([H])[H])C([H])(N([H])C(=O)N2C([H])([H])C([H])([H])C([H])([H])C([H])(n3nc(-c4c([H])c([H])c(Oc5c([H])c([H])c(F)c([H])c5F)c([H])c4[H])c(C(=O)N([H])[H])c3N([H])[H])C2([H])[H])C([H])([H])C([H])(C([H])([H])[H])C([H])([H])[H])c([H])c1[H]

$$$$
62:0:0
     RDKit          3D

 96103  0  0  1  0  0  0  0  0999 V2000
  -29.5560  -21.9070   20.5600 C   0  0  0  0  0  2  0  0  0  0  0  0
  -30.1800  -19.2700   19.8330 C   0  0  0  0  0  0  0  0  0  0  0  0
  -29.5180  -20.3100   20.5450 N   0  0  0  0  0  0  0  0  0  0  0  0
  -30.5420  -19.5030   18.6800 O   0  0  0  0  0  0  0  0  0  0  0  0
  -29.1880  -19.9410   21.4280 H   0  0  0  0  0  0  0  0  0  0  0  0
  -30.6480  -17.7930   20.4650 C   0  0  0  0  0  0  0  0  0  0  0  0
  -31.1900  -15.1100   19.8940 C   0  0  0  0  0  0  0  0  0  0  0  0
  -30.9220  -12.7490   18.9830 C   0  0  0  0  0  2  0  0  0  0  0  0
  -29.9430  -12.6940   17.7900 C   0  0  0  0  0  2  0  0  0  0  0  0
  -28.4870  -12.5650   18.2810 C   0  0  0  0  0  2  0  0  0  0  0  0
  -28.1600  -13.5450   19.4370 C   0  0  0  0  0  3  0  0  0  0  0  0
  -29.2540  -13.5480   20.5210 C   0  0  0  0  0  2  0  0  0  0  0  0
  -30.5120  -13.8930   19.8420 N   0  0  0  0  0  0  0  0  0  0  0  0
  -32.4130  -15.0830   19.7360 O   0  0  0  0  0  0  0  0  0  0  0  0
  -30.4760  -16.3440   19.8400 N   0  0  0  0  0  4  0  0  0  0  0  0
  -29.5160  -16.1850   19.5860 H   0  0  0  0  0  0  0  0  0  0  0  0
  -25.8570  -14.2690   20.2880 C   0  0  0  0  0  0  0  0  0  0  0  0
  -24.7550  -13.5630   20.6760 C   0  0  0  0  0  0  0  0  0  0  0  0
  -25.1240  -12.1840   20.6070 C   0  0  0  0  0  0  0  0  0  0  0  0
  -26.8280  -13.3290   19.9900 N   0  0  0  0  0  0  0  0  0  0  0  0
  -26.3990  -12.0670   20.2510 N   0  0  0  0  0  0  0  0  0  0  0  0
  -24.3200  -10.9710   20.7990 C   0  0  0  0  0  0  0  0  0  0  0  0
  -24.6970   -9.9770   21.7280 C   0  0  0  0  0  3  0  0  0  0  0  0
  -23.8960   -8.8290   21.9100 C   0  0  0  0  0  3  0  0  0  0  0  0
  -22.7040   -8.6670   21.1640 C   0  0  0  0  0  0  0  0  0  0  0  0
  -22.3460   -9.6500   20.2240 C   0  0  0  0  0  3  0  0  0  0  0  0
  -23.1450  -10.7900   20.0390 C   0  0  0  0  0  3  0  0  0  0  0  0
  -21.8790   -7.5740   21.2540 O   0  0  0  0  0  0  0  0  0  0  0  0
  -21.7460   -6.8680   22.4240 C   0  0  0  0  0  0  0  0  0  0  0  0
  -21.3410   -7.4860   23.6270 C   0  0  0  0  0  3  0  0  0  0  0  0
  -21.1510   -6.7120   24.7870 C   0  0  0  0  0  3  0  0  0  0  0  0
  -21.3540   -5.3190   24.7460 C   0  0  0  0  0  0  0  0  0  0  0  0
  -21.7520   -4.7010   23.5480 C   0  0  0  0  0  3  0  0  0  0  0  0
  -21.9440   -5.4740   22.3900 C   0  0  0  0  0  0  0  0  0  0  0  0
  -22.3060   -4.8700   21.2340 F   0  0  0  0  0  0  0  0  0  0  0  0
  -21.1630   -4.5730   25.8600 F   0  0  0  0  0  0  0  0  0  0  0  0
  -23.4020  -14.1300   21.0000 C   0  0  0  0  0  0  0  0  0  0  0  0
  -22.6790  -13.5010   21.9180 N   0  0  0  0  0  0  0  0  0  0  0  0
  -23.0040  -15.1670   20.4730 O   0  0  0  0  0  0  0  0  0  0  0  0
  -23.0170  -12.6640   22.3690 H   0  0  0  0  0  0  0  0  0  0  0  0
  -21.7720  -13.8630   22.1730 H   0  0  0  0  0  0  0  0  0  0  0  0
  -26.1070  -15.6310   20.1350 N   0  0  0  0  0  0  0  0  0  0  0  0
  -25.3960  -16.3290   20.3190 H   0  0  0  0  0  0  0  0  0  0  0  0
  -26.9780  -16.0320   19.8170 H   0  0  0  0  0  0  0  0  0  0  0  0
  -30.2490  -17.6490   21.9630 C   0  0  0  0  0  2  0  0  0  0  0  0
  -31.2930  -17.4020   24.2360 C   0  0  0  0  0  1  0  0  0  0  0  0
  -32.3940  -18.9750   22.6560 C   0  0  0  0  0  1  0  0  0  0  0  0
  -30.1700  -19.5420   23.6920 C   0  0  0  0  0  1  0  0  0  0  0  0
  -31.0290  -18.4050   23.0940 C   0  0  1  0  0  0  0  0  0  0  0  0
  -28.3500  -23.0220   20.1170 C   0  0  0  0  0  3  0  0  0  0  0  0
  -28.1710  -22.9370   18.6560 N   0  0  0  0  0  4  0  0  0  0  0  0
  -28.9280  -23.3800   18.1630 H   0  0  0  0  0  0  0  0  0  0  0  0
  -27.3100  -23.3660   18.3640 H   0  0  0  0  0  0  0  0  0  0  0  0
  -28.1460  -21.9680   18.3870 H   0  0  0  0  0  0  0  0  0  0  0  0
  -28.1840  -24.6420   20.6660 C   0  0  0  0  0  2  0  0  0  0  0  0
  -28.1580  -26.0490   19.9670 O   0  0  0  0  0  0  0  0  0  0  0  0
  -24.5970  -31.8060   23.0310 C   0  0  0  0  0  0  0  0  0  0  0  0
  -27.0830  -27.0170   20.0270 C   0  0  0  0  0  0  0  0  0  0  0  0
  -23.3580  -30.4090   21.4210 C   0  0  0  0  0  3  0  0  0  0  0  0
  -24.7690  -28.7900   20.0050 C   0  0  0  0  0  0  0  0  0  0  0  0
  -25.9110  -30.6410   21.2150 C   0  0  0  0  0  2  0  0  0  0  0  0
  -25.9630  -29.2350   20.5870 C   0  0  0  0  0  0  0  0  0  0  0  0
  -27.1220  -28.3670   20.5720 C   0  0  0  0  0  3  0  0  0  0  0  0
  -25.8600  -26.6710   19.4170 C   0  0  0  0  0  3  0  0  0  0  0  0
  -24.7310  -27.5220   19.4040 C   0  0  0  0  0  3  0  0  0  0  0  0
  -23.5550  -29.7060   20.0500 C   0  0  0  0  0  2  0  0  0  0  0  0
  -24.6430  -30.9750   21.9440 N   0  0  0  0  0  0  0  0  0  0  0  0
  -23.5220  -32.1070   23.5730 O   0  0  0  0  0  0  0  0  0  0  0  0
  -22.6760  -29.4260   22.4060 C   0  0  0  0  0  0  0  0  0  0  0  0
  -21.3420  -29.2790   22.3060 N   0  0  0  0  0  0  0  0  0  0  0  0
  -23.3490  -28.7920   23.2220 O   0  0  0  0  0  0  0  0  0  0  0  0
  -20.8550  -29.8400   21.6220 H   0  0  0  0  0  0  0  0  0  0  0  0
  -17.9570  -28.1090   22.8580 C   0  0  0  0  0  0  0  0  0  0  0  0
  -20.5200  -28.3580   23.0960 C   0  0  0  0  0  3  0  0  0  0  0  0
  -20.6080  -26.9180   22.5420 C   0  0  0  0  0  2  0  0  0  0  0  0
  -19.4950  -26.5870   21.5430 C   0  0  0  0  0  2  0  0  0  0  0  0
  -18.1200  -26.7500   22.1960 C   0  0  0  0  0  2  0  0  0  0  0  0
  -19.0840  -28.8710   23.2660 C   0  0  0  0  0  0  0  0  0  0  0  0
  -18.8800  -30.1410   23.8480 C   0  0  0  0  0  3  0  0  0  0  0  0
  -17.5800  -30.6510   24.0230 C   0  0  0  0  0  3  0  0  0  0  0  0
  -16.4670  -29.8900   23.6280 C   0  0  0  0  0  3  0  0  0  0  0  0
  -16.6560  -28.6190   23.0540 C   0  0  0  0  0  3  0  0  0  0  0  0
  -25.8900  -32.4340   23.6360 C   0  0  0  0  0  3  0  0  0  0  0  0
  -26.4430  -31.6350   24.8810 C   0  0  1  0  0  0  0  0  0  0  0  0
  -25.3790  -31.3770   25.9740 C   0  0  0  0  0  1  0  0  0  0  0  0
  -27.0150  -30.2660   24.4470 C   0  0  0  0  0  1  0  0  0  0  0  0
  -27.6130  -32.4170   25.5250 C   0  0  0  0  0  1  0  0  0  0  0  0
  -25.5850  -33.8230   24.0150 N   0  0  0  0  0  0  0  0  0  0  0  0
  -25.9180  -34.9020   23.2960 C   0  0  0  0  0  0  0  0  0  0  0  0
  -26.5790  -34.8340   22.2560 O   0  0  0  0  0  0  0  0  0  0  0  0
  -25.0020  -33.9530   24.8290 H   0  0  0  0  0  0  0  0  0  0  0  0
  -24.1920  -36.7160   23.0280 C   0  0  0  0  0  1  0  0  0  0  0  0
  -25.4420  -36.2780   23.8080 C   0  0  0  0  0  3  0  0  0  0  0  0
  -27.5930  -37.1240   24.6380 C   0  0  0  0  0  1  0  0  0  0  0  0
  -26.4770  -37.3310   23.7190 N   0  0  0  0  0  0  0  0  0  0  0  0
  -26.0770  -38.2460   23.9070 H   0  0  0  0  0  0  0  0  0  0  0  0
  2  6  1  0
  2  3  1  0
  3  1  1  0
  3  5  1  0
  4  2  2  0
  6 45  1  0
  8 13  1  0
  9 10  1  0
  9  8  1  0
 11 10  1  0
 11 20  1  0
 11 12  1  0
 13  7  1  0
 13 12  1  0
 14  7  2  0
 15  7  1  0
 15  6  2  3
 16 15  1  0
 17 18  2  0
 18 37  1  0
 19 18  1  0
 19 22  1  0
 20 21  1  0
 20 17  1  0
 21 19  2  0
 22 23  1  0
 23 24  2  0
 25 28  1  0
 25 24  1  0
 26 25  2  0
 27 26  1  0
 27 22  2  0
 28 29  1  0
 29 30  1  0
 30 31  2  0
 32 31  1  0
 32 36  1  0
 33 32  2  0
 34 29  2  0
 34 33  1  0
 35 34  1  0
 37 38  1  0
 38 41  1  0
 38 40  1  0
 39 37  2  0
 42 17  1  0
 42 43  1  0
 44 42  1  0
 45 49  1  0
 49 47  1  6
 49 48  1  0
 49 46  1  0
 50  1  1  0
 50 55  1  0
 51 50  1  0
 52 51  1  0
 53 51  1  0
 54 51  1  0
 56 58  1  0
 56 55  1  0
 57 68  2  0
 58 63  1  0
 59 67  1  0
 59 69  1  0
 60 66  1  0
 60 62  1  0
 61 67  1  0
 62 61  1  0
 63 62  2  0
 64 58  2  0
 65 64  1  0
 65 60  2  0
 66 59  1  0
 67 57  1  0
 69 71  2  0
 70 69  1  0
 72 70  1  0
 73 82  2  0
 73 78  1  0
 74 70  1  0
 74 78  1  0
 75 74  1  0
 76 77  1  0
 76 75  1  0
 77 73  1  0
 78 79  2  0
 79 80  1  0
 81 80  2  0
 82 81  1  0
 83 57  1  0
 83 88  1  0
 83 84  1  0
 84 87  1  1
 84 85  1  0
 86 84  1  0
 88 91  1  0
 89 93  1  0
 89 88  1  0
 90 89  2  0
 93 92  1  0
 95 93  1  0
 95 96  1  0
 95 94  1  0
M  ISO  4   7 100  15 100  55 101  56 101
M  END
>  <TORSDO>  (63) 
F 23

>  <SCORE>  (63) 
-10.025

>  <name>  (63) 
62

>  <ligand_id>  (63) 
62

>  <original_smiles>  (63) 
[H]c1c([H])c([H])c2c(c1[H])C([H])([H])C([H])([H])C([H])([H])C2([H])N([H])C(=O)C1([H])N(C(=O)C([H])(N([H])C(=O)C([H])(N([H])C([H])([H])[H])C([H])([H])[H])C(C([H])([H])[H])(C([H])([H])[H])C([H])([H])[H])C([H])([H])c2c([H])c(OC([H])([H])C([H])(C([H])([H])N([H])C(=O)C([H])(N([H])C(=O)N3C([H])([H])C([H])([H])C([H])([H])C([H])(n4nc(-c5c([H])c([H])c(Oc6c([H])c([H])c(F)c([H])c6F)c([H])c5[H])c(C(=O)N([H])[H])c4N([H])[H])C3([H])[H])C([H])([H])C(C([H])([H])[H])(C([H])([H])[H])C([H])([H])[H])[N+]([H])([H])[H])c([H])c([H])c2C1([H])[H]

>  <smiles>  (63) 
[H]c1c([H])c([H])c2c(c1[H])C([H])([H])C([H])([H])C([H])([H])C2([H])N([H])C(=O)C1([H])N(C(=O)C([H])(N([H])C(=O)C([H])(N([H])C([H])([H])[H])C([H])([H])[H])C(C([H])([H])[H])(C([H])([H])[H])C([H])([H])[H])C([H])([H])c2c([H])c(OC([H])([H])C([H])(C([H])([H])N([H])C(=O)C([H])(N([H])C(=O)N3C([H])([H])C([H])([H])C([H])([H])C([H])(n4nc(-c5c([H])c([H])c(Oc6c([H])c([H])c(F)c([H])c6F)c([H])c5[H])c(C(=O)N([H])[H])c4N([H])[H])C3([H])[H])C([H])([H])C(C([H])([H])[H])(C([H])([H])[H])C([H])([H])[H])[N+]([H])([H])[H])c([H])c([H])c2C1([H])[H]

$$$$
63:0:0
     RDKit          3D

105112  0  0  1  0  0  0  0  0999 V2000
  -27.4560  -15.6030   18.0020 C   0  0  0  0  0  3  0  0  0  0  0  0
  -27.5690  -16.8260   19.0440 C   0  0  0  0  0  3  0  0  0  0  0  0
  -28.2520  -18.2260   18.6570 C   0  0  0  0  0  3  0  0  0  0  0  0
  -28.4260  -19.3220   19.8280 C   0  0  0  0  0  3  0  0  0  0  0  0
  -29.0000  -20.7850   19.4940 C   0  0  0  0  0  3  0  0  0  0  0  0
  -28.9220  -22.0070   20.5660 C   0  0  0  0  0  3  0  0  0  0  0  0
  -29.7720  -23.3880   20.3830 C   0  0  0  0  0  3  0  0  0  0  0  0
  -29.3560  -24.6670   21.3040 C   0  0  0  0  0  2  0  0  0  0  0  0
  -29.6380  -26.1290   21.0290 O   0  0  0  0  0  0  0  0  0  0  0  0
  -25.2060  -31.3100   23.7110 C   0  0  0  0  0  0  0  0  0  0  0  0
  -28.5240  -26.9870   20.9160 C   0  0  0  0  0  0  0  0  0  0  0  0
  -24.3510  -29.8490   21.9220 C   0  0  0  0  0  3  0  0  0  0  0  0
  -26.0860  -28.4580   20.6750 C   0  0  0  0  0  0  0  0  0  0  0  0
  -26.8660  -30.3540   22.0880 C   0  0  0  0  0  2  0  0  0  0  0  0
  -27.1370  -29.0000   21.4270 C   0  0  0  0  0  0  0  0  0  0  0  0
  -28.3720  -28.2740   21.5410 C   0  0  0  0  0  3  0  0  0  0  0  0
  -27.4550  -26.5330   20.1210 C   0  0  0  0  0  3  0  0  0  0  0  0
  -26.2520  -27.2360   20.0180 C   0  0  0  0  0  3  0  0  0  0  0  0
  -24.7960  -29.2400   20.5740 C   0  0  0  0  0  2  0  0  0  0  0  0
  -25.4870  -30.5220   22.6310 N   0  0  0  0  0  0  0  0  0  0  0  0
  -24.0410  -31.4910   24.0960 O   0  0  0  0  0  0  0  0  0  0  0  0
  -23.6540  -28.7620   22.7720 C   0  0  0  0  0  0  0  0  0  0  0  0
  -22.4070  -28.4090   22.4040 N   0  0  0  0  0  0  0  0  0  0  0  0
  -24.2370  -28.2420   23.7250 O   0  0  0  0  0  0  0  0  0  0  0  0
  -21.9940  -28.8940   21.6200 H   0  0  0  0  0  0  0  0  0  0  0  0
  -19.2090  -26.7200   22.2490 C   0  0  0  0  0  0  0  0  0  0  0  0
  -21.5810  -27.3780   23.0400 C   0  0  0  0  0  3  0  0  0  0  0  0
  -22.0100  -25.9620   22.5910 C   0  0  0  0  0  2  0  0  0  0  0  0
  -21.2170  -25.4420   21.3890 C   0  0  0  0  0  2  0  0  0  0  0  0
  -19.7210  -25.3920   21.7130 C   0  0  0  0  0  2  0  0  0  0  0  0
  -20.0840  -27.6580   22.8550 C   0  0  0  0  0  0  0  0  0  0  0  0
  -19.5620  -28.8900   23.3040 C   0  0  0  0  0  3  0  0  0  0  0  0
  -18.1950  -29.1900   23.1550 C   0  0  0  0  0  3  0  0  0  0  0  0
  -17.3310  -28.2520   22.5660 C   0  0  0  0  0  3  0  0  0  0  0  0
  -17.8360  -27.0170   22.1220 C   0  0  0  0  0  3  0  0  0  0  0  0
  -26.3370  -32.0330   24.4990 C   0  0  0  0  0  3  0  0  0  0  0  0
  -25.9220  -33.4300   24.6950 N   0  0  0  0  0  0  0  0  0  0  0  0
  -26.3210  -34.4560   23.9330 C   0  0  0  0  0  0  0  0  0  0  0  0
  -27.1470  -34.3310   23.0250 O   0  0  0  0  0  0  0  0  0  0  0  0
  -25.2100  -33.5980   25.3920 H   0  0  0  0  0  0  0  0  0  0  0  0
  -24.5790  -36.1230   23.2190 C   0  0  0  0  0  1  0  0  0  0  0  0
  -25.7090  -35.8400   24.2220 C   0  0  0  0  0  3  0  0  0  0  0  0
  -27.6570  -36.8930   25.2860 C   0  0  0  0  0  1  0  0  0  0  0  0
  -26.6960  -36.9410   24.1840 N   0  0  0  0  0  0  0  0  0  0  0  0
  -26.2310  -37.8440   24.2130 H   0  0  0  0  0  0  0  0  0  0  0  0
  -26.6500  -31.3560   25.8910 C   0  0  1  0  0  0  0  0  0  0  0  0
  -25.3980  -31.1150   26.7650 C   0  0  0  0  0  1  0  0  0  0  0  0
  -27.3540  -29.9960   25.6920 C   0  0  0  0  0  1  0  0  0  0  0  0
  -27.6290  -32.2450   26.6960 C   0  0  0  0  0  1  0  0  0  0  0  0
  -29.9140  -23.7290   18.8810 C   0  0  0  0  0  2  0  0  0  0  0  0
  -32.3330  -22.6900   18.7540 C   0  0  0  0  0  1  0  0  0  0  0  0
  -31.2590  -23.7820   16.7620 C   0  0  0  0  0  1  0  0  0  0  0  0
  -31.3540  -23.7970   18.2980 C   0  0  0  0  0  3  0  0  0  0  0  0
  -27.0420  -14.1470   18.5350 C   0  0  0  0  0  3  0  0  0  0  0  0
  -27.6380  -12.8160   17.8410 C   0  0  0  0  0  3  0  0  0  0  0  0
  -27.5650  -11.4270   18.6860 C   0  0  0  0  0  3  0  0  0  0  0  0
  -28.6620  -10.2310   18.5290 C   0  0  0  0  0  3  0  0  0  0  0  0
  -28.6840   -8.9470   19.5390 C   0  0  0  0  0  2  0  0  0  0  0  0
  -30.0230   -8.0710   19.8880 C   0  0  0  0  0  2  0  0  0  0  0  0
  -31.9420   -7.5880   21.5780 C   0  0  0  0  0  0  0  0  0  0  0  0
  -30.7180   -8.1390   21.2390 N   0  0  0  0  0  0  0  0  0  0  0  0
  -32.4740   -6.8160   20.7770 O   0  0  0  0  0  0  0  0  0  0  0  0
  -30.2640   -8.7230   21.9340 H   0  0  0  0  0  0  0  0  0  0  0  0
  -32.7490   -7.9360   22.9370 C   0  0  0  0  0  3  0  0  0  0  0  0
  -34.2630  -10.0230   22.2720 C   0  0  0  0  0  0  0  0  0  0  0  0
  -33.5220   -9.7740   20.1170 C   0  0  0  0  0  2  0  0  0  0  0  0
  -32.8380  -10.6680   19.1530 C   0  0  0  0  0  2  0  0  0  0  0  0
  -31.4590  -10.9510   19.6670 C   0  0  0  0  0  2  0  0  0  0  0  0
  -31.2560  -11.5590   21.0310 C   0  0  0  0  0  3  0  0  0  0  0  0
  -31.9760  -10.7260   22.0430 C   0  0  0  0  0  2  0  0  0  0  0  0
  -33.2590  -10.2380   21.4880 N   0  0  0  0  0  0  0  0  0  0  0  0
  -35.3600  -10.6000   22.1200 O   0  0  0  0  0  0  0  0  0  0  0  0
  -33.9820   -8.8710   22.9610 N   0  0  0  0  0  0  0  0  0  0  0  0
  -34.7100   -8.5830   23.5980 H   0  0  0  0  0  0  0  0  0  0  0  0
  -29.1320  -12.8870   21.5710 C   0  0  0  0  0  0  0  0  0  0  0  0
  -27.8130  -12.5430   21.7070 C   0  0  0  0  0  0  0  0  0  0  0  0
  -27.7530  -11.1280   21.5670 C   0  0  0  0  0  0  0  0  0  0  0  0
  -29.8230  -11.7140   21.3540 N   0  0  0  0  0  0  0  0  0  0  0  0
  -28.9870  -10.6410   21.4300 N   0  0  0  0  0  0  0  0  0  0  0  0
  -26.5750  -10.2350   21.5110 C   0  0  0  0  0  0  0  0  0  0  0  0
  -26.4260   -9.1440   22.3920 C   0  0  0  0  0  3  0  0  0  0  0  0
  -25.2680   -8.3360   22.3530 C   0  0  0  0  0  3  0  0  0  0  0  0
  -24.2310   -8.6180   21.4310 C   0  0  0  0  0  0  0  0  0  0  0  0
  -24.3920   -9.6940   20.5350 C   0  0  0  0  0  3  0  0  0  0  0  0
  -25.5540  -10.4900   20.5740 C   0  0  0  0  0  3  0  0  0  0  0  0
  -23.0860   -7.8680   21.3010 O   0  0  0  0  0  0  0  0  0  0  0  0
  -22.3890   -7.4130   22.3950 C   0  0  0  0  0  0  0  0  0  0  0  0
  -21.9050   -8.2990   23.3800 C   0  0  0  0  0  3  0  0  0  0  0  0
  -21.1360   -7.8100   24.4540 C   0  0  0  0  0  3  0  0  0  0  0  0
  -20.8370   -6.4360   24.5400 C   0  0  0  0  0  0  0  0  0  0  0  0
  -21.3010   -5.5540   23.5500 C   0  0  0  0  0  3  0  0  0  0  0  0
  -22.0730   -6.0410   22.4780 C   0  0  0  0  0  0  0  0  0  0  0  0
  -22.5060   -5.1870   21.5200 F   0  0  0  0  0  0  0  0  0  0  0  0
  -20.0860   -5.9650   25.5660 F   0  0  0  0  0  0  0  0  0  0  0  0
  -26.6800  -13.5070   21.8720 C   0  0  0  0  0  0  0  0  0  0  0  0
  -25.6320  -13.0900   22.5800 N   0  0  0  0  0  0  0  0  0  0  0  0
  -26.7540  -14.6550   21.4370 O   0  0  0  0  0  0  0  0  0  0  0  0
  -25.6080  -12.1590   22.9660 H   0  0  0  0  0  0  0  0  0  0  0  0
  -24.8540  -13.7150   22.7470 H   0  0  0  0  0  0  0  0  0  0  0  0
  -29.7600  -14.1230   21.5940 N   0  0  0  0  0  0  0  0  0  0  0  0
  -29.1900  -14.9590   21.6780 H   0  0  0  0  0  0  0  0  0  0  0  0
  -30.7370  -14.3230   21.4330 H   0  0  0  0  0  0  0  0  0  0  0  0
  -34.3340   -5.9210   23.3250 C   0  0  0  0  0  1  0  0  0  0  0  0
  -33.0960   -6.9630   25.2820 C   0  0  0  0  0  1  0  0  0  0  0  0
  -33.0580   -6.6570   23.7700 C   0  0  0  0  0  3  0  0  0  0  0  0
  1 54  1  0
  1  2  2  0
  3  2  1  0
  3  4  2  0
  5  4  1  0
  5  6  2  0
  7 50  1  0
  7  6  1  0
  7  8  1  0
  9  8  1  0
 10 21  2  0
 11  9  1  0
 11 16  1  0
 12 20  1  0
 12 22  1  0
 13 15  1  0
 14 20  1  0
 15 16  2  0
 15 14  1  0
 17 11  2  0
 18 17  1  0
 18 13  2  0
 19 13  1  0
 19 12  1  0
 20 10  1  0
 22 24  2  0
 23 22  1  0
 25 23  1  0
 26 31  1  0
 27 23  1  0
 28 27  1  0
 29 30  1  0
 29 28  1  0
 30 26  1  0
 31 27  1  0
 31 32  2  0
 33 32  1  0
 34 33  2  0
 35 26  2  0
 35 34  1  0
 36 10  1  0
 36 37  1  0
 36 46  1  0
 37 40  1  0
 38 42  1  0
 38 37  1  0
 39 38  2  0
 42 41  1  0
 44 45  1  0
 44 42  1  0
 44 43  1  0
 46 49  1  1
 46 47  1  0
 48 46  1  0
 52 53  1  0
 53 51  1  0
 53 50  1  0
 55 54  2  0
 55 56  1  0
 57 56  2  0
 57 58  1  0
 58 59  1  0
 59 61  1  0
 61 60  1  0
 61 63  1  0
 62 60  2  0
 64 60  1  0
 64 73  1  0
 64105  1  0
 65 73  1  0
 66 71  1  0
 67 68  1  0
 67 66  1  0
 69 68  1  0
 69 78  1  0
 69 70  1  0
 71 70  1  0
 71 65  1  0
 72 65  2  0
 73 74  1  0
 75100  1  0
 75 76  2  0
 76 95  1  0
 77 76  1  0
 78 79  1  0
 78 75  1  0
 79 77  2  0
 80 77  1  0
 80 81  1  0
 82 81  2  0
 83 82  1  0
 84 85  1  0
 84 83  2  0
 85 80  2  0
 86 83  1  0
 86 87  1  0
 87 92  2  0
 87 88  1  0
 88 89  2  0
 89 90  1  0
 90 94  1  0
 91 90  2  0
 92 91  1  0
 93 92  1  0
 95 96  1  0
 96 99  1  0
 96 98  1  0
 97 95  2  0
100101  1  0
102100  1  0
103105  1  0
105104  1  0
M  ISO  4   8 101   9 101  65 100  73 100
M  END
>  <TORSDO>  (64) 
F 34

>  <SCORE>  (64) 
-3.472

>  <name>  (64) 
63

>  <ligand_id>  (64) 
63

>  <original_smiles>  (64) 
[H]c1c([H])c([H])c2c(c1[H])C([H])([H])C([H])([H])C([H])([H])C2([H])N([H])C(=O)C1([H])N(C(=O)C([H])(N([H])C(=O)C([H])(N([H])C([H])([H])[H])C([H])([H])[H])C(C([H])([H])[H])(C([H])([H])[H])C([H])([H])[H])C([H])([H])c2c([H])c(OC([H])([H])C([H])(C([H])([H])C([H])([H])C([H])([H])C([H])([H])C([H])([H])C([H])([H])C([H])([H])C([H])([H])C([H])([H])C([H])([H])C([H])([H])C([H])([H])N([H])C(=O)C([H])(N([H])C(=O)N3C([H])([H])C([H])([H])C([H])([H])C([H])(n4nc(-c5c([H])c([H])c(Oc6c([H])c([H])c(F)c([H])c6F)c([H])c5[H])c(C(=O)N([H])[H])c4N([H])[H])C3([H])[H])C([H])(C([H])([H])[H])C([H])([H])[H])C([H])([H])C([H])(C([H])([H])[H])C([H])([H])[H])c([H])c([H])c2C1([H])[H]

>  <smiles>  (64) 
[H]c1c([H])c([H])c2c(c1[H])C([H])([H])C([H])([H])C([H])([H])C2([H])N([H])C(=O)C1([H])N(C(=O)C([H])(N([H])C(=O)C([H])(N([H])C([H])([H])[H])C([H])([H])[H])C(C([H])([H])[H])(C([H])([H])[H])C([H])([H])[H])C([H])([H])c2c([H])c(OC([H])([H])C([H])(C([H])([H])C([H])([H])C([H])([H])C([H])([H])C([H])([H])C([H])([H])C([H])([H])C([H])([H])C([H])([H])C([H])([H])C([H])([H])C([H])([H])N([H])C(=O)C([H])(N([H])C(=O)N3C([H])([H])C([H])([H])C([H])([H])C([H])(n4nc(-c5c([H])c([H])c(Oc6c([H])c([H])c(F)c([H])c6F)c([H])c5[H])c(C(=O)N([H])[H])c4N([H])[H])C3([H])[H])C([H])(C([H])([H])[H])C([H])([H])[H])C([H])([H])C([H])(C([H])([H])[H])C([H])([H])[H])c([H])c([H])c2C1([H])[H]

$$$$
64:0:0
     RDKit          3D

106113  0  0  1  0  0  0  0  0999 V2000
  -27.3180  -20.7980   18.6290 C   0  0  0  0  0  3  0  0  0  0  0  0
  -28.2860  -21.9260   18.4150 N   0  0  0  0  0  4  0  0  0  0  0  0
  -27.9850  -22.4390   17.6010 H   0  0  0  0  0  0  0  0  0  0  0  0
  -29.1770  -21.5260   18.1650 H   0  0  0  0  0  0  0  0  0  0  0  0
  -28.4920  -22.9200   19.5110 C   0  0  0  0  0  2  0  0  0  0  0  0
  -28.0750  -24.7150   17.7350 C   0  0  0  0  0  1  0  0  0  0  0  0
  -30.3600  -24.4740   18.7170 C   0  0  0  0  0  1  0  0  0  0  0  0
  -28.8520  -24.3730   19.0290 C   0  0  2  0  0  0  0  0  0  0  0  0
  -28.5130  -25.3740   20.1960 C   0  0  0  0  0  2  0  0  0  0  0  0
  -28.5890  -26.7890   19.9100 O   0  0  0  0  0  0  0  0  0  0  0  0
  -24.5770  -31.7670   23.1320 C   0  0  0  0  0  0  0  0  0  0  0  0
  -27.3990  -27.4910   19.9530 C   0  0  0  0  0  0  0  0  0  0  0  0
  -23.4460  -30.3790   21.4360 C   0  0  0  0  0  3  0  0  0  0  0  0
  -24.9570  -28.9280   19.9970 C   0  0  0  0  0  0  0  0  0  0  0  0
  -25.9650  -30.8180   21.2830 C   0  0  0  0  0  2  0  0  0  0  0  0
  -26.1000  -29.4680   20.6020 C   0  0  0  0  0  0  0  0  0  0  0  0
  -27.3310  -28.7650   20.5690 C   0  0  0  0  0  3  0  0  0  0  0  0
  -26.2260  -26.9620   19.3720 C   0  0  0  0  0  3  0  0  0  0  0  0
  -25.0140  -27.6700   19.3800 C   0  0  0  0  0  3  0  0  0  0  0  0
  -23.6950  -29.7570   20.0390 C   0  0  0  0  0  2  0  0  0  0  0  0
  -24.6800  -31.0040   22.0070 N   0  0  0  0  0  0  0  0  0  0  0  0
  -23.4770  -31.9910   23.6580 O   0  0  0  0  0  0  0  0  0  0  0  0
  -22.8150  -29.3080   22.3530 C   0  0  0  0  0  0  0  0  0  0  0  0
  -21.4910  -29.1180   22.2290 N   0  0  0  0  0  0  0  0  0  0  0  0
  -23.5160  -28.6590   23.1320 O   0  0  0  0  0  0  0  0  0  0  0  0
  -20.9920  -29.7140   21.5870 H   0  0  0  0  0  0  0  0  0  0  0  0
  -18.1280  -27.8670   22.6990 C   0  0  0  0  0  0  0  0  0  0  0  0
  -20.6830  -28.1380   22.9510 C   0  0  0  0  0  3  0  0  0  0  0  0
  -20.7900  -26.7390   22.3060 C   0  0  0  0  0  2  0  0  0  0  0  0
  -19.6830  -26.4770   21.2780 C   0  0  0  0  0  2  0  0  0  0  0  0
  -18.3140  -26.5530   21.9560 C   0  0  0  0  0  2  0  0  0  0  0  0
  -19.2430  -28.6240   23.1480 C   0  0  0  0  0  0  0  0  0  0  0  0
  -19.0240  -29.8610   23.7910 C   0  0  0  0  0  3  0  0  0  0  0  0
  -17.7180  -30.3370   23.9940 C   0  0  0  0  0  3  0  0  0  0  0  0
  -16.6160  -29.5790   23.5630 C   0  0  0  0  0  3  0  0  0  0  0  0
  -16.8200  -28.3510   22.9100 C   0  0  0  0  0  3  0  0  0  0  0  0
  -25.8280  -32.4200   23.7950 C   0  0  0  0  0  3  0  0  0  0  0  0
  -25.4720  -33.8070   24.1340 N   0  0  0  0  0  0  0  0  0  0  0  0
  -25.8010  -34.8750   23.3920 C   0  0  0  0  0  0  0  0  0  0  0  0
  -26.5000  -34.8000   22.3790 O   0  0  0  0  0  0  0  0  0  0  0  0
  -24.8460  -33.9430   24.9160 H   0  0  0  0  0  0  0  0  0  0  0  0
  -24.0240  -36.6210   23.0170 C   0  0  0  0  0  1  0  0  0  0  0  0
  -25.2610  -36.2450   23.8520 C   0  0  0  0  0  3  0  0  0  0  0  0
  -27.3540  -37.1780   24.7330 C   0  0  0  0  0  1  0  0  0  0  0  0
  -26.2670  -37.3270   23.7700 N   0  0  0  0  0  0  0  0  0  0  0  0
  -25.8310  -38.2340   23.9130 H   0  0  0  0  0  0  0  0  0  0  0  0
  -26.3380  -31.6400   25.0690 C   0  0  1  0  0  0  0  0  0  0  0  0
  -25.2320  -31.3550   26.1130 C   0  0  0  0  0  1  0  0  0  0  0  0
  -26.9600  -30.2810   24.6650 C   0  0  0  0  0  1  0  0  0  0  0  0
  -27.4590  -32.4530   25.7600 C   0  0  0  0  0  1  0  0  0  0  0  0
  -25.8970  -21.2250   19.1220 C   0  0  0  0  0  2  0  0  0  0  0  0
  -25.0760  -22.2280   18.2820 C   0  0  0  0  0  2  0  0  0  0  0  0
  -24.1060  -23.5780   20.2520 C   0  0  0  0  0  1  0  0  0  0  0  0
  -22.8330  -23.4600   18.0930 C   0  0  0  0  0  1  0  0  0  0  0  0
  -23.7950  -22.7020   19.0210 C   0  0  0  0  0  3  0  0  0  0  0  0
  -27.8320  -19.7350   19.6280 C   0  0  0  0  0  2  0  0  0  0  0  0
  -29.0180  -17.5960   19.2970 C   0  0  0  0  0  0  0  0  0  0  0  0
  -28.9990  -18.9380   19.2210 N   0  0  0  0  0  0  0  0  0  0  0  0
  -27.9840  -16.9210   19.2740 O   0  0  0  0  0  0  0  0  0  0  0  0
  -29.8940  -19.4060   19.2360 H   0  0  0  0  0  0  0  0  0  0  0  0
  -30.3820  -16.9050   19.5300 C   0  0  0  0  0  3  0  0  0  0  0  0
  -30.9860  -14.4940   19.9760 C   0  0  0  0  0  0  0  0  0  0  0  0
  -30.7550  -12.1370   19.3340 C   0  0  0  0  0  2  0  0  0  0  0  0
  -29.8020  -12.0800   18.1210 C   0  0  0  0  0  2  0  0  0  0  0  0
  -28.3320  -12.0210   18.5800 C   0  0  0  0  0  2  0  0  0  0  0  0
  -27.9890  -13.0990   19.6410 C   0  0  0  0  0  3  0  0  0  0  0  0
  -29.0460  -13.1120   20.7680 C   0  0  0  0  0  2  0  0  0  0  0  0
  -30.3650  -13.3000   20.1400 N   0  0  0  0  0  0  0  0  0  0  0  0
  -32.1450  -14.6090   19.5640 O   0  0  0  0  0  0  0  0  0  0  0  0
  -30.1580  -15.5460   20.0430 N   0  0  0  0  0  0  0  0  0  0  0  0
  -29.1950  -15.3410   20.2680 H   0  0  0  0  0  0  0  0  0  0  0  0
  -25.6870  -13.8810   20.4840 C   0  0  0  0  0  0  0  0  0  0  0  0
  -24.5670  -13.1820   20.8590 C   0  0  0  0  0  0  0  0  0  0  0  0
  -24.9080  -11.8020   20.7410 C   0  0  0  0  0  0  0  0  0  0  0  0
  -26.6400  -12.9240   20.1670 N   0  0  0  0  0  0  0  0  0  0  0  0
  -26.1780  -11.6680   20.3830 N   0  0  0  0  0  0  0  0  0  0  0  0
  -24.0830  -10.5960   20.8970 C   0  0  0  0  0  0  0  0  0  0  0  0
  -24.4630   -9.5500   21.7660 C   0  0  0  0  0  3  0  0  0  0  0  0
  -23.6430   -8.4090   21.9130 C   0  0  0  0  0  3  0  0  0  0  0  0
  -22.4290   -8.3100   21.1910 C   0  0  0  0  0  0  0  0  0  0  0  0
  -22.0700   -9.3440   20.3090 C   0  0  0  0  0  3  0  0  0  0  0  0
  -22.8890  -10.4760   20.1600 C   0  0  0  0  0  3  0  0  0  0  0  0
  -21.5830   -7.2300   21.2500 O   0  0  0  0  0  0  0  0  0  0  0  0
  -21.5070   -6.4360   22.3670 C   0  0  0  0  0  0  0  0  0  0  0  0
  -21.1650   -6.9610   23.6330 C   0  0  0  0  0  3  0  0  0  0  0  0
  -21.0290   -6.0980   24.7380 C   0  0  0  0  0  3  0  0  0  0  0  0
  -21.2290   -4.7130   24.5820 C   0  0  0  0  0  0  0  0  0  0  0  0
  -21.5660   -4.1900   23.3200 C   0  0  0  0  0  3  0  0  0  0  0  0
  -21.7030   -5.0490   22.2160 C   0  0  0  0  0  0  0  0  0  0  0  0
  -22.0050   -4.5370   20.9990 F   0  0  0  0  0  0  0  0  0  0  0  0
  -21.0910   -3.8840   25.6410 F   0  0  0  0  0  0  0  0  0  0  0  0
  -23.2290  -13.7620   21.2110 C   0  0  0  0  0  0  0  0  0  0  0  0
  -22.4890  -13.0940   22.0910 N   0  0  0  0  0  0  0  0  0  0  0  0
  -22.8540  -14.8350   20.7450 O   0  0  0  0  0  0  0  0  0  0  0  0
  -22.8100  -12.2230   22.4870 H   0  0  0  0  0  0  0  0  0  0  0  0
  -21.5930  -13.4620   22.3740 H   0  0  0  0  0  0  0  0  0  0  0  0
  -25.9570  -15.2390   20.3690 N   0  0  0  0  0  0  0  0  0  0  0  0
  -25.2360  -15.9330   20.5270 H   0  0  0  0  0  0  0  0  0  0  0  0
  -26.8250  -15.6510   20.0290 H   0  0  0  0  0  0  0  0  0  0  0  0
  -31.3550  -17.6500   20.4860 C   0  0  0  0  0  2  0  0  0  0  0  0
  -30.7050  -18.5450   21.5830 C   0  0  0  0  0  2  0  0  0  0  0  0
  -30.8960  -20.0570   21.4010 C   0  0  0  0  0  0  0  0  0  0  0  0
  -30.0190  -20.8680   21.9840 N   0  0  0  0  0  0  0  0  0  0  0  0
  -31.8030  -20.5120   20.7060 O   0  0  0  0  0  0  0  0  0  0  0  0
  -29.2550  -20.5030   22.5380 H   0  0  0  0  0  0  0  0  0  0  0  0
  -30.1150  -21.8710   21.8920 H   0  0  0  0  0  0  0  0  0  0  0  0
  1 51  1  0
  1 56  1  0
  2  1  1  0
  2  5  1  0
  3  2  1  0
  4  2  1  0
  8  6  1  6
  7  8  1  0
  8  5  1  0
  8  9  1  0
 10 12  1  0
 10  9  1  0
 11 22  2  0
 12 17  1  0
 13 21  1  0
 13 23  1  0
 14 20  1  0
 14 16  1  0
 15 21  1  0
 16 15  1  0
 17 16  2  0
 18 19  1  0
 18 12  2  0
 19 14  2  0
 20 13  1  0
 21 11  1  0
 23 25  2  0
 24 23  1  0
 26 24  1  0
 27 36  2  0
 27 32  1  0
 28 24  1  0
 28 32  1  0
 29 28  1  0
 30 31  1  0
 30 29  1  0
 31 27  1  0
 32 33  2  0
 33 34  1  0
 35 34  2  0
 36 35  1  0
 37 11  1  0
 37 38  1  0
 37 47  1  0
 38 41  1  0
 39 43  1  0
 39 38  1  0
 40 39  2  0
 43 42  1  0
 45 43  1  0
 45 46  1  0
 45 44  1  0
 47 50  1  1
 47 48  1  0
 49 47  1  0
 52 55  1  0
 52 51  1  0
 54 55  1  0
 55 53  1  0
 57 61  1  0
 58 60  1  0
 58 57  1  0
 58 56  1  0
 59 57  2  0
 61 70  1  0
 61100  1  0
 62 70  1  0
 62 68  1  0
 63 68  1  0
 64 65  1  0
 64 63  1  0
 66 65  1  0
 66 75  1  0
 66 67  1  0
 68 67  1  0
 69 62  2  0
 70 71  1  0
 72 73  2  0
 73 92  1  0
 74 73  1  0
 74 77  1  0
 75 76  1  0
 75 72  1  0
 76 74  2  0
 77 78  1  0
 78 79  2  0
 80 83  1  0
 80 79  1  0
 81 80  2  0
 82 81  1  0
 82 77  2  0
 83 84  1  0
 84 85  1  0
 85 86  2  0
 87 86  1  0
 87 91  1  0
 88 87  2  0
 89 84  2  0
 89 88  1  0
 90 89  1  0
 92 93  1  0
 93 96  1  0
 93 95  1  0
 94 92  2  0
 97 72  1  0
 97 98  1  0
 99 97  1  0
100101  1  0
102101  1  0
102103  1  0
103105  1  0
104102  2  0
106103  1  0
M  ISO  4   9 101  10 101  62 100  70 100
M  END
>  <TORSDO>  (65) 
F 29

>  <SCORE>  (65) 
-11.232

>  <name>  (65) 
64

>  <ligand_id>  (65) 
64

>  <original_smiles>  (65) 
[H]c1c([H])c([H])c2c(c1[H])C([H])([H])C([H])([H])C([H])([H])C2([H])N([H])C(=O)C1([H])N(C(=O)C([H])(N([H])C(=O)C([H])(N([H])C([H])([H])[H])C([H])([H])[H])C(C([H])([H])[H])(C([H])([H])[H])C([H])([H])[H])C([H])([H])c2c([H])c(OC([H])([H])C(C([H])([H])[H])(C([H])([H])[H])C([H])([H])[N+]([H])([H])C([H])(C([H])([H])N([H])C(=O)C([H])(N([H])C(=O)N3C([H])([H])C([H])([H])C([H])([H])C([H])(n4nc(-c5c([H])c([H])c(Oc6c([H])c([H])c(F)c([H])c6F)c([H])c5[H])c(C(=O)N([H])[H])c4N([H])[H])C3([H])[H])C([H])([H])C([H])([H])C(=O)N([H])[H])C([H])([H])C([H])([H])C([H])(C([H])([H])[H])C([H])([H])[H])c([H])c([H])c2C1([H])[H]

>  <smiles>  (65) 
[H]c1c([H])c([H])c2c(c1[H])C([H])([H])C([H])([H])C([H])([H])C2([H])N([H])C(=O)C1([H])N(C(=O)C([H])(N([H])C(=O)C([H])(N([H])C([H])([H])[H])C([H])([H])[H])C(C([H])([H])[H])(C([H])([H])[H])C([H])([H])[H])C([H])([H])c2c([H])c(OC([H])([H])C(C([H])([H])[H])(C([H])([H])[H])C([H])([H])[N+]([H])([H])C([H])(C([H])([H])N([H])C(=O)C([H])(N([H])C(=O)N3C([H])([H])C([H])([H])C([H])([H])C([H])(n4nc(-c5c([H])c([H])c(Oc6c([H])c([H])c(F)c([H])c6F)c([H])c5[H])c(C(=O)N([H])[H])c4N([H])[H])C3([H])[H])C([H])([H])C([H])([H])C(=O)N([H])[H])C([H])([H])C([H])([H])C([H])(C([H])([H])[H])C([H])([H])[H])c([H])c([H])c2C1([H])[H]

$$$$
65:0:0
     RDKit          3D

 99106  0  0  1  0  0  0  0  0999 V2000
  -29.7740  -18.6080   21.5670 C   0  0  0  0  0  2  0  0  0  0  0  0
  -28.7590  -17.4720   21.3110 C   0  0  0  0  0  2  0  0  0  0  0  0
  -29.1370  -16.0990   21.8950 C   0  0  0  0  0  2  0  0  0  0  0  0
  -30.4770  -14.1170   21.2460 C   0  0  0  0  0  0  0  0  0  0  0  0
  -30.1760  -15.4190   21.1330 N   0  0  0  0  0  0  0  0  0  0  0  0
  -29.7700  -13.3390   21.8870 O   0  0  0  0  0  0  0  0  0  0  0  0
  -30.7940  -15.9820   20.5650 H   0  0  0  0  0  0  0  0  0  0  0  0
  -31.7610  -13.6530   20.5210 C   0  0  0  0  0  0  0  0  0  0  0  0
  -31.3060  -12.5980   18.1940 C   0  0  0  0  0  0  0  0  0  0  0  0
  -30.5480  -10.2760   17.9590 C   0  0  0  0  0  2  0  0  0  0  0  0
  -29.3930  -10.0720   16.9650 C   0  0  0  0  0  2  0  0  0  0  0  0
  -28.0460  -10.2470   17.6790 C   0  0  0  0  0  2  0  0  0  0  0  0
  -27.9740  -11.5790   18.4660 C   0  0  0  0  0  3  0  0  0  0  0  0
  -29.2190  -11.7830   19.3570 C   0  0  0  0  0  2  0  0  0  0  0  0
  -30.4550  -11.6130   18.5710 N   0  0  0  0  0  0  0  0  0  0  0  0
  -31.9280  -12.5740   17.1300 O   0  0  0  0  0  0  0  0  0  0  0  0
  -31.6160  -13.5750   19.0570 N   0  0  0  0  0  4  0  0  0  0  0  0
  -32.1630  -14.2840   18.5960 H   0  0  0  0  0  0  0  0  0  0  0  0
  -26.0460  -12.7880   19.6690 C   0  0  0  0  0  0  0  0  0  0  0  0
  -24.9240  -12.3190   20.3010 C   0  0  0  0  0  0  0  0  0  0  0  0
  -24.9910  -10.8940   20.2220 C   0  0  0  0  0  0  0  0  0  0  0  0
  -26.7400  -11.6640   19.2470 N   0  0  0  0  0  0  0  0  0  0  0  0
  -26.1200  -10.5190   19.6330 N   0  0  0  0  0  0  0  0  0  0  0  0
  -24.0200   -9.8690   20.6250 C   0  0  0  0  0  0  0  0  0  0  0  0
  -24.2640   -9.0090   21.7190 C   0  0  0  0  0  3  0  0  0  0  0  0
  -23.3080   -8.0410   22.0980 C   0  0  0  0  0  3  0  0  0  0  0  0
  -22.0900   -7.9300   21.3850 C   0  0  0  0  0  0  0  0  0  0  0  0
  -21.8600   -8.7760   20.2850 C   0  0  0  0  0  3  0  0  0  0  0  0
  -22.8160   -9.7330   19.9040 C   0  0  0  0  0  3  0  0  0  0  0  0
  -21.1150   -7.0040   21.6650 O   0  0  0  0  0  0  0  0  0  0  0  0
  -20.7990   -6.6580   22.9540 C   0  0  0  0  0  0  0  0  0  0  0  0
  -20.4100   -7.6200   23.9100 C   0  0  0  0  0  3  0  0  0  0  0  0
  -20.0240   -7.2120   25.2030 C   0  0  0  0  0  3  0  0  0  0  0  0
  -20.0230   -5.8440   25.5390 C   0  0  0  0  0  0  0  0  0  0  0  0
  -20.4080   -4.8850   24.5870 C   0  0  0  0  0  3  0  0  0  0  0  0
  -20.7920   -5.2900   23.2970 C   0  0  0  0  0  0  0  0  0  0  0  0
  -21.1420   -4.3600   22.3780 F   0  0  0  0  0  0  0  0  0  0  0  0
  -19.6500   -5.4520   26.7790 F   0  0  0  0  0  0  0  0  0  0  0  0
  -23.8030  -13.1460   20.8630 C   0  0  0  0  0  0  0  0  0  0  0  0
  -23.1860  -12.6850   21.9450 N   0  0  0  0  0  0  0  0  0  0  0  0
  -23.5010  -14.2340   20.3730 O   0  0  0  0  0  0  0  0  0  0  0  0
  -23.4490  -11.8020   22.3560 H   0  0  0  0  0  0  0  0  0  0  0  0
  -22.4410  -13.2210   22.3630 H   0  0  0  0  0  0  0  0  0  0  0  0
  -26.5210  -14.0670   19.4000 N   0  0  0  0  0  0  0  0  0  0  0  0
  -26.0000  -14.9000   19.6460 H   0  0  0  0  0  0  0  0  0  0  0  0
  -27.3720  -14.2710   18.8910 H   0  0  0  0  0  0  0  0  0  0  0  0
  -32.2340  -11.3310   21.6640 C   0  0  0  0  0  1  0  0  0  0  0  0
  -33.3740  -13.3880   22.4920 C   0  0  0  0  0  1  0  0  0  0  0  0
  -34.0300  -12.4210   20.3200 C   0  0  0  0  0  1  0  0  0  0  0  0
  -32.8080  -12.6940   21.2270 C   0  0  2  0  0  0  0  0  0  0  0  0
  -29.1390  -19.9980   21.3470 C   0  0  0  0  0  2  0  0  0  0  0  0
  -30.1290  -21.0950   21.2460 N   0  0  0  0  0  4  0  0  0  0  0  0
  -30.5070  -21.1020   20.3120 H   0  0  0  0  0  0  0  0  0  0  0  0
  -30.8860  -20.9210   21.8880 H   0  0  0  0  0  0  0  0  0  0  0  0
  -29.5580  -22.4270   21.5530 C   0  0  0  0  0  2  0  0  0  0  0  0
  -30.3170  -23.5870   20.8760 C   0  0  0  0  0  2  0  0  0  0  0  0
  -29.8880  -24.9570   21.4360 C   0  0  0  0  0  2  0  0  0  0  0  0
  -30.0410  -26.1070   20.4250 C   0  0  0  0  0  2  0  0  0  0  0  0
  -30.1390  -27.3660   21.0910 O   0  0  0  0  0  0  0  0  0  0  0  0
  -28.5360  -31.9560   26.2520 C   0  0  0  0  0  0  0  0  0  0  0  0
  -29.1500  -27.7980   21.9490 C   0  0  0  0  0  0  0  0  0  0  0  0
  -26.8080  -30.2460   25.7790 C   0  0  0  0  0  3  0  0  0  0  0  0
  -27.1700  -28.8570   23.6710 C   0  0  0  0  0  0  0  0  0  0  0  0
  -28.4210  -31.0050   23.9510 C   0  0  0  0  0  2  0  0  0  0  0  0
  -28.3000  -29.6190   23.3540 C   0  0  0  0  0  0  0  0  0  0  0  0
  -29.2880  -29.0920   22.4950 C   0  0  0  0  0  3  0  0  0  0  0  0
  -28.0050  -27.0360   22.2820 C   0  0  0  0  0  3  0  0  0  0  0  0
  -27.0190  -27.5640   23.1400 C   0  0  0  0  0  3  0  0  0  0  0  0
  -26.1530  -29.4960   24.5860 C   0  0  0  0  0  2  0  0  0  0  0  0
  -27.9740  -31.0920   25.3610 N   0  0  0  0  0  0  0  0  0  0  0  0
  -28.0740  -32.0890   27.3940 O   0  0  0  0  0  0  0  0  0  0  0  0
  -27.1650  -29.2140   26.8730 C   0  0  0  0  0  0  0  0  0  0  0  0
  -26.3120  -29.1210   27.9060 N   0  0  0  0  0  0  0  0  0  0  0  0
  -28.1650  -28.5000   26.7670 O   0  0  0  0  0  0  0  0  0  0  0  0
  -25.5210  -29.7490   27.9230 H   0  0  0  0  0  0  0  0  0  0  0  0
  -25.0180  -28.3600   31.1930 C   0  0  0  0  0  0  0  0  0  0  0  0
  -26.4230  -28.1910   29.0310 C   0  0  0  0  0  3  0  0  0  0  0  0
  -25.6470  -26.8840   28.7520 C   0  0  0  0  0  2  0  0  0  0  0  0
  -24.2100  -26.9090   29.2840 C   0  0  0  0  0  2  0  0  0  0  0  0
  -24.2060  -27.1380   30.7970 C   0  0  0  0  0  2  0  0  0  0  0  0
  -26.0480  -28.8630   30.3560 C   0  0  0  0  0  0  0  0  0  0  0  0
  -26.7490  -30.0230   30.7540 C   0  0  0  0  0  3  0  0  0  0  0  0
  -26.4370  -30.6740   31.9620 C   0  0  0  0  0  3  0  0  0  0  0  0
  -25.4250  -30.1630   32.7930 C   0  0  0  0  0  3  0  0  0  0  0  0
  -24.7230  -29.0070   32.4120 C   0  0  0  0  0  3  0  0  0  0  0  0
  -29.7690  -32.8360   25.8730 C   0  0  0  0  0  3  0  0  0  0  0  0
  -29.6240  -34.1230   26.5660 N   0  0  0  0  0  0  0  0  0  0  0  0
  -29.2680  -35.2690   25.9690 C   0  0  0  0  0  0  0  0  0  0  0  0
  -29.0980  -35.3650   24.7500 O   0  0  0  0  0  0  0  0  0  0  0  0
  -29.6950  -34.1050   27.5720 H   0  0  0  0  0  0  0  0  0  0  0  0
  -27.5680  -36.7970   27.0140 C   0  0  0  0  0  1  0  0  0  0  0  0
  -29.0700  -36.5040   26.8670 C   0  0  0  0  0  3  0  0  0  0  0  0
  -31.2210  -37.6250   26.4910 C   0  0  0  0  0  1  0  0  0  0  0  0
  -29.7680  -37.7090   26.3740 N   0  0  0  0  0  0  0  0  0  0  0  0
  -29.4590  -38.5360   26.8750 H   0  0  0  0  0  0  0  0  0  0  0  0
  -31.1490  -32.1610   26.2370 C   0  0  1  0  0  0  0  0  0  0  0  0
  -31.2290  -31.6650   27.6990 C   0  0  0  0  0  1  0  0  0  0  0  0
  -31.4270  -30.9570   25.3100 C   0  0  0  0  0  1  0  0  0  0  0  0
  -32.3010  -33.1680   26.0120 C   0  0  0  0  0  1  0  0  0  0  0  0
  2  1  1  0
  2  3  1  0
  4  6  2  0
  5  4  1  0
  5  3  1  0
  7  5  1  0
  8 50  1  0
  8  4  1  0
  9 15  1  0
  9 17  1  0
 10 15  1  0
 11 12  1  0
 11 10  1  0
 13 12  1  0
 13 22  1  0
 13 14  1  0
 15 14  1  0
 16  9  2  0
 17  8  2  3
 18 17  1  0
 19 20  2  0
 20 39  1  0
 21 20  1  0
 21 24  1  0
 22 23  1  0
 22 19  1  0
 23 21  2  0
 24 25  1  0
 25 26  2  0
 27 30  1  0
 27 26  1  0
 28 27  2  0
 29 28  1  0
 29 24  2  0
 30 31  1  0
 31 36  2  0
 31 32  1  0
 32 33  2  0
 33 34  1  0
 34 38  1  0
 35 34  2  0
 36 35  1  0
 37 36  1  0
 39 40  1  0
 40 42  1  0
 40 43  1  0
 41 39  2  0
 44 45  1  0
 44 19  1  0
 46 44  1  0
 50 49  1  6
 50 47  1  0
 50 48  1  0
 51  1  1  0
 52 51  1  0
 52 55  1  0
 52 54  1  0
 53 52  1  0
 56 57  1  0
 56 55  1  0
 58 59  1  0
 58 57  1  0
 59 61  1  0
 60 71  2  0
 61 67  2  0
 61 66  1  0
 62 72  1  0
 63 69  1  0
 64 70  1  0
 65 63  1  0
 65 64  1  0
 66 65  2  0
 67 68  1  0
 68 63  2  0
 69 62  1  0
 70 62  1  0
 70 60  1  0
 72 73  1  0
 73 75  1  0
 74 72  2  0
 76 85  1  0
 77 73  1  0
 77 81  1  0
 78 77  1  0
 78 79  1  0
 79 80  1  0
 80 76  1  0
 81 82  1  0
 81 76  2  0
 82 83  2  0
 83 84  1  0
 85 84  2  0
 86 96  1  0
 86 60  1  0
 86 87  1  0
 87 90  1  0
 88 87  1  0
 88 92  1  0
 89 88  2  0
 92 91  1  0
 94 93  1  0
 94 92  1  0
 94 95  1  0
 96 97  1  1
 98 96  1  0
 99 96  1  0
M  ISO  4   9 100  17 100  58 101  59 101
M  END
>  <TORSDO>  (66) 
F 27

>  <SCORE>  (66) 
2.817

>  <name>  (66) 
65

>  <ligand_id>  (66) 
65

>  <original_smiles>  (66) 
[H]c1c([H])c([H])c2c(c1[H])C([H])([H])C([H])([H])C([H])([H])C2([H])N([H])C(=O)C1([H])N(C(=O)C([H])(N([H])C(=O)C([H])(N([H])C([H])([H])[H])C([H])([H])[H])C(C([H])([H])[H])(C([H])([H])[H])C([H])([H])[H])C([H])([H])c2c([H])c(OC([H])([H])C([H])([H])C([H])([H])C([H])([H])[N+]([H])([H])C([H])([H])C([H])([H])C([H])([H])C([H])([H])N([H])C(=O)C([H])(N([H])C(=O)N3C([H])([H])C([H])([H])C([H])([H])C([H])(n4nc(-c5c([H])c([H])c(Oc6c([H])c([H])c(F)c([H])c6F)c([H])c5[H])c(C(=O)N([H])[H])c4N([H])[H])C3([H])[H])C(C([H])([H])[H])(C([H])([H])[H])C([H])([H])[H])c([H])c([H])c2C1([H])[H]

>  <smiles>  (66) 
[H]c1c([H])c([H])c2c(c1[H])C([H])([H])C([H])([H])C([H])([H])C2([H])N([H])C(=O)C1([H])N(C(=O)C([H])(N([H])C(=O)C([H])(N([H])C([H])([H])[H])C([H])([H])[H])C(C([H])([H])[H])(C([H])([H])[H])C([H])([H])[H])C([H])([H])c2c([H])c(OC([H])([H])C([H])([H])C([H])([H])C([H])([H])[N+]([H])([H])C([H])([H])C([H])([H])C([H])([H])C([H])([H])N([H])C(=O)C([H])(N([H])C(=O)N3C([H])([H])C([H])([H])C([H])([H])C([H])(n4nc(-c5c([H])c([H])c(Oc6c([H])c([H])c(F)c([H])c6F)c([H])c5[H])c(C(=O)N([H])[H])c4N([H])[H])C3([H])[H])C(C([H])([H])[H])(C([H])([H])[H])C([H])([H])[H])c([H])c([H])c2C1([H])[H]

$$$$
66:0:0
     RDKit          3D

 94101  0  0  1  0  0  0  0  0999 V2000
  -30.2330  -22.1830   20.9310 C   0  0  0  0  0  0  0  0  0  0  0  0
  -29.2430  -23.0920   20.9110 N   0  0  0  0  0  0  0  0  0  0  0  0
  -31.3700  -22.4630   20.5450 O   0  0  0  0  0  0  0  0  0  0  0  0
  -28.3250  -22.8040   21.2290 H   0  0  0  0  0  0  0  0  0  0  0  0
  -29.9480  -20.7720   21.4890 C   0  0  0  0  0  2  0  0  0  0  0  0
  -30.4160  -19.6510   20.5240 C   0  0  0  0  0  2  0  0  0  0  0  0
  -30.9220  -17.9930   22.3540 C   0  0  0  0  0  2  0  0  0  0  0  0
  -30.6190  -18.2150   21.0620 C   0  0  0  0  0  0  0  0  0  0  0  0
  -30.4710  -17.0570   20.0350 C   0  0  0  0  0  0  0  0  0  0  0  0
  -30.9050  -14.5860   20.7610 C   0  0  0  0  0  0  0  0  0  0  0  0
  -30.6610  -12.3390   19.7650 C   0  0  0  0  0  2  0  0  0  0  0  0
  -29.8120  -12.4360   18.4790 C   0  0  0  0  0  2  0  0  0  0  0  0
  -28.3110  -12.3380   18.7990 C   0  0  0  0  0  2  0  0  0  0  0  0
  -27.8770  -13.2480   19.9820 C   0  0  0  0  0  3  0  0  0  0  0  0
  -28.8560  -13.1670   21.1750 C   0  0  0  0  0  2  0  0  0  0  0  0
  -30.2140  -13.4110   20.6700 N   0  0  0  0  0  0  0  0  0  0  0  0
  -32.1280  -14.6260   20.6510 O   0  0  0  0  0  0  0  0  0  0  0  0
  -30.1580  -15.7050   20.6230 N   0  0  0  0  0  4  0  0  0  0  0  0
  -29.1710  -15.5570   20.7740 H   0  0  0  0  0  0  0  0  0  0  0  0
  -25.4450  -13.8730   20.5330 C   0  0  0  0  0  0  0  0  0  0  0  0
  -24.3530  -13.1160   20.8570 C   0  0  0  0  0  0  0  0  0  0  0  0
  -24.8070  -11.7620   20.8920 C   0  0  0  0  0  0  0  0  0  0  0  0
  -26.4980  -12.9840   20.3880 N   0  0  0  0  0  0  0  0  0  0  0  0
  -26.1160  -11.7120   20.6700 N   0  0  0  0  0  0  0  0  0  0  0  0
  -24.0590  -10.5100   21.0670 C   0  0  0  0  0  0  0  0  0  0  0  0
  -24.4440   -9.5510   22.0300 C   0  0  0  0  0  3  0  0  0  0  0  0
  -23.6990   -8.3650   22.1910 C   0  0  0  0  0  3  0  0  0  0  0  0
  -22.5560   -8.1260   21.3920 C   0  0  0  0  0  0  0  0  0  0  0  0
  -22.1900   -9.0730   20.4190 C   0  0  0  0  0  3  0  0  0  0  0  0
  -22.9350  -10.2530   20.2560 C   0  0  0  0  0  3  0  0  0  0  0  0
  -21.7810   -6.9920   21.4680 O   0  0  0  0  0  0  0  0  0  0  0  0
  -21.6950   -6.2530   22.6190 C   0  0  0  0  0  0  0  0  0  0  0  0
  -21.2690   -6.8190   23.8420 C   0  0  0  0  0  3  0  0  0  0  0  0
  -21.1310   -6.0020   24.9830 C   0  0  0  0  0  3  0  0  0  0  0  0
  -21.4100   -4.6250   24.9040 C   0  0  0  0  0  0  0  0  0  0  0  0
  -21.8250   -4.0610   23.6840 C   0  0  0  0  0  3  0  0  0  0  0  0
  -21.9670   -4.8730   22.5470 C   0  0  0  0  0  0  0  0  0  0  0  0
  -22.3510   -4.3160   21.3720 F   0  0  0  0  0  0  0  0  0  0  0  0
  -21.2660   -3.8410   26.0000 F   0  0  0  0  0  0  0  0  0  0  0  0
  -22.9420  -13.6080   21.0230 C   0  0  0  0  0  0  0  0  0  0  0  0
  -22.1540  -12.9450   21.8620 N   0  0  0  0  0  0  0  0  0  0  0  0
  -22.5490  -14.6170   20.4390 O   0  0  0  0  0  0  0  0  0  0  0  0
  -22.4780  -12.1260   22.3550 H   0  0  0  0  0  0  0  0  0  0  0  0
  -21.2070  -13.2600   22.0170 H   0  0  0  0  0  0  0  0  0  0  0  0
  -25.6290  -15.2380   20.3270 N   0  0  0  0  0  0  0  0  0  0  0  0
  -24.8580  -15.8960   20.3740 H   0  0  0  0  0  0  0  0  0  0  0  0
  -26.4940  -15.6580   20.0130 H   0  0  0  0  0  0  0  0  0  0  0  0
  -31.0720  -18.2330   17.7940 C   0  0  0  0  0  1  0  0  0  0  0  0
  -32.9400  -17.3900   19.2120 C   0  0  0  0  0  1  0  0  0  0  0  0
  -31.3980  -15.8270   17.9240 C   0  0  0  0  0  1  0  0  0  0  0  0
  -31.4720  -17.1090   18.7900 C   0  0  1  0  0  0  0  0  0  0  0  0
  -29.4340  -24.5100   20.5660 C   0  0  0  0  0  2  0  0  0  0  0  0
  -28.1280  -25.2240   20.1830 C   0  0  0  0  0  2  0  0  0  0  0  0
  -28.3240  -26.6470   20.0920 O   0  0  0  0  0  0  0  0  0  0  0  0
  -24.5790  -31.8560   23.1800 C   0  0  0  0  0  0  0  0  0  0  0  0
  -27.1700  -27.4070   20.0700 C   0  0  0  0  0  0  0  0  0  0  0  0
  -23.3600  -30.4630   21.5490 C   0  0  0  0  0  3  0  0  0  0  0  0
  -24.7930  -28.9380   20.0960 C   0  0  0  0  0  0  0  0  0  0  0  0
  -25.8870  -30.8170   21.3300 C   0  0  0  0  0  2  0  0  0  0  0  0
  -25.9590  -29.4510   20.6770 C   0  0  0  0  0  0  0  0  0  0  0  0
  -27.1580  -28.6990   20.6500 C   0  0  0  0  0  3  0  0  0  0  0  0
  -25.9840  -26.9160   19.4800 C   0  0  0  0  0  3  0  0  0  0  0  0
  -24.8020  -27.6750   19.4860 C   0  0  0  0  0  3  0  0  0  0  0  0
  -23.5510  -29.7960   20.1630 C   0  0  0  0  0  2  0  0  0  0  0  0
  -24.6280  -31.0580   22.0770 N   0  0  0  0  0  0  0  0  0  0  0  0
  -23.5020  -32.1280   23.7280 O   0  0  0  0  0  0  0  0  0  0  0  0
  -22.7180  -29.4370   22.5080 C   0  0  0  0  0  0  0  0  0  0  0  0
  -21.3900  -29.2680   22.4040 N   0  0  0  0  0  0  0  0  0  0  0  0
  -23.4100  -28.7940   23.3040 O   0  0  0  0  0  0  0  0  0  0  0  0
  -20.8910  -29.8430   21.7370 H   0  0  0  0  0  0  0  0  0  0  0  0
  -18.0140  -28.0980   22.9500 C   0  0  0  0  0  0  0  0  0  0  0  0
  -20.5770  -28.3300   23.1790 C   0  0  0  0  0  3  0  0  0  0  0  0
  -20.6580  -26.9020   22.5890 C   0  0  0  0  0  2  0  0  0  0  0  0
  -19.5350  -26.5950   21.5930 C   0  0  0  0  0  2  0  0  0  0  0  0
  -18.1660  -26.7520   22.2590 C   0  0  0  0  0  2  0  0  0  0  0  0
  -19.1470  -28.8470   23.3650 C   0  0  0  0  0  0  0  0  0  0  0  0
  -18.9490  -30.1080   23.9690 C   0  0  0  0  0  3  0  0  0  0  0  0
  -17.6500  -30.6200   24.1540 C   0  0  0  0  0  3  0  0  0  0  0  0
  -16.5330  -29.8670   23.7500 C   0  0  0  0  0  3  0  0  0  0  0  0
  -16.7170  -28.6060   23.1580 C   0  0  0  0  0  3  0  0  0  0  0  0
  -25.8700  -32.4880   23.7890 C   0  0  0  0  0  3  0  0  0  0  0  0
  -25.5550  -33.8770   24.1470 N   0  0  0  0  0  0  0  0  0  0  0  0
  -25.8720  -34.9470   23.4050 C   0  0  0  0  0  0  0  0  0  0  0  0
  -26.5300  -34.8680   22.3660 O   0  0  0  0  0  0  0  0  0  0  0  0
  -24.9690  -34.0130   24.9600 H   0  0  0  0  0  0  0  0  0  0  0  0
  -24.1280  -36.7350   23.0960 C   0  0  0  0  0  1  0  0  0  0  0  0
  -25.3770  -36.3220   23.8920 C   0  0  0  0  0  3  0  0  0  0  0  0
  -27.5160  -37.2030   24.7210 C   0  0  0  0  0  1  0  0  0  0  0  0
  -26.4020  -37.3850   23.7940 N   0  0  0  0  0  0  0  0  0  0  0  0
  -25.9900  -38.2980   23.9700 H   0  0  0  0  0  0  0  0  0  0  0  0
  -26.4140  -31.7010   25.0420 C   0  0  1  0  0  0  0  0  0  0  0  0
  -25.3450  -31.4330   26.1290 C   0  0  0  0  0  1  0  0  0  0  0  0
  -26.9960  -30.3340   24.6140 C   0  0  0  0  0  1  0  0  0  0  0  0
  -27.5700  -32.4950   25.6970 C   0  0  0  0  0  1  0  0  0  0  0  0
  1  5  1  0
  2  1  1  0
  2  4  1  0
  3  1  2  0
  6  8  1  0
  6  5  1  0
  8  7  2  0
  9 18  2  0
  9  8  1  0
 11 16  1  0
 12 13  1  0
 12 11  1  0
 14 13  1  0
 14 23  1  0
 14 15  1  0
 16 10  1  0
 16 15  1  0
 17 10  2  0
 18 10  1  0
 18 19  1  0
 20 21  2  0
 21 22  1  0
 21 40  1  0
 22 25  1  0
 23 20  1  0
 23 24  1  0
 24 22  2  0
 25 26  1  0
 26 27  2  0
 28 31  1  0
 28 27  1  0
 29 28  2  0
 30 29  1  0
 30 25  2  0
 31 32  1  0
 32 33  1  0
 33 34  2  0
 35 34  1  0
 35 39  1  0
 36 35  2  0
 37 32  2  0
 37 36  1  0
 38 37  1  0
 40 41  1  0
 41 44  1  0
 41 43  1  0
 42 40  2  0
 45 46  1  0
 45 20  1  0
 47 45  1  0
 51 48  1  6
 50 51  1  0
 51 49  1  0
 51  9  1  0
 52  2  1  0
 53 52  1  0
 54 53  1  0
 55 66  2  0
 56 54  1  0
 56 61  1  0
 57 65  1  0
 57 67  1  0
 58 64  1  0
 58 60  1  0
 59 65  1  0
 60 59  1  0
 61 60  2  0
 62 63  1  0
 62 56  2  0
 63 58  2  0
 64 57  1  0
 65 55  1  0
 67 69  2  0
 68 67  1  0
 70 68  1  0
 71 80  2  0
 71 76  1  0
 72 68  1  0
 72 76  1  0
 73 72  1  0
 74 75  1  0
 74 73  1  0
 75 71  1  0
 76 77  2  0
 77 78  1  0
 79 78  2  0
 80 79  1  0
 81 55  1  0
 81 82  1  0
 81 91  1  0
 82 85  1  0
 83 87  1  0
 83 82  1  0
 84 83  2  0
 87 86  1  0
 89 87  1  0
 89 90  1  0
 89 88  1  0
 91 94  1  1
 91 92  1  0
 93 91  1  0
M  ISO  4  10 100  18 100  53 101  54 101
M  END
>  <TORSDO>  (67) 
F 23

>  <SCORE>  (67) 
-12.595

>  <name>  (67) 
66

>  <ligand_id>  (67) 
66

>  <original_smiles>  (67) 
[H]C([H])=C(C([H])([H])C([H])([H])C(=O)N([H])C([H])([H])C([H])([H])Oc1c([H])c([H])c2c(c1[H])C([H])([H])N(C(=O)C([H])(N([H])C(=O)C([H])(N([H])C([H])([H])[H])C([H])([H])[H])C(C([H])([H])[H])(C([H])([H])[H])C([H])([H])[H])C([H])(C(=O)N([H])C1([H])c3c([H])c([H])c([H])c([H])c3C([H])([H])C([H])([H])C1([H])[H])C2([H])[H])C([H])(N([H])C(=O)N1C([H])([H])C([H])([H])C([H])([H])C([H])(n2nc(-c3c([H])c([H])c(Oc4c([H])c([H])c(F)c([H])c4F)c([H])c3[H])c(C(=O)N([H])[H])c2N([H])[H])C1([H])[H])C(C([H])([H])[H])(C([H])([H])[H])C([H])([H])[H]

>  <smiles>  (67) 
[H]C([H])=C(C([H])([H])C([H])([H])C(=O)N([H])C([H])([H])C([H])([H])Oc1c([H])c([H])c2c(c1[H])C([H])([H])N(C(=O)C([H])(N([H])C(=O)C([H])(N([H])C([H])([H])[H])C([H])([H])[H])C(C([H])([H])[H])(C([H])([H])[H])C([H])([H])[H])C([H])(C(=O)N([H])C1([H])c3c([H])c([H])c([H])c([H])c3C([H])([H])C([H])([H])C1([H])[H])C2([H])[H])C([H])(N([H])C(=O)N1C([H])([H])C([H])([H])C([H])([H])C([H])(n2nc(-c3c([H])c([H])c(Oc4c([H])c([H])c(F)c([H])c4F)c([H])c3[H])c(C(=O)N([H])[H])c2N([H])[H])C1([H])[H])C(C([H])([H])[H])(C([H])([H])[H])C([H])([H])[H]

$$$$
67:0:0
     RDKit          3D

101109  0  0  1  0  0  0  0  0999 V2000
  -28.9300  -21.4470   20.4450 C   0  0  0  0  0  3  0  0  0  0  0  0
  -27.6830  -19.8360   18.8780 C   0  0  0  0  0  1  0  0  0  0  0  0
  -26.3530  -21.0970   20.6260 C   0  0  0  0  0  1  0  0  0  0  0  0
  -27.5930  -21.1260   19.7110 C   0  0  0  0  0  3  0  0  0  0  0  0
  -29.1690  -20.4050   21.6100 C   0  0  0  0  0  2  0  0  0  0  0  0
  -30.6470  -20.1180   22.0510 C   0  0  0  0  0  3  0  0  0  0  0  0
  -32.2140  -14.7330   20.1220 C   0  0  0  0  0  0  0  0  0  0  0  0
  -31.6570  -12.5630   19.0750 C   0  0  0  0  0  2  0  0  0  0  0  0
  -30.7780  -12.7740   17.8260 C   0  0  0  0  0  2  0  0  0  0  0  0
  -29.2880  -12.7980   18.2170 C   0  0  0  0  0  2  0  0  0  0  0  0
  -29.0050  -13.7500   19.4060 C   0  0  0  0  0  3  0  0  0  0  0  0
  -30.0040  -13.5220   20.5540 C   0  0  0  0  0  2  0  0  0  0  0  0
  -31.3690  -13.6620   20.0200 N   0  0  0  0  0  0  0  0  0  0  0  0
  -33.3350  -14.7000   19.6030 O   0  0  0  0  0  0  0  0  0  0  0  0
  -31.5490  -18.4590   20.1980 C   0  0  0  0  0  2  0  0  0  0  0  0
  -30.4760  -17.3920   22.1370 C   0  0  0  0  0  2  0  0  0  0  0  0
  -32.3310  -17.1460   19.9510 C   0  0  0  0  0  2  0  0  0  0  0  0
  -31.4150  -16.1720   21.9660 C   0  0  0  0  0  2  0  0  0  0  0  0
  -31.2150  -18.6790   21.6890 C   0  0  0  0  0  3  0  0  0  0  0  0
  -31.7160  -15.9320   20.5450 N   0  0  0  0  0  0  0  0  0  0  0  0
  -26.6930  -14.6330   20.1010 C   0  0  0  0  0  0  0  0  0  0  0  0
  -25.5410  -13.9910   20.4670 C   0  0  0  0  0  0  0  0  0  0  0  0
  -25.8460  -12.5950   20.4520 C   0  0  0  0  0  0  0  0  0  0  0  0
  -27.6290  -13.6360   19.8770 N   0  0  0  0  0  0  0  0  0  0  0  0
  -27.1230  -12.4050   20.1510 N   0  0  0  0  0  0  0  0  0  0  0  0
  -24.9800  -11.4250   20.6480 C   0  0  0  0  0  0  0  0  0  0  0  0
  -25.2710  -10.4440   21.6210 C   0  0  0  0  0  3  0  0  0  0  0  0
  -24.4140   -9.3360   21.8010 C   0  0  0  0  0  3  0  0  0  0  0  0
  -23.2510   -9.2040   21.0060 C   0  0  0  0  0  0  0  0  0  0  0  0
  -22.9780  -10.1730   20.0230 C   0  0  0  0  0  3  0  0  0  0  0  0
  -23.8340  -11.2710   19.8410 C   0  0  0  0  0  3  0  0  0  0  0  0
  -22.3720   -8.1520   21.0930 O   0  0  0  0  0  0  0  0  0  0  0  0
  -22.1380   -7.5050   22.2810 C   0  0  0  0  0  0  0  0  0  0  0  0
  -21.7130   -8.1980   23.4350 C   0  0  0  0  0  3  0  0  0  0  0  0
  -21.4150   -7.4870   24.6140 C   0  0  0  0  0  3  0  0  0  0  0  0
  -21.5350   -6.0850   24.6400 C   0  0  0  0  0  0  0  0  0  0  0  0
  -21.9540   -5.3920   23.4900 C   0  0  0  0  0  3  0  0  0  0  0  0
  -22.2510   -6.1010   22.3130 C   0  0  0  0  0  0  0  0  0  0  0  0
  -22.6330   -5.4260   21.2020 F   0  0  0  0  0  0  0  0  0  0  0  0
  -21.2430   -5.3990   25.7690 F   0  0  0  0  0  0  0  0  0  0  0  0
  -24.2050  -14.6250   20.7230 C   0  0  0  0  0  0  0  0  0  0  0  0
  -23.4260  -14.0620   21.6410 N   0  0  0  0  0  0  0  0  0  0  0  0
  -23.8630  -15.6540   20.1430 O   0  0  0  0  0  0  0  0  0  0  0  0
  -23.7140  -13.2270   22.1300 H   0  0  0  0  0  0  0  0  0  0  0  0
  -22.5280  -14.4730   21.8570 H   0  0  0  0  0  0  0  0  0  0  0  0
  -27.0200  -15.9740   19.9220 N   0  0  0  0  0  0  0  0  0  0  0  0
  -26.3400  -16.7180   20.0360 H   0  0  0  0  0  0  0  0  0  0  0  0
  -27.9320  -16.3080   19.6360 H   0  0  0  0  0  0  0  0  0  0  0  0
  -32.5360  -20.5810   23.7610 C   0  0  0  0  0  1  0  0  0  0  0  0
  -30.7560  -22.2300   23.5290 C   0  0  0  0  0  1  0  0  0  0  0  0
  -30.1930  -20.0770   24.6200 C   0  0  0  0  0  1  0  0  0  0  0  0
  -31.0200  -20.7070   23.4730 C   0  0  1  0  0  0  0  0  0  0  0  0
  -28.9980  -22.9440   20.9240 C   0  0  0  0  0  2  0  0  0  0  0  0
  -29.5360  -24.1140   20.0070 C   0  0  0  0  0  3  0  0  0  0  0  0
  -31.6280  -25.3830   20.7260 C   0  0  0  0  0  1  0  0  0  0  0  0
  -31.5790  -24.5130   18.3950 C   0  0  0  0  0  1  0  0  0  0  0  0
  -31.9000  -22.9710   20.2870 C   0  0  0  0  0  1  0  0  0  0  0  0
  -31.1170  -24.2240   19.8440 C   0  0  2  0  0  0  0  0  0  0  0  0
  -28.7030  -24.4390   18.7270 C   0  0  0  0  0  2  0  0  0  0  0  0
  -27.3770  -25.2030   18.9410 C   0  0  0  0  0  2  0  0  0  0  0  0
  -27.5680  -26.6100   19.1940 O   0  0  0  0  0  0  0  0  0  0  0  0
  -24.3520  -31.6400   23.0950 C   0  0  0  0  0  0  0  0  0  0  0  0
  -26.4340  -27.3900   19.3600 C   0  0  0  0  0  0  0  0  0  0  0  0
  -22.9110  -30.4340   21.4900 C   0  0  0  0  0  3  0  0  0  0  0  0
  -24.1270  -28.9890   19.7780 C   0  0  0  0  0  0  0  0  0  0  0  0
  -25.4140  -30.7220   21.0340 C   0  0  0  0  0  2  0  0  0  0  0  0
  -25.3670  -29.4100   20.2720 C   0  0  0  0  0  0  0  0  0  0  0  0
  -26.5230  -28.6180   20.0620 C   0  0  0  0  0  3  0  0  0  0  0  0
  -25.1690  -26.9970   18.8590 C   0  0  0  0  0  3  0  0  0  0  0  0
  -24.0240  -27.7830   19.0700 C   0  0  0  0  0  3  0  0  0  0  0  0
  -22.9360  -29.8820   20.0410 C   0  0  0  0  0  2  0  0  0  0  0  0
  -24.2520  -30.9400   21.9300 N   0  0  0  0  0  0  0  0  0  0  0  0
  -23.3480  -31.8980   23.7760 O   0  0  0  0  0  0  0  0  0  0  0  0
  -22.3290  -29.3490   22.4250 C   0  0  0  0  0  0  0  0  0  0  0  0
  -21.0100  -29.1170   22.3250 N   0  0  0  0  0  0  0  0  0  0  0  0
  -23.0590  -28.7220   23.1970 O   0  0  0  0  0  0  0  0  0  0  0  0
  -20.4780  -29.6790   21.6750 H   0  0  0  0  0  0  0  0  0  0  0  0
  -17.7390  -27.6330   22.7210 C   0  0  0  0  0  0  0  0  0  0  0  0
  -20.2530  -28.1180   23.0790 C   0  0  0  0  0  3  0  0  0  0  0  0
  -20.5010  -26.6970   22.5250 C   0  0  0  0  0  2  0  0  0  0  0  0
  -19.4690  -26.2670   21.4780 C   0  0  0  0  0  2  0  0  0  0  0  0
  -18.0580  -26.2970   22.0710 C   0  0  0  0  0  2  0  0  0  0  0  0
  -18.7700  -28.4940   23.1800 C   0  0  0  0  0  0  0  0  0  0  0  0
  -18.4200  -29.7400   23.7460 C   0  0  0  0  0  3  0  0  0  0  0  0
  -17.0710  -30.1270   23.8580 C   0  0  0  0  0  3  0  0  0  0  0  0
  -16.0550  -29.2630   23.4160 C   0  0  0  0  0  3  0  0  0  0  0  0
  -16.3880  -28.0180   22.8530 C   0  0  0  0  0  3  0  0  0  0  0  0
  -25.7230  -32.1710   23.6150 C   0  0  0  0  0  3  0  0  0  0  0  0
  -26.3530  -31.2650   24.7420 C   0  0  1  0  0  0  0  0  0  0  0  0
  -25.3860  -30.9590   25.9090 C   0  0  0  0  0  1  0  0  0  0  0  0
  -26.8270  -29.9150   24.1540 C   0  0  0  0  0  1  0  0  0  0  0  0
  -27.6080  -31.9540   25.3300 C   0  0  0  0  0  1  0  0  0  0  0  0
  -25.5090  -33.5390   24.1080 N   0  0  0  0  0  0  0  0  0  0  0  0
  -25.8590  -34.6480   23.4440 C   0  0  0  0  0  0  0  0  0  0  0  0
  -26.4680  -34.6240   22.3720 O   0  0  0  0  0  0  0  0  0  0  0  0
  -24.9670  -33.6360   24.9540 H   0  0  0  0  0  0  0  0  0  0  0  0
  -24.2390  -36.5700   23.3470 C   0  0  0  0  0  1  0  0  0  0  0  0
  -25.4720  -36.0020   24.0700 C   0  0  0  0  0  3  0  0  0  0  0  0
  -27.6790  -36.6510   24.9270 C   0  0  0  0  0  1  0  0  0  0  0  0
  -26.5660  -36.9970   24.0460 N   0  0  0  0  0  0  0  0  0  0  0  0
  -26.2230  -37.9160   24.3130 H   0  0  0  0  0  0  0  0  0  0  0  0
  1 53  1  0
  1  5  1  0
  2  4  1  0
  4  1  1  0
  4  3  1  0
  6  5  1  0
  6 52  1  0
  7 20  1  0
  8 13  1  0
  9 10  1  0
  9  8  1  0
 11 10  1  0
 11 24  1  0
 11 12  1  0
 13  7  1  0
 13 12  1  0
 14  7  2  0
 15 19  1  0
 17 15  1  0
 17 20  1  0
 18 16  1  0
 19  6  1  0
 19 16  1  0
 20 18  1  0
 21 22  2  0
 22 41  1  0
 23 22  1  0
 23 26  1  0
 24 21  1  0
 24 25  1  0
 25 23  2  0
 26 27  1  0
 27 28  2  0
 29 32  1  0
 29 28  1  0
 30 29  2  0
 31 30  1  0
 31 26  2  0
 32 33  1  0
 33 38  2  0
 33 34  1  0
 34 35  2  0
 35 36  1  0
 36 40  1  0
 37 36  2  0
 38 37  1  0
 39 38  1  0
 41 42  1  0
 42 45  1  0
 42 44  1  0
 43 41  2  0
 46 47  1  0
 46 21  1  0
 48 46  1  0
 52 50  1  6
 52 49  1  0
 52 51  1  0
 54 59  1  0
 54 53  1  0
 58 56  1  6
 58 54  1  0
 58 57  1  0
 58 55  1  0
 59 60  1  0
 60 61  1  0
 61 63  1  0
 62 73  2  0
 63 68  1  0
 64 72  1  0
 64 74  1  0
 65 71  1  0
 65 67  1  0
 66 72  1  0
 67 66  1  0
 68 67  2  0
 69 70  1  0
 69 63  2  0
 70 65  2  0
 71 64  1  0
 72 62  1  0
 74 76  2  0
 75 74  1  0
 77 75  1  0
 78 87  2  0
 78 83  1  0
 79 75  1  0
 79 83  1  0
 80 79  1  0
 81 82  1  0
 81 80  1  0
 82 78  1  0
 83 84  2  0
 84 85  1  0
 86 85  2  0
 87 86  1  0
 88 62  1  0
 88 93  1  0
 88 89  1  0
 89 92  1  1
 89 90  1  0
 91 89  1  0
 93 96  1  0
 94 98  1  0
 94 93  1  0
 95 94  2  0
 98 97  1  0
100 98  1  0
100101  1  0
100 99  1  0
M  ISO  4   7 100  20 100  60 101  61 101
M  END
>  <TORSDO>  (68) 
F 25

>  <SCORE>  (68) 
-7.898

>  <name>  (68) 
67

>  <ligand_id>  (68) 
67

>  <original_smiles>  (68) 
[H]c1c([H])c([H])c2c(c1[H])C([H])([H])C([H])([H])C([H])([H])C2([H])N([H])C(=O)C1([H])N(C(=O)C([H])(N([H])C(=O)C([H])(N([H])C([H])([H])[H])C([H])([H])[H])C(C([H])([H])[H])(C([H])([H])[H])C([H])([H])[H])C([H])([H])c2c([H])c(OC([H])([H])C([H])([H])C([H])(C([H])([H])C([H])(C([H])([H])C([H])(C3([H])C([H])([H])C([H])([H])N(C(=O)N4C([H])([H])C([H])([H])C([H])([H])C([H])(n5nc(-c6c([H])c([H])c(Oc7c([H])c([H])c(F)c([H])c7F)c([H])c6[H])c(C(=O)N([H])[H])c5N([H])[H])C4([H])[H])C([H])([H])C3([H])[H])C(C([H])([H])[H])(C([H])([H])[H])C([H])([H])[H])C([H])(C([H])([H])[H])C([H])([H])[H])C(C([H])([H])[H])(C([H])([H])[H])C([H])([H])[H])c([H])c([H])c2C1([H])[H]

>  <smiles>  (68) 
[H]c1c([H])c([H])c2c(c1[H])C([H])([H])C([H])([H])C([H])([H])C2([H])N([H])C(=O)C1([H])N(C(=O)C([H])(N([H])C(=O)C([H])(N([H])C([H])([H])[H])C([H])([H])[H])C(C([H])([H])[H])(C([H])([H])[H])C([H])([H])[H])C([H])([H])c2c([H])c(OC([H])([H])C([H])([H])C([H])(C([H])([H])C([H])(C([H])([H])C([H])(C3([H])C([H])([H])C([H])([H])N(C(=O)N4C([H])([H])C([H])([H])C([H])([H])C([H])(n5nc(-c6c([H])c([H])c(Oc7c([H])c([H])c(F)c([H])c7F)c([H])c6[H])c(C(=O)N([H])[H])c5N([H])[H])C4([H])[H])C([H])([H])C3([H])[H])C(C([H])([H])[H])(C([H])([H])[H])C([H])([H])[H])C([H])(C([H])([H])[H])C([H])([H])[H])C(C([H])([H])[H])(C([H])([H])[H])C([H])([H])[H])c([H])c([H])c2C1([H])[H]

$$$$
68:0:0
     RDKit          3D

103111  0  0  1  0  0  0  0  0999 V2000
  -29.2540  -19.2760   20.0500 C   0  0  0  0  0  3  0  0  0  0  0  0
  -29.6330  -18.2680   21.0690 N   0  0  0  0  0  4  0  0  0  0  0  0
  -29.4080  -18.5970   21.9930 H   0  0  0  0  0  0  0  0  0  0  0  0
  -29.0350  -17.4930   20.8150 H   0  0  0  0  0  0  0  0  0  0  0  0
  -31.0250  -17.7510   21.0240 C   0  0  0  0  0  3  0  0  0  0  0  0
  -31.9690  -18.8370   21.5950 C   0  0  0  0  0  0  0  0  0  0  0  0
  -31.6490  -19.4660   22.6120 O   0  0  0  0  0  0  0  0  0  0  0  0
  -35.7230  -19.6710   19.5940 C   0  0  0  0  0  3  0  0  0  0  0  0
  -34.9260  -18.5970   19.1570 C   0  0  0  0  0  3  0  0  0  0  0  0
  -35.2980  -20.4610   20.6770 C   0  0  0  0  0  3  0  0  0  0  0  0
  -33.7040  -18.3140   19.7970 C   0  0  0  0  0  3  0  0  0  0  0  0
  -34.0770  -20.1770   21.3230 C   0  0  0  0  0  3  0  0  0  0  0  0
  -33.2600  -19.1060   20.8870 C   0  0  0  0  0  0  0  0  0  0  0  0
  -31.1790  -16.4330   21.8370 C   0  0  0  0  0  2  0  0  0  0  0  0
  -30.8890  -14.4350   20.3710 C   0  0  0  0  0  0  0  0  0  0  0  0
  -30.5150  -12.3140   19.1650 C   0  0  0  0  0  2  0  0  0  0  0  0
  -29.5630  -12.5130   17.9690 C   0  0  0  0  0  2  0  0  0  0  0  0
  -28.0940  -12.3900   18.4130 C   0  0  0  0  0  2  0  0  0  0  0  0
  -27.7780  -13.2540   19.6630 C   0  0  0  0  0  3  0  0  0  0  0  0
  -28.8340  -13.0260   20.7680 C   0  0  0  0  0  2  0  0  0  0  0  0
  -30.1650  -13.2980   20.1990 N   0  0  0  0  0  0  0  0  0  0  0  0
  -31.9240  -14.6860   19.7460 O   0  0  0  0  0  0  0  0  0  0  0  0
  -30.4320  -15.2820   21.3060 N   0  0  0  0  0  0  0  0  0  0  0  0
  -29.5990  -14.9920   21.7980 H   0  0  0  0  0  0  0  0  0  0  0  0
  -25.3950  -13.9100   20.3840 C   0  0  0  0  0  0  0  0  0  0  0  0
  -24.3150  -13.1580   20.7640 C   0  0  0  0  0  0  0  0  0  0  0  0
  -24.7500  -11.7980   20.7350 C   0  0  0  0  0  0  0  0  0  0  0  0
  -26.4220  -13.0070   20.1510 N   0  0  0  0  0  0  0  0  0  0  0  0
  -26.0370  -11.7330   20.4190 N   0  0  0  0  0  0  0  0  0  0  0  0
  -24.0020  -10.5510   20.9370 C   0  0  0  0  0  0  0  0  0  0  0  0
  -24.4150   -9.5870   21.8820 C   0  0  0  0  0  3  0  0  0  0  0  0
  -23.6690   -8.4030   22.0710 C   0  0  0  0  0  3  0  0  0  0  0  0
  -22.4950   -8.1750   21.3140 C   0  0  0  0  0  0  0  0  0  0  0  0
  -22.1010   -9.1280   20.3580 C   0  0  0  0  0  3  0  0  0  0  0  0
  -22.8470  -10.3030   20.1680 C   0  0  0  0  0  3  0  0  0  0  0  0
  -21.7240   -7.0430   21.4100 O   0  0  0  0  0  0  0  0  0  0  0  0
  -21.6380   -6.3260   22.5760 C   0  0  0  0  0  0  0  0  0  0  0  0
  -21.2040   -6.9170   23.7830 C   0  0  0  0  0  3  0  0  0  0  0  0
  -21.0650   -6.1270   24.9420 C   0  0  0  0  0  3  0  0  0  0  0  0
  -21.3510   -4.7490   24.8950 C   0  0  0  0  0  0  0  0  0  0  0  0
  -21.7780   -4.1590   23.6930 C   0  0  0  0  0  3  0  0  0  0  0  0
  -21.9180   -4.9450   22.5360 C   0  0  0  0  0  0  0  0  0  0  0  0
  -22.3100   -4.3670   21.3750 F   0  0  0  0  0  0  0  0  0  0  0  0
  -21.2100   -3.9890   26.0060 F   0  0  0  0  0  0  0  0  0  0  0  0
  -22.9290  -13.6640   21.0470 C   0  0  0  0  0  0  0  0  0  0  0  0
  -22.1990  -12.9880   21.9270 N   0  0  0  0  0  0  0  0  0  0  0  0
  -22.5030  -14.6920   20.5230 O   0  0  0  0  0  0  0  0  0  0  0  0
  -22.5580  -12.1570   22.3740 H   0  0  0  0  0  0  0  0  0  0  0  0
  -21.2690  -13.3070   22.1590 H   0  0  0  0  0  0  0  0  0  0  0  0
  -25.5880  -15.2750   20.1990 N   0  0  0  0  0  0  0  0  0  0  0  0
  -24.8350  -15.9480   20.2910 H   0  0  0  0  0  0  0  0  0  0  0  0
  -26.4470  -15.6870   19.8540 H   0  0  0  0  0  0  0  0  0  0  0  0
  -28.1250  -18.6380   19.2160 C   0  0  0  0  0  2  0  0  0  0  0  0
  -28.5020  -17.2870   18.8020 N   0  0  0  0  0  0  0  0  0  0  0  0
  -29.2710  -17.3490   18.1390 H   0  0  0  0  0  0  0  0  0  0  0  0
  -27.7500  -16.9050   18.2320 H   0  0  0  0  0  0  0  0  0  0  0  0
  -28.7970  -20.6100   20.7190 C   0  0  0  0  0  2  0  0  0  0  0  0
  -29.2730  -21.8360   20.0610 N   0  0  0  0  0  0  0  0  0  0  0  0
  -30.2920  -21.8720   20.0720 H   0  0  0  0  0  0  0  0  0  0  0  0
  -28.7460  -22.9950   20.7880 C   0  0  0  0  0  2  0  0  0  0  0  0
  -28.9700  -24.3470   20.0710 C   0  0  0  0  0  2  0  0  0  0  0  0
  -28.3140  -25.5130   20.8490 C   0  0  0  0  0  2  0  0  0  0  0  0
  -28.3940  -26.7730   20.1650 O   0  0  0  0  0  0  0  0  0  0  0  0
  -24.5870  -31.9490   23.2490 C   0  0  0  0  0  0  0  0  0  0  0  0
  -27.2290  -27.5090   20.1740 C   0  0  0  0  0  0  0  0  0  0  0  0
  -23.3770  -30.5430   21.6130 C   0  0  0  0  0  3  0  0  0  0  0  0
  -24.8290  -29.0030   20.1860 C   0  0  0  0  0  0  0  0  0  0  0  0
  -25.9000  -30.9060   21.4050 C   0  0  0  0  0  2  0  0  0  0  0  0
  -25.9870  -29.5340   20.7700 C   0  0  0  0  0  0  0  0  0  0  0  0
  -27.1920  -28.7960   20.7560 C   0  0  0  0  0  3  0  0  0  0  0  0
  -26.0560  -26.9890   19.5850 C   0  0  0  0  0  3  0  0  0  0  0  0
  -24.8580  -27.7310   19.5890 C   0  0  0  0  0  3  0  0  0  0  0  0
  -23.5810  -29.8570   20.2360 C   0  0  0  0  0  2  0  0  0  0  0  0
  -24.6400  -31.1490   22.1470 N   0  0  0  0  0  0  0  0  0  0  0  0
  -23.5080  -32.2230   23.7920 O   0  0  0  0  0  0  0  0  0  0  0  0
  -22.7300  -29.5250   22.5790 C   0  0  0  0  0  0  0  0  0  0  0  0
  -21.4060  -29.3420   22.4530 N   0  0  0  0  0  0  0  0  0  0  0  0
  -23.4150  -28.9010   23.3940 O   0  0  0  0  0  0  0  0  0  0  0  0
  -20.9160  -29.8960   21.7640 H   0  0  0  0  0  0  0  0  0  0  0  0
  -18.0300  -28.1540   22.9570 C   0  0  0  0  0  0  0  0  0  0  0  0
  -20.5880  -28.4070   23.2250 C   0  0  0  0  0  3  0  0  0  0  0  0
  -20.6870  -26.9750   22.6500 C   0  0  0  0  0  2  0  0  0  0  0  0
  -19.5840  -26.6540   21.6370 C   0  0  0  0  0  2  0  0  0  0  0  0
  -18.2020  -26.8030   22.2820 C   0  0  0  0  0  2  0  0  0  0  0  0
  -19.1510  -28.9140   23.3850 C   0  0  0  0  0  0  0  0  0  0  0  0
  -18.9370  -30.1790   23.9730 C   0  0  0  0  0  3  0  0  0  0  0  0
  -17.6350  -30.6860   24.1380 C   0  0  0  0  0  3  0  0  0  0  0  0
  -16.5280  -29.9220   23.7290 C   0  0  0  0  0  3  0  0  0  0  0  0
  -16.7260  -28.6590   23.1460 C   0  0  0  0  0  3  0  0  0  0  0  0
  -25.8760  -32.5800   23.8650 C   0  0  0  0  0  3  0  0  0  0  0  0
  -25.5710  -33.9780   24.1930 N   0  0  0  0  0  0  0  0  0  0  0  0
  -25.9090  -35.0280   23.4330 C   0  0  0  0  0  0  0  0  0  0  0  0
  -26.5820  -34.9210   22.4050 O   0  0  0  0  0  0  0  0  0  0  0  0
  -24.9760  -34.1380   24.9940 H   0  0  0  0  0  0  0  0  0  0  0  0
  -24.1860  -36.8220   23.0660 C   0  0  0  0  0  1  0  0  0  0  0  0
  -25.4220  -36.4180   23.8850 C   0  0  0  0  0  3  0  0  0  0  0  0
  -27.5580  -37.2920   24.7240 C   0  0  0  0  0  1  0  0  0  0  0  0
  -26.4580  -37.4690   23.7790 N   0  0  0  0  0  0  0  0  0  0  0  0
  -26.0550  -38.3890   23.9290 H   0  0  0  0  0  0  0  0  0  0  0  0
  -26.4010  -31.8080   25.1370 C   0  0  1  0  0  0  0  0  0  0  0  0
  -25.3120  -31.5680   26.2100 C   0  0  0  0  0  1  0  0  0  0  0  0
  -26.9840  -30.4310   24.7400 C   0  0  0  0  0  1  0  0  0  0  0  0
  -27.5580  -32.6000   25.7910 C   0  0  0  0  0  1  0  0  0  0  0  0
  1 53  1  0
  1 57  1  0
  1  2  1  0
  2  3  1  0
  4  2  1  0
  5  2  1  0
  5  6  1  0
  5 14  1  0
  6  7  2  0
  8 10  1  0
  9  8  2  0
  9 11  1  0
 10 12  2  0
 11 13  2  0
 13 12  1  0
 13  6  1  0
 15 23  1  0
 16 21  1  0
 17 18  1  0
 17 16  1  0
 19 18  1  0
 19 28  1  0
 19 20  1  0
 21 15  1  0
 21 20  1  0
 22 15  2  0
 23 24  1  0
 23 14  1  0
 25 26  2  0
 26 45  1  0
 27 26  1  0
 27 30  1  0
 28 25  1  0
 28 29  1  0
 29 27  2  0
 30 31  1  0
 31 32  2  0
 33 36  1  0
 33 32  1  0
 34 33  2  0
 35 34  1  0
 35 30  2  0
 36 37  1  0
 37 38  1  0
 38 39  2  0
 40 39  1  0
 40 44  1  0
 41 40  2  0
 42 37  2  0
 42 41  1  0
 43 42  1  0
 45 46  1  0
 46 49  1  0
 46 48  1  0
 47 45  2  0
 50 51  1  0
 50 25  1  0
 52 50  1  0
 54 53  1  0
 55 54  1  0
 56 54  1  0
 58 59  1  0
 58 57  1  0
 58 60  1  0
 61 60  1  0
 61 62  1  0
 63 65  1  0
 63 62  1  0
 64 75  2  0
 65 70  1  0
 66 74  1  0
 66 76  1  0
 67 73  1  0
 67 69  1  0
 68 74  1  0
 69 68  1  0
 70 69  2  0
 71 72  1  0
 71 65  2  0
 72 67  2  0
 73 66  1  0
 74 64  1  0
 76 78  2  0
 77 76  1  0
 79 77  1  0
 80 89  2  0
 80 85  1  0
 81 77  1  0
 81 85  1  0
 82 81  1  0
 83 84  1  0
 83 82  1  0
 84 80  1  0
 85 86  2  0
 86 87  1  0
 88 87  2  0
 89 88  1  0
 90 64  1  0
 90 91  1  0
 90100  1  0
 91 94  1  0
 92 96  1  0
 92 91  1  0
 93 92  2  0
 96 95  1  0
 98 96  1  0
 98 99  1  0
 98 97  1  0
100103  1  1
100101  1  0
102100  1  0
M  ISO  4  15 100  23 100  62 101  63 101
M  END
>  <TORSDO>  (69) 
F 28

>  <SCORE>  (69) 
-12.238

>  <name>  (69) 
68

>  <ligand_id>  (69) 
68

>  <original_smiles>  (69) 
[H]c1c([H])c([H])c(C(=O)C([H])(C([H])([H])N([H])C(=O)N2C([H])([H])C([H])([H])C([H])([H])C([H])(n3nc(-c4c([H])c([H])c(Oc5c([H])c([H])c(F)c([H])c5F)c([H])c4[H])c(C(=O)N([H])[H])c3N([H])[H])C2([H])[H])[N+]([H])([H])C([H])(C([H])([H])N([H])[H])C([H])([H])N([H])C([H])([H])C([H])([H])C([H])([H])Oc2c([H])c([H])c3c(c2[H])C([H])([H])N(C(=O)C([H])(N([H])C(=O)C([H])(N([H])C([H])([H])[H])C([H])([H])[H])C(C([H])([H])[H])(C([H])([H])[H])C([H])([H])[H])C([H])(C(=O)N([H])C2([H])c4c([H])c([H])c([H])c([H])c4C([H])([H])C([H])([H])C2([H])[H])C3([H])[H])c([H])c1[H]

>  <smiles>  (69) 
[H]c1c([H])c([H])c(C(=O)C([H])(C([H])([H])N([H])C(=O)N2C([H])([H])C([H])([H])C([H])([H])C([H])(n3nc(-c4c([H])c([H])c(Oc5c([H])c([H])c(F)c([H])c5F)c([H])c4[H])c(C(=O)N([H])[H])c3N([H])[H])C2([H])[H])[N+]([H])([H])C([H])(C([H])([H])N([H])[H])C([H])([H])N([H])C([H])([H])C([H])([H])C([H])([H])Oc2c([H])c([H])c3c(c2[H])C([H])([H])N(C(=O)C([H])(N([H])C(=O)C([H])(N([H])C([H])([H])[H])C([H])([H])[H])C(C([H])([H])[H])(C([H])([H])[H])C([H])([H])[H])C([H])(C(=O)N([H])C2([H])c4c([H])c([H])c([H])c([H])c4C([H])([H])C([H])([H])C2([H])[H])C3([H])[H])c([H])c1[H]

$$$$
69:0:0
     RDKit          3D

 98105  0  0  1  0  0  0  0  0999 V2000
  -28.8670  -19.4400   17.1910 C   0  0  0  0  0  2  0  0  0  0  0  0
  -30.3490  -19.4170   16.7520 C   0  0  0  0  0  2  0  0  0  0  0  0
  -31.1840  -18.1690   17.1120 C   0  0  0  0  0  2  0  0  0  0  0  0
  -31.6090  -17.9670   18.5870 C   0  0  0  0  0  3  0  0  0  0  0  0
  -33.3930  -19.8590   18.5750 C   0  0  0  0  0  1  0  0  0  0  0  0
  -32.1820  -19.2270   19.2700 C   0  0  0  0  0  2  0  0  0  0  0  0
  -30.4990  -17.3350   19.4580 C   0  0  0  0  0  2  0  0  0  0  0  0
  -31.0460  -16.6160   20.7270 C   0  0  0  0  0  3  0  0  0  0  0  0
  -31.2960  -14.2160   20.1390 C   0  0  0  0  0  0  0  0  0  0  0  0
  -30.8580  -12.0880   18.9990 C   0  0  0  0  0  2  0  0  0  0  0  0
  -29.9120  -12.3630   17.8130 C   0  0  0  0  0  2  0  0  0  0  0  0
  -28.4360  -12.3450   18.2620 C   0  0  0  0  0  2  0  0  0  0  0  0
  -28.1800  -13.2050   19.5280 C   0  0  0  0  0  3  0  0  0  0  0  0
  -29.2220  -12.8750   20.6170 C   0  0  0  0  0  2  0  0  0  0  0  0
  -30.5650  -13.0820   20.0370 N   0  0  0  0  0  0  0  0  0  0  0  0
  -32.4030  -14.3710   19.6130 O   0  0  0  0  0  0  0  0  0  0  0  0
  -30.6520  -15.2230   20.7250 N   0  0  0  0  0  0  0  0  0  0  0  0
  -29.7460  -15.0580   21.1490 H   0  0  0  0  0  0  0  0  0  0  0  0
  -25.8400  -13.9930   20.2660 C   0  0  0  0  0  0  0  0  0  0  0  0
  -24.7250  -13.2980   20.6570 C   0  0  0  0  0  0  0  0  0  0  0  0
  -25.0880  -11.9180   20.6240 C   0  0  0  0  0  0  0  0  0  0  0  0
  -26.8150  -13.0370   20.0260 N   0  0  0  0  0  0  0  0  0  0  0  0
  -26.3660  -11.7850   20.2940 N   0  0  0  0  0  0  0  0  0  0  0  0
  -24.2780  -10.7100   20.8340 C   0  0  0  0  0  0  0  0  0  0  0  0
  -24.6500   -9.7230   21.7730 C   0  0  0  0  0  3  0  0  0  0  0  0
  -23.8460   -8.5800   21.9660 C   0  0  0  0  0  3  0  0  0  0  0  0
  -22.6550   -8.4170   21.2220 C   0  0  0  0  0  0  0  0  0  0  0  0
  -22.3010   -9.3910   20.2730 C   0  0  0  0  0  3  0  0  0  0  0  0
  -23.1050  -10.5250   20.0760 C   0  0  0  0  0  3  0  0  0  0  0  0
  -21.8240   -7.3270   21.3250 O   0  0  0  0  0  0  0  0  0  0  0  0
  -21.7220   -6.6090   22.4890 C   0  0  0  0  0  0  0  0  0  0  0  0
  -21.3420   -7.2140   23.7070 C   0  0  0  0  0  3  0  0  0  0  0  0
  -21.1810   -6.4260   24.8640 C   0  0  0  0  0  3  0  0  0  0  0  0
  -21.3880   -5.0350   24.8030 C   0  0  0  0  0  0  0  0  0  0  0  0
  -21.7590   -4.4300   23.5900 C   0  0  0  0  0  3  0  0  0  0  0  0
  -21.9220   -5.2150   22.4350 C   0  0  0  0  0  0  0  0  0  0  0  0
  -22.2600   -4.6240   21.2640 F   0  0  0  0  0  0  0  0  0  0  0  0
  -21.2250   -4.2760   25.9130 F   0  0  0  0  0  0  0  0  0  0  0  0
  -23.3720  -13.8760   20.9550 C   0  0  0  0  0  0  0  0  0  0  0  0
  -22.6210  -13.2460   21.8560 N   0  0  0  0  0  0  0  0  0  0  0  0
  -22.9890  -14.9150   20.4250 O   0  0  0  0  0  0  0  0  0  0  0  0
  -22.9410  -12.4040   22.3080 H   0  0  0  0  0  0  0  0  0  0  0  0
  -21.7130  -13.6190   22.0960 H   0  0  0  0  0  0  0  0  0  0  0  0
  -26.0990  -15.3470   20.0790 N   0  0  0  0  0  0  0  0  0  0  0  0
  -25.4030  -16.0670   20.2280 H   0  0  0  0  0  0  0  0  0  0  0  0
  -27.0080  -15.7220   19.8330 H   0  0  0  0  0  0  0  0  0  0  0  0
  -30.5850  -17.1850   22.0690 C   0  0  0  0  0  0  0  0  0  0  0  0
  -29.4080  -16.9590   22.4200 O   0  0  0  0  0  0  0  0  0  0  0  0
  -31.4170  -17.7580   22.7960 O   0  0  0  0  0  1  0  0  0  0  0  0
  -28.5030  -20.4580   18.2990 C   0  0  0  0  0  2  0  0  0  0  0  0
  -29.6600  -22.5890   18.9150 C   0  0  0  0  0  0  0  0  0  0  0  0
  -29.0700  -21.7790   18.0270 N   0  0  0  0  0  0  0  0  0  0  0  0
  -29.7270  -22.3320   20.1180 O   0  0  0  0  0  0  0  0  0  0  0  0
  -29.0660  -22.0810   17.0620 H   0  0  0  0  0  0  0  0  0  0  0  0
  -30.2800  -23.8760   18.3640 C   0  0  0  0  0  2  0  0  0  0  0  0
  -30.0390  -25.1120   19.2500 C   0  0  0  0  0  2  0  0  0  0  0  0
  -28.5600  -25.5210   19.3310 C   0  0  0  0  0  2  0  0  0  0  0  0
  -28.4440  -26.6910   20.1380 O   0  0  0  0  0  0  0  0  0  0  0  0
  -24.5780  -31.8160   23.2250 C   0  0  0  0  0  0  0  0  0  0  0  0
  -27.2370  -27.3570   20.1590 C   0  0  0  0  0  0  0  0  0  0  0  0
  -23.3770  -30.4010   21.5910 C   0  0  0  0  0  3  0  0  0  0  0  0
  -24.8290  -28.8410   20.1960 C   0  0  0  0  0  0  0  0  0  0  0  0
  -25.9020  -30.7470   21.4030 C   0  0  0  0  0  2  0  0  0  0  0  0
  -25.9850  -29.3690   20.7800 C   0  0  0  0  0  0  0  0  0  0  0  0
  -27.1860  -28.6280   20.7720 C   0  0  0  0  0  3  0  0  0  0  0  0
  -26.0530  -26.8300   19.5890 C   0  0  0  0  0  3  0  0  0  0  0  0
  -24.8530  -27.5650   19.6120 C   0  0  0  0  0  3  0  0  0  0  0  0
  -23.5880  -29.7030   20.2240 C   0  0  0  0  0  2  0  0  0  0  0  0
  -24.6370  -31.0050   22.1300 N   0  0  0  0  0  0  0  0  0  0  0  0
  -23.4950  -32.0970   23.7590 O   0  0  0  0  0  0  0  0  0  0  0  0
  -22.7180  -29.3940   22.5590 C   0  0  0  0  0  0  0  0  0  0  0  0
  -21.3910  -29.2230   22.4360 N   0  0  0  0  0  0  0  0  0  0  0  0
  -23.3970  -28.7640   23.3740 O   0  0  0  0  0  0  0  0  0  0  0  0
  -20.9040  -29.7790   21.7470 H   0  0  0  0  0  0  0  0  0  0  0  0
  -18.0090  -28.0690   22.9430 C   0  0  0  0  0  0  0  0  0  0  0  0
  -20.5680  -28.2960   23.2110 C   0  0  0  0  0  3  0  0  0  0  0  0
  -20.6540  -26.8620   22.6370 C   0  0  0  0  0  2  0  0  0  0  0  0
  -19.5480  -26.5490   21.6250 C   0  0  0  0  0  2  0  0  0  0  0  0
  -18.1680  -26.7130   22.2720 C   0  0  0  0  0  2  0  0  0  0  0  0
  -19.1360  -28.8180   23.3700 C   0  0  0  0  0  0  0  0  0  0  0  0
  -18.9360  -30.0870   23.9560 C   0  0  0  0  0  3  0  0  0  0  0  0
  -17.6410  -30.6070   24.1210 C   0  0  0  0  0  3  0  0  0  0  0  0
  -16.5250  -29.8550   23.7140 C   0  0  0  0  0  3  0  0  0  0  0  0
  -16.7090  -28.5880   23.1310 C   0  0  0  0  0  3  0  0  0  0  0  0
  -25.8630  -32.4510   23.8440 C   0  0  0  0  0  3  0  0  0  0  0  0
  -25.5510  -33.8470   24.1730 N   0  0  0  0  0  0  0  0  0  0  0  0
  -25.8830  -34.9000   23.4140 C   0  0  0  0  0  0  0  0  0  0  0  0
  -26.5540  -34.8000   22.3840 O   0  0  0  0  0  0  0  0  0  0  0  0
  -24.9560  -34.0010   24.9730 H   0  0  0  0  0  0  0  0  0  0  0  0
  -24.1500  -36.6870   23.0570 C   0  0  0  0  0  1  0  0  0  0  0  0
  -25.3910  -36.2860   23.8720 C   0  0  0  0  0  3  0  0  0  0  0  0
  -27.5230  -37.1760   24.7040 C   0  0  0  0  0  1  0  0  0  0  0  0
  -26.4210  -37.3420   23.7600 N   0  0  0  0  0  0  0  0  0  0  0  0
  -26.0120  -38.2610   23.9090 H   0  0  0  0  0  0  0  0  0  0  0  0
  -26.3870  -31.6780   25.1160 C   0  0  1  0  0  0  0  0  0  0  0  0
  -25.3010  -31.4360   26.1880 C   0  0  0  0  0  1  0  0  0  0  0  0
  -26.9730  -30.3030   24.7160 C   0  0  0  0  0  1  0  0  0  0  0  0
  -27.5360  -32.4740   25.7770 C   0  0  0  0  0  1  0  0  0  0  0  0
  1 50  1  0
  2  3  1  0
  2  1  1  0
  4  3  1  0
  4  6  1  0
  4  7  1  0
  5  6  1  0
  8  7  1  0
  8 47  1  0
  9 17  1  0
 10 15  1  0
 11 12  1  0
 11 10  1  0
 13 12  1  0
 13 22  1  0
 13 14  1  0
 15  9  1  0
 15 14  1  0
 16  9  2  0
 17  8  1  0
 17 18  1  0
 19 20  2  0
 20 39  1  0
 21 20  1  0
 21 24  1  0
 22 19  1  0
 22 23  1  0
 23 21  2  0
 24 25  1  0
 25 26  2  0
 27 30  1  0
 27 26  1  0
 28 27  2  0
 29 28  1  0
 29 24  2  0
 30 31  1  0
 31 32  1  0
 32 33  2  0
 34 33  1  0
 34 38  1  0
 35 34  2  0
 36 31  2  0
 36 35  1  0
 37 36  1  0
 39 40  1  0
 40 43  1  0
 40 42  1  0
 41 39  2  0
 44 45  1  0
 44 19  1  0
 46 44  1  0
 47 48  2  0
 47 49  1  0
 51 53  2  0
 52 50  1  0
 52 51  1  0
 54 52  1  0
 55 51  1  0
 55 56  1  0
 56 57  1  0
 57 58  1  0
 58 60  1  0
 59 70  2  0
 60 65  1  0
 61 69  1  0
 61 71  1  0
 62 68  1  0
 62 64  1  0
 63 69  1  0
 64 63  1  0
 65 64  2  0
 66 67  1  0
 66 60  2  0
 67 62  2  0
 68 61  1  0
 69 59  1  0
 71 73  2  0
 72 71  1  0
 74 72  1  0
 75 84  2  0
 75 80  1  0
 76 72  1  0
 76 80  1  0
 77 76  1  0
 78 79  1  0
 78 77  1  0
 79 75  1  0
 80 81  2  0
 81 82  1  0
 83 82  2  0
 84 83  1  0
 85 59  1  0
 85 86  1  0
 85 95  1  0
 86 89  1  0
 87 91  1  0
 87 86  1  0
 88 87  2  0
 91 90  1  0
 93 91  1  0
 93 94  1  0
 93 92  1  0
 95 98  1  1
 95 96  1  0
 97 95  1  0
M  ISO  4   9 100  17 100  57 101  58 101
M  END
>  <TORSDO>  (70) 
F 28

>  <SCORE>  (70) 
-10.731

>  <name>  (70) 
69

>  <ligand_id>  (70) 
69

>  <original_smiles>  (70) 
[H]c1c([H])c([H])c2c(c1[H])C([H])([H])C([H])([H])C([H])([H])C2([H])N([H])C(=O)C1([H])N(C(=O)C([H])(N([H])C(=O)C([H])(N([H])C([H])([H])[H])C([H])([H])[H])C(C([H])([H])[H])(C([H])([H])[H])C([H])([H])[H])C([H])([H])c2c([H])c(OC([H])([H])C([H])([H])C([H])([H])C(=O)N([H])C([H])([H])C([H])([H])C([H])([H])C([H])([H])C([H])(C([H])([H])C([H])([H])[H])C([H])([H])C([H])(C(=O)[O-])N([H])C(=O)N3C([H])([H])C([H])([H])C([H])([H])C([H])(n4nc(-c5c([H])c([H])c(Oc6c([H])c([H])c(F)c([H])c6F)c([H])c5[H])c(C(=O)N([H])[H])c4N([H])[H])C3([H])[H])c([H])c([H])c2C1([H])[H]

>  <smiles>  (70) 
[H]c1c([H])c([H])c2c(c1[H])C([H])([H])C([H])([H])C([H])([H])C2([H])N([H])C(=O)C1([H])N(C(=O)C([H])(N([H])C(=O)C([H])(N([H])C([H])([H])[H])C([H])([H])[H])C(C([H])([H])[H])(C([H])([H])[H])C([H])([H])[H])C([H])([H])c2c([H])c(OC([H])([H])C([H])([H])C([H])([H])C(=O)N([H])C([H])([H])C([H])([H])C([H])([H])C([H])([H])C([H])(C([H])([H])C([H])([H])[H])C([H])([H])C([H])(C(=O)[O-])N([H])C(=O)N3C([H])([H])C([H])([H])C([H])([H])C([H])(n4nc(-c5c([H])c([H])c(Oc6c([H])c([H])c(F)c([H])c6F)c([H])c5[H])c(C(=O)N([H])[H])c4N([H])[H])C3([H])[H])c([H])c([H])c2C1([H])[H]

$$$$
70:0:0
     RDKit          3D

101108  0  0  1  0  0  0  0  0999 V2000
  -25.8270  -18.7020   17.5830 C   0  0  0  0  0  3  0  0  0  0  0  0
  -26.0470  -20.8130   19.1160 C   0  0  0  0  0  1  0  0  0  0  0  0
  -24.2120  -20.6710   17.3610 C   0  0  0  0  0  1  0  0  0  0  0  0
  -25.1130  -19.8860   18.3240 C   0  0  0  0  0  3  0  0  0  0  0  0
  -26.7160  -19.1460   16.3780 C   0  0  0  0  0  2  0  0  0  0  0  0
  -28.0480  -18.3910   16.1340 C   0  0  0  0  0  2  0  0  0  0  0  0
  -29.3010  -19.1990   16.5140 C   0  0  0  0  0  2  0  0  0  0  0  0
  -29.6120  -19.1590   18.0160 C   0  0  0  0  0  2  0  0  0  0  0  0
  -30.6450  -20.1890   18.4970 C   0  0  0  0  0  2  0  0  0  0  0  0
  -30.3650  -20.5470   19.9610 C   0  0  0  0  0  2  0  0  0  0  0  0
  -31.2540  -21.6470   20.5520 C   0  0  0  0  0  2  0  0  0  0  0  0
  -30.6020  -22.2010   21.8350 C   0  0  0  0  0  2  0  0  0  0  0  0
  -30.6530  -23.6150   21.9250 O   0  0  0  0  0  0  0  0  0  0  0  0
  -25.6930  -28.3610   23.6980 C   0  0  0  0  0  0  0  0  0  0  0  0
  -29.5460  -24.3240   21.5060 C   0  0  0  0  0  0  0  0  0  0  0  0
  -25.4350  -27.3550   21.4520 C   0  0  0  0  0  3  0  0  0  0  0  0
  -27.3990  -25.9490   20.6480 C   0  0  0  0  0  0  0  0  0  0  0  0
  -27.7400  -27.5480   22.5430 C   0  0  0  0  0  2  0  0  0  0  0  0
  -28.1320  -26.2970   21.7870 C   0  0  0  0  0  0  0  0  0  0  0  0
  -29.2140  -25.4960   22.2090 C   0  0  0  0  0  3  0  0  0  0  0  0
  -28.7700  -23.9590   20.3800 C   0  0  0  0  0  3  0  0  0  0  0  0
  -27.7160  -24.7730   19.9370 C   0  0  0  0  0  3  0  0  0  0  0  0
  -26.2840  -26.8800   20.2420 C   0  0  0  0  0  2  0  0  0  0  0  0
  -26.2750  -27.7590   22.6250 N   0  0  0  0  0  0  0  0  0  0  0  0
  -24.4810  -28.6300   23.7050 O   0  0  0  0  0  0  0  0  0  0  0  0
  -24.4080  -26.2480   21.7880 C   0  0  0  0  0  0  0  0  0  0  0  0
  -23.3700  -26.1230   20.9500 N   0  0  0  0  0  0  0  0  0  0  0  0
  -24.5700  -25.5070   22.7640 O   0  0  0  0  0  0  0  0  0  0  0  0
  -23.2990  -26.7810   20.1840 H   0  0  0  0  0  0  0  0  0  0  0  0
  -20.2800  -25.0270   19.4420 C   0  0  0  0  0  0  0  0  0  0  0  0
  -22.3010  -25.1250   21.0400 C   0  0  0  0  0  3  0  0  0  0  0  0
  -22.7330  -23.7780   20.4100 C   0  0  0  0  0  2  0  0  0  0  0  0
  -22.3440  -23.6540   18.9360 C   0  0  0  0  0  2  0  0  0  0  0  0
  -20.8260  -23.7760   18.7740 C   0  0  0  0  0  2  0  0  0  0  0  0
  -20.9790  -25.6680   20.4940 C   0  0  0  0  0  0  0  0  0  0  0  0
  -20.4410  -26.8460   21.0600 C   0  0  0  0  0  3  0  0  0  0  0  0
  -19.2310  -27.3780   20.5900 C   0  0  0  0  0  3  0  0  0  0  0  0
  -18.5340  -26.7320   19.5510 C   0  0  0  0  0  3  0  0  0  0  0  0
  -19.0550  -25.5570   18.9840 C   0  0  0  0  0  3  0  0  0  0  0  0
  -26.5160  -28.7730   24.9580 C   0  0  0  0  0  3  0  0  0  0  0  0
  -26.4570  -30.2360   25.0680 N   0  0  0  0  0  0  0  0  0  0  0  0
  -27.4290  -31.0710   24.6800 C   0  0  0  0  0  0  0  0  0  0  0  0
  -28.5170  -30.6770   24.2510 O   0  0  0  0  0  0  0  0  0  0  0  0
  -25.5730  -30.6330   25.3520 H   0  0  0  0  0  0  0  0  0  0  0  0
  -26.8090  -33.1410   23.3930 C   0  0  0  0  0  1  0  0  0  0  0  0
  -27.1520  -32.5810   24.7820 C   0  0  0  0  0  3  0  0  0  0  0  0
  -28.4800  -33.1020   26.7840 C   0  0  0  0  0  1  0  0  0  0  0  0
  -28.2800  -33.3480   25.3570 N   0  0  0  0  0  0  0  0  0  0  0  0
  -28.1440  -34.3450   25.2170 H   0  0  0  0  0  0  0  0  0  0  0  0
  -26.0070  -28.0890   26.2880 C   0  0  1  0  0  0  0  0  0  0  0  0
  -24.4950  -28.2910   26.5510 C   0  0  0  0  0  1  0  0  0  0  0  0
  -26.2870  -26.5670   26.2620 C   0  0  0  0  0  1  0  0  0  0  0  0
  -26.7730  -28.6640   27.5030 C   0  0  0  0  0  1  0  0  0  0  0  0
  -26.5650  -17.7930   18.6020 C   0  0  0  0  0  2  0  0  0  0  0  0
  -27.0880  -16.4960   17.9600 C   0  0  0  0  0  2  0  0  0  0  0  0
  -28.8850  -15.9460   19.5480 C   0  0  0  0  0  3  0  0  0  0  0  0
  -27.7900  -15.5170   18.8850 C   0  0  0  0  0  0  0  0  0  0  0  0
  -27.2080  -14.1070   18.9760 C   0  0  0  0  0  2  0  0  0  0  0  0
  -29.7260  -15.2000   20.5650 C   0  0  0  0  0  3  0  0  0  0  0  0
  -31.2000  -13.0930   20.1080 C   0  0  0  0  0  0  0  0  0  0  0  0
  -31.0200  -10.6270   19.9240 C   0  0  0  0  0  2  0  0  0  0  0  0
  -30.1250  -10.2350   18.7320 C   0  0  0  0  0  2  0  0  0  0  0  0
  -28.6440  -10.2030   19.1580 C   0  0  0  0  0  2  0  0  0  0  0  0
  -28.2210  -11.4700   19.9490 C   0  0  0  0  0  3  0  0  0  0  0  0
  -29.2380  -11.8090   21.0600 C   0  0  0  0  0  2  0  0  0  0  0  0
  -30.5530  -11.9350   20.4280 N   0  0  0  0  0  0  0  0  0  0  0  0
  -32.3440  -13.0840   19.6450 O   0  0  0  0  0  0  0  0  0  0  0  0
  -30.4620  -14.1740   19.7960 N   0  0  0  0  0  0  0  0  0  0  0  0
  -30.9850  -14.6570   19.0840 H   0  0  0  0  0  0  0  0  0  0  0  0
  -25.8520  -12.2630   20.5330 C   0  0  0  0  0  0  0  0  0  0  0  0
  -24.7730  -11.6340   21.0860 C   0  0  0  0  0  0  0  0  0  0  0  0
  -25.1880  -10.2870   21.2980 C   0  0  0  0  0  0  0  0  0  0  0  0
  -26.8700  -11.3300   20.4840 N   0  0  0  0  0  0  0  0  0  0  0  0
  -26.4730  -10.1370   20.9920 N   0  0  0  0  0  0  0  0  0  0  0  0
  -24.4170   -9.1120   21.7190 C   0  0  0  0  0  0  0  0  0  0  0  0
  -24.2340   -8.8040   23.0840 C   0  0  0  0  0  3  0  0  0  0  0  0
  -23.4750   -7.6780   23.4670 C   0  0  0  0  0  3  0  0  0  0  0  0
  -22.8810   -6.8550   22.4800 C   0  0  0  0  0  0  0  0  0  0  0  0
  -23.0850   -7.1530   21.1210 C   0  0  0  0  0  3  0  0  0  0  0  0
  -23.8470   -8.2720   20.7420 C   0  0  0  0  0  3  0  0  0  0  0  0
  -22.1470   -5.7270   22.7580 O   0  0  0  0  0  0  0  0  0  0  0  0
  -21.0560   -5.7690   23.5870 C   0  0  0  0  0  0  0  0  0  0  0  0
  -19.8600   -6.4210   23.2140 C   0  0  0  0  0  3  0  0  0  0  0  0
  -18.7400   -6.3790   24.0660 C   0  0  0  0  0  3  0  0  0  0  0  0
  -18.8080   -5.6810   25.2870 C   0  0  0  0  0  0  0  0  0  0  0  0
  -19.9970   -5.0280   25.6590 C   0  0  0  0  0  3  0  0  0  0  0  0
  -21.1170   -5.0690   24.8090 C   0  0  0  0  0  0  0  0  0  0  0  0
  -22.2520   -4.4200   25.1620 F   0  0  0  0  0  0  0  0  0  0  0  0
  -17.7300   -5.6330   26.1050 F   0  0  0  0  0  0  0  0  0  0  0  0
  -23.4040  -12.2170   21.2900 C   0  0  0  0  0  0  0  0  0  0  0  0
  -22.6450  -11.6700   22.2320 N   0  0  0  0  0  0  0  0  0  0  0  0
  -23.0210  -13.1960   20.6490 O   0  0  0  0  0  0  0  0  0  0  0  0
  -22.9670  -10.8820   22.7710 H   0  0  0  0  0  0  0  0  0  0  0  0
  -21.7270  -12.0460   22.4170 H   0  0  0  0  0  0  0  0  0  0  0  0
  -26.0390  -13.5330   20.0340 N   0  0  0  0  0  2  0  0  0  0  0  0
  -25.2990  -14.2200   20.0160 H   0  0  0  0  0  0  0  0  0  0  0  0
  -26.9160  -13.8810   19.6680 H   0  0  0  0  0  0  0  0  0  0  0  0
  -31.8810  -15.6700   21.9390 C   0  0  0  0  0  1  0  0  0  0  0  0
  -30.7070  -16.2720   21.1560 C   0  0  0  0  0  3  0  0  0  0  0  0
  -30.4360  -17.6590   23.4000 C   0  0  0  0  0  1  0  0  0  0  0  0
  -30.0290  -17.4530   21.9300 C   0  0  0  0  0  2  0  0  0  0  0  0
  1  5  1  0
  1  4  1  0
  1 54  1  0
  3  4  1  0
  4  2  1  0
  6  5  1  0
  6  7  1  0
  7  8  1  0
  8  9  1  0
  9 10  1  0
 10 11  1  0
 11 12  1  0
 12 13  1  0
 14 25  2  0
 15 13  1  0
 15 20  1  0
 16 26  1  0
 16 24  1  0
 17 19  1  0
 18 24  1  0
 19 20  2  0
 19 18  1  0
 21 15  2  0
 22 21  1  0
 22 17  2  0
 23 17  1  0
 23 16  1  0
 24 14  1  0
 26 28  2  0
 27 26  1  0
 29 27  1  0
 30 35  1  0
 31 27  1  0
 32 31  1  0
 33 32  1  0
 34 33  1  0
 34 30  1  0
 35 31  1  0
 35 36  2  0
 37 36  1  0
 38 37  2  0
 39 30  2  0
 39 38  1  0
 40 14  1  0
 40 41  1  0
 40 50  1  0
 41 44  1  0
 42 46  1  0
 42 41  1  0
 43 42  2  0
 46 45  1  0
 46 48  1  0
 48 47  1  0
 49 48  1  0
 50 51  1  1
 50 53  1  0
 52 50  1  0
 55 54  1  0
 55 57  1  0
 57 58  1  0
 57 56  2  0
 58 97  1  0
 59 56  1  0
 59 99  1  0
 60 66  1  0
 61 66  1  0
 62 63  1  0
 62 61  1  0
 64 63  1  0
 64 73  1  0
 64 65  1  0
 66 65  1  0
 67 60  2  0
 68 60  1  0
 68 59  1  0
 69 68  1  0
 70 71  2  0
 71 90  1  0
 71 72  1  0
 72 75  1  0
 73 70  1  0
 73 74  1  0
 74 72  2  0
 75 76  1  0
 76 77  2  0
 78 81  1  0
 78 77  1  0
 79 78  2  0
 80 79  1  0
 80 75  2  0
 81 82  1  0
 82 87  1  0
 83 82  2  0
 83 84  1  0
 84 85  2  0
 85 86  1  0
 85 89  1  0
 87 88  1  0
 87 86  2  0
 90 91  1  0
 91 94  1  0
 91 93  1  0
 92 90  2  0
 95 70  1  0
 96 95  1  0
 99101  1  0
 99 98  1  0
101100  1  0
M  ISO  4  12 101  13 101  60 100  68 100
M  END
>  <TORSDO>  (71) 
F 31

>  <SCORE>  (71) 
0.669

>  <name>  (71) 
70

>  <ligand_id>  (71) 
70

>  <original_smiles>  (71) 
[H]C(=C(C([H])([H])[H])C([H])([H])C([H])([H])C([H])(C([H])([H])C([H])([H])C([H])([H])C([H])([H])C([H])([H])C([H])([H])C([H])([H])C([H])([H])Oc1c([H])c([H])c2c(c1[H])C([H])([H])N(C(=O)C([H])(N([H])C(=O)C([H])(N([H])C([H])([H])[H])C([H])([H])[H])C(C([H])([H])[H])(C([H])([H])[H])C([H])([H])[H])C([H])(C(=O)N([H])C1([H])c3c([H])c([H])c([H])c([H])c3C([H])([H])C([H])([H])C1([H])[H])C2([H])[H])C([H])(C([H])([H])[H])C([H])([H])[H])C([H])(N([H])C(=O)N1C([H])([H])C([H])([H])C([H])([H])C([H])(n2nc(-c3c([H])c([H])c(Oc4c([H])c([H])c(F)c([H])c4F)c([H])c3[H])c(C(=O)N([H])[H])c2N([H])[H])C1([H])[H])C([H])(C([H])([H])[H])C([H])([H])C([H])([H])[H]

>  <smiles>  (71) 
[H]C(=C(C([H])([H])[H])C([H])([H])C([H])([H])C([H])(C([H])([H])C([H])([H])C([H])([H])C([H])([H])C([H])([H])C([H])([H])C([H])([H])C([H])([H])Oc1c([H])c([H])c2c(c1[H])C([H])([H])N(C(=O)C([H])(N([H])C(=O)C([H])(N([H])C([H])([H])[H])C([H])([H])[H])C(C([H])([H])[H])(C([H])([H])[H])C([H])([H])[H])C([H])(C(=O)N([H])C1([H])c3c([H])c([H])c([H])c([H])c3C([H])([H])C([H])([H])C1([H])[H])C2([H])[H])C([H])(C([H])([H])[H])C([H])([H])[H])C([H])(N([H])C(=O)N1C([H])([H])C([H])([H])C([H])([H])C([H])(n2nc(-c3c([H])c([H])c(Oc4c([H])c([H])c(F)c([H])c4F)c([H])c3[H])c(C(=O)N([H])[H])c2N([H])[H])C1([H])[H])C([H])(C([H])([H])[H])C([H])([H])C([H])([H])[H]

$$$$
71:0:0
     RDKit          3D

 88 96  0  0  1  0  0  0  0  0999 V2000
  -29.0450  -22.7960   20.0580 C   0  0  0  0  0  0  0  0  0  0  0  0
  -30.2460  -23.0700   20.1530 O   0  0  0  0  0  0  0  0  0  0  0  0
  -30.6080  -15.5160   19.8840 C   0  0  0  0  0  0  0  0  0  0  0  0
  -30.5420  -13.0630   18.9880 C   0  0  0  0  0  2  0  0  0  0  0  0
  -29.5560  -12.7840   17.8290 C   0  0  0  0  0  2  0  0  0  0  0  0
  -28.1540  -12.4740   18.3800 C   0  0  0  0  0  2  0  0  0  0  0  0
  -27.7500  -13.4420   19.5190 C   0  0  0  0  0  3  0  0  0  0  0  0
  -28.8680  -13.6550   20.5610 C   0  0  0  0  0  2  0  0  0  0  0  0
  -30.0090  -14.2150   19.8170 N   0  0  0  0  0  0  0  0  0  0  0  0
  -31.8250  -15.4310   19.6450 O   0  0  0  0  0  0  0  0  0  0  0  0
  -29.6700  -19.1200   18.0560 C   0  0  0  0  0  2  0  0  0  0  0  0
  -28.6380  -20.2490   18.6430 C   0  0  0  0  0  2  0  0  0  0  0  0
  -29.6690  -19.7530   20.7370 C   0  0  0  0  0  2  0  0  0  0  0  0
  -30.4620  -17.8260   18.6920 C   0  0  0  0  0  2  0  0  0  0  0  0
  -29.3870  -18.0150   20.7320 C   0  0  0  0  0  2  0  0  0  0  0  0
  -28.7360  -21.0240   20.0480 C   0  0  1  0  0  0  0  0  0  0  0  0
  -27.3630  -20.9320   20.7530 C   0  0  0  0  0  1  0  0  0  0  0  0
  -29.9450  -16.8760   19.7470 N   0  0  0  0  0  0  0  0  0  0  0  0
  -25.4550  -13.9510   20.4860 C   0  0  0  0  0  0  0  0  0  0  0  0
  -24.4250  -13.1530   20.8950 C   0  0  0  0  0  0  0  0  0  0  0  0
  -24.8910  -11.8080   20.7710 C   0  0  0  0  0  0  0  0  0  0  0  0
  -26.4750  -13.0930   20.1230 N   0  0  0  0  0  0  0  0  0  0  0  0
  -26.1550  -11.7950   20.3640 N   0  0  0  0  0  0  0  0  0  0  0  0
  -24.1810  -10.5350   20.9570 C   0  0  0  0  0  0  0  0  0  0  0  0
  -24.6240   -9.5700   21.8880 C   0  0  0  0  0  3  0  0  0  0  0  0
  -23.9090   -8.3650   22.0610 C   0  0  0  0  0  3  0  0  0  0  0  0
  -22.7390   -8.1160   21.3060 C   0  0  0  0  0  0  0  0  0  0  0  0
  -22.3170   -9.0710   20.3630 C   0  0  0  0  0  3  0  0  0  0  0  0
  -23.0330  -10.2660   20.1860 C   0  0  0  0  0  3  0  0  0  0  0  0
  -21.9940   -6.9670   21.3910 O   0  0  0  0  0  0  0  0  0  0  0  0
  -21.8670   -6.2780   22.5730 C   0  0  0  0  0  0  0  0  0  0  0  0
  -21.2920   -6.8670   23.7200 C   0  0  0  0  0  3  0  0  0  0  0  0
  -21.1150   -6.1010   24.8890 C   0  0  0  0  0  3  0  0  0  0  0  0
  -21.5050   -4.7480   24.9130 C   0  0  0  0  0  0  0  0  0  0  0  0
  -22.0730   -4.1600   23.7690 C   0  0  0  0  0  3  0  0  0  0  0  0
  -22.2500   -4.9220   22.6010 C   0  0  0  0  0  0  0  0  0  0  0  0
  -22.7780   -4.3450   21.4950 F   0  0  0  0  0  0  0  0  0  0  0  0
  -21.3290   -4.0090   26.0330 F   0  0  0  0  0  0  0  0  0  0  0  0
  -23.0510  -13.6130   21.2810 C   0  0  0  0  0  0  0  0  0  0  0  0
  -22.3860  -12.8810   22.1690 N   0  0  0  0  0  0  0  0  0  0  0  0
  -22.5780  -14.6560   20.8310 O   0  0  0  0  0  0  0  0  0  0  0  0
  -22.7850  -12.0370   22.5520 H   0  0  0  0  0  0  0  0  0  0  0  0
  -21.4640  -13.1710   22.4690 H   0  0  0  0  0  0  0  0  0  0  0  0
  -25.6060  -15.3290   20.3590 N   0  0  0  0  0  0  0  0  0  0  0  0
  -24.8540  -15.9770   20.5640 H   0  0  0  0  0  0  0  0  0  0  0  0
  -26.4330  -15.7850   19.9970 H   0  0  0  0  0  0  0  0  0  0  0  0
  -27.9830  -24.2310   19.9360 C   0  0  0  0  0  2  0  0  0  0  0  0
  -28.2850  -25.8740   20.1360 O   0  0  0  0  0  0  0  0  0  0  0  0
  -24.7090  -31.8440   23.2560 C   0  0  0  0  0  0  0  0  0  0  0  0
  -27.2870  -27.0110   20.1150 C   0  0  0  0  0  0  0  0  0  0  0  0
  -23.5290  -30.4930   21.5740 C   0  0  0  0  0  3  0  0  0  0  0  0
  -24.9890  -28.9250   20.1140 C   0  0  0  0  0  0  0  0  0  0  0  0
  -26.1020  -30.7000   21.4500 C   0  0  0  0  0  2  0  0  0  0  0  0
  -26.1770  -29.3020   20.7530 C   0  0  0  0  0  0  0  0  0  0  0  0
  -27.3180  -28.3690   20.7250 C   0  0  0  0  0  3  0  0  0  0  0  0
  -26.0670  -26.7990   19.4350 C   0  0  0  0  0  3  0  0  0  0  0  0
  -24.9620  -27.6950   19.4350 C   0  0  0  0  0  3  0  0  0  0  0  0
  -23.7690  -29.8460   20.1790 C   0  0  0  0  0  2  0  0  0  0  0  0
  -24.8020  -31.0390   22.1450 N   0  0  0  0  0  0  0  0  0  0  0  0
  -23.6150  -32.1160   23.7780 O   0  0  0  0  0  0  0  0  0  0  0  0
  -22.8300  -29.4700   22.5080 C   0  0  0  0  0  0  0  0  0  0  0  0
  -21.5040  -29.2950   22.3630 N   0  0  0  0  0  0  0  0  0  0  0  0
  -23.4910  -28.8330   23.3320 O   0  0  0  0  0  0  0  0  0  0  0  0
  -21.0200  -29.8580   21.6730 H   0  0  0  0  0  0  0  0  0  0  0  0
  -18.1210  -28.0610   22.8290 C   0  0  0  0  0  0  0  0  0  0  0  0
  -20.6800  -28.3320   23.1050 C   0  0  0  0  0  3  0  0  0  0  0  0
  -20.7900  -26.9180   22.4890 C   0  0  0  0  0  2  0  0  0  0  0  0
  -19.6930  -26.6230   21.4630 C   0  0  0  0  0  2  0  0  0  0  0  0
  -18.3070  -26.7370   22.1060 C   0  0  0  0  0  2  0  0  0  0  0  0
  -19.2350  -28.8160   23.2830 C   0  0  0  0  0  0  0  0  0  0  0  0
  -19.0040  -30.0560   23.9200 C   0  0  0  0  0  3  0  0  0  0  0  0
  -17.6960  -30.5400   24.1040 C   0  0  0  0  0  3  0  0  0  0  0  0
  -16.5960  -29.7810   23.6630 C   0  0  0  0  0  3  0  0  0  0  0  0
  -16.8110  -28.5440   23.0310 C   0  0  0  0  0  3  0  0  0  0  0  0
  -25.9720  -32.4750   23.9150 C   0  0  0  0  0  3  0  0  0  0  0  0
  -25.6580  -33.8750   24.2560 N   0  0  0  0  0  0  0  0  0  0  0  0
  -25.9570  -34.9380   23.4990 C   0  0  0  0  0  0  0  0  0  0  0  0
  -26.5890  -34.8460   22.4450 O   0  0  0  0  0  0  0  0  0  0  0  0
  -25.0990  -34.0220   25.0840 H   0  0  0  0  0  0  0  0  0  0  0  0
  -24.1820  -36.7050   23.2520 C   0  0  0  0  0  1  0  0  0  0  0  0
  -25.4780  -36.3220   23.9850 C   0  0  0  0  0  3  0  0  0  0  0  0
  -27.6350  -37.2520   24.6900 C   0  0  0  0  0  1  0  0  0  0  0  0
  -26.4830  -37.3910   23.8070 N   0  0  0  0  0  0  0  0  0  0  0  0
  -26.0680  -38.3050   23.9670 H   0  0  0  0  0  0  0  0  0  0  0  0
  -26.4470  -31.7010   25.2060 C   0  0  1  0  0  0  0  0  0  0  0  0
  -25.3210  -31.4710   26.2410 C   0  0  0  0  0  1  0  0  0  0  0  0
  -27.0340  -30.3200   24.8390 C   0  0  0  0  0  1  0  0  0  0  0  0
  -27.5830  -32.4870   25.9000 C   0  0  0  0  0  1  0  0  0  0  0  0
  1  2  2  0
  4  9  1  0
  5  6  1  0
  5  4  1  0
  7  6  1  0
  7 22  1  0
  7  8  1  0
  9  3  1  0
  9  8  1  0
 10  3  2  0
 11 12  1  0
 11 14  1  0
 12 16  1  0
 14 18  1  0
 15 13  1  0
 16  1  1  0
 16 13  1  0
 16 17  1  1
 18  3  1  0
 18 15  1  0
 19 20  2  0
 20 39  1  0
 21 20  1  0
 21 24  1  0
 22 23  1  0
 22 19  1  0
 23 21  2  0
 24 25  1  0
 25 26  2  0
 27 30  1  0
 27 26  1  0
 28 27  2  0
 29 28  1  0
 29 24  2  0
 30 31  1  0
 31 36  2  0
 31 32  1  0
 32 33  2  0
 33 34  1  0
 34 38  1  0
 35 34  2  0
 36 35  1  0
 37 36  1  0
 39 40  1  0
 40 43  1  0
 40 42  1  0
 41 39  2  0
 44 19  1  0
 44 45  1  0
 46 44  1  0
 47  1  1  0
 47 48  1  0
 49 60  2  0
 50 48  1  0
 50 55  1  0
 51 59  1  0
 51 61  1  0
 52 58  1  0
 52 54  1  0
 53 59  1  0
 54 53  1  0
 55 54  2  0
 56 57  1  0
 56 50  2  0
 57 52  2  0
 58 51  1  0
 59 49  1  0
 61 63  2  0
 62 61  1  0
 64 62  1  0
 65 74  2  0
 65 70  1  0
 66 62  1  0
 66 70  1  0
 67 66  1  0
 68 69  1  0
 68 67  1  0
 69 65  1  0
 70 71  2  0
 71 72  1  0
 73 72  2  0
 74 73  1  0
 75 49  1  0
 75 76  1  0
 75 85  1  0
 76 79  1  0
 77 81  1  0
 77 76  1  0
 78 77  2  0
 81 80  1  0
 83 84  1  0
 83 81  1  0
 83 82  1  0
 85 88  1  1
 85 86  1  0
 87 85  1  0
M  ISO  4   3 100  18 100  47 101  48 101
M  END
>  <TORSDO>  (72) 
F 17

>  <SCORE>  (72) 
-15.801

>  <name>  (72) 
71

>  <ligand_id>  (72) 
71

>  <original_smiles>  (72) 
[H]c1c([H])c([H])c2c(c1[H])C([H])([H])C([H])([H])C([H])([H])C2([H])N([H])C(=O)C1([H])N(C(=O)C([H])(N([H])C(=O)C([H])(N([H])C([H])([H])[H])C([H])([H])[H])C(C([H])([H])[H])(C([H])([H])[H])C([H])([H])[H])C([H])([H])c2c([H])c(OC([H])([H])C(=O)C3(C([H])([H])[H])C([H])([H])C([H])([H])N(C(=O)N4C([H])([H])C([H])([H])C([H])([H])C([H])(n5nc(-c6c([H])c([H])c(Oc7c([H])c([H])c(F)c([H])c7F)c([H])c6[H])c(C(=O)N([H])[H])c5N([H])[H])C4([H])[H])C([H])([H])C([H])([H])C3([H])[H])c([H])c([H])c2C1([H])[H]

>  <smiles>  (72) 
[H]c1c([H])c([H])c2c(c1[H])C([H])([H])C([H])([H])C([H])([H])C2([H])N([H])C(=O)C1([H])N(C(=O)C([H])(N([H])C(=O)C([H])(N([H])C([H])([H])[H])C([H])([H])[H])C(C([H])([H])[H])(C([H])([H])[H])C([H])([H])[H])C([H])([H])c2c([H])c(OC([H])([H])C(=O)C3(C([H])([H])[H])C([H])([H])C([H])([H])N(C(=O)N4C([H])([H])C([H])([H])C([H])([H])C([H])(n5nc(-c6c([H])c([H])c(Oc7c([H])c([H])c(F)c([H])c7F)c([H])c6[H])c(C(=O)N([H])[H])c5N([H])[H])C4([H])[H])C([H])([H])C([H])([H])C3([H])[H])c([H])c([H])c2C1([H])[H]

$$$$
72:0:0
     RDKit          3D

103110  0  0  1  0  0  0  0  0999 V2000
  -29.2720  -23.5370   19.8410 C   0  0  0  0  0  3  0  0  0  0  0  0
  -29.9980  -23.8760   18.5110 C   0  0  0  0  0  2  0  0  0  0  0  0
  -30.1440  -25.4570   16.5290 C   0  0  0  0  0  1  0  0  0  0  0  0
  -29.7750  -25.3200   18.0130 C   0  0  0  0  0  3  0  0  0  0  0  0
  -30.5840  -26.3120   18.8820 C   0  0  0  0  0  2  0  0  0  0  0  0
  -30.6500  -28.1250   20.6360 C   0  0  0  0  0  1  0  0  0  0  0  0
  -29.7560  -27.3720   19.6300 C   0  0  0  0  0  3  0  0  0  0  0  0
  -28.6760  -26.7260   20.3050 O   0  0  0  0  0  0  0  0  0  0  0  0
  -24.6570  -31.7800   23.2420 C   0  0  0  0  0  0  0  0  0  0  0  0
  -27.4930  -27.4210   20.2910 C   0  0  0  0  0  0  0  0  0  0  0  0
  -23.5310  -30.3540   21.5580 C   0  0  0  0  0  3  0  0  0  0  0  0
  -25.0630  -28.8450   20.1890 C   0  0  0  0  0  0  0  0  0  0  0  0
  -26.0440  -30.7700   21.4470 C   0  0  0  0  0  2  0  0  0  0  0  0
  -26.1740  -29.3950   20.8350 C   0  0  0  0  0  0  0  0  0  0  0  0
  -27.3770  -28.6770   20.9170 C   0  0  0  0  0  3  0  0  0  0  0  0
  -26.3670  -26.8700   19.6420 C   0  0  0  0  0  3  0  0  0  0  0  0
  -25.1480  -27.5710   19.5970 C   0  0  0  0  0  3  0  0  0  0  0  0
  -23.8020  -29.6760   20.1850 C   0  0  0  0  0  2  0  0  0  0  0  0
  -24.7610  -30.9810   22.1420 N   0  0  0  0  0  0  0  0  0  0  0  0
  -23.5550  -32.0340   23.7450 O   0  0  0  0  0  0  0  0  0  0  0  0
  -22.8720  -29.3190   22.4940 C   0  0  0  0  0  0  0  0  0  0  0  0
  -21.5560  -29.1180   22.3260 N   0  0  0  0  0  0  0  0  0  0  0  0
  -23.5410  -28.7000   23.3270 O   0  0  0  0  0  0  0  0  0  0  0  0
  -21.0790  -29.6740   21.6290 H   0  0  0  0  0  0  0  0  0  0  0  0
  -18.1820  -27.9000   22.7140 C   0  0  0  0  0  0  0  0  0  0  0  0
  -20.7270  -28.1710   23.0680 C   0  0  0  0  0  3  0  0  0  0  0  0
  -20.8580  -26.7430   22.4890 C   0  0  0  0  0  2  0  0  0  0  0  0
  -19.7910  -26.4200   21.4380 C   0  0  0  0  0  2  0  0  0  0  0  0
  -18.3880  -26.5550   22.0380 C   0  0  0  0  0  2  0  0  0  0  0  0
  -19.2810  -28.6670   23.1820 C   0  0  0  0  0  0  0  0  0  0  0  0
  -19.0380  -29.9280   23.7690 C   0  0  0  0  0  3  0  0  0  0  0  0
  -17.7260  -30.4230   23.8920 C   0  0  0  0  0  3  0  0  0  0  0  0
  -16.6400  -29.6530   23.4410 C   0  0  0  0  0  3  0  0  0  0  0  0
  -16.8690  -28.3920   22.8590 C   0  0  0  0  0  3  0  0  0  0  0  0
  -25.9120  -32.4320   23.9040 C   0  0  0  0  0  3  0  0  0  0  0  0
  -26.4060  -31.6630   25.1910 C   0  0  1  0  0  0  0  0  0  0  0  0
  -25.2880  -31.3970   26.2250 C   0  0  0  0  0  1  0  0  0  0  0  0
  -27.0270  -30.3000   24.8020 C   0  0  0  0  0  1  0  0  0  0  0  0
  -27.5220  -32.4750   25.8920 C   0  0  0  0  0  1  0  0  0  0  0  0
  -25.5680  -33.8210   24.2250 N   0  0  0  0  0  0  0  0  0  0  0  0
  -25.9060  -34.8800   23.4760 C   0  0  0  0  0  0  0  0  0  0  0  0
  -26.6130  -34.7900   22.4670 O   0  0  0  0  0  0  0  0  0  0  0  0
  -24.9450  -33.9660   25.0060 H   0  0  0  0  0  0  0  0  0  0  0  0
  -24.1490  -36.6310   23.0680 C   0  0  0  0  0  1  0  0  0  0  0  0
  -25.3760  -36.2570   23.9150 C   0  0  0  0  0  3  0  0  0  0  0  0
  -27.4700  -37.1860   24.7980 C   0  0  0  0  0  1  0  0  0  0  0  0
  -26.3860  -37.3340   23.8310 N   0  0  0  0  0  0  0  0  0  0  0  0
  -25.9560  -38.2430   23.9740 H   0  0  0  0  0  0  0  0  0  0  0  0
  -27.7320  -23.4340   19.6770 C   0  0  0  0  0  2  0  0  0  0  0  0
  -27.2080  -22.6210   18.4700 C   0  0  0  0  0  2  0  0  0  0  0  0
  -27.5770  -21.1460   18.5030 C   0  0  0  0  0  0  0  0  0  0  0  0
  -27.1860  -20.4720   19.5880 N   0  0  0  0  0  0  0  0  0  0  0  0
  -28.1640  -20.6250   17.5550 O   0  0  0  0  0  0  0  0  0  0  0  0
  -26.7160  -21.0080   20.3060 H   0  0  0  0  0  0  0  0  0  0  0  0
  -27.2720  -19.0300   19.7670 C   0  0  0  0  0  2  0  0  0  0  0  0
  -28.7250  -18.5300   19.9030 C   0  0  0  0  0  2  0  0  0  0  0  0
  -28.7920  -17.1420   20.5560 C   0  0  0  0  0  2  0  0  0  0  0  0
  -30.8020  -17.3020   22.0900 C   0  0  0  0  0  1  0  0  0  0  0  0
  -30.2450  -16.6590   20.8060 C   0  0  0  0  0  3  0  0  0  0  0  0
  -30.9800  -14.2870   20.2570 C   0  0  0  0  0  0  0  0  0  0  0  0
  -30.8090  -12.0080   19.3130 C   0  0  0  0  0  2  0  0  0  0  0  0
  -29.8480  -12.0200   18.1010 C   0  0  0  0  0  2  0  0  0  0  0  0
  -28.3660  -11.9490   18.5150 C   0  0  0  0  0  2  0  0  0  0  0  0
  -28.0230  -12.9370   19.6590 C   0  0  0  0  0  3  0  0  0  0  0  0
  -29.0540  -12.7800   20.7980 C   0  0  0  0  0  2  0  0  0  0  0  0
  -30.3910  -13.0660   20.2400 N   0  0  0  0  0  0  0  0  0  0  0  0
  -32.0180  -14.5550   19.6360 O   0  0  0  0  0  0  0  0  0  0  0  0
  -30.2610  -15.2030   20.9390 N   0  0  0  0  0  0  0  0  0  0  0  0
  -29.4830  -14.8090   21.4490 H   0  0  0  0  0  0  0  0  0  0  0  0
  -25.6380  -13.6770   20.3040 C   0  0  0  0  0  0  0  0  0  0  0  0
  -24.5460  -12.9630   20.7090 C   0  0  0  0  0  0  0  0  0  0  0  0
  -24.9570  -11.5960   20.7440 C   0  0  0  0  0  0  0  0  0  0  0  0
  -26.6550  -12.7490   20.1310 N   0  0  0  0  0  0  0  0  0  0  0  0
  -26.2410  -11.4960   20.4450 N   0  0  0  0  0  0  0  0  0  0  0  0
  -24.1900  -10.3720   20.9920 C   0  0  0  0  0  0  0  0  0  0  0  0
  -24.5880   -9.4400   21.9750 C   0  0  0  0  0  3  0  0  0  0  0  0
  -23.8260   -8.2720   22.1980 C   0  0  0  0  0  3  0  0  0  0  0  0
  -22.6520   -8.0350   21.4430 C   0  0  0  0  0  0  0  0  0  0  0  0
  -22.2800   -8.9530   20.4470 C   0  0  0  0  0  3  0  0  0  0  0  0
  -23.0440  -10.1070   20.2160 C   0  0  0  0  0  3  0  0  0  0  0  0
  -21.8580   -6.9220   21.5810 O   0  0  0  0  0  0  0  0  0  0  0  0
  -21.7690   -6.2460   22.7710 C   0  0  0  0  0  0  0  0  0  0  0  0
  -21.3580   -6.8830   23.9630 C   0  0  0  0  0  3  0  0  0  0  0  0
  -21.2070   -6.1320   25.1450 C   0  0  0  0  0  3  0  0  0  0  0  0
  -21.4660   -4.7480   25.1440 C   0  0  0  0  0  0  0  0  0  0  0  0
  -21.8790   -4.1130   23.9590 C   0  0  0  0  0  3  0  0  0  0  0  0
  -22.0250   -4.8600   22.7760 C   0  0  0  0  0  0  0  0  0  0  0  0
  -22.3990   -4.2380   21.6320 F   0  0  0  0  0  0  0  0  0  0  0  0
  -21.3190   -4.0260   26.2820 F   0  0  0  0  0  0  0  0  0  0  0  0
  -23.1680  -13.4950   20.9700 C   0  0  0  0  0  0  0  0  0  0  0  0
  -22.4290  -12.8580   21.8680 N   0  0  0  0  0  0  0  0  0  0  0  0
  -22.7620  -14.5150   20.4100 O   0  0  0  0  0  0  0  0  0  0  0  0
  -22.7690  -12.0250   22.3300 H   0  0  0  0  0  0  0  0  0  0  0  0
  -21.5130  -13.2110   22.1100 H   0  0  0  0  0  0  0  0  0  0  0  0
  -25.8600  -15.0330   20.0610 N   0  0  0  0  0  0  0  0  0  0  0  0
  -25.1440  -15.7490   20.1030 H   0  0  0  0  0  0  0  0  0  0  0  0
  -26.7560  -15.3770   19.7440 H   0  0  0  0  0  0  0  0  0  0  0  0
  -29.8790  -22.2940   20.5380 C   0  0  0  0  0  2  0  0  0  0  0  0
  -31.0700  -22.6100   21.4520 C   0  0  0  0  0  0  0  0  0  0  0  0
  -30.9550  -22.3030   22.7380 N   0  0  0  0  0  0  0  0  0  0  0  0
  -32.1010  -23.1120   21.0090 O   0  0  0  0  0  0  0  0  0  0  0  0
  -30.1010  -21.8940   23.0930 H   0  0  0  0  0  0  0  0  0  0  0  0
  -31.7240  -22.4630   23.3760 H   0  0  0  0  0  0  0  0  0  0  0  0
  1  2  1  0
  1 98  1  0
  4  3  1  0
  4  2  1  0
  4  5  1  0
  5  7  1  0
  7  8  1  0
  7  6  1  0
  9 20  2  0
 10  8  1  0
 10 15  1  0
 11 19  1  0
 11 21  1  0
 12 14  1  0
 13 19  1  0
 14 15  2  0
 14 13  1  0
 16 10  2  0
 17 16  1  0
 17 12  2  0
 18 12  1  0
 18 11  1  0
 19  9  1  0
 21 23  2  0
 22 21  1  0
 24 22  1  0
 25 34  2  0
 25 30  1  0
 26 22  1  0
 26 30  1  0
 27 26  1  0
 28 29  1  0
 28 27  1  0
 29 25  1  0
 30 31  2  0
 31 32  1  0
 33 32  2  0
 34 33  1  0
 35  9  1  0
 35 40  1  0
 35 36  1  0
 36 39  1  1
 36 37  1  0
 38 36  1  0
 40 43  1  0
 41 45  1  0
 41 40  1  0
 42 41  2  0
 45 44  1  0
 47 45  1  0
 47 48  1  0
 47 46  1  0
 49  1  1  0
 50 51  1  0
 50 49  1  0
 51 52  1  0
 52 55  1  0
 52 54  1  0
 53 51  2  0
 55 56  1  0
 56 57  1  0
 57 59  1  0
 59 68  1  0
 59 58  1  0
 60 68  1  0
 61 66  1  0
 62 63  1  0
 62 61  1  0
 64 63  1  0
 64 73  1  0
 64 65  1  0
 66 60  1  0
 66 65  1  0
 67 60  2  0
 68 69  1  0
 70 71  2  0
 71 72  1  0
 71 90  1  0
 72 75  1  0
 73 70  1  0
 73 74  1  0
 74 72  2  0
 75 76  1  0
 76 77  2  0
 78 81  1  0
 78 77  1  0
 79 78  2  0
 80 79  1  0
 80 75  2  0
 81 82  1  0
 82 87  2  0
 82 83  1  0
 83 84  2  0
 85 84  1  0
 85 89  1  0
 86 85  2  0
 87 86  1  0
 88 87  1  0
 90 91  1  0
 91 94  1  0
 91 93  1  0
 92 90  2  0
 95 96  1  0
 95 70  1  0
 97 95  1  0
 98 99  1  0
 99100  1  0
100102  1  0
100103  1  0
101 99  2  0
M  ISO  4   7 101   8 101  60 100  68 100
M  END
>  <TORSDO>  (73) 
F 29

>  <SCORE>  (73) 
-11.239

>  <name>  (73) 
72

>  <ligand_id>  (73) 
72

>  <original_smiles>  (73) 
[H]c1c([H])c([H])c2c(c1[H])C([H])([H])C([H])([H])C([H])([H])C2([H])N([H])C(=O)C1([H])N(C(=O)C([H])(N([H])C(=O)C([H])(N([H])C([H])([H])[H])C([H])([H])[H])C(C([H])([H])[H])(C([H])([H])[H])C([H])([H])[H])C([H])([H])c2c([H])c(OC([H])(C([H])([H])[H])C([H])([H])C([H])(C([H])([H])[H])C([H])([H])C([H])(C([H])([H])C(=O)N([H])[H])C([H])([H])C([H])([H])C(=O)N([H])C([H])([H])C([H])([H])C([H])([H])C([H])(N([H])C(=O)N3C([H])([H])C([H])([H])C([H])([H])C([H])(n4nc(-c5c([H])c([H])c(Oc6c([H])c([H])c(F)c([H])c6F)c([H])c5[H])c(C(=O)N([H])[H])c4N([H])[H])C3([H])[H])C([H])([H])[H])c([H])c([H])c2C1([H])[H]

>  <smiles>  (73) 
[H]c1c([H])c([H])c2c(c1[H])C([H])([H])C([H])([H])C([H])([H])C2([H])N([H])C(=O)C1([H])N(C(=O)C([H])(N([H])C(=O)C([H])(N([H])C([H])([H])[H])C([H])([H])[H])C(C([H])([H])[H])(C([H])([H])[H])C([H])([H])[H])C([H])([H])c2c([H])c(OC([H])(C([H])([H])[H])C([H])([H])C([H])(C([H])([H])[H])C([H])([H])C([H])(C([H])([H])C(=O)N([H])[H])C([H])([H])C([H])([H])C(=O)N([H])C([H])([H])C([H])([H])C([H])([H])C([H])(N([H])C(=O)N3C([H])([H])C([H])([H])C([H])([H])C([H])(n4nc(-c5c([H])c([H])c(Oc6c([H])c([H])c(F)c([H])c6F)c([H])c5[H])c(C(=O)N([H])[H])c4N([H])[H])C3([H])[H])C([H])([H])[H])c([H])c([H])c2C1([H])[H]

$$$$
73:0:0
     RDKit          3D

101109  0  0  1  0  0  0  0  0999 V2000
  -26.7980  -21.8880   21.1190 C   0  0  0  0  0  2  0  0  0  0  0  0
  -27.6680  -20.7100   20.5750 C   0  0  0  0  0  2  0  0  0  0  0  0
  -29.3570  -22.5830   20.5940 C   0  0  0  0  0  2  0  0  0  0  0  0
  -26.8330  -23.1830   20.2530 C   0  0  0  0  0  3  0  0  0  0  0  0
  -28.2830  -23.7840   20.0620 C   0  0  0  0  0  3  0  0  0  0  0  0
  -29.1140  -21.0320   20.3230 N   0  0  1  0  0  4  0  0  0  0  0  0
  -29.1920  -20.9640   19.3180 H   0  0  0  0  0  0  0  0  0  0  0  0
  -24.3580  -23.8250   19.8430 C   0  0  0  0  0  1  0  0  0  0  0  0
  -25.6650  -24.1830   20.5720 C   0  0  0  0  0  3  0  0  0  0  0  0
  -24.1000  -24.2820   22.6750 C   0  0  0  0  0  1  0  0  0  0  0  0
  -25.4580  -24.6350   22.0520 C   0  0  0  0  0  2  0  0  0  0  0  0
  -28.4190  -25.4350   20.4680 C   0  0  0  0  0  2  0  0  0  0  0  0
  -28.1920  -26.7710   19.6790 O   0  0  0  0  0  0  0  0  0  0  0  0
  -24.6290  -32.0480   23.3800 C   0  0  0  0  0  0  0  0  0  0  0  0
  -27.1000  -27.6970   19.8270 C   0  0  0  0  0  0  0  0  0  0  0  0
  -23.3460  -30.7440   21.7270 C   0  0  0  0  0  3  0  0  0  0  0  0
  -24.7300  -29.3540   20.0710 C   0  0  0  0  0  0  0  0  0  0  0  0
  -25.8710  -31.1250   21.3880 C   0  0  0  0  0  2  0  0  0  0  0  0
  -25.9300  -29.7900   20.6400 C   0  0  0  0  0  0  0  0  0  0  0  0
  -27.1140  -28.9720   20.5130 C   0  0  0  0  0  3  0  0  0  0  0  0
  -25.8940  -27.3980   19.1670 C   0  0  0  0  0  3  0  0  0  0  0  0
  -24.7200  -28.1690   19.3190 C   0  0  0  0  0  3  0  0  0  0  0  0
  -23.4800  -30.1940   20.2820 C   0  0  0  0  0  2  0  0  0  0  0  0
  -24.6410  -31.3260   22.2210 N   0  0  0  0  0  0  0  0  0  0  0  0
  -23.5780  -32.2390   24.0120 O   0  0  0  0  0  0  0  0  0  0  0  0
  -22.7990  -29.6250   22.6500 C   0  0  0  0  0  0  0  0  0  0  0  0
  -21.5110  -29.2740   22.4870 N   0  0  0  0  0  0  0  0  0  0  0  0
  -23.5360  -29.0830   23.4770 O   0  0  0  0  0  0  0  0  0  0  0  0
  -20.9690  -29.7780   21.7990 H   0  0  0  0  0  0  0  0  0  0  0  0
  -18.3690  -27.4980   22.7550 C   0  0  0  0  0  0  0  0  0  0  0  0
  -20.8110  -28.2160   23.2170 C   0  0  0  0  0  3  0  0  0  0  0  0
  -21.2140  -26.8140   22.7010 C   0  0  0  0  0  2  0  0  0  0  0  0
  -20.2740  -26.2810   21.6180 C   0  0  0  0  0  2  0  0  0  0  0  0
  -18.8360  -26.1910   22.1380 C   0  0  0  0  0  2  0  0  0  0  0  0
  -19.2930  -28.4520   23.2530 C   0  0  0  0  0  0  0  0  0  0  0  0
  -18.8080  -29.6600   23.7920 C   0  0  0  0  0  3  0  0  0  0  0  0
  -17.4260  -29.9200   23.8440 C   0  0  0  0  0  3  0  0  0  0  0  0
  -16.5130  -28.9650   23.3680 C   0  0  0  0  0  3  0  0  0  0  0  0
  -16.9830  -27.7540   22.8310 C   0  0  0  0  0  3  0  0  0  0  0  0
  -25.9300  -32.6900   23.9550 C   0  0  0  0  0  3  0  0  0  0  0  0
  -26.5190  -31.8990   25.1880 C   0  0  1  0  0  0  0  0  0  0  0  0
  -25.4690  -31.5510   26.2690 C   0  0  0  0  0  1  0  0  0  0  0  0
  -27.1740  -30.5780   24.7270 C   0  0  0  0  0  1  0  0  0  0  0  0
  -27.6370  -32.7360   25.8560 C   0  0  0  0  0  1  0  0  0  0  0  0
  -25.6160  -34.0750   24.3370 N   0  0  0  0  0  0  0  0  0  0  0  0
  -25.9460  -35.1620   23.6210 C   0  0  0  0  0  0  0  0  0  0  0  0
  -26.6170  -35.0980   22.5870 O   0  0  0  0  0  0  0  0  0  0  0  0
  -25.0300  -34.2020   25.1500 H   0  0  0  0  0  0  0  0  0  0  0  0
  -24.2260  -36.9740   23.3370 C   0  0  0  0  0  1  0  0  0  0  0  0
  -25.4600  -36.5290   24.1370 C   0  0  0  0  0  3  0  0  0  0  0  0
  -27.5990  -37.3640   25.0100 C   0  0  0  0  0  1  0  0  0  0  0  0
  -26.4960  -37.5860   24.0760 N   0  0  0  0  0  0  0  0  0  0  0  0
  -26.0940  -38.4980   24.2670 H   0  0  0  0  0  0  0  0  0  0  0  0
  -30.1050  -19.8660   20.8450 C   0  0  0  0  0  3  0  0  0  0  0  0
  -31.4880  -20.5150   21.1160 C   0  0  0  0  0  2  0  0  0  0  0  0
  -32.0540  -19.3300   23.3310 C   0  0  0  0  0  1  0  0  0  0  0  0
  -33.8390  -20.5290   22.0150 C   0  0  0  0  0  1  0  0  0  0  0  0
  -32.5360  -19.7220   21.9240 C   0  0  0  0  0  3  0  0  0  0  0  0
  -30.2980  -18.3830   20.0100 C   0  0  0  0  0  0  0  0  0  0  0  0
  -31.4920  -15.8060   20.2970 C   0  0  0  0  0  0  0  0  0  0  0  0
  -31.4500  -13.4310   19.3790 C   0  0  0  0  0  2  0  0  0  0  0  0
  -30.5810  -13.3730   18.0970 C   0  0  0  0  0  2  0  0  0  0  0  0
  -29.0880  -13.2090   18.4480 C   0  0  0  0  0  2  0  0  0  0  0  0
  -28.6500  -14.1520   19.5990 C   0  0  0  0  0  3  0  0  0  0  0  0
  -29.6310  -14.1190   20.7850 C   0  0  0  0  0  2  0  0  0  0  0  0
  -30.9430  -14.5220   20.2690 N   0  0  0  0  0  0  0  0  0  0  0  0
  -32.6600  -15.9110   19.9030 O   0  0  0  0  0  0  0  0  0  0  0  0
  -30.6610  -16.9350   20.6060 N   0  0  0  0  0  4  0  0  0  0  0  0
  -29.8820  -16.6010   21.1580 H   0  0  0  0  0  0  0  0  0  0  0  0
  -26.2640  -14.8270   20.2120 C   0  0  0  0  0  0  0  0  0  0  0  0
  -25.1590  -14.0940   20.5450 C   0  0  0  0  0  0  0  0  0  0  0  0
  -25.5770  -12.7280   20.5450 C   0  0  0  0  0  0  0  0  0  0  0  0
  -27.2810  -13.9100   20.0260 N   0  0  0  0  0  0  0  0  0  0  0  0
  -26.8760  -12.6450   20.2880 N   0  0  0  0  0  0  0  0  0  0  0  0
  -24.8050  -11.4940   20.7180 C   0  0  0  0  0  0  0  0  0  0  0  0
  -25.1820  -10.5130   21.6590 C   0  0  0  0  0  3  0  0  0  0  0  0
  -24.4110   -9.3400   21.8190 C   0  0  0  0  0  3  0  0  0  0  0  0
  -23.2480   -9.1450   21.0390 C   0  0  0  0  0  0  0  0  0  0  0  0
  -22.8900  -10.1140   20.0840 C   0  0  0  0  0  3  0  0  0  0  0  0
  -23.6620  -11.2760   19.9220 C   0  0  0  0  0  3  0  0  0  0  0  0
  -22.4500   -8.0280   21.1080 O   0  0  0  0  0  0  0  0  0  0  0  0
  -22.2680   -7.3460   22.2850 C   0  0  0  0  0  0  0  0  0  0  0  0
  -21.7820   -7.9830   23.4460 C   0  0  0  0  0  3  0  0  0  0  0  0
  -21.5460   -7.2280   24.6140 C   0  0  0  0  0  3  0  0  0  0  0  0
  -21.7870   -5.8410   24.6180 C   0  0  0  0  0  0  0  0  0  0  0  0
  -22.2660   -5.2080   23.4560 C   0  0  0  0  0  3  0  0  0  0  0  0
  -22.5040   -5.9580   22.2930 C   0  0  0  0  0  0  0  0  0  0  0  0
  -22.9460   -5.3400   21.1700 F   0  0  0  0  0  0  0  0  0  0  0  0
  -21.5530   -5.1130   25.7330 F   0  0  0  0  0  0  0  0  0  0  0  0
  -23.7710  -14.6220   20.7560 C   0  0  0  0  0  0  0  0  0  0  0  0
  -22.9960  -13.9760   21.6190 N   0  0  0  0  0  0  0  0  0  0  0  0
  -23.3840  -15.6430   20.1870 O   0  0  0  0  0  0  0  0  0  0  0  0
  -23.3250  -13.1530   22.1050 H   0  0  0  0  0  0  0  0  0  0  0  0
  -22.0580  -14.3070   21.7980 H   0  0  0  0  0  0  0  0  0  0  0  0
  -26.4910  -16.1870   20.0280 N   0  0  0  0  0  0  0  0  0  0  0  0
  -25.7380  -16.8650   20.0480 H   0  0  0  0  0  0  0  0  0  0  0  0
  -27.3590  -16.5650   19.6780 H   0  0  0  0  0  0  0  0  0  0  0  0
  -31.0940  -18.6290   18.7070 C   0  0  0  0  0  2  0  0  0  0  0  0
  -32.0390  -17.3550   16.7150 C   0  0  0  0  0  1  0  0  0  0  0  0
  -29.6590  -18.1800   16.6080 C   0  0  0  0  0  1  0  0  0  0  0  0
  -30.7790  -17.6760   17.5260 C   0  0  0  0  0  3  0  0  0  0  0  0
  2  1  1  0
  4  9  1  0
  4  1  1  0
  5  4  1  0
  5 12  1  0
  5  3  1  0
  6  2  1  0
  6  3  1  0
  6 54  1  0
  6  7  1  6
  9  8  1  0
  9 11  1  0
 11 10  1  0
 13 15  1  0
 13 12  1  0
 14 25  2  0
 15 20  1  0
 16 24  1  0
 16 26  1  0
 17 23  1  0
 17 19  1  0
 18 24  1  0
 19 18  1  0
 20 19  2  0
 21 22  1  0
 21 15  2  0
 22 17  2  0
 23 16  1  0
 24 14  1  0
 26 28  2  0
 27 26  1  0
 29 27  1  0
 30 39  2  0
 30 35  1  0
 31 27  1  0
 31 35  1  0
 32 31  1  0
 33 34  1  0
 33 32  1  0
 34 30  1  0
 35 36  2  0
 36 37  1  0
 38 37  2  0
 39 38  1  0
 40 14  1  0
 40 45  1  0
 40 41  1  0
 41 44  1  1
 41 42  1  0
 43 41  1  0
 45 48  1  0
 46 50  1  0
 46 45  1  0
 47 46  2  0
 50 49  1  0
 52 50  1  0
 52 53  1  0
 52 51  1  0
 54 55  1  0
 55 58  1  0
 58 57  1  0
 58 56  1  0
 59 68  2  0
 59 54  1  0
 60 68  1  0
 61 66  1  0
 62 63  1  0
 62 61  1  0
 64 63  1  0
 64 73  1  0
 64 65  1  0
 66 60  1  0
 66 65  1  0
 67 60  2  0
 68 69  1  0
 70 71  2  0
 71 72  1  0
 71 90  1  0
 72 75  1  0
 73 70  1  0
 73 74  1  0
 74 72  2  0
 75 76  1  0
 76 77  2  0
 78 81  1  0
 78 77  1  0
 79 78  2  0
 80 79  1  0
 80 75  2  0
 81 82  1  0
 82 87  2  0
 82 83  1  0
 83 84  2  0
 84 85  1  0
 85 89  1  0
 86 85  2  0
 87 86  1  0
 88 87  1  0
 90 91  1  0
 91 94  1  0
 91 93  1  0
 92 90  2  0
 95 96  1  0
 95 70  1  0
 97 95  1  0
 98 59  1  0
 99101  1  0
100101  1  0
101 98  1  0
M  ISO  4  12 101  13 101  60 100  68 100
M  END
>  <TORSDO>  (74) 
F 25

>  <SCORE>  (74) 
-10.001

>  <name>  (74) 
73

>  <ligand_id>  (74) 
73

>  <original_smiles>  (74) 
[H]c1c([H])c([H])c2c(c1[H])C([H])([H])C([H])([H])C([H])([H])C2([H])N([H])C(=O)C1([H])N(C(=O)C([H])(N([H])C(=O)C([H])(N([H])C([H])([H])[H])C([H])([H])[H])C(C([H])([H])[H])(C([H])([H])[H])C([H])([H])[H])C([H])([H])c2c([H])c(OC([H])([H])C3([H])C([H])(C([H])(C([H])([H])[H])C([H])([H])C([H])([H])[H])C([H])([H])C([H])([H])[N+]([H])(C([H])(C([H])([H])C([H])(C([H])([H])[H])C([H])([H])[H])C([H])(N([H])C(=O)N4C([H])([H])C([H])([H])C([H])([H])C([H])(n5nc(-c6c([H])c([H])c(Oc7c([H])c([H])c(F)c([H])c7F)c([H])c6[H])c(C(=O)N([H])[H])c5N([H])[H])C4([H])[H])C([H])([H])C([H])(C([H])([H])[H])C([H])([H])[H])C3([H])[H])c([H])c([H])c2C1([H])[H]

>  <smiles>  (74) 
[H]c1c([H])c([H])c2c(c1[H])C([H])([H])C([H])([H])C([H])([H])C2([H])N([H])C(=O)C1([H])N(C(=O)C([H])(N([H])C(=O)C([H])(N([H])C([H])([H])[H])C([H])([H])[H])C(C([H])([H])[H])(C([H])([H])[H])C([H])([H])[H])C([H])([H])c2c([H])c(OC([H])([H])C3([H])C([H])(C([H])(C([H])([H])[H])C([H])([H])C([H])([H])[H])C([H])([H])C([H])([H])[N+]([H])(C([H])(C([H])([H])C([H])(C([H])([H])[H])C([H])([H])[H])C([H])(N([H])C(=O)N4C([H])([H])C([H])([H])C([H])([H])C([H])(n5nc(-c6c([H])c([H])c(Oc7c([H])c([H])c(F)c([H])c7F)c([H])c6[H])c(C(=O)N([H])[H])c5N([H])[H])C4([H])[H])C([H])([H])C([H])(C([H])([H])[H])C([H])([H])[H])C3([H])[H])c([H])c([H])c2C1([H])[H]

$$$$
74:0:0
     RDKit          3D

 98106  0  0  1  0  0  0  0  0999 V2000
  -31.8110  -18.6190   20.0530 C   0  0  0  0  0  0  0  0  0  0  0  0
  -33.1450  -19.1130   16.1080 C   0  0  0  0  0  2  0  0  0  0  0  0
  -31.6250  -18.8830   16.2370 C   0  0  0  0  0  2  0  0  0  0  0  0
  -33.9430  -18.5950   17.3240 C   0  0  0  0  0  2  0  0  0  0  0  0
  -31.0890  -19.0170   17.6880 C   0  0  0  0  0  2  0  0  0  0  0  0
  -33.1370  -17.6020   18.1960 C   0  0  0  0  0  3  0  0  0  0  0  0
  -31.9680  -18.4010   18.7050 N   0  0  0  0  0  0  0  0  0  0  0  0
  -31.9080  -17.6590   20.8210 O   0  0  0  0  0  0  0  0  0  0  0  0
  -32.8550  -16.2430   17.4580 C   0  0  0  0  0  0  0  0  0  0  0  0
  -33.6170  -15.9150   16.3850 N   0  0  0  0  0  0  0  0  0  0  0  0
  -31.9700  -15.4930   17.8700 O   0  0  0  0  0  0  0  0  0  0  0  0
  -34.3360  -16.5760   16.1270 H   0  0  0  0  0  0  0  0  0  0  0  0
  -33.5190  -14.7140   15.5170 C   0  0  0  0  0  2  0  0  0  0  0  0
  -33.8330  -14.9840   14.0050 C   0  0  0  0  0  2  0  0  0  0  0  0
  -33.5520  -13.8750   13.0990 O   0  0  0  0  0  0  0  0  0  0  0  0
  -33.6200  -13.6290    5.9380 C   0  0  0  0  0  0  0  0  0  0  0  0
  -32.9230  -14.1980   11.9050 C   0  0  0  0  0  0  0  0  0  0  0  0
  -32.0170  -15.2070    6.9640 C   0  0  0  0  0  3  0  0  0  0  0  0
  -31.6480  -14.9380    9.4750 C   0  0  0  0  0  0  0  0  0  0  0  0
  -32.7270  -13.0800    8.2050 C   0  0  0  0  0  2  0  0  0  0  0  0
  -32.4990  -13.8270    9.5060 C   0  0  0  0  0  0  0  0  0  0  0  0
  -33.1280  -13.4440   10.7200 C   0  0  0  0  0  3  0  0  0  0  0  0
  -32.0340  -15.2940   11.8540 C   0  0  0  0  0  3  0  0  0  0  0  0
  -31.4050  -15.6700   10.6510 C   0  0  0  0  0  3  0  0  0  0  0  0
  -31.0160  -15.2930    8.1460 C   0  0  0  0  0  2  0  0  0  0  0  0
  -32.8400  -13.9530    7.0090 N   0  0  0  0  0  0  0  0  0  0  0  0
  -33.6320  -14.3290    4.9150 O   0  0  0  0  0  0  0  0  0  0  0  0
  -32.8690  -16.4940    6.9320 C   0  0  0  0  0  0  0  0  0  0  0  0
  -32.6150  -17.3600    5.9370 N   0  0  0  0  0  0  0  0  0  0  0  0
  -33.7180  -16.7090    7.8030 O   0  0  0  0  0  0  0  0  0  0  0  0
  -31.9130  -17.0990    5.2570 H   0  0  0  0  0  0  0  0  0  0  0  0
  -33.5680  -19.7870    3.4270 C   0  0  0  0  0  0  0  0  0  0  0  0
  -33.2620  -18.6560    5.7320 C   0  0  0  0  0  3  0  0  0  0  0  0
  -32.2910  -19.8150    6.0590 C   0  0  0  0  0  2  0  0  0  0  0  0
  -31.5340  -20.3310    4.8310 C   0  0  0  0  0  2  0  0  0  0  0  0
  -32.5100  -20.8260    3.7640 C   0  0  0  0  0  2  0  0  0  0  0  0
  -33.9080  -18.7570    4.3470 C   0  0  0  0  0  0  0  0  0  0  0  0
  -34.8720  -17.7970    3.9700 C   0  0  0  0  0  3  0  0  0  0  0  0
  -35.4870  -17.8480    2.7060 C   0  0  0  0  0  3  0  0  0  0  0  0
  -35.1580  -18.8770    1.8070 C   0  0  0  0  0  3  0  0  0  0  0  0
  -34.2050  -19.8460    2.1720 C   0  0  0  0  0  3  0  0  0  0  0  0
  -34.5160  -12.3490    5.9400 C   0  0  0  0  0  3  0  0  0  0  0  0
  -34.1100  -11.5280    4.7910 N   0  0  0  0  0  0  0  0  0  0  0  0
  -33.1100  -10.6370    4.8090 C   0  0  0  0  0  0  0  0  0  0  0  0
  -32.4700  -10.3700    5.8290 O   0  0  0  0  0  0  0  0  0  0  0  0
  -34.5620  -11.7250    3.9110 H   0  0  0  0  0  0  0  0  0  0  0  0
  -31.4270  -10.4750    2.9460 C   0  0  0  0  0  1  0  0  0  0  0  0
  -32.7620   -9.9350    3.4830 C   0  0  0  0  0  3  0  0  0  0  0  0
  -34.0000   -7.8240    3.6750 C   0  0  0  0  0  1  0  0  0  0  0  0
  -32.6890   -8.4630    3.6010 N   0  0  0  0  0  0  0  0  0  0  0  0
  -32.1850   -8.0640    2.8150 H   0  0  0  0  0  0  0  0  0  0  0  0
  -36.0600  -12.6690    5.8830 C   0  0  1  0  0  0  0  0  0  0  0  0
  -36.6560  -12.6120    4.4570 C   0  0  0  0  0  1  0  0  0  0  0  0
  -36.3500  -14.0760    6.4580 C   0  0  0  0  0  1  0  0  0  0  0  0
  -36.8370  -11.6650    6.7670 C   0  0  0  0  0  1  0  0  0  0  0  0
  -31.7270  -20.0450   20.7300 C   0  0  0  0  0  3  0  0  0  0  0  0
  -29.4660  -21.2960   20.4220 C   0  0  0  0  0  0  0  0  0  0  0  0
  -27.7350  -22.9430   19.7350 C   0  0  0  0  0  2  0  0  0  0  0  0
  -27.7020  -23.0090   18.1920 C   0  0  0  0  0  2  0  0  0  0  0  0
  -28.8120  -23.9280   17.6300 C   0  0  0  0  0  2  0  0  0  0  0  0
  -30.1990  -23.6580   18.2670 C   0  0  0  0  0  3  0  0  0  0  0  0
  -30.0560  -23.6490   19.7990 C   0  0  0  0  0  2  0  0  0  0  0  0
  -29.1030  -22.5750   20.1290 N   0  0  0  0  0  0  0  0  0  0  0  0
  -28.6450  -20.4350   20.7670 O   0  0  0  0  0  0  0  0  0  0  0  0
  -30.7840  -21.0540   20.1900 N   0  0  0  0  0  0  0  0  0  0  0  0
  -31.2470  -21.8680   19.8090 H   0  0  0  0  0  0  0  0  0  0  0  0
  -32.5490  -24.4140   17.5370 C   0  0  0  0  0  0  0  0  0  0  0  0
  -33.0250  -25.6280   17.1070 C   0  0  0  0  0  0  0  0  0  0  0  0
  -31.9130  -26.5230   17.1490 C   0  0  0  0  0  0  0  0  0  0  0  0
  -31.2050  -24.6170   17.8240 N   0  0  0  0  0  0  0  0  0  0  0  0
  -30.8420  -25.9080   17.6360 N   0  0  0  0  0  0  0  0  0  0  0  0
  -31.7890  -27.9150   16.6980 C   0  0  0  0  0  0  0  0  0  0  0  0
  -32.4600  -28.9690   17.3570 C   0  0  0  0  0  3  0  0  0  0  0  0
  -32.3310  -30.2970   16.8960 C   0  0  0  0  0  3  0  0  0  0  0  0
  -31.5280  -30.5820   15.7650 C   0  0  0  0  0  0  0  0  0  0  0  0
  -30.8440  -29.5320   15.1270 C   0  0  0  0  0  3  0  0  0  0  0  0
  -30.9700  -28.2110   15.5910 C   0  0  0  0  0  3  0  0  0  0  0  0
  -31.3310  -31.8420   15.2570 O   0  0  0  0  0  0  0  0  0  0  0  0
  -32.0060  -32.9300   15.7510 C   0  0  0  0  0  0  0  0  0  0  0  0
  -33.3470  -33.2030   15.3960 C   0  0  0  0  0  3  0  0  0  0  0  0
  -33.9770  -34.3680   15.8750 C   0  0  0  0  0  3  0  0  0  0  0  0
  -33.2700  -35.2660   16.6950 C   0  0  0  0  0  0  0  0  0  0  0  0
  -31.9350  -34.9990   17.0450 C   0  0  0  0  0  3  0  0  0  0  0  0
  -31.3050  -33.8350   16.5730 C   0  0  0  0  0  0  0  0  0  0  0  0
  -30.0130  -33.5930   16.8960 F   0  0  0  0  0  0  0  0  0  0  0  0
  -33.8720  -36.3910   17.1470 F   0  0  0  0  0  0  0  0  0  0  0  0
  -34.4060  -25.9190   16.5980 C   0  0  0  0  0  0  0  0  0  0  0  0
  -35.1710  -26.7220   17.3310 N   0  0  0  0  0  0  0  0  0  0  0  0
  -34.8360  -25.3940   15.5720 O   0  0  0  0  0  0  0  0  0  0  0  0
  -34.8270  -27.1370   18.1840 H   0  0  0  0  0  0  0  0  0  0  0  0
  -36.1180  -26.9200   17.0390 H   0  0  0  0  0  0  0  0  0  0  0  0
  -33.1300  -23.1590   17.6880 N   0  0  0  0  0  0  0  0  0  0  0  0
  -34.0810  -22.9670   17.3930 H   0  0  0  0  0  0  0  0  0  0  0  0
  -32.5930  -22.3200   17.8670 H   0  0  0  0  0  0  0  0  0  0  0  0
  -33.1150  -20.7300   21.0010 C   0  0  0  0  0  2  0  0  0  0  0  0
  -34.8620  -20.0850   22.7820 C   0  0  0  0  0  1  0  0  0  0  0  0
  -32.4920  -20.4770   23.5210 C   0  0  0  0  0  1  0  0  0  0  0  0
  -33.5670  -20.8700   22.4910 C   0  0  0  0  0  3  0  0  0  0  0  0
  1 56  1  0
  1  8  2  0
  2  3  1  0
  2  4  1  0
  3  5  1  0
  4  6  1  0
  5  7  1  0
  6  9  1  0
  6  7  1  0
  7  1  1  0
  9 11  2  0
 10  9  1  0
 12 10  1  0
 13 10  1  0
 14 13  1  0
 15 14  1  0
 16 26  1  0
 17 15  1  0
 18 28  1  0
 18 26  1  0
 18 25  1  0
 19 21  2  0
 19 24  1  0
 20 21  1  0
 21 22  1  0
 22 17  2  0
 23 17  1  0
 24 23  2  0
 25 19  1  0
 26 20  1  0
 27 16  2  0
 28 30  2  0
 29 28  1  0
 31 29  1  0
 32 36  1  0
 32 37  1  0
 33 29  1  0
 33 34  1  0
 35 34  1  0
 36 35  1  0
 37 33  1  0
 38 37  2  0
 39 38  1  0
 40 41  1  0
 40 39  2  0
 41 32  2  0
 42 16  1  0
 43 44  1  0
 43 42  1  0
 44 45  2  0
 46 43  1  0
 48 47  1  0
 48 50  1  0
 48 44  1  0
 50 49  1  0
 51 50  1  0
 52 42  1  0
 52 54  1  1
 52 55  1  0
 53 52  1  0
 56 95  1  0
 57 64  2  0
 58 63  1  0
 59 58  1  0
 60 59  1  0
 61 60  1  0
 61 62  1  0
 62 63  1  0
 63 57  1  0
 65 57  1  0
 65 56  1  0
 66 65  1  0
 67 92  1  0
 67 70  1  0
 68 69  1  0
 68 67  2  0
 69 71  2  0
 70 61  1  0
 71 70  1  0
 72 69  1  0
 72 73  1  0
 74 73  2  0
 75 74  1  0
 76 77  1  0
 76 75  2  0
 77 72  2  0
 78 79  1  0
 78 75  1  0
 79 84  1  0
 80 79  2  0
 80 81  1  0
 81 82  2  0
 82 83  1  0
 82 86  1  0
 84 85  1  0
 84 83  2  0
 87 68  1  0
 87 88  1  0
 88 90  1  0
 89 87  2  0
 91 88  1  0
 92 94  1  0
 93 92  1  0
 95 98  1  0
 98 96  1  0
 98 97  1  0
M  ISO  4  14 101  15 101  57 100  65 100
M  END
>  <TORSDO>  (75) 
F 22

>  <SCORE>  (75) 
-4.123

>  <name>  (75) 
74

>  <ligand_id>  (75) 
74

>  <original_smiles>  (75) 
[H]c1c([H])c([H])c2c(c1[H])C([H])([H])C([H])([H])C([H])([H])C2([H])N([H])C(=O)C1([H])N(C(=O)C([H])(N([H])C(=O)C([H])(N([H])C([H])([H])[H])C([H])([H])[H])C(C([H])([H])[H])(C([H])([H])[H])C([H])([H])[H])C([H])([H])c2c([H])c(OC([H])([H])C([H])([H])N([H])C(=O)C3([H])N(C(=O)C([H])(N([H])C(=O)N4C([H])([H])C([H])([H])C([H])([H])C([H])(n5nc(-c6c([H])c([H])c(Oc7c([H])c([H])c(F)c([H])c7F)c([H])c6[H])c(C(=O)N([H])[H])c5N([H])[H])C4([H])[H])C([H])([H])C([H])(C([H])([H])[H])C([H])([H])[H])C([H])([H])C([H])([H])C([H])([H])C3([H])[H])c([H])c([H])c2C1([H])[H]

>  <smiles>  (75) 
[H]c1c([H])c([H])c2c(c1[H])C([H])([H])C([H])([H])C([H])([H])C2([H])N([H])C(=O)C1([H])N(C(=O)C([H])(N([H])C(=O)C([H])(N([H])C([H])([H])[H])C([H])([H])[H])C(C([H])([H])[H])(C([H])([H])[H])C([H])([H])[H])C([H])([H])c2c([H])c(OC([H])([H])C([H])([H])N([H])C(=O)C3([H])N(C(=O)C([H])(N([H])C(=O)N4C([H])([H])C([H])([H])C([H])([H])C([H])(n5nc(-c6c([H])c([H])c(Oc7c([H])c([H])c(F)c([H])c7F)c([H])c6[H])c(C(=O)N([H])[H])c5N([H])[H])C4([H])[H])C([H])([H])C([H])(C([H])([H])[H])C([H])([H])[H])C([H])([H])C([H])([H])C([H])([H])C3([H])[H])c([H])c([H])c2C1([H])[H]

$$$$
75:0:0
     RDKit          3D

 95102  0  0  1  0  0  0  0  0999 V2000
  -28.8860  -21.9410   20.0870 N   0  0  0  0  0  4  0  0  0  0  0  0
  -28.0160  -21.6500   19.6740 H   0  0  0  0  0  0  0  0  0  0  0  0
  -29.5230  -22.1120   19.3190 H   0  0  0  0  0  0  0  0  0  0  0  0
  -29.5660  -20.6410   20.7050 C   0  0  0  0  0  3  0  0  0  0  0  0
  -31.0550  -20.7670   20.3680 C   0  0  0  0  0  0  0  0  0  0  0  0
  -31.9550  -20.3710   21.2610 N   0  0  0  0  0  0  0  0  0  0  0  0
  -31.3930  -21.2290   19.2770 O   0  0  0  0  0  0  0  0  0  0  0  0
  -31.6730  -19.9980   22.1560 H   0  0  0  0  0  0  0  0  0  0  0  0
  -32.9400  -20.4470   21.0530 H   0  0  0  0  0  0  0  0  0  0  0  0
  -29.1570  -19.0440   20.3020 C   0  0  0  0  0  3  0  0  0  0  0  0
  -30.1100  -17.6860   20.6510 C   0  0  0  0  0  3  0  0  0  0  0  0
  -30.4870  -14.9890   20.2940 C   0  0  0  0  0  0  0  0  0  0  0  0
  -30.3550  -12.6640   19.3020 C   0  0  0  0  0  2  0  0  0  0  0  0
  -29.3950  -12.6430   18.0910 C   0  0  0  0  0  2  0  0  0  0  0  0
  -27.9400  -12.4190   18.5480 C   0  0  0  0  0  2  0  0  0  0  0  0
  -27.5530  -13.3190   19.7510 C   0  0  0  0  0  3  0  0  0  0  0  0
  -28.6330  -13.3090   20.8540 C   0  0  0  0  0  2  0  0  0  0  0  0
  -29.8890  -13.7350   20.2250 N   0  0  0  0  0  0  0  0  0  0  0  0
  -31.6840  -15.0680   19.9970 O   0  0  0  0  0  0  0  0  0  0  0  0
  -29.7150  -16.1630   20.5020 N   0  0  0  0  0  0  0  0  0  0  0  0
  -28.7370  -15.9700   20.6660 H   0  0  0  0  0  0  0  0  0  0  0  0
  -25.1870  -13.8630   20.5570 C   0  0  0  0  0  0  0  0  0  0  0  0
  -24.1390  -13.0720   20.9390 C   0  0  0  0  0  0  0  0  0  0  0  0
  -24.6150  -11.7270   20.8750 C   0  0  0  0  0  0  0  0  0  0  0  0
  -26.2310  -13.0000   20.2760 N   0  0  0  0  0  0  0  0  0  0  0  0
  -25.8990  -11.7090   20.5340 N   0  0  0  0  0  0  0  0  0  0  0  0
  -23.9060  -10.4530   21.0570 C   0  0  0  0  0  0  0  0  0  0  0  0
  -24.3520   -9.4820   21.9820 C   0  0  0  0  0  3  0  0  0  0  0  0
  -23.6390   -8.2760   22.1530 C   0  0  0  0  0  3  0  0  0  0  0  0
  -22.4660   -8.0320   21.4030 C   0  0  0  0  0  0  0  0  0  0  0  0
  -22.0390   -8.9900   20.4670 C   0  0  0  0  0  3  0  0  0  0  0  0
  -22.7520  -10.1880   20.2920 C   0  0  0  0  0  3  0  0  0  0  0  0
  -21.7230   -6.8780   21.4840 O   0  0  0  0  0  0  0  0  0  0  0  0
  -21.6690   -6.1370   22.6370 C   0  0  0  0  0  0  0  0  0  0  0  0
  -21.1850   -6.6780   23.8480 C   0  0  0  0  0  3  0  0  0  0  0  0
  -21.0820   -5.8610   24.9910 C   0  0  0  0  0  3  0  0  0  0  0  0
  -21.4530   -4.5050   24.9260 C   0  0  0  0  0  0  0  0  0  0  0  0
  -21.9320   -3.9640   23.7200 C   0  0  0  0  0  3  0  0  0  0  0  0
  -22.0370   -4.7780   22.5780 C   0  0  0  0  0  0  0  0  0  0  0  0
  -22.4780   -4.2450   21.4120 F   0  0  0  0  0  0  0  0  0  0  0  0
  -21.3480   -3.7190   26.0230 F   0  0  0  0  0  0  0  0  0  0  0  0
  -22.7430  -13.5310   21.2480 C   0  0  0  0  0  0  0  0  0  0  0  0
  -22.0360  -12.8070   22.1070 N   0  0  0  0  0  0  0  0  0  0  0  0
  -22.2890  -14.5640   20.7600 O   0  0  0  0  0  0  0  0  0  0  0  0
  -22.4170  -11.9700   22.5230 H   0  0  0  0  0  0  0  0  0  0  0  0
  -21.0990  -13.0930   22.3550 H   0  0  0  0  0  0  0  0  0  0  0  0
  -25.3330  -15.2390   20.3970 N   0  0  0  0  0  0  0  0  0  0  0  0
  -24.5600  -15.8820   20.5260 H   0  0  0  0  0  0  0  0  0  0  0  0
  -26.1560  -15.6850   20.0160 H   0  0  0  0  0  0  0  0  0  0  0  0
  -28.6410  -23.3740   20.7690 C   0  0  0  0  0  3  0  0  0  0  0  0
  -29.9450  -22.9920   23.0150 C   0  0  0  0  0  1  0  0  0  0  0  0
  -31.0640  -24.3160   21.1350 C   0  0  0  0  0  1  0  0  0  0  0  0
  -29.7350  -23.8680   21.7660 C   0  0  0  0  0  3  0  0  0  0  0  0
  -28.1140  -24.7050   19.8630 C   0  0  0  0  0  2  0  0  0  0  0  0
  -28.1710  -26.2200   20.2530 O   0  0  0  0  0  0  0  0  0  0  0  0
  -24.5420  -31.8760   23.2120 C   0  0  0  0  0  0  0  0  0  0  0  0
  -27.1020  -27.1830   20.1460 C   0  0  0  0  0  0  0  0  0  0  0  0
  -23.3340  -30.4920   21.5680 C   0  0  0  0  0  3  0  0  0  0  0  0
  -24.7760  -28.9330   20.1210 C   0  0  0  0  0  0  0  0  0  0  0  0
  -25.8870  -30.7570   21.3980 C   0  0  0  0  0  2  0  0  0  0  0  0
  -25.9530  -29.3700   20.7350 C   0  0  0  0  0  0  0  0  0  0  0  0
  -27.1130  -28.5090   20.7370 C   0  0  0  0  0  3  0  0  0  0  0  0
  -25.9020  -26.8530   19.4770 C   0  0  0  0  0  3  0  0  0  0  0  0
  -24.7630  -27.6880   19.4740 C   0  0  0  0  0  3  0  0  0  0  0  0
  -23.5480  -29.8280   20.1810 C   0  0  0  0  0  2  0  0  0  0  0  0
  -24.6080  -31.0640   22.1140 N   0  0  0  0  0  0  0  0  0  0  0  0
  -23.4580  -32.1580   23.7450 O   0  0  0  0  0  0  0  0  0  0  0  0
  -22.6610  -29.4770   22.5240 C   0  0  0  0  0  0  0  0  0  0  0  0
  -21.3340  -29.2970   22.3920 N   0  0  0  0  0  0  0  0  0  0  0  0
  -23.3340  -28.8530   23.3490 O   0  0  0  0  0  0  0  0  0  0  0  0
  -20.8480  -29.8480   21.6990 H   0  0  0  0  0  0  0  0  0  0  0  0
  -17.9620  -28.0600   22.8610 C   0  0  0  0  0  0  0  0  0  0  0  0
  -20.5140  -28.3530   23.1570 C   0  0  0  0  0  3  0  0  0  0  0  0
  -20.6400  -26.9200   22.5910 C   0  0  0  0  0  2  0  0  0  0  0  0
  -19.5540  -26.5810   21.5660 C   0  0  0  0  0  2  0  0  0  0  0  0
  -18.1630  -26.7110   22.1930 C   0  0  0  0  0  2  0  0  0  0  0  0
  -19.0660  -28.8390   23.2990 C   0  0  0  0  0  0  0  0  0  0  0  0
  -18.8240  -30.1000   23.8850 C   0  0  0  0  0  3  0  0  0  0  0  0
  -17.5100  -30.5840   24.0380 C   0  0  0  0  0  3  0  0  0  0  0  0
  -16.4210  -29.8020   23.6150 C   0  0  0  0  0  3  0  0  0  0  0  0
  -16.6470  -28.5430   23.0310 C   0  0  0  0  0  3  0  0  0  0  0  0
  -25.8230  -32.5050   23.8380 C   0  0  0  0  0  3  0  0  0  0  0  0
  -25.5170  -33.9080   24.1630 N   0  0  0  0  0  0  0  0  0  0  0  0
  -25.8680  -34.9600   23.4120 C   0  0  0  0  0  0  0  0  0  0  0  0
  -26.5500  -34.8520   22.3890 O   0  0  0  0  0  0  0  0  0  0  0  0
  -24.9110  -34.0640   24.9550 H   0  0  0  0  0  0  0  0  0  0  0  0
  -24.1790  -36.7870   23.0270 C   0  0  0  0  0  1  0  0  0  0  0  0
  -25.3920  -36.3560   23.8670 C   0  0  0  0  0  3  0  0  0  0  0  0
  -27.5130  -37.2090   24.7650 C   0  0  0  0  0  1  0  0  0  0  0  0
  -26.4430  -37.3930   23.7880 N   0  0  0  0  0  0  0  0  0  0  0  0
  -26.0480  -38.3200   23.9210 H   0  0  0  0  0  0  0  0  0  0  0  0
  -26.3250  -31.7410   25.1250 C   0  0  1  0  0  0  0  0  0  0  0  0
  -25.2220  -31.5220   26.1880 C   0  0  0  0  0  1  0  0  0  0  0  0
  -26.9020  -30.3550   24.7540 C   0  0  0  0  0  1  0  0  0  0  0  0
  -27.4760  -32.5330   25.7860 C   0  0  0  0  0  1  0  0  0  0  0  0
  1  4  1  0
  1 50  1  0
  2  1  1  0
  3  1  1  0
  4 10  1  0
  5  4  1  0
  5  6  1  0
  6  8  1  0
  7  5  2  0
  9  6  1  0
 10 11  2  0
 12 20  1  0
 13 18  1  0
 14 15  1  0
 14 13  1  0
 16 15  1  0
 16 25  1  0
 16 17  1  0
 18 12  1  0
 18 17  1  0
 19 12  2  0
 20 11  1  0
 20 21  1  0
 22 23  2  0
 23 42  1  0
 24 23  1  0
 24 27  1  0
 25 26  1  0
 25 22  1  0
 26 24  2  0
 27 28  1  0
 28 29  2  0
 30 33  1  0
 30 29  1  0
 31 30  2  0
 32 31  1  0
 32 27  2  0
 33 34  1  0
 34 35  1  0
 35 36  2  0
 37 36  1  0
 37 41  1  0
 38 37  2  0
 39 34  2  0
 39 38  1  0
 40 39  1  0
 42 43  1  0
 43 46  1  0
 43 45  1  0
 44 42  2  0
 47 48  1  0
 47 22  1  0
 49 47  1  0
 50 54  1  0
 50 53  1  0
 52 53  1  0
 53 51  1  0
 54 55  1  0
 56 67  2  0
 57 55  1  0
 57 62  1  0
 58 66  1  0
 58 68  1  0
 59 65  1  0
 59 61  1  0
 60 66  1  0
 61 62  2  0
 61 60  1  0
 63 57  2  0
 64 63  1  0
 64 59  2  0
 65 58  1  0
 66 56  1  0
 68 70  2  0
 69 68  1  0
 71 69  1  0
 72 81  2  0
 72 77  1  0
 73 69  1  0
 73 77  1  0
 74 73  1  0
 75 76  1  0
 75 74  1  0
 76 72  1  0
 77 78  2  0
 78 79  1  0
 80 79  2  0
 81 80  1  0
 82 56  1  0
 82 83  1  0
 82 92  1  0
 83 86  1  0
 84 88  1  0
 84 83  1  0
 85 84  2  0
 88 87  1  0
 90 88  1  0
 90 91  1  0
 90 89  1  0
 92 95  1  1
 92 93  1  0
 94 92  1  0
M  ISO  4  12 100  20 100  54 101  55 101
M  END
>  <TORSDO>  (76) 
F 23

>  <SCORE>  (76) 
-13.850

>  <name>  (76) 
75

>  <ligand_id>  (76) 
75

>  <original_smiles>  (76) 
[H]c1c([H])c([H])c2c(c1[H])C([H])([H])C([H])([H])C([H])([H])C2([H])N([H])C(=O)C1([H])N(C(=O)C([H])(N([H])C(=O)C([H])(N([H])C([H])([H])[H])C([H])([H])[H])C(C([H])([H])[H])(C([H])([H])[H])C([H])([H])[H])C([H])([H])c2c([H])c(OC([H])([H])C([H])(C([H])(C([H])([H])[H])C([H])([H])[H])[N+]([H])([H])C([H])(C(=O)N([H])[H])C([H])([H])C([H])([H])N([H])C(=O)N3C([H])([H])C([H])([H])C([H])([H])C([H])(n4nc(-c5c([H])c([H])c(Oc6c([H])c([H])c(F)c([H])c6F)c([H])c5[H])c(C(=O)N([H])[H])c4N([H])[H])C3([H])[H])c([H])c([H])c2C1([H])[H]

>  <smiles>  (76) 
[H]c1c([H])c([H])c2c(c1[H])C([H])([H])C([H])([H])C([H])([H])C2([H])N([H])C(=O)C1([H])N(C(=O)C([H])(N([H])C(=O)C([H])(N([H])C([H])([H])[H])C([H])([H])[H])C(C([H])([H])[H])(C([H])([H])[H])C([H])([H])[H])C([H])([H])c2c([H])c(OC([H])([H])C([H])(C([H])(C([H])([H])[H])C([H])([H])[H])[N+]([H])([H])C([H])(C(=O)N([H])[H])C([H])([H])C([H])([H])N([H])C(=O)N3C([H])([H])C([H])([H])C([H])([H])C([H])(n4nc(-c5c([H])c([H])c(Oc6c([H])c([H])c(F)c([H])c6F)c([H])c5[H])c(C(=O)N([H])[H])c4N([H])[H])C3([H])[H])c([H])c([H])c2C1([H])[H]

$$$$
76:0:0
     RDKit          3D

 95102  0  0  1  0  0  0  0  0999 V2000
  -26.9720  -21.5530   20.0480 C   0  0  0  0  0  1  0  0  0  0  0  0
  -28.4560  -21.8060   20.3650 C   0  0  0  0  0  3  0  0  0  0  0  0
  -29.3500  -20.5990   19.8620 N   0  0  0  0  0  4  0  0  0  0  0  0
  -29.4160  -20.6790   18.8610 H   0  0  0  0  0  0  0  0  0  0  0  0
  -30.2650  -20.8350   20.2160 H   0  0  0  0  0  0  0  0  0  0  0  0
  -29.0940  -19.0580   20.1960 C   0  0  0  0  0  2  0  0  0  0  0  0
  -30.2630  -17.8200   20.0520 C   0  0  0  0  0  3  0  0  0  0  0  0
  -30.5490  -15.0360   19.9010 C   0  0  0  0  0  0  0  0  0  0  0  0
  -30.3170  -12.6940   18.9650 C   0  0  0  0  0  2  0  0  0  0  0  0
  -29.3270  -12.6630   17.7810 C   0  0  0  0  0  2  0  0  0  0  0  0
  -27.8850  -12.4620   18.2790 C   0  0  0  0  0  2  0  0  0  0  0  0
  -27.5490  -13.3590   19.5010 C   0  0  0  0  0  3  0  0  0  0  0  0
  -28.6670  -13.3920   20.5650 C   0  0  0  0  0  2  0  0  0  0  0  0
  -29.9050  -13.7970   19.8860 N   0  0  0  0  0  0  0  0  0  0  0  0
  -31.7120  -15.0340   19.4920 O   0  0  0  0  0  0  0  0  0  0  0  0
  -29.8700  -16.2690   20.1620 N   0  0  0  0  0  0  0  0  0  0  0  0
  -28.9120  -16.1270   20.4420 H   0  0  0  0  0  0  0  0  0  0  0  0
  -25.2310  -13.9150   20.4250 C   0  0  0  0  0  0  0  0  0  0  0  0
  -24.1870  -13.1340   20.8340 C   0  0  0  0  0  0  0  0  0  0  0  0
  -24.6390  -11.7820   20.7340 C   0  0  0  0  0  0  0  0  0  0  0  0
  -26.2480  -13.0400   20.0830 N   0  0  0  0  0  0  0  0  0  0  0  0
  -25.9100  -11.7510   20.3390 N   0  0  0  0  0  0  0  0  0  0  0  0
  -23.9160  -10.5200   20.9360 C   0  0  0  0  0  0  0  0  0  0  0  0
  -24.3700   -9.5490   21.8540 C   0  0  0  0  0  3  0  0  0  0  0  0
  -23.6480   -8.3510   22.0450 C   0  0  0  0  0  3  0  0  0  0  0  0
  -22.4580   -8.1160   21.3180 C   0  0  0  0  0  0  0  0  0  0  0  0
  -22.0230   -9.0750   20.3880 C   0  0  0  0  0  3  0  0  0  0  0  0
  -22.7440  -10.2650   20.1950 C   0  0  0  0  0  3  0  0  0  0  0  0
  -21.7040   -6.9720   21.4150 O   0  0  0  0  0  0  0  0  0  0  0  0
  -21.6500   -6.2410   22.5730 C   0  0  0  0  0  0  0  0  0  0  0  0
  -21.2060   -6.8050   23.7900 C   0  0  0  0  0  3  0  0  0  0  0  0
  -21.1020   -6.0000   24.9410 C   0  0  0  0  0  3  0  0  0  0  0  0
  -21.4270   -4.6310   24.8790 C   0  0  0  0  0  0  0  0  0  0  0  0
  -21.8610   -4.0680   23.6660 C   0  0  0  0  0  3  0  0  0  0  0  0
  -21.9680   -4.8690   22.5170 C   0  0  0  0  0  0  0  0  0  0  0  0
  -22.3680   -4.3170   21.3460 F   0  0  0  0  0  0  0  0  0  0  0  0
  -21.3200   -3.8560   25.9820 F   0  0  0  0  0  0  0  0  0  0  0  0
  -22.8130  -13.6110   21.2050 C   0  0  0  0  0  0  0  0  0  0  0  0
  -22.1350  -12.8910   22.0900 N   0  0  0  0  0  0  0  0  0  0  0  0
  -22.3530  -14.6540   20.7430 O   0  0  0  0  0  0  0  0  0  0  0  0
  -22.5300  -12.0490   22.4830 H   0  0  0  0  0  0  0  0  0  0  0  0
  -21.2120  -13.1810   22.3770 H   0  0  0  0  0  0  0  0  0  0  0  0
  -25.3900  -15.2910   20.2850 N   0  0  0  0  0  0  0  0  0  0  0  0
  -24.6250  -15.9330   20.4570 H   0  0  0  0  0  0  0  0  0  0  0  0
  -26.2020  -15.7400   19.8830 H   0  0  0  0  0  0  0  0  0  0  0  0
  -31.7420  -19.6430   21.2090 C   0  0  0  0  0  1  0  0  0  0  0  0
  -31.3400  -17.4770   22.3720 C   0  0  0  0  0  1  0  0  0  0  0  0
  -32.8510  -17.6240   20.3610 C   0  0  0  0  0  1  0  0  0  0  0  0
  -31.5180  -18.1260   20.9800 C   0  0  1  0  0  0  0  0  0  0  0  0
  -28.8410  -23.3950   19.9530 C   0  0  0  0  0  3  0  0  0  0  0  0
  -30.1670  -23.6210   20.5010 N   0  0  0  0  0  0  0  0  0  0  0  0
  -30.0570  -23.7490   21.5030 H   0  0  0  0  0  0  0  0  0  0  0  0
  -30.4850  -24.5300   20.1760 H   0  0  0  0  0  0  0  0  0  0  0  0
  -27.9320  -24.7420   20.3980 C   0  0  0  0  0  2  0  0  0  0  0  0
  -28.2450  -26.2470   20.1600 O   0  0  0  0  0  0  0  0  0  0  0  0
  -24.6650  -31.9160   23.2320 C   0  0  0  0  0  0  0  0  0  0  0  0
  -27.1950  -27.2300   20.1390 C   0  0  0  0  0  0  0  0  0  0  0  0
  -23.4490  -30.5410   21.5930 C   0  0  0  0  0  3  0  0  0  0  0  0
  -24.8740  -28.9770   20.1430 C   0  0  0  0  0  0  0  0  0  0  0  0
  -26.0010  -30.8030   21.4040 C   0  0  0  0  0  2  0  0  0  0  0  0
  -26.0630  -29.4150   20.7410 C   0  0  0  0  0  0  0  0  0  0  0  0
  -27.2270  -28.5600   20.7180 C   0  0  0  0  0  3  0  0  0  0  0  0
  -25.9840  -26.9000   19.4890 C   0  0  0  0  0  3  0  0  0  0  0  0
  -24.8460  -27.7310   19.5000 C   0  0  0  0  0  3  0  0  0  0  0  0
  -23.6520  -29.8780   20.2070 C   0  0  0  0  0  2  0  0  0  0  0  0
  -24.7270  -31.1070   22.1300 N   0  0  0  0  0  0  0  0  0  0  0  0
  -23.5830  -32.1930   23.7720 O   0  0  0  0  0  0  0  0  0  0  0  0
  -22.7810  -29.5200   22.5510 C   0  0  0  0  0  0  0  0  0  0  0  0
  -21.4510  -29.3580   22.4350 N   0  0  0  0  0  0  0  0  0  0  0  0
  -23.4600  -28.8820   23.3590 O   0  0  0  0  0  0  0  0  0  0  0  0
  -20.9670  -29.9180   21.7470 H   0  0  0  0  0  0  0  0  0  0  0  0
  -18.0650  -28.1690   22.9500 C   0  0  0  0  0  0  0  0  0  0  0  0
  -20.6270  -28.4210   23.2040 C   0  0  0  0  0  3  0  0  0  0  0  0
  -20.7200  -26.9910   22.6210 C   0  0  0  0  0  2  0  0  0  0  0  0
  -19.6100  -26.6780   21.6140 C   0  0  0  0  0  2  0  0  0  0  0  0
  -18.2330  -26.8230   22.2660 C   0  0  0  0  0  2  0  0  0  0  0  0
  -19.1890  -28.9280   23.3760 C   0  0  0  0  0  0  0  0  0  0  0  0
  -18.9740  -30.1880   23.9770 C   0  0  0  0  0  3  0  0  0  0  0  0
  -17.6690  -30.6860   24.1570 C   0  0  0  0  0  3  0  0  0  0  0  0
  -16.5610  -29.9260   23.7460 C   0  0  0  0  0  3  0  0  0  0  0  0
  -16.7600  -28.6690   23.1470 C   0  0  0  0  0  3  0  0  0  0  0  0
  -25.9490  -32.5460   23.8530 C   0  0  0  0  0  3  0  0  0  0  0  0
  -25.6400  -33.9460   24.1890 N   0  0  0  0  0  0  0  0  0  0  0  0
  -25.9730  -35.0040   23.4360 C   0  0  0  0  0  0  0  0  0  0  0  0
  -26.6370  -34.9040   22.4020 O   0  0  0  0  0  0  0  0  0  0  0  0
  -25.0500  -34.0940   24.9930 H   0  0  0  0  0  0  0  0  0  0  0  0
  -24.2530  -36.8110   23.1050 C   0  0  0  0  0  1  0  0  0  0  0  0
  -25.4960  -36.3940   23.9070 C   0  0  0  0  0  3  0  0  0  0  0  0
  -27.6400  -37.2630   24.7360 C   0  0  0  0  0  1  0  0  0  0  0  0
  -26.5360  -37.4430   23.7970 N   0  0  0  0  0  0  0  0  0  0  0  0
  -26.1360  -38.3640   23.9510 H   0  0  0  0  0  0  0  0  0  0  0  0
  -26.4550  -31.7760   25.1340 C   0  0  1  0  0  0  0  0  0  0  0  0
  -25.3600  -31.5440   26.2060 C   0  0  0  0  0  1  0  0  0  0  0  0
  -27.0260  -30.3940   24.7430 C   0  0  0  0  0  1  0  0  0  0  0  0
  -27.6100  -32.5640   25.7940 C   0  0  0  0  0  1  0  0  0  0  0  0
  2  1  1  0
  3  6  1  0
  3  5  1  0
  3  2  1  0
  4  3  1  0
  7 16  1  0
  7  6  1  0
  7 49  1  0
  8 16  1  0
  9 14  1  0
 10 11  1  0
 10  9  1  0
 12 11  1  0
 12 21  1  0
 12 13  1  0
 14  8  1  0
 14 13  1  0
 15  8  2  0
 16 17  1  0
 18 19  2  0
 19 38  1  0
 20 19  1  0
 20 23  1  0
 21 22  1  0
 21 18  1  0
 22 20  2  0
 23 24  1  0
 24 25  2  0
 26 29  1  0
 26 25  1  0
 27 26  2  0
 28 27  1  0
 28 23  2  0
 29 30  1  0
 30 31  1  0
 31 32  2  0
 33 32  1  0
 33 37  1  0
 34 33  2  0
 35 30  2  0
 35 34  1  0
 36 35  1  0
 38 39  1  0
 39 42  1  0
 39 41  1  0
 40 38  2  0
 43 18  1  0
 43 44  1  0
 45 43  1  0
 49 48  1  6
 49 46  1  0
 49 47  1  0
 50  2  1  0
 50 54  1  0
 50 51  1  0
 51 52  1  0
 53 51  1  0
 55 54  1  0
 56 67  2  0
 57 55  1  0
 57 62  1  0
 58 66  1  0
 58 68  1  0
 59 65  1  0
 59 61  1  0
 60 66  1  0
 61 60  1  0
 62 61  2  0
 63 64  1  0
 63 57  2  0
 64 59  2  0
 65 58  1  0
 66 56  1  0
 68 70  2  0
 69 68  1  0
 71 69  1  0
 72 81  2  0
 72 77  1  0
 73 69  1  0
 73 77  1  0
 74 73  1  0
 75 76  1  0
 75 74  1  0
 76 72  1  0
 77 78  2  0
 78 79  1  0
 80 79  2  0
 81 80  1  0
 82 56  1  0
 82 83  1  0
 82 92  1  0
 83 86  1  0
 84 88  1  0
 84 83  1  0
 85 84  2  0
 88 87  1  0
 90 88  1  0
 90 91  1  0
 90 89  1  0
 92 95  1  1
 92 93  1  0
 94 92  1  0
M  ISO  4   8 100  16 100  54 101  55 101
M  END
>  <TORSDO>  (77) 
F 23

>  <SCORE>  (77) 
-12.840

>  <name>  (77) 
76

>  <ligand_id>  (77) 
76

>  <original_smiles>  (77) 
[H]c1c([H])c([H])c2c(c1[H])C([H])([H])C([H])([H])C([H])([H])C2([H])N([H])C(=O)C1([H])N(C(=O)C([H])(N([H])C(=O)C([H])(N([H])C([H])([H])[H])C([H])([H])[H])C(C([H])([H])[H])(C([H])([H])[H])C([H])([H])[H])C([H])([H])c2c([H])c(OC([H])([H])C([H])(N([H])[H])C([H])(C([H])([H])[H])[N+]([H])([H])C([H])([H])C([H])(N([H])C(=O)N3C([H])([H])C([H])([H])C([H])([H])C([H])(n4nc(-c5c([H])c([H])c(Oc6c([H])c([H])c(F)c([H])c6F)c([H])c5[H])c(C(=O)N([H])[H])c4N([H])[H])C3([H])[H])C(C([H])([H])[H])(C([H])([H])[H])C([H])([H])[H])c([H])c([H])c2C1([H])[H]

>  <smiles>  (77) 
[H]c1c([H])c([H])c2c(c1[H])C([H])([H])C([H])([H])C([H])([H])C2([H])N([H])C(=O)C1([H])N(C(=O)C([H])(N([H])C(=O)C([H])(N([H])C([H])([H])[H])C([H])([H])[H])C(C([H])([H])[H])(C([H])([H])[H])C([H])([H])[H])C([H])([H])c2c([H])c(OC([H])([H])C([H])(N([H])[H])C([H])(C([H])([H])[H])[N+]([H])([H])C([H])([H])C([H])(N([H])C(=O)N3C([H])([H])C([H])([H])C([H])([H])C([H])(n4nc(-c5c([H])c([H])c(Oc6c([H])c([H])c(F)c([H])c6F)c([H])c5[H])c(C(=O)N([H])[H])c4N([H])[H])C3([H])[H])C(C([H])([H])[H])(C([H])([H])[H])C([H])([H])[H])c([H])c([H])c2C1([H])[H]

$$$$
77:0:0
     RDKit          3D

 99106  0  0  1  0  0  0  0  0999 V2000
  -26.8470  -20.3730   18.6870 C   0  0  0  0  0  1  0  0  0  0  0  0
  -28.3030  -20.7010   19.1360 C   0  0  1  0  0  0  0  0  0  0  0  0
  -28.6000  -21.0280   16.5180 C   0  0  0  0  0  1  0  0  0  0  0  0
  -29.2930  -20.7880   17.8920 C   0  0  0  0  0  3  0  0  0  0  0  0
  -31.6470  -21.4270   17.0550 C   0  0  0  0  0  1  0  0  0  0  0  0
  -30.5620  -21.6510   18.1190 C   0  0  0  0  0  2  0  0  0  0  0  0
  -28.1830  -22.0900   19.8950 C   0  0  0  0  0  2  0  0  0  0  0  0
  -27.9450  -24.5640   19.5840 C   0  0  0  0  0  0  0  0  0  0  0  0
  -27.8760  -23.3010   19.0910 N   0  0  0  0  0  0  0  0  0  0  0  0
  -27.9500  -24.7780   20.7990 O   0  0  0  0  0  0  0  0  0  0  0  0
  -27.8070  -23.1920   18.0870 H   0  0  0  0  0  0  0  0  0  0  0  0
  -28.1310  -25.7470   18.5940 C   0  0  0  0  0  2  0  0  0  0  0  0
  -28.1280  -27.0520   19.2340 O   0  0  0  0  0  0  0  0  0  0  0  0
  -24.5600  -31.8090   23.1970 C   0  0  0  0  0  0  0  0  0  0  0  0
  -26.9550  -27.7700   19.3990 C   0  0  0  0  0  0  0  0  0  0  0  0
  -23.2350  -30.6260   21.4790 C   0  0  0  0  0  3  0  0  0  0  0  0
  -24.5780  -29.2770   19.7800 C   0  0  0  0  0  0  0  0  0  0  0  0
  -25.7450  -31.0010   21.1560 C   0  0  0  0  0  2  0  0  0  0  0  0
  -25.7800  -29.7170   20.3470 C   0  0  0  0  0  0  0  0  0  0  0  0
  -26.9680  -28.9680   20.1630 C   0  0  0  0  0  3  0  0  0  0  0  0
  -25.7240  -27.3500   18.8420 C   0  0  0  0  0  3  0  0  0  0  0  0
  -24.5470  -28.0940   19.0270 C   0  0  0  0  0  3  0  0  0  0  0  0
  -23.3500  -30.1260   20.0170 C   0  0  0  0  0  2  0  0  0  0  0  0
  -24.5350  -31.1550   22.0030 N   0  0  0  0  0  0  0  0  0  0  0  0
  -23.5180  -32.0110   23.8400 O   0  0  0  0  0  0  0  0  0  0  0  0
  -22.6410  -29.4940   22.3460 C   0  0  0  0  0  0  0  0  0  0  0  0
  -21.3270  -29.2600   22.2140 N   0  0  0  0  0  0  0  0  0  0  0  0
  -23.3630  -28.8300   23.0960 O   0  0  0  0  0  0  0  0  0  0  0  0
  -20.8010  -29.8450   21.5800 H   0  0  0  0  0  0  0  0  0  0  0  0
  -18.0370  -27.8030   22.5610 C   0  0  0  0  0  0  0  0  0  0  0  0
  -20.5660  -28.2190   22.9050 C   0  0  0  0  0  3  0  0  0  0  0  0
  -20.7790  -26.8430   22.2350 C   0  0  0  0  0  2  0  0  0  0  0  0
  -19.7190  -26.5150   21.1790 C   0  0  0  0  0  2  0  0  0  0  0  0
  -18.3190  -26.5190   21.7990 C   0  0  0  0  0  2  0  0  0  0  0  0
  -19.0920  -28.6080   23.0670 C   0  0  0  0  0  0  0  0  0  0  0  0
  -18.7780  -29.8070   23.7410 C   0  0  0  0  0  3  0  0  0  0  0  0
  -17.4400  -30.2110   23.9070 C   0  0  0  0  0  3  0  0  0  0  0  0
  -16.3980  -29.4050   23.4160 C   0  0  0  0  0  3  0  0  0  0  0  0
  -16.6960  -28.2010   22.7520 C   0  0  0  0  0  3  0  0  0  0  0  0
  -25.8870  -32.3620   23.8040 C   0  0  0  0  0  3  0  0  0  0  0  0
  -26.4500  -31.4740   24.9790 C   0  0  1  0  0  0  0  0  0  0  0  0
  -25.4080  -31.1680   26.0800 C   0  0  0  0  0  1  0  0  0  0  0  0
  -26.9770  -30.1220   24.4440 C   0  0  0  0  0  1  0  0  0  0  0  0
  -27.6540  -32.1840   25.6400 C   0  0  0  0  0  1  0  0  0  0  0  0
  -25.6250  -33.7330   24.2620 N   0  0  0  0  0  0  0  0  0  0  0  0
  -25.9800  -34.8390   23.5980 C   0  0  0  0  0  0  0  0  0  0  0  0
  -26.6300  -34.8110   22.5490 O   0  0  0  0  0  0  0  0  0  0  0  0
  -25.0340  -33.8270   25.0750 H   0  0  0  0  0  0  0  0  0  0  0  0
  -24.3170  -36.7180   23.4210 C   0  0  0  0  0  1  0  0  0  0  0  0
  -25.5400  -36.1930   24.1870 C   0  0  0  0  0  3  0  0  0  0  0  0
  -27.6970  -36.9250   25.1040 C   0  0  0  0  0  1  0  0  0  0  0  0
  -26.6090  -37.2150   24.1740 N   0  0  0  0  0  0  0  0  0  0  0  0
  -26.2340  -38.1330   24.4040 H   0  0  0  0  0  0  0  0  0  0  0  0
  -28.7470  -19.5640   20.1810 C   0  0  0  0  0  2  0  0  0  0  0  0
  -28.3480  -17.4090   18.7030 C   0  0  0  0  0  1  0  0  0  0  0  0
  -29.2590  -18.1200   19.7460 C   0  0  0  0  0  3  0  0  0  0  0  0
  -29.6140  -17.1660   20.9710 C   0  0  0  0  0  3  0  0  0  0  0  0
  -30.1850  -14.8020   20.0490 C   0  0  0  0  0  0  0  0  0  0  0  0
  -30.0250  -12.5880   18.9430 C   0  0  0  0  0  2  0  0  0  0  0  0
  -28.9690  -12.6790   17.8210 C   0  0  0  0  0  2  0  0  0  0  0  0
  -27.5480  -12.4220   18.3660 C   0  0  0  0  0  2  0  0  0  0  0  0
  -27.2400  -13.2330   19.6520 C   0  0  0  0  0  3  0  0  0  0  0  0
  -28.4020  -13.1270   20.6670 C   0  0  0  0  0  2  0  0  0  0  0  0
  -29.6390  -13.5540   19.9850 N   0  0  0  0  0  0  0  0  0  0  0  0
  -31.2260  -15.1070   19.4580 O   0  0  0  0  0  0  0  0  0  0  0  0
  -29.4400  -15.7140   20.7130 N   0  0  0  0  0  0  0  0  0  0  0  0
  -28.5870  -15.3280   21.0910 H   0  0  0  0  0  0  0  0  0  0  0  0
  -24.8920  -13.6230   20.6140 C   0  0  0  0  0  0  0  0  0  0  0  0
  -23.9270  -12.7570   21.0590 C   0  0  0  0  0  0  0  0  0  0  0  0
  -24.4800  -11.4480   20.9320 C   0  0  0  0  0  0  0  0  0  0  0  0
  -25.9660  -12.8310   20.2450 N   0  0  0  0  0  0  0  0  0  0  0  0
  -25.7290  -11.5160   20.4900 N   0  0  0  0  0  0  0  0  0  0  0  0
  -23.8700  -10.1300   21.1490 C   0  0  0  0  0  0  0  0  0  0  0  0
  -24.3580   -9.2440   22.1350 C   0  0  0  0  0  3  0  0  0  0  0  0
  -23.7480   -7.9870   22.3360 C   0  0  0  0  0  3  0  0  0  0  0  0
  -22.6340   -7.6050   21.5500 C   0  0  0  0  0  0  0  0  0  0  0  0
  -22.1670   -8.4830   20.5560 C   0  0  0  0  0  3  0  0  0  0  0  0
  -22.7770   -9.7320   20.3540 C   0  0  0  0  0  3  0  0  0  0  0  0
  -21.9960   -6.3910   21.6550 O   0  0  0  0  0  0  0  0  0  0  0  0
  -21.8500   -5.7560   22.8620 C   0  0  0  0  0  0  0  0  0  0  0  0
  -21.1190   -6.3340   23.9230 C   0  0  0  0  0  3  0  0  0  0  0  0
  -20.9310   -5.6160   25.1200 C   0  0  0  0  0  3  0  0  0  0  0  0
  -21.4660   -4.3210   25.2580 C   0  0  0  0  0  0  0  0  0  0  0  0
  -22.1990   -3.7440   24.2050 C   0  0  0  0  0  3  0  0  0  0  0  0
  -22.3870   -4.4610   23.0090 C   0  0  0  0  0  0  0  0  0  0  0  0
  -23.0700   -3.8910   21.9870 F   0  0  0  0  0  0  0  0  0  0  0  0
  -21.2820   -3.6300   26.4050 F   0  0  0  0  0  0  0  0  0  0  0  0
  -22.5380  -13.1210   21.4900 C   0  0  0  0  0  0  0  0  0  0  0  0
  -21.9650  -12.3300   22.3930 N   0  0  0  0  0  0  0  0  0  0  0  0
  -21.9760  -14.1330   21.0720 O   0  0  0  0  0  0  0  0  0  0  0  0
  -22.4390  -11.5080   22.7310 H   0  0  0  0  0  0  0  0  0  0  0  0
  -21.0460  -12.5410   22.7460 H   0  0  0  0  0  0  0  0  0  0  0  0
  -24.9350  -15.0030   20.4790 N   0  0  0  0  0  0  0  0  0  0  0  0
  -24.1220  -15.5770   20.6690 H   0  0  0  0  0  0  0  0  0  0  0  0
  -25.6950  -15.5130   20.0450 H   0  0  0  0  0  0  0  0  0  0  0  0
  -30.9850  -17.4250   21.6780 C   0  0  0  0  0  2  0  0  0  0  0  0
  -32.5230  -19.4750   21.4380 C   0  0  0  0  0  1  0  0  0  0  0  0
  -31.4350  -18.9630   23.6820 C   0  0  0  0  0  1  0  0  0  0  0  0
  -31.2840  -18.8770   22.1400 C   0  0  0  0  0  3  0  0  0  0  0  0
  2  1  1  6
  2  7  1  0
  2 54  1  0
  4  3  1  0
  4  6  1  0
  4  2  1  0
  5  6  1  0
  8 10  2  0
  9  8  1  0
  9  7  1  0
 11  9  1  0
 12 13  1  0
 12  8  1  0
 13 15  1  0
 14 25  2  0
 15 20  1  0
 16 24  1  0
 16 26  1  0
 17 23  1  0
 17 19  1  0
 18 24  1  0
 19 18  1  0
 20 19  2  0
 21 22  1  0
 21 15  2  0
 22 17  2  0
 23 16  1  0
 24 14  1  0
 26 28  2  0
 27 26  1  0
 29 27  1  0
 30 39  2  0
 30 35  1  0
 31 27  1  0
 31 35  1  0
 32 31  1  0
 33 34  1  0
 33 32  1  0
 34 30  1  0
 35 36  2  0
 36 37  1  0
 38 37  2  0
 39 38  1  0
 40 14  1  0
 40 45  1  0
 40 41  1  0
 41 44  1  1
 41 42  1  0
 43 41  1  0
 45 48  1  0
 46 50  1  0
 46 45  1  0
 47 46  2  0
 50 49  1  0
 52 50  1  0
 52 53  1  0
 52 51  1  0
 56 55  1  0
 56 54  1  0
 56 57  1  0
 57 96  1  0
 58 66  1  0
 59 64  1  0
 60 61  1  0
 60 59  1  0
 62 61  1  0
 62 71  1  0
 62 63  1  0
 64 58  1  0
 64 63  1  0
 65 58  2  0
 66 57  1  0
 66 67  1  0
 68 69  2  0
 69 88  1  0
 70 69  1  0
 70 73  1  0
 71 72  1  0
 71 68  1  0
 72 70  2  0
 73 74  1  0
 74 75  2  0
 76 79  1  0
 76 75  1  0
 77 76  2  0
 78 77  1  0
 78 73  2  0
 79 80  1  0
 80 85  2  0
 80 81  1  0
 81 82  2  0
 82 83  1  0
 83 87  1  0
 84 83  2  0
 85 84  1  0
 86 85  1  0
 88 89  1  0
 89 91  1  0
 89 92  1  0
 90 88  2  0
 93 68  1  0
 93 94  1  0
 95 93  1  0
 96 99  1  0
 97 99  1  0
 99 98  1  0
M  ISO  4  12 101  13 101  58 100  66 100
M  END
>  <TORSDO>  (78) 
F 26

>  <SCORE>  (78) 
-10.799

>  <name>  (78) 
77

>  <ligand_id>  (78) 
77

>  <original_smiles>  (78) 
[H]c1c([H])c([H])c2c(c1[H])C([H])([H])C([H])([H])C([H])([H])C2([H])N([H])C(=O)C1([H])N(C(=O)C([H])(N([H])C(=O)C([H])(N([H])C([H])([H])[H])C([H])([H])[H])C(C([H])([H])[H])(C([H])([H])[H])C([H])([H])[H])C([H])([H])c2c([H])c(OC([H])([H])C(=O)N([H])C([H])([H])C(C([H])([H])[H])(C([H])([H])C([H])(C([H])([H])[H])C([H])(N([H])C(=O)N3C([H])([H])C([H])([H])C([H])([H])C([H])(n4nc(-c5c([H])c([H])c(Oc6c([H])c([H])c(F)c([H])c6F)c([H])c5[H])c(C(=O)N([H])[H])c4N([H])[H])C3([H])[H])C([H])([H])C([H])(C([H])([H])[H])C([H])([H])[H])C([H])(C([H])([H])[H])C([H])([H])C([H])([H])[H])c([H])c([H])c2C1([H])[H]

>  <smiles>  (78) 
[H]c1c([H])c([H])c2c(c1[H])C([H])([H])C([H])([H])C([H])([H])C2([H])N([H])C(=O)C1([H])N(C(=O)C([H])(N([H])C(=O)C([H])(N([H])C([H])([H])[H])C([H])([H])[H])C(C([H])([H])[H])(C([H])([H])[H])C([H])([H])[H])C([H])([H])c2c([H])c(OC([H])([H])C(=O)N([H])C([H])([H])C(C([H])([H])[H])(C([H])([H])C([H])(C([H])([H])[H])C([H])(N([H])C(=O)N3C([H])([H])C([H])([H])C([H])([H])C([H])(n4nc(-c5c([H])c([H])c(Oc6c([H])c([H])c(F)c([H])c6F)c([H])c5[H])c(C(=O)N([H])[H])c4N([H])[H])C3([H])[H])C([H])([H])C([H])(C([H])([H])[H])C([H])([H])[H])C([H])(C([H])([H])[H])C([H])([H])C([H])([H])[H])c([H])c([H])c2C1([H])[H]

$$$$
78:0:0
     RDKit          3D

 99106  0  0  1  0  0  0  0  0999 V2000
  -27.6940  -22.6660   20.3710 C   0  0  0  0  0  3  0  0  0  0  0  0
  -26.3610  -22.2160   19.9150 N   0  0  0  0  0  4  0  0  0  0  0  0
  -26.4300  -21.3040   19.5010 H   0  0  0  0  0  0  0  0  0  0  0  0
  -25.9980  -22.8350   19.2120 H   0  0  0  0  0  0  0  0  0  0  0  0
  -25.7020  -22.1700   20.6730 H   0  0  0  0  0  0  0  0  0  0  0  0
  -26.6640  -24.3790   22.0330 C   0  0  0  0  0  1  0  0  0  0  0  0
  -27.6080  -24.1700   20.8270 C   0  0  0  0  0  3  0  0  0  0  0  0
  -28.9890  -24.8460   21.0590 C   0  0  0  0  0  2  0  0  0  0  0  0
  -28.9930  -26.3980   21.1800 C   0  0  0  0  0  2  0  0  0  0  0  0
  -28.6190  -27.0630   19.9680 O   0  0  0  0  0  0  0  0  0  0  0  0
  -24.7020  -31.9530   23.3960 C   0  0  0  0  0  0  0  0  0  0  0  0
  -27.4630  -27.8040   20.0400 C   0  0  0  0  0  0  0  0  0  0  0  0
  -23.5340  -30.6350   21.6560 C   0  0  0  0  0  3  0  0  0  0  0  0
  -25.0350  -29.2400   20.1330 C   0  0  0  0  0  0  0  0  0  0  0  0
  -26.0490  -31.0780   21.4910 C   0  0  0  0  0  2  0  0  0  0  0  0
  -26.1750  -29.7520   20.7700 C   0  0  0  0  0  0  0  0  0  0  0  0
  -27.3930  -29.0370   20.7310 C   0  0  0  0  0  3  0  0  0  0  0  0
  -26.3190  -27.3180   19.3790 C   0  0  0  0  0  3  0  0  0  0  0  0
  -25.1010  -28.0220   19.4360 C   0  0  0  0  0  3  0  0  0  0  0  0
  -23.7650  -30.0580   20.2330 C   0  0  0  0  0  2  0  0  0  0  0  0
  -24.7800  -31.2340   22.2410 N   0  0  0  0  0  0  0  0  0  0  0  0
  -23.6130  -32.1590   23.9490 O   0  0  0  0  0  0  0  0  0  0  0  0
  -22.9120  -29.5310   22.5410 C   0  0  0  0  0  0  0  0  0  0  0  0
  -21.5930  -29.3220   22.3980 N   0  0  0  0  0  0  0  0  0  0  0  0
  -23.6120  -28.8680   23.3110 O   0  0  0  0  0  0  0  0  0  0  0  0
  -21.0870  -29.9130   21.7540 H   0  0  0  0  0  0  0  0  0  0  0  0
  -18.2530  -28.0050   22.7940 C   0  0  0  0  0  0  0  0  0  0  0  0
  -20.8010  -28.3110   23.0990 C   0  0  0  0  0  3  0  0  0  0  0  0
  -20.9450  -26.9270   22.4260 C   0  0  0  0  0  2  0  0  0  0  0  0
  -19.8560  -26.6450   21.3860 C   0  0  0  0  0  2  0  0  0  0  0  0
  -18.4680  -26.7090   22.0300 C   0  0  0  0  0  2  0  0  0  0  0  0
  -19.3490  -28.7640   23.2820 C   0  0  0  0  0  0  0  0  0  0  0  0
  -19.0930  -29.9800   23.9530 C   0  0  0  0  0  3  0  0  0  0  0  0
  -17.7740  -30.4340   24.1440 C   0  0  0  0  0  3  0  0  0  0  0  0
  -16.6920  -29.6680   23.6750 C   0  0  0  0  0  3  0  0  0  0  0  0
  -16.9330  -28.4560   23.0050 C   0  0  0  0  0  3  0  0  0  0  0  0
  -25.9700  -32.5720   24.0650 C   0  0  0  0  0  3  0  0  0  0  0  0
  -26.4460  -31.7850   25.3480 C   0  0  1  0  0  0  0  0  0  0  0  0
  -25.3170  -31.5370   26.3770 C   0  0  0  0  0  1  0  0  0  0  0  0
  -27.0400  -30.4140   24.9530 C   0  0  0  0  0  1  0  0  0  0  0  0
  -27.5750  -32.5720   26.0570 C   0  0  0  0  0  1  0  0  0  0  0  0
  -25.6570  -33.9680   24.3970 N   0  0  0  0  0  0  0  0  0  0  0  0
  -26.0190  -35.0230   23.6560 C   0  0  0  0  0  0  0  0  0  0  0  0
  -26.7210  -34.9240   22.6460 O   0  0  0  0  0  0  0  0  0  0  0  0
  -25.0440  -34.1210   25.1840 H   0  0  0  0  0  0  0  0  0  0  0  0
  -24.3050  -36.8210   23.2630 C   0  0  0  0  0  1  0  0  0  0  0  0
  -25.5210  -36.4090   24.1080 C   0  0  0  0  0  3  0  0  0  0  0  0
  -27.6270  -37.2840   25.0160 C   0  0  0  0  0  1  0  0  0  0  0  0
  -26.5580  -37.4610   24.0360 N   0  0  0  0  0  0  0  0  0  0  0  0
  -26.1480  -38.3800   24.1780 H   0  0  0  0  0  0  0  0  0  0  0  0
  -28.2770  -21.6720   21.4230 C   0  0  0  0  0  2  0  0  0  0  0  0
  -28.3110  -20.1610   21.0010 C   0  0  0  0  0  2  0  0  0  0  0  0
  -29.6820  -19.4740   20.8530 C   0  0  0  0  0  0  0  0  0  0  0  0
  -29.6610  -18.1930   20.4330 N   0  0  0  0  0  0  0  0  0  0  0  0
  -30.7270  -20.0810   21.0880 O   0  0  0  0  0  0  0  0  0  0  0  0
  -28.7420  -17.8190   20.2370 H   0  0  0  0  0  0  0  0  0  0  0  0
  -30.8200  -17.3250   20.1350 C   0  0  0  0  0  3  0  0  0  0  0  0
  -31.3110  -14.8200   20.3740 C   0  0  0  0  0  0  0  0  0  0  0  0
  -31.0050  -12.6380   19.2860 C   0  0  0  0  0  2  0  0  0  0  0  0
  -30.0850  -12.8570   18.0650 C   0  0  0  0  0  2  0  0  0  0  0  0
  -28.5990  -12.7820   18.4720 C   0  0  0  0  0  2  0  0  0  0  0  0
  -28.2680  -13.6230   19.7360 C   0  0  0  0  0  3  0  0  0  0  0  0
  -29.3070  -13.3890   20.8580 C   0  0  0  0  0  2  0  0  0  0  0  0
  -30.6400  -13.6430   20.2940 N   0  0  0  0  0  0  0  0  0  0  0  0
  -32.5160  -14.9270   20.1360 O   0  0  0  0  0  0  0  0  0  0  0  0
  -30.4980  -15.9020   20.4060 N   0  0  0  0  0  0  0  0  0  0  0  0
  -29.5240  -15.6750   20.5100 H   0  0  0  0  0  0  0  0  0  0  0  0
  -25.8850  -14.2990   20.4200 C   0  0  0  0  0  0  0  0  0  0  0  0
  -24.7890  -13.5570   20.7750 C   0  0  0  0  0  0  0  0  0  0  0  0
  -25.2100  -12.1940   20.7420 C   0  0  0  0  0  0  0  0  0  0  0  0
  -26.9040  -13.3870   20.1990 N   0  0  0  0  0  0  0  0  0  0  0  0
  -26.5040  -12.1160   20.4530 N   0  0  0  0  0  0  0  0  0  0  0  0
  -24.4440  -10.9540   20.9110 C   0  0  0  0  0  0  0  0  0  0  0  0
  -24.8160   -9.9830   21.8650 C   0  0  0  0  0  3  0  0  0  0  0  0
  -24.0520   -8.8070   22.0240 C   0  0  0  0  0  3  0  0  0  0  0  0
  -22.9030   -8.5940   21.2240 C   0  0  0  0  0  0  0  0  0  0  0  0
  -22.5520   -9.5530   20.2570 C   0  0  0  0  0  3  0  0  0  0  0  0
  -23.3170  -10.7210   20.0980 C   0  0  0  0  0  3  0  0  0  0  0  0
  -22.1190   -7.4660   21.2880 O   0  0  0  0  0  0  0  0  0  0  0  0
  -21.9430   -6.7760   22.4620 C   0  0  0  0  0  0  0  0  0  0  0  0
  -21.4090   -7.3920   23.6150 C   0  0  0  0  0  3  0  0  0  0  0  0
  -21.1790   -6.6310   24.7780 C   0  0  0  0  0  3  0  0  0  0  0  0
  -21.4770   -5.2550   24.7900 C   0  0  0  0  0  0  0  0  0  0  0  0
  -22.0070   -4.6380   23.6420 C   0  0  0  0  0  3  0  0  0  0  0  0
  -22.2370   -5.3980   22.4810 C   0  0  0  0  0  0  0  0  0  0  0  0
  -22.7240   -4.7940   21.3700 F   0  0  0  0  0  0  0  0  0  0  0  0
  -21.2510   -4.5220   25.9050 F   0  0  0  0  0  0  0  0  0  0  0  0
  -23.4020  -14.0760   21.0260 C   0  0  0  0  0  0  0  0  0  0  0  0
  -22.6500  -13.4130   21.8990 N   0  0  0  0  0  0  0  0  0  0  0  0
  -22.9930  -15.1020   20.4820 O   0  0  0  0  0  0  0  0  0  0  0  0
  -22.9920  -12.5780   22.3530 H   0  0  0  0  0  0  0  0  0  0  0  0
  -21.7200  -13.7450   22.1140 H   0  0  0  0  0  0  0  0  0  0  0  0
  -26.0910  -15.6620   20.2440 N   0  0  0  0  0  0  0  0  0  0  0  0
  -25.3250  -16.3210   20.3270 H   0  0  0  0  0  0  0  0  0  0  0  0
  -26.9140  -16.0630   19.8180 H   0  0  0  0  0  0  0  0  0  0  0  0
  -31.5870  -16.3810   17.7900 C   0  0  0  0  0  1  0  0  0  0  0  0
  -30.6190  -18.6340   17.8360 C   0  0  0  0  0  1  0  0  0  0  0  0
  -32.8270  -18.2370   18.8890 C   0  0  0  0  0  1  0  0  0  0  0  0
  -31.4300  -17.6240   18.6910 C   0  0  1  0  0  0  0  0  0  0  0  0
  1  7  1  0
  1 51  1  0
  2  1  1  0
  2  5  1  0
  3  2  1  0
  4  2  1  0
  7  8  1  0
  7  6  1  0
  8  9  1  0
 10 12  1  0
 10  9  1  0
 11 22  2  0
 12 17  1  0
 13 21  1  0
 13 23  1  0
 14 20  1  0
 14 16  1  0
 15 21  1  0
 16 15  1  0
 17 16  2  0
 18 19  1  0
 18 12  2  0
 19 14  2  0
 20 13  1  0
 21 11  1  0
 23 25  2  0
 24 23  1  0
 26 24  1  0
 27 36  2  0
 27 32  1  0
 28 24  1  0
 28 32  1  0
 29 28  1  0
 30 31  1  0
 30 29  1  0
 31 27  1  0
 32 33  2  0
 33 34  1  0
 35 34  2  0
 36 35  1  0
 37 11  1  0
 37 42  1  0
 37 38  1  0
 38 41  1  1
 38 39  1  0
 40 38  1  0
 42 45  1  0
 43 47  1  0
 43 42  1  0
 44 43  2  0
 47 46  1  0
 49 47  1  0
 49 50  1  0
 49 48  1  0
 52 51  1  0
 53 52  1  0
 53 55  2  0
 54 53  1  0
 56 54  1  0
 57 99  1  0
 57 66  1  0
 57 54  1  0
 58 66  1  0
 59 64  1  0
 60 61  1  0
 60 59  1  0
 62 61  1  0
 62 71  1  0
 62 63  1  0
 64 58  1  0
 64 63  1  0
 65 58  2  0
 66 67  1  0
 68 69  2  0
 69 88  1  0
 70 69  1  0
 70 73  1  0
 71 68  1  0
 71 72  1  0
 72 70  2  0
 73 74  1  0
 74 75  2  0
 76 79  1  0
 76 75  1  0
 77 76  2  0
 78 77  1  0
 78 73  2  0
 79 80  1  0
 80 85  2  0
 80 81  1  0
 81 82  2  0
 82 83  1  0
 83 87  1  0
 84 83  2  0
 85 84  1  0
 86 85  1  0
 88 89  1  0
 89 92  1  0
 89 91  1  0
 90 88  2  0
 93 94  1  0
 93 68  1  0
 95 93  1  0
 99 96  1  6
 97 99  1  0
 99 98  1  0
M  ISO  4   9 101  10 101  58 100  66 100
M  END
>  <TORSDO>  (79) 
F 25

>  <SCORE>  (79) 
-11.602

>  <name>  (79) 
78

>  <ligand_id>  (79) 
78

>  <original_smiles>  (79) 
[H]c1c([H])c([H])c2c(c1[H])C([H])([H])C([H])([H])C([H])([H])C2([H])N([H])C(=O)C1([H])N(C(=O)C([H])(N([H])C(=O)C([H])(N([H])C([H])([H])[H])C([H])([H])[H])C(C([H])([H])[H])(C([H])([H])[H])C([H])([H])[H])C([H])([H])c2c([H])c(OC([H])([H])C([H])([H])C([H])(C([H])([H])[H])C([H])(C([H])([H])C([H])([H])C(=O)N([H])C([H])(N([H])C(=O)N3C([H])([H])C([H])([H])C([H])([H])C([H])(n4nc(-c5c([H])c([H])c(Oc6c([H])c([H])c(F)c([H])c6F)c([H])c5[H])c(C(=O)N([H])[H])c4N([H])[H])C3([H])[H])C(C([H])([H])[H])(C([H])([H])[H])C([H])([H])[H])[N+]([H])([H])[H])c([H])c([H])c2C1([H])[H]

>  <smiles>  (79) 
[H]c1c([H])c([H])c2c(c1[H])C([H])([H])C([H])([H])C([H])([H])C2([H])N([H])C(=O)C1([H])N(C(=O)C([H])(N([H])C(=O)C([H])(N([H])C([H])([H])[H])C([H])([H])[H])C(C([H])([H])[H])(C([H])([H])[H])C([H])([H])[H])C([H])([H])c2c([H])c(OC([H])([H])C([H])([H])C([H])(C([H])([H])[H])C([H])(C([H])([H])C([H])([H])C(=O)N([H])C([H])(N([H])C(=O)N3C([H])([H])C([H])([H])C([H])([H])C([H])(n4nc(-c5c([H])c([H])c(Oc6c([H])c([H])c(F)c([H])c6F)c([H])c5[H])c(C(=O)N([H])[H])c4N([H])[H])C3([H])[H])C(C([H])([H])[H])(C([H])([H])[H])C([H])([H])[H])[N+]([H])([H])[H])c([H])c([H])c2C1([H])[H]

$$$$
79:0:0
     RDKit          3D

107115  0  0  1  0  0  0  0  0999 V2000
  -28.6990  -21.2220   19.2410 C   0  0  0  0  0  3  0  0  0  0  0  0
  -27.4760  -21.3640   18.2890 C   0  0  0  0  0  2  0  0  0  0  0  0
  -23.7450  -23.5630   19.1930 C   0  0  0  0  0  2  0  0  0  0  0  0
  -24.3720  -23.7110   17.7980 C   0  0  0  0  0  2  0  0  0  0  0  0
  -24.8360  -23.5090   20.2710 C   0  0  0  0  0  2  0  0  0  0  0  0
  -25.3730  -22.5750   17.5250 C   0  0  0  0  0  2  0  0  0  0  0  0
  -25.8280  -22.3670   19.9980 C   0  0  0  0  0  2  0  0  0  0  0  0
  -26.4750  -22.5010   18.6020 C   0  0  0  0  0  3  0  0  0  0  0  0
  -29.2100  -22.5740   19.8360 C   0  0  0  0  0  2  0  0  0  0  0  0
  -29.7570  -23.6340   18.8420 C   0  0  0  0  0  2  0  0  0  0  0  0
  -30.5300  -25.2970   20.6170 C   0  0  0  0  0  1  0  0  0  0  0  0
  -29.7110  -25.1010   19.3290 C   0  0  0  0  0  3  0  0  0  0  0  0
  -28.2720  -25.6470   19.4480 C   0  0  0  0  0  2  0  0  0  0  0  0
  -28.2920  -27.0460   19.7400 O   0  0  0  0  0  0  0  0  0  0  0  0
  -24.5420  -31.9630   23.2490 C   0  0  0  0  0  0  0  0  0  0  0  0
  -27.0860  -27.7080   19.8400 C   0  0  0  0  0  0  0  0  0  0  0  0
  -23.2720  -30.6220   21.6040 C   0  0  0  0  0  3  0  0  0  0  0  0
  -24.6720  -29.1710   20.0470 C   0  0  0  0  0  0  0  0  0  0  0  0
  -25.7820  -31.0270   21.2980 C   0  0  0  0  0  2  0  0  0  0  0  0
  -25.8500  -29.6880   20.5960 C   0  0  0  0  0  0  0  0  0  0  0  0
  -27.0580  -28.9630   20.4880 C   0  0  0  0  0  3  0  0  0  0  0  0
  -25.8750  -27.1940   19.3080 C   0  0  0  0  0  3  0  0  0  0  0  0
  -24.6780  -27.9220   19.4060 C   0  0  0  0  0  3  0  0  0  0  0  0
  -23.4200  -30.0040   20.1890 C   0  0  0  0  0  2  0  0  0  0  0  0
  -24.5540  -31.2150   22.1100 N   0  0  0  0  0  0  0  0  0  0  0  0
  -23.4860  -32.1960   23.8520 O   0  0  0  0  0  0  0  0  0  0  0  0
  -22.6800  -29.5490   22.5450 C   0  0  0  0  0  0  0  0  0  0  0  0
  -21.3730  -29.2800   22.3980 N   0  0  0  0  0  0  0  0  0  0  0  0
  -23.3950  -28.9610   23.3610 O   0  0  0  0  0  0  0  0  0  0  0  0
  -20.8510  -29.8090   21.7120 H   0  0  0  0  0  0  0  0  0  0  0  0
  -18.1060  -27.7840   22.7530 C   0  0  0  0  0  0  0  0  0  0  0  0
  -20.6110  -28.2820   23.1480 C   0  0  0  0  0  3  0  0  0  0  0  0
  -20.8780  -26.8590   22.6070 C   0  0  0  0  0  2  0  0  0  0  0  0
  -19.8640  -26.4180   21.5480 C   0  0  0  0  0  2  0  0  0  0  0  0
  -18.4430  -26.4460   22.1170 C   0  0  0  0  0  2  0  0  0  0  0  0
  -19.1250  -28.6530   23.2240 C   0  0  0  0  0  0  0  0  0  0  0  0
  -18.7620  -29.9010   23.7750 C   0  0  0  0  0  3  0  0  0  0  0  0
  -17.4110  -30.2840   23.8630 C   0  0  0  0  0  3  0  0  0  0  0  0
  -16.4040  -29.4130   23.4130 C   0  0  0  0  0  3  0  0  0  0  0  0
  -16.7510  -28.1650   22.8640 C   0  0  0  0  0  3  0  0  0  0  0  0
  -25.8500  -32.5830   23.8320 C   0  0  0  0  0  3  0  0  0  0  0  0
  -25.5630  -33.9820   24.1730 N   0  0  0  0  0  0  0  0  0  0  0  0
  -25.8990  -35.0320   23.4130 C   0  0  0  0  0  0  0  0  0  0  0  0
  -26.5570  -34.9250   22.3750 O   0  0  0  0  0  0  0  0  0  0  0  0
  -24.9770  -34.1410   24.9800 H   0  0  0  0  0  0  0  0  0  0  0  0
  -24.1900  -36.8430   23.0860 C   0  0  0  0  0  1  0  0  0  0  0  0
  -25.4330  -36.4220   23.8840 C   0  0  0  0  0  3  0  0  0  0  0  0
  -27.5830  -37.2740   24.7060 C   0  0  0  0  0  1  0  0  0  0  0  0
  -26.4760  -37.4640   23.7710 N   0  0  0  0  0  0  0  0  0  0  0  0
  -26.0800  -38.3850   23.9350 H   0  0  0  0  0  0  0  0  0  0  0  0
  -26.3990  -31.8040   25.0910 C   0  0  1  0  0  0  0  0  0  0  0  0
  -25.3310  -31.5640   26.1830 C   0  0  0  0  0  1  0  0  0  0  0  0
  -26.9710  -30.4280   24.6760 C   0  0  0  0  0  1  0  0  0  0  0  0
  -27.5660  -32.5940   25.7300 C   0  0  0  0  0  1  0  0  0  0  0  0
  -29.7900  -20.3290   18.5860 C   0  0  0  0  0  3  0  0  0  0  0  0
  -30.1470  -20.8790   17.3340 O   0  0  0  0  0  0  0  0  0  0  0  0
  -30.4040  -21.7810   17.4930 H   0  0  0  0  0  0  0  0  0  0  0  0
  -31.0960  -20.0960   19.4020 C   0  0  0  0  0  2  0  0  0  0  0  0
  -31.2410  -18.7760   20.2310 C   0  0  0  0  0  3  0  0  0  0  0  0
  -32.3640  -18.9500   21.2870 C   0  0  0  0  0  2  0  0  0  0  0  0
  -33.5210  -20.6010   22.8020 C   0  0  0  0  0  1  0  0  0  0  0  0
  -31.2550  -19.7070   23.4610 C   0  0  0  0  0  1  0  0  0  0  0  0
  -32.1620  -20.1070   22.2840 C   0  0  0  0  0  3  0  0  0  0  0  0
  -31.4040  -17.4680   19.3900 C   0  0  0  0  0  3  0  0  0  0  0  0
  -31.7110  -15.1640   20.4720 C   0  0  0  0  0  0  0  0  0  0  0  0
  -31.4320  -12.8190   19.8560 C   0  0  0  0  0  2  0  0  0  0  0  0
  -30.6510  -12.7750   18.5290 C   0  0  0  0  0  2  0  0  0  0  0  0
  -29.1280  -12.8210   18.7680 C   0  0  0  0  0  2  0  0  0  0  0  0
  -28.6880  -13.8900   19.8020 C   0  0  0  0  0  3  0  0  0  0  0  0
  -29.6060  -13.9050   21.0440 C   0  0  0  0  0  2  0  0  0  0  0  0
  -30.9940  -14.0180   20.5770 N   0  0  0  0  0  0  0  0  0  0  0  0
  -32.9370  -15.1750   20.3990 O   0  0  0  0  0  0  0  0  0  0  0  0
  -30.9820  -16.2410   20.1190 N   0  0  0  0  0  0  0  0  0  0  0  0
  -29.9850  -16.1220   20.2130 H   0  0  0  0  0  0  0  0  0  0  0  0
  -26.2820  -14.6810   20.2530 C   0  0  0  0  0  0  0  0  0  0  0  0
  -25.1340  -13.9960   20.5500 C   0  0  0  0  0  0  0  0  0  0  0  0
  -25.5070  -12.6190   20.6260 C   0  0  0  0  0  0  0  0  0  0  0  0
  -27.2830  -13.7270   20.1690 N   0  0  0  0  0  0  0  0  0  0  0  0
  -26.8150  -12.4860   20.4560 N   0  0  0  0  0  0  0  0  0  0  0  0
  -24.6820  -11.4150   20.7930 C   0  0  0  0  0  0  0  0  0  0  0  0
  -25.0100  -10.4240   21.7470 C   0  0  0  0  0  3  0  0  0  0  0  0
  -24.1970   -9.2810   21.8980 C   0  0  0  0  0  3  0  0  0  0  0  0
  -23.0400   -9.1230   21.1020 C   0  0  0  0  0  0  0  0  0  0  0  0
  -22.7280  -10.0970   20.1380 C   0  0  0  0  0  3  0  0  0  0  0  0
  -23.5420  -11.2340   19.9820 C   0  0  0  0  0  3  0  0  0  0  0  0
  -22.2010   -8.0360   21.1660 O   0  0  0  0  0  0  0  0  0  0  0  0
  -22.0560   -7.3090   22.3190 C   0  0  0  0  0  0  0  0  0  0  0  0
  -21.6650   -7.9070   23.5370 C   0  0  0  0  0  3  0  0  0  0  0  0
  -21.4630   -7.1080   24.6800 C   0  0  0  0  0  3  0  0  0  0  0  0
  -21.6420   -5.7140   24.6060 C   0  0  0  0  0  0  0  0  0  0  0  0
  -22.0260   -5.1170   23.3900 C   0  0  0  0  0  3  0  0  0  0  0  0
  -22.2290   -5.9120   22.2520 C   0  0  0  0  0  0  0  0  0  0  0  0
  -22.5790   -5.3300   21.0800 F   0  0  0  0  0  0  0  0  0  0  0  0
  -21.4410   -4.9440   25.7000 F   0  0  0  0  0  0  0  0  0  0  0  0
  -23.7520  -14.5690   20.6640 C   0  0  0  0  0  0  0  0  0  0  0  0
  -22.9160  -13.9850   21.5140 N   0  0  0  0  0  0  0  0  0  0  0  0
  -23.4220  -15.5730   20.0330 O   0  0  0  0  0  0  0  0  0  0  0  0
  -23.1870  -13.1660   22.0370 H   0  0  0  0  0  0  0  0  0  0  0  0
  -21.9870  -14.3630   21.6490 H   0  0  0  0  0  0  0  0  0  0  0  0
  -26.5550  -16.0290   20.0300 N   0  0  0  0  0  0  0  0  0  0  0  0
  -25.8250  -16.7300   20.0280 H   0  0  0  0  0  0  0  0  0  0  0  0
  -27.4570  -16.3940   19.7560 H   0  0  0  0  0  0  0  0  0  0  0  0
  -32.7570  -17.3640   18.5950 C   0  0  0  0  0  2  0  0  0  0  0  0
  -31.4330  -16.0090   16.7970 C   0  0  0  0  0  1  0  0  0  0  0  0
  -33.2850  -17.5130   16.1160 C   0  0  0  0  0  1  0  0  0  0  0  0
  -33.8260  -15.4270   17.3550 C   0  0  0  0  0  1  0  0  0  0  0  0
  -32.8000  -16.5740   17.2440 C   0  0  1  0  0  0  0  0  0  0  0  0
  1  2  1  0
  1  9  1  0
  2  8  1  0
  3  5  1  0
  4  3  1  0
  6  4  1  0
  6  8  1  0
  7  5  1  0
  8  7  1  0
 10 12  1  0
 10  9  1  0
 12 13  1  0
 12 11  1  0
 13 14  1  0
 14 16  1  0
 15 26  2  0
 16 21  1  0
 17 25  1  0
 17 27  1  0
 18 24  1  0
 18 20  1  0
 19 25  1  0
 20 19  1  0
 21 20  2  0
 22 23  1  0
 22 16  2  0
 23 18  2  0
 24 17  1  0
 25 15  1  0
 27 29  2  0
 28 27  1  0
 30 28  1  0
 31 40  2  0
 31 36  1  0
 32 28  1  0
 32 36  1  0
 33 32  1  0
 34 35  1  0
 34 33  1  0
 35 31  1  0
 36 37  2  0
 37 38  1  0
 39 38  2  0
 40 39  1  0
 41 15  1  0
 41 42  1  0
 41 51  1  0
 42 45  1  0
 43 47  1  0
 43 42  1  0
 44 43  2  0
 47 46  1  0
 49 47  1  0
 49 50  1  0
 49 48  1  0
 51 54  1  1
 51 52  1  0
 53 51  1  0
 55  1  1  0
 55 58  1  0
 56 57  1  0
 56 55  1  0
 59 58  1  0
 59 60  1  0
 60 63  1  0
 63 61  1  0
 63 62  1  0
 64103  1  0
 64 73  1  0
 64 59  1  0
 65 71  1  0
 66 71  1  0
 67 68  1  0
 67 66  1  0
 69 68  1  0
 69 78  1  0
 69 70  1  0
 71 70  1  0
 72 65  2  0
 73 74  1  0
 73 65  1  0
 75 76  2  0
 76 77  1  0
 76 95  1  0
 77 80  1  0
 78 75  1  0
 78 79  1  0
 79 77  2  0
 80 81  1  0
 81 82  2  0
 83 86  1  0
 83 82  1  0
 84 83  2  0
 85 84  1  0
 85 80  2  0
 86 87  1  0
 87 88  1  0
 88 89  2  0
 90 89  1  0
 90 94  1  0
 91 90  2  0
 92 87  2  0
 92 91  1  0
 93 92  1  0
 95 96  1  0
 96 99  1  0
 96 98  1  0
 97 95  2  0
100 75  1  0
101100  1  0
102100  1  0
107104  1  6
105107  1  0
107106  1  0
107103  1  0
M  ISO  4  13 101  14 101  65 100  73 100
M  END
>  <TORSDO>  (80) 
F 31

>  <SCORE>  (80) 
-9.486

>  <name>  (80) 
79

>  <ligand_id>  (80) 
79

>  <original_smiles>  (80) 
[H]OC([H])(C([H])([H])C([H])(C([H])([H])C([H])(C([H])([H])[H])C([H])([H])[H])C([H])(N([H])C(=O)N1C([H])([H])C([H])([H])C([H])([H])C([H])(n2nc(-c3c([H])c([H])c(Oc4c([H])c([H])c(F)c([H])c4F)c([H])c3[H])c(C(=O)N([H])[H])c2N([H])[H])C1([H])[H])C([H])([H])C(C([H])([H])[H])(C([H])([H])[H])C([H])([H])[H])C([H])(C([H])([H])C([H])([H])C([H])(C([H])([H])[H])C([H])([H])Oc1c([H])c([H])c2c(c1[H])C([H])([H])N(C(=O)C([H])(N([H])C(=O)C([H])(N([H])C([H])([H])[H])C([H])([H])[H])C(C([H])([H])[H])(C([H])([H])[H])C([H])([H])[H])C([H])(C(=O)N([H])C1([H])c3c([H])c([H])c([H])c([H])c3C([H])([H])C([H])([H])C1([H])[H])C2([H])[H])C([H])([H])C1([H])C([H])([H])C([H])([H])C([H])([H])C([H])([H])C1([H])[H]

>  <smiles>  (80) 
[H]OC([H])(C([H])([H])C([H])(C([H])([H])C([H])(C([H])([H])[H])C([H])([H])[H])C([H])(N([H])C(=O)N1C([H])([H])C([H])([H])C([H])([H])C([H])(n2nc(-c3c([H])c([H])c(Oc4c([H])c([H])c(F)c([H])c4F)c([H])c3[H])c(C(=O)N([H])[H])c2N([H])[H])C1([H])[H])C([H])([H])C(C([H])([H])[H])(C([H])([H])[H])C([H])([H])[H])C([H])(C([H])([H])C([H])([H])C([H])(C([H])([H])[H])C([H])([H])Oc1c([H])c([H])c2c(c1[H])C([H])([H])N(C(=O)C([H])(N([H])C(=O)C([H])(N([H])C([H])([H])[H])C([H])([H])[H])C(C([H])([H])[H])(C([H])([H])[H])C([H])([H])[H])C([H])(C(=O)N([H])C1([H])c3c([H])c([H])c([H])c([H])c3C([H])([H])C([H])([H])C1([H])[H])C2([H])[H])C([H])([H])C1([H])C([H])([H])C([H])([H])C([H])([H])C([H])([H])C1([H])[H]

$$$$
80:0:0
     RDKit          3D

103110  0  0  1  0  0  0  0  0999 V2000
  -29.5750  -20.5630   20.0530 C   0  0  0  0  0  3  0  0  0  0  0  0
  -29.1410  -21.8450   20.8620 C   0  0  0  0  0  0  0  0  0  0  0  0
  -28.6350  -22.9480   20.2440 N   0  0  0  0  0  0  0  0  0  0  0  0
  -29.2230  -21.7950   22.0910 O   0  0  0  0  0  0  0  0  0  0  0  0
  -28.6720  -22.9430   19.2340 H   0  0  0  0  0  0  0  0  0  0  0  0
  -27.8370  -24.0720   20.8230 C   0  0  0  0  0  2  0  0  0  0  0  0
  -28.5300  -25.4660   21.0800 C   0  0  0  0  0  2  0  0  0  0  0  0
  -28.3420  -26.5800   20.1560 O   0  0  0  0  0  0  0  0  0  0  0  0
  -24.5690  -31.8980   23.2410 C   0  0  0  0  0  0  0  0  0  0  0  0
  -27.1890  -27.3490   20.2360 C   0  0  0  0  0  0  0  0  0  0  0  0
  -23.3570  -30.4710   21.6290 C   0  0  0  0  0  3  0  0  0  0  0  0
  -24.8020  -28.9010   20.2260 C   0  0  0  0  0  0  0  0  0  0  0  0
  -25.8870  -30.8100   21.4180 C   0  0  0  0  0  2  0  0  0  0  0  0
  -25.9690  -29.4230   20.8030 C   0  0  0  0  0  0  0  0  0  0  0  0
  -27.1670  -28.6550   20.8000 C   0  0  0  0  0  3  0  0  0  0  0  0
  -26.0050  -26.8620   19.6470 C   0  0  0  0  0  3  0  0  0  0  0  0
  -24.8180  -27.6210   19.6480 C   0  0  0  0  0  3  0  0  0  0  0  0
  -23.5620  -29.7680   20.2610 C   0  0  0  0  0  2  0  0  0  0  0  0
  -24.6230  -31.0780   22.1530 N   0  0  0  0  0  0  0  0  0  0  0  0
  -23.4900  -32.1810   23.7800 O   0  0  0  0  0  0  0  0  0  0  0  0
  -22.7060  -29.4670   22.6080 C   0  0  0  0  0  0  0  0  0  0  0  0
  -21.3830  -29.2730   22.4810 N   0  0  0  0  0  0  0  0  0  0  0  0
  -23.3910  -28.8640   23.4390 O   0  0  0  0  0  0  0  0  0  0  0  0
  -20.8920  -29.8090   21.7780 H   0  0  0  0  0  0  0  0  0  0  0  0
  -18.0180  -28.0560   22.9900 C   0  0  0  0  0  0  0  0  0  0  0  0
  -20.5720  -28.3430   23.2660 C   0  0  0  0  0  3  0  0  0  0  0  0
  -20.6900  -26.9020   22.7180 C   0  0  0  0  0  2  0  0  0  0  0  0
  -19.5950  -26.5480   21.7070 C   0  0  0  0  0  2  0  0  0  0  0  0
  -18.2090  -26.6940   22.3420 C   0  0  0  0  0  2  0  0  0  0  0  0
  -19.1270  -28.8370   23.4080 C   0  0  0  0  0  0  0  0  0  0  0  0
  -18.8940  -30.1100   23.9720 C   0  0  0  0  0  3  0  0  0  0  0  0
  -17.5830  -30.6010   24.1230 C   0  0  0  0  0  3  0  0  0  0  0  0
  -16.4890  -29.8170   23.7230 C   0  0  0  0  0  3  0  0  0  0  0  0
  -16.7060  -28.5470   23.1620 C   0  0  0  0  0  3  0  0  0  0  0  0
  -25.8570  -32.5390   23.8450 C   0  0  0  0  0  3  0  0  0  0  0  0
  -25.5420  -33.9360   24.1780 N   0  0  0  0  0  0  0  0  0  0  0  0
  -25.8630  -34.9900   23.4150 C   0  0  0  0  0  0  0  0  0  0  0  0
  -26.5240  -34.8900   22.3770 O   0  0  0  0  0  0  0  0  0  0  0  0
  -24.9540  -34.0890   24.9840 H   0  0  0  0  0  0  0  0  0  0  0  0
  -24.1300  -36.7780   23.0630 C   0  0  0  0  0  1  0  0  0  0  0  0
  -25.3700  -36.3740   23.8760 C   0  0  0  0  0  3  0  0  0  0  0  0
  -27.4980  -37.2640   24.7190 C   0  0  0  0  0  1  0  0  0  0  0  0
  -26.4020  -37.4310   23.7700 N   0  0  0  0  0  0  0  0  0  0  0  0
  -25.9910  -38.3490   23.9180 H   0  0  0  0  0  0  0  0  0  0  0  0
  -26.3980  -31.7730   25.1140 C   0  0  1  0  0  0  0  0  0  0  0  0
  -25.3180  -31.5190   26.1920 C   0  0  0  0  0  1  0  0  0  0  0  0
  -26.9950  -30.4040   24.7130 C   0  0  0  0  0  1  0  0  0  0  0  0
  -27.5470  -32.5810   25.7650 C   0  0  0  0  0  1  0  0  0  0  0  0
  -30.3940  -19.6660   20.9380 N   0  0  0  0  0  4  0  0  0  0  0  0
  -30.2320  -20.1210   21.8300 H   0  0  0  0  0  0  0  0  0  0  0  0
  -31.3710  -19.7980   20.7380 H   0  0  0  0  0  0  0  0  0  0  0  0
  -30.7970  -17.7240   22.4410 C   0  0  0  0  0  1  0  0  0  0  0  0
  -30.0900  -18.1970   21.1540 C   0  0  0  0  0  3  0  0  0  0  0  0
  -30.3980  -17.1880   19.9690 C   0  0  0  0  0  3  0  0  0  0  0  0
  -30.8050  -14.6030   20.2540 C   0  0  0  0  0  0  0  0  0  0  0  0
  -30.4510  -12.4410   19.1390 C   0  0  0  0  0  2  0  0  0  0  0  0
  -29.5020  -12.6780   17.9470 C   0  0  0  0  0  2  0  0  0  0  0  0
  -28.0340  -12.5360   18.3930 C   0  0  0  0  0  2  0  0  0  0  0  0
  -27.7150  -13.3440   19.6820 C   0  0  0  0  0  3  0  0  0  0  0  0
  -28.7960  -13.1510   20.7700 C   0  0  0  0  0  2  0  0  0  0  0  0
  -30.1010  -13.4380   20.1620 N   0  0  0  0  0  0  0  0  0  0  0  0
  -32.0100  -14.6270   20.0230 O   0  0  0  0  0  0  0  0  0  0  0  0
  -30.0660  -15.7480   20.3060 N   0  0  0  0  0  0  0  0  0  0  0  0
  -29.0860  -15.5800   20.4710 H   0  0  0  0  0  0  0  0  0  0  0  0
  -25.3250  -13.9330   20.4220 C   0  0  0  0  0  0  0  0  0  0  0  0
  -24.2610  -13.1530   20.7950 C   0  0  0  0  0  0  0  0  0  0  0  0
  -24.7300  -11.8040   20.7580 C   0  0  0  0  0  0  0  0  0  0  0  0
  -26.3720  -13.0560   20.1800 N   0  0  0  0  0  0  0  0  0  0  0  0
  -26.0200  -11.7700   20.4430 N   0  0  0  0  0  0  0  0  0  0  0  0
  -24.0060  -10.5390   20.9500 C   0  0  0  0  0  0  0  0  0  0  0  0
  -24.4280   -9.5820   21.8980 C   0  0  0  0  0  3  0  0  0  0  0  0
  -23.7030   -8.3840   22.0780 C   0  0  0  0  0  3  0  0  0  0  0  0
  -22.5440   -8.1350   21.3040 C   0  0  0  0  0  0  0  0  0  0  0  0
  -22.1420   -9.0790   20.3440 C   0  0  0  0  0  3  0  0  0  0  0  0
  -22.8670  -10.2690   20.1640 C   0  0  0  0  0  3  0  0  0  0  0  0
  -21.7920   -6.9890   21.3890 O   0  0  0  0  0  0  0  0  0  0  0  0
  -21.7020   -6.2700   22.5540 C   0  0  0  0  0  0  0  0  0  0  0  0
  -21.2050   -6.8430   23.7460 C   0  0  0  0  0  3  0  0  0  0  0  0
  -21.0640   -6.0520   24.9030 C   0  0  0  0  0  3  0  0  0  0  0  0
  -21.4130   -4.6880   24.8690 C   0  0  0  0  0  0  0  0  0  0  0  0
  -21.9010   -4.1130   23.6830 C   0  0  0  0  0  3  0  0  0  0  0  0
  -22.0430   -4.9020   22.5280 C   0  0  0  0  0  0  0  0  0  0  0  0
  -22.4960   -4.3390   21.3820 F   0  0  0  0  0  0  0  0  0  0  0  0
  -21.2710   -3.9260   25.9790 F   0  0  0  0  0  0  0  0  0  0  0  0
  -22.8650  -13.6260   21.0740 C   0  0  0  0  0  0  0  0  0  0  0  0
  -22.1440  -12.9260   21.9420 N   0  0  0  0  0  0  0  0  0  0  0  0
  -22.4220  -14.6530   20.5620 O   0  0  0  0  0  0  0  0  0  0  0  0
  -22.5170  -12.0940   22.3740 H   0  0  0  0  0  0  0  0  0  0  0  0
  -21.2070  -13.2230   22.1740 H   0  0  0  0  0  0  0  0  0  0  0  0
  -25.4750  -15.3050   20.2470 N   0  0  0  0  0  0  0  0  0  0  0  0
  -24.6890  -15.9420   20.3300 H   0  0  0  0  0  0  0  0  0  0  0  0
  -26.3090  -15.7570   19.8940 H   0  0  0  0  0  0  0  0  0  0  0  0
  -31.7920  -17.3930   19.2880 C   0  0  0  0  0  2  0  0  0  0  0  0
  -33.3280  -16.8260   17.3430 C   0  0  0  0  0  1  0  0  0  0  0  0
  -31.1550  -17.9880   16.8500 C   0  0  0  0  0  1  0  0  0  0  0  0
  -31.8670  -16.9950   17.7850 C   0  0  0  0  0  3  0  0  0  0  0  0
  -30.3720  -20.8280   18.7390 C   0  0  0  0  0  2  0  0  0  0  0  0
  -29.6670  -21.5250   17.5500 C   0  0  0  0  0  2  0  0  0  0  0  0
  -30.0240  -23.0010   17.3670 C   0  0  0  0  0  0  0  0  0  0  0  0
  -29.0680  -23.8010   16.9180 N   0  0  0  0  0  0  0  0  0  0  0  0
  -31.1310  -23.4370   17.6730 O   0  0  0  0  0  0  0  0  0  0  0  0
  -28.1730  -23.4320   16.6290 H   0  0  0  0  0  0  0  0  0  0  0  0
  -29.2520  -24.7880   16.8030 H   0  0  0  0  0  0  0  0  0  0  0  0
  1 97  1  0
  1  2  1  0
  1 49  1  0
  2  4  2  0
  3  6  1  0
  3  2  1  0
  5  3  1  0
  6  7  1  0
  8 10  1  0
  8  7  1  0
  9 20  2  0
 10 15  1  0
 11 19  1  0
 11 21  1  0
 12 18  1  0
 12 14  1  0
 13 19  1  0
 14 13  1  0
 15 14  2  0
 16 17  1  0
 16 10  2  0
 17 12  2  0
 18 11  1  0
 19  9  1  0
 21 23  2  0
 22 21  1  0
 24 22  1  0
 25 34  2  0
 25 30  1  0
 26 22  1  0
 26 30  1  0
 27 26  1  0
 28 29  1  0
 28 27  1  0
 29 25  1  0
 30 31  2  0
 31 32  1  0
 33 32  2  0
 34 33  1  0
 35  9  1  0
 35 36  1  0
 35 45  1  0
 36 39  1  0
 37 41  1  0
 37 36  1  0
 38 37  2  0
 41 40  1  0
 43 41  1  0
 43 44  1  0
 43 42  1  0
 45 48  1  1
 45 46  1  0
 47 45  1  0
 49 53  1  0
 49 50  1  0
 51 49  1  0
 53 52  1  0
 54 93  1  0
 54 63  1  0
 54 53  1  0
 55 63  1  0
 56 61  1  0
 57 58  1  0
 57 56  1  0
 59 58  1  0
 59 68  1  0
 59 60  1  0
 61 55  1  0
 61 60  1  0
 62 55  2  0
 63 64  1  0
 65 66  2  0
 66 85  1  0
 67 66  1  0
 67 70  1  0
 68 65  1  0
 68 69  1  0
 69 67  2  0
 70 71  1  0
 71 72  2  0
 73 76  1  0
 73 72  1  0
 74 73  2  0
 75 74  1  0
 75 70  2  0
 76 77  1  0
 77 78  1  0
 78 79  2  0
 80 79  1  0
 80 84  1  0
 81 80  2  0
 82 77  2  0
 82 81  1  0
 83 82  1  0
 85 86  1  0
 86 89  1  0
 86 88  1  0
 87 85  2  0
 90 91  1  0
 90 65  1  0
 92 90  1  0
 94 96  1  0
 95 96  1  0
 96 93  1  0
 98 97  1  0
 99 98  1  0
 99101  2  0
100 99  1  0
102100  1  0
103100  1  0
M  ISO  4   7 101   8 101  55 100  63 100
M  END
>  <TORSDO>  (81) 
F 27

>  <SCORE>  (81) 
-11.822

>  <name>  (81) 
80

>  <ligand_id>  (81) 
80

>  <original_smiles>  (81) 
[H]c1c([H])c([H])c2c(c1[H])C([H])([H])C([H])([H])C([H])([H])C2([H])N([H])C(=O)C1([H])N(C(=O)C([H])(N([H])C(=O)C([H])(N([H])C([H])([H])[H])C([H])([H])[H])C(C([H])([H])[H])(C([H])([H])[H])C([H])([H])[H])C([H])([H])c2c([H])c(OC([H])([H])C([H])([H])N([H])C(=O)C([H])(C([H])([H])C([H])([H])C(=O)N([H])[H])[N+]([H])([H])C([H])(C([H])([H])[H])C([H])(N([H])C(=O)N3C([H])([H])C([H])([H])C([H])([H])C([H])(n4nc(-c5c([H])c([H])c(Oc6c([H])c([H])c(F)c([H])c6F)c([H])c5[H])c(C(=O)N([H])[H])c4N([H])[H])C3([H])[H])C([H])([H])C([H])(C([H])([H])[H])C([H])([H])[H])c([H])c([H])c2C1([H])[H]

>  <smiles>  (81) 
[H]c1c([H])c([H])c2c(c1[H])C([H])([H])C([H])([H])C([H])([H])C2([H])N([H])C(=O)C1([H])N(C(=O)C([H])(N([H])C(=O)C([H])(N([H])C([H])([H])[H])C([H])([H])[H])C(C([H])([H])[H])(C([H])([H])[H])C([H])([H])[H])C([H])([H])c2c([H])c(OC([H])([H])C([H])([H])N([H])C(=O)C([H])(C([H])([H])C([H])([H])C(=O)N([H])[H])[N+]([H])([H])C([H])(C([H])([H])[H])C([H])(N([H])C(=O)N3C([H])([H])C([H])([H])C([H])([H])C([H])(n4nc(-c5c([H])c([H])c(Oc6c([H])c([H])c(F)c([H])c6F)c([H])c5[H])c(C(=O)N([H])[H])c4N([H])[H])C3([H])[H])C([H])([H])C([H])(C([H])([H])[H])C([H])([H])[H])c([H])c([H])c2C1([H])[H]

$$$$
81:0:0
     RDKit          3D

 96103  0  0  1  0  0  0  0  0999 V2000
  -28.4230  -22.0450   20.3680 C   0  0  0  0  0  3  0  0  0  0  0  0
  -27.2970  -22.0020   21.3280 N   0  0  0  0  0  4  0  0  0  0  0  0
  -27.4000  -21.2310   21.9650 H   0  0  0  0  0  0  0  0  0  0  0  0
  -26.4080  -21.9030   20.8640 H   0  0  0  0  0  0  0  0  0  0  0  0
  -27.2730  -22.8450   21.8760 H   0  0  0  0  0  0  0  0  0  0  0  0
  -28.5920  -20.6540   19.6670 C   0  0  0  0  0  2  0  0  0  0  0  0
  -28.7360  -19.4640   20.6650 C   0  0  0  0  0  2  0  0  0  0  0  0
  -29.1460  -18.0710   20.1130 C   0  0  0  0  0  0  0  0  0  0  0  0
  -29.0460  -17.8100   18.9140 O   0  0  0  0  0  0  0  0  0  0  0  0
  -29.6840  -17.0540   21.1610 C   0  0  0  0  0  0  0  0  0  0  0  0
  -30.3850  -14.7140   20.2270 C   0  0  0  0  0  0  0  0  0  0  0  0
  -30.2360  -12.5100   19.0800 C   0  0  0  0  0  2  0  0  0  0  0  0
  -29.2270  -12.6250   17.9180 C   0  0  0  0  0  2  0  0  0  0  0  0
  -27.7860  -12.3750   18.4190 C   0  0  0  0  0  2  0  0  0  0  0  0
  -27.4400  -13.2160   19.6760 C   0  0  0  0  0  3  0  0  0  0  0  0
  -28.5550  -13.0600   20.7310 C   0  0  0  0  0  2  0  0  0  0  0  0
  -29.8290  -13.4750   20.1140 N   0  0  0  0  0  0  0  0  0  0  0  0
  -31.4790  -15.0100   19.7320 O   0  0  0  0  0  0  0  0  0  0  0  0
  -29.5680  -15.6200   20.8080 N   0  0  0  0  0  4  0  0  0  0  0  0
  -28.6910  -15.2170   21.1060 H   0  0  0  0  0  0  0  0  0  0  0  0
  -25.0550  -13.6970   20.5240 C   0  0  0  0  0  0  0  0  0  0  0  0
  -24.0490  -12.8690   20.9500 C   0  0  0  0  0  0  0  0  0  0  0  0
  -24.5740  -11.5450   20.8720 C   0  0  0  0  0  0  0  0  0  0  0  0
  -26.1280  -12.8720   20.2230 N   0  0  0  0  0  0  0  0  0  0  0  0
  -25.8420  -11.5710   20.4830 N   0  0  0  0  0  0  0  0  0  0  0  0
  -23.9230  -10.2460   21.0890 C   0  0  0  0  0  0  0  0  0  0  0  0
  -24.3930   -9.3380   22.0670 C   0  0  0  0  0  3  0  0  0  0  0  0
  -23.7350   -8.1060   22.2700 C   0  0  0  0  0  3  0  0  0  0  0  0
  -22.6010   -7.7690   21.4940 C   0  0  0  0  0  0  0  0  0  0  0  0
  -22.1550   -8.6660   20.5070 C   0  0  0  0  0  3  0  0  0  0  0  0
  -22.8110   -9.8900   20.2990 C   0  0  0  0  0  3  0  0  0  0  0  0
  -21.9160   -6.5820   21.6000 O   0  0  0  0  0  0  0  0  0  0  0  0
  -21.8170   -5.9150   22.7940 C   0  0  0  0  0  0  0  0  0  0  0  0
  -21.2310   -6.5110   23.9320 C   0  0  0  0  0  3  0  0  0  0  0  0
  -21.0820   -5.7660   25.1190 C   0  0  0  0  0  3  0  0  0  0  0  0
  -21.5170   -4.4290   25.1710 C   0  0  0  0  0  0  0  0  0  0  0  0
  -22.1020   -3.8330   24.0380 C   0  0  0  0  0  3  0  0  0  0  0  0
  -22.2490   -4.5750   22.8520 C   0  0  0  0  0  0  0  0  0  0  0  0
  -22.7940   -3.9900   21.7580 F   0  0  0  0  0  0  0  0  0  0  0  0
  -21.3650   -3.7120   26.3080 F   0  0  0  0  0  0  0  0  0  0  0  0
  -22.6460  -13.2710   21.3110 C   0  0  0  0  0  0  0  0  0  0  0  0
  -22.0110  -12.5280   22.2170 N   0  0  0  0  0  0  0  0  0  0  0  0
  -22.1270  -14.2740   20.8250 O   0  0  0  0  0  0  0  0  0  0  0  0
  -22.4480  -11.7120   22.6230 H   0  0  0  0  0  0  0  0  0  0  0  0
  -21.0760  -12.7720   22.5140 H   0  0  0  0  0  0  0  0  0  0  0  0
  -25.1440  -15.0710   20.3510 N   0  0  0  0  0  0  0  0  0  0  0  0
  -24.3270  -15.6670   20.4150 H   0  0  0  0  0  0  0  0  0  0  0  0
  -25.9180  -15.5210   19.8790 H   0  0  0  0  0  0  0  0  0  0  0  0
  -31.0030  -17.4920   21.8510 C   0  0  0  0  0  2  0  0  0  0  0  0
  -31.6590  -19.6630   23.1160 C   0  0  0  0  0  1  0  0  0  0  0  0
  -30.7530  -18.4280   23.0570 C   0  0  0  0  0  2  0  0  0  0  0  0
  -28.2640  -23.2570   19.3820 C   0  0  0  0  0  2  0  0  0  0  0  0
  -30.6380  -24.0710   19.0580 C   0  0  0  0  0  1  0  0  0  0  0  0
  -29.2450  -24.4550   19.6060 C   0  0  0  0  0  3  0  0  0  0  0  0
  -28.7750  -25.8180   18.9880 C   0  0  0  0  0  2  0  0  0  0  0  0
  -28.5050  -26.8580   19.9620 O   0  0  0  0  0  0  0  0  0  0  0  0
  -24.6200  -31.9220   23.1930 C   0  0  0  0  0  0  0  0  0  0  0  0
  -27.3080  -27.5640   19.9660 C   0  0  0  0  0  0  0  0  0  0  0  0
  -23.4260  -30.5420   21.5260 C   0  0  0  0  0  3  0  0  0  0  0  0
  -24.8880  -29.0600   20.0530 C   0  0  0  0  0  0  0  0  0  0  0  0
  -25.9500  -30.9300   21.3230 C   0  0  0  0  0  2  0  0  0  0  0  0
  -26.0480  -29.5750   20.6470 C   0  0  0  0  0  0  0  0  0  0  0  0
  -27.2530  -28.8310   20.6040 C   0  0  0  0  0  3  0  0  0  0  0  0
  -26.1180  -27.0630   19.3930 C   0  0  0  0  0  3  0  0  0  0  0  0
  -24.9200  -27.8040   19.4250 C   0  0  0  0  0  3  0  0  0  0  0  0
  -23.6300  -29.8980   20.1310 C   0  0  0  0  0  2  0  0  0  0  0  0
  -24.6840  -31.1480   22.0720 N   0  0  0  0  0  0  0  0  0  0  0  0
  -23.5370  -32.1620   23.7450 O   0  0  0  0  0  0  0  0  0  0  0  0
  -22.7860  -29.4960   22.4700 C   0  0  0  0  0  0  0  0  0  0  0  0
  -21.4650  -29.2870   22.3270 N   0  0  0  0  0  0  0  0  0  0  0  0
  -23.4740  -28.8730   23.2840 O   0  0  0  0  0  0  0  0  0  0  0  0
  -20.9660  -29.8480   21.6480 H   0  0  0  0  0  0  0  0  0  0  0  0
  -18.1220  -27.9900   22.7700 C   0  0  0  0  0  0  0  0  0  0  0  0
  -20.6660  -28.3170   23.0790 C   0  0  0  0  0  3  0  0  0  0  0  0
  -20.8140  -26.8960   22.4930 C   0  0  0  0  0  2  0  0  0  0  0  0
  -19.7400  -26.5580   21.4570 C   0  0  0  0  0  2  0  0  0  0  0  0
  -18.3470  -26.6520   22.0870 C   0  0  0  0  0  2  0  0  0  0  0  0
  -19.2130  -28.7760   23.2230 C   0  0  0  0  0  0  0  0  0  0  0  0
  -18.9530  -30.0240   23.8270 C   0  0  0  0  0  3  0  0  0  0  0  0
  -17.6370  -30.4890   23.9790 C   0  0  0  0  0  3  0  0  0  0  0  0
  -16.5600  -29.7010   23.5420 C   0  0  0  0  0  3  0  0  0  0  0  0
  -16.8030  -28.4520   22.9440 C   0  0  0  0  0  3  0  0  0  0  0  0
  -25.8950  -32.5610   23.8230 C   0  0  0  0  0  3  0  0  0  0  0  0
  -26.4180  -31.7800   25.0930 C   0  0  1  0  0  0  0  0  0  0  0  0
  -25.3300  -31.5120   26.1590 C   0  0  0  0  0  1  0  0  0  0  0  0
  -27.0180  -30.4160   24.6790 C   0  0  0  0  0  1  0  0  0  0  0  0
  -27.5550  -32.5800   25.7660 C   0  0  0  0  0  1  0  0  0  0  0  0
  -25.5700  -33.9520   24.1640 N   0  0  0  0  0  0  0  0  0  0  0  0
  -25.8890  -35.0150   23.4110 C   0  0  0  0  0  0  0  0  0  0  0  0
  -26.5510  -34.9250   22.3740 O   0  0  0  0  0  0  0  0  0  0  0  0
  -24.9750  -34.0920   24.9680 H   0  0  0  0  0  0  0  0  0  0  0  0
  -24.1340  -36.7900   23.0880 C   0  0  0  0  0  1  0  0  0  0  0  0
  -25.3930  -36.3980   23.8790 C   0  0  0  0  0  3  0  0  0  0  0  0
  -27.5270  -37.3090   24.6820 C   0  0  0  0  0  1  0  0  0  0  0  0
  -26.4130  -37.4620   23.7510 N   0  0  0  0  0  0  0  0  0  0  0  0
  -26.0000  -38.3780   23.9010 H   0  0  0  0  0  0  0  0  0  0  0  0
  1 52  1  0
  1  2  1  0
  2  5  1  0
  2  3  1  0
  4  2  1  0
  6  1  1  0
  6  7  1  0
  8  7  1  0
  8 10  1  0
  9  8  2  0
 10 49  1  0
 11 19  1  0
 12 17  1  0
 13 14  1  0
 13 12  1  0
 15 14  1  0
 15 24  1  0
 15 16  1  0
 17 11  1  0
 17 16  1  0
 18 11  2  0
 19 20  1  0
 19 10  2  0
 21 22  2  0
 22 41  1  0
 23 22  1  0
 23 26  1  0
 24 25  1  0
 24 21  1  0
 25 23  2  0
 26 27  1  0
 27 28  2  0
 29 32  1  0
 29 28  1  0
 30 29  2  0
 31 30  1  0
 31 26  2  0
 32 33  1  0
 33 38  2  0
 33 34  1  0
 34 35  2  0
 35 36  1  0
 36 40  1  0
 37 36  2  0
 38 37  1  0
 39 38  1  0
 41 42  1  0
 42 45  1  0
 42 44  1  0
 43 41  2  0
 46 47  1  0
 46 21  1  0
 48 46  1  0
 49 51  1  0
 51 50  1  0
 52 54  1  0
 54 53  1  0
 55 54  1  0
 55 56  1  0
 56 58  1  0
 57 68  2  0
 58 63  1  0
 59 67  1  0
 59 69  1  0
 60 66  1  0
 60 62  1  0
 61 67  1  0
 62 61  1  0
 63 62  2  0
 64 65  1  0
 64 58  2  0
 65 60  2  0
 66 59  1  0
 67 57  1  0
 69 71  2  0
 70 69  1  0
 72 70  1  0
 73 82  2  0
 73 78  1  0
 74 70  1  0
 74 78  1  0
 75 74  1  0
 76 77  1  0
 76 75  1  0
 77 73  1  0
 78 79  2  0
 79 80  1  0
 81 80  2  0
 82 81  1  0
 83 57  1  0
 83 88  1  0
 83 84  1  0
 84 87  1  1
 84 85  1  0
 86 84  1  0
 88 91  1  0
 89 93  1  0
 89 88  1  0
 90 89  2  0
 93 92  1  0
 95 93  1  0
 95 96  1  0
 95 94  1  0
M  ISO  4  11 100  19 100  55 101  56 101
M  END
>  <TORSDO>  (82) 
F 26

>  <SCORE>  (82) 
-11.793

>  <name>  (82) 
81

>  <ligand_id>  (82) 
81

>  <original_smiles>  (82) 
[H]c1c([H])c([H])c2c(c1[H])C([H])([H])C([H])([H])C([H])([H])C2([H])N([H])C(=O)C1([H])N(C(=O)C([H])(N([H])C(=O)C([H])(N([H])C([H])([H])[H])C([H])([H])[H])C(C([H])([H])[H])(C([H])([H])[H])C([H])([H])[H])C([H])([H])c2c([H])c(OC([H])([H])C([H])(C([H])([H])[H])C([H])([H])C([H])(C([H])([H])C([H])([H])C(=O)C([H])(N([H])C(=O)N3C([H])([H])C([H])([H])C([H])([H])C([H])(n4nc(-c5c([H])c([H])c(Oc6c([H])c([H])c(F)c([H])c6F)c([H])c5[H])c(C(=O)N([H])[H])c4N([H])[H])C3([H])[H])C([H])([H])C([H])([H])C([H])([H])[H])[N+]([H])([H])[H])c([H])c([H])c2C1([H])[H]

>  <smiles>  (82) 
[H]c1c([H])c([H])c2c(c1[H])C([H])([H])C([H])([H])C([H])([H])C2([H])N([H])C(=O)C1([H])N(C(=O)C([H])(N([H])C(=O)C([H])(N([H])C([H])([H])[H])C([H])([H])[H])C(C([H])([H])[H])(C([H])([H])[H])C([H])([H])[H])C([H])([H])c2c([H])c(OC([H])([H])C([H])(C([H])([H])[H])C([H])([H])C([H])(C([H])([H])C([H])([H])C(=O)C([H])(N([H])C(=O)N3C([H])([H])C([H])([H])C([H])([H])C([H])(n4nc(-c5c([H])c([H])c(Oc6c([H])c([H])c(F)c([H])c6F)c([H])c5[H])c(C(=O)N([H])[H])c4N([H])[H])C3([H])[H])C([H])([H])C([H])([H])C([H])([H])[H])[N+]([H])([H])[H])c([H])c([H])c2C1([H])[H]

$$$$
82:0:0
     RDKit          3D

101108  0  0  1  0  0  0  0  0999 V2000
  -28.6560  -21.7150   20.1200 C   0  0  0  0  0  3  0  0  0  0  0  0
  -29.6920  -20.6730   20.5830 C   0  0  0  0  0  0  0  0  0  0  0  0
  -29.8200  -19.5730   19.8300 N   0  0  0  0  0  0  0  0  0  0  0  0
  -30.3490  -20.8560   21.6090 O   0  0  0  0  0  0  0  0  0  0  0  0
  -29.2580  -19.5270   18.9900 H   0  0  0  0  0  0  0  0  0  0  0  0
  -30.6420  -18.3920   20.1150 C   0  0  0  0  0  3  0  0  0  0  0  0
  -32.9610  -19.4680   20.0870 C   0  0  0  0  0  1  0  0  0  0  0  0
  -32.0030  -18.5080   19.3520 C   0  0  0  0  0  3  0  0  0  0  0  0
  -33.0580  -18.5480   16.9740 C   0  0  0  0  0  1  0  0  0  0  0  0
  -31.8620  -18.9290   17.8620 C   0  0  0  0  0  2  0  0  0  0  0  0
  -29.8370  -17.1160   19.7270 C   0  0  0  0  0  2  0  0  0  0  0  0
  -30.6680  -15.0190   20.7610 C   0  0  0  0  0  0  0  0  0  0  0  0
  -30.5580  -12.7710   19.8090 C   0  0  0  0  0  2  0  0  0  0  0  0
  -29.7140  -12.9100   18.5240 C   0  0  0  0  0  2  0  0  0  0  0  0
  -28.2140  -12.7360   18.8420 C   0  0  0  0  0  2  0  0  0  0  0  0
  -27.7450  -13.6120   20.0330 C   0  0  0  0  0  3  0  0  0  0  0  0
  -28.7180  -13.4910   21.2300 C   0  0  0  0  0  2  0  0  0  0  0  0
  -30.0800  -13.7930   20.7500 N   0  0  0  0  0  0  0  0  0  0  0  0
  -31.8500  -15.2090   20.4680 O   0  0  0  0  0  0  0  0  0  0  0  0
  -29.8000  -16.0410   20.7370 N   0  0  0  0  0  0  0  0  0  0  0  0
  -28.8770  -15.8150   21.0870 H   0  0  0  0  0  0  0  0  0  0  0  0
  -25.2900  -14.1620   20.5890 C   0  0  0  0  0  0  0  0  0  0  0  0
  -24.2170  -13.3650   20.8770 C   0  0  0  0  0  0  0  0  0  0  0  0
  -24.7070  -12.0220   20.8560 C   0  0  0  0  0  0  0  0  0  0  0  0
  -26.3680  -13.3030   20.4160 N   0  0  0  0  0  0  0  0  0  0  0  0
  -26.0140  -12.0110   20.6300 N   0  0  0  0  0  0  0  0  0  0  0  0
  -23.9910  -10.7430   20.9680 C   0  0  0  0  0  0  0  0  0  0  0  0
  -24.3670   -9.7690   21.9220 C   0  0  0  0  0  3  0  0  0  0  0  0
  -23.6560   -8.5540   22.0220 C   0  0  0  0  0  3  0  0  0  0  0  0
  -22.5500   -8.3060   21.1690 C   0  0  0  0  0  0  0  0  0  0  0  0
  -22.1990   -9.2640   20.2050 C   0  0  0  0  0  3  0  0  0  0  0  0
  -22.9140  -10.4710   20.1030 C   0  0  0  0  0  3  0  0  0  0  0  0
  -21.8070   -7.1500   21.1920 O   0  0  0  0  0  0  0  0  0  0  0  0
  -21.6750   -6.3970   22.3320 C   0  0  0  0  0  0  0  0  0  0  0  0
  -21.1190   -6.9310   23.5180 C   0  0  0  0  0  3  0  0  0  0  0  0
  -20.9340   -6.1030   24.6420 C   0  0  0  0  0  3  0  0  0  0  0  0
  -21.3020   -4.7440   24.5840 C   0  0  0  0  0  0  0  0  0  0  0  0
  -21.8540   -4.2110   23.4070 C   0  0  0  0  0  3  0  0  0  0  0  0
  -22.0320   -5.0350   22.2810 C   0  0  0  0  0  0  0  0  0  0  0  0
  -22.5460   -4.5100   21.1420 F   0  0  0  0  0  0  0  0  0  0  0  0
  -21.1180   -3.9480   25.6640 F   0  0  0  0  0  0  0  0  0  0  0  0
  -22.7920  -13.8050   21.0620 C   0  0  0  0  0  0  0  0  0  0  0  0
  -22.0330  -13.0740   21.8700 N   0  0  0  0  0  0  0  0  0  0  0  0
  -22.3600  -14.8260   20.5260 O   0  0  0  0  0  0  0  0  0  0  0  0
  -22.3980  -12.2540   22.3370 H   0  0  0  0  0  0  0  0  0  0  0  0
  -21.0760  -13.3460   22.0420 H   0  0  0  0  0  0  0  0  0  0  0  0
  -25.4350  -15.5370   20.4390 N   0  0  0  0  0  0  0  0  0  0  0  0
  -24.6360  -16.1630   20.4570 H   0  0  0  0  0  0  0  0  0  0  0  0
  -26.2830  -15.9920   20.1260 H   0  0  0  0  0  0  0  0  0  0  0  0
  -27.5160  -21.8860   21.1590 C   0  0  0  0  0  2  0  0  0  0  0  0
  -27.4640  -23.2530   21.8750 C   0  0  0  0  0  2  0  0  0  0  0  0
  -26.1640  -23.9970   21.5890 C   0  0  0  0  0  0  0  0  0  0  0  0
  -25.1350  -23.7460   22.3830 N   0  0  0  0  0  0  0  0  0  0  0  0
  -26.0790  -24.8050   20.6650 O   0  0  0  0  0  0  0  0  0  0  0  0
  -25.2290  -23.0840   23.1350 H   0  0  0  0  0  0  0  0  0  0  0  0
  -24.2480  -24.2030   22.2320 H   0  0  0  0  0  0  0  0  0  0  0  0
  -29.2820  -23.0870   19.7680 C   0  0  0  0  0  2  0  0  0  0  0  0
  -29.5740  -23.3250   18.2760 C   0  0  0  0  0  2  0  0  0  0  0  0
  -29.5040  -24.8200   17.9030 C   0  0  0  0  0  2  0  0  0  0  0  0
  -28.2710  -25.5210   18.5050 C   0  0  0  0  0  2  0  0  0  0  0  0
  -28.2840  -26.9120   18.1790 O   0  0  0  0  0  0  0  0  0  0  0  0
  -24.9910  -30.9260   22.9820 C   0  0  0  0  0  0  0  0  0  0  0  0
  -27.1280  -27.5990   18.4810 C   0  0  0  0  0  0  0  0  0  0  0  0
  -23.5510  -30.0210   21.1800 C   0  0  0  0  0  3  0  0  0  0  0  0
  -24.7780  -28.9920   19.1990 C   0  0  0  0  0  0  0  0  0  0  0  0
  -26.0320  -30.4890   20.7570 C   0  0  0  0  0  2  0  0  0  0  0  0
  -26.0110  -29.3530   19.7580 C   0  0  0  0  0  0  0  0  0  0  0  0
  -27.1880  -28.6660   19.4000 C   0  0  0  0  0  3  0  0  0  0  0  0
  -25.8830  -27.2690   17.8930 C   0  0  0  0  0  3  0  0  0  0  0  0
  -24.7120  -27.9560   18.2530 C   0  0  0  0  0  3  0  0  0  0  0  0
  -23.5620  -29.7620   19.6500 C   0  0  0  0  0  2  0  0  0  0  0  0
  -24.8850  -30.4770   21.6970 N   0  0  0  0  0  0  0  0  0  0  0  0
  -24.0000  -31.0080   23.7200 O   0  0  0  0  0  0  0  0  0  0  0  0
  -23.0190  -28.7580   21.8900 C   0  0  0  0  0  0  0  0  0  0  0  0
  -21.7040  -28.5120   21.7660 N   0  0  0  0  0  0  0  0  0  0  0  0
  -23.7820  -28.0120   22.5090 O   0  0  0  0  0  0  0  0  0  0  0  0
  -21.1480  -29.1680   21.2370 H   0  0  0  0  0  0  0  0  0  0  0  0
  -18.4740  -26.9140   21.9390 C   0  0  0  0  0  0  0  0  0  0  0  0
  -20.9880  -27.3640   22.3210 C   0  0  0  0  0  3  0  0  0  0  0  0
  -21.2470  -26.0960   21.4750 C   0  0  0  0  0  2  0  0  0  0  0  0
  -20.1870  -25.8710   20.3930 C   0  0  0  0  0  2  0  0  0  0  0  0
  -18.7940  -25.7480   21.0160 C   0  0  0  0  0  2  0  0  0  0  0  0
  -19.5070  -27.6820   22.5380 C   0  0  0  0  0  0  0  0  0  0  0  0
  -19.1550  -28.7730   23.3610 C   0  0  0  0  0  3  0  0  0  0  0  0
  -17.8050  -29.1000   23.5910 C   0  0  0  0  0  3  0  0  0  0  0  0
  -16.7890  -28.3260   23.0060 C   0  0  0  0  0  3  0  0  0  0  0  0
  -17.1220  -27.2350   22.1850 C   0  0  0  0  0  3  0  0  0  0  0  0
  -26.3610  -31.3810   23.5760 C   0  0  0  0  0  3  0  0  0  0  0  0
  -26.1430  -32.6520   24.2770 N   0  0  0  0  0  0  0  0  0  0  0  0
  -26.4220  -33.8610   23.7670 C   0  0  0  0  0  0  0  0  0  0  0  0
  -26.9640  -34.0190   22.6700 O   0  0  0  0  0  0  0  0  0  0  0  0
  -25.6580  -32.6020   25.1620 H   0  0  0  0  0  0  0  0  0  0  0  0
  -24.7320  -35.6970   24.0540 C   0  0  0  0  0  1  0  0  0  0  0  0
  -26.0330  -35.0920   24.6040 C   0  0  0  0  0  3  0  0  0  0  0  0
  -28.2670  -35.7210   25.4080 C   0  0  0  0  0  1  0  0  0  0  0  0
  -27.0840  -36.1290   24.6510 N   0  0  0  0  0  0  0  0  0  0  0  0
  -26.7270  -36.9830   25.0690 H   0  0  0  0  0  0  0  0  0  0  0  0
  -27.0110  -30.3080   24.5370 C   0  0  1  0  0  0  0  0  0  0  0  0
  -26.0560  -29.8030   25.6400 C   0  0  0  0  0  1  0  0  0  0  0  0
  -27.4860  -29.0770   23.7320 C   0  0  0  0  0  1  0  0  0  0  0  0
  -28.2580  -30.9130   25.2230 C   0  0  0  0  0  1  0  0  0  0  0  0
  1 57  1  0
  1  2  1  0
  1 50  1  0
  2  4  2  0
  3  6  1  0
  3  2  1  0
  5  3  1  0
  6 11  1  0
  8  7  1  0
  8  6  1  0
  9 10  1  0
 10  8  1  0
 11 20  1  0
 13 18  1  0
 14 15  1  0
 14 13  1  0
 16 15  1  0
 16 25  1  0
 16 17  1  0
 18 12  1  0
 18 17  1  0
 19 12  2  0
 20 12  1  0
 20 21  1  0
 22 23  2  0
 23 42  1  0
 24 23  1  0
 24 27  1  0
 25 22  1  0
 25 26  1  0
 26 24  2  0
 27 28  1  0
 28 29  2  0
 30 33  1  0
 30 29  1  0
 31 30  2  0
 32 31  1  0
 32 27  2  0
 33 34  1  0
 34 35  1  0
 35 36  2  0
 37 36  1  0
 37 41  1  0
 38 37  2  0
 39 34  2  0
 39 38  1  0
 40 39  1  0
 42 43  1  0
 43 46  1  0
 43 45  1  0
 44 42  2  0
 47 48  1  0
 47 22  1  0
 49 47  1  0
 50 51  1  0
 52 51  1  0
 52 53  1  0
 53 55  1  0
 54 52  2  0
 56 53  1  0
 58 57  1  0
 59 58  1  0
 59 60  1  0
 61 63  1  0
 61 60  1  0
 62 73  2  0
 63 68  1  0
 64 72  1  0
 64 74  1  0
 65 71  1  0
 65 67  1  0
 66 72  1  0
 67 66  1  0
 68 67  2  0
 69 70  1  0
 69 63  2  0
 70 65  2  0
 71 64  1  0
 72 62  1  0
 74 76  2  0
 75 74  1  0
 77 75  1  0
 78 87  2  0
 78 83  1  0
 79 75  1  0
 79 83  1  0
 80 79  1  0
 81 82  1  0
 81 80  1  0
 82 78  1  0
 83 84  2  0
 84 85  1  0
 86 85  2  0
 87 86  1  0
 88 62  1  0
 88 89  1  0
 88 98  1  0
 89 92  1  0
 90 89  1  0
 90 94  1  0
 91 90  2  0
 94 93  1  0
 94 96  1  0
 96 97  1  0
 96 95  1  0
 98101  1  1
 98 99  1  0
100 98  1  0
M  ISO  4  12 100  20 100  60 101  61 101
M  END
>  <TORSDO>  (83) 
F 28

>  <SCORE>  (83) 
-9.252

>  <name>  (83) 
82

>  <ligand_id>  (83) 
82

>  <original_smiles>  (83) 
[H]c1c([H])c([H])c2c(c1[H])C([H])([H])C([H])([H])C([H])([H])C2([H])N([H])C(=O)C1([H])N(C(=O)C([H])(N([H])C(=O)C([H])(N([H])C([H])([H])[H])C([H])([H])[H])C(C([H])([H])[H])(C([H])([H])[H])C([H])([H])[H])C([H])([H])c2c([H])c(OC([H])([H])C([H])([H])C([H])([H])C([H])([H])C([H])(C(=O)N([H])C([H])(C([H])([H])N([H])C(=O)N3C([H])([H])C([H])([H])C([H])([H])C([H])(n4nc(-c5c([H])c([H])c(Oc6c([H])c([H])c(F)c([H])c6F)c([H])c5[H])c(C(=O)N([H])[H])c4N([H])[H])C3([H])[H])C([H])(C([H])([H])[H])C([H])([H])C([H])([H])[H])C([H])([H])C([H])([H])C(=O)N([H])[H])c([H])c([H])c2C1([H])[H]

>  <smiles>  (83) 
[H]c1c([H])c([H])c2c(c1[H])C([H])([H])C([H])([H])C([H])([H])C2([H])N([H])C(=O)C1([H])N(C(=O)C([H])(N([H])C(=O)C([H])(N([H])C([H])([H])[H])C([H])([H])[H])C(C([H])([H])[H])(C([H])([H])[H])C([H])([H])[H])C([H])([H])c2c([H])c(OC([H])([H])C([H])([H])C([H])([H])C([H])([H])C([H])(C(=O)N([H])C([H])(C([H])([H])N([H])C(=O)N3C([H])([H])C([H])([H])C([H])([H])C([H])(n4nc(-c5c([H])c([H])c(Oc6c([H])c([H])c(F)c([H])c6F)c([H])c5[H])c(C(=O)N([H])[H])c4N([H])[H])C3([H])[H])C([H])(C([H])([H])[H])C([H])([H])C([H])([H])[H])C([H])([H])C([H])([H])C(=O)N([H])[H])c([H])c([H])c2C1([H])[H]

$$$$
83:0:0
     RDKit          3D

 95103  0  0  1  0  0  0  0  0999 V2000
  -29.4420  -24.4450   21.6070 C   0  0  0  0  0  2  0  0  0  0  0  0
  -30.0790  -23.1410   21.1080 C   0  0  0  0  0  2  0  0  0  0  0  0
  -29.5510  -21.8840   21.8190 C   0  0  0  0  0  2  0  0  0  0  0  0
  -30.1770  -20.6110   21.2230 C   0  0  0  0  0  2  0  0  0  0  0  0
  -30.4990  -19.5100   22.2570 C   0  0  0  0  0  2  0  0  0  0  0  0
  -31.8230  -14.4120   19.9580 C   0  0  0  0  0  0  0  0  0  0  0  0
  -31.2060  -12.3590   18.7360 C   0  0  0  0  0  2  0  0  0  0  0  0
  -30.2110  -12.6870   17.6030 C   0  0  0  0  0  2  0  0  0  0  0  0
  -28.7580  -12.6640   18.1180 C   0  0  0  0  0  2  0  0  0  0  0  0
  -28.5840  -13.4590   19.4390 C   0  0  0  0  0  3  0  0  0  0  0  0
  -29.6770  -13.0390   20.4440 C   0  0  0  0  0  2  0  0  0  0  0  0
  -30.9850  -13.3330   19.8310 N   0  0  0  0  0  0  0  0  0  0  0  0
  -32.8740  -14.4340   19.3060 O   0  0  0  0  0  0  0  0  0  0  0  0
  -30.4240  -15.6960   21.6800 C   0  0  0  0  0  2  0  0  0  0  0  0
  -32.2190  -16.7800   20.2470 C   0  0  0  0  0  2  0  0  0  0  0  0
  -30.3200  -17.0410   22.4400 C   0  0  0  0  0  2  0  0  0  0  0  0
  -32.1260  -17.9720   21.1950 C   0  0  0  0  0  2  0  0  0  0  0  0
  -31.4470  -15.5610   20.6140 N   0  0  0  0  0  0  0  0  0  0  0  0
  -30.7310  -18.1910   21.6120 N   0  0  2  0  0  4  0  0  0  0  0  0
  -30.1520  -18.1760   20.7860 H   0  0  0  0  0  0  0  0  0  0  0  0
  -26.3170  -14.2520   20.3630 C   0  0  0  0  0  0  0  0  0  0  0  0
  -25.2060  -13.5640   20.7710 C   0  0  0  0  0  0  0  0  0  0  0  0
  -25.5220  -12.1800   20.6170 C   0  0  0  0  0  0  0  0  0  0  0  0
  -27.2460  -13.2900   19.9970 N   0  0  0  0  0  0  0  0  0  0  0  0
  -26.7740  -12.0340   20.2010 N   0  0  0  0  0  0  0  0  0  0  0  0
  -24.6870  -10.9840   20.7860 C   0  0  0  0  0  0  0  0  0  0  0  0
  -25.0300   -9.9680   21.7050 C   0  0  0  0  0  3  0  0  0  0  0  0
  -24.2030   -8.8350   21.8620 C   0  0  0  0  0  3  0  0  0  0  0  0
  -23.0180   -8.7120   21.0990 C   0  0  0  0  0  0  0  0  0  0  0  0
  -22.6930   -9.7150   20.1700 C   0  0  0  0  0  3  0  0  0  0  0  0
  -23.5190  -10.8400   20.0110 C   0  0  0  0  0  3  0  0  0  0  0  0
  -22.1660   -7.6360   21.1680 O   0  0  0  0  0  0  0  0  0  0  0  0
  -21.9680   -6.9480   22.3380 C   0  0  0  0  0  0  0  0  0  0  0  0
  -21.5330   -7.5920   23.5180 C   0  0  0  0  0  3  0  0  0  0  0  0
  -21.2750   -6.8370   24.6790 C   0  0  0  0  0  3  0  0  0  0  0  0
  -21.4400   -5.4380   24.6600 C   0  0  0  0  0  0  0  0  0  0  0  0
  -21.8660   -4.7950   23.4850 C   0  0  0  0  0  3  0  0  0  0  0  0
  -22.1270   -5.5480   22.3270 C   0  0  0  0  0  0  0  0  0  0  0  0
  -22.5170   -4.9190   21.1920 F   0  0  0  0  0  0  0  0  0  0  0  0
  -21.1850   -4.7110   25.7720 F   0  0  0  0  0  0  0  0  0  0  0  0
  -23.8900  -14.1560   21.1840 C   0  0  0  0  0  0  0  0  0  0  0  0
  -23.1820  -13.5000   22.0970 N   0  0  0  0  0  0  0  0  0  0  0  0
  -23.5020  -15.2320   20.7310 O   0  0  0  0  0  0  0  0  0  0  0  0
  -23.5080  -12.6250   22.4820 H   0  0  0  0  0  0  0  0  0  0  0  0
  -22.3000  -13.8750   22.4140 H   0  0  0  0  0  0  0  0  0  0  0  0
  -26.6100  -15.6090   20.2570 N   0  0  0  0  0  0  0  0  0  0  0  0
  -25.9130  -16.3220   20.4340 H   0  0  0  0  0  0  0  0  0  0  0  0
  -27.4400  -15.9740   19.8090 H   0  0  0  0  0  0  0  0  0  0  0  0
  -30.1760  -25.7060   21.0840 C   0  0  0  0  0  3  0  0  0  0  0  0
  -31.4310  -25.9400   21.8350 N   0  0  0  0  0  4  0  0  0  0  0  0
  -31.2590  -26.1110   22.8110 H   0  0  0  0  0  0  0  0  0  0  0  0
  -31.9230  -26.7360   21.4630 H   0  0  0  0  0  0  0  0  0  0  0  0
  -32.0480  -25.1500   21.7620 H   0  0  0  0  0  0  0  0  0  0  0  0
  -29.2670  -26.9490   21.1150 C   0  0  0  0  0  2  0  0  0  0  0  0
  -28.2790  -26.7700   20.1030 O   0  0  0  0  0  0  0  0  0  0  0  0
  -24.5690  -31.9500   23.3070 C   0  0  0  0  0  0  0  0  0  0  0  0
  -27.1510  -27.5500   20.1670 C   0  0  0  0  0  0  0  0  0  0  0  0
  -23.3280  -30.5730   21.6660 C   0  0  0  0  0  3  0  0  0  0  0  0
  -24.7530  -29.0380   20.2150 C   0  0  0  0  0  0  0  0  0  0  0  0
  -25.8460  -30.9280   21.4340 C   0  0  0  0  0  2  0  0  0  0  0  0
  -25.9170  -29.5620   20.7930 C   0  0  0  0  0  0  0  0  0  0  0  0
  -27.1160  -28.8280   20.7710 C   0  0  0  0  0  3  0  0  0  0  0  0
  -25.9770  -27.0380   19.5780 C   0  0  0  0  0  3  0  0  0  0  0  0
  -24.7760  -27.7710   19.6040 C   0  0  0  0  0  3  0  0  0  0  0  0
  -23.5130  -29.8990   20.2800 C   0  0  0  0  0  2  0  0  0  0  0  0
  -24.6000  -31.1630   22.1960 N   0  0  0  0  0  0  0  0  0  0  0  0
  -23.4990  -32.2260   23.8660 O   0  0  0  0  0  0  0  0  0  0  0  0
  -22.6830  -29.5500   22.6270 C   0  0  0  0  0  0  0  0  0  0  0  0
  -21.3640  -29.3440   22.4790 N   0  0  0  0  0  0  0  0  0  0  0  0
  -23.3640  -28.9410   23.4550 O   0  0  0  0  0  0  0  0  0  0  0  0
  -20.8760  -29.8850   21.7800 H   0  0  0  0  0  0  0  0  0  0  0  0
  -18.0130  -28.0620   22.8850 C   0  0  0  0  0  0  0  0  0  0  0  0
  -20.5500  -28.4010   23.2440 C   0  0  0  0  0  3  0  0  0  0  0  0
  -20.7150  -26.9600   22.7090 C   0  0  0  0  0  2  0  0  0  0  0  0
  -19.6620  -26.5800   21.6640 C   0  0  0  0  0  2  0  0  0  0  0  0
  -18.2540  -26.7010   22.2530 C   0  0  0  0  0  2  0  0  0  0  0  0
  -19.0920  -28.8660   23.3360 C   0  0  0  0  0  0  0  0  0  0  0  0
  -18.8160  -30.1380   23.8830 C   0  0  0  0  0  3  0  0  0  0  0  0
  -17.4920  -30.6060   23.9860 C   0  0  0  0  0  3  0  0  0  0  0  0
  -16.4270  -29.7970   23.5540 C   0  0  0  0  0  3  0  0  0  0  0  0
  -16.6870  -28.5280   23.0080 C   0  0  0  0  0  3  0  0  0  0  0  0
  -25.8710  -32.5600   23.9170 C   0  0  0  0  0  3  0  0  0  0  0  0
  -26.4070  -31.7620   25.1670 C   0  0  1  0  0  0  0  0  0  0  0  0
  -25.3280  -31.4990   26.2440 C   0  0  0  0  0  1  0  0  0  0  0  0
  -26.9860  -30.3940   24.7340 C   0  0  0  0  0  1  0  0  0  0  0  0
  -27.5650  -32.5440   25.8300 C   0  0  0  0  0  1  0  0  0  0  0  0
  -25.5790  -33.9540   24.2720 N   0  0  0  0  0  0  0  0  0  0  0  0
  -25.9450  -35.0160   23.5410 C   0  0  0  0  0  0  0  0  0  0  0  0
  -26.6350  -34.9230   22.5220 O   0  0  0  0  0  0  0  0  0  0  0  0
  -24.9690  -34.1020   25.0620 H   0  0  0  0  0  0  0  0  0  0  0  0
  -24.2660  -36.8510   23.1770 C   0  0  0  0  0  1  0  0  0  0  0  0
  -25.4720  -36.4020   24.0180 C   0  0  0  0  0  3  0  0  0  0  0  0
  -27.5990  -37.2180   24.9320 C   0  0  0  0  0  1  0  0  0  0  0  0
  -26.5280  -37.4350   23.9630 N   0  0  0  0  0  0  0  0  0  0  0  0
  -26.1370  -38.3590   24.1240 H   0  0  0  0  0  0  0  0  0  0  0  0
  2  1  1  0
  2  3  1  0
  4  3  1  0
  4  5  1  0
  6 18  1  0
  7 12  1  0
  8  9  1  0
  8  7  1  0
 10  9  1  0
 10 24  1  0
 10 11  1  0
 12  6  1  0
 12 11  1  0
 13  6  2  0
 14 16  1  0
 15 18  1  0
 15 17  1  0
 17 19  1  0
 18 14  1  0
 19  5  1  0
 19 16  1  0
 19 20  1  6
 21 22  2  0
 22 41  1  0
 23 22  1  0
 23 26  1  0
 24 25  1  0
 24 21  1  0
 25 23  2  0
 26 27  1  0
 27 28  2  0
 29 32  1  0
 29 28  1  0
 30 29  2  0
 31 30  1  0
 31 26  2  0
 32 33  1  0
 33 34  1  0
 34 35  2  0
 36 35  1  0
 36 40  1  0
 37 36  2  0
 38 33  2  0
 38 37  1  0
 39 38  1  0
 41 42  1  0
 42 45  1  0
 42 44  1  0
 43 41  2  0
 46 21  1  0
 46 47  1  0
 48 46  1  0
 49 54  1  0
 49  1  1  0
 49 50  1  0
 50 51  1  0
 52 50  1  0
 53 50  1  0
 55 57  1  0
 55 54  1  0
 56 67  2  0
 57 62  1  0
 58 66  1  0
 58 68  1  0
 59 65  1  0
 59 61  1  0
 60 66  1  0
 61 60  1  0
 62 61  2  0
 63 64  1  0
 63 57  2  0
 64 59  2  0
 65 58  1  0
 66 56  1  0
 68 70  2  0
 69 68  1  0
 71 69  1  0
 72 81  2  0
 72 77  1  0
 73 69  1  0
 73 77  1  0
 74 73  1  0
 75 76  1  0
 75 74  1  0
 76 72  1  0
 77 78  2  0
 78 79  1  0
 80 79  2  0
 81 80  1  0
 82 56  1  0
 82 87  1  0
 82 83  1  0
 83 86  1  1
 83 84  1  0
 85 83  1  0
 87 90  1  0
 88 92  1  0
 88 87  1  0
 89 88  2  0
 92 91  1  0
 94 92  1  0
 94 95  1  0
 94 93  1  0
M  ISO  4   6 100  18 100  54 101  55 101
M  END
>  <TORSDO>  (84) 
F 23

>  <SCORE>  (84) 
-11.739

>  <name>  (84) 
83

>  <ligand_id>  (84) 
83

>  <original_smiles>  (84) 
[H]c1c([H])c([H])c2c(c1[H])C([H])([H])C([H])([H])C([H])([H])C2([H])N([H])C(=O)C1([H])N(C(=O)C([H])(N([H])C(=O)C([H])(N([H])C([H])([H])[H])C([H])([H])[H])C(C([H])([H])[H])(C([H])([H])[H])C([H])([H])[H])C([H])([H])c2c([H])c(OC([H])([H])C([H])(C([H])([H])C([H])([H])C([H])([H])C([H])([H])C([H])([H])[N+]3([H])C([H])([H])C([H])([H])N(C(=O)N4C([H])([H])C([H])([H])C([H])([H])C([H])(n5nc(-c6c([H])c([H])c(Oc7c([H])c([H])c(F)c([H])c7F)c([H])c6[H])c(C(=O)N([H])[H])c5N([H])[H])C4([H])[H])C([H])([H])C3([H])[H])[N+]([H])([H])[H])c([H])c([H])c2C1([H])[H]

>  <smiles>  (84) 
[H]c1c([H])c([H])c2c(c1[H])C([H])([H])C([H])([H])C([H])([H])C2([H])N([H])C(=O)C1([H])N(C(=O)C([H])(N([H])C(=O)C([H])(N([H])C([H])([H])[H])C([H])([H])[H])C(C([H])([H])[H])(C([H])([H])[H])C([H])([H])[H])C([H])([H])c2c([H])c(OC([H])([H])C([H])(C([H])([H])C([H])([H])C([H])([H])C([H])([H])C([H])([H])[N+]3([H])C([H])([H])C([H])([H])N(C(=O)N4C([H])([H])C([H])([H])C([H])([H])C([H])(n5nc(-c6c([H])c([H])c(Oc7c([H])c([H])c(F)c([H])c7F)c([H])c6[H])c(C(=O)N([H])[H])c5N([H])[H])C4([H])[H])C([H])([H])C3([H])[H])[N+]([H])([H])[H])c([H])c([H])c2C1([H])[H]

$$$$
84:0:0
     RDKit          3D

 95103  0  0  1  0  0  0  0  0999 V2000
  -31.5740  -21.9150   20.2960 C   0  0  0  0  0  2  0  0  0  0  0  0
  -30.5400  -22.9940   19.9790 C   0  0  0  0  0  2  0  0  0  0  0  0
  -31.1030  -20.5510   19.7700 C   0  0  0  0  0  2  0  0  0  0  0  0
  -28.7970  -21.1170   20.2940 C   0  0  0  0  0  2  0  0  0  0  0  0
  -29.1740  -22.6720   20.6210 C   0  0  0  0  0  3  0  0  0  0  0  0
  -29.8990  -20.0630   20.4900 N   0  0  1  0  0  4  0  0  0  0  0  0
  -30.1060  -20.0760   21.4760 H   0  0  0  0  0  0  0  0  0  0  0  0
  -26.7650  -23.4230   20.9080 C   0  0  0  0  0  1  0  0  0  0  0  0
  -27.9440  -23.9670   18.7530 C   0  0  0  0  0  1  0  0  0  0  0  0
  -28.1080  -23.8600   20.2850 C   0  0  2  0  0  0  0  0  0  0  0  0
  -28.4230  -25.3370   20.8920 C   0  0  0  0  0  2  0  0  0  0  0  0
  -28.3310  -26.6080   20.1280 O   0  0  0  0  0  0  0  0  0  0  0  0
  -24.5700  -31.9700   23.2430 C   0  0  0  0  0  0  0  0  0  0  0  0
  -27.1910  -27.4210   20.1990 C   0  0  0  0  0  0  0  0  0  0  0  0
  -23.3660  -30.5630   21.6090 C   0  0  0  0  0  3  0  0  0  0  0  0
  -24.8190  -29.0170   20.1850 C   0  0  0  0  0  0  0  0  0  0  0  0
  -25.9010  -30.8990   21.4120 C   0  0  0  0  0  2  0  0  0  0  0  0
  -25.9860  -29.5180   20.7750 C   0  0  0  0  0  0  0  0  0  0  0  0
  -27.1810  -28.7350   20.7640 C   0  0  0  0  0  3  0  0  0  0  0  0
  -25.9990  -26.9720   19.5980 C   0  0  0  0  0  3  0  0  0  0  0  0
  -24.8280  -27.7500   19.5850 C   0  0  0  0  0  3  0  0  0  0  0  0
  -23.5780  -29.8850   20.2300 C   0  0  0  0  0  2  0  0  0  0  0  0
  -24.6320  -31.1620   22.1450 N   0  0  0  0  0  0  0  0  0  0  0  0
  -23.4880  -32.2430   23.7820 O   0  0  0  0  0  0  0  0  0  0  0  0
  -22.7150  -29.5430   22.5750 C   0  0  0  0  0  0  0  0  0  0  0  0
  -21.3900  -29.3540   22.4520 N   0  0  0  0  0  0  0  0  0  0  0  0
  -23.4010  -28.9260   23.3940 O   0  0  0  0  0  0  0  0  0  0  0  0
  -20.8960  -29.9060   21.7650 H   0  0  0  0  0  0  0  0  0  0  0  0
  -18.0260  -28.1260   22.9630 C   0  0  0  0  0  0  0  0  0  0  0  0
  -20.5820  -28.4110   23.2260 C   0  0  0  0  0  3  0  0  0  0  0  0
  -20.6960  -26.9790   22.6560 C   0  0  0  0  0  2  0  0  0  0  0  0
  -19.5950  -26.6420   21.6440 C   0  0  0  0  0  2  0  0  0  0  0  0
  -18.2130  -26.7760   22.2910 C   0  0  0  0  0  2  0  0  0  0  0  0
  -19.1380  -28.9000   23.3880 C   0  0  0  0  0  0  0  0  0  0  0  0
  -18.9090  -30.1610   23.9790 C   0  0  0  0  0  3  0  0  0  0  0  0
  -17.6010  -30.6540   24.1440 C   0  0  0  0  0  3  0  0  0  0  0  0
  -16.5030  -29.8770   23.7350 C   0  0  0  0  0  3  0  0  0  0  0  0
  -16.7150  -28.6150   23.1520 C   0  0  0  0  0  3  0  0  0  0  0  0
  -25.8530  -32.6100   23.8600 C   0  0  0  0  0  3  0  0  0  0  0  0
  -25.5380  -34.0060   24.1920 N   0  0  0  0  0  0  0  0  0  0  0  0
  -25.8570  -35.0620   23.4330 C   0  0  0  0  0  0  0  0  0  0  0  0
  -26.5210  -34.9630   22.3970 O   0  0  0  0  0  0  0  0  0  0  0  0
  -24.9500  -34.1590   25.0000 H   0  0  0  0  0  0  0  0  0  0  0  0
  -24.1180  -36.8460   23.0930 C   0  0  0  0  0  1  0  0  0  0  0  0
  -25.3660  -36.4480   23.8960 C   0  0  0  0  0  3  0  0  0  0  0  0
  -27.5000  -37.3430   24.7170 C   0  0  0  0  0  1  0  0  0  0  0  0
  -26.3930  -37.5070   23.7790 N   0  0  0  0  0  0  0  0  0  0  0  0
  -25.9830  -38.4240   23.9310 H   0  0  0  0  0  0  0  0  0  0  0  0
  -26.3810  -31.8430   25.1340 C   0  0  1  0  0  0  0  0  0  0  0  0
  -25.2930  -31.5980   26.2060 C   0  0  0  0  0  1  0  0  0  0  0  0
  -26.9730  -30.4700   24.7380 C   0  0  0  0  0  1  0  0  0  0  0  0
  -27.5290  -32.6460   25.7890 C   0  0  0  0  0  1  0  0  0  0  0  0
  -29.5830  -18.5870   20.1460 C   0  0  0  0  0  2  0  0  0  0  0  0
  -30.3540  -17.3560   20.8980 C   0  0  0  0  0  0  0  0  0  0  0  0
  -30.5690  -14.7800   20.1390 C   0  0  0  0  0  0  0  0  0  0  0  0
  -30.2490  -12.5670   19.0440 C   0  0  0  0  0  2  0  0  0  0  0  0
  -29.2630  -12.6870   17.8630 C   0  0  0  0  0  2  0  0  0  0  0  0
  -27.8180  -12.5010   18.3590 C   0  0  0  0  0  2  0  0  0  0  0  0
  -27.5000  -13.3590   19.6130 C   0  0  0  0  0  3  0  0  0  0  0  0
  -28.6060  -13.2480   20.6840 C   0  0  0  0  0  2  0  0  0  0  0  0
  -29.8780  -13.5960   20.0420 N   0  0  0  0  0  0  0  0  0  0  0  0
  -31.7200  -14.8250   19.7150 O   0  0  0  0  0  0  0  0  0  0  0  0
  -29.9040  -15.9220   20.5560 N   0  0  0  0  0  4  0  0  0  0  0  0
  -28.9390  -15.7430   20.7850 H   0  0  0  0  0  0  0  0  0  0  0  0
  -25.1390  -13.9200   20.4450 C   0  0  0  0  0  0  0  0  0  0  0  0
  -24.0940  -13.1320   20.8450 C   0  0  0  0  0  0  0  0  0  0  0  0
  -24.5660  -11.7850   20.7750 C   0  0  0  0  0  0  0  0  0  0  0  0
  -26.1800  -13.0540   20.1550 N   0  0  0  0  0  0  0  0  0  0  0  0
  -25.8430  -11.7650   20.4130 N   0  0  0  0  0  0  0  0  0  0  0  0
  -23.8590  -10.5140   20.9730 C   0  0  0  0  0  0  0  0  0  0  0  0
  -24.3130   -9.5570   21.9060 C   0  0  0  0  0  3  0  0  0  0  0  0
  -23.6070   -8.3500   22.0940 C   0  0  0  0  0  3  0  0  0  0  0  0
  -22.4330   -8.0890   21.3470 C   0  0  0  0  0  0  0  0  0  0  0  0
  -21.9990   -9.0350   20.4030 C   0  0  0  0  0  3  0  0  0  0  0  0
  -22.7060  -10.2350   20.2130 C   0  0  0  0  0  3  0  0  0  0  0  0
  -21.6980   -6.9320   21.4430 O   0  0  0  0  0  0  0  0  0  0  0  0
  -21.6400   -6.2080   22.6060 C   0  0  0  0  0  0  0  0  0  0  0  0
  -21.1870   -6.7770   23.8170 C   0  0  0  0  0  3  0  0  0  0  0  0
  -21.0810   -5.9790   24.9720 C   0  0  0  0  0  3  0  0  0  0  0  0
  -21.4170   -4.6120   24.9190 C   0  0  0  0  0  0  0  0  0  0  0  0
  -21.8640   -4.0440   23.7140 C   0  0  0  0  0  3  0  0  0  0  0  0
  -21.9730   -4.8400   22.5600 C   0  0  0  0  0  0  0  0  0  0  0  0
  -22.3840   -4.2820   21.3960 F   0  0  0  0  0  0  0  0  0  0  0  0
  -21.3080   -3.8420   26.0280 F   0  0  0  0  0  0  0  0  0  0  0  0
  -22.7050  -13.5910   21.1780 C   0  0  0  0  0  0  0  0  0  0  0  0
  -22.0160  -12.8690   22.0540 N   0  0  0  0  0  0  0  0  0  0  0  0
  -22.2430  -14.6250   20.6980 O   0  0  0  0  0  0  0  0  0  0  0  0
  -22.4070  -12.0350   22.4670 H   0  0  0  0  0  0  0  0  0  0  0  0
  -21.0820  -13.1520   22.3150 H   0  0  0  0  0  0  0  0  0  0  0  0
  -25.2850  -15.2940   20.2810 N   0  0  0  0  0  0  0  0  0  0  0  0
  -24.5130  -15.9360   20.4250 H   0  0  0  0  0  0  0  0  0  0  0  0
  -26.1060  -15.7430   19.8970 H   0  0  0  0  0  0  0  0  0  0  0  0
  -32.3930  -18.5040   22.0900 C   0  0  0  0  0  1  0  0  0  0  0  0
  -32.7230  -17.5130   19.7350 C   0  0  0  0  0  1  0  0  0  0  0  0
  -31.9150  -17.4630   21.0560 C   0  0  0  0  0  3  0  0  0  0  0  0
  2  1  1  0
  2  5  1  0
  3  1  1  0
  3  6  1  0
  4  6  1  0
  4  5  1  0
  5 10  1  0
  6  7  1  1
 10  9  1  6
 10 11  1  0
 10  8  1  0
 12 14  1  0
 12 11  1  0
 13 24  2  0
 14 19  1  0
 15 23  1  0
 15 25  1  0
 16 22  1  0
 16 18  1  0
 17 23  1  0
 18 17  1  0
 19 18  2  0
 20 14  2  0
 21 20  1  0
 21 16  2  0
 22 15  1  0
 23 13  1  0
 25 27  2  0
 26 25  1  0
 28 26  1  0
 29 38  2  0
 29 34  1  0
 30 26  1  0
 30 34  1  0
 31 30  1  0
 32 33  1  0
 32 31  1  0
 33 29  1  0
 34 35  2  0
 35 36  1  0
 37 36  2  0
 38 37  1  0
 39 13  1  0
 39 40  1  0
 39 49  1  0
 40 43  1  0
 41 45  1  0
 41 40  1  0
 42 41  2  0
 45 44  1  0
 47 45  1  0
 47 48  1  0
 47 46  1  0
 49 52  1  1
 49 50  1  0
 51 49  1  0
 53  6  1  0
 53 54  1  0
 54 95  1  0
 55 63  1  0
 56 61  1  0
 57 58  1  0
 57 56  1  0
 59 58  1  0
 59 68  1  0
 59 60  1  0
 61 55  1  0
 61 60  1  0
 62 55  2  0
 63 64  1  0
 63 54  2  0
 65 66  2  0
 66 85  1  0
 67 66  1  0
 67 70  1  0
 68 69  1  0
 68 65  1  0
 69 67  2  0
 70 71  1  0
 71 72  2  0
 73 76  1  0
 73 72  1  0
 74 73  2  0
 75 74  1  0
 75 70  2  0
 76 77  1  0
 77 78  1  0
 78 79  2  0
 80 79  1  0
 80 84  1  0
 81 80  2  0
 82 77  2  0
 82 81  1  0
 83 82  1  0
 85 86  1  0
 86 89  1  0
 86 88  1  0
 87 85  2  0
 90 91  1  0
 90 65  1  0
 92 90  1  0
 94 95  1  0
 95 93  1  0
M  ISO  4  11 101  12 101  55 100  63 100
M  END
>  <TORSDO>  (85) 
F 21

>  <SCORE>  (85) 
-13.249

>  <name>  (85) 
84

>  <ligand_id>  (85) 
84

>  <original_smiles>  (85) 
[H]c1c([H])c([H])c2c(c1[H])C([H])([H])C([H])([H])C([H])([H])C2([H])N([H])C(=O)C1([H])N(C(=O)C([H])(N([H])C(=O)C([H])(N([H])C([H])([H])[H])C([H])([H])[H])C(C([H])([H])[H])(C([H])([H])[H])C([H])([H])[H])C([H])([H])c2c([H])c(OC([H])([H])C(C([H])([H])[H])(C([H])([H])[H])C3([H])C([H])([H])C([H])([H])C([H])([H])[N+]([H])(C([H])([H])C([H])(N([H])C(=O)N4C([H])([H])C([H])([H])C([H])([H])C([H])(n5nc(-c6c([H])c([H])c(Oc7c([H])c([H])c(F)c([H])c7F)c([H])c6[H])c(C(=O)N([H])[H])c5N([H])[H])C4([H])[H])C([H])(C([H])([H])[H])C([H])([H])[H])C3([H])[H])c([H])c([H])c2C1([H])[H]

>  <smiles>  (85) 
[H]c1c([H])c([H])c2c(c1[H])C([H])([H])C([H])([H])C([H])([H])C2([H])N([H])C(=O)C1([H])N(C(=O)C([H])(N([H])C(=O)C([H])(N([H])C([H])([H])[H])C([H])([H])[H])C(C([H])([H])[H])(C([H])([H])[H])C([H])([H])[H])C([H])([H])c2c([H])c(OC([H])([H])C(C([H])([H])[H])(C([H])([H])[H])C3([H])C([H])([H])C([H])([H])C([H])([H])[N+]([H])(C([H])([H])C([H])(N([H])C(=O)N4C([H])([H])C([H])([H])C([H])([H])C([H])(n5nc(-c6c([H])c([H])c(Oc7c([H])c([H])c(F)c([H])c7F)c([H])c6[H])c(C(=O)N([H])[H])c5N([H])[H])C4([H])[H])C([H])(C([H])([H])[H])C([H])([H])[H])C3([H])[H])c([H])c([H])c2C1([H])[H]

$$$$
85:0:0
     RDKit          3D

112121  0  0  1  0  0  0  0  0999 V2000
  -27.1780  -21.4670   17.7750 C   0  0  0  0  0  0  0  0  0  0  0  0
  -28.0490  -22.0450   16.9420 N   0  0  0  0  0  0  0  0  0  0  0  0
  -26.3490  -22.1100   18.4230 O   0  0  0  0  0  0  0  0  0  0  0  0
  -28.7130  -21.4460   16.4720 H   0  0  0  0  0  0  0  0  0  0  0  0
  -25.9150  -19.2850   17.6870 C   0  0  0  0  0  1  0  0  0  0  0  0
  -27.2790  -19.9450   17.9620 C   0  0  0  0  0  3  0  0  0  0  0  0
  -27.7480  -19.6410   19.3340 N   0  0  0  0  0  4  0  0  0  0  0  0
  -27.5000  -18.7020   19.5940 H   0  0  0  0  0  0  0  0  0  0  0  0
  -27.2300  -20.2820   19.9180 H   0  0  0  0  0  0  0  0  0  0  0  0
  -29.1860  -19.8880   19.6260 C   0  0  0  0  0  3  0  0  0  0  0  0
  -30.3350  -22.1650   23.2640 C   0  0  0  0  0  2  0  0  0  0  0  0
  -31.0580  -20.8440   22.9760 C   0  0  0  0  0  2  0  0  0  0  0  0
  -28.8480  -22.0550   22.9050 C   0  0  0  0  0  2  0  0  0  0  0  0
  -30.8680  -20.4040   21.5160 C   0  0  0  0  0  2  0  0  0  0  0  0
  -28.6620  -21.6310   21.4400 C   0  0  0  0  0  2  0  0  0  0  0  0
  -29.3760  -20.2890   21.1180 C   0  0  0  0  0  3  0  0  0  0  0  0
  -30.0880  -18.7160   19.1450 C   0  0  0  0  0  2  0  0  0  0  0  0
  -30.0960  -17.4400   20.0120 C   0  0  0  0  0  2  0  0  0  0  0  0
  -31.4100  -16.6570   19.8330 C   0  0  0  0  0  2  0  0  0  0  0  0
  -31.6250  -15.5240   20.8520 C   0  0  0  0  0  2  0  0  0  0  0  0
  -31.1560  -13.4040   19.6250 C   0  0  0  0  0  0  0  0  0  0  0  0
  -30.5250  -11.2360   18.6280 C   0  0  0  0  0  2  0  0  0  0  0  0
  -29.4480  -11.4140   17.5430 C   0  0  0  0  0  2  0  0  0  0  0  0
  -28.0380  -11.4180   18.1650 C   0  0  0  0  0  2  0  0  0  0  0  0
  -27.9240  -12.3810   19.3750 C   0  0  0  0  0  3  0  0  0  0  0  0
  -29.0900  -12.1580   20.3620 C   0  0  0  0  0  2  0  0  0  0  0  0
  -30.3570  -12.3060   19.6220 N   0  0  0  0  0  0  0  0  0  0  0  0
  -32.1130  -13.5500   18.8590 O   0  0  0  0  0  0  0  0  0  0  0  0
  -30.8490  -14.3240   20.5500 N   0  0  0  0  0  0  0  0  0  0  0  0
  -30.0580  -14.1220   21.1430 H   0  0  0  0  0  0  0  0  0  0  0  0
  -25.7320  -13.2440   20.4150 C   0  0  0  0  0  0  0  0  0  0  0  0
  -24.6450  -12.5910   20.9300 C   0  0  0  0  0  0  0  0  0  0  0  0
  -24.9390  -11.1970   20.8290 C   0  0  0  0  0  0  0  0  0  0  0  0
  -26.6260  -12.2560   20.0360 N   0  0  0  0  0  0  0  0  0  0  0  0
  -26.1590  -11.0180   20.3390 N   0  0  0  0  0  0  0  0  0  0  0  0
  -24.1080  -10.0220   21.1170 C   0  0  0  0  0  0  0  0  0  0  0  0
  -24.5430   -9.0070   21.9970 C   0  0  0  0  0  3  0  0  0  0  0  0
  -23.7190   -7.8950   22.2720 C   0  0  0  0  0  3  0  0  0  0  0  0
  -22.4440   -7.7900   21.6660 C   0  0  0  0  0  0  0  0  0  0  0  0
  -22.0240   -8.7920   20.7740 C   0  0  0  0  0  3  0  0  0  0  0  0
  -22.8490   -9.8960   20.4980 C   0  0  0  0  0  3  0  0  0  0  0  0
  -21.5850   -6.7340   21.8540 O   0  0  0  0  0  0  0  0  0  0  0  0
  -21.5990   -5.9930   23.0080 C   0  0  0  0  0  0  0  0  0  0  0  0
  -21.3490   -6.5740   24.2700 C   0  0  0  0  0  3  0  0  0  0  0  0
  -21.3030   -5.7630   25.4220 C   0  0  0  0  0  3  0  0  0  0  0  0
  -21.4970   -4.3730   25.3140 C   0  0  0  0  0  0  0  0  0  0  0  0
  -21.7390   -3.7910   24.0570 C   0  0  0  0  0  3  0  0  0  0  0  0
  -21.7870   -4.5990   22.9070 C   0  0  0  0  0  0  0  0  0  0  0  0
  -22.0000   -4.0310   21.6960 F   0  0  0  0  0  0  0  0  0  0  0  0
  -21.4440   -3.5920   26.4180 F   0  0  0  0  0  0  0  0  0  0  0  0
  -23.3650  -13.2180   21.4030 C   0  0  0  0  0  0  0  0  0  0  0  0
  -22.7040  -12.6020   22.3780 N   0  0  0  0  0  0  0  0  0  0  0  0
  -22.9680  -14.2870   20.9410 O   0  0  0  0  0  0  0  0  0  0  0  0
  -23.0400  -11.7360   22.7690 H   0  0  0  0  0  0  0  0  0  0  0  0
  -21.8490  -13.0040   22.7360 H   0  0  0  0  0  0  0  0  0  0  0  0
  -26.0290  -14.5900   20.2200 N   0  0  0  0  0  0  0  0  0  0  0  0
  -25.3660  -15.3250   20.4350 H   0  0  0  0  0  0  0  0  0  0  0  0
  -26.8790  -14.9150   19.7810 H   0  0  0  0  0  0  0  0  0  0  0  0
  -28.3070  -23.4870   16.8580 C   0  0  0  0  0  3  0  0  0  0  0  0
  -29.1320  -23.9260   18.0940 C   0  0  0  0  0  0  0  0  0  0  0  0
  -29.6350  -27.5850   17.9790 C   0  0  0  0  0  2  0  0  0  0  0  0
  -30.5810  -27.1130   19.0820 C   0  0  0  0  0  2  0  0  0  0  0  0
  -28.8400  -26.3510   17.5380 C   0  0  0  0  0  2  0  0  0  0  0  0
  -30.0870  -25.7200   19.5140 C   0  0  0  0  0  3  0  0  0  0  0  0
  -29.2450  -25.2420   18.4060 N   0  0  0  0  0  0  0  0  0  0  0  0
  -29.6790  -23.0480   18.7720 O   0  0  0  0  0  0  0  0  0  0  0  0
  -28.4530  -24.4480   21.2160 C   0  0  0  0  0  1  0  0  0  0  0  0
  -30.6480  -25.3210   21.9270 C   0  0  0  0  0  1  0  0  0  0  0  0
  -29.4690  -25.5910   20.9680 C   0  0  1  0  0  0  0  0  0  0  0  0
  -29.0040  -26.8220   21.5430 O   0  0  0  0  0  0  0  0  0  0  0  0
  -24.6600  -32.0210   23.6250 C   0  0  0  0  0  0  0  0  0  0  0  0
  -27.7620  -27.3920   21.3490 C   0  0  0  0  0  0  0  0  0  0  0  0
  -23.6800  -30.4010   22.0320 C   0  0  0  0  0  3  0  0  0  0  0  0
  -25.3190  -28.7710   20.9590 C   0  0  0  0  0  0  0  0  0  0  0  0
  -26.1990  -30.8360   22.0640 C   0  0  0  0  0  2  0  0  0  0  0  0
  -26.3870  -29.4070   21.6010 C   0  0  0  0  0  0  0  0  0  0  0  0
  -27.6030  -28.7210   21.7970 C   0  0  0  0  0  3  0  0  0  0  0  0
  -26.6670  -26.7600   20.7200 C   0  0  0  0  0  3  0  0  0  0  0  0
  -25.4510  -27.4420   20.5220 C   0  0  0  0  0  3  0  0  0  0  0  0
  -24.0580  -29.5810   20.7700 C   0  0  0  0  0  2  0  0  0  0  0  0
  -24.8570  -31.1080   22.6320 N   0  0  0  0  0  0  0  0  0  0  0  0
  -23.5200  -32.3100   24.0120 O   0  0  0  0  0  0  0  0  0  0  0  0
  -22.9570  -29.4660   23.0270 C   0  0  0  0  0  0  0  0  0  0  0  0
  -21.6950  -29.1260   22.7170 N   0  0  0  0  0  0  0  0  0  0  0  0
  -23.5340  -29.0420   24.0320 O   0  0  0  0  0  0  0  0  0  0  0  0
  -21.2890  -29.5270   21.8830 H   0  0  0  0  0  0  0  0  0  0  0  0
  -18.4030  -27.6480   22.8280 C   0  0  0  0  0  0  0  0  0  0  0  0
  -20.8330  -28.2290   23.4850 C   0  0  0  0  0  3  0  0  0  0  0  0
  -21.1610  -26.7490   23.1830 C   0  0  0  0  0  2  0  0  0  0  0  0
  -20.2990  -26.1550   22.0650 C   0  0  0  0  0  2  0  0  0  0  0  0
  -18.8150  -26.2400   22.4300 C   0  0  0  0  0  2  0  0  0  0  0  0
  -19.3530  -28.5860   23.3080 C   0  0  0  0  0  0  0  0  0  0  0  0
  -18.9250  -29.8930   23.6270 C   0  0  0  0  0  3  0  0  0  0  0  0
  -17.5750  -30.2640   23.4790 C   0  0  0  0  0  3  0  0  0  0  0  0
  -16.6350  -29.3260   23.0180 C   0  0  0  0  0  3  0  0  0  0  0  0
  -17.0490  -28.0200   22.6970 C   0  0  0  0  0  3  0  0  0  0  0  0
  -25.8540  -32.7620   24.3040 C   0  0  0  0  0  3  0  0  0  0  0  0
  -25.4700  -34.1730   24.4520 N   0  0  0  0  0  0  0  0  0  0  0  0
  -25.8400  -35.1520   23.6170 C   0  0  0  0  0  0  0  0  0  0  0  0
  -26.6120  -34.9710   22.6720 O   0  0  0  0  0  0  0  0  0  0  0  0
  -24.7940  -34.3840   25.1710 H   0  0  0  0  0  0  0  0  0  0  0  0
  -24.0920  -36.8180   22.9150 C   0  0  0  0  0  1  0  0  0  0  0  0
  -25.2640  -36.5570   23.8750 C   0  0  0  0  0  3  0  0  0  0  0  0
  -27.2790  -37.6180   24.7910 C   0  0  0  0  0  1  0  0  0  0  0  0
  -26.2640  -37.6380   23.7410 N   0  0  0  0  0  0  0  0  0  0  0  0
  -25.8140  -38.5490   23.7540 H   0  0  0  0  0  0  0  0  0  0  0  0
  -26.2620  -32.1430   25.6970 C   0  0  1  0  0  0  0  0  0  0  0  0
  -25.0650  -31.8980   26.6440 C   0  0  0  0  0  1  0  0  0  0  0  0
  -26.9920  -30.7950   25.4990 C   0  0  0  0  0  1  0  0  0  0  0  0
  -27.2560  -33.0830   26.4170 C   0  0  0  0  0  1  0  0  0  0  0  0
  -28.2810  -24.0640   14.3600 C   0  0  0  0  0  1  0  0  0  0  0  0
  -29.1470  -23.7300   15.5820 C   0  0  0  0  0  2  0  0  0  0  0  0
  1  6  1  0
  1  3  2  0
  2  1  1  0
  4  2  1  0
  6  5  1  0
  6  7  1  0
  7  8  1  0
  7 10  1  0
  7  9  1  0
 10 17  1  0
 10 16  1  0
 12 11  1  0
 13 11  1  0
 14 12  1  0
 15 13  1  0
 16 15  1  0
 16 14  1  0
 17 18  1  0
 19 18  1  0
 19 20  1  0
 21 29  1  0
 22 27  1  0
 23 24  1  0
 23 22  1  0
 25 24  1  0
 25 34  1  0
 25 26  1  0
 27 21  1  0
 27 26  1  0
 28 21  2  0
 29 20  1  0
 29 30  1  0
 31 32  2  0
 32 51  1  0
 33 32  1  0
 33 36  1  0
 34 35  1  0
 34 31  1  0
 35 33  2  0
 36 37  1  0
 37 38  2  0
 39 42  1  0
 39 38  1  0
 40 39  2  0
 41 40  1  0
 41 36  2  0
 42 43  1  0
 43 44  1  0
 44 45  2  0
 46 45  1  0
 46 50  1  0
 47 46  2  0
 48 43  2  0
 48 47  1  0
 49 48  1  0
 51 52  1  0
 52 55  1  0
 52 54  1  0
 53 51  2  0
 56 31  1  0
 56 57  1  0
 58 56  1  0
 59112  1  0
 59  2  1  0
 59 60  1  0
 60 65  1  0
 60 66  2  0
 61 62  1  0
 62 64  1  0
 63 61  1  0
 63 65  1  0
 64 69  1  0
 65 64  1  0
 69 67  1  6
 69 70  1  0
 69 68  1  0
 71 82  2  0
 72 70  1  0
 72 77  1  0
 73 81  1  0
 73 83  1  0
 74 76  1  0
 75 81  1  0
 76 77  2  0
 76 75  1  0
 78 72  2  0
 79 78  1  0
 79 74  2  0
 80 74  1  0
 80 73  1  0
 81 71  1  0
 83 85  2  0
 84 83  1  0
 86 84  1  0
 87 92  1  0
 88 84  1  0
 89 88  1  0
 90 91  1  0
 90 89  1  0
 91 87  1  0
 92 88  1  0
 92 93  2  0
 94 93  1  0
 95 94  2  0
 96 87  2  0
 96 95  1  0
 97 71  1  0
 97 98  1  0
 97107  1  0
 98101  1  0
 99103  1  0
 99 98  1  0
100 99  2  0
103102  1  0
105106  1  0
105103  1  0
105104  1  0
107110  1  1
107108  1  0
109107  1  0
111112  1  0
M  ISO  4  21 100  29 100  69 101  70 101
M  END
>  <TORSDO>  (86) 
F 28

>  <SCORE>  (86) 
-7.573

>  <name>  (86) 
85

>  <ligand_id>  (86) 
85

>  <original_smiles>  (86) 
[H]c1c([H])c([H])c2c(c1[H])C([H])([H])C([H])([H])C([H])([H])C2([H])N([H])C(=O)C1([H])N(C(=O)C([H])(N([H])C(=O)C([H])(N([H])C([H])([H])[H])C([H])([H])[H])C(C([H])([H])[H])(C([H])([H])[H])C([H])([H])[H])C([H])([H])c2c([H])c(OC(C([H])([H])[H])(C([H])([H])[H])C3([H])N(C(=O)C([H])(N([H])C(=O)C([H])(C([H])([H])[H])[N+]([H])([H])C([H])(C([H])([H])C([H])([H])C([H])([H])C([H])([H])N([H])C(=O)N4C([H])([H])C([H])([H])C([H])([H])C([H])(n5nc(-c6c([H])c([H])c(Oc7c([H])c([H])c(F)c([H])c7F)c([H])c6[H])c(C(=O)N([H])[H])c5N([H])[H])C4([H])[H])C4([H])C([H])([H])C([H])([H])C([H])([H])C([H])([H])C4([H])[H])C([H])([H])C([H])([H])[H])C([H])([H])C([H])([H])C3([H])[H])c([H])c([H])c2C1([H])[H]

>  <smiles>  (86) 
[H]c1c([H])c([H])c2c(c1[H])C([H])([H])C([H])([H])C([H])([H])C2([H])N([H])C(=O)C1([H])N(C(=O)C([H])(N([H])C(=O)C([H])(N([H])C([H])([H])[H])C([H])([H])[H])C(C([H])([H])[H])(C([H])([H])[H])C([H])([H])[H])C([H])([H])c2c([H])c(OC(C([H])([H])[H])(C([H])([H])[H])C3([H])N(C(=O)C([H])(N([H])C(=O)C([H])(C([H])([H])[H])[N+]([H])([H])C([H])(C([H])([H])C([H])([H])C([H])([H])C([H])([H])N([H])C(=O)N4C([H])([H])C([H])([H])C([H])([H])C([H])(n5nc(-c6c([H])c([H])c(Oc7c([H])c([H])c(F)c([H])c7F)c([H])c6[H])c(C(=O)N([H])[H])c5N([H])[H])C4([H])[H])C4([H])C([H])([H])C([H])([H])C([H])([H])C([H])([H])C4([H])[H])C([H])([H])C([H])([H])[H])C([H])([H])C([H])([H])C3([H])[H])c([H])c([H])c2C1([H])[H]

$$$$
86:0:0
     RDKit          3D

 98105  0  0  1  0  0  0  0  0999 V2000
  -29.2460  -23.3190   20.2780 C   0  0  0  0  0  0  0  0  0  0  0  0
  -29.9250  -22.6260   21.1980 N   0  0  0  0  0  0  0  0  0  0  0  0
  -28.7890  -22.7760   19.2690 O   0  0  0  0  0  0  0  0  0  0  0  0
  -30.2540  -23.1460   21.9970 H   0  0  0  0  0  0  0  0  0  0  0  0
  -29.0070  -24.8200   20.5650 C   0  0  0  0  0  3  0  0  0  0  0  0
  -30.2540  -25.5270   21.1910 C   0  0  0  0  0  2  0  0  0  0  0  0
  -29.4040  -26.2050   23.5120 C   0  0  0  0  0  1  0  0  0  0  0  0
  -31.1630  -27.6030   22.3900 C   0  0  0  0  0  1  0  0  0  0  0  0
  -29.9400  -26.6990   22.1600 C   0  0  0  0  0  3  0  0  0  0  0  0
  -28.5160  -25.5560   19.2940 C   0  0  0  0  0  2  0  0  0  0  0  0
  -28.3680  -26.9500   19.5390 O   0  0  0  0  0  0  0  0  0  0  0  0
  -24.6750  -31.8420   23.0880 C   0  0  0  0  0  0  0  0  0  0  0  0
  -27.1360  -27.5480   19.6760 C   0  0  0  0  0  0  0  0  0  0  0  0
  -23.3680  -30.5030   21.4700 C   0  0  0  0  0  3  0  0  0  0  0  0
  -24.7280  -29.0170   19.9060 C   0  0  0  0  0  0  0  0  0  0  0  0
  -25.8710  -30.8810   21.1220 C   0  0  0  0  0  2  0  0  0  0  0  0
  -25.9140  -29.5300   20.4400 C   0  0  0  0  0  0  0  0  0  0  0  0
  -27.1140  -28.8020   20.3220 C   0  0  0  0  0  3  0  0  0  0  0  0
  -25.9220  -27.0270   19.1690 C   0  0  0  0  0  3  0  0  0  0  0  0
  -24.7250  -27.7630   19.2700 C   0  0  0  0  0  3  0  0  0  0  0  0
  -23.4870  -29.8710   20.0570 C   0  0  0  0  0  2  0  0  0  0  0  0
  -24.6620  -31.0860   21.9530 N   0  0  0  0  0  0  0  0  0  0  0  0
  -23.6270  -32.0920   23.7020 O   0  0  0  0  0  0  0  0  0  0  0  0
  -22.7780  -29.4440   22.4270 C   0  0  0  0  0  0  0  0  0  0  0  0
  -21.4540  -29.2390   22.3400 N   0  0  0  0  0  0  0  0  0  0  0  0
  -23.5040  -28.8110   23.1980 O   0  0  0  0  0  0  0  0  0  0  0  0
  -20.9320  -29.8070   21.6870 H   0  0  0  0  0  0  0  0  0  0  0  0
  -18.1270  -27.9380   22.8720 C   0  0  0  0  0  0  0  0  0  0  0  0
  -20.6800  -28.2680   23.1120 C   0  0  0  0  0  3  0  0  0  0  0  0
  -20.8170  -26.8480   22.5150 C   0  0  0  0  0  2  0  0  0  0  0  0
  -19.7100  -26.5050   21.5140 C   0  0  0  0  0  2  0  0  0  0  0  0
  -18.3350  -26.6010   22.1800 C   0  0  0  0  0  2  0  0  0  0  0  0
  -19.2280  -28.7280   23.2950 C   0  0  0  0  0  0  0  0  0  0  0  0
  -18.9810  -29.9820   23.8980 C   0  0  0  0  0  3  0  0  0  0  0  0
  -17.6630  -30.4400   24.0870 C   0  0  0  0  0  3  0  0  0  0  0  0
  -16.5780  -29.6460   23.6820 C   0  0  0  0  0  3  0  0  0  0  0  0
  -16.8110  -28.3970   23.0800 C   0  0  0  0  0  3  0  0  0  0  0  0
  -25.9970  -32.4480   23.6550 C   0  0  0  0  0  3  0  0  0  0  0  0
  -25.7200  -33.8430   24.0260 N   0  0  0  0  0  0  0  0  0  0  0  0
  -26.0640  -34.9080   23.2890 C   0  0  0  0  0  0  0  0  0  0  0  0
  -26.7180  -34.8170   22.2460 O   0  0  0  0  0  0  0  0  0  0  0  0
  -25.1360  -33.9850   24.8360 H   0  0  0  0  0  0  0  0  0  0  0  0
  -24.3730  -36.7470   22.9880 C   0  0  0  0  0  1  0  0  0  0  0  0
  -25.6070  -36.2940   23.7850 C   0  0  0  0  0  3  0  0  0  0  0  0
  -27.7630  -37.1060   24.6350 C   0  0  0  0  0  1  0  0  0  0  0  0
  -26.6630  -37.3260   23.7000 N   0  0  0  0  0  0  0  0  0  0  0  0
  -26.2790  -38.2510   23.8750 H   0  0  0  0  0  0  0  0  0  0  0  0
  -26.5700  -31.6450   24.8860 C   0  0  1  0  0  0  0  0  0  0  0  0
  -25.5330  -31.3970   26.0070 C   0  0  0  0  0  1  0  0  0  0  0  0
  -27.1090  -30.2700   24.4250 C   0  0  0  0  0  1  0  0  0  0  0  0
  -27.7620  -32.4120   25.5030 C   0  0  0  0  0  1  0  0  0  0  0  0
  -30.1120  -21.1760   21.2880 C   0  0  0  0  0  3  0  0  0  0  0  0
  -29.7950  -21.4540   23.7760 C   0  0  0  0  0  1  0  0  0  0  0  0
  -30.7340  -20.8980   22.6880 C   0  0  0  0  0  3  0  0  0  0  0  0
  -33.3020  -20.8390   22.1160 C   0  0  0  0  0  1  0  0  0  0  0  0
  -32.1610  -21.4860   22.9180 C   0  0  0  0  0  2  0  0  0  0  0  0
  -30.9130  -20.5940   20.0840 C   0  0  0  0  0  2  0  0  0  0  0  0
  -30.2980  -19.3620   19.3800 C   0  0  0  0  0  2  0  0  0  0  0  0
  -29.8020  -18.1810   20.2440 C   0  0  0  0  0  2  0  0  0  0  0  0
  -30.8780  -17.4570   21.0870 C   0  0  0  0  0  2  0  0  0  0  0  0
  -31.2330  -15.0220   20.6330 C   0  0  0  0  0  0  0  0  0  0  0  0
  -31.0670  -12.7390   19.7080 C   0  0  0  0  0  2  0  0  0  0  0  0
  -30.2030  -12.7470   18.4280 C   0  0  0  0  0  2  0  0  0  0  0  0
  -28.7070  -12.6060   18.7710 C   0  0  0  0  0  2  0  0  0  0  0  0
  -28.2560  -13.5900   19.8830 C   0  0  0  0  0  3  0  0  0  0  0  0
  -29.2300  -13.5540   21.0830 C   0  0  0  0  0  2  0  0  0  0  0  0
  -30.5930  -13.8220   20.5880 N   0  0  0  0  0  0  0  0  0  0  0  0
  -32.3290  -15.2170   20.0990 O   0  0  0  0  0  0  0  0  0  0  0  0
  -30.5600  -16.0280   21.2220 N   0  0  0  0  0  0  0  0  0  0  0  0
  -29.7070  -15.7870   21.7020 H   0  0  0  0  0  0  0  0  0  0  0  0
  -25.8450  -14.2230   20.5370 C   0  0  0  0  0  0  0  0  0  0  0  0
  -24.7450  -13.4610   20.8350 C   0  0  0  0  0  0  0  0  0  0  0  0
  -25.1760  -12.1020   20.7560 C   0  0  0  0  0  0  0  0  0  0  0  0
  -26.8780  -13.3290   20.3000 N   0  0  0  0  0  0  0  0  0  0  0  0
  -26.4760  -12.0460   20.4870 N   0  0  0  0  0  0  0  0  0  0  0  0
  -24.4170  -10.8500   20.8660 C   0  0  0  0  0  0  0  0  0  0  0  0
  -24.7660   -9.8530   21.8030 C   0  0  0  0  0  3  0  0  0  0  0  0
  -24.0080   -8.6660   21.9010 C   0  0  0  0  0  3  0  0  0  0  0  0
  -22.8860   -8.4690   21.0600 C   0  0  0  0  0  0  0  0  0  0  0  0
  -22.5560   -9.4560   20.1150 C   0  0  0  0  0  3  0  0  0  0  0  0
  -23.3150  -10.6340   20.0140 C   0  0  0  0  0  3  0  0  0  0  0  0
  -22.1060   -7.3370   21.0650 O   0  0  0  0  0  0  0  0  0  0  0  0
  -21.8860   -6.6210   22.2140 C   0  0  0  0  0  0  0  0  0  0  0  0
  -21.3090   -7.2080   23.3610 C   0  0  0  0  0  3  0  0  0  0  0  0
  -21.0360   -6.4180   24.4950 C   0  0  0  0  0  3  0  0  0  0  0  0
  -21.3330   -5.0430   24.4840 C   0  0  0  0  0  0  0  0  0  0  0  0
  -21.9050   -4.4550   23.3430 C   0  0  0  0  0  3  0  0  0  0  0  0
  -22.1780   -5.2420   22.2100 C   0  0  0  0  0  0  0  0  0  0  0  0
  -22.7090   -4.6670   21.1040 F   0  0  0  0  0  0  0  0  0  0  0  0
  -21.0660   -4.2820   25.5710 F   0  0  0  0  0  0  0  0  0  0  0  0
  -23.3520  -13.9640   21.0830 C   0  0  0  0  0  0  0  0  0  0  0  0
  -22.5860  -13.2600   21.9100 N   0  0  0  0  0  0  0  0  0  0  0  0
  -22.9510  -15.0120   20.5820 O   0  0  0  0  0  0  0  0  0  0  0  0
  -22.9240  -12.4150   22.3440 H   0  0  0  0  0  0  0  0  0  0  0  0
  -21.6490  -13.5760   22.1150 H   0  0  0  0  0  0  0  0  0  0  0  0
  -26.0490  -15.5940   20.4300 N   0  0  0  0  0  0  0  0  0  0  0  0
  -25.2980  -16.2640   20.5490 H   0  0  0  0  0  0  0  0  0  0  0  0
  -26.9270  -16.0250   20.1640 H   0  0  0  0  0  0  0  0  0  0  0  0
  1  5  1  0
  1  2  1  0
  2 52  1  0
  2  4  1  0
  3  1  2  0
  5 10  1  0
  5  6  1  0
  6  9  1  0
  9  8  1  0
  9  7  1  0
 10 11  1  0
 11 13  1  0
 12 23  2  0
 13 18  1  0
 14 22  1  0
 14 24  1  0
 15 21  1  0
 15 17  1  0
 16 22  1  0
 17 16  1  0
 18 17  2  0
 19 20  1  0
 19 13  2  0
 20 15  2  0
 21 14  1  0
 22 12  1  0
 24 26  2  0
 25 24  1  0
 27 25  1  0
 28 37  2  0
 28 33  1  0
 29 25  1  0
 29 33  1  0
 30 29  1  0
 31 32  1  0
 31 30  1  0
 32 28  1  0
 33 34  2  0
 34 35  1  0
 36 35  2  0
 37 36  1  0
 38 12  1  0
 38 39  1  0
 38 48  1  0
 39 42  1  0
 40 44  1  0
 40 39  1  0
 41 40  2  0
 44 43  1  0
 46 44  1  0
 46 47  1  0
 46 45  1  0
 48 51  1  1
 48 49  1  0
 50 48  1  0
 52 57  1  0
 52 54  1  0
 54 56  1  0
 54 53  1  0
 55 56  1  0
 58 57  1  0
 58 59  1  0
 59 60  1  0
 60 69  1  0
 61 69  1  0
 62 67  1  0
 63 64  1  0
 63 62  1  0
 65 64  1  0
 65 74  1  0
 65 66  1  0
 67 61  1  0
 67 66  1  0
 68 61  2  0
 69 70  1  0
 71 72  2  0
 72 91  1  0
 73 72  1  0
 73 76  1  0
 74 75  1  0
 74 71  1  0
 75 73  2  0
 76 77  1  0
 77 78  2  0
 79 82  1  0
 79 78  1  0
 80 79  2  0
 81 80  1  0
 81 76  2  0
 82 83  1  0
 83 84  1  0
 84 85  2  0
 86 85  1  0
 86 90  1  0
 87 86  2  0
 88 83  2  0
 88 87  1  0
 89 88  1  0
 91 92  1  0
 92 95  1  0
 92 94  1  0
 93 91  2  0
 96 71  1  0
 96 97  1  0
 98 96  1  0
M  ISO  4  10 101  11 101  61 100  69 100
M  END
>  <TORSDO>  (87) 
F 27

>  <SCORE>  (87) 
-10.916

>  <name>  (87) 
86

>  <ligand_id>  (87) 
86

>  <original_smiles>  (87) 
[H]c1c([H])c([H])c2c(c1[H])C([H])([H])C([H])([H])C([H])([H])C2([H])N([H])C(=O)C1([H])N(C(=O)C([H])(N([H])C(=O)C([H])(N([H])C([H])([H])[H])C([H])([H])[H])C(C([H])([H])[H])(C([H])([H])[H])C([H])([H])[H])C([H])([H])c2c([H])c(OC([H])([H])C([H])(C(=O)N([H])C([H])(C([H])([H])C([H])([H])C([H])([H])C([H])([H])N([H])C(=O)N3C([H])([H])C([H])([H])C([H])([H])C([H])(n4nc(-c5c([H])c([H])c(Oc6c([H])c([H])c(F)c([H])c6F)c([H])c5[H])c(C(=O)N([H])[H])c4N([H])[H])C3([H])[H])C([H])(C([H])([H])[H])C([H])([H])C([H])([H])[H])C([H])([H])C([H])(C([H])([H])[H])C([H])([H])[H])c([H])c([H])c2C1([H])[H]

>  <smiles>  (87) 
[H]c1c([H])c([H])c2c(c1[H])C([H])([H])C([H])([H])C([H])([H])C2([H])N([H])C(=O)C1([H])N(C(=O)C([H])(N([H])C(=O)C([H])(N([H])C([H])([H])[H])C([H])([H])[H])C(C([H])([H])[H])(C([H])([H])[H])C([H])([H])[H])C([H])([H])c2c([H])c(OC([H])([H])C([H])(C(=O)N([H])C([H])(C([H])([H])C([H])([H])C([H])([H])C([H])([H])N([H])C(=O)N3C([H])([H])C([H])([H])C([H])([H])C([H])(n4nc(-c5c([H])c([H])c(Oc6c([H])c([H])c(F)c([H])c6F)c([H])c5[H])c(C(=O)N([H])[H])c4N([H])[H])C3([H])[H])C([H])(C([H])([H])[H])C([H])([H])C([H])([H])[H])C([H])([H])C([H])(C([H])([H])[H])C([H])([H])[H])c([H])c([H])c2C1([H])[H]

$$$$
87:0:0
     RDKit          3D

113120  0  0  1  0  0  0  0  0999 V2000
  -31.6870  -22.9890   18.6450 C   0  0  0  0  0  3  0  0  0  0  0  0
  -31.4330  -21.4510   18.6760 C   0  0  0  0  0  2  0  0  0  0  0  0
  -31.3720  -20.5770   19.9710 C   0  0  0  0  0  3  0  0  0  0  0  0
  -30.4410  -21.1230   21.0750 C   0  0  0  0  0  0  0  0  0  0  0  0
  -30.9010  -22.0840   21.8680 N   0  0  0  0  0  0  0  0  0  0  0  0
  -29.3160  -20.6640   21.2410 O   0  0  0  0  0  0  0  0  0  0  0  0
  -31.8580  -22.3900   21.7910 H   0  0  0  0  0  0  0  0  0  0  0  0
  -30.3000  -22.5020   22.5660 H   0  0  0  0  0  0  0  0  0  0  0  0
  -30.9040  -19.1740   19.4600 C   0  0  0  0  0  2  0  0  0  0  0  0
  -30.7830  -17.9460   20.4050 C   0  0  0  0  0  2  0  0  0  0  0  0
  -30.3120  -16.7280   19.5700 C   0  0  0  0  0  2  0  0  0  0  0  0
  -30.7560  -14.3550   20.0950 C   0  0  0  0  0  0  0  0  0  0  0  0
  -30.3250  -12.2280   18.9670 C   0  0  0  0  0  2  0  0  0  0  0  0
  -29.3430  -12.5070   17.8090 C   0  0  0  0  0  2  0  0  0  0  0  0
  -27.8880  -12.3870   18.2990 C   0  0  0  0  0  2  0  0  0  0  0  0
  -27.6250  -13.1920   19.5980 C   0  0  0  0  0  3  0  0  0  0  0  0
  -28.7300  -12.9550   20.6570 C   0  0  0  0  0  2  0  0  0  0  0  0
  -30.0360  -13.2090   20.0250 N   0  0  0  0  0  0  0  0  0  0  0  0
  -31.9200  -14.4420   19.6920 O   0  0  0  0  0  0  0  0  0  0  0  0
  -30.0400  -15.4750   20.2950 N   0  0  0  0  0  0  0  0  0  0  0  0
  -29.0820  -15.3240   20.5760 H   0  0  0  0  0  0  0  0  0  0  0  0
  -25.2560  -13.8030   20.3960 C   0  0  0  0  0  0  0  0  0  0  0  0
  -24.2000  -13.0290   20.8060 C   0  0  0  0  0  0  0  0  0  0  0  0
  -24.6610  -11.6800   20.7690 C   0  0  0  0  0  0  0  0  0  0  0  0
  -26.2930  -12.9190   20.1370 N   0  0  0  0  0  0  0  0  0  0  0  0
  -25.9400  -11.6370   20.4170 N   0  0  0  0  0  0  0  0  0  0  0  0
  -23.9400  -10.4170   20.9860 C   0  0  0  0  0  0  0  0  0  0  0  0
  -24.3780   -9.4690   21.9380 C   0  0  0  0  0  3  0  0  0  0  0  0
  -23.6560   -8.2740   22.1420 C   0  0  0  0  0  3  0  0  0  0  0  0
  -22.4820   -8.0170   21.3940 C   0  0  0  0  0  0  0  0  0  0  0  0
  -22.0670   -8.9510   20.4280 C   0  0  0  0  0  3  0  0  0  0  0  0
  -22.7910  -10.1370   20.2200 C   0  0  0  0  0  3  0  0  0  0  0  0
  -21.7320   -6.8720   21.5050 O   0  0  0  0  0  0  0  0  0  0  0  0
  -21.6680   -6.1660   22.6820 C   0  0  0  0  0  0  0  0  0  0  0  0
  -21.1920   -6.7500   23.8760 C   0  0  0  0  0  3  0  0  0  0  0  0
  -21.0750   -5.9680   25.0440 C   0  0  0  0  0  3  0  0  0  0  0  0
  -21.4290   -4.6060   25.0180 C   0  0  0  0  0  0  0  0  0  0  0  0
  -21.9050   -4.0230   23.8310 C   0  0  0  0  0  3  0  0  0  0  0  0
  -22.0210   -4.8030   22.6640 C   0  0  0  0  0  0  0  0  0  0  0  0
  -22.4550   -4.2310   21.5160 F   0  0  0  0  0  0  0  0  0  0  0  0
  -21.3140   -3.8530   26.1370 F   0  0  0  0  0  0  0  0  0  0  0  0
  -22.8130  -13.5110   21.1210 C   0  0  0  0  0  0  0  0  0  0  0  0
  -22.1120  -12.8140   22.0110 N   0  0  0  0  0  0  0  0  0  0  0  0
  -22.3600  -14.5330   20.6130 O   0  0  0  0  0  0  0  0  0  0  0  0
  -22.4920  -11.9820   22.4390 H   0  0  0  0  0  0  0  0  0  0  0  0
  -21.1850  -13.1230   22.2730 H   0  0  0  0  0  0  0  0  0  0  0  0
  -25.4120  -15.1720   20.2050 N   0  0  0  0  0  0  0  0  0  0  0  0
  -24.6470  -15.8240   20.3450 H   0  0  0  0  0  0  0  0  0  0  0  0
  -26.2450  -15.6130   19.8390 H   0  0  0  0  0  0  0  0  0  0  0  0
  -31.7990  -23.3280   17.1280 C   0  0  0  0  0  2  0  0  0  0  0  0
  -31.3810  -24.6830   15.0560 C   0  0  0  0  0  1  0  0  0  0  0  0
  -31.3660  -24.7140   16.5990 C   0  0  0  0  0  3  0  0  0  0  0  0
  -30.0210  -25.2620   17.1460 C   0  0  0  0  0  2  0  0  0  0  0  0
  -28.8560  -24.3900   16.9120 N   0  0  0  0  0  4  0  0  0  0  0  0
  -29.0240  -23.4510   17.2370 H   0  0  0  0  0  0  0  0  0  0  0  0
  -28.7090  -24.3480   15.9150 H   0  0  0  0  0  0  0  0  0  0  0  0
  -27.6100  -24.9010   17.5260 C   0  0  0  0  0  2  0  0  0  0  0  0
  -27.5560  -22.9400   19.2080 C   0  0  0  0  0  1  0  0  0  0  0  0
  -27.3760  -24.4440   19.0040 C   0  0  0  0  0  3  0  0  0  0  0  0
  -28.0550  -25.2850   20.1400 C   0  0  0  0  0  2  0  0  0  0  0  0
  -28.2050  -26.7100   19.9980 O   0  0  0  0  0  0  0  0  0  0  0  0
  -24.5530  -31.9480   23.2970 C   0  0  0  0  0  0  0  0  0  0  0  0
  -27.0670  -27.4750   20.1220 C   0  0  0  0  0  0  0  0  0  0  0  0
  -23.3250  -30.5850   21.6600 C   0  0  0  0  0  3  0  0  0  0  0  0
  -24.7360  -29.0610   20.2220 C   0  0  0  0  0  0  0  0  0  0  0  0
  -25.8680  -30.8840   21.4630 C   0  0  0  0  0  2  0  0  0  0  0  0
  -25.9180  -29.5200   20.8140 C   0  0  0  0  0  0  0  0  0  0  0  0
  -27.0910  -28.7230   20.7850 C   0  0  0  0  0  3  0  0  0  0  0  0
  -25.8610  -27.0770   19.5090 C   0  0  0  0  0  3  0  0  0  0  0  0
  -24.6990  -27.8330   19.5790 C   0  0  0  0  0  3  0  0  0  0  0  0
  -23.5270  -29.9570   20.2630 C   0  0  0  0  0  2  0  0  0  0  0  0
  -24.6020  -31.1540   22.1960 N   0  0  0  0  0  0  0  0  0  0  0  0
  -23.4720  -32.2320   23.8300 O   0  0  0  0  0  0  0  0  0  0  0  0
  -22.6670  -29.5390   22.5910 C   0  0  0  0  0  0  0  0  0  0  0  0
  -21.3480  -29.3410   22.4300 N   0  0  0  0  0  0  0  0  0  0  0  0
  -23.3410  -28.9220   23.4240 O   0  0  0  0  0  0  0  0  0  0  0  0
  -20.8580  -29.9170   21.7560 H   0  0  0  0  0  0  0  0  0  0  0  0
  -17.9890  -28.0600   22.8290 C   0  0  0  0  0  0  0  0  0  0  0  0
  -20.5250  -28.3930   23.1830 C   0  0  0  0  0  3  0  0  0  0  0  0
  -20.6840  -26.9510   22.6390 C   0  0  0  0  0  2  0  0  0  0  0  0
  -19.6280  -26.5710   21.5970 C   0  0  0  0  0  2  0  0  0  0  0  0
  -18.2240  -26.7020   22.1940 C   0  0  0  0  0  2  0  0  0  0  0  0
  -19.0690  -28.8630   23.2790 C   0  0  0  0  0  0  0  0  0  0  0  0
  -18.7920  -30.1290   23.8370 C   0  0  0  0  0  3  0  0  0  0  0  0
  -17.4670  -30.6030   23.9380 C   0  0  0  0  0  3  0  0  0  0  0  0
  -16.4030  -29.8020   23.4880 C   0  0  0  0  0  3  0  0  0  0  0  0
  -16.6640  -28.5330   22.9490 C   0  0  0  0  0  3  0  0  0  0  0  0
  -25.8510  -32.5570   23.9120 C   0  0  0  0  0  3  0  0  0  0  0  0
  -25.5600  -33.9630   24.2150 N   0  0  0  0  0  0  0  0  0  0  0  0
  -25.9010  -34.9870   23.4260 C   0  0  0  0  0  0  0  0  0  0  0  0
  -26.5690  -34.8500   22.3960 O   0  0  0  0  0  0  0  0  0  0  0  0
  -24.9630  -34.1470   25.0060 H   0  0  0  0  0  0  0  0  0  0  0  0
  -24.1980  -36.8100   23.0420 C   0  0  0  0  0  1  0  0  0  0  0  0
  -25.4410  -36.3950   23.8490 C   0  0  0  0  0  3  0  0  0  0  0  0
  -27.5910  -37.2690   24.6560 C   0  0  0  0  0  1  0  0  0  0  0  0
  -26.4920  -37.4280   23.7070 N   0  0  0  0  0  0  0  0  0  0  0  0
  -26.0980  -38.3580   23.8330 H   0  0  0  0  0  0  0  0  0  0  0  0
  -26.3480  -31.7920   25.1970 C   0  0  1  0  0  0  0  0  0  0  0  0
  -25.2430  -31.5840   26.2600 C   0  0  0  0  0  1  0  0  0  0  0  0
  -26.9120  -30.4050   24.8110 C   0  0  0  0  0  1  0  0  0  0  0  0
  -27.5100  -32.5800   25.8500 C   0  0  0  0  0  1  0  0  0  0  0  0
  -32.9470  -23.4250   19.4540 C   0  0  0  0  0  2  0  0  0  0  0  0
  -33.2270  -24.9390   19.6850 C   0  0  0  0  0  2  0  0  0  0  0  0
  -32.0640  -25.7440   20.2940 C   0  0  0  0  0  2  0  0  0  0  0  0
  -31.6820  -27.6680   21.8560 C   0  0  0  0  0  0  0  0  0  0  0  0
  -32.0010  -28.2340   23.0120 N   0  0  0  0  0  0  0  0  0  0  0  0
  -30.6330  -28.1480   21.1840 N   0  0  0  0  0  4  0  0  0  0  0  0
  -32.4150  -26.6320   21.4090 N   0  0  0  0  0  0  0  0  0  0  0  0
  -31.4900  -29.0210   23.3850 H   0  0  0  0  0  0  0  0  0  0  0  0
  -32.7660  -27.8930   23.5750 H   0  0  0  0  0  0  0  0  0  0  0  0
  -30.1010  -28.9360   21.5320 H   0  0  0  0  0  0  0  0  0  0  0  0
  -30.3700  -27.8040   20.2750 H   0  0  0  0  0  0  0  0  0  0  0  0
  -33.1810  -26.3150   21.9880 H   0  0  0  0  0  0  0  0  0  0  0  0
  1 50  1  0
  1  2  1  0
  1102  1  0
  3  2  1  0
  3  4  1  0
  4  6  2  0
  4  5  1  0
  5  8  1  0
  7  5  1  0
  9  3  1  0
  9 10  1  0
 11 20  1  0
 11 10  1  0
 12 20  1  0
 13 18  1  0
 14 15  1  0
 14 13  1  0
 16 15  1  0
 16 25  1  0
 16 17  1  0
 18 12  1  0
 18 17  1  0
 19 12  2  0
 20 21  1  0
 22 23  2  0
 23 42  1  0
 24 23  1  0
 24 27  1  0
 25 22  1  0
 25 26  1  0
 26 24  2  0
 27 28  1  0
 28 29  2  0
 30 33  1  0
 30 29  1  0
 31 30  2  0
 32 31  1  0
 32 27  2  0
 33 34  1  0
 34 35  1  0
 35 36  2  0
 37 36  1  0
 37 41  1  0
 38 37  2  0
 39 34  2  0
 39 38  1  0
 40 39  1  0
 42 43  1  0
 43 46  1  0
 43 45  1  0
 44 42  2  0
 47 48  1  0
 47 22  1  0
 49 47  1  0
 52 51  1  0
 52 50  1  0
 52 53  1  0
 54 53  1  0
 54 55  1  0
 54 57  1  0
 56 54  1  0
 57 59  1  0
 59 58  1  0
 59 60  1  0
 61 63  1  0
 61 60  1  0
 62 73  2  0
 63 68  1  0
 64 72  1  0
 64 74  1  0
 65 71  1  0
 65 67  1  0
 66 72  1  0
 67 66  1  0
 68 67  2  0
 69 70  1  0
 69 63  2  0
 70 65  2  0
 71 64  1  0
 72 62  1  0
 74 76  2  0
 75 74  1  0
 77 75  1  0
 78 87  2  0
 78 83  1  0
 79 75  1  0
 79 83  1  0
 80 79  1  0
 81 82  1  0
 81 80  1  0
 82 78  1  0
 83 84  2  0
 84 85  1  0
 86 85  2  0
 87 86  1  0
 88 62  1  0
 88 89  1  0
 88 98  1  0
 89 92  1  0
 90 94  1  0
 90 89  1  0
 91 90  2  0
 94 93  1  0
 96 97  1  0
 96 94  1  0
 96 95  1  0
 98101  1  1
 98 99  1  0
100 98  1  0
102103  1  0
103104  1  0
104108  1  0
105106  1  0
106109  1  0
106110  1  0
107111  1  0
107105  2  0
108105  1  0
108113  1  0
112107  1  0
M  ISO  4  12 100  20 100  60 101  61 101
M  END
>  <TORSDO>  (88) 
F 33

>  <SCORE>  (88) 
-10.671

>  <name>  (88) 
87

>  <ligand_id>  (88) 
87

>  <original_smiles>  (88) 
[H]c1c([H])c([H])c2c(c1[H])C([H])([H])C([H])([H])C([H])([H])C2([H])N([H])C(=O)C1([H])N(C(=O)C([H])(N([H])C(=O)C([H])(N([H])C([H])([H])[H])C([H])([H])[H])C(C([H])([H])[H])(C([H])([H])[H])C([H])([H])[H])C([H])([H])c2c([H])c(OC([H])([H])C([H])(C([H])([H])[H])C([H])([H])[N+]([H])([H])C([H])([H])C([H])(C([H])([H])[H])C([H])([H])C([H])(C([H])([H])C([H])([H])C([H])([H])N([H])C(N([H])[H])=[N+]([H])[H])C([H])([H])C([H])(C(=O)N([H])[H])C([H])([H])C([H])([H])C([H])([H])N([H])C(=O)N3C([H])([H])C([H])([H])C([H])([H])C([H])(n4nc(-c5c([H])c([H])c(Oc6c([H])c([H])c(F)c([H])c6F)c([H])c5[H])c(C(=O)N([H])[H])c4N([H])[H])C3([H])[H])c([H])c([H])c2C1([H])[H]

>  <smiles>  (88) 
[H]c1c([H])c([H])c2c(c1[H])C([H])([H])C([H])([H])C([H])([H])C2([H])N([H])C(=O)C1([H])N(C(=O)C([H])(N([H])C(=O)C([H])(N([H])C([H])([H])[H])C([H])([H])[H])C(C([H])([H])[H])(C([H])([H])[H])C([H])([H])[H])C([H])([H])c2c([H])c(OC([H])([H])C([H])(C([H])([H])[H])C([H])([H])[N+]([H])([H])C([H])([H])C([H])(C([H])([H])[H])C([H])([H])C([H])(C([H])([H])C([H])([H])C([H])([H])N([H])C(N([H])[H])=[N+]([H])[H])C([H])([H])C([H])(C(=O)N([H])[H])C([H])([H])C([H])([H])C([H])([H])N([H])C(=O)N3C([H])([H])C([H])([H])C([H])([H])C([H])(n4nc(-c5c([H])c([H])c(Oc6c([H])c([H])c(F)c([H])c6F)c([H])c5[H])c(C(=O)N([H])[H])c4N([H])[H])C3([H])[H])c([H])c([H])c2C1([H])[H]

$$$$
88:0:0
     RDKit          3D

 92100  0  0  1  0  0  0  0  0999 V2000
  -29.5040  -18.9060   20.7660 C   0  0  0  0  0  0  0  0  0  0  0  0
  -29.6440  -22.6700   19.3080 C   0  0  0  0  0  2  0  0  0  0  0  0
  -28.1760  -22.5880   21.1850 C   0  0  0  0  0  2  0  0  0  0  0  0
  -30.2970  -21.2560   19.7360 C   0  0  0  0  0  2  0  0  0  0  0  0
  -28.8440  -21.2140   21.6350 C   0  0  0  0  0  2  0  0  0  0  0  0
  -29.0500  -23.6370   20.4140 C   0  0  0  0  0  3  0  0  0  0  0  0
  -29.5010  -20.3270   20.6100 N   0  0  0  0  0  0  0  0  0  0  0  0
  -28.8050  -18.4280   21.6640 O   0  0  0  0  0  0  0  0  0  0  0  0
  -28.2240  -24.9950   19.9190 C   0  0  0  0  0  2  0  0  0  0  0  0
  -28.4630  -26.4760   20.2440 O   0  0  0  0  0  0  0  0  0  0  0  0
  -24.6660  -31.9520   23.2700 C   0  0  0  0  0  0  0  0  0  0  0  0
  -27.3810  -27.4110   20.1620 C   0  0  0  0  0  0  0  0  0  0  0  0
  -23.5140  -30.5740   21.5820 C   0  0  0  0  0  3  0  0  0  0  0  0
  -25.0110  -29.0740   20.1390 C   0  0  0  0  0  0  0  0  0  0  0  0
  -26.0600  -30.9070   21.4560 C   0  0  0  0  0  2  0  0  0  0  0  0
  -26.1700  -29.5370   20.7750 C   0  0  0  0  0  0  0  0  0  0  0  0
  -27.3560  -28.7210   20.7750 C   0  0  0  0  0  3  0  0  0  0  0  0
  -26.2000  -27.0470   19.4750 C   0  0  0  0  0  3  0  0  0  0  0  0
  -25.0370  -27.8400   19.4750 C   0  0  0  0  0  3  0  0  0  0  0  0
  -23.7650  -29.9380   20.1890 C   0  0  0  0  0  2  0  0  0  0  0  0
  -24.7650  -31.1640   22.1580 N   0  0  0  0  0  0  0  0  0  0  0  0
  -23.5690  -32.2010   23.7920 O   0  0  0  0  0  0  0  0  0  0  0  0
  -22.8460  -29.5280   22.5080 C   0  0  0  0  0  0  0  0  0  0  0  0
  -21.5280  -29.3180   22.3420 N   0  0  0  0  0  0  0  0  0  0  0  0
  -23.5160  -28.9090   23.3400 O   0  0  0  0  0  0  0  0  0  0  0  0
  -21.0440  -29.8700   21.6470 H   0  0  0  0  0  0  0  0  0  0  0  0
  -18.1730  -28.0110   22.7300 C   0  0  0  0  0  0  0  0  0  0  0  0
  -20.7140  -28.3460   23.0770 C   0  0  0  0  0  3  0  0  0  0  0  0
  -20.8770  -26.9250   22.4900 C   0  0  0  0  0  2  0  0  0  0  0  0
  -19.8150  -26.5810   21.4400 C   0  0  0  0  0  2  0  0  0  0  0  0
  -18.4110  -26.6760   22.0440 C   0  0  0  0  0  2  0  0  0  0  0  0
  -19.2550  -28.8020   23.2010 C   0  0  0  0  0  0  0  0  0  0  0  0
  -18.9790  -30.0500   23.8020 C   0  0  0  0  0  3  0  0  0  0  0  0
  -17.6540  -30.5070   23.9370 C   0  0  0  0  0  3  0  0  0  0  0  0
  -16.5880  -29.7130   23.4820 C   0  0  0  0  0  3  0  0  0  0  0  0
  -16.8480  -28.4670   22.8840 C   0  0  0  0  0  3  0  0  0  0  0  0
  -25.9260  -32.5950   23.9280 C   0  0  0  0  0  3  0  0  0  0  0  0
  -26.3940  -31.8440   25.2350 C   0  0  1  0  0  0  0  0  0  0  0  0
  -25.2600  -31.6200   26.2630 C   0  0  0  0  0  1  0  0  0  0  0  0
  -26.9940  -30.4620   24.8900 C   0  0  0  0  0  1  0  0  0  0  0  0
  -27.5150  -32.6510   25.9290 C   0  0  0  0  0  1  0  0  0  0  0  0
  -25.6050  -33.9980   24.2280 N   0  0  0  0  0  0  0  0  0  0  0  0
  -25.9530  -35.0420   23.4650 C   0  0  0  0  0  0  0  0  0  0  0  0
  -26.6460  -34.9260   22.4510 O   0  0  0  0  0  0  0  0  0  0  0  0
  -24.9930  -34.1610   25.0150 H   0  0  0  0  0  0  0  0  0  0  0  0
  -24.2430  -36.8380   23.0370 C   0  0  0  0  0  1  0  0  0  0  0  0
  -25.4550  -36.4370   23.8930 C   0  0  0  0  0  3  0  0  0  0  0  0
  -27.5570  -37.3330   24.7920 C   0  0  0  0  0  1  0  0  0  0  0  0
  -26.4930  -37.4870   23.8040 N   0  0  0  0  0  0  0  0  0  0  0  0
  -26.0840  -38.4100   23.9210 H   0  0  0  0  0  0  0  0  0  0  0  0
  -30.2950  -17.7420   19.9400 C   0  0  0  0  0  3  0  0  0  0  0  0
  -30.8720  -15.0910   20.1920 C   0  0  0  0  0  0  0  0  0  0  0  0
  -30.6700  -12.8020   19.1770 C   0  0  0  0  0  2  0  0  0  0  0  0
  -29.7150  -12.8660   17.9640 C   0  0  0  0  0  2  0  0  0  0  0  0
  -28.2520  -12.6860   18.4110 C   0  0  0  0  0  2  0  0  0  0  0  0
  -27.8940  -13.5570   19.6440 C   0  0  0  0  0  3  0  0  0  0  0  0
  -28.9710  -13.4760   20.7490 C   0  0  0  0  0  2  0  0  0  0  0  0
  -30.2500  -13.8550   20.1370 N   0  0  0  0  0  0  0  0  0  0  0  0
  -32.0620  -15.1680   19.8710 O   0  0  0  0  0  0  0  0  0  0  0  0
  -30.0960  -16.2460   20.3560 N   0  0  0  0  0  0  0  0  0  0  0  0
  -29.1610  -16.0630   20.6850 H   0  0  0  0  0  0  0  0  0  0  0  0
  -25.5160  -14.1490   20.3950 C   0  0  0  0  0  0  0  0  0  0  0  0
  -24.4530  -13.3760   20.7720 C   0  0  0  0  0  0  0  0  0  0  0  0
  -24.9140  -12.0250   20.7370 C   0  0  0  0  0  0  0  0  0  0  0  0
  -26.5570  -13.2680   20.1490 N   0  0  0  0  0  0  0  0  0  0  0  0
  -26.2020  -11.9860   20.4190 N   0  0  0  0  0  0  0  0  0  0  0  0
  -24.1870  -10.7640   20.9300 C   0  0  0  0  0  0  0  0  0  0  0  0
  -24.5980   -9.8140   21.8920 C   0  0  0  0  0  3  0  0  0  0  0  0
  -23.8690   -8.6180   22.0730 C   0  0  0  0  0  3  0  0  0  0  0  0
  -22.7170   -8.3630   21.2920 C   0  0  0  0  0  0  0  0  0  0  0  0
  -22.3270   -9.3010   20.3200 C   0  0  0  0  0  3  0  0  0  0  0  0
  -23.0550  -10.4880   20.1370 C   0  0  0  0  0  3  0  0  0  0  0  0
  -21.9630   -7.2170   21.3810 O   0  0  0  0  0  0  0  0  0  0  0  0
  -21.8580   -6.5150   22.5550 C   0  0  0  0  0  0  0  0  0  0  0  0
  -21.3320   -7.1000   23.7290 C   0  0  0  0  0  3  0  0  0  0  0  0
  -21.1750   -6.3220   24.8930 C   0  0  0  0  0  3  0  0  0  0  0  0
  -21.5340   -4.9610   24.8840 C   0  0  0  0  0  0  0  0  0  0  0  0
  -22.0520   -4.3760   23.7170 C   0  0  0  0  0  3  0  0  0  0  0  0
  -22.2100   -5.1510   22.5530 C   0  0  0  0  0  0  0  0  0  0  0  0
  -22.6900   -4.5770   21.4240 F   0  0  0  0  0  0  0  0  0  0  0  0
  -21.3770   -4.2120   26.0010 F   0  0  0  0  0  0  0  0  0  0  0  0
  -23.0590  -13.8550   21.0520 C   0  0  0  0  0  0  0  0  0  0  0  0
  -22.3390  -13.1700   21.9350 N   0  0  0  0  0  0  0  0  0  0  0  0
  -22.6150  -14.8760   20.5260 O   0  0  0  0  0  0  0  0  0  0  0  0
  -22.7100  -12.3450   22.3830 H   0  0  0  0  0  0  0  0  0  0  0  0
  -21.4050  -13.4750   22.1640 H   0  0  0  0  0  0  0  0  0  0  0  0
  -25.6790  -15.5200   20.2170 N   0  0  0  0  0  0  0  0  0  0  0  0
  -24.9110  -16.1710   20.3350 H   0  0  0  0  0  0  0  0  0  0  0  0
  -26.5160  -15.9620   19.8630 H   0  0  0  0  0  0  0  0  0  0  0  0
  -31.1450  -17.1420   17.5590 C   0  0  0  0  0  1  0  0  0  0  0  0
  -28.6630  -17.4330   17.9500 C   0  0  0  0  0  1  0  0  0  0  0  0
  -30.0720  -17.8580   18.3990 C   0  0  0  0  0  3  0  0  0  0  0  0
  1  8  2  0
  2  4  1  0
  2  6  1  0
  3  5  1  0
  4  7  1  0
  6  9  1  0
  6  3  1  0
  7  1  1  0
  7  5  1  0
  9 10  1  0
 11 22  2  0
 12 10  1  0
 12 17  1  0
 13 21  1  0
 13 23  1  0
 14 20  1  0
 14 16  1  0
 15 21  1  0
 16 17  2  0
 16 15  1  0
 18 12  2  0
 19 18  1  0
 19 14  2  0
 20 13  1  0
 21 11  1  0
 23 25  2  0
 24 23  1  0
 26 24  1  0
 27 36  2  0
 27 32  1  0
 28 24  1  0
 28 32  1  0
 29 28  1  0
 30 31  1  0
 30 29  1  0
 31 27  1  0
 32 33  2  0
 33 34  1  0
 35 34  2  0
 36 35  1  0
 37 11  1  0
 37 42  1  0
 37 38  1  0
 38 41  1  1
 38 39  1  0
 40 38  1  0
 42 45  1  0
 43 47  1  0
 43 42  1  0
 44 43  2  0
 47 46  1  0
 49 47  1  0
 49 50  1  0
 49 48  1  0
 51 92  1  0
 51 60  1  0
 51  1  1  0
 52 60  1  0
 53 58  1  0
 54 55  1  0
 54 53  1  0
 56 55  1  0
 56 65  1  0
 56 57  1  0
 58 52  1  0
 58 57  1  0
 59 52  2  0
 60 61  1  0
 62 63  2  0
 63 82  1  0
 64 63  1  0
 64 67  1  0
 65 62  1  0
 65 66  1  0
 66 64  2  0
 67 68  1  0
 68 69  2  0
 70 73  1  0
 70 69  1  0
 71 70  2  0
 72 71  1  0
 72 67  2  0
 73 74  1  0
 74 75  1  0
 75 76  2  0
 77 76  1  0
 77 81  1  0
 78 77  2  0
 79 74  2  0
 79 78  1  0
 80 79  1  0
 82 83  1  0
 83 86  1  0
 83 85  1  0
 84 82  2  0
 87 88  1  0
 87 62  1  0
 89 87  1  0
 90 92  1  0
 91 92  1  0
M  ISO  4   9 101  10 101  52 100  60 100
M  END
>  <TORSDO>  (89) 
F 19

>  <SCORE>  (89) 
-12.950

>  <name>  (89) 
88

>  <ligand_id>  (89) 
88

>  <original_smiles>  (89) 
[H]c1c([H])c([H])c2c(c1[H])C([H])([H])C([H])([H])C([H])([H])C2([H])N([H])C(=O)C1([H])N(C(=O)C([H])(N([H])C(=O)C([H])(N([H])C([H])([H])[H])C([H])([H])[H])C(C([H])([H])[H])(C([H])([H])[H])C([H])([H])[H])C([H])([H])c2c([H])c(OC([H])([H])C3([H])C([H])([H])C([H])([H])N(C(=O)C([H])(N([H])C(=O)N4C([H])([H])C([H])([H])C([H])([H])C([H])(n5nc(-c6c([H])c([H])c(Oc7c([H])c([H])c(F)c([H])c7F)c([H])c6[H])c(C(=O)N([H])[H])c5N([H])[H])C4([H])[H])C([H])(C([H])([H])[H])C([H])([H])[H])C([H])([H])C3([H])[H])c([H])c([H])c2C1([H])[H]

>  <smiles>  (89) 
[H]c1c([H])c([H])c2c(c1[H])C([H])([H])C([H])([H])C([H])([H])C2([H])N([H])C(=O)C1([H])N(C(=O)C([H])(N([H])C(=O)C([H])(N([H])C([H])([H])[H])C([H])([H])[H])C(C([H])([H])[H])(C([H])([H])[H])C([H])([H])[H])C([H])([H])c2c([H])c(OC([H])([H])C3([H])C([H])([H])C([H])([H])N(C(=O)C([H])(N([H])C(=O)N4C([H])([H])C([H])([H])C([H])([H])C([H])(n5nc(-c6c([H])c([H])c(Oc7c([H])c([H])c(F)c([H])c7F)c([H])c6[H])c(C(=O)N([H])[H])c5N([H])[H])C4([H])[H])C([H])(C([H])([H])[H])C([H])([H])[H])C([H])([H])C3([H])[H])c([H])c([H])c2C1([H])[H]

$$$$
89:0:0
     RDKit          3D

 97 99  0  0  1  0  0  0  0  0999 V2000
  -16.1440  -25.3320   21.9660 C   0  0  0  0  0  3  0  0  0  0  0  0
  -17.0470  -26.9810   22.1400 C   0  0  0  0  0  3  0  0  0  0  0  0
  -16.8470  -23.7530   21.2210 C   0  0  0  0  0  3  0  0  0  0  0  0
  -18.7090  -27.2700   21.3200 C   0  0  0  0  0  1  0  0  0  0  0  0
  -18.3760  -23.4890   20.1060 C   0  0  0  0  0  3  0  0  0  0  0  0
  -19.5200  -24.8610   19.3300 C   0  0  0  0  0  2  0  0  0  0  0  0
  -19.2410  -23.8620   17.4450 C   0  0  0  0  0  2  0  0  0  0  0  0
  -18.5310  -22.8440   17.4800 O   0  0  0  0  0  1  0  0  0  0  0  0
  -19.7900  -23.8440   15.2830 C   0  0  0  0  0  2  0  0  0  0  0  0
  -19.2620  -23.4170   13.7820 N   0  0  0  0  0  2  0  0  0  0  0  0
  -20.9070  -24.3030   15.0780 O   0  0  0  0  0  1  0  0  0  0  0  0
  -18.4600  -22.8440   14.0370 H   0  0  0  0  0  0  0  0  0  0  0  0
  -19.3570  -23.6880   11.8500 C   0  0  0  0  0 15  0  0  0  0  0  0
  -19.7460  -23.0360    9.8550 C   0  0  0  0  0 15  0  0  0  0  0  0
  -19.8200  -23.1600    6.3350 C   0  0  0  0  0  0  0  0  0  0  0  0
  -19.0310  -23.5710    3.6880 C   0  0  0  0  0  2  0  0  0  0  0  0
  -18.0290  -24.7560    3.4120 C   0  0  0  0  0  2  0  0  0  0  0  0
  -16.6290  -24.4740    4.0060 C   0  0  0  0  0  2  0  0  0  0  0  0
  -16.8060  -23.7540    5.3540 C   0  0  0  0  0  3  0  0  0  0  0  0
  -17.6380  -22.4910    5.2130 C   0  0  0  0  0  2  0  0  0  0  0  0
  -18.9420  -23.0590    5.1610 N   0  0  0  0  0  0  0  0  0  0  0  0
  -20.9460  -23.3110    5.7510 O   0  0  0  0  0  0  0  0  0  0  0  0
  -19.4020  -23.1680    7.9520 N   0  0  0  0  0  2  0  0  0  0  0  0
  -18.3940  -23.0300    7.8880 H   0  0  0  0  0  0  0  0  0  0  0  0
  -15.3130  -23.6520    7.3610 C   0  0  0  0  0  0  0  0  0  0  0  0
  -14.0780  -23.1070    7.5420 C   0  0  0  0  0  0  0  0  0  0  0  0
  -13.7190  -22.5170    6.2910 C   0  0  0  0  0  0  0  0  0  0  0  0
  -15.6140  -23.4010    6.0360 N   0  0  0  0  0  0  0  0  0  0  0  0
  -14.7030  -22.6310    5.4150 N   0  0  0  0  0  0  0  0  0  0  0  0
  -12.4650  -21.9130    5.8450 C   0  0  0  0  0  0  0  0  0  0  0  0
  -12.4250  -20.6120    5.2980 C   0  0  0  0  0  3  0  0  0  0  0  0
  -11.2000  -20.0510    4.8820 C   0  0  0  0  0  3  0  0  0  0  0  0
  -10.0040  -20.7910    5.0190 C   0  0  0  0  0  0  0  0  0  0  0  0
  -10.0520  -22.0960    5.5390 C   0  0  0  0  0  3  0  0  0  0  0  0
  -11.2720  -22.6570    5.9470 C   0  0  0  0  0  3  0  0  0  0  0  0
   -8.7700  -20.3320    4.6320 O   0  0  0  0  0  0  0  0  0  0  0  0
   -8.4870  -18.9910    4.5860 C   0  0  0  0  0  0  0  0  0  0  0  0
   -8.5610  -18.1720    5.7340 C   0  0  0  0  0  3  0  0  0  0  0  0
   -8.1970  -16.8140    5.6520 C   0  0  0  0  0  3  0  0  0  0  0  0
   -7.7500  -16.2770    4.4290 C   0  0  0  0  0  0  0  0  0  0  0  0
   -7.6730  -17.0920    3.2870 C   0  0  0  0  0  3  0  0  0  0  0  0
   -8.0420  -18.4470    3.3660 C   0  0  0  0  0  0  0  0  0  0  0  0
   -7.9500  -19.2350    2.2660 F   0  0  0  0  0  0  0  0  0  0  0  0
   -7.3870  -14.9770    4.3540 F   0  0  0  0  0  0  0  0  0  0  0  0
  -13.2240  -23.2490    8.7620 C   0  0  0  0  0  0  0  0  0  0  0  0
  -12.4240  -22.2370    9.0690 N   0  0  0  0  0  0  0  0  0  0  0  0
  -13.3070  -24.2470    9.4790 O   0  0  0  0  0  0  0  0  0  0  0  0
  -12.3680  -21.4100    8.4950 H   0  0  0  0  0  0  0  0  0  0  0  0
  -11.8550  -22.2820    9.9020 H   0  0  0  0  0  0  0  0  0  0  0  0
  -16.1940  -24.3580    8.1860 N   0  0  0  0  0  0  0  0  0  0  0  0
  -15.8430  -24.6550    9.0880 H   0  0  0  0  0  0  0  0  0  0  0  0
  -16.7750  -25.0730    7.7660 H   0  0  0  0  0  0  0  0  0  0  0  0
  -20.4540  -25.3810   17.7420 C   0  0  0  0  0  3  0  0  0  0  0  0
  -21.9780  -25.7410   17.1130 C   0  0  0  0  0  2  0  0  0  0  0  0
  -23.3720  -24.9910   16.9300 C   0  0  0  0  0  2  0  0  0  0  0  0
  -23.6990  -24.0150   15.6410 C   0  0  0  0  0  2  0  0  0  0  0  0
  -24.5900  -24.2550   14.4450 O   0  0  0  0  0  0  0  0  0  0  0  0
  -29.6050  -27.1720   17.9610 C   0  0  0  0  0  0  0  0  0  0  0  0
  -25.1050  -25.4940   14.5000 C   0  0  0  0  0  0  0  0  0  0  0  0
  -27.4400  -28.3190   17.8500 C   0  0  0  0  0  3  0  0  0  0  0  0
  -25.9130  -27.7410   15.8850 C   0  0  0  0  0  0  0  0  0  0  0  0
  -28.3230  -27.0760   15.8310 C   0  0  0  0  0  2  0  0  0  0  0  0
  -26.8790  -26.8270   15.4450 C   0  0  0  0  0  0  0  0  0  0  0  0
  -26.4850  -25.6780   14.7360 C   0  0  0  0  0  3  0  0  0  0  0  0
  -24.1750  -26.5190   14.7160 C   0  0  0  0  0  3  0  0  0  0  0  0
  -24.5840  -27.6450   15.4400 C   0  0  0  0  0  3  0  0  0  0  0  0
  -26.3880  -28.8360   16.8130 C   0  0  0  0  0  2  0  0  0  0  0  0
  -28.5060  -27.5010   17.2300 N   0  0  0  0  0  0  0  0  0  0  0  0
  -29.7580  -27.6020   19.1120 O   0  0  0  0  0  0  0  0  0  0  0  0
  -26.7690  -27.5690   19.0040 C   0  0  0  0  0  0  0  0  0  0  0  0
  -26.3300  -28.3400   19.9910 N   0  0  0  0  0  0  0  0  0  0  0  0
  -26.6160  -26.3460   18.9940 O   0  0  0  0  0  0  0  0  0  0  0  0
  -26.5530  -29.3230   19.9750 H   0  0  0  0  0  0  0  0  0  0  0  0
  -23.8010  -28.7810   22.8900 C   0  0  0  0  0  3  0  0  0  0  0  0
  -25.1800  -27.9510   20.7570 C   0  0  0  0  0  3  0  0  0  0  0  0
  -23.9570  -28.1460   19.5430 C   0  0  0  0  0  2  0  0  0  0  0  0
  -22.0770  -28.4310   19.8630 C   0  0  0  0  0  2  0  0  0  0  0  0
  -21.8040  -28.6190   21.6920 C   0  0  0  0  0  1  0  0  0  0  0  0
  -25.1570  -28.6040   22.2210 C   0  0  0  0  0  0  0  0  0  0  0  0
  -26.3960  -29.3150   22.5690 C   0  0  0  0  0  3  0  0  0  0  0  0
  -26.4860  -30.4330   23.4190 C   0  0  0  0  0  3  0  0  0  0  0  0
  -25.3220  -30.7040   24.1200 C   0  0  0  0  0  3  0  0  0  0  0  0
  -24.1940  -29.8150   23.9540 C   0  0  0  0  0  3  0  0  0  0  0  0
  -30.7260  -26.2610   17.3810 C   0  0  0  0  0  3  0  0  0  0  0  0
  -31.9590  -26.5840   18.1090 N   0  0  0  0  0  0  0  0  0  0  0  0
  -32.7780  -27.5920   17.7840 C   0  0  0  0  0  0  0  0  0  0  0  0
  -32.6080  -28.2940   16.7820 O   0  0  0  0  0  0  0  0  0  0  0  0
  -32.1400  -26.0700   18.9590 H   0  0  0  0  0  0  0  0  0  0  0  0
  -33.6590  -29.0550   19.6300 C   0  0  0  0  0  1  0  0  0  0  0  0
  -33.9760  -27.8630   18.7130 C   0  0  0  0  0  3  0  0  0  0  0  0
  -35.7460  -26.9340   17.2870 C   0  0  0  0  0  1  0  0  0  0  0  0
  -35.2400  -28.1130   17.9860 N   0  0  0  0  0  0  0  0  0  0  0  0
  -35.9640  -28.4390   18.6200 H   0  0  0  0  0  0  0  0  0  0  0  0
  -30.3970  -24.7220   17.4910 C   0  0  1  0  0  0  0  0  0  0  0  0
  -29.9070  -24.2800   18.8910 C   0  0  0  0  0  1  0  0  0  0  0  0
  -29.3150  -24.3230   16.4630 C   0  0  0  0  0  1  0  0  0  0  0  0
  -31.6590  -23.8950   17.1480 C   0  0  0  0  0  1  0  0  0  0  0  0
  1  2  2  0
  3  1  1  0
  4  2  1  0
  5  3  2  0
  6  5  1  0
  7  8  1  0
  7 53  1  0
 10 12  1  0
 10  9  1  0
 11  9  1  0
 15 23  1  0
 16 21  1  0
 17 16  1  0
 17 18  1  0
 19 18  1  0
 19 28  1  0
 20 19  1  0
 21 20  1  0
 21 15  1  0
 22 15  2  0
 24 23  1  0
 25 26  2  0
 25 50  1  0
 26 45  1  0
 27 26  1  0
 28 25  1  0
 29 28  1  0
 29 27  2  0
 30 35  1  0
 30 27  1  0
 31 30  2  0
 32 33  2  0
 32 31  1  0
 33 34  1  0
 34 35  2  0
 36 33  1  0
 37 36  1  0
 37 38  1  0
 39 38  2  0
 40 39  1  0
 41 42  1  0
 41 40  2  0
 42 37  2  0
 43 42  1  0
 44 40  1  0
 45 46  1  0
 45 47  2  0
 46 49  1  0
 48 46  1  0
 50 51  1  0
 52 50  1  0
 53 54  1  0
 53  6  1  0
 55 54  1  0
 56 55  1  0
 57 59  1  0
 57 56  1  0
 58 69  2  0
 59 65  2  0
 59 64  1  0
 60 70  1  0
 61 67  1  0
 62 68  1  0
 63 62  1  0
 63 61  1  0
 64 63  2  0
 65 66  1  0
 66 61  2  0
 67 60  1  0
 68 60  1  0
 68 58  1  0
 70 71  1  0
 71 75  1  0
 72 70  2  0
 73 71  1  0
 74 83  1  0
 75 76  1  0
 75 79  1  0
 76 77  1  0
 77 78  1  0
 79 80  1  0
 79 74  2  0
 80 81  2  0
 81 82  1  0
 83 82  2  0
 84 94  1  0
 84 58  1  0
 84 85  1  0
 85 88  1  0
 86 85  1  0
 86 90  1  0
 87 86  2  0
 90 89  1  0
 91 92  1  0
 92 93  1  0
 92 90  1  0
 94 95  1  1
 96 94  1  0
 97 94  1  0
M  ISO  4  15 100  23 100  56 101  57 101
M  END
>  <TORSDO>  (90) 
F 24

>  <SCORE>  (90) 
-5.508

>  <name>  (90) 
89

>  <ligand_id>  (90) 
89

>  <original_smiles>  (90) 
[H]c1c([H])c([H])c2c(c1[H])C([H])([H])C([H])([H])C([H])([H])C2([H])N([H])C(=O)C1([H])N(C(=O)C([H])(N([H])C(=O)C([H])(N([H])C([H])([H])[H])C([H])([H])[H])C(C([H])([H])[H])(C([H])([H])[H])C([H])([H])[H])C([H])([H])c2c([H])c(OC([H])([H])C([H])([H])C([H])([H])C([H])([H])C3(C(=O)C(=O)N([H])C([H])([H])C([H])([H])N([H])C(=O)N4C([H])([H])C([H])([H])C([H])([H])C([H])(n5nc(-c6c([H])c([H])c(Oc7c([H])c([H])c(F)c([H])c7F)c([H])c6[H])c(C(=O)N([H])[H])c5N([H])[H])C4([H])[H])C([H])([H])C([H])([H])C([H])([H])C([H])([H])C3([H])[H])c([H])c([H])c2C1([H])[H]

>  <smiles>  (90) 
[H]c1c([H])c([H])c2c(c1[H])C([H])([H])C([H])([H])C([H])([H])C2([H])N([H])C(=O)C1([H])N(C(=O)C([H])(N([H])C(=O)C([H])(N([H])C([H])([H])[H])C([H])([H])[H])C(C([H])([H])[H])(C([H])([H])[H])C([H])([H])[H])C([H])([H])c2c([H])c(OC([H])([H])C([H])([H])C([H])([H])C([H])([H])C3(C(=O)C(=O)N([H])C([H])([H])C([H])([H])N([H])C(=O)N4C([H])([H])C([H])([H])C([H])([H])C([H])(n5nc(-c6c([H])c([H])c(Oc7c([H])c([H])c(F)c([H])c7F)c([H])c6[H])c(C(=O)N([H])[H])c5N([H])[H])C4([H])[H])C([H])([H])C([H])([H])C([H])([H])C([H])([H])C3([H])[H])c([H])c([H])c2C1([H])[H]

$$$$
90:0:0
     RDKit          3D

101108  0  0  1  0  0  0  0  0999 V2000
  -31.9620  -22.1370   18.5180 C   0  0  0  0  0  2  0  0  0  0  0  0
  -31.0300  -21.4010   19.4950 C   0  0  0  0  0  2  0  0  0  0  0  0
  -31.4660  -19.9470   19.7430 C   0  0  0  0  0  2  0  0  0  0  0  0
  -31.3190  -18.9600   22.0890 C   0  0  0  0  0  1  0  0  0  0  0  0
  -30.5670  -19.2190   20.7710 C   0  0  0  0  0  3  0  0  0  0  0  0
  -29.8380  -17.9520   20.2280 C   0  0  0  0  0  3  0  0  0  0  0  0
  -27.6630  -17.3520   18.9480 C   0  0  0  0  0  1  0  0  0  0  0  0
  -28.8110  -18.3480   19.1280 C   0  0  0  0  0  2  0  0  0  0  0  0
  -30.8020  -16.7610   19.8790 C   0  0  0  0  0  3  0  0  0  0  0  0
  -31.0170  -14.4160   20.7470 C   0  0  0  0  0  0  0  0  0  0  0  0
  -30.7130  -12.2430   19.7040 C   0  0  0  0  0  2  0  0  0  0  0  0
  -29.8570  -12.4750   18.4410 C   0  0  0  0  0  2  0  0  0  0  0  0
  -28.3570  -12.3900   18.7810 C   0  0  0  0  0  2  0  0  0  0  0  0
  -27.9590  -13.2510   20.0110 C   0  0  0  0  0  3  0  0  0  0  0  0
  -28.9470  -13.0530   21.1850 C   0  0  0  0  0  2  0  0  0  0  0  0
  -30.3110  -13.2600   20.6780 N   0  0  0  0  0  0  0  0  0  0  0  0
  -32.2430  -14.4660   20.6840 O   0  0  0  0  0  0  0  0  0  0  0  0
  -30.2850  -15.5040   20.4610 N   0  0  0  0  0  0  0  0  0  0  0  0
  -29.2860  -15.3800   20.4600 H   0  0  0  0  0  0  0  0  0  0  0  0
  -25.5370  -13.9100   20.5740 C   0  0  0  0  0  0  0  0  0  0  0  0
  -24.4310  -13.1670   20.8790 C   0  0  0  0  0  0  0  0  0  0  0  0
  -24.8660  -11.8060   20.8900 C   0  0  0  0  0  0  0  0  0  0  0  0
  -26.5760  -13.0080   20.4140 N   0  0  0  0  0  0  0  0  0  0  0  0
  -26.1720  -11.7370   20.6650 N   0  0  0  0  0  0  0  0  0  0  0  0
  -24.1010  -10.5630   21.0430 C   0  0  0  0  0  0  0  0  0  0  0  0
  -24.4790   -9.5760   21.9790 C   0  0  0  0  0  3  0  0  0  0  0  0
  -23.7170   -8.3960   22.1190 C   0  0  0  0  0  3  0  0  0  0  0  0
  -22.5640   -8.1970   21.3230 C   0  0  0  0  0  0  0  0  0  0  0  0
  -22.2060   -9.1730   20.3760 C   0  0  0  0  0  3  0  0  0  0  0  0
  -22.9680  -10.3450   20.2350 C   0  0  0  0  0  3  0  0  0  0  0  0
  -21.7780   -7.0700   21.3730 O   0  0  0  0  0  0  0  0  0  0  0  0
  -21.6890   -6.3070   22.5080 C   0  0  0  0  0  0  0  0  0  0  0  0
  -21.2530   -6.8470   23.7370 C   0  0  0  0  0  3  0  0  0  0  0  0
  -21.1100   -6.0100   24.8620 C   0  0  0  0  0  3  0  0  0  0  0  0
  -21.3890   -4.6350   24.7580 C   0  0  0  0  0  0  0  0  0  0  0  0
  -21.8180   -4.0940   23.5330 C   0  0  0  0  0  3  0  0  0  0  0  0
  -21.9650   -4.9280   22.4110 C   0  0  0  0  0  0  0  0  0  0  0  0
  -22.3580   -4.3990   21.2270 F   0  0  0  0  0  0  0  0  0  0  0  0
  -21.2430   -3.8280   25.8360 F   0  0  0  0  0  0  0  0  0  0  0  0
  -23.0300  -13.6810   21.0500 C   0  0  0  0  0  0  0  0  0  0  0  0
  -22.2330  -13.0220   21.8850 N   0  0  0  0  0  0  0  0  0  0  0  0
  -22.6480  -14.7020   20.4820 O   0  0  0  0  0  0  0  0  0  0  0  0
  -22.5490  -12.1960   22.3720 H   0  0  0  0  0  0  0  0  0  0  0  0
  -21.2920  -13.3540   22.0410 H   0  0  0  0  0  0  0  0  0  0  0  0
  -25.7330  -15.2730   20.3950 N   0  0  0  0  0  0  0  0  0  0  0  0
  -24.9630  -15.9310   20.4430 H   0  0  0  0  0  0  0  0  0  0  0  0
  -26.5970  -15.6940   20.0840 H   0  0  0  0  0  0  0  0  0  0  0  0
  -31.1120  -16.5980   18.3520 C   0  0  0  0  0  2  0  0  0  0  0  0
  -33.6790  -16.5230   18.4340 C   0  0  0  0  0  1  0  0  0  0  0  0
  -32.4520  -15.6580   16.4130 C   0  0  0  0  0  1  0  0  0  0  0  0
  -32.3940  -15.8350   17.9400 C   0  0  0  0  0  3  0  0  0  0  0  0
  -31.4450  -23.5250   18.1010 C   0  0  0  0  0  2  0  0  0  0  0  0
  -30.7550  -25.5060   19.0810 C   0  0  0  0  0  3  0  0  0  0  0  0
  -31.5080  -24.4820   19.1990 N   0  0  0  0  0  0  0  0  0  0  0  0
  -30.7410  -26.6860   20.0450 C   0  0  0  0  0  3  0  0  0  0  0  0
  -31.9770  -26.6560   20.8600 N   0  0  0  0  0  4  0  0  0  0  0  0
  -31.9990  -25.8140   21.4090 H   0  0  0  0  0  0  0  0  0  0  0  0
  -32.0630  -27.4550   21.4620 H   0  0  0  0  0  0  0  0  0  0  0  0
  -32.7720  -26.6190   20.2450 H   0  0  0  0  0  0  0  0  0  0  0  0
  -29.4630  -26.7470   20.9180 C   0  0  0  0  0  2  0  0  0  0  0  0
  -28.3160  -26.6130   20.0810 O   0  0  0  0  0  0  0  0  0  0  0  0
  -24.5470  -31.8580   23.2530 C   0  0  0  0  0  0  0  0  0  0  0  0
  -27.1990  -27.4110   20.2050 C   0  0  0  0  0  0  0  0  0  0  0  0
  -23.3380  -30.4570   21.6100 C   0  0  0  0  0  3  0  0  0  0  0  0
  -24.7930  -28.9010   20.2100 C   0  0  0  0  0  0  0  0  0  0  0  0
  -25.8620  -30.8060   21.4190 C   0  0  0  0  0  2  0  0  0  0  0  0
  -25.9480  -29.4280   20.8030 C   0  0  0  0  0  0  0  0  0  0  0  0
  -27.1520  -28.6900   20.8100 C   0  0  0  0  0  3  0  0  0  0  0  0
  -26.0260  -26.8940   19.6170 C   0  0  0  0  0  3  0  0  0  0  0  0
  -24.8230  -27.6250   19.6210 C   0  0  0  0  0  3  0  0  0  0  0  0
  -23.5510  -29.7630   20.2380 C   0  0  0  0  0  2  0  0  0  0  0  0
  -24.6000  -31.0540   22.1530 N   0  0  0  0  0  0  0  0  0  0  0  0
  -23.4640  -32.1390   23.7870 O   0  0  0  0  0  0  0  0  0  0  0  0
  -22.6760  -29.4450   22.5730 C   0  0  0  0  0  0  0  0  0  0  0  0
  -21.3510  -29.2680   22.4350 N   0  0  0  0  0  0  0  0  0  0  0  0
  -23.3500  -28.8200   23.3960 O   0  0  0  0  0  0  0  0  0  0  0  0
  -20.8700  -29.8220   21.7400 H   0  0  0  0  0  0  0  0  0  0  0  0
  -17.9720  -28.0880   22.9040 C   0  0  0  0  0  0  0  0  0  0  0  0
  -20.5250  -28.3400   23.2060 C   0  0  0  0  0  3  0  0  0  0  0  0
  -20.6320  -26.9040   22.6450 C   0  0  0  0  0  2  0  0  0  0  0  0
  -19.5420  -26.5750   21.6200 C   0  0  0  0  0  2  0  0  0  0  0  0
  -18.1520  -26.7320   22.2450 C   0  0  0  0  0  2  0  0  0  0  0  0
  -19.0860  -28.8500   23.3410 C   0  0  0  0  0  0  0  0  0  0  0  0
  -18.8650  -30.1210   23.9150 C   0  0  0  0  0  3  0  0  0  0  0  0
  -17.5600  -30.6270   24.0590 C   0  0  0  0  0  3  0  0  0  0  0  0
  -16.4590  -29.8620   23.6380 C   0  0  0  0  0  3  0  0  0  0  0  0
  -16.6650  -28.5940   23.0660 C   0  0  0  0  0  3  0  0  0  0  0  0
  -25.8370  -32.4790   23.8750 C   0  0  0  0  0  3  0  0  0  0  0  0
  -26.3400  -31.7130   25.1600 C   0  0  1  0  0  0  0  0  0  0  0  0
  -25.2390  -31.5000   26.2250 C   0  0  0  0  0  1  0  0  0  0  0  0
  -26.9090  -30.3260   24.7840 C   0  0  0  0  0  1  0  0  0  0  0  0
  -27.4970  -32.5010   25.8190 C   0  0  0  0  0  1  0  0  0  0  0  0
  -25.5420  -33.8830   24.1860 N   0  0  0  0  0  0  0  0  0  0  0  0
  -25.8960  -34.9220   23.4180 C   0  0  0  0  0  0  0  0  0  0  0  0
  -26.5780  -34.7970   22.3970 O   0  0  0  0  0  0  0  0  0  0  0  0
  -24.9340  -34.0520   24.9760 H   0  0  0  0  0  0  0  0  0  0  0  0
  -24.1950  -36.7290   23.0180 C   0  0  0  0  0  1  0  0  0  0  0  0
  -25.4180  -36.3210   23.8530 C   0  0  0  0  0  3  0  0  0  0  0  0
  -27.5530  -37.1840   24.7050 C   0  0  0  0  0  1  0  0  0  0  0  0
  -26.4660  -37.3590   23.7470 N   0  0  0  0  0  0  0  0  0  0  0  0
  -26.0670  -38.2860   23.8830 H   0  0  0  0  0  0  0  0  0  0  0  0
  1  2  1  0
  2  3  1  0
  3  5  1  0
  5  4  1  0
  6  8  1  0
  6  5  1  0
  7  8  1  0
  9 48  1  0
  9  6  1  0
  9 18  1  0
 11 16  1  0
 12 13  1  0
 12 11  1  0
 14 13  1  0
 14 23  1  0
 14 15  1  0
 16 10  1  0
 16 15  1  0
 17 10  2  0
 18 10  1  0
 19 18  1  0
 20 21  2  0
 21 22  1  0
 21 40  1  0
 22 25  1  0
 23 20  1  0
 23 24  1  0
 24 22  2  0
 25 26  1  0
 26 27  2  0
 28 31  1  0
 28 27  1  0
 29 28  2  0
 30 29  1  0
 30 25  2  0
 31 32  1  0
 32 33  1  0
 33 34  2  0
 35 34  1  0
 35 39  1  0
 36 35  2  0
 37 32  2  0
 37 36  1  0
 38 37  1  0
 40 41  1  0
 41 44  1  0
 41 43  1  0
 42 40  2  0
 45 46  1  0
 45 20  1  0
 47 45  1  0
 50 51  1  0
 51 48  1  0
 51 49  1  0
 52  1  1  0
 52 54  1  0
 53 54  2  0
 55 53  1  0
 55 56  1  0
 55 60  1  0
 56 57  1  0
 56 58  1  0
 59 56  1  0
 61 63  1  0
 61 60  1  0
 62 73  2  0
 63 68  1  0
 64 72  1  0
 64 74  1  0
 65 71  1  0
 65 67  1  0
 66 72  1  0
 67 68  2  0
 67 66  1  0
 69 70  1  0
 69 63  2  0
 70 65  2  0
 71 64  1  0
 72 62  1  0
 74 76  2  0
 75 74  1  0
 77 75  1  0
 78 87  2  0
 78 83  1  0
 79 75  1  0
 79 83  1  0
 80 79  1  0
 81 82  1  0
 81 80  1  0
 82 78  1  0
 83 84  2  0
 84 85  1  0
 86 85  2  0
 87 86  1  0
 88 62  1  0
 88 93  1  0
 88 89  1  0
 89 92  1  1
 89 90  1  0
 91 89  1  0
 93 96  1  0
 94 98  1  0
 94 93  1  0
 95 94  2  0
 98 97  1  0
100 98  1  0
100101  1  0
100 99  1  0
M  ISO  4  10 100  18 100  60 101  61 101
M  END
>  <TORSDO>  (91) 
F 29

>  <SCORE>  (91) 
-11.401

>  <name>  (91) 
90

>  <ligand_id>  (91) 
90

>  <original_smiles>  (91) 
[H]C(=NC([H])([H])C([H])([H])C([H])([H])C([H])([H])C([H])(C([H])([H])[H])C([H])(C([H])([H])C([H])([H])[H])C([H])(N([H])C(=O)N1C([H])([H])C([H])([H])C([H])([H])C([H])(n2nc(-c3c([H])c([H])c(Oc4c([H])c([H])c(F)c([H])c4F)c([H])c3[H])c(C(=O)N([H])[H])c2N([H])[H])C1([H])[H])C([H])([H])C([H])(C([H])([H])[H])C([H])([H])[H])C([H])(C([H])([H])Oc1c([H])c([H])c2c(c1[H])C([H])([H])N(C(=O)C([H])(N([H])C(=O)C([H])(N([H])C([H])([H])[H])C([H])([H])[H])C(C([H])([H])[H])(C([H])([H])[H])C([H])([H])[H])C([H])(C(=O)N([H])C1([H])c3c([H])c([H])c([H])c([H])c3C([H])([H])C([H])([H])C1([H])[H])C2([H])[H])[N+]([H])([H])[H]

>  <smiles>  (91) 
[H]C(=NC([H])([H])C([H])([H])C([H])([H])C([H])([H])C([H])(C([H])([H])[H])C([H])(C([H])([H])C([H])([H])[H])C([H])(N([H])C(=O)N1C([H])([H])C([H])([H])C([H])([H])C([H])(n2nc(-c3c([H])c([H])c(Oc4c([H])c([H])c(F)c([H])c4F)c([H])c3[H])c(C(=O)N([H])[H])c2N([H])[H])C1([H])[H])C([H])([H])C([H])(C([H])([H])[H])C([H])([H])[H])C([H])(C([H])([H])Oc1c([H])c([H])c2c(c1[H])C([H])([H])N(C(=O)C([H])(N([H])C(=O)C([H])(N([H])C([H])([H])[H])C([H])([H])[H])C(C([H])([H])[H])(C([H])([H])[H])C([H])([H])[H])C([H])(C(=O)N([H])C1([H])c3c([H])c([H])c([H])c([H])c3C([H])([H])C([H])([H])C1([H])[H])C2([H])[H])[N+]([H])([H])[H]

$$$$
91:0:0
     RDKit          3D

 96104  0  0  1  0  0  0  0  0999 V2000
  -42.6130  -26.8210   17.4140 C   0  0  0  0  0  2  0  0  0  0  0  0
  -40.7350  -26.6640   15.7060 C   0  0  0  0  0  1  0  0  0  0  0  0
  -41.4530  -27.6010   16.6990 C   0  0  0  0  0  3  0  0  0  0  0  0
  -41.9220  -28.8600   16.0250 N   0  0  0  0  0  4  0  0  0  0  0  0
  -42.6220  -29.2800   16.6220 H   0  0  0  0  0  0  0  0  0  0  0  0
  -42.3700  -28.6100   15.1570 H   0  0  0  0  0  0  0  0  0  0  0  0
  -40.8850  -29.9020   15.7330 C   0  0  0  0  0  2  0  0  0  0  0  0
  -41.4030  -31.0770   14.8610 C   0  0  0  0  0  2  0  0  0  0  0  0
  -40.7180  -32.3140   15.1550 O   0  0  0  0  0  0  0  0  0  0  0  0
  -40.8290  -37.0160   20.4960 C   0  0  0  0  0  0  0  0  0  0  0  0
  -40.5140  -32.5500   16.4950 C   0  0  0  0  0  0  0  0  0  0  0  0
  -40.6680  -34.6290   21.1510 C   0  0  0  0  0  3  0  0  0  0  0  0
  -40.1490  -32.9960   19.2580 C   0  0  0  0  0  0  0  0  0  0  0  0
  -39.7300  -35.4370   18.9150 C   0  0  0  0  0  2  0  0  0  0  0  0
  -40.0340  -34.0620   18.3570 C   0  0  0  0  0  0  0  0  0  0  0  0
  -40.2160  -33.8460   16.9720 C   0  0  0  0  0  3  0  0  0  0  0  0
  -40.6140  -31.4810   17.4090 C   0  0  0  0  0  3  0  0  0  0  0  0
  -40.4450  -31.7020   18.7880 C   0  0  0  0  0  3  0  0  0  0  0  0
  -39.9590  -33.3110   20.7240 C   0  0  0  0  0  2  0  0  0  0  0  0
  -40.4390  -35.7480   20.1780 N   0  0  0  0  0  0  0  0  0  0  0  0
  -41.3350  -37.2740   21.5970 O   0  0  0  0  0  0  0  0  0  0  0  0
  -42.1650  -34.3310   21.3900 C   0  0  0  0  0  0  0  0  0  0  0  0
  -42.4630  -33.1100   21.8620 N   0  0  0  0  0  0  0  0  0  0  0  0
  -43.0260  -35.1720   21.1280 O   0  0  0  0  0  0  0  0  0  0  0  0
  -41.6930  -32.4890   22.0630 H   0  0  0  0  0  0  0  0  0  0  0  0
  -44.3640  -30.0730   22.3120 C   0  0  0  0  0  0  0  0  0  0  0  0
  -43.8060  -32.5890   22.1240 C   0  0  0  0  0  3  0  0  0  0  0  0
  -44.6620  -32.5790   20.8350 C   0  0  0  0  0  2  0  0  0  0  0  0
  -44.6010  -31.2450   20.0830 C   0  0  0  0  0  2  0  0  0  0  0  0
  -45.0900  -30.1020   20.9770 C   0  0  0  0  0  2  0  0  0  0  0  0
  -43.7500  -31.2380   22.8410 C   0  0  0  0  0  0  0  0  0  0  0  0
  -43.0580  -31.1480   24.0680 C   0  0  0  0  0  3  0  0  0  0  0  0
  -42.9830  -29.9290   24.7640 C   0  0  0  0  0  3  0  0  0  0  0  0
  -43.6150  -28.7850   24.2490 C   0  0  0  0  0  3  0  0  0  0  0  0
  -44.3030  -28.8570   23.0230 C   0  0  0  0  0  3  0  0  0  0  0  0
  -40.6370  -38.2020   19.5000 C   0  0  0  0  0  3  0  0  0  0  0  0
  -39.2150  -38.2570   19.1410 N   0  0  0  0  0  0  0  0  0  0  0  0
  -38.7400  -38.1460   17.8930 C   0  0  0  0  0  0  0  0  0  0  0  0
  -39.4710  -38.0580   16.9040 O   0  0  0  0  0  0  0  0  0  0  0  0
  -38.5580  -38.2620   19.9080 H   0  0  0  0  0  0  0  0  0  0  0  0
  -36.7500  -36.6930   17.3930 C   0  0  0  0  0  1  0  0  0  0  0  0
  -37.2090  -38.1230   17.7170 C   0  0  0  0  0  3  0  0  0  0  0  0
  -36.7620  -40.4470   17.0700 C   0  0  0  0  0  1  0  0  0  0  0  0
  -36.7260  -39.0440   16.6650 N   0  0  0  0  0  0  0  0  0  0  0  0
  -35.7720  -38.8200   16.3970 H   0  0  0  0  0  0  0  0  0  0  0  0
  -41.1150  -39.5880   20.0840 C   0  0  1  0  0  0  0  0  0  0  0  0
  -40.6070  -39.8730   21.5160 C   0  0  0  0  0  1  0  0  0  0  0  0
  -42.6580  -39.6670   20.1040 C   0  0  0  0  0  1  0  0  0  0  0  0
  -40.6230  -40.7360   19.1740 C   0  0  0  0  0  1  0  0  0  0  0  0
  -42.3280  -25.3260   17.8560 C   0  0  0  0  0  3  0  0  0  0  0  0
  -37.1600  -24.1980   20.3970 C   0  0  0  0  0  0  0  0  0  0  0  0
  -34.9610  -23.0920   20.2940 C   0  0  0  0  0  2  0  0  0  0  0  0
  -35.1270  -21.6890   19.6800 C   0  0  0  0  0  2  0  0  0  0  0  0
  -35.0280  -21.7600   18.1440 C   0  0  0  0  0  2  0  0  0  0  0  0
  -35.9330  -22.8680   17.5350 C   0  0  0  0  0  3  0  0  0  0  0  0
  -35.7610  -24.2050   18.2900 C   0  0  0  0  0  2  0  0  0  0  0  0
  -36.0040  -23.9540   19.7200 N   0  0  0  0  0  0  0  0  0  0  0  0
  -37.2910  -23.9580   21.6020 O   0  0  0  0  0  0  0  0  0  0  0  0
  -40.5010  -23.7670   18.7750 C   0  0  0  0  0  2  0  0  0  0  0  0
  -39.7890  -26.1110   18.5580 C   0  0  0  0  0  2  0  0  0  0  0  0
  -39.3700  -23.5410   19.7950 C   0  0  0  0  0  2  0  0  0  0  0  0
  -38.6960  -25.8860   19.6240 C   0  0  0  0  0  2  0  0  0  0  0  0
  -41.0360  -25.2120   18.7850 C   0  0  0  0  0  3  0  0  0  0  0  0
  -38.2480  -24.4850   19.6470 N   0  0  0  0  0  0  0  0  0  0  0  0
  -36.3500  -22.4410   15.0320 C   0  0  0  0  0  0  0  0  0  0  0  0
  -35.6800  -22.8540   13.9090 C   0  0  0  0  0  0  0  0  0  0  0  0
  -34.6090  -23.6790   14.3720 C   0  0  0  0  0  0  0  0  0  0  0  0
  -35.6880  -23.0210   16.1020 N   0  0  0  0  0  0  0  0  0  0  0  0
  -34.6650  -23.8120   15.6910 N   0  0  0  0  0  0  0  0  0  0  0  0
  -33.5030  -24.3080   13.6380 C   0  0  0  0  0  0  0  0  0  0  0  0
  -33.7050  -24.9300   12.3860 C   0  0  0  0  0  3  0  0  0  0  0  0
  -32.6220  -25.5150   11.6940 C   0  0  0  0  0  3  0  0  0  0  0  0
  -31.3210  -25.4760   12.2490 C   0  0  0  0  0  0  0  0  0  0  0  0
  -31.1300  -24.8760   13.5070 C   0  0  0  0  0  3  0  0  0  0  0  0
  -32.2100  -24.3000   14.1970 C   0  0  0  0  0  3  0  0  0  0  0  0
  -30.2140  -26.0380   11.6600 O   0  0  0  0  0  0  0  0  0  0  0  0
  -29.1820  -25.2670   11.1850 C   0  0  0  0  0  0  0  0  0  0  0  0
  -28.1430  -24.8130   12.0260 C   0  0  0  0  0  3  0  0  0  0  0  0
  -27.0660  -24.0850   11.4810 C   0  0  0  0  0  3  0  0  0  0  0  0
  -27.0240  -23.8150   10.1010 C   0  0  0  0  0  0  0  0  0  0  0  0
  -28.0560  -24.2720    9.2620 C   0  0  0  0  0  3  0  0  0  0  0  0
  -29.1320  -24.9970    9.8040 C   0  0  0  0  0  0  0  0  0  0  0  0
  -30.1130  -25.4530    8.9870 F   0  0  0  0  0  0  0  0  0  0  0  0
  -25.9860  -23.1220    9.5770 F   0  0  0  0  0  0  0  0  0  0  0  0
  -35.9580  -22.4320   12.4980 C   0  0  0  0  0  0  0  0  0  0  0  0
  -35.9530  -23.3780   11.5650 N   0  0  0  0  0  0  0  0  0  0  0  0
  -36.2290  -21.2650   12.2180 O   0  0  0  0  0  0  0  0  0  0  0  0
  -35.7500  -24.3390   11.7960 H   0  0  0  0  0  0  0  0  0  0  0  0
  -36.1540  -23.1380   10.6040 H   0  0  0  0  0  0  0  0  0  0  0  0
  -37.4460  -21.6110   15.2330 N   0  0  0  0  0  0  0  0  0  0  0  0
  -37.9280  -21.1490   14.4710 H   0  0  0  0  0  0  0  0  0  0  0  0
  -37.8330  -21.3870   16.1420 H   0  0  0  0  0  0  0  0  0  0  0  0
  -43.7010  -24.6660   15.7100 C   0  0  0  0  0  1  0  0  0  0  0  0
  -42.7400  -22.8600   17.1610 C   0  0  0  0  0  1  0  0  0  0  0  0
  -41.2760  -24.3420   15.7550 C   0  0  0  0  0  1  0  0  0  0  0  0
  -42.5300  -24.3080   16.6630 C   0  0  1  0  0  0  0  0  0  0  0  0
  3  2  1  0
  3  1  1  0
  4  5  1  0
  4  3  1  0
  6  4  1  0
  7  4  1  0
  8  9  1  0
  8  7  1  0
  9 11  1  0
 10 21  2  0
 11 16  2  0
 11 17  1  0
 12 22  1  0
 13 19  1  0
 14 20  1  0
 15 14  1  0
 15 13  2  0
 16 15  1  0
 17 18  2  0
 18 13  1  0
 19 12  1  0
 20 10  1  0
 20 12  1  0
 22 23  1  0
 23 25  1  0
 24 22  2  0
 26 31  2  0
 26 35  1  0
 27 23  1  0
 27 31  1  0
 28 27  1  0
 29 28  1  0
 29 30  1  0
 30 26  1  0
 31 32  1  0
 32 33  2  0
 34 33  1  0
 35 34  2  0
 36 46  1  0
 36 10  1  0
 37 36  1  0
 37 40  1  0
 38 37  1  0
 39 38  2  0
 42 41  1  0
 42 38  1  0
 44 43  1  0
 44 42  1  0
 45 44  1  0
 46 48  1  1
 46 47  1  0
 49 46  1  0
 50  1  1  0
 51 58  2  0
 53 52  1  0
 54 53  1  0
 55 68  1  0
 55 54  1  0
 55 56  1  0
 56 57  1  0
 57 52  1  0
 57 51  1  0
 59 63  1  0
 59 61  1  0
 60 63  1  0
 60 62  1  0
 62 64  1  0
 63 50  1  0
 64 61  1  0
 64 51  1  0
 65 90  1  0
 65 68  1  0
 66 67  1  0
 66 65  2  0
 67 69  2  0
 69 68  1  0
 70 75  1  0
 70 67  1  0
 71 70  2  0
 72 73  2  0
 72 71  1  0
 73 74  1  0
 74 75  2  0
 76 73  1  0
 77 76  1  0
 77 78  1  0
 79 78  2  0
 80 79  1  0
 81 82  1  0
 81 80  2  0
 82 77  2  0
 83 82  1  0
 84 80  1  0
 85 66  1  0
 86 88  1  0
 86 85  1  0
 87 85  2  0
 89 86  1  0
 90 92  1  0
 91 90  1  0
 96 93  1  6
 95 96  1  0
 96 94  1  0
 96 50  1  0
M  ISO  4   8 101   9 101  51 100  64 100
M  END
>  <TORSDO>  (92) 
F 22

>  <SCORE>  (92) 
-0.838

>  <name>  (92) 
91

>  <ligand_id>  (92) 
91

>  <original_smiles>  (92) 
[H]c1c([H])c([H])c2c(c1[H])C([H])([H])C([H])([H])C([H])([H])C2([H])N([H])C(=O)C1([H])N(C(=O)C([H])(N([H])C(=O)C([H])(N([H])C([H])([H])[H])C([H])([H])[H])C(C([H])([H])[H])(C([H])([H])[H])C([H])([H])[H])C([H])([H])c2c([H])c(OC([H])([H])C([H])([H])[N+]([H])([H])C([H])(C([H])([H])[H])C([H])([H])C([H])(C3([H])C([H])([H])C([H])([H])N(C(=O)N4C([H])([H])C([H])([H])C([H])([H])C([H])(n5nc(-c6c([H])c([H])c(Oc7c([H])c([H])c(F)c([H])c7F)c([H])c6[H])c(C(=O)N([H])[H])c5N([H])[H])C4([H])[H])C([H])([H])C3([H])[H])C(C([H])([H])[H])(C([H])([H])[H])C([H])([H])[H])c([H])c([H])c2C1([H])[H]

>  <smiles>  (92) 
[H]c1c([H])c([H])c2c(c1[H])C([H])([H])C([H])([H])C([H])([H])C2([H])N([H])C(=O)C1([H])N(C(=O)C([H])(N([H])C(=O)C([H])(N([H])C([H])([H])[H])C([H])([H])[H])C(C([H])([H])[H])(C([H])([H])[H])C([H])([H])[H])C([H])([H])c2c([H])c(OC([H])([H])C([H])([H])[N+]([H])([H])C([H])(C([H])([H])[H])C([H])([H])C([H])(C3([H])C([H])([H])C([H])([H])N(C(=O)N4C([H])([H])C([H])([H])C([H])([H])C([H])(n5nc(-c6c([H])c([H])c(Oc7c([H])c([H])c(F)c([H])c7F)c([H])c6[H])c(C(=O)N([H])[H])c5N([H])[H])C4([H])[H])C([H])([H])C3([H])[H])C(C([H])([H])[H])(C([H])([H])[H])C([H])([H])[H])c([H])c([H])c2C1([H])[H]

$$$$
92:0:0
     RDKit          3D

102109  0  0  1  0  0  0  0  0999 V2000
  -29.0990  -20.5060   20.7750 C   0  0  0  0  0  3  0  0  0  0  0  0
  -30.1260  -18.2200   20.8760 C   0  0  0  0  0  0  0  0  0  0  0  0
  -29.7320  -19.3120   20.2150 N   0  0  0  0  0  0  0  0  0  0  0  0
  -29.7330  -17.9560   22.0130 O   0  0  0  0  0  0  0  0  0  0  0  0
  -30.0920  -19.4500   19.2790 H   0  0  0  0  0  0  0  0  0  0  0  0
  -31.1720  -17.3280   20.1790 C   0  0  0  0  0  3  0  0  0  0  0  0
  -31.7160  -14.8500   20.3020 C   0  0  0  0  0  0  0  0  0  0  0  0
  -31.3840  -12.6180   19.3440 C   0  0  0  0  0  2  0  0  0  0  0  0
  -30.4760  -12.7750   18.1060 C   0  0  0  0  0  2  0  0  0  0  0  0
  -28.9930  -12.6890   18.5170 C   0  0  0  0  0  2  0  0  0  0  0  0
  -28.6480  -13.6030   19.7250 C   0  0  0  0  0  3  0  0  0  0  0  0
  -29.6860  -13.4520   20.8620 C   0  0  0  0  0  2  0  0  0  0  0  0
  -31.0240  -13.6800   20.2950 N   0  0  0  0  0  0  0  0  0  0  0  0
  -32.8390  -14.9350   19.8070 O   0  0  0  0  0  0  0  0  0  0  0  0
  -31.0350  -15.9410   20.6880 N   0  0  0  0  0  0  0  0  0  0  0  0
  -30.1620  -15.7620   21.1620 H   0  0  0  0  0  0  0  0  0  0  0  0
  -26.2820  -14.2730   20.4850 C   0  0  0  0  0  0  0  0  0  0  0  0
  -25.1850  -13.5300   20.8280 C   0  0  0  0  0  0  0  0  0  0  0  0
  -25.5870  -12.1630   20.7250 C   0  0  0  0  0  0  0  0  0  0  0  0
  -27.2860  -13.3610   20.2020 N   0  0  0  0  0  0  0  0  0  0  0  0
  -26.8720  -12.0840   20.4030 N   0  0  0  0  0  0  0  0  0  0  0  0
  -24.8080  -10.9240   20.8610 C   0  0  0  0  0  0  0  0  0  0  0  0
  -25.1530   -9.9320   21.8040 C   0  0  0  0  0  3  0  0  0  0  0  0
  -24.3750   -8.7600   21.9280 C   0  0  0  0  0  3  0  0  0  0  0  0
  -23.2370   -8.5730   21.1070 C   0  0  0  0  0  0  0  0  0  0  0  0
  -22.9130   -9.5560   20.1530 C   0  0  0  0  0  3  0  0  0  0  0  0
  -23.6920  -10.7170   20.0280 C   0  0  0  0  0  3  0  0  0  0  0  0
  -22.4400   -7.4550   21.1390 O   0  0  0  0  0  0  0  0  0  0  0  0
  -22.1910   -6.7810   22.3090 C   0  0  0  0  0  0  0  0  0  0  0  0
  -21.5790   -7.4100   23.4150 C   0  0  0  0  0  3  0  0  0  0  0  0
  -21.2760   -6.6630   24.5710 C   0  0  0  0  0  3  0  0  0  0  0  0
  -21.5780   -5.2890   24.6210 C   0  0  0  0  0  0  0  0  0  0  0  0
  -22.1840   -4.6600   23.5180 C   0  0  0  0  0  3  0  0  0  0  0  0
  -22.4870   -5.4040   22.3640 C   0  0  0  0  0  0  0  0  0  0  0  0
  -23.0510   -4.7890   21.2970 F   0  0  0  0  0  0  0  0  0  0  0  0
  -21.2820   -4.5680   25.7270 F   0  0  0  0  0  0  0  0  0  0  0  0
  -23.8110  -14.0560   21.1370 C   0  0  0  0  0  0  0  0  0  0  0  0
  -23.0670  -13.3660   21.9940 N   0  0  0  0  0  0  0  0  0  0  0  0
  -23.4080  -15.1130   20.6560 O   0  0  0  0  0  0  0  0  0  0  0  0
  -23.4040  -12.5110   22.4120 H   0  0  0  0  0  0  0  0  0  0  0  0
  -22.1490  -13.7020   22.2410 H   0  0  0  0  0  0  0  0  0  0  0  0
  -26.5030  -15.6430   20.3730 N   0  0  0  0  0  0  0  0  0  0  0  0
  -25.7600  -16.3180   20.5070 H   0  0  0  0  0  0  0  0  0  0  0  0
  -27.3590  -16.0580   20.0290 H   0  0  0  0  0  0  0  0  0  0  0  0
  -32.5910  -17.9610   20.3890 C   0  0  0  0  0  2  0  0  0  0  0  0
  -32.7220  -19.2900   18.1850 C   0  0  0  0  0  1  0  0  0  0  0  0
  -34.2730  -19.8300   20.0970 C   0  0  0  0  0  1  0  0  0  0  0  0
  -32.8710  -19.3320   19.7190 C   0  0  0  0  0  3  0  0  0  0  0  0
  -29.9310  -21.7120   20.2870 C   0  0  0  0  0  0  0  0  0  0  0  0
  -30.1980  -22.6890   21.1650 N   0  0  0  0  0  0  0  0  0  0  0  0
  -30.3620  -21.7260   19.1320 O   0  0  0  0  0  0  0  0  0  0  0  0
  -29.8350  -22.5850   22.1020 H   0  0  0  0  0  0  0  0  0  0  0  0
  -31.1770  -23.7650   20.9680 C   0  0  0  0  0  2  0  0  0  0  0  0
  -29.8710  -25.3920   22.5020 C   0  0  0  0  0  1  0  0  0  0  0  0
  -30.6270  -25.1990   21.1730 C   0  0  0  0  0  3  0  0  0  0  0  0
  -29.7880  -25.7190   19.9900 C   0  0  0  0  0  2  0  0  0  0  0  0
  -29.6030  -27.1180   20.2090 O   0  0  0  0  0  0  0  0  0  0  0  0
  -24.9860  -31.5460   23.2750 C   0  0  0  0  0  0  0  0  0  0  0  0
  -28.3370  -27.6520   20.1550 C   0  0  0  0  0  0  0  0  0  0  0  0
  -24.0730  -30.1440   21.4540 C   0  0  0  0  0  3  0  0  0  0  0  0
  -25.7910  -28.8730   20.0670 C   0  0  0  0  0  0  0  0  0  0  0  0
  -26.5490  -30.7840   21.4920 C   0  0  0  0  0  2  0  0  0  0  0  0
  -26.8310  -29.4800   20.7770 C   0  0  0  0  0  0  0  0  0  0  0  0
  -28.1070  -28.8760   20.8170 C   0  0  0  0  0  3  0  0  0  0  0  0
  -27.2780  -27.0500   19.4370 C   0  0  0  0  0  3  0  0  0  0  0  0
  -26.0070  -27.6540   19.3970 C   0  0  0  0  0  3  0  0  0  0  0  0
  -24.4600  -29.5900   20.0560 C   0  0  0  0  0  2  0  0  0  0  0  0
  -25.2140  -30.8380   22.1320 N   0  0  0  0  0  0  0  0  0  0  0  0
  -23.8430  -31.6630   23.7370 O   0  0  0  0  0  0  0  0  0  0  0  0
  -23.4710  -28.9920   22.2890 C   0  0  0  0  0  0  0  0  0  0  0  0
  -22.1830  -28.6940   22.0510 N   0  0  0  0  0  0  0  0  0  0  0  0
  -24.1590  -28.3740   23.1040 O   0  0  0  0  0  0  0  0  0  0  0  0
  -21.6850  -29.2530   21.3730 H   0  0  0  0  0  0  0  0  0  0  0  0
  -18.9150  -27.1640   22.2320 C   0  0  0  0  0  0  0  0  0  0  0  0
  -21.4160  -27.6270   22.6930 C   0  0  0  0  0  3  0  0  0  0  0  0
  -21.6880  -26.2630   22.0180 C   0  0  0  0  0  2  0  0  0  0  0  0
  -20.6840  -25.9270   20.9120 C   0  0  0  0  0  2  0  0  0  0  0  0
  -19.2570  -25.8950   21.4700 C   0  0  0  0  0  2  0  0  0  0  0  0
  -19.9280  -27.9860   22.7920 C   0  0  0  0  0  0  0  0  0  0  0  0
  -19.5550  -29.1730   23.4580 C   0  0  0  0  0  3  0  0  0  0  0  0
  -18.2010  -29.5410   23.5720 C   0  0  0  0  0  3  0  0  0  0  0  0
  -17.2030  -28.7160   23.0270 C   0  0  0  0  0  3  0  0  0  0  0  0
  -17.5590  -27.5290   22.3630 C   0  0  0  0  0  3  0  0  0  0  0  0
  -26.1440  -32.2610   24.0380 C   0  0  0  0  0  3  0  0  0  0  0  0
  -26.5670  -31.5180   25.3650 C   0  0  1  0  0  0  0  0  0  0  0  0
  -25.3800  -31.2030   26.3070 C   0  0  0  0  0  1  0  0  0  0  0  0
  -27.2760  -30.1830   25.0420 C   0  0  0  0  0  1  0  0  0  0  0  0
  -27.5900  -32.3760   26.1440 C   0  0  0  0  0  1  0  0  0  0  0  0
  -25.7030  -33.6330   24.3260 N   0  0  0  0  0  0  0  0  0  0  0  0
  -26.0320  -34.7050   23.5940 C   0  0  0  0  0  0  0  0  0  0  0  0
  -26.8080  -34.6500   22.6360 O   0  0  0  0  0  0  0  0  0  0  0  0
  -25.0180  -33.7440   25.0600 H   0  0  0  0  0  0  0  0  0  0  0  0
  -24.2010  -36.3470   23.0640 C   0  0  0  0  0  1  0  0  0  0  0  0
  -25.3970  -36.0540   23.9840 C   0  0  0  0  0  3  0  0  0  0  0  0
  -27.3720  -37.1180   24.9830 C   0  0  0  0  0  1  0  0  0  0  0  0
  -26.3510  -37.1860   23.9390 N   0  0  0  0  0  0  0  0  0  0  0  0
  -25.8630  -38.0730   24.0320 H   0  0  0  0  0  0  0  0  0  0  0  0
  -27.5850  -20.5360   20.4450 C   0  0  0  0  0  2  0  0  0  0  0  0
  -26.9860  -21.8860   20.5000 N   0  0  0  0  0  4  0  0  0  0  0  0
  -27.1230  -22.3030   21.4030 H   0  0  0  0  0  0  0  0  0  0  0  0
  -25.9950  -21.8160   20.3440 H   0  0  0  0  0  0  0  0  0  0  0  0
  -27.3620  -22.4840   19.7870 H   0  0  0  0  0  0  0  0  0  0  0  0
  1 98  1  0
  2  4  2  0
  3  1  1  0
  3  2  1  0
  5  3  1  0
  6 45  1  0
  6 15  1  0
  6  2  1  0
  7 15  1  0
  8 13  1  0
  9 10  1  0
  9  8  1  0
 11 10  1  0
 11 20  1  0
 11 12  1  0
 13  7  1  0
 13 12  1  0
 14  7  2  0
 15 16  1  0
 17 18  2  0
 18 37  1  0
 19 18  1  0
 19 22  1  0
 20 21  1  0
 20 17  1  0
 21 19  2  0
 22 23  1  0
 23 24  2  0
 25 28  1  0
 25 24  1  0
 26 25  2  0
 27 26  1  0
 27 22  2  0
 28 29  1  0
 29 34  2  0
 29 30  1  0
 30 31  2  0
 31 32  1  0
 32 36  1  0
 33 32  2  0
 34 33  1  0
 35 34  1  0
 37 38  1  0
 38 41  1  0
 38 40  1  0
 39 37  2  0
 42 17  1  0
 42 43  1  0
 44 42  1  0
 46 48  1  0
 48 47  1  0
 48 45  1  0
 49  1  1  0
 49 50  1  0
 50 52  1  0
 51 49  2  0
 53 50  1  0
 53 55  1  0
 55 54  1  0
 56 57  1  0
 56 55  1  0
 58 69  2  0
 59 57  1  0
 59 64  1  0
 60 68  1  0
 60 70  1  0
 61 63  1  0
 62 68  1  0
 63 64  2  0
 63 62  1  0
 65 59  2  0
 66 65  1  0
 66 61  2  0
 67 61  1  0
 67 60  1  0
 68 58  1  0
 70 72  2  0
 71 70  1  0
 73 71  1  0
 74 83  2  0
 74 79  1  0
 75 71  1  0
 75 79  1  0
 76 75  1  0
 77 78  1  0
 77 76  1  0
 78 74  1  0
 79 80  2  0
 80 81  1  0
 82 81  2  0
 83 82  1  0
 84 58  1  0
 84 89  1  0
 84 85  1  0
 85 88  1  1
 85 86  1  0
 87 85  1  0
 89 92  1  0
 90 94  1  0
 90 89  1  0
 91 90  2  0
 94 93  1  0
 96 94  1  0
 96 97  1  0
 96 95  1  0
 98 99  1  0
 99100  1  0
101 99  1  0
102 99  1  0
M  ISO  4   7 100  15 100  56 101  57 101
M  END
>  <TORSDO>  (93) 
F 26

>  <SCORE>  (93) 
-9.420

>  <name>  (93) 
92

>  <ligand_id>  (93) 
92

>  <original_smiles>  (93) 
[H]c1c([H])c([H])c2c(c1[H])C([H])([H])C([H])([H])C([H])([H])C2([H])N([H])C(=O)C1([H])N(C(=O)C([H])(N([H])C(=O)C([H])(N([H])C([H])([H])[H])C([H])([H])[H])C(C([H])([H])[H])(C([H])([H])[H])C([H])([H])[H])C([H])([H])c2c([H])c(OC([H])([H])C([H])(C([H])([H])[H])C([H])([H])N([H])C(=O)C([H])(N([H])C(=O)C([H])(N([H])C(=O)N3C([H])([H])C([H])([H])C([H])([H])C([H])(n4nc(-c5c([H])c([H])c(Oc6c([H])c([H])c(F)c([H])c6F)c([H])c5[H])c(C(=O)N([H])[H])c4N([H])[H])C3([H])[H])C([H])([H])C([H])(C([H])([H])[H])C([H])([H])[H])C([H])([H])[N+]([H])([H])[H])c([H])c([H])c2C1([H])[H]

>  <smiles>  (93) 
[H]c1c([H])c([H])c2c(c1[H])C([H])([H])C([H])([H])C([H])([H])C2([H])N([H])C(=O)C1([H])N(C(=O)C([H])(N([H])C(=O)C([H])(N([H])C([H])([H])[H])C([H])([H])[H])C(C([H])([H])[H])(C([H])([H])[H])C([H])([H])[H])C([H])([H])c2c([H])c(OC([H])([H])C([H])(C([H])([H])[H])C([H])([H])N([H])C(=O)C([H])(N([H])C(=O)C([H])(N([H])C(=O)N3C([H])([H])C([H])([H])C([H])([H])C([H])(n4nc(-c5c([H])c([H])c(Oc6c([H])c([H])c(F)c([H])c6F)c([H])c5[H])c(C(=O)N([H])[H])c4N([H])[H])C3([H])[H])C([H])([H])C([H])(C([H])([H])[H])C([H])([H])[H])C([H])([H])[N+]([H])([H])[H])c([H])c([H])c2C1([H])[H]

$$$$
93:0:0
     RDKit          3D

 99107  0  0  1  0  0  0  0  0999 V2000
  -30.3970  -20.7240   20.6370 N   0  0  0  0  0  4  0  0  0  0  0  0
  -29.5170  -20.3030   20.4060 H   0  0  0  0  0  0  0  0  0  0  0  0
  -30.6700  -21.3030   19.8590 H   0  0  0  0  0  0  0  0  0  0  0  0
  -31.3860  -19.6340   20.7880 C   0  0  0  0  0  2  0  0  0  0  0  0
  -32.2690  -18.8590   17.1590 C   0  0  0  0  0  3  0  0  0  0  0  0
  -31.7070  -17.5950   16.9420 C   0  0  0  0  0  3  0  0  0  0  0  0
  -32.1470  -19.4640   18.4200 C   0  0  0  0  0  3  0  0  0  0  0  0
  -31.0170  -16.9530   17.9860 C   0  0  0  0  0  3  0  0  0  0  0  0
  -31.4780  -18.8180   19.4910 C   0  0  0  0  0  0  0  0  0  0  0  0
  -30.9140  -17.5140   19.2850 C   0  0  0  0  0  0  0  0  0  0  0  0
  -30.1120  -16.7170   20.3620 C   0  0  0  0  0  3  0  0  0  0  0  0
  -31.0810  -14.4110   19.9270 C   0  0  0  0  0  0  0  0  0  0  0  0
  -30.6230  -12.2370   18.8310 C   0  0  0  0  0  2  0  0  0  0  0  0
  -29.6450  -12.3650   17.6510 C   0  0  0  0  0  2  0  0  0  0  0  0
  -28.1960  -12.2480   18.1520 C   0  0  0  0  0  2  0  0  0  0  0  0
  -27.9020  -13.1950   19.3410 C   0  0  0  0  0  3  0  0  0  0  0  0
  -28.9910  -13.0700   20.4330 C   0  0  0  0  0  2  0  0  0  0  0  0
  -30.3150  -13.2880   19.8190 N   0  0  0  0  0  0  0  0  0  0  0  0
  -32.1280  -14.5640   19.2870 O   0  0  0  0  0  0  0  0  0  0  0  0
  -31.2670  -15.3690   22.1030 C   0  0  0  0  0  1  0  0  0  0  0  0
  -30.6390  -15.3740   20.7730 N   0  0  0  0  0  0  0  0  0  0  0  0
  -25.5530  -13.8990   20.1450 C   0  0  0  0  0  0  0  0  0  0  0  0
  -24.4830  -13.1760   20.5880 C   0  0  0  0  0  0  0  0  0  0  0  0
  -24.8990  -11.8090   20.5600 C   0  0  0  0  0  0  0  0  0  0  0  0
  -26.5630  -12.9830   19.8890 N   0  0  0  0  0  0  0  0  0  0  0  0
  -26.1700  -11.7180   20.1900 N   0  0  0  0  0  0  0  0  0  0  0  0
  -24.1380  -10.5780   20.7990 C   0  0  0  0  0  0  0  0  0  0  0  0
  -24.5490   -9.6300   21.7620 C   0  0  0  0  0  3  0  0  0  0  0  0
  -23.7920   -8.4610   21.9850 C   0  0  0  0  0  3  0  0  0  0  0  0
  -22.6060   -8.2310   21.2460 C   0  0  0  0  0  0  0  0  0  0  0  0
  -22.2120   -9.1670   20.2730 C   0  0  0  0  0  3  0  0  0  0  0  0
  -22.9700  -10.3280   20.0500 C   0  0  0  0  0  3  0  0  0  0  0  0
  -21.8200   -7.1120   21.3770 O   0  0  0  0  0  0  0  0  0  0  0  0
  -21.7290   -6.4320   22.5650 C   0  0  0  0  0  0  0  0  0  0  0  0
  -21.3120   -7.0670   23.7550 C   0  0  0  0  0  3  0  0  0  0  0  0
  -21.1720   -6.3180   24.9390 C   0  0  0  0  0  3  0  0  0  0  0  0
  -21.4280   -4.9340   24.9320 C   0  0  0  0  0  0  0  0  0  0  0  0
  -21.8280   -4.2980   23.7450 C   0  0  0  0  0  3  0  0  0  0  0  0
  -21.9780   -5.0450   22.5640 C   0  0  0  0  0  0  0  0  0  0  0  0
  -22.3490   -4.4240   21.4180 F   0  0  0  0  0  0  0  0  0  0  0  0
  -21.2840   -4.2110   26.0670 F   0  0  0  0  0  0  0  0  0  0  0  0
  -23.1160  -13.7030   20.9170 C   0  0  0  0  0  0  0  0  0  0  0  0
  -22.4160  -13.0570   21.8410 N   0  0  0  0  0  0  0  0  0  0  0  0
  -22.6810  -14.7300   20.3940 O   0  0  0  0  0  0  0  0  0  0  0  0
  -22.7840  -12.2290   22.2850 H   0  0  0  0  0  0  0  0  0  0  0  0
  -21.5030  -13.3950   22.1120 H   0  0  0  0  0  0  0  0  0  0  0  0
  -25.7330  -15.2560   19.9040 N   0  0  0  0  0  0  0  0  0  0  0  0
  -24.9770  -15.9240   20.0020 H   0  0  0  0  0  0  0  0  0  0  0  0
  -26.5590  -15.6490   19.4770 H   0  0  0  0  0  0  0  0  0  0  0  0
  -27.7020  -16.0260   21.0890 C   0  0  0  0  0  1  0  0  0  0  0  0
  -27.9910  -17.9360   19.4890 C   0  0  0  0  0  1  0  0  0  0  0  0
  -28.6040  -16.6090   19.9790 C   0  0  0  0  0  3  0  0  0  0  0  0
  -30.2010  -21.5820   21.8220 C   0  0  0  0  0  2  0  0  0  0  0  0
  -28.9450  -22.4770   21.6860 C   0  0  0  0  0  2  0  0  0  0  0  0
  -29.2320  -23.7410   21.0080 N   0  0  0  0  0  0  0  0  0  0  0  0
  -29.2670  -23.6340   19.9960 H   0  0  0  0  0  0  0  0  0  0  0  0
  -28.2260  -24.7560   21.3410 C   0  0  0  0  0  2  0  0  0  0  0  0
  -28.7560  -26.1700   21.0010 C   0  0  0  0  0  2  0  0  0  0  0  0
  -28.1610  -26.6420   19.8010 O   0  0  0  0  0  0  0  0  0  0  0  0
  -24.4760  -31.8190   23.1170 C   0  0  0  0  0  0  0  0  0  0  0  0
  -27.0150  -27.3880   19.9370 C   0  0  0  0  0  0  0  0  0  0  0  0
  -23.2240  -30.4500   21.4800 C   0  0  0  0  0  3  0  0  0  0  0  0
  -24.6330  -28.8990   20.0310 C   0  0  0  0  0  0  0  0  0  0  0  0
  -25.7490  -30.7760   21.2490 C   0  0  0  0  0  2  0  0  0  0  0  0
  -25.8060  -29.4070   20.6040 C   0  0  0  0  0  0  0  0  0  0  0  0
  -27.0010  -28.6550   20.5640 C   0  0  0  0  0  3  0  0  0  0  0  0
  -25.8280  -26.8880   19.3660 C   0  0  0  0  0  3  0  0  0  0  0  0
  -24.6350  -27.6330   19.4190 C   0  0  0  0  0  3  0  0  0  0  0  0
  -23.4040  -29.7750   20.0950 C   0  0  0  0  0  2  0  0  0  0  0  0
  -24.5020  -31.0300   22.0080 N   0  0  0  0  0  0  0  0  0  0  0  0
  -23.4100  -32.1030   23.6790 O   0  0  0  0  0  0  0  0  0  0  0  0
  -22.5730  -29.4330   22.4430 C   0  0  0  0  0  0  0  0  0  0  0  0
  -21.2410  -29.2810   22.3420 N   0  0  0  0  0  0  0  0  0  0  0  0
  -23.2580  -28.7810   23.2350 O   0  0  0  0  0  0  0  0  0  0  0  0
  -20.7500  -29.8560   21.6710 H   0  0  0  0  0  0  0  0  0  0  0  0
  -17.8530  -28.1670   22.9080 C   0  0  0  0  0  0  0  0  0  0  0  0
  -20.4210  -28.3520   23.1190 C   0  0  0  0  0  3  0  0  0  0  0  0
  -20.4730  -26.9300   22.5140 C   0  0  0  0  0  2  0  0  0  0  0  0
  -19.3380  -26.6550   21.5250 C   0  0  0  0  0  2  0  0  0  0  0  0
  -17.9750  -26.8250   22.2050 C   0  0  0  0  0  2  0  0  0  0  0  0
  -19.0010  -28.8920   23.3220 C   0  0  0  0  0  0  0  0  0  0  0  0
  -18.8310  -30.1510   23.9380 C   0  0  0  0  0  3  0  0  0  0  0  0
  -17.5460  -30.6820   24.1490 C   0  0  0  0  0  3  0  0  0  0  0  0
  -16.4110  -29.9530   23.7500 C   0  0  0  0  0  3  0  0  0  0  0  0
  -16.5660  -28.6980   23.1360 C   0  0  0  0  0  3  0  0  0  0  0  0
  -25.7830  -32.4250   23.7230 C   0  0  0  0  0  3  0  0  0  0  0  0
  -26.3390  -31.6100   24.9550 C   0  0  1  0  0  0  0  0  0  0  0  0
  -25.2810  -31.3330   26.0480 C   0  0  0  0  0  1  0  0  0  0  0  0
  -26.9110  -30.2490   24.4960 C   0  0  0  0  0  1  0  0  0  0  0  0
  -27.5110  -32.3820   25.6100 C   0  0  0  0  0  1  0  0  0  0  0  0
  -25.4910  -33.8130   24.1070 N   0  0  0  0  0  0  0  0  0  0  0  0
  -25.8110  -34.8880   23.3740 C   0  0  0  0  0  0  0  0  0  0  0  0
  -26.4550  -34.8160   22.3230 O   0  0  0  0  0  0  0  0  0  0  0  0
  -24.9220  -33.9450   24.9310 H   0  0  0  0  0  0  0  0  0  0  0  0
  -24.0890  -36.7020   23.1120 C   0  0  0  0  0  1  0  0  0  0  0  0
  -25.3410  -36.2630   23.8870 C   0  0  0  0  0  3  0  0  0  0  0  0
  -27.4980  -37.1020   24.7080 C   0  0  0  0  0  1  0  0  0  0  0  0
  -26.3790  -37.3130   23.7940 N   0  0  0  0  0  0  0  0  0  0  0  0
  -25.9820  -38.2290   23.9880 H   0  0  0  0  0  0  0  0  0  0  0  0
  1  4  1  0
  1 53  1  0
  2  1  1  0
  3  1  1  0
  5  7  1  0
  6  5  2  0
  6  8  1  0
  7  9  2  0
  8 10  2  0
  9  4  1  0
 10  9  1  0
 10 11  1  0
 11 52  1  0
 11 21  1  0
 12 21  1  0
 13 18  1  0
 14 15  1  0
 14 13  1  0
 16 15  1  0
 16 25  1  0
 16 17  1  0
 18 12  1  0
 18 17  1  0
 19 12  2  0
 21 20  1  0
 22 23  2  0
 23 42  1  0
 24 23  1  0
 24 27  1  0
 25 22  1  0
 25 26  1  0
 26 24  2  0
 27 28  1  0
 28 29  2  0
 30 33  1  0
 30 29  1  0
 31 30  2  0
 32 31  1  0
 32 27  2  0
 33 34  1  0
 34 35  1  0
 35 36  2  0
 37 36  1  0
 37 41  1  0
 38 37  2  0
 39 34  2  0
 39 38  1  0
 40 39  1  0
 42 43  1  0
 43 46  1  0
 43 45  1  0
 44 42  2  0
 47 48  1  0
 47 22  1  0
 49 47  1  0
 51 52  1  0
 52 50  1  0
 54 53  1  0
 55 57  1  0
 55 54  1  0
 56 55  1  0
 58 57  1  0
 59 61  1  0
 59 58  1  0
 60 71  2  0
 61 66  1  0
 62 70  1  0
 62 72  1  0
 63 69  1  0
 63 65  1  0
 64 70  1  0
 65 64  1  0
 66 65  2  0
 67 68  1  0
 67 61  2  0
 68 63  2  0
 69 62  1  0
 70 60  1  0
 72 74  2  0
 73 72  1  0
 75 73  1  0
 76 85  2  0
 76 81  1  0
 77 73  1  0
 77 81  1  0
 78 77  1  0
 79 80  1  0
 79 78  1  0
 80 76  1  0
 81 82  2  0
 82 83  1  0
 84 83  2  0
 85 84  1  0
 86 60  1  0
 86 91  1  0
 86 87  1  0
 87 90  1  1
 87 88  1  0
 89 87  1  0
 91 94  1  0
 92 96  1  0
 92 91  1  0
 93 92  2  0
 96 95  1  0
 98 96  1  0
 98 99  1  0
 98 97  1  0
M  ISO  4  12 100  21 100  58 101  59 101
M  END
>  <TORSDO>  (94) 
F 25

>  <SCORE>  (94) 
-11.327

>  <name>  (94) 
93

>  <ligand_id>  (94) 
93

>  <original_smiles>  (94) 
[H]c1c([H])c([H])c2c(c1[H])C([H])([H])C([H])([H])C([H])([H])C2([H])N([H])C(=O)C1([H])N(C(=O)C([H])(N([H])C(=O)C([H])(N([H])C([H])([H])[H])C([H])([H])[H])C(C([H])([H])[H])(C([H])([H])[H])C([H])([H])[H])C([H])([H])c2c([H])c(OC([H])([H])C([H])([H])N([H])C([H])([H])C([H])([H])[N+]([H])([H])C([H])([H])c3c([H])c([H])c([H])c([H])c3C([H])(N(C(=O)N3C([H])([H])C([H])([H])C([H])([H])C([H])(n4nc(-c5c([H])c([H])c(Oc6c([H])c([H])c(F)c([H])c6F)c([H])c5[H])c(C(=O)N([H])[H])c4N([H])[H])C3([H])[H])C([H])([H])[H])C([H])(C([H])([H])[H])C([H])([H])[H])c([H])c([H])c2C1([H])[H]

>  <smiles>  (94) 
[H]c1c([H])c([H])c2c(c1[H])C([H])([H])C([H])([H])C([H])([H])C2([H])N([H])C(=O)C1([H])N(C(=O)C([H])(N([H])C(=O)C([H])(N([H])C([H])([H])[H])C([H])([H])[H])C(C([H])([H])[H])(C([H])([H])[H])C([H])([H])[H])C([H])([H])c2c([H])c(OC([H])([H])C([H])([H])N([H])C([H])([H])C([H])([H])[N+]([H])([H])C([H])([H])c3c([H])c([H])c([H])c([H])c3C([H])(N(C(=O)N3C([H])([H])C([H])([H])C([H])([H])C([H])(n4nc(-c5c([H])c([H])c(Oc6c([H])c([H])c(F)c([H])c6F)c([H])c5[H])c(C(=O)N([H])[H])c4N([H])[H])C3([H])[H])C([H])([H])[H])C([H])(C([H])([H])[H])C([H])([H])[H])c([H])c([H])c2C1([H])[H]

$$$$
94:0:0
     RDKit          3D

 96104  0  0  1  0  0  0  0  0999 V2000
  -28.1480  -19.3500   17.1510 C   0  0  0  0  0  1  0  0  0  0  0  0
  -29.3730  -19.2590   18.0800 C   0  0  0  0  0  3  0  0  0  0  0  0
  -29.8810  -20.6970   18.3720 C   0  0  0  0  0  2  0  0  0  0  0  0
  -28.9540  -21.6740   19.1230 C   0  0  0  0  0  0  0  0  0  0  0  0
  -27.9470  -21.3110   19.7290 O   0  0  0  0  0  0  0  0  0  0  0  0
  -29.3480  -23.1520   19.0370 C   0  0  0  0  0  2  0  0  0  0  0  0
  -28.5150  -24.1340   19.8940 C   0  0  0  0  0  2  0  0  0  0  0  0
  -28.7170  -25.5770   19.3840 C   0  0  0  0  0  2  0  0  0  0  0  0
  -28.4120  -26.6130   20.3230 O   0  0  0  0  0  0  0  0  0  0  0  0
  -24.5520  -31.7290   23.3470 C   0  0  0  0  0  0  0  0  0  0  0  0
  -27.2300  -27.3180   20.2490 C   0  0  0  0  0  0  0  0  0  0  0  0
  -23.3850  -30.4060   21.6100 C   0  0  0  0  0  3  0  0  0  0  0  0
  -24.8630  -28.8680   20.2070 C   0  0  0  0  0  0  0  0  0  0  0  0
  -25.9230  -30.7090   21.5330 C   0  0  0  0  0  2  0  0  0  0  0  0
  -26.0010  -29.3530   20.8590 C   0  0  0  0  0  0  0  0  0  0  0  0
  -27.1820  -28.5810   20.8790 C   0  0  0  0  0  3  0  0  0  0  0  0
  -26.0690  -26.8380   19.5980 C   0  0  0  0  0  3  0  0  0  0  0  0
  -24.8910  -27.6110   19.5780 C   0  0  0  0  0  3  0  0  0  0  0  0
  -23.6390  -29.7550   20.2220 C   0  0  0  0  0  2  0  0  0  0  0  0
  -24.6350  -30.9610   22.2230 N   0  0  0  0  0  0  0  0  0  0  0  0
  -23.4570  -32.0060   23.8550 O   0  0  0  0  0  0  0  0  0  0  0  0
  -22.6680  -29.3730   22.5100 C   0  0  0  0  0  0  0  0  0  0  0  0
  -21.3400  -29.2610   22.3530 N   0  0  0  0  0  0  0  0  0  0  0  0
  -23.3060  -28.6830   23.3080 O   0  0  0  0  0  0  0  0  0  0  0  0
  -20.8880  -29.8700   21.6850 H   0  0  0  0  0  0  0  0  0  0  0  0
  -17.9070  -28.1950   22.7350 C   0  0  0  0  0  0  0  0  0  0  0  0
  -20.4670  -28.3300   23.0670 C   0  0  0  0  0  3  0  0  0  0  0  0
  -20.5180  -26.9170   22.4430 C   0  0  0  0  0  2  0  0  0  0  0  0
  -19.4250  -26.6790   21.3940 C   0  0  0  0  0  2  0  0  0  0  0  0
  -18.0380  -26.8650   22.0160 C   0  0  0  0  0  2  0  0  0  0  0  0
  -19.0480  -28.8910   23.2160 C   0  0  0  0  0  0  0  0  0  0  0  0
  -18.8730  -30.1370   23.8520 C   0  0  0  0  0  3  0  0  0  0  0  0
  -17.5870  -30.6890   24.0150 C   0  0  0  0  0  3  0  0  0  0  0  0
  -16.4590  -29.9900   23.5490 C   0  0  0  0  0  3  0  0  0  0  0  0
  -16.6210  -28.7460   22.9130 C   0  0  0  0  0  3  0  0  0  0  0  0
  -25.8250  -32.3070   24.0380 C   0  0  0  0  0  3  0  0  0  0  0  0
  -26.2220  -31.5410   25.3600 C   0  0  1  0  0  0  0  0  0  0  0  0
  -25.0600  -31.3970   26.3700 C   0  0  0  0  0  1  0  0  0  0  0  0
  -26.7430  -30.1220   25.0330 C   0  0  0  0  0  1  0  0  0  0  0  0
  -27.3820  -32.2810   26.0690 C   0  0  0  0  0  1  0  0  0  0  0  0
  -25.5660  -33.7240   24.3190 N   0  0  0  0  0  0  0  0  0  0  0  0
  -26.0030  -34.7400   23.5630 C   0  0  0  0  0  0  0  0  0  0  0  0
  -26.7330  -34.5850   22.5820 O   0  0  0  0  0  0  0  0  0  0  0  0
  -24.9300  -33.9260   25.0760 H   0  0  0  0  0  0  0  0  0  0  0  0
  -24.3840  -36.6040   23.0750 C   0  0  0  0  0  1  0  0  0  0  0  0
  -25.5580  -36.1610   23.9630 C   0  0  0  0  0  3  0  0  0  0  0  0
  -27.6810  -36.9720   24.8990 C   0  0  0  0  0  1  0  0  0  0  0  0
  -26.6450  -37.1620   23.8840 N   0  0  0  0  0  0  0  0  0  0  0  0
  -26.2750  -38.1030   23.9860 H   0  0  0  0  0  0  0  0  0  0  0  0
  -29.0700  -18.3260   19.2900 C   0  0  0  0  0  2  0  0  0  0  0  0
  -30.1800  -17.6070   20.1310 C   0  0  0  0  0  3  0  0  0  0  0  0
  -32.2070  -20.9370   22.2310 C   0  0  0  0  0  2  0  0  0  0  0  0
  -32.8470  -20.3940   20.9540 C   0  0  0  0  0  2  0  0  0  0  0  0
  -30.6940  -20.9710   22.0220 C   0  0  0  0  0  2  0  0  0  0  0  0
  -32.4040  -18.9530   20.6370 C   0  0  0  0  0  2  0  0  0  0  0  0
  -30.1180  -19.5560   21.8900 C   0  0  0  0  0  2  0  0  0  0  0  0
  -30.9870  -18.5110   21.1130 C   0  0  0  0  0  3  0  0  0  0  0  0
  -31.0250  -16.4920   19.4260 C   0  0  0  0  0  2  0  0  0  0  0  0
  -31.5150  -14.0410   19.7930 C   0  0  0  0  0  0  0  0  0  0  0  0
  -31.1030  -11.7040   19.1370 C   0  0  0  0  0  2  0  0  0  0  0  0
  -30.1620  -11.7290   17.9120 C   0  0  0  0  0  2  0  0  0  0  0  0
  -28.6860  -11.7870   18.3610 C   0  0  0  0  0  2  0  0  0  0  0  0
  -28.4190  -12.8880   19.4220 C   0  0  0  0  0  3  0  0  0  0  0  0
  -29.4660  -12.8080   20.5560 C   0  0  0  0  0  2  0  0  0  0  0  0
  -30.8050  -12.8910   19.9490 N   0  0  0  0  0  0  0  0  0  0  0  0
  -32.6450  -14.0840   19.2920 O   0  0  0  0  0  0  0  0  0  0  0  0
  -30.8010  -15.1600   20.0180 N   0  0  0  0  0  0  0  0  0  0  0  0
  -29.9030  -15.0160   20.4500 H   0  0  0  0  0  0  0  0  0  0  0  0
  -26.1590  -13.8450   20.2110 C   0  0  0  0  0  0  0  0  0  0  0  0
  -25.0000  -13.2370   20.6100 C   0  0  0  0  0  0  0  0  0  0  0  0
  -25.2540  -11.8300   20.5630 C   0  0  0  0  0  0  0  0  0  0  0  0
  -27.0540  -12.8180   19.9420 N   0  0  0  0  0  0  0  0  0  0  0  0
  -26.5130  -11.6030   20.2130 N   0  0  0  0  0  0  0  0  0  0  0  0
  -24.3560  -10.6900   20.7780 C   0  0  0  0  0  0  0  0  0  0  0  0
  -24.6900   -9.6420   21.6650 C   0  0  0  0  0  3  0  0  0  0  0  0
  -23.8000   -8.5680   21.8690 C   0  0  0  0  0  3  0  0  0  0  0  0
  -22.5620   -8.5310   21.1890 C   0  0  0  0  0  0  0  0  0  0  0  0
  -22.2440   -9.5620   20.2870 C   0  0  0  0  0  3  0  0  0  0  0  0
  -23.1330  -10.6300   20.0790 C   0  0  0  0  0  3  0  0  0  0  0  0
  -21.6510   -7.5110   21.3030 O   0  0  0  0  0  0  0  0  0  0  0  0
  -21.5390   -6.7670   22.4490 C   0  0  0  0  0  0  0  0  0  0  0  0
  -21.2700   -7.3640   23.6990 C   0  0  0  0  0  3  0  0  0  0  0  0
  -21.0960   -6.5560   24.8400 C   0  0  0  0  0  3  0  0  0  0  0  0
  -21.1820   -5.1560   24.7310 C   0  0  0  0  0  0  0  0  0  0  0  0
  -21.4470   -4.5600   23.4860 C   0  0  0  0  0  3  0  0  0  0  0  0
  -21.6220   -5.3640   22.3460 C   0  0  0  0  0  0  0  0  0  0  0  0
  -21.8570   -4.7830   21.1440 F   0  0  0  0  0  0  0  0  0  0  0  0
  -21.0050   -4.3780   25.8250 F   0  0  0  0  0  0  0  0  0  0  0  0
  -23.6950  -13.9140   20.9250 C   0  0  0  0  0  0  0  0  0  0  0  0
  -22.9280  -13.3650   21.8600 N   0  0  0  0  0  0  0  0  0  0  0  0
  -23.3680  -14.9650   20.3760 O   0  0  0  0  0  0  0  0  0  0  0  0
  -23.2050  -12.5110   22.3220 H   0  0  0  0  0  0  0  0  0  0  0  0
  -22.0540  -13.8020   22.1190 H   0  0  0  0  0  0  0  0  0  0  0  0
  -26.5200  -15.1790   20.0260 N   0  0  0  0  0  0  0  0  0  0  0  0
  -25.8630  -15.9430   20.1610 H   0  0  0  0  0  0  0  0  0  0  0  0
  -27.4120  -15.4800   19.6550 H   0  0  0  0  0  0  0  0  0  0  0  0
  2  1  1  0
  2  3  1  0
  2 50  1  0
  3  4  1  0
  4  5  2  0
  6  4  1  0
  6  7  1  0
  8  7  1  0
  8  9  1  0
 10 21  2  0
 11  9  1  0
 11 16  1  0
 12 20  1  0
 12 22  1  0
 13 19  1  0
 13 15  1  0
 14 20  1  0
 15 16  2  0
 15 14  1  0
 17 11  2  0
 18 17  1  0
 18 13  2  0
 19 12  1  0
 20 10  1  0
 22 24  2  0
 23 22  1  0
 25 23  1  0
 26 35  2  0
 26 31  1  0
 27 23  1  0
 27 31  1  0
 28 27  1  0
 29 30  1  0
 29 28  1  0
 30 26  1  0
 31 32  2  0
 32 33  1  0
 34 33  2  0
 35 34  1  0
 36 10  1  0
 36 41  1  0
 36 37  1  0
 37 40  1  1
 37 38  1  0
 39 37  1  0
 41 44  1  0
 42 46  1  0
 42 41  1  0
 43 42  2  0
 46 45  1  0
 48 46  1  0
 48 49  1  0
 48 47  1  0
 51 50  1  0
 51 57  1  0
 53 52  1  0
 54 52  1  0
 55 53  1  0
 55 57  1  0
 56 54  1  0
 57 56  1  0
 58 67  1  0
 58 51  1  0
 59 65  1  0
 59 67  1  0
 60 65  1  0
 61 62  1  0
 61 60  1  0
 63 62  1  0
 63 72  1  0
 63 64  1  0
 65 64  1  0
 66 59  2  0
 67 68  1  0
 69 70  2  0
 70 89  1  0
 71 70  1  0
 71 74  1  0
 72 69  1  0
 72 73  1  0
 73 71  2  0
 74 75  1  0
 75 76  2  0
 77 80  1  0
 77 76  1  0
 78 77  2  0
 79 78  1  0
 79 74  2  0
 80 81  1  0
 81 82  1  0
 82 83  2  0
 84 83  1  0
 84 88  1  0
 85 84  2  0
 86 81  2  0
 86 85  1  0
 87 86  1  0
 89 90  1  0
 90 93  1  0
 90 92  1  0
 91 89  2  0
 94 95  1  0
 94 69  1  0
 96 94  1  0
M  ISO  4   8 101   9 101  59 100  67 100
M  END
>  <TORSDO>  (95) 
F 25

>  <SCORE>  (95) 
-11.768

>  <name>  (95) 
94

>  <ligand_id>  (95) 
94

>  <original_smiles>  (95) 
[H]c1c([H])c([H])c2c(c1[H])C([H])([H])C([H])([H])C([H])([H])C2([H])N([H])C(=O)C1([H])N(C(=O)C([H])(N([H])C(=O)C([H])(N([H])C([H])([H])[H])C([H])([H])[H])C(C([H])([H])[H])(C([H])([H])[H])C([H])([H])[H])C([H])([H])c2c([H])c(OC([H])([H])C([H])([H])C([H])([H])C(=O)C([H])([H])C([H])(C([H])([H])[H])C([H])([H])C([H])(C([H])([H])N([H])C(=O)N3C([H])([H])C([H])([H])C([H])([H])C([H])(n4nc(-c5c([H])c([H])c(Oc6c([H])c([H])c(F)c([H])c6F)c([H])c5[H])c(C(=O)N([H])[H])c4N([H])[H])C3([H])[H])C3([H])C([H])([H])C([H])([H])C([H])([H])C([H])([H])C3([H])[H])c([H])c([H])c2C1([H])[H]

>  <smiles>  (95) 
[H]c1c([H])c([H])c2c(c1[H])C([H])([H])C([H])([H])C([H])([H])C2([H])N([H])C(=O)C1([H])N(C(=O)C([H])(N([H])C(=O)C([H])(N([H])C([H])([H])[H])C([H])([H])[H])C(C([H])([H])[H])(C([H])([H])[H])C([H])([H])[H])C([H])([H])c2c([H])c(OC([H])([H])C([H])([H])C([H])([H])C(=O)C([H])([H])C([H])(C([H])([H])[H])C([H])([H])C([H])(C([H])([H])N([H])C(=O)N3C([H])([H])C([H])([H])C([H])([H])C([H])(n4nc(-c5c([H])c([H])c(Oc6c([H])c([H])c(F)c([H])c6F)c([H])c5[H])c(C(=O)N([H])[H])c4N([H])[H])C3([H])[H])C3([H])C([H])([H])C([H])([H])C([H])([H])C([H])([H])C3([H])[H])c([H])c([H])c2C1([H])[H]

$$$$
95:0:0
     RDKit          3D

 97105  0  0  1  0  0  0  0  0999 V2000
  -28.9510  -20.1770   19.4690 C   0  0  0  0  0  0  0  0  0  0  0  0
  -30.0740  -20.4990   18.4640 C   0  0  0  0  0  0  0  0  0  0  0  0
  -29.6960  -20.9110   17.2580 N   0  0  0  0  0  0  0  0  0  0  0  0
  -31.2610  -20.4200   18.7800 O   0  0  0  0  0  0  0  0  0  0  0  0
  -28.7120  -20.9870   17.0450 H   0  0  0  0  0  0  0  0  0  0  0  0
  -30.3700  -21.1480   16.5440 H   0  0  0  0  0  0  0  0  0  0  0  0
  -29.5470  -17.7020   19.9540 C   0  0  0  0  0  0  0  0  0  0  0  0
  -29.1120  -18.9510   20.3210 N   0  0  0  0  0  4  0  0  0  0  0  0
  -29.9860  -17.4780   18.8280 O   0  0  0  0  0  0  0  0  0  0  0  0
  -28.7910  -19.0570   21.2720 H   0  0  0  0  0  0  0  0  0  0  0  0
  -30.6760  -14.5320   19.7770 C   0  0  0  0  0  0  0  0  0  0  0  0
  -30.2190  -12.4450   18.5120 C   0  0  0  0  0  2  0  0  0  0  0  0
  -29.1600  -12.7090   17.4260 C   0  0  0  0  0  2  0  0  0  0  0  0
  -27.7400  -12.5370   18.0000 C   0  0  0  0  0  2  0  0  0  0  0  0
  -27.5470  -13.3120   19.3330 C   0  0  0  0  0  3  0  0  0  0  0  0
  -28.7060  -13.0170   20.3110 C   0  0  0  0  0  2  0  0  0  0  0  0
  -29.9600  -13.3720   19.6320 N   0  0  0  0  0  0  0  0  0  0  0  0
  -31.6980  -14.7340   19.1140 O   0  0  0  0  0  0  0  0  0  0  0  0
  -30.8130  -16.5880   22.8380 C   0  0  0  0  0  2  0  0  0  0  0  0
  -29.3680  -16.8110   22.4140 C   0  0  0  0  0  2  0  0  0  0  0  0
  -31.2980  -15.4440   21.9430 C   0  0  0  0  0  2  0  0  0  0  0  0
  -29.3550  -16.4680   20.9140 C   0  0  0  0  0  3  0  0  0  0  0  0
  -30.3620  -15.3590   20.8150 N   0  0  0  0  0  0  0  0  0  0  0  0
  -25.2370  -13.9070   20.2950 C   0  0  0  0  0  0  0  0  0  0  0  0
  -24.2040  -13.1270   20.7450 C   0  0  0  0  0  0  0  0  0  0  0  0
  -24.6490  -11.7760   20.6300 C   0  0  0  0  0  0  0  0  0  0  0  0
  -26.2450  -13.0270   19.9330 N   0  0  0  0  0  0  0  0  0  0  0  0
  -25.9010  -11.7390   20.1910 N   0  0  0  0  0  0  0  0  0  0  0  0
  -23.9340  -10.5120   20.8540 C   0  0  0  0  0  0  0  0  0  0  0  0
  -24.4020   -9.5510   21.7780 C   0  0  0  0  0  3  0  0  0  0  0  0
  -23.6870   -8.3510   21.9910 C   0  0  0  0  0  3  0  0  0  0  0  0
  -22.4880   -8.1070   21.2800 C   0  0  0  0  0  0  0  0  0  0  0  0
  -22.0390   -9.0560   20.3430 C   0  0  0  0  0  3  0  0  0  0  0  0
  -22.7550  -10.2460   20.1300 C   0  0  0  0  0  3  0  0  0  0  0  0
  -21.7430   -6.9590   21.3930 O   0  0  0  0  0  0  0  0  0  0  0  0
  -21.6860   -6.2540   22.5680 C   0  0  0  0  0  0  0  0  0  0  0  0
  -21.2400   -6.8480   23.7690 C   0  0  0  0  0  3  0  0  0  0  0  0
  -21.1310   -6.0730   24.9400 C   0  0  0  0  0  3  0  0  0  0  0  0
  -21.4540   -4.7030   24.9120 C   0  0  0  0  0  0  0  0  0  0  0  0
  -21.8870   -4.1080   23.7140 C   0  0  0  0  0  3  0  0  0  0  0  0
  -21.9990   -4.8800   22.5450 C   0  0  0  0  0  0  0  0  0  0  0  0
  -22.4000   -4.2980   21.3900 F   0  0  0  0  0  0  0  0  0  0  0  0
  -21.3400   -3.9550   26.0340 F   0  0  0  0  0  0  0  0  0  0  0  0
  -22.8440  -13.6050   21.1660 C   0  0  0  0  0  0  0  0  0  0  0  0
  -22.2090  -12.9010   22.0990 N   0  0  0  0  0  0  0  0  0  0  0  0
  -22.3560  -14.6360   20.7040 O   0  0  0  0  0  0  0  0  0  0  0  0
  -22.6150  -12.0680   22.4980 H   0  0  0  0  0  0  0  0  0  0  0  0
  -21.2990  -13.1990   22.4180 H   0  0  0  0  0  0  0  0  0  0  0  0
  -25.3900  -15.2820   20.1440 N   0  0  0  0  0  0  0  0  0  0  0  0
  -24.6270  -15.9190   20.3450 H   0  0  0  0  0  0  0  0  0  0  0  0
  -26.1780  -15.7360   19.7050 H   0  0  0  0  0  0  0  0  0  0  0  0
  -28.3520  -21.4670   20.1710 C   0  0  0  0  0  2  0  0  0  0  0  0
  -29.2570  -22.6800   20.6130 C   0  0  0  0  0  2  0  0  0  0  0  0
  -30.5030  -24.5940   19.4760 C   0  0  0  0  0  1  0  0  0  0  0  0
  -29.1070  -24.0730   19.8560 C   0  0  0  0  0  3  0  0  0  0  0  0
  -28.2950  -25.2030   20.6070 C   0  0  0  0  0  2  0  0  0  0  0  0
  -28.4060  -26.5710   20.0880 O   0  0  0  0  0  0  0  0  0  0  0  0
  -24.5690  -31.8740   23.0670 C   0  0  0  0  0  0  0  0  0  0  0  0
  -27.2580  -27.3540   20.0820 C   0  0  0  0  0  0  0  0  0  0  0  0
  -23.3840  -30.4340   21.4460 C   0  0  0  0  0  3  0  0  0  0  0  0
  -24.8610  -28.8850   20.0500 C   0  0  0  0  0  0  0  0  0  0  0  0
  -25.9140  -30.8030   21.2530 C   0  0  0  0  0  2  0  0  0  0  0  0
  -26.0170  -29.4170   20.6360 C   0  0  0  0  0  0  0  0  0  0  0  0
  -27.2210  -28.6610   20.6400 C   0  0  0  0  0  3  0  0  0  0  0  0
  -26.0840  -26.8590   19.4730 C   0  0  0  0  0  3  0  0  0  0  0  0
  -24.8920  -27.6110   19.4600 C   0  0  0  0  0  3  0  0  0  0  0  0
  -23.6070  -29.7330   20.0800 C   0  0  0  0  0  2  0  0  0  0  0  0
  -24.6400  -31.0550   21.9800 N   0  0  0  0  0  0  0  0  0  0  0  0
  -23.4830  -32.1420   23.6000 O   0  0  0  0  0  0  0  0  0  0  0  0
  -22.7370  -29.4230   22.4230 C   0  0  0  0  0  0  0  0  0  0  0  0
  -21.4060  -29.2640   22.3310 N   0  0  0  0  0  0  0  0  0  0  0  0
  -23.4320  -28.7850   23.2140 O   0  0  0  0  0  0  0  0  0  0  0  0
  -20.9050  -29.8220   21.6550 H   0  0  0  0  0  0  0  0  0  0  0  0
  -18.0220  -28.1640   22.9580 C   0  0  0  0  0  0  0  0  0  0  0  0
  -20.5960  -28.3370   23.1220 C   0  0  0  0  0  3  0  0  0  0  0  0
  -20.6290  -26.9150   22.5160 C   0  0  0  0  0  2  0  0  0  0  0  0
  -19.4730  -26.6470   21.5480 C   0  0  0  0  0  2  0  0  0  0  0  0
  -18.1260  -26.8240   22.2540 C   0  0  0  0  0  2  0  0  0  0  0  0
  -19.1820  -28.8810   23.3530 C   0  0  0  0  0  0  0  0  0  0  0  0
  -19.0290  -30.1410   23.9740 C   0  0  0  0  0  3  0  0  0  0  0  0
  -17.7480  -30.6780   24.2090 C   0  0  0  0  0  3  0  0  0  0  0  0
  -16.6040  -29.9530   23.8310 C   0  0  0  0  0  3  0  0  0  0  0  0
  -16.7420  -28.7010   23.2100 C   0  0  0  0  0  3  0  0  0  0  0  0
  -25.8450  -32.5320   23.6800 C   0  0  0  0  0  3  0  0  0  0  0  0
  -25.5090  -33.9190   24.0250 N   0  0  0  0  0  0  0  0  0  0  0  0
  -25.8120  -34.9840   23.2720 C   0  0  0  0  0  0  0  0  0  0  0  0
  -26.4710  -34.9040   22.2310 O   0  0  0  0  0  0  0  0  0  0  0  0
  -24.9260  -34.0550   24.8380 H   0  0  0  0  0  0  0  0  0  0  0  0
  -24.0380  -36.7340   22.9550 C   0  0  0  0  0  1  0  0  0  0  0  0
  -25.3000  -36.3560   23.7460 C   0  0  0  0  0  3  0  0  0  0  0  0
  -27.4220  -37.2860   24.5580 C   0  0  0  0  0  1  0  0  0  0  0  0
  -26.3060  -37.4340   23.6290 N   0  0  0  0  0  0  0  0  0  0  0  0
  -25.8820  -38.3430   23.7870 H   0  0  0  0  0  0  0  0  0  0  0  0
  -26.3960  -31.7610   24.9410 C   0  0  1  0  0  0  0  0  0  0  0  0
  -25.3200  -31.4810   26.0160 C   0  0  0  0  0  1  0  0  0  0  0  0
  -27.0070  -30.4030   24.5260 C   0  0  0  0  0  1  0  0  0  0  0  0
  -27.5340  -32.5760   25.5970 C   0  0  0  0  0  1  0  0  0  0  0  0
  1 52  1  0
  1  8  2  0
  2  4  2  0
  2  1  1  0
  3  2  1  0
  5  3  1  0
  6  3  1  0
  7  8  1  0
  8 10  1  0
  9  7  2  0
 11 23  1  0
 12 17  1  0
 13 14  1  0
 13 12  1  0
 15 14  1  0
 15 27  1  0
 15 16  1  0
 17 11  1  0
 17 16  1  0
 18 11  2  0
 20 19  1  0
 21 19  1  0
 22  7  1  0
 22 20  1  0
 23 22  1  0
 23 21  1  0
 24 25  2  0
 25 44  1  0
 26 25  1  0
 26 29  1  0
 27 28  1  0
 27 24  1  0
 28 26  2  0
 29 30  1  0
 30 31  2  0
 32 35  1  0
 32 31  1  0
 33 32  2  0
 34 33  1  0
 34 29  2  0
 35 36  1  0
 36 37  1  0
 37 38  2  0
 39 38  1  0
 39 43  1  0
 40 39  2  0
 41 36  2  0
 41 40  1  0
 42 41  1  0
 44 45  1  0
 45 48  1  0
 45 47  1  0
 46 44  2  0
 49 24  1  0
 49 50  1  0
 51 49  1  0
 52 53  1  0
 55 54  1  0
 55 56  1  0
 55 53  1  0
 57 56  1  0
 58 69  2  0
 59 57  1  0
 59 64  1  0
 60 68  1  0
 60 70  1  0
 61 67  1  0
 61 63  1  0
 62 68  1  0
 63 64  2  0
 63 62  1  0
 65 59  2  0
 66 65  1  0
 66 61  2  0
 67 60  1  0
 68 58  1  0
 70 72  2  0
 71 70  1  0
 73 71  1  0
 74 83  2  0
 74 79  1  0
 75 71  1  0
 75 79  1  0
 76 75  1  0
 77 78  1  0
 77 76  1  0
 78 74  1  0
 79 80  2  0
 80 81  1  0
 82 81  2  0
 83 82  1  0
 84 58  1  0
 84 85  1  0
 84 94  1  0
 85 88  1  0
 86 90  1  0
 86 85  1  0
 87 86  2  0
 90 89  1  0
 92 90  1  0
 92 93  1  0
 92 91  1  0
 94 97  1  1
 94 95  1  0
 96 94  1  0
M  ISO  4  11 100  23 100  56 101  57 101
M  END
>  <TORSDO>  (96) 
F 22

>  <SCORE>  (96) 
-10.922

>  <name>  (96) 
95

>  <ligand_id>  (96) 
95

>  <original_smiles>  (96) 
[H]c1c([H])c([H])c2c(c1[H])C([H])([H])C([H])([H])C([H])([H])C2([H])N([H])C(=O)C1([H])N(C(=O)C([H])(N([H])C(=O)C([H])(N([H])C([H])([H])[H])C([H])([H])[H])C(C([H])([H])[H])(C([H])([H])[H])C([H])([H])[H])C([H])([H])c2c([H])c(OC([H])([H])C([H])(C([H])([H])[H])C([H])([H])C([H])([H])C([H])(C(=O)N([H])[H])N([H])C(=O)C3([H])N(C(=O)N4C([H])([H])C([H])([H])C([H])([H])C([H])(n5nc(-c6c([H])c([H])c(Oc7c([H])c([H])c(F)c([H])c7F)c([H])c6[H])c(C(=O)N([H])[H])c5N([H])[H])C4([H])[H])C([H])([H])C([H])([H])C3([H])[H])c([H])c([H])c2C1([H])[H]

>  <smiles>  (96) 
[H]c1c([H])c([H])c2c(c1[H])C([H])([H])C([H])([H])C([H])([H])C2([H])N([H])C(=O)C1([H])N(C(=O)C([H])(N([H])C(=O)C([H])(N([H])C([H])([H])[H])C([H])([H])[H])C(C([H])([H])[H])(C([H])([H])[H])C([H])([H])[H])C([H])([H])c2c([H])c(OC([H])([H])C([H])(C([H])([H])[H])C([H])([H])C([H])([H])C([H])(C(=O)N([H])[H])N([H])C(=O)C3([H])N(C(=O)N4C([H])([H])C([H])([H])C([H])([H])C([H])(n5nc(-c6c([H])c([H])c(Oc7c([H])c([H])c(F)c([H])c7F)c([H])c6[H])c(C(=O)N([H])[H])c5N([H])[H])C4([H])[H])C([H])([H])C([H])([H])C3([H])[H])c([H])c([H])c2C1([H])[H]

$$$$
96:0:0
     RDKit          3D

101110  0  0  1  0  0  0  0  0999 V2000
  -26.1580  -24.2730   22.5850 C   0  0  0  0  0  2  0  0  0  0  0  0
  -27.3900  -25.1630   22.4590 C   0  0  0  0  0  2  0  0  0  0  0  0
  -25.5120  -24.1370   21.2080 C   0  0  0  0  0  2  0  0  0  0  0  0
  -26.3250  -22.0960   19.9140 C   0  0  0  0  0  2  0  0  0  0  0  0
  -27.5140  -21.7420   19.0460 C   0  0  0  0  0  2  0  0  0  0  0  0
  -28.4410  -24.4260   21.6210 C   0  0  0  0  0  2  0  0  0  0  0  0
  -26.4680  -23.6030   20.1200 C   0  0  0  0  0  3  0  0  0  0  0  0
  -28.6850  -22.5210   19.6630 C   0  0  0  0  0  3  0  0  0  0  0  0
  -28.0010  -23.9630   20.1980 C   0  0  2  0  0  0  0  0  0  0  0  0
  -28.2630  -25.2900   19.2870 C   0  0  0  0  0  2  0  0  0  0  0  0
  -28.2320  -26.7000   19.8100 O   0  0  0  0  0  0  0  0  0  0  0  0
  -24.6220  -31.9330   23.2880 C   0  0  0  0  0  0  0  0  0  0  0  0
  -27.1020  -27.5390   19.8450 C   0  0  0  0  0  0  0  0  0  0  0  0
  -23.3480  -30.6100   21.6400 C   0  0  0  0  0  3  0  0  0  0  0  0
  -24.7320  -29.1430   20.0650 C   0  0  0  0  0  0  0  0  0  0  0  0
  -25.8820  -30.9390   21.3570 C   0  0  0  0  0  2  0  0  0  0  0  0
  -25.9280  -29.5950   20.6380 C   0  0  0  0  0  0  0  0  0  0  0  0
  -27.1080  -28.7960   20.5340 C   0  0  0  0  0  3  0  0  0  0  0  0
  -25.8910  -27.1620   19.2300 C   0  0  0  0  0  3  0  0  0  0  0  0
  -24.7180  -27.9250   19.3650 C   0  0  0  0  0  3  0  0  0  0  0  0
  -23.4940  -30.0020   20.2210 C   0  0  0  0  0  2  0  0  0  0  0  0
  -24.6380  -31.1810   22.1480 N   0  0  0  0  0  0  0  0  0  0  0  0
  -23.5630  -32.1810   23.8850 O   0  0  0  0  0  0  0  0  0  0  0  0
  -22.7340  -29.5440   22.5790 C   0  0  0  0  0  0  0  0  0  0  0  0
  -21.4120  -29.3260   22.4660 N   0  0  0  0  0  0  0  0  0  0  0  0
  -23.4460  -28.9120   23.3660 O   0  0  0  0  0  0  0  0  0  0  0  0
  -20.8960  -29.8870   21.8030 H   0  0  0  0  0  0  0  0  0  0  0  0
  -18.0950  -27.9490   22.9080 C   0  0  0  0  0  0  0  0  0  0  0  0
  -20.6340  -28.3410   23.2190 C   0  0  0  0  0  3  0  0  0  0  0  0
  -20.8250  -26.9210   22.6390 C   0  0  0  0  0  2  0  0  0  0  0  0
  -19.7570  -26.5480   21.6060 C   0  0  0  0  0  2  0  0  0  0  0  0
  -18.3580  -26.6130   22.2280 C   0  0  0  0  0  2  0  0  0  0  0  0
  -19.1650  -28.7660   23.3580 C   0  0  0  0  0  0  0  0  0  0  0  0
  -18.8690  -30.0110   23.9520 C   0  0  0  0  0  3  0  0  0  0  0  0
  -17.5370  -30.4380   24.1110 C   0  0  0  0  0  3  0  0  0  0  0  0
  -16.4810  -29.6140   23.6820 C   0  0  0  0  0  3  0  0  0  0  0  0
  -16.7620  -28.3740   23.0800 C   0  0  0  0  0  3  0  0  0  0  0  0
  -25.9310  -32.5390   23.8840 C   0  0  0  0  0  3  0  0  0  0  0  0
  -25.6560  -33.9460   24.2170 N   0  0  0  0  0  0  0  0  0  0  0  0
  -25.9930  -34.9920   23.4500 C   0  0  0  0  0  0  0  0  0  0  0  0
  -26.6360  -34.8740   22.4030 O   0  0  0  0  0  0  0  0  0  0  0  0
  -25.0820  -34.1170   25.0290 H   0  0  0  0  0  0  0  0  0  0  0  0
  -24.2820  -36.8160   23.1530 C   0  0  0  0  0  1  0  0  0  0  0  0
  -25.5440  -36.3920   23.9200 C   0  0  0  0  0  3  0  0  0  0  0  0
  -27.7200  -37.2410   24.6730 C   0  0  0  0  0  1  0  0  0  0  0  0
  -26.5890  -37.4270   23.7670 N   0  0  0  0  0  0  0  0  0  0  0  0
  -26.2020  -38.3520   23.9270 H   0  0  0  0  0  0  0  0  0  0  0  0
  -26.4600  -31.7610   25.1500 C   0  0  1  0  0  0  0  0  0  0  0  0
  -25.3820  -31.5330   26.2350 C   0  0  0  0  0  1  0  0  0  0  0  0
  -27.0230  -30.3770   24.7500 C   0  0  0  0  0  1  0  0  0  0  0  0
  -27.6300  -32.5430   25.7930 C   0  0  0  0  0  1  0  0  0  0  0  0
  -29.6190  -21.4310   20.4900 C   0  0  0  0  0  0  0  0  0  0  0  0
  -29.6240  -18.7640   19.9390 C   0  0  0  0  0  0  0  0  0  0  0  0
  -30.0300  -20.0890   19.8570 N   0  0  0  0  0  4  0  0  0  0  0  0
  -28.4670  -18.4290   20.2060 O   0  0  0  0  0  0  0  0  0  0  0  0
  -30.9780  -20.1430   19.5020 H   0  0  0  0  0  0  0  0  0  0  0  0
  -31.1580  -17.6520   18.2740 C   0  0  0  0  0  1  0  0  0  0  0  0
  -31.9220  -17.9850   20.6560 C   0  0  0  0  0  1  0  0  0  0  0  0
  -30.7110  -17.6090   19.7620 C   0  0  1  0  0  0  0  0  0  0  0  0
  -30.9780  -15.0150   20.0750 C   0  0  0  0  0  0  0  0  0  0  0  0
  -30.7090  -12.6900   19.2390 C   0  0  0  0  0  2  0  0  0  0  0  0
  -29.7580  -12.6950   18.0260 C   0  0  0  0  0  2  0  0  0  0  0  0
  -28.3010  -12.5460   18.4980 C   0  0  0  0  0  2  0  0  0  0  0  0
  -27.9420  -13.5190   19.6530 C   0  0  0  0  0  3  0  0  0  0  0  0
  -29.0210  -13.5380   20.7600 C   0  0  0  0  0  2  0  0  0  0  0  0
  -30.3100  -13.8130   20.1170 N   0  0  0  0  0  0  0  0  0  0  0  0
  -32.1670  -15.0450   19.7620 O   0  0  0  0  0  0  0  0  0  0  0  0
  -30.2560  -16.1910   20.1280 N   0  0  0  0  0  0  0  0  0  0  0  0
  -29.2760  -16.1060   20.3660 H   0  0  0  0  0  0  0  0  0  0  0  0
  -25.5800  -14.1350   20.4520 C   0  0  0  0  0  0  0  0  0  0  0  0
  -24.5130  -13.3720   20.8340 C   0  0  0  0  0  0  0  0  0  0  0  0
  -24.9490  -12.0150   20.7620 C   0  0  0  0  0  0  0  0  0  0  0  0
  -26.6060  -13.2470   20.1790 N   0  0  0  0  0  0  0  0  0  0  0  0
  -26.2330  -11.9610   20.4250 N   0  0  0  0  0  0  0  0  0  0  0  0
  -24.2040  -10.7610   20.9400 C   0  0  0  0  0  0  0  0  0  0  0  0
  -24.6160   -9.7830   21.8730 C   0  0  0  0  0  3  0  0  0  0  0  0
  -23.8720   -8.5950   22.0400 C   0  0  0  0  0  3  0  0  0  0  0  0
  -22.7020   -8.3760   21.2740 C   0  0  0  0  0  0  0  0  0  0  0  0
  -22.3100   -9.3410   20.3320 C   0  0  0  0  0  3  0  0  0  0  0  0
  -23.0530  -10.5210   20.1620 C   0  0  0  0  0  3  0  0  0  0  0  0
  -21.9310   -7.2420   21.3510 O   0  0  0  0  0  0  0  0  0  0  0  0
  -21.8090   -6.5300   22.5180 C   0  0  0  0  0  0  0  0  0  0  0  0
  -21.3350   -7.1250   23.7070 C   0  0  0  0  0  3  0  0  0  0  0  0
  -21.1610   -6.3420   24.8650 C   0  0  0  0  0  3  0  0  0  0  0  0
  -21.4530   -4.9640   24.8340 C   0  0  0  0  0  0  0  0  0  0  0  0
  -21.9190   -4.3700   23.6490 C   0  0  0  0  0  3  0  0  0  0  0  0
  -22.0950   -5.1500   22.4930 C   0  0  0  0  0  0  0  0  0  0  0  0
  -22.5250   -4.5660   21.3490 F   0  0  0  0  0  0  0  0  0  0  0  0
  -21.2790   -4.2110   25.9450 F   0  0  0  0  0  0  0  0  0  0  0  0
  -23.1290  -13.8640   21.1610 C   0  0  0  0  0  0  0  0  0  0  0  0
  -22.4260  -13.1680   22.0450 N   0  0  0  0  0  0  0  0  0  0  0  0
  -22.6850  -14.9030   20.6690 O   0  0  0  0  0  0  0  0  0  0  0  0
  -22.7920  -12.3280   22.4700 H   0  0  0  0  0  0  0  0  0  0  0  0
  -21.5000  -13.4790   22.3070 H   0  0  0  0  0  0  0  0  0  0  0  0
  -25.7630  -15.5100   20.2930 N   0  0  0  0  0  0  0  0  0  0  0  0
  -25.0200  -16.1760   20.4730 H   0  0  0  0  0  0  0  0  0  0  0  0
  -26.6250  -15.9560   20.0080 H   0  0  0  0  0  0  0  0  0  0  0  0
  -29.7790  -20.0130   22.7550 C   0  0  0  0  0  1  0  0  0  0  0  0
  -29.6070  -21.3840   22.0730 C   0  0  0  0  0  3  0  0  0  0  0  0
  -30.6040  -22.7120   24.1210 C   0  0  0  0  0  1  0  0  0  0  0  0
  -30.6980  -22.3550   22.6310 C   0  0  0  0  0  2  0  0  0  0  0  0
  2  1  1  0
  3  1  1  0
  5  8  1  0
  5  4  1  0
  6  2  1  0
  7  4  1  0
  7  9  1  0
  7  3  1  0
  8  9  1  0
  8 52  1  0
  9 10  1  6
  9  6  1  0
 10 11  1  0
 11 13  1  0
 12 23  2  0
 13 18  1  0
 14 22  1  0
 14 24  1  0
 15 21  1  0
 15 17  1  0
 16 22  1  0
 17 16  1  0
 18 17  2  0
 19 20  1  0
 19 13  2  0
 20 15  2  0
 21 14  1  0
 22 12  1  0
 24 26  2  0
 25 24  1  0
 27 25  1  0
 28 37  2  0
 28 33  1  0
 29 25  1  0
 29 33  1  0
 30 29  1  0
 31 32  1  0
 31 30  1  0
 32 28  1  0
 33 34  2  0
 34 35  1  0
 36 35  2  0
 37 36  1  0
 38 12  1  0
 38 39  1  0
 38 48  1  0
 39 42  1  0
 40 44  1  0
 40 39  1  0
 41 40  2  0
 44 43  1  0
 46 44  1  0
 46 47  1  0
 46 45  1  0
 48 51  1  1
 48 49  1  0
 50 48  1  0
 52 99  1  0
 53 55  2  0
 54 53  1  0
 54 52  2  3
 56 54  1  0
 59 57  1  6
 59 53  1  0
 59 68  1  0
 59 58  1  0
 60 66  1  0
 60 68  1  0
 61 66  1  0
 62 63  1  0
 62 61  1  0
 64 63  1  0
 64 73  1  0
 64 65  1  0
 66 65  1  0
 67 60  2  0
 68 69  1  0
 70 71  2  0
 71 90  1  0
 72 71  1  0
 72 75  1  0
 73 74  1  0
 73 70  1  0
 74 72  2  0
 75 76  1  0
 76 77  2  0
 78 81  1  0
 78 77  1  0
 79 78  2  0
 80 79  1  0
 80 75  2  0
 81 82  1  0
 82 83  1  0
 83 84  2  0
 85 84  1  0
 85 89  1  0
 86 85  2  0
 87 82  2  0
 87 86  1  0
 88 87  1  0
 90 91  1  0
 91 94  1  0
 91 93  1  0
 92 90  2  0
 95 70  1  0
 95 96  1  0
 97 95  1  0
 99101  1  0
 99 98  1  0
101100  1  0
M  ISO  4  10 101  11 101  60 100  68 100
M  END
>  <TORSDO>  (97) 
F 22

>  <SCORE>  (97) 
-11.878

>  <name>  (97) 
96

>  <ligand_id>  (97) 
96

>  <original_smiles>  (97) 
[H]c1c([H])c([H])c2c(c1[H])C([H])([H])C([H])([H])C([H])([H])C2([H])N([H])C(=O)C1([H])N(C(=O)C([H])(N([H])C(=O)C([H])(N([H])C([H])([H])[H])C([H])([H])[H])C(C([H])([H])[H])(C([H])([H])[H])C([H])([H])[H])C([H])([H])c2c([H])c(OC([H])([H])C34C([H])([H])C([H])([H])C([H])([H])C([H])([H])C3([H])C([H])([H])C([H])([H])C4([H])C([H])(N([H])C(=O)C(N([H])C(=O)N3C([H])([H])C([H])([H])C([H])([H])C([H])(n4nc(-c5c([H])c([H])c(Oc6c([H])c([H])c(F)c([H])c6F)c([H])c5[H])c(C(=O)N([H])[H])c4N([H])[H])C3([H])[H])(C([H])([H])[H])C([H])([H])[H])C([H])(C([H])([H])[H])C([H])([H])C([H])([H])[H])c([H])c([H])c2C1([H])[H]

>  <smiles>  (97) 
[H]c1c([H])c([H])c2c(c1[H])C([H])([H])C([H])([H])C([H])([H])C2([H])N([H])C(=O)C1([H])N(C(=O)C([H])(N([H])C(=O)C([H])(N([H])C([H])([H])[H])C([H])([H])[H])C(C([H])([H])[H])(C([H])([H])[H])C([H])([H])[H])C([H])([H])c2c([H])c(OC([H])([H])C34C([H])([H])C([H])([H])C([H])([H])C([H])([H])C3([H])C([H])([H])C([H])([H])C4([H])C([H])(N([H])C(=O)C(N([H])C(=O)N3C([H])([H])C([H])([H])C([H])([H])C([H])(n4nc(-c5c([H])c([H])c(Oc6c([H])c([H])c(F)c([H])c6F)c([H])c5[H])c(C(=O)N([H])[H])c4N([H])[H])C3([H])[H])(C([H])([H])[H])C([H])([H])[H])C([H])(C([H])([H])[H])C([H])([H])C([H])([H])[H])c([H])c([H])c2C1([H])[H]

$$$$
97:0:0
     RDKit          3D

 98106  0  0  1  0  0  0  0  0999 V2000
  -31.5220  -21.7170   21.6550 C   0  0  0  0  0  2  0  0  0  0  0  0
  -31.6920  -20.9790   20.3200 C   0  0  0  0  0  2  0  0  0  0  0  0
  -30.1140  -22.3230   21.6250 C   0  0  0  0  0  2  0  0  0  0  0  0
  -30.3290  -21.0450   19.6060 C   0  0  0  0  0  3  0  0  0  0  0  0
  -29.6260  -22.2180   20.2290 N   0  0  2  0  0  4  0  0  0  0  0  0
  -28.6660  -21.8960   20.2750 H   0  0  0  0  0  0  0  0  0  0  0  0
  -30.8960  -24.3700   19.6380 C   0  0  0  0  0  1  0  0  0  0  0  0
  -29.6150  -23.5220   19.4640 C   0  0  0  0  0  3  0  0  0  0  0  0
  -27.4110  -24.3140   18.4020 C   0  0  0  0  0  1  0  0  0  0  0  0
  -28.2760  -24.3380   19.6740 C   0  0  0  0  0  3  0  0  0  0  0  0
  -28.2810  -25.7350   20.4290 C   0  0  0  0  0  2  0  0  0  0  0  0
  -28.3560  -27.0120   19.7270 O   0  0  0  0  0  0  0  0  0  0  0  0
  -24.4800  -31.9200   23.2880 C   0  0  0  0  0  0  0  0  0  0  0  0
  -27.2130  -27.7980   19.8100 C   0  0  0  0  0  0  0  0  0  0  0  0
  -23.3030  -30.6330   21.5390 C   0  0  0  0  0  3  0  0  0  0  0  0
  -24.7890  -29.2700   19.9780 C   0  0  0  0  0  0  0  0  0  0  0  0
  -25.8250  -31.0660   21.3660 C   0  0  0  0  0  2  0  0  0  0  0  0
  -25.9440  -29.7560   20.6050 C   0  0  0  0  0  0  0  0  0  0  0  0
  -27.1620  -29.0270   20.5220 C   0  0  0  0  0  3  0  0  0  0  0  0
  -26.0410  -27.3610   19.1630 C   0  0  0  0  0  3  0  0  0  0  0  0
  -24.8340  -28.0720   19.2520 C   0  0  0  0  0  3  0  0  0  0  0  0
  -23.5230  -30.0880   20.1050 C   0  0  0  0  0  2  0  0  0  0  0  0
  -24.5540  -31.2170   22.1220 N   0  0  0  0  0  0  0  0  0  0  0  0
  -23.3930  -32.1140   23.8520 O   0  0  0  0  0  0  0  0  0  0  0  0
  -22.6870  -29.5130   22.4090 C   0  0  0  0  0  0  0  0  0  0  0  0
  -21.3780  -29.2660   22.2340 N   0  0  0  0  0  0  0  0  0  0  0  0
  -23.3850  -28.8700   23.1980 O   0  0  0  0  0  0  0  0  0  0  0  0
  -20.8710  -29.8430   21.5760 H   0  0  0  0  0  0  0  0  0  0  0  0
  -18.0700  -27.8450   22.5540 C   0  0  0  0  0  0  0  0  0  0  0  0
  -20.5990  -28.2330   22.9180 C   0  0  0  0  0  3  0  0  0  0  0  0
  -20.8010  -26.8520   22.2540 C   0  0  0  0  0  2  0  0  0  0  0  0
  -19.7490  -26.5310   21.1880 C   0  0  0  0  0  2  0  0  0  0  0  0
  -18.3440  -26.5550   21.7990 C   0  0  0  0  0  2  0  0  0  0  0  0
  -19.1290  -28.6420   23.0650 C   0  0  0  0  0  0  0  0  0  0  0  0
  -18.8190  -29.8490   23.7290 C   0  0  0  0  0  3  0  0  0  0  0  0
  -17.4830  -30.2620   23.8860 C   0  0  0  0  0  3  0  0  0  0  0  0
  -16.4380  -29.4640   23.3900 C   0  0  0  0  0  3  0  0  0  0  0  0
  -16.7320  -28.2570   22.7300 C   0  0  0  0  0  3  0  0  0  0  0  0
  -25.7510  -32.5340   23.9520 C   0  0  0  0  0  3  0  0  0  0  0  0
  -25.4500  -33.9370   24.2680 N   0  0  0  0  0  0  0  0  0  0  0  0
  -25.8040  -34.9800   23.5060 C   0  0  0  0  0  0  0  0  0  0  0  0
  -26.4870  -34.8620   22.4840 O   0  0  0  0  0  0  0  0  0  0  0  0
  -24.8500  -34.1040   25.0610 H   0  0  0  0  0  0  0  0  0  0  0  0
  -24.0950  -36.7830   23.1120 C   0  0  0  0  0  1  0  0  0  0  0  0
  -25.3210  -36.3760   23.9450 C   0  0  0  0  0  3  0  0  0  0  0  0
  -27.4470  -37.2550   24.8020 C   0  0  0  0  0  1  0  0  0  0  0  0
  -26.3640  -37.4190   23.8370 N   0  0  0  0  0  0  0  0  0  0  0  0
  -25.9620  -38.3450   23.9620 H   0  0  0  0  0  0  0  0  0  0  0  0
  -26.2100  -31.7580   25.2480 C   0  0  1  0  0  0  0  0  0  0  0  0
  -25.0650  -31.5010   26.2550 C   0  0  0  0  0  1  0  0  0  0  0  0
  -26.8300  -30.3900   24.8750 C   0  0  0  0  0  1  0  0  0  0  0  0
  -27.3160  -32.5600   25.9740 C   0  0  0  0  0  1  0  0  0  0  0  0
  -29.4410  -19.7680   19.8460 C   0  0  0  0  0  0  0  0  0  0  0  0
  -28.3330  -19.8900   20.3810 O   0  0  0  0  0  0  0  0  0  0  0  0
  -29.9140  -18.3390   19.3950 C   0  0  0  0  0  2  0  0  0  0  0  0
  -30.0940  -17.2590   20.5430 C   0  0  0  0  0  0  0  0  0  0  0  0
  -30.6740  -14.8210   19.7370 C   0  0  0  0  0  0  0  0  0  0  0  0
  -30.4880  -12.5010   18.8750 C   0  0  0  0  0  2  0  0  0  0  0  0
  -29.4600  -12.4770   17.7240 C   0  0  0  0  0  2  0  0  0  0  0  0
  -28.0260  -12.3120   18.2680 C   0  0  0  0  0  2  0  0  0  0  0  0
  -27.7080  -13.2860   19.4340 C   0  0  0  0  0  3  0  0  0  0  0  0
  -28.8410  -13.2540   20.4850 C   0  0  0  0  0  2  0  0  0  0  0  0
  -30.0980  -13.5850   19.7910 N   0  0  0  0  0  0  0  0  0  0  0  0
  -31.7650  -15.0220   19.2020 O   0  0  0  0  0  0  0  0  0  0  0  0
  -29.8890  -15.8190   20.2030 N   0  0  0  0  0  4  0  0  0  0  0  0
  -29.0010  -15.4660   20.5230 H   0  0  0  0  0  0  0  0  0  0  0  0
  -25.4020  -13.8990   20.4010 C   0  0  0  0  0  0  0  0  0  0  0  0
  -24.3590  -13.1260   20.8360 C   0  0  0  0  0  0  0  0  0  0  0  0
  -24.7900  -11.7700   20.7030 C   0  0  0  0  0  0  0  0  0  0  0  0
  -26.4020  -13.0120   20.0310 N   0  0  0  0  0  0  0  0  0  0  0  0
  -26.0440  -11.7260   20.2710 N   0  0  0  0  0  0  0  0  0  0  0  0
  -24.0580  -10.5120   20.9070 C   0  0  0  0  0  0  0  0  0  0  0  0
  -24.4640   -9.5750   21.8830 C   0  0  0  0  0  3  0  0  0  0  0  0
  -23.7380   -8.3790   22.0720 C   0  0  0  0  0  3  0  0  0  0  0  0
  -22.5920   -8.1120   21.2870 C   0  0  0  0  0  0  0  0  0  0  0  0
  -22.2060   -9.0390   20.3000 C   0  0  0  0  0  3  0  0  0  0  0  0
  -22.9320  -10.2250   20.1100 C   0  0  0  0  0  3  0  0  0  0  0  0
  -21.8410   -6.9670   21.3820 O   0  0  0  0  0  0  0  0  0  0  0  0
  -21.6630   -6.3210   22.5800 C   0  0  0  0  0  0  0  0  0  0  0  0
  -21.0910   -6.9660   23.6970 C   0  0  0  0  0  3  0  0  0  0  0  0
  -20.8610   -6.2440   24.8850 C   0  0  0  0  0  3  0  0  0  0  0  0
  -21.1970   -4.8790   24.9550 C   0  0  0  0  0  0  0  0  0  0  0  0
  -21.7640   -4.2340   23.8430 C   0  0  0  0  0  3  0  0  0  0  0  0
  -21.9940   -4.9530   22.6570 C   0  0  0  0  0  0  0  0  0  0  0  0
  -22.5210   -4.3210   21.5810 F   0  0  0  0  0  0  0  0  0  0  0  0
  -20.9710   -4.1850   26.0950 F   0  0  0  0  0  0  0  0  0  0  0  0
  -23.0000  -13.6110   21.2570 C   0  0  0  0  0  0  0  0  0  0  0  0
  -22.3780  -12.9420   22.2240 N   0  0  0  0  0  0  0  0  0  0  0  0
  -22.4980  -14.6190   20.7620 O   0  0  0  0  0  0  0  0  0  0  0  0
  -22.7940  -12.1290   22.6520 H   0  0  0  0  0  0  0  0  0  0  0  0
  -21.4690  -13.2520   22.5390 H   0  0  0  0  0  0  0  0  0  0  0  0
  -25.5720  -15.2750   20.2670 N   0  0  0  0  0  0  0  0  0  0  0  0
  -24.8210  -15.9230   20.4710 H   0  0  0  0  0  0  0  0  0  0  0  0
  -26.3880  -15.7240   19.8700 H   0  0  0  0  0  0  0  0  0  0  0  0
  -31.1710  -18.7820   22.3200 C   0  0  0  0  0  1  0  0  0  0  0  0
  -31.3020  -16.3170   22.5650 C   0  0  0  0  0  1  0  0  0  0  0  0
  -32.6550  -17.4850   20.8020 C   0  0  0  0  0  1  0  0  0  0  0  0
  -31.2960  -17.4640   21.5300 C   0  0  1  0  0  0  0  0  0  0  0  0
  2  1  1  0
  3  1  1  0
  4 53  1  0
  4  5  1  0
  4  2  1  0
  5  6  1  1
  5  3  1  0
  8  7  1  0
  8 10  1  0
  8  5  1  0
 10  9  1  0
 10 11  1  0
 12 14  1  0
 12 11  1  0
 13 24  2  0
 14 19  1  0
 15 23  1  0
 15 25  1  0
 16 22  1  0
 16 18  1  0
 17 23  1  0
 18 17  1  0
 19 18  2  0
 20 21  1  0
 20 14  2  0
 21 16  2  0
 22 15  1  0
 23 13  1  0
 25 27  2  0
 26 25  1  0
 28 26  1  0
 29 38  2  0
 29 34  1  0
 30 26  1  0
 30 34  1  0
 31 30  1  0
 32 33  1  0
 32 31  1  0
 33 29  1  0
 34 35  2  0
 35 36  1  0
 37 36  2  0
 38 37  1  0
 39 13  1  0
 39 40  1  0
 39 49  1  0
 40 43  1  0
 41 45  1  0
 41 40  1  0
 42 41  2  0
 45 44  1  0
 47 45  1  0
 47 48  1  0
 47 46  1  0
 49 52  1  1
 49 50  1  0
 51 49  1  0
 53 54  2  0
 55 53  1  0
 55 56  1  0
 56 98  1  0
 57 63  1  0
 57 65  1  0
 58 63  1  0
 59 60  1  0
 59 58  1  0
 61 60  1  0
 61 70  1  0
 61 62  1  0
 63 62  1  0
 64 57  2  0
 65 66  1  0
 65 56  2  3
 67 68  2  0
 68 87  1  0
 69 68  1  0
 69 72  1  0
 70 71  1  0
 70 67  1  0
 71 69  2  0
 72 73  1  0
 73 74  2  0
 75 78  1  0
 75 74  1  0
 76 75  2  0
 77 76  1  0
 77 72  2  0
 78 79  1  0
 79 84  2  0
 79 80  1  0
 80 81  2  0
 81 82  1  0
 82 86  1  0
 83 82  2  0
 84 83  1  0
 85 84  1  0
 87 88  1  0
 88 91  1  0
 88 90  1  0
 89 87  2  0
 92 67  1  0
 92 93  1  0
 94 92  1  0
 98 97  1  6
 98 95  1  0
 98 96  1  0
M  ISO  4  11 101  12 101  57 100  65 100
M  END
>  <TORSDO>  (98) 
F 23

>  <SCORE>  (98) 
-11.773

>  <name>  (98) 
97

>  <ligand_id>  (98) 
97

>  <original_smiles>  (98) 
[H]c1c([H])c([H])c2c(c1[H])C([H])([H])C([H])([H])C([H])([H])C2([H])N([H])C(=O)C1([H])N(C(=O)C([H])(N([H])C(=O)C([H])(N([H])C([H])([H])[H])C([H])([H])[H])C(C([H])([H])[H])(C([H])([H])[H])C([H])([H])[H])C([H])([H])c2c([H])c(OC([H])([H])C([H])(C([H])([H])[H])C([H])(C([H])([H])[H])[N+]3([H])C([H])([H])C([H])([H])C([H])([H])C3([H])C(=O)C([H])([H])C([H])(N([H])C(=O)N3C([H])([H])C([H])([H])C([H])([H])C([H])(n4nc(-c5c([H])c([H])c(Oc6c([H])c([H])c(F)c([H])c6F)c([H])c5[H])c(C(=O)N([H])[H])c4N([H])[H])C3([H])[H])C(C([H])([H])[H])(C([H])([H])[H])C([H])([H])[H])c([H])c([H])c2C1([H])[H]

>  <smiles>  (98) 
[H]c1c([H])c([H])c2c(c1[H])C([H])([H])C([H])([H])C([H])([H])C2([H])N([H])C(=O)C1([H])N(C(=O)C([H])(N([H])C(=O)C([H])(N([H])C([H])([H])[H])C([H])([H])[H])C(C([H])([H])[H])(C([H])([H])[H])C([H])([H])[H])C([H])([H])c2c([H])c(OC([H])([H])C([H])(C([H])([H])[H])C([H])(C([H])([H])[H])[N+]3([H])C([H])([H])C([H])([H])C([H])([H])C3([H])C(=O)C([H])([H])C([H])(N([H])C(=O)N3C([H])([H])C([H])([H])C([H])([H])C([H])(n4nc(-c5c([H])c([H])c(Oc6c([H])c([H])c(F)c([H])c6F)c([H])c5[H])c(C(=O)N([H])[H])c4N([H])[H])C3([H])[H])C(C([H])([H])[H])(C([H])([H])[H])C([H])([H])[H])c([H])c([H])c2C1([H])[H]

$$$$
98:0:0
     RDKit          3D

 89 97  0  0  1  0  0  0  0  0999 V2000
  -29.0650  -22.7180   20.4570 C   0  0  0  0  0  3  0  0  0  0  0  0
  -30.4130  -15.6120   19.8120 C   0  0  0  0  0  0  0  0  0  0  0  0
  -30.3210  -13.1450   18.9280 C   0  0  0  0  0  2  0  0  0  0  0  0
  -29.3340  -12.8180   17.7780 C   0  0  0  0  0  2  0  0  0  0  0  0
  -27.9440  -12.4910   18.3410 C   0  0  0  0  0  2  0  0  0  0  0  0
  -27.5350  -13.4830   19.4570 C   0  0  0  0  0  3  0  0  0  0  0  0
  -28.6520  -13.7430   20.4940 C   0  0  0  0  0  2  0  0  0  0  0  0
  -29.7920  -14.3130   19.7500 N   0  0  0  0  0  0  0  0  0  0  0  0
  -31.6310  -15.4870   19.5850 O   0  0  0  0  0  0  0  0  0  0  0  0
  -30.0850  -19.7470   21.0160 C   0  0  0  0  0  3  0  0  0  0  0  0
  -28.7540  -19.6690   19.1870 C   0  0  0  0  0  3  0  0  0  0  0  0
  -30.6740  -18.2600   20.4500 C   0  0  0  0  0  2  0  0  0  0  0  0
  -28.7160  -17.9360   19.4230 C   0  0  0  0  0  3  0  0  0  0  0  0
  -28.9580  -20.8120   20.3770 C   0  0  0  0  0  0  0  0  0  0  0  0
  -29.8450  -17.0230   20.0380 N   0  0  0  0  0  0  0  0  0  0  0  0
  -25.2470  -14.0150   20.4320 C   0  0  0  0  0  0  0  0  0  0  0  0
  -24.2110  -13.2350   20.8530 C   0  0  0  0  0  0  0  0  0  0  0  0
  -24.6620  -11.8810   20.7400 C   0  0  0  0  0  0  0  0  0  0  0  0
  -26.2600  -13.1450   20.0700 N   0  0  0  0  0  0  0  0  0  0  0  0
  -25.9260  -11.8520   20.3230 N   0  0  0  0  0  0  0  0  0  0  0  0
  -23.9380  -10.6180   20.9440 C   0  0  0  0  0  0  0  0  0  0  0  0
  -24.3980   -9.6420   21.8560 C   0  0  0  0  0  3  0  0  0  0  0  0
  -23.6740   -8.4450   22.0490 C   0  0  0  0  0  3  0  0  0  0  0  0
  -22.4750   -8.2160   21.3330 C   0  0  0  0  0  0  0  0  0  0  0  0
  -22.0340   -9.1820   20.4090 C   0  0  0  0  0  3  0  0  0  0  0  0
  -22.7590  -10.3690   20.2130 C   0  0  0  0  0  3  0  0  0  0  0  0
  -21.7190   -7.0750   21.4390 O   0  0  0  0  0  0  0  0  0  0  0  0
  -21.6690   -6.3480   22.6030 C   0  0  0  0  0  0  0  0  0  0  0  0
  -21.1870   -6.9050   23.8070 C   0  0  0  0  0  3  0  0  0  0  0  0
  -21.0870   -6.1050   24.9630 C   0  0  0  0  0  3  0  0  0  0  0  0
  -21.4570   -4.7470   24.9140 C   0  0  0  0  0  0  0  0  0  0  0  0
  -21.9310   -4.1890   23.7130 C   0  0  0  0  0  3  0  0  0  0  0  0
  -22.0330   -4.9880   22.5610 C   0  0  0  0  0  0  0  0  0  0  0  0
  -22.4720   -4.4400   21.4010 F   0  0  0  0  0  0  0  0  0  0  0  0
  -21.3530   -3.9760   26.0210 F   0  0  0  0  0  0  0  0  0  0  0  0
  -22.8410  -13.7140   21.2380 C   0  0  0  0  0  0  0  0  0  0  0  0
  -22.1730  -13.0040   22.1380 N   0  0  0  0  0  0  0  0  0  0  0  0
  -22.3750  -14.7550   20.7740 O   0  0  0  0  0  0  0  0  0  0  0  0
  -22.5650  -12.1690   22.5450 H   0  0  0  0  0  0  0  0  0  0  0  0
  -21.2550  -13.3060   22.4290 H   0  0  0  0  0  0  0  0  0  0  0  0
  -25.4070  -15.3900   20.2920 N   0  0  0  0  0  0  0  0  0  0  0  0
  -24.6670  -16.0470   20.5100 H   0  0  0  0  0  0  0  0  0  0  0  0
  -26.2470  -15.8350   19.9500 H   0  0  0  0  0  0  0  0  0  0  0  0
  -30.1840  -24.4460   22.0420 C   0  0  0  0  0  1  0  0  0  0  0  0
  -30.1710  -22.1510   22.8230 C   0  0  0  0  0  1  0  0  0  0  0  0
  -28.0330  -23.3780   22.7620 C   0  0  0  0  0  1  0  0  0  0  0  0
  -29.3470  -23.1440   21.9790 C   0  0  2  0  0  0  0  0  0  0  0  0
  -28.1140  -24.2250   19.8940 C   0  0  0  0  0  2  0  0  0  0  0  0
  -28.2400  -25.8990   20.1300 O   0  0  0  0  0  0  0  0  0  0  0  0
  -24.6440  -31.8470   23.2280 C   0  0  0  0  0  0  0  0  0  0  0  0
  -27.2210  -27.0130   20.0910 C   0  0  0  0  0  0  0  0  0  0  0  0
  -23.4550  -30.4810   21.5620 C   0  0  0  0  0  3  0  0  0  0  0  0
  -24.9090  -28.9120   20.0930 C   0  0  0  0  0  0  0  0  0  0  0  0
  -26.0200  -30.7030   21.4110 C   0  0  0  0  0  2  0  0  0  0  0  0
  -26.1000  -29.3030   20.7200 C   0  0  0  0  0  0  0  0  0  0  0  0
  -27.2470  -28.3770   20.6900 C   0  0  0  0  0  3  0  0  0  0  0  0
  -25.9990  -26.7890   19.4180 C   0  0  0  0  0  3  0  0  0  0  0  0
  -24.8890  -27.6770   19.4190 C   0  0  0  0  0  3  0  0  0  0  0  0
  -23.6850  -29.8300   20.1690 C   0  0  0  0  0  2  0  0  0  0  0  0
  -24.7270  -31.0400   22.1190 N   0  0  0  0  0  0  0  0  0  0  0  0
  -23.5530  -32.1120   23.7610 O   0  0  0  0  0  0  0  0  0  0  0  0
  -22.7720  -29.4580   22.5070 C   0  0  0  0  0  0  0  0  0  0  0  0
  -21.4440  -29.2740   22.3790 N   0  0  0  0  0  0  0  0  0  0  0  0
  -23.4450  -28.8300   23.3270 O   0  0  0  0  0  0  0  0  0  0  0  0
  -20.9500  -29.8330   21.6990 H   0  0  0  0  0  0  0  0  0  0  0  0
  -18.0810  -28.0050   22.8750 C   0  0  0  0  0  0  0  0  0  0  0  0
  -20.6370  -28.3080   23.1330 C   0  0  0  0  0  3  0  0  0  0  0  0
  -20.7600  -26.8910   22.5250 C   0  0  0  0  0  2  0  0  0  0  0  0
  -19.6590  -26.5740   21.5090 C   0  0  0  0  0  2  0  0  0  0  0  0
  -18.2770  -26.6780   22.1610 C   0  0  0  0  0  2  0  0  0  0  0  0
  -19.1870  -28.7780   23.3160 C   0  0  0  0  0  0  0  0  0  0  0  0
  -18.9460  -30.0190   23.9460 C   0  0  0  0  0  3  0  0  0  0  0  0
  -17.6310  -30.4840   24.1390 C   0  0  0  0  0  3  0  0  0  0  0  0
  -16.5400  -29.7090   23.7090 C   0  0  0  0  0  3  0  0  0  0  0  0
  -16.7670  -28.4720   23.0830 C   0  0  0  0  0  3  0  0  0  0  0  0
  -25.9080  -32.4900   23.8710 C   0  0  0  0  0  3  0  0  0  0  0  0
  -25.5910  -33.8940   24.1910 N   0  0  0  0  0  0  0  0  0  0  0  0
  -25.9090  -34.9490   23.4280 C   0  0  0  0  0  0  0  0  0  0  0  0
  -26.5560  -34.8410   22.3820 O   0  0  0  0  0  0  0  0  0  0  0  0
  -25.0110  -34.0480   25.0010 H   0  0  0  0  0  0  0  0  0  0  0  0
  -24.1580  -36.7360   23.1220 C   0  0  0  0  0  1  0  0  0  0  0  0
  -25.4300  -36.3410   23.8900 C   0  0  0  0  0  3  0  0  0  0  0  0
  -27.5830  -37.2570   24.6420 C   0  0  0  0  0  1  0  0  0  0  0  0
  -26.4520  -37.4000   23.7270 N   0  0  0  0  0  0  0  0  0  0  0  0
  -26.0440  -38.3210   23.8670 H   0  0  0  0  0  0  0  0  0  0  0  0
  -26.3890  -31.7360   25.1740 C   0  0  1  0  0  0  0  0  0  0  0  0
  -25.2720  -31.5220   26.2250 C   0  0  0  0  0  1  0  0  0  0  0  0
  -26.9730  -30.3480   24.8270 C   0  0  0  0  0  1  0  0  0  0  0  0
  -27.5300  -32.5340   25.8470 C   0  0  0  0  0  1  0  0  0  0  0  0
  1 48  1  0
  1 47  1  0
  2 15  1  0
  3  8  1  0
  4  5  1  0
  4  3  1  0
  6  5  1  0
  6 19  1  0
  6  7  1  0
  8  2  1  0
  8  7  1  0
  9  2  2  0
 11 13  2  0
 11 14  1  0
 12 10  1  0
 13 15  1  0
 14  1  1  0
 14 10  2  0
 15 12  1  0
 16 17  2  0
 17 36  1  0
 18 17  1  0
 18 21  1  0
 19 20  1  0
 19 16  1  0
 20 18  2  0
 21 22  1  0
 22 23  2  0
 24 27  1  0
 24 23  1  0
 25 24  2  0
 26 25  1  0
 26 21  2  0
 27 28  1  0
 28 29  1  0
 29 30  2  0
 31 30  1  0
 31 35  1  0
 32 31  2  0
 33 28  2  0
 33 32  1  0
 34 33  1  0
 36 37  1  0
 37 40  1  0
 37 39  1  0
 38 36  2  0
 41 16  1  0
 41 42  1  0
 43 41  1  0
 47 44  1  6
 47 46  1  0
 47 45  1  0
 48 49  1  0
 50 61  2  0
 51 49  1  0
 51 56  1  0
 52 60  1  0
 52 62  1  0
 53 59  1  0
 53 55  1  0
 54 60  1  0
 55 54  1  0
 56 55  2  0
 57 58  1  0
 57 51  2  0
 58 53  2  0
 59 52  1  0
 60 50  1  0
 62 64  2  0
 63 62  1  0
 65 63  1  0
 66 75  2  0
 66 71  1  0
 67 63  1  0
 67 71  1  0
 68 67  1  0
 69 70  1  0
 69 68  1  0
 70 66  1  0
 71 72  2  0
 72 73  1  0
 74 73  2  0
 75 74  1  0
 76 50  1  0
 76 77  1  0
 76 86  1  0
 77 80  1  0
 78 82  1  0
 78 77  1  0
 79 78  2  0
 82 81  1  0
 84 85  1  0
 84 82  1  0
 84 83  1  0
 86 89  1  1
 86 87  1  0
 88 86  1  0
M  ISO  4   2 100  15 100  48 101  49 101
M  END
>  <TORSDO>  (99) 
F 18

>  <SCORE>  (99) 
-15.749

>  <name>  (99) 
98

>  <ligand_id>  (99) 
98

>  <original_smiles>  (99) 
[H]c1c([H])c([H])c2c(c1[H])C([H])([H])C([H])([H])C([H])([H])C2([H])N([H])C(=O)C1([H])N(C(=O)C([H])(N([H])C(=O)C([H])(N([H])C([H])([H])[H])C([H])([H])[H])C(C([H])([H])[H])(C([H])([H])[H])C([H])([H])[H])C([H])([H])c2c([H])c(OC([H])([H])C([H])(C3([H])C([H])([H])C([H])([H])N(C(=O)N4C([H])([H])C([H])([H])C([H])([H])C([H])(n5nc(-c6c([H])c([H])c(Oc7c([H])c([H])c(F)c([H])c7F)c([H])c6[H])c(C(=O)N([H])[H])c5N([H])[H])C4([H])[H])C([H])([H])C3([H])[H])C(C([H])([H])[H])(C([H])([H])[H])C([H])([H])[H])c([H])c([H])c2C1([H])[H]

>  <smiles>  (99) 
[H]c1c([H])c([H])c2c(c1[H])C([H])([H])C([H])([H])C([H])([H])C2([H])N([H])C(=O)C1([H])N(C(=O)C([H])(N([H])C(=O)C([H])(N([H])C([H])([H])[H])C([H])([H])[H])C(C([H])([H])[H])(C([H])([H])[H])C([H])([H])[H])C([H])([H])c2c([H])c(OC([H])([H])C([H])(C3([H])C([H])([H])C([H])([H])N(C(=O)N4C([H])([H])C([H])([H])C([H])([H])C([H])(n5nc(-c6c([H])c([H])c(Oc7c([H])c([H])c(F)c([H])c7F)c([H])c6[H])c(C(=O)N([H])[H])c5N([H])[H])C4([H])[H])C([H])([H])C3([H])[H])C(C([H])([H])[H])(C([H])([H])[H])C([H])([H])[H])c([H])c([H])c2C1([H])[H]

$$$$
