0:0:0
     RDKit          3D

 95103  0  0  1  0  0  0  0  0999 V2000
  -28.1390  -22.5040   18.6510 C   0  0  0  0  0  2  0  0  0  0  0  0
  -28.5900  -20.9770   18.5910 C   0  0  0  0  0  2  0  0  0  0  0  0
  -29.2500  -21.9140   20.6180 C   0  0  0  0  0  2  0  0  0  0  0  0
  -28.9090  -23.2730   19.7690 C   0  0  0  0  0  3  0  0  0  0  0  0
  -29.5200  -20.6700   19.7160 N   0  0  1  0  0  4  0  0  0  0  0  0
  -30.4430  -20.8480   19.3510 H   0  0  0  0  0  0  0  0  0  0  0  0
  -28.1800  -24.6610   20.4300 C   0  0  0  0  0  2  0  0  0  0  0  0
  -28.4190  -26.1860   20.1660 O   0  0  0  0  0  0  0  0  0  0  0  0
  -24.5920  -31.7860   23.1510 C   0  0  0  0  0  0  0  0  0  0  0  0
  -27.3400  -27.1440   20.1580 C   0  0  0  0  0  0  0  0  0  0  0  0
  -23.4670  -30.3720   21.4760 C   0  0  0  0  0  3  0  0  0  0  0  0
  -24.9790  -28.8370   20.0850 C   0  0  0  0  0  0  0  0  0  0  0  0
  -26.0180  -30.6970   21.3790 C   0  0  0  0  0  2  0  0  0  0  0  0
  -26.1370  -29.3090   20.7190 C   0  0  0  0  0  0  0  0  0  0  0  0
  -27.3250  -28.4780   20.7320 C   0  0  0  0  0  3  0  0  0  0  0  0
  -26.1520  -26.7730   19.4960 C   0  0  0  0  0  3  0  0  0  0  0  0
  -24.9960  -27.5810   19.4670 C   0  0  0  0  0  3  0  0  0  0  0  0
  -23.7330  -29.7070   20.1010 C   0  0  0  0  0  2  0  0  0  0  0  0
  -24.7100  -30.9720   22.0600 N   0  0  0  0  0  0  0  0  0  0  0  0
  -23.4840  -32.0460   23.6480 O   0  0  0  0  0  0  0  0  0  0  0  0
  -22.7830  -29.3450   22.4140 C   0  0  0  0  0  0  0  0  0  0  0  0
  -21.4540  -29.1850   22.2850 N   0  0  0  0  0  0  0  0  0  0  0  0
  -23.4510  -28.6970   23.2230 O   0  0  0  0  0  0  0  0  0  0  0  0
  -20.9740  -29.7630   21.6070 H   0  0  0  0  0  0  0  0  0  0  0  0
  -18.0600  -28.0200   22.7900 C   0  0  0  0  0  0  0  0  0  0  0  0
  -20.6260  -28.2320   23.0310 C   0  0  0  0  0  3  0  0  0  0  0  0
  -20.6960  -26.8190   22.4090 C   0  0  0  0  0  2  0  0  0  0  0  0
  -19.5750  -26.5470   21.4000 C   0  0  0  0  0  2  0  0  0  0  0  0
  -18.2050  -26.6900   22.0690 C   0  0  0  0  0  2  0  0  0  0  0  0
  -19.1960  -28.7500   23.2290 C   0  0  0  0  0  0  0  0  0  0  0  0
  -19.0030  -29.9940   23.8670 C   0  0  0  0  0  3  0  0  0  0  0  0
  -17.7070  -30.5060   24.0710 C   0  0  0  0  0  3  0  0  0  0  0  0
  -16.5870  -29.7690   23.6520 C   0  0  0  0  0  3  0  0  0  0  0  0
  -16.7640  -28.5270   23.0190 C   0  0  0  0  0  3  0  0  0  0  0  0
  -25.8380  -32.4500   23.8150 C   0  0  0  0  0  3  0  0  0  0  0  0
  -26.3300  -31.6930   25.1110 C   0  0  1  0  0  0  0  0  0  0  0  0
  -25.2070  -31.4320   26.1440 C   0  0  0  0  0  1  0  0  0  0  0  0
  -26.9620  -30.3270   24.7500 C   0  0  0  0  0  1  0  0  0  0  0  0
  -27.4410  -32.5150   25.8050 C   0  0  0  0  0  1  0  0  0  0  0  0
  -25.4880  -33.8430   24.1370 N   0  0  0  0  0  0  0  0  0  0  0  0
  -25.8250  -34.9050   23.3970 C   0  0  0  0  0  0  0  0  0  0  0  0
  -26.5270  -34.8160   22.3850 O   0  0  0  0  0  0  0  0  0  0  0  0
  -24.8700  -33.9840   24.9230 H   0  0  0  0  0  0  0  0  0  0  0  0
  -24.0830  -36.6790   22.9940 C   0  0  0  0  0  1  0  0  0  0  0  0
  -25.2990  -36.2820   23.8470 C   0  0  0  0  0  3  0  0  0  0  0  0
  -27.3800  -37.1990   24.7750 C   0  0  0  0  0  1  0  0  0  0  0  0
  -26.3170  -37.3530   23.7850 N   0  0  0  0  0  0  0  0  0  0  0  0
  -25.8890  -38.2630   23.9220 H   0  0  0  0  0  0  0  0  0  0  0  0
  -29.6880  -19.1790   20.3170 C   0  0  0  0  0  3  0  0  0  0  0  0
  -30.9490  -19.2470   21.1950 C   0  0  0  0  0  0  0  0  0  0  0  0
  -30.9340  -18.6690   22.3920 N   0  0  0  0  0  0  0  0  0  0  0  0
  -31.9450  -19.8520   20.7960 O   0  0  0  0  0  0  0  0  0  0  0  0
  -30.1170  -18.1770   22.7250 H   0  0  0  0  0  0  0  0  0  0  0  0
  -31.7480  -18.7270   22.9880 H   0  0  0  0  0  0  0  0  0  0  0  0
  -28.4260  -17.6470   18.6150 C   0  0  0  0  0  1  0  0  0  0  0  0
  -30.9050  -17.7970   18.3870 C   0  0  0  0  0  1  0  0  0  0  0  0
  -29.7530  -17.7010   19.4180 C   0  0  1  0  0  0  0  0  0  0  0  0
  -30.6210  -15.0440   19.9710 C   0  0  0  0  0  0  0  0  0  0  0  0
  -30.4990  -12.6580   19.1260 C   0  0  0  0  0  2  0  0  0  0  0  0
  -29.5370  -12.6310   17.9160 C   0  0  0  0  0  2  0  0  0  0  0  0
  -28.0770  -12.4340   18.3770 C   0  0  0  0  0  2  0  0  0  0  0  0
  -27.7160  -13.3240   19.5990 C   0  0  0  0  0  3  0  0  0  0  0  0
  -28.8150  -13.3450   20.6810 C   0  0  0  0  0  2  0  0  0  0  0  0
  -30.0560  -13.7670   20.0210 N   0  0  0  0  0  0  0  0  0  0  0  0
  -31.8090  -15.0960   19.6330 O   0  0  0  0  0  0  0  0  0  0  0  0
  -29.8040  -16.2230   20.0730 N   0  0  0  0  0  0  0  0  0  0  0  0
  -28.9030  -15.9710   20.4440 H   0  0  0  0  0  0  0  0  0  0  0  0
  -25.3800  -13.8810   20.4810 C   0  0  0  0  0  0  0  0  0  0  0  0
  -24.3380  -13.0970   20.8880 C   0  0  0  0  0  0  0  0  0  0  0  0
  -24.7930  -11.7460   20.7880 C   0  0  0  0  0  0  0  0  0  0  0  0
  -26.4060  -13.0070   20.1550 N   0  0  0  0  0  0  0  0  0  0  0  0
  -26.0660  -11.7170   20.4070 N   0  0  0  0  0  0  0  0  0  0  0  0
  -24.0720  -10.4830   20.9810 C   0  0  0  0  0  0  0  0  0  0  0  0
  -24.5080   -9.5130   21.9120 C   0  0  0  0  0  3  0  0  0  0  0  0
  -23.7820   -8.3150   22.0920 C   0  0  0  0  0  3  0  0  0  0  0  0
  -22.6050   -8.0750   21.3420 C   0  0  0  0  0  0  0  0  0  0  0  0
  -22.1890   -9.0320   20.4000 C   0  0  0  0  0  3  0  0  0  0  0  0
  -22.9130  -10.2220   20.2190 C   0  0  0  0  0  3  0  0  0  0  0  0
  -21.8550   -6.9270   21.4280 O   0  0  0  0  0  0  0  0  0  0  0  0
  -21.7720   -6.2090   22.5950 C   0  0  0  0  0  0  0  0  0  0  0  0
  -21.2600   -6.7740   23.7830 C   0  0  0  0  0  3  0  0  0  0  0  0
  -21.1230   -5.9810   24.9400 C   0  0  0  0  0  3  0  0  0  0  0  0
  -21.4870   -4.6220   24.9100 C   0  0  0  0  0  0  0  0  0  0  0  0
  -21.9880   -4.0540   23.7260 C   0  0  0  0  0  3  0  0  0  0  0  0
  -22.1260   -4.8450   22.5710 C   0  0  0  0  0  0  0  0  0  0  0  0
  -22.5900   -4.2850   21.4280 F   0  0  0  0  0  0  0  0  0  0  0  0
  -21.3470   -3.8590   26.0200 F   0  0  0  0  0  0  0  0  0  0  0  0
  -22.9570  -13.5680   21.2440 C   0  0  0  0  0  0  0  0  0  0  0  0
  -22.2710  -12.8480   22.1240 N   0  0  0  0  0  0  0  0  0  0  0  0
  -22.4980  -14.6080   20.7740 O   0  0  0  0  0  0  0  0  0  0  0  0
  -22.6560  -12.0050   22.5280 H   0  0  0  0  0  0  0  0  0  0  0  0
  -21.3440  -13.1390   22.3950 H   0  0  0  0  0  0  0  0  0  0  0  0
  -25.5330  -15.2570   20.3310 N   0  0  0  0  0  0  0  0  0  0  0  0
  -24.7600  -15.8980   20.4750 H   0  0  0  0  0  0  0  0  0  0  0  0
  -26.3390  -15.7050   19.9150 H   0  0  0  0  0  0  0  0  0  0  0  0
  1  4  1  0
  2  1  1  0
  2  5  1  0
  4  7  1  0
  4  3  1  0
  5 49  1  0
  5  3  1  0
  5  6  1  6
  8  7  1  0
  9 20  2  0
 10  8  1  0
 10 15  1  0
 11 19  1  0
 11 21  1  0
 12 18  1  0
 12 14  1  0
 13 19  1  0
 14 15  2  0
 14 13  1  0
 16 10  2  0
 17 16  1  0
 17 12  2  0
 18 11  1  0
 19  9  1  0
 21 23  2  0
 22 21  1  0
 24 22  1  0
 25 34  2  0
 25 30  1  0
 26 22  1  0
 26 30  1  0
 27 26  1  0
 28 29  1  0
 28 27  1  0
 29 25  1  0
 30 31  2  0
 31 32  1  0
 33 32  2  0
 34 33  1  0
 35  9  1  0
 35 40  1  0
 35 36  1  0
 36 39  1  1
 36 37  1  0
 38 36  1  0
 40 43  1  0
 41 45  1  0
 41 40  1  0
 42 41  2  0
 45 44  1  0
 47 45  1  0
 47 48  1  0
 47 46  1  0
 49 50  1  0
 50 51  1  0
 51 53  1  0
 51 54  1  0
 52 50  2  0
 57 55  1  6
 56 57  1  0
 57 66  1  0
 57 49  1  0
 58 64  1  0
 58 66  1  0
 59 64  1  0
 60 61  1  0
 60 59  1  0
 62 61  1  0
 62 71  1  0
 62 63  1  0
 64 63  1  0
 65 58  2  0
 66 67  1  0
 68 69  2  0
 69 88  1  0
 70 69  1  0
 70 73  1  0
 71 72  1  0
 71 68  1  0
 72 70  2  0
 73 74  1  0
 74 75  2  0
 76 79  1  0
 76 75  1  0
 77 76  2  0
 78 77  1  0
 78 73  2  0
 79 80  1  0
 80 81  1  0
 81 82  2  0
 83 82  1  0
 83 87  1  0
 84 83  2  0
 85 80  2  0
 85 84  1  0
 86 85  1  0
 88 89  1  0
 89 92  1  0
 89 91  1  0
 90 88  2  0
 93 94  1  0
 93 68  1  0
 95 93  1  0
M  ISO  4   7 101   8 101  58 100  66 100
M  END
>  <TORSDO>  (1) 
F 20

>  <SCORE>  (1) 
-15.242

>  <name>  (1) 
0

>  <ligand_id>  (1) 
0

>  <original_smiles>  (1) 
[H]c1c([H])c([H])c2c(c1[H])C([H])([H])C([H])([H])C([H])([H])C2([H])N([H])C(=O)C1([H])N(C(=O)C([H])(N([H])C(=O)C([H])(N([H])C([H])([H])[H])C([H])([H])[H])C(C([H])([H])[H])(C([H])([H])[H])C([H])([H])[H])C([H])([H])c2c([H])c(OC([H])([H])C3([H])C([H])([H])C([H])([H])[N+]([H])(C([H])(C(=O)N([H])[H])C(N([H])C(=O)N4C([H])([H])C([H])([H])C([H])([H])C([H])(n5nc(-c6c([H])c([H])c(Oc7c([H])c([H])c(F)c([H])c7F)c([H])c6[H])c(C(=O)N([H])[H])c5N([H])[H])C4([H])[H])(C([H])([H])[H])C([H])([H])[H])C3([H])[H])c([H])c([H])c2C1([H])[H]

>  <smiles>  (1) 
[H]c1c([H])c([H])c2c(c1[H])C([H])([H])C([H])([H])C([H])([H])C2([H])N([H])C(=O)C1([H])N(C(=O)C([H])(N([H])C(=O)C([H])(N([H])C([H])([H])[H])C([H])([H])[H])C(C([H])([H])[H])(C([H])([H])[H])C([H])([H])[H])C([H])([H])c2c([H])c(OC([H])([H])C3([H])C([H])([H])C([H])([H])[N+]([H])(C([H])(C(=O)N([H])[H])C(N([H])C(=O)N4C([H])([H])C([H])([H])C([H])([H])C([H])(n5nc(-c6c([H])c([H])c(Oc7c([H])c([H])c(F)c([H])c7F)c([H])c6[H])c(C(=O)N([H])[H])c5N([H])[H])C4([H])[H])(C([H])([H])[H])C([H])([H])[H])C3([H])[H])c([H])c([H])c2C1([H])[H]

$$$$
1:0:0
     RDKit          3D

 90 97  0  0  1  0  0  0  0  0999 V2000
  -29.0830  -20.4310   19.9410 C   0  0  0  0  0  2  0  0  0  0  0  0
  -29.6520  -21.9530   22.0860 C   0  0  0  0  0  1  0  0  0  0  0  0
  -28.8650  -21.8980   20.7600 C   0  0  0  0  0  3  0  0  0  0  0  0
  -28.8640  -23.4260   20.0640 C   0  0  0  0  0  3  0  0  0  0  0  0
  -28.1050  -24.7720   20.7060 C   0  0  0  0  0  3  0  0  0  0  0  0
  -28.3070  -26.2570   20.3170 O   0  0  0  0  0  0  0  0  0  0  0  0
  -24.6160  -31.8990   23.2540 C   0  0  0  0  0  0  0  0  0  0  0  0
  -27.2230  -27.1960   20.2910 C   0  0  0  0  0  0  0  0  0  0  0  0
  -23.4290  -30.4940   21.6130 C   0  0  0  0  0  3  0  0  0  0  0  0
  -24.8880  -28.9140   20.2110 C   0  0  0  0  0  0  0  0  0  0  0  0
  -25.9800  -30.7750   21.4570 C   0  0  0  0  0  2  0  0  0  0  0  0
  -26.0580  -29.3760   20.8250 C   0  0  0  0  0  0  0  0  0  0  0  0
  -27.2290  -28.5350   20.8440 C   0  0  0  0  0  3  0  0  0  0  0  0
  -26.0280  -26.8200   19.6430 C   0  0  0  0  0  3  0  0  0  0  0  0
  -24.8830  -27.6470   19.6040 C   0  0  0  0  0  3  0  0  0  0  0  0
  -23.6610  -29.8160   20.2380 C   0  0  0  0  0  2  0  0  0  0  0  0
  -24.6950  -31.0780   22.1650 N   0  0  0  0  0  0  0  0  0  0  0  0
  -23.5250  -32.1810   23.7750 O   0  0  0  0  0  0  0  0  0  0  0  0
  -22.7500  -29.4860   22.5720 C   0  0  0  0  0  0  0  0  0  0  0  0
  -21.4230  -29.3090   22.4390 N   0  0  0  0  0  0  0  0  0  0  0  0
  -23.4170  -28.8670   23.4050 O   0  0  0  0  0  0  0  0  0  0  0  0
  -20.9380  -29.8560   21.7420 H   0  0  0  0  0  0  0  0  0  0  0  0
  -18.0400  -28.1220   22.9370 C   0  0  0  0  0  0  0  0  0  0  0  0
  -20.5990  -28.3780   23.2120 C   0  0  0  0  0  3  0  0  0  0  0  0
  -20.7010  -26.9440   22.6450 C   0  0  0  0  0  2  0  0  0  0  0  0
  -19.5990  -26.6180   21.6310 C   0  0  0  0  0  2  0  0  0  0  0  0
  -18.2150  -26.7710   22.2660 C   0  0  0  0  0  2  0  0  0  0  0  0
  -19.1590  -28.8840   23.3670 C   0  0  0  0  0  0  0  0  0  0  0  0
  -18.9400  -30.1490   23.9540 C   0  0  0  0  0  3  0  0  0  0  0  0
  -17.6360  -30.6520   24.1160 C   0  0  0  0  0  3  0  0  0  0  0  0
  -16.5320  -29.8900   23.6960 C   0  0  0  0  0  3  0  0  0  0  0  0
  -16.7340  -28.6260   23.1120 C   0  0  0  0  0  3  0  0  0  0  0  0
  -25.8870  -32.5410   23.8860 C   0  0  0  0  0  3  0  0  0  0  0  0
  -25.5750  -33.9470   24.1890 N   0  0  0  0  0  0  0  0  0  0  0  0
  -25.9220  -34.9870   23.4200 C   0  0  0  0  0  0  0  0  0  0  0  0
  -26.6050  -34.8670   22.3990 O   0  0  0  0  0  0  0  0  0  0  0  0
  -24.9750  -34.1160   24.9820 H   0  0  0  0  0  0  0  0  0  0  0  0
  -24.2110  -36.7860   23.0150 C   0  0  0  0  0  1  0  0  0  0  0  0
  -25.4340  -36.3830   23.8530 C   0  0  0  0  0  3  0  0  0  0  0  0
  -27.5570  -37.2650   24.7140 C   0  0  0  0  0  1  0  0  0  0  0  0
  -26.4730  -37.4310   23.7500 N   0  0  0  0  0  0  0  0  0  0  0  0
  -26.0660  -38.3530   23.8820 H   0  0  0  0  0  0  0  0  0  0  0  0
  -26.3780  -31.7920   25.1850 C   0  0  1  0  0  0  0  0  0  0  0  0
  -25.2670  -31.5840   26.2390 C   0  0  0  0  0  1  0  0  0  0  0  0
  -26.9600  -30.4050   24.8280 C   0  0  0  0  0  1  0  0  0  0  0  0
  -27.5180  -32.5970   25.8520 C   0  0  0  0  0  1  0  0  0  0  0  0
  -29.8900  -19.0310   20.4390 C   0  0  0  0  0  3  0  0  0  0  0  0
  -31.4540  -19.1120   20.3080 C   0  0  0  0  0  2  0  0  0  0  0  0
  -33.7420  -20.1570   20.1500 C   0  0  0  0  0  1  0  0  0  0  0  0
  -31.9870  -21.0710   18.6500 C   0  0  0  0  0  1  0  0  0  0  0  0
  -32.2340  -20.4300   20.0340 C   0  0  0  0  0  3  0  0  0  0  0  0
  -29.5270  -17.5110   19.8150 C   0  0  0  0  0  2  0  0  0  0  0  0
  -30.5030  -14.9510   20.2390 C   0  0  0  0  0  0  0  0  0  0  0  0
  -30.3630  -12.6070   19.3190 C   0  0  0  0  0  2  0  0  0  0  0  0
  -29.4280  -12.6270   18.0910 C   0  0  0  0  0  2  0  0  0  0  0  0
  -27.9620  -12.4290   18.5220 C   0  0  0  0  0  2  0  0  0  0  0  0
  -27.5840  -13.3090   19.7430 C   0  0  0  0  0  3  0  0  0  0  0  0
  -28.6520  -13.2800   20.8580 C   0  0  0  0  0  2  0  0  0  0  0  0
  -29.9270  -13.6830   20.2510 N   0  0  0  0  0  0  0  0  0  0  0  0
  -31.6640  -15.0460   19.8220 O   0  0  0  0  0  0  0  0  0  0  0  0
  -29.7260  -16.1020   20.5040 N   0  0  0  0  0  0  0  0  0  0  0  0
  -28.9210  -15.8640   21.0690 H   0  0  0  0  0  0  0  0  0  0  0  0
  -25.2070  -13.8690   20.5020 C   0  0  0  0  0  0  0  0  0  0  0  0
  -24.1500  -13.0880   20.8810 C   0  0  0  0  0  0  0  0  0  0  0  0
  -24.6210  -11.7400   20.8370 C   0  0  0  0  0  0  0  0  0  0  0  0
  -26.2520  -12.9980   20.2480 N   0  0  0  0  0  0  0  0  0  0  0  0
  -25.9100  -11.7100   20.5120 N   0  0  0  0  0  0  0  0  0  0  0  0
  -23.9030  -10.4720   21.0280 C   0  0  0  0  0  0  0  0  0  0  0  0
  -24.3450   -9.5070   21.9580 C   0  0  0  0  0  3  0  0  0  0  0  0
  -23.6260   -8.3040   22.1410 C   0  0  0  0  0  3  0  0  0  0  0  0
  -22.4510   -8.0610   21.3910 C   0  0  0  0  0  0  0  0  0  0  0  0
  -22.0280   -9.0140   20.4480 C   0  0  0  0  0  3  0  0  0  0  0  0
  -22.7480  -10.2070   20.2650 C   0  0  0  0  0  3  0  0  0  0  0  0
  -21.7020   -6.9120   21.4820 O   0  0  0  0  0  0  0  0  0  0  0  0
  -21.6530   -6.1730   22.6370 C   0  0  0  0  0  0  0  0  0  0  0  0
  -21.2050   -6.7240   23.8580 C   0  0  0  0  0  3  0  0  0  0  0  0
  -21.1080   -5.9090   25.0030 C   0  0  0  0  0  3  0  0  0  0  0  0
  -21.4440   -4.5450   24.9300 C   0  0  0  0  0  0  0  0  0  0  0  0
  -21.8850   -3.9930   23.7130 C   0  0  0  0  0  3  0  0  0  0  0  0
  -21.9850   -4.8030   22.5700 C   0  0  0  0  0  0  0  0  0  0  0  0
  -22.3890   -4.2630   21.3950 F   0  0  0  0  0  0  0  0  0  0  0  0
  -21.3440   -3.7610   26.0270 F   0  0  0  0  0  0  0  0  0  0  0  0
  -22.7560  -13.5540   21.1760 C   0  0  0  0  0  0  0  0  0  0  0  0
  -22.0480  -12.8460   22.0490 N   0  0  0  0  0  0  0  0  0  0  0  0
  -22.3080  -14.5830   20.6700 O   0  0  0  0  0  0  0  0  0  0  0  0
  -22.4320  -12.0180   22.4800 H   0  0  0  0  0  0  0  0  0  0  0  0
  -21.1110  -13.1320   22.2910 H   0  0  0  0  0  0  0  0  0  0  0  0
  -25.3630  -15.2420   20.3230 N   0  0  0  0  0  0  0  0  0  0  0  0
  -24.5800  -15.8850   20.3730 H   0  0  0  0  0  0  0  0  0  0  0  0
  -26.2030  -15.6750   19.9640 H   0  0  0  0  0  0  0  0  0  0  0  0
  1 47  1  0
  1  3  1  0
  3  2  1  0
  4  5  2  0
  4  3  1  0
  6  5  1  0
  7 18  2  0
  8  6  1  0
  8 13  1  0
  9 17  1  0
  9 19  1  0
 10 16  1  0
 10 12  1  0
 11 17  1  0
 12 13  2  0
 12 11  1  0
 14  8  2  0
 15 14  1  0
 15 10  2  0
 16  9  1  0
 17  7  1  0
 19 21  2  0
 20 19  1  0
 22 20  1  0
 23 32  2  0
 23 28  1  0
 24 20  1  0
 24 28  1  0
 25 24  1  0
 26 27  1  0
 26 25  1  0
 27 23  1  0
 28 29  2  0
 29 30  1  0
 31 30  2  0
 32 31  1  0
 33  7  1  0
 33 34  1  0
 33 43  1  0
 34 37  1  0
 35 39  1  0
 35 34  1  0
 36 35  2  0
 39 38  1  0
 41 39  1  0
 41 42  1  0
 41 40  1  0
 43 46  1  1
 43 44  1  0
 45 43  1  0
 47 52  1  0
 48 47  1  0
 50 51  1  0
 51 49  1  0
 51 48  1  0
 52 61  1  0
 53 59  1  0
 53 61  1  0
 54 59  1  0
 55 56  1  0
 55 54  1  0
 57 56  1  0
 57 66  1  0
 57 58  1  0
 59 58  1  0
 60 53  2  0
 61 62  1  0
 63 64  2  0
 64 83  1  0
 65 64  1  0
 65 68  1  0
 66 63  1  0
 66 67  1  0
 67 65  2  0
 68 69  1  0
 69 70  2  0
 71 74  1  0
 71 70  1  0
 72 71  2  0
 73 72  1  0
 73 68  2  0
 74 75  1  0
 75 76  1  0
 76 77  2  0
 78 77  1  0
 78 82  1  0
 79 78  2  0
 80 75  2  0
 80 79  1  0
 81 80  1  0
 83 84  1  0
 84 87  1  0
 84 86  1  0
 85 83  2  0
 88 89  1  0
 88 63  1  0
 90 88  1  0
M  ISO  4   5 101   6 101  53 100  61 100
M  END
>  <TORSDO>  (2) 
F 23

>  <SCORE>  (2) 
-12.857

>  <name>  (2) 
1

>  <ligand_id>  (2) 
1

>  <original_smiles>  (2) 
[H]c1c([H])c([H])c2c(c1[H])C([H])([H])C([H])([H])C([H])([H])C2([H])N([H])C(=O)C1([H])N(C(=O)C([H])(N([H])C(=O)C([H])(N([H])C([H])([H])[H])C([H])([H])[H])C(C([H])([H])[H])(C([H])([H])[H])C([H])([H])[H])C([H])([H])c2c([H])c(OC([H])([H])C([H])([H])C([H])(C([H])([H])[H])C([H])([H])C([H])(C([H])([H])N([H])C(=O)N3C([H])([H])C([H])([H])C([H])([H])C([H])(n4nc(-c5c([H])c([H])c(Oc6c([H])c([H])c(F)c([H])c6F)c([H])c5[H])c(C(=O)N([H])[H])c4N([H])[H])C3([H])[H])C([H])([H])C([H])(C([H])([H])[H])C([H])([H])[H])c([H])c([H])c2C1([H])[H]

>  <smiles>  (2) 
[H]c1c([H])c([H])c2c(c1[H])C([H])([H])C([H])([H])C([H])([H])C2([H])N([H])C(=O)C1([H])N(C(=O)C([H])(N([H])C(=O)C([H])(N([H])C([H])([H])[H])C([H])([H])[H])C(C([H])([H])[H])(C([H])([H])[H])C([H])([H])[H])C([H])([H])c2c([H])c(OC([H])([H])C([H])([H])C([H])(C([H])([H])[H])C([H])([H])C([H])(C([H])([H])N([H])C(=O)N3C([H])([H])C([H])([H])C([H])([H])C([H])(n4nc(-c5c([H])c([H])c(Oc6c([H])c([H])c(F)c([H])c6F)c([H])c5[H])c(C(=O)N([H])[H])c4N([H])[H])C3([H])[H])C([H])([H])C([H])(C([H])([H])[H])C([H])([H])[H])c([H])c([H])c2C1([H])[H]

$$$$
2:0:0
     RDKit          3D

 88 95  0  0  1  0  0  0  0  0999 V2000
  -29.3040  -20.5470   19.4700 C   0  0  0  0  0  3  0  0  0  0  0  0
  -27.8530  -20.2520   19.8480 C   0  0  0  0  0  0  0  0  0  0  0  0
  -27.0100  -19.8990   18.8850 N   0  0  0  0  0  0  0  0  0  0  0  0
  -27.4810  -20.3510   21.0160 O   0  0  0  0  0  0  0  0  0  0  0  0
  -27.3250  -19.8240   17.9280 H   0  0  0  0  0  0  0  0  0  0  0  0
  -26.0420  -19.6990   19.1000 H   0  0  0  0  0  0  0  0  0  0  0  0
  -29.4410  -22.4470   19.7360 C   0  0  0  0  0  3  0  0  0  0  0  0
  -28.4140  -24.0610   19.5400 C   0  0  0  0  0  3  0  0  0  0  0  0
  -28.5090  -25.7830   19.7950 O   0  0  0  0  0  0  0  0  0  0  0  0
  -24.6560  -31.6340   23.0620 C   0  0  0  0  0  0  0  0  0  0  0  0
  -27.4650  -26.9210   19.7990 C   0  0  0  0  0  0  0  0  0  0  0  0
  -23.5540  -30.2850   21.3260 C   0  0  0  0  0  3  0  0  0  0  0  0
  -25.0930  -28.8080   19.8340 C   0  0  0  0  0  0  0  0  0  0  0  0
  -26.1200  -30.5760   21.2410 C   0  0  0  0  0  2  0  0  0  0  0  0
  -26.2620  -29.1940   20.5010 C   0  0  0  0  0  0  0  0  0  0  0  0
  -27.4340  -28.2790   20.4510 C   0  0  0  0  0  3  0  0  0  0  0  0
  -26.2530  -26.7310   19.0920 C   0  0  0  0  0  3  0  0  0  0  0  0
  -25.1220  -27.6030   19.1090 C   0  0  0  0  0  3  0  0  0  0  0  0
  -23.8380  -29.6880   19.9180 C   0  0  0  0  0  2  0  0  0  0  0  0
  -24.7990  -30.8610   21.9310 N   0  0  0  0  0  0  0  0  0  0  0  0
  -23.5450  -31.8450   23.5780 O   0  0  0  0  0  0  0  0  0  0  0  0
  -22.8800  -29.2130   22.2240 C   0  0  0  0  0  0  0  0  0  0  0  0
  -21.5550  -29.0170   22.0910 N   0  0  0  0  0  0  0  0  0  0  0  0
  -23.5630  -28.5560   23.0140 O   0  0  0  0  0  0  0  0  0  0  0  0
  -21.0500  -29.6010   21.4380 H   0  0  0  0  0  0  0  0  0  0  0  0
  -18.2040  -27.7020   22.5820 C   0  0  0  0  0  0  0  0  0  0  0  0
  -20.7660  -28.0000   22.7970 C   0  0  0  0  0  3  0  0  0  0  0  0
  -20.8760  -26.6250   22.0950 C   0  0  0  0  0  2  0  0  0  0  0  0
  -19.7530  -26.3730   21.0850 C   0  0  0  0  0  2  0  0  0  0  0  0
  -18.3870  -26.4270   21.7760 C   0  0  0  0  0  2  0  0  0  0  0  0
  -19.3210  -28.4490   23.0480 C   0  0  0  0  0  0  0  0  0  0  0  0
  -19.0910  -29.6400   23.7680 C   0  0  0  0  0  3  0  0  0  0  0  0
  -17.7810  -30.0890   24.0230 C   0  0  0  0  0  3  0  0  0  0  0  0
  -16.6810  -29.3410   23.5680 C   0  0  0  0  0  3  0  0  0  0  0  0
  -16.8940  -28.1480   22.8550 C   0  0  0  0  0  3  0  0  0  0  0  0
  -25.8800  -32.3030   23.7550 C   0  0  0  0  0  3  0  0  0  0  0  0
  -26.3480  -31.5370   25.0550 C   0  0  1  0  0  0  0  0  0  0  0  0
  -25.2090  -31.2740   26.0690 C   0  0  0  0  0  1  0  0  0  0  0  0
  -26.9780  -30.1710   24.6980 C   0  0  0  0  0  1  0  0  0  0  0  0
  -27.4480  -32.3520   25.7750 C   0  0  0  0  0  1  0  0  0  0  0  0
  -25.5130  -33.6910   24.0990 N   0  0  0  0  0  0  0  0  0  0  0  0
  -25.8350  -34.7740   23.3780 C   0  0  0  0  0  0  0  0  0  0  0  0
  -26.5300  -34.7130   22.3620 O   0  0  0  0  0  0  0  0  0  0  0  0
  -24.8960  -33.8090   24.8880 H   0  0  0  0  0  0  0  0  0  0  0  0
  -24.0560  -36.5300   23.0530 C   0  0  0  0  0  1  0  0  0  0  0  0
  -25.3060  -36.1430   23.8600 C   0  0  0  0  0  3  0  0  0  0  0  0
  -27.4010  -37.0930   24.7250 C   0  0  0  0  0  1  0  0  0  0  0  0
  -26.3070  -37.2290   23.7670 N   0  0  0  0  0  0  0  0  0  0  0  0
  -25.8690  -38.1350   23.9140 H   0  0  0  0  0  0  0  0  0  0  0  0
  -30.2860  -18.9410   19.8760 C   0  0  0  0  0  2  0  0  0  0  0  0
  -30.7920  -15.8300   19.9500 C   0  0  0  0  0  0  0  0  0  0  0  0
  -30.8430  -13.2680   19.2420 C   0  0  0  0  0  2  0  0  0  0  0  0
  -29.9380  -12.8410   18.0540 C   0  0  0  0  0  2  0  0  0  0  0  0
  -28.5110  -12.5330   18.5320 C   0  0  0  0  0  2  0  0  0  0  0  0
  -28.0210  -13.5860   19.5520 C   0  0  0  0  0  3  0  0  0  0  0  0
  -29.0620  -13.9250   20.6440 C   0  0  0  0  0  2  0  0  0  0  0  0
  -30.2440  -14.4810   19.9510 N   0  0  0  0  0  0  0  0  0  0  0  0
  -32.0230  -15.7560   19.7850 O   0  0  0  0  0  0  0  0  0  0  0  0
  -30.0500  -17.1890   19.9460 N   0  0  0  0  0  0  0  0  0  0  0  0
  -29.0630  -16.9900   20.0230 H   0  0  0  0  0  0  0  0  0  0  0  0
  -25.7000  -14.1830   20.4010 C   0  0  0  0  0  0  0  0  0  0  0  0
  -24.6200  -13.4300   20.7650 C   0  0  0  0  0  0  0  0  0  0  0  0
  -25.0380  -12.0660   20.6710 C   0  0  0  0  0  0  0  0  0  0  0  0
  -26.7040  -13.2840   20.0950 N   0  0  0  0  0  0  0  0  0  0  0  0
  -26.3210  -12.0000   20.3260 N   0  0  0  0  0  0  0  0  0  0  0  0
  -24.2680  -10.8250   20.8280 C   0  0  0  0  0  0  0  0  0  0  0  0
  -24.6430   -9.8340   21.7630 C   0  0  0  0  0  3  0  0  0  0  0  0
  -23.8700   -8.6620   21.9120 C   0  0  0  0  0  3  0  0  0  0  0  0
  -22.7080   -8.4720   21.1270 C   0  0  0  0  0  0  0  0  0  0  0  0
  -22.3510   -9.4520   20.1830 C   0  0  0  0  0  3  0  0  0  0  0  0
  -23.1240  -10.6150   20.0320 C   0  0  0  0  0  3  0  0  0  0  0  0
  -21.9120   -7.3540   21.1860 O   0  0  0  0  0  0  0  0  0  0  0  0
  -21.7510   -6.6450   22.3490 C   0  0  0  0  0  0  0  0  0  0  0  0
  -21.1980   -7.2320   23.5080 C   0  0  0  0  0  3  0  0  0  0  0  0
  -20.9840   -6.4480   24.6600 C   0  0  0  0  0  3  0  0  0  0  0  0
  -21.3150   -5.0800   24.6540 C   0  0  0  0  0  0  0  0  0  0  0  0
  -21.8610   -4.4930   23.4980 C   0  0  0  0  0  3  0  0  0  0  0  0
  -22.0750   -5.2730   22.3480 C   0  0  0  0  0  0  0  0  0  0  0  0
  -22.5810   -4.6980   21.2310 F   0  0  0  0  0  0  0  0  0  0  0  0
  -21.1040   -4.3250   25.7570 F   0  0  0  0  0  0  0  0  0  0  0  0
  -23.2480  -13.9470   21.0790 C   0  0  0  0  0  0  0  0  0  0  0  0
  -22.5170  -13.2570   21.9450 N   0  0  0  0  0  0  0  0  0  0  0  0
  -22.8370  -15.0010   20.5930 O   0  0  0  0  0  0  0  0  0  0  0  0
  -22.8630  -12.4040   22.3580 H   0  0  0  0  0  0  0  0  0  0  0  0
  -21.5960  -13.5860   22.2000 H   0  0  0  0  0  0  0  0  0  0  0  0
  -25.9050  -15.5530   20.2700 N   0  0  0  0  0  0  0  0  0  0  0  0
  -25.1590  -16.2230   20.4210 H   0  0  0  0  0  0  0  0  0  0  0  0
  -26.7500  -15.9760   19.9110 H   0  0  0  0  0  0  0  0  0  0  0  0
  1  7  1  0
  1  2  1  0
  1 50  1  0
  2  4  2  0
  3  6  1  0
  3  2  1  0
  5  3  1  0
  8  7  2  0
  8  9  1  0
  9 11  1  0
 10 21  2  0
 11 16  1  0
 12 20  1  0
 12 22  1  0
 13 19  1  0
 13 15  1  0
 14 20  1  0
 15 14  1  0
 16 15  2  0
 17 18  1  0
 17 11  2  0
 18 13  2  0
 19 12  1  0
 20 10  1  0
 22 24  2  0
 23 22  1  0
 25 23  1  0
 26 35  2  0
 26 31  1  0
 27 23  1  0
 27 31  1  0
 28 27  1  0
 29 30  1  0
 29 28  1  0
 30 26  1  0
 31 32  2  0
 32 33  1  0
 34 33  2  0
 35 34  1  0
 36 10  1  0
 36 41  1  0
 36 37  1  0
 37 40  1  1
 37 38  1  0
 39 37  1  0
 41 44  1  0
 42 46  1  0
 42 41  1  0
 43 42  2  0
 46 45  1  0
 48 46  1  0
 48 49  1  0
 48 47  1  0
 50 59  1  0
 51 57  1  0
 52 57  1  0
 53 54  1  0
 53 52  1  0
 55 54  1  0
 55 64  1  0
 55 56  1  0
 57 56  1  0
 58 51  2  0
 59 51  1  0
 59 60  1  0
 61 62  2  0
 62 81  1  0
 63 62  1  0
 63 66  1  0
 64 65  1  0
 64 61  1  0
 65 63  2  0
 66 67  1  0
 67 68  2  0
 69 72  1  0
 69 68  1  0
 70 69  2  0
 71 70  1  0
 71 66  2  0
 72 73  1  0
 73 74  1  0
 74 75  2  0
 76 75  1  0
 76 80  1  0
 77 76  2  0
 78 73  2  0
 78 77  1  0
 79 78  1  0
 81 82  1  0
 82 85  1  0
 82 84  1  0
 83 81  2  0
 86 61  1  0
 86 87  1  0
 88 86  1  0
M  ISO  4   8 101   9 101  51 100  59 100
M  END
>  <TORSDO>  (3) 
F 20

>  <SCORE>  (3) 
-14.768

>  <name>  (3) 
2

>  <ligand_id>  (3) 
2

>  <original_smiles>  (3) 
[H]c1c([H])c([H])c2c(c1[H])C([H])([H])C([H])([H])C([H])([H])C2([H])N([H])C(=O)C1([H])N(C(=O)C([H])(N([H])C(=O)C([H])(N([H])C([H])([H])[H])C([H])([H])[H])C(C([H])([H])[H])(C([H])([H])[H])C([H])([H])[H])C([H])([H])c2c([H])c(OC([H])([H])C([H])([H])C([H])(C(=O)N([H])[H])C([H])([H])N([H])C(=O)N3C([H])([H])C([H])([H])C([H])([H])C([H])(n4nc(-c5c([H])c([H])c(Oc6c([H])c([H])c(F)c([H])c6F)c([H])c5[H])c(C(=O)N([H])[H])c4N([H])[H])C3([H])[H])c([H])c([H])c2C1([H])[H]

>  <smiles>  (3) 
[H]c1c([H])c([H])c2c(c1[H])C([H])([H])C([H])([H])C([H])([H])C2([H])N([H])C(=O)C1([H])N(C(=O)C([H])(N([H])C(=O)C([H])(N([H])C([H])([H])[H])C([H])([H])[H])C(C([H])([H])[H])(C([H])([H])[H])C([H])([H])[H])C([H])([H])c2c([H])c(OC([H])([H])C([H])([H])C([H])(C(=O)N([H])[H])C([H])([H])N([H])C(=O)N3C([H])([H])C([H])([H])C([H])([H])C([H])(n4nc(-c5c([H])c([H])c(Oc6c([H])c([H])c(F)c([H])c6F)c([H])c5[H])c(C(=O)N([H])[H])c4N([H])[H])C3([H])[H])c([H])c([H])c2C1([H])[H]

$$$$
3:0:0
     RDKit          3D

 89 96  0  0  1  0  0  0  0  0999 V2000
  -28.8770  -23.0670   20.3660 C   0  0  0  0  0  3  0  0  0  0  0  0
  -27.9490  -22.8250   21.5600 C   0  0  0  0  0  0  0  0  0  0  0  0
  -26.7580  -22.2930   21.3140 N   0  0  0  0  0  0  0  0  0  0  0  0
  -28.2960  -23.1150   22.7030 O   0  0  0  0  0  0  0  0  0  0  0  0
  -26.4900  -22.0550   20.3690 H   0  0  0  0  0  0  0  0  0  0  0  0
  -26.1090  -22.1180   22.0680 H   0  0  0  0  0  0  0  0  0  0  0  0
  -29.2200  -21.4620   19.6540 C   0  0  0  0  0  2  0  0  0  0  0  0
  -29.3540  -19.8090   20.3170 C   0  0  0  0  0  3  0  0  0  0  0  0
  -30.0560  -18.3060   19.6710 C   0  0  0  0  0  3  0  0  0  0  0  0
  -30.6120  -15.4590   19.8740 C   0  0  0  0  0  0  0  0  0  0  0  0
  -30.5080  -13.0430   18.9750 C   0  0  0  0  0  2  0  0  0  0  0  0
  -29.5390  -12.9090   17.7740 C   0  0  0  0  0  2  0  0  0  0  0  0
  -28.1020  -12.6620   18.2610 C   0  0  0  0  0  2  0  0  0  0  0  0
  -27.7140  -13.6020   19.4320 C   0  0  0  0  0  3  0  0  0  0  0  0
  -28.8070  -13.6910   20.5190 C   0  0  0  0  0  2  0  0  0  0  0  0
  -30.0310  -14.1660   19.8570 N   0  0  0  0  0  0  0  0  0  0  0  0
  -31.8020  -15.4730   19.5350 O   0  0  0  0  0  0  0  0  0  0  0  0
  -29.8650  -16.7120   20.0650 N   0  0  0  0  0  0  0  0  0  0  0  0
  -28.9260  -16.5140   20.3810 H   0  0  0  0  0  0  0  0  0  0  0  0
  -25.3690  -14.1670   20.2610 C   0  0  0  0  0  0  0  0  0  0  0  0
  -24.3200  -13.3910   20.6700 C   0  0  0  0  0  0  0  0  0  0  0  0
  -24.7850  -12.0400   20.6260 C   0  0  0  0  0  0  0  0  0  0  0  0
  -26.4020  -13.2890   19.9840 N   0  0  0  0  0  0  0  0  0  0  0  0
  -26.0650  -12.0050   20.2700 N   0  0  0  0  0  0  0  0  0  0  0  0
  -24.0640  -10.7790   20.8430 C   0  0  0  0  0  0  0  0  0  0  0  0
  -24.4990   -9.8320   21.7950 C   0  0  0  0  0  3  0  0  0  0  0  0
  -23.7750   -8.6370   22.0010 C   0  0  0  0  0  3  0  0  0  0  0  0
  -22.6020   -8.3800   21.2530 C   0  0  0  0  0  0  0  0  0  0  0  0
  -22.1840   -9.3160   20.2890 C   0  0  0  0  0  3  0  0  0  0  0  0
  -22.9100  -10.5010   20.0830 C   0  0  0  0  0  3  0  0  0  0  0  0
  -21.8500   -7.2360   21.3670 O   0  0  0  0  0  0  0  0  0  0  0  0
  -21.7870   -6.5300   22.5410 C   0  0  0  0  0  0  0  0  0  0  0  0
  -21.3040   -7.1100   23.7350 C   0  0  0  0  0  3  0  0  0  0  0  0
  -21.1920   -6.3270   24.9010 C   0  0  0  0  0  3  0  0  0  0  0  0
  -21.5510   -4.9660   24.8750 C   0  0  0  0  0  0  0  0  0  0  0  0
  -22.0250   -4.3850   23.6860 C   0  0  0  0  0  3  0  0  0  0  0  0
  -22.1390   -5.1650   22.5210 C   0  0  0  0  0  0  0  0  0  0  0  0
  -22.5770   -4.5960   21.3730 F   0  0  0  0  0  0  0  0  0  0  0  0
  -21.4360   -4.2130   25.9940 F   0  0  0  0  0  0  0  0  0  0  0  0
  -22.9320  -13.8690   20.9830 C   0  0  0  0  0  0  0  0  0  0  0  0
  -22.2340  -13.1800   21.8780 N   0  0  0  0  0  0  0  0  0  0  0  0
  -22.4790  -14.8910   20.4690 O   0  0  0  0  0  0  0  0  0  0  0  0
  -22.6150  -12.3540   22.3140 H   0  0  0  0  0  0  0  0  0  0  0  0
  -21.3040  -13.4830   22.1300 H   0  0  0  0  0  0  0  0  0  0  0  0
  -25.5230  -15.5370   20.0730 N   0  0  0  0  0  0  0  0  0  0  0  0
  -24.7570  -16.1880   20.2050 H   0  0  0  0  0  0  0  0  0  0  0  0
  -26.3480  -15.9720   19.6790 H   0  0  0  0  0  0  0  0  0  0  0  0
  -28.3700  -24.6270   19.6610 C   0  0  0  0  0  2  0  0  0  0  0  0
  -28.4030  -26.1910   20.1350 O   0  0  0  0  0  0  0  0  0  0  0  0
  -24.6870  -31.9270   23.2120 C   0  0  0  0  0  0  0  0  0  0  0  0
  -27.3540  -27.2340   20.0530 C   0  0  0  0  0  0  0  0  0  0  0  0
  -23.5220  -30.5500   21.5360 C   0  0  0  0  0  3  0  0  0  0  0  0
  -25.0040  -29.0290   20.0630 C   0  0  0  0  0  0  0  0  0  0  0  0
  -26.0780  -30.8370   21.3910 C   0  0  0  0  0  2  0  0  0  0  0  0
  -26.1790  -29.4520   20.6960 C   0  0  0  0  0  0  0  0  0  0  0  0
  -27.3450  -28.5730   20.6720 C   0  0  0  0  0  3  0  0  0  0  0  0
  -26.1500  -26.9570   19.3660 C   0  0  0  0  0  3  0  0  0  0  0  0
  -25.0110  -27.8020   19.3810 C   0  0  0  0  0  3  0  0  0  0  0  0
  -23.7610  -29.9120   20.1400 C   0  0  0  0  0  2  0  0  0  0  0  0
  -24.7830  -31.1300   22.1010 N   0  0  0  0  0  0  0  0  0  0  0  0
  -23.5940  -32.1770   23.7450 O   0  0  0  0  0  0  0  0  0  0  0  0
  -22.8560  -29.5100   22.4750 C   0  0  0  0  0  0  0  0  0  0  0  0
  -21.5340  -29.3060   22.3360 N   0  0  0  0  0  0  0  0  0  0  0  0
  -23.5360  -28.8880   23.2950 O   0  0  0  0  0  0  0  0  0  0  0  0
  -21.0380  -29.8610   21.6520 H   0  0  0  0  0  0  0  0  0  0  0  0
  -18.1890  -27.9760   22.7860 C   0  0  0  0  0  0  0  0  0  0  0  0
  -20.7350  -28.3270   23.0820 C   0  0  0  0  0  3  0  0  0  0  0  0
  -20.8910  -26.9090   22.4840 C   0  0  0  0  0  2  0  0  0  0  0  0
  -19.8120  -26.5670   21.4520 C   0  0  0  0  0  2  0  0  0  0  0  0
  -18.4200  -26.6490   22.0840 C   0  0  0  0  0  2  0  0  0  0  0  0
  -19.2750  -28.7710   23.2400 C   0  0  0  0  0  0  0  0  0  0  0  0
  -19.0030  -30.0100   23.8600 C   0  0  0  0  0  3  0  0  0  0  0  0
  -17.6780  -30.4580   24.0260 C   0  0  0  0  0  3  0  0  0  0  0  0
  -16.6080  -29.6620   23.5860 C   0  0  0  0  0  3  0  0  0  0  0  0
  -16.8630  -28.4230   22.9720 C   0  0  0  0  0  3  0  0  0  0  0  0
  -25.9460  -32.5800   23.8590 C   0  0  0  0  0  3  0  0  0  0  0  0
  -25.6140  -33.9780   24.1850 N   0  0  0  0  0  0  0  0  0  0  0  0
  -25.9330  -35.0390   23.4320 C   0  0  0  0  0  0  0  0  0  0  0  0
  -26.6010  -34.9450   22.3990 O   0  0  0  0  0  0  0  0  0  0  0  0
  -25.0180  -34.1220   24.9870 H   0  0  0  0  0  0  0  0  0  0  0  0
  -24.1770  -36.8150   23.1010 C   0  0  0  0  0  1  0  0  0  0  0  0
  -25.4340  -36.4240   23.8950 C   0  0  0  0  0  3  0  0  0  0  0  0
  -27.5620  -37.3460   24.7030 C   0  0  0  0  0  1  0  0  0  0  0  0
  -26.4520  -37.4900   23.7660 N   0  0  0  0  0  0  0  0  0  0  0  0
  -26.0340  -38.4060   23.9080 H   0  0  0  0  0  0  0  0  0  0  0  0
  -26.4400  -31.8230   25.1530 C   0  0  1  0  0  0  0  0  0  0  0  0
  -25.3260  -31.5850   26.2000 C   0  0  0  0  0  1  0  0  0  0  0  0
  -27.0440  -30.4470   24.7930 C   0  0  0  0  0  1  0  0  0  0  0  0
  -27.5700  -32.6320   25.8350 C   0  0  0  0  0  1  0  0  0  0  0  0
  1  7  1  0
  1  2  1  0
  2  4  2  0
  3  2  1  0
  3  6  1  0
  5  3  1  0
  7  8  1  0
  9 18  1  0
  9  8  2  0
 10 18  1  0
 11 16  1  0
 12 13  1  0
 12 11  1  0
 14 13  1  0
 14 23  1  0
 14 15  1  0
 16 10  1  0
 16 15  1  0
 17 10  2  0
 18 19  1  0
 20 21  2  0
 21 40  1  0
 22 21  1  0
 22 25  1  0
 23 20  1  0
 23 24  1  0
 24 22  2  0
 25 26  1  0
 26 27  2  0
 28 31  1  0
 28 27  1  0
 29 28  2  0
 30 29  1  0
 30 25  2  0
 31 32  1  0
 32 33  1  0
 33 34  2  0
 35 34  1  0
 35 39  1  0
 36 35  2  0
 37 32  2  0
 37 36  1  0
 38 37  1  0
 40 41  1  0
 41 44  1  0
 41 43  1  0
 42 40  2  0
 45 46  1  0
 45 20  1  0
 47 45  1  0
 48 49  1  0
 48  1  1  0
 50 61  2  0
 51 49  1  0
 51 56  1  0
 52 60  1  0
 52 62  1  0
 53 59  1  0
 53 55  1  0
 54 60  1  0
 55 54  1  0
 56 55  2  0
 57 58  1  0
 57 51  2  0
 58 53  2  0
 59 52  1  0
 60 50  1  0
 62 64  2  0
 63 62  1  0
 65 63  1  0
 66 75  2  0
 66 71  1  0
 67 63  1  0
 67 71  1  0
 68 67  1  0
 69 70  1  0
 69 68  1  0
 70 66  1  0
 71 72  2  0
 72 73  1  0
 74 73  2  0
 75 74  1  0
 76 50  1  0
 76 77  1  0
 76 86  1  0
 77 80  1  0
 78 82  1  0
 78 77  1  0
 79 78  2  0
 82 81  1  0
 84 82  1  0
 84 85  1  0
 84 83  1  0
 86 89  1  1
 86 87  1  0
 88 86  1  0
M  ISO  4  10 100  18 100  48 101  49 101
M  END
>  <TORSDO>  (4) 
F 21

>  <SCORE>  (4) 
-14.773

>  <name>  (4) 
3

>  <ligand_id>  (4) 
3

>  <original_smiles>  (4) 
[H]c1c([H])c([H])c2c(c1[H])C([H])([H])C([H])([H])C([H])([H])C2([H])N([H])C(=O)C1([H])N(C(=O)C([H])(N([H])C(=O)C([H])(N([H])C([H])([H])[H])C([H])([H])[H])C(C([H])([H])[H])(C([H])([H])[H])C([H])([H])[H])C([H])([H])c2c([H])c(OC([H])([H])C([H])(C(=O)N([H])[H])C([H])([H])C([H])([H])C([H])([H])N([H])C(=O)N3C([H])([H])C([H])([H])C([H])([H])C([H])(n4nc(-c5c([H])c([H])c(Oc6c([H])c([H])c(F)c([H])c6F)c([H])c5[H])c(C(=O)N([H])[H])c4N([H])[H])C3([H])[H])c([H])c([H])c2C1([H])[H]

>  <smiles>  (4) 
[H]c1c([H])c([H])c2c(c1[H])C([H])([H])C([H])([H])C([H])([H])C2([H])N([H])C(=O)C1([H])N(C(=O)C([H])(N([H])C(=O)C([H])(N([H])C([H])([H])[H])C([H])([H])[H])C(C([H])([H])[H])(C([H])([H])[H])C([H])([H])[H])C([H])([H])c2c([H])c(OC([H])([H])C([H])(C(=O)N([H])[H])C([H])([H])C([H])([H])C([H])([H])N([H])C(=O)N3C([H])([H])C([H])([H])C([H])([H])C([H])(n4nc(-c5c([H])c([H])c(Oc6c([H])c([H])c(F)c([H])c6F)c([H])c5[H])c(C(=O)N([H])[H])c4N([H])[H])C3([H])[H])c([H])c([H])c2C1([H])[H]

$$$$
4:0:0
     RDKit          3D

 87 92  0  0  1  0  0  0  0  0999 V2000
  -30.3080  -21.8090   19.5430 C   0  0  0  0  0  2  0  0  0  0  0  0
  -30.9350  -19.6520   20.4330 C   0  0  0  0  0  2  0  0  0  0  0  0
  -28.8770  -21.4180   19.9400 C   0  0  0  0  0  1  0  0  0  0  0  0
  -29.4120  -19.4440   20.4670 C   0  0  0  0  0  2  0  0  0  0  0  0
  -31.2390  -21.0900   20.4270 N   0  0  0  0  0  4  0  0  0  0  0  0
  -31.1510  -21.4510   21.3630 H   0  0  0  0  0  0  0  0  0  0  0  0
  -32.1900  -21.2390   20.1290 H   0  0  0  0  0  0  0  0  0  0  0  0
  -30.0700  -16.0840   20.1130 C   0  0  0  0  0  0  0  0  0  0  0  0
  -30.2520  -13.4690   19.2580 C   0  0  0  0  0  2  0  0  0  0  0  0
  -29.3730  -12.8780   18.1060 C   0  0  0  0  0  2  0  0  0  0  0  0
  -27.9960  -12.4370   18.6150 C   0  0  0  0  0  2  0  0  0  0  0  0
  -27.4530  -13.4530   19.6400 C   0  0  0  0  0  3  0  0  0  0  0  0
  -28.4900  -13.9130   20.7010 C   0  0  0  0  0  2  0  0  0  0  0  0
  -29.5680  -14.6670   19.9840 N   0  0  0  0  0  0  0  0  0  0  0  0
  -31.3140  -15.9420   20.0350 O   0  0  0  0  0  0  0  0  0  0  0  0
  -29.3390  -17.5610   20.1450 N   0  0  0  0  0  0  0  0  0  0  0  0
  -28.3600  -17.3450   20.0110 H   0  0  0  0  0  0  0  0  0  0  0  0
  -25.1100  -13.9340   20.4710 C   0  0  0  0  0  0  0  0  0  0  0  0
  -24.0670  -13.1420   20.8540 C   0  0  0  0  0  0  0  0  0  0  0  0
  -24.5520  -11.7970   20.8060 C   0  0  0  0  0  0  0  0  0  0  0  0
  -26.1610  -13.0790   20.2030 N   0  0  0  0  0  0  0  0  0  0  0  0
  -25.8420  -11.7830   20.4680 N   0  0  0  0  0  0  0  0  0  0  0  0
  -23.8370  -10.5270   21.0030 C   0  0  0  0  0  0  0  0  0  0  0  0
  -24.2850   -9.5610   21.9290 C   0  0  0  0  0  3  0  0  0  0  0  0
  -23.5630   -8.3620   22.1190 C   0  0  0  0  0  3  0  0  0  0  0  0
  -22.3780   -8.1210   21.3820 C   0  0  0  0  0  0  0  0  0  0  0  0
  -21.9480   -9.0770   20.4460 C   0  0  0  0  0  3  0  0  0  0  0  0
  -22.6710  -10.2670   20.2550 C   0  0  0  0  0  3  0  0  0  0  0  0
  -21.6270   -6.9730   21.4820 O   0  0  0  0  0  0  0  0  0  0  0  0
  -21.5970   -6.2290   22.6340 C   0  0  0  0  0  0  0  0  0  0  0  0
  -21.1690   -6.7770   23.8640 C   0  0  0  0  0  3  0  0  0  0  0  0
  -21.0860   -5.9580   25.0070 C   0  0  0  0  0  3  0  0  0  0  0  0
  -21.4240   -4.5930   24.9250 C   0  0  0  0  0  0  0  0  0  0  0  0
  -21.8470   -4.0460   23.7010 C   0  0  0  0  0  3  0  0  0  0  0  0
  -21.9300   -4.8610   22.5590 C   0  0  0  0  0  0  0  0  0  0  0  0
  -22.3170   -4.3230   21.3760 F   0  0  0  0  0  0  0  0  0  0  0  0
  -21.3380   -3.8050   26.0220 F   0  0  0  0  0  0  0  0  0  0  0  0
  -22.6700  -13.6050   21.1400 C   0  0  0  0  0  0  0  0  0  0  0  0
  -21.9590  -12.9050   22.0170 N   0  0  0  0  0  0  0  0  0  0  0  0
  -22.2180  -14.6260   20.6230 O   0  0  0  0  0  0  0  0  0  0  0  0
  -22.3400  -12.0830   22.4610 H   0  0  0  0  0  0  0  0  0  0  0  0
  -21.0210  -13.2000   22.2500 H   0  0  0  0  0  0  0  0  0  0  0  0
  -25.2470  -15.3080   20.2930 N   0  0  0  0  0  0  0  0  0  0  0  0
  -24.4680  -15.9450   20.4180 H   0  0  0  0  0  0  0  0  0  0  0  0
  -26.0760  -15.7600   19.9330 H   0  0  0  0  0  0  0  0  0  0  0  0
  -28.1720  -23.3350   20.4740 C   0  0  0  0  0 15  0  0  0  0  0  0
  -28.1810  -25.2210   20.2500 O   0  0  0  0  0  1  0  0  0  0  0  0
  -24.6820  -31.8500   23.1720 C   0  0  0  0  0  0  0  0  0  0  0  0
  -27.2110  -26.5300   20.2720 C   0  0  0  0  0  0  0  0  0  0  0  0
  -23.5090  -30.4270   21.5530 C   0  0  0  0  0  3  0  0  0  0  0  0
  -24.9610  -28.7140   20.1830 C   0  0  0  0  0  0  0  0  0  0  0  0
  -26.0990  -30.5020   21.4610 C   0  0  0  0  0  2  0  0  0  0  0  0
  -26.1630  -29.0340   20.8230 C   0  0  0  0  0  0  0  0  0  0  0  0
  -27.2620  -27.9800   20.8210 C   0  0  0  0  0  3  0  0  0  0  0  0
  -25.9650  -26.4830   19.5750 C   0  0  0  0  0  3  0  0  0  0  0  0
  -24.9150  -27.4680   19.5320 C   0  0  0  0  0  3  0  0  0  0  0  0
  -23.7640  -29.6960   20.2010 C   0  0  0  0  0  2  0  0  0  0  0  0
  -24.7910  -30.9660   22.1140 N   0  0  0  0  0  0  0  0  0  0  0  0
  -23.5820  -32.1630   23.6640 O   0  0  0  0  0  0  0  0  0  0  0  0
  -22.7690  -29.4810   22.5400 C   0  0  0  0  0  0  0  0  0  0  0  0
  -21.4340  -29.3390   22.4190 N   0  0  0  0  0  0  0  0  0  0  0  0
  -23.4140  -28.8670   23.3920 O   0  0  0  0  0  0  0  0  0  0  0  0
  -20.9590  -29.8850   21.7110 H   0  0  0  0  0  0  0  0  0  0  0  0
  -18.0380  -28.1390   22.9550 C   0  0  0  0  0  0  0  0  0  0  0  0
  -20.6020  -28.4140   23.2010 C   0  0  0  0  0  3  0  0  0  0  0  0
  -20.6980  -26.9740   22.6420 C   0  0  0  0  0  2  0  0  0  0  0  0
  -19.5940  -26.6440   21.6330 C   0  0  0  0  0  2  0  0  0  0  0  0
  -18.2140  -26.7890   22.2820 C   0  0  0  0  0  2  0  0  0  0  0  0
  -19.1590  -28.9100   23.3720 C   0  0  0  0  0  0  0  0  0  0  0  0
  -18.9360  -30.1690   23.9700 C   0  0  0  0  0  3  0  0  0  0  0  0
  -17.6280  -30.6610   24.1490 C   0  0  0  0  0  3  0  0  0  0  0  0
  -16.5250  -29.8900   23.7450 C   0  0  0  0  0  3  0  0  0  0  0  0
  -16.7310  -28.6310   23.1540 C   0  0  0  0  0  3  0  0  0  0  0  0
  -25.9320  -32.5230   23.8190 C   0  0  0  0  0  3  0  0  0  0  0  0
  -25.5910  -33.9240   24.1530 N   0  0  0  0  0  0  0  0  0  0  0  0
  -25.9150  -34.9980   23.4210 C   0  0  0  0  0  0  0  0  0  0  0  0
  -26.5820  -34.9170   22.3880 O   0  0  0  0  0  0  0  0  0  0  0  0
  -24.9930  -34.0580   24.9560 H   0  0  0  0  0  0  0  0  0  0  0  0
  -24.1760  -36.8020   23.1200 C   0  0  0  0  0  1  0  0  0  0  0  0
  -25.4280  -36.3830   23.9070 C   0  0  0  0  0  3  0  0  0  0  0  0
  -27.5610  -37.2820   24.7350 C   0  0  0  0  0  1  0  0  0  0  0  0
  -26.4550  -37.4440   23.7940 N   0  0  0  0  0  0  0  0  0  0  0  0
  -26.0440  -38.3620   23.9410 H   0  0  0  0  0  0  0  0  0  0  0  0
  -26.4270  -31.7780   25.1220 C   0  0  1  0  0  0  0  0  0  0  0  0
  -25.3170  -31.5590   26.1780 C   0  0  0  0  0  1  0  0  0  0  0  0
  -27.0210  -30.3940   24.7810 C   0  0  0  0  0  1  0  0  0  0  0  0
  -27.5640  -32.5890   25.7880 C   0  0  0  0  0  1  0  0  0  0  0  0
  1  3  1  0
  1  5  1  0
  2  4  1  0
  5  2  1  0
  5  6  1  0
  7  5  1  0
  8 16  1  0
  9 14  1  0
 10 11  1  0
 10  9  1  0
 12 11  1  0
 12 21  1  0
 12 13  1  0
 14  8  1  0
 14 13  1  0
 15  8  2  0
 16  4  1  0
 17 16  1  0
 18 19  2  0
 19 38  1  0
 20 19  1  0
 20 23  1  0
 21 22  1  0
 21 18  1  0
 22 20  2  0
 23 24  1  0
 24 25  2  0
 26 29  1  0
 26 25  1  0
 27 26  2  0
 28 27  1  0
 28 23  2  0
 29 30  1  0
 30 31  1  0
 31 32  2  0
 33 32  1  0
 33 37  1  0
 34 33  2  0
 35 30  2  0
 35 34  1  0
 36 35  1  0
 38 39  1  0
 39 42  1  0
 39 41  1  0
 40 38  2  0
 43 44  1  0
 43 18  1  0
 45 43  1  0
 47 49  1  0
 48 59  2  0
 49 54  1  0
 50 58  1  0
 50 60  1  0
 51 57  1  0
 51 53  1  0
 52 58  1  0
 53 52  1  0
 54 53  2  0
 55 49  2  0
 56 55  1  0
 56 51  2  0
 57 50  1  0
 58 48  1  0
 60 62  2  0
 61 60  1  0
 63 61  1  0
 64 73  2  0
 64 69  1  0
 65 61  1  0
 65 69  1  0
 66 65  1  0
 67 68  1  0
 67 66  1  0
 68 64  1  0
 69 70  2  0
 70 71  1  0
 72 71  2  0
 73 72  1  0
 74 48  1  0
 74 75  1  0
 74 84  1  0
 75 78  1  0
 76 80  1  0
 76 75  1  0
 77 76  2  0
 80 79  1  0
 82 80  1  0
 82 83  1  0
 82 81  1  0
 84 87  1  1
 84 85  1  0
 86 84  1  0
M  ISO  4   8 100  16 100  46 101  47 101
M  END
>  <TORSDO>  (5) 
F 17

>  <SCORE>  (5) 
-16.347

>  <name>  (5) 
4

>  <ligand_id>  (5) 
4

>  <original_smiles>  (5) 
[H]c1c([H])c([H])c2c(c1[H])C([H])([H])C([H])([H])C([H])([H])C2([H])N([H])C(=O)C1([H])N(C(=O)C([H])(N([H])C(=O)C([H])(N([H])C([H])([H])[H])C([H])([H])[H])C(C([H])([H])[H])(C([H])([H])[H])C([H])([H])[H])C([H])([H])c2c([H])c(OC([H])([H])C3([H])C([H])(N([H])C(=O)N4C([H])([H])C([H])([H])C([H])([H])C([H])(n5nc(-c6c([H])c([H])c(Oc7c([H])c([H])c(F)c([H])c7F)c([H])c6[H])c(C(=O)N([H])[H])c5N([H])[H])C4([H])[H])C([H])([H])[N+]([H])([H])C3([H])[H])c([H])c([H])c2C1([H])[H]

>  <smiles>  (5) 
[H]c1c([H])c([H])c2c(c1[H])C([H])([H])C([H])([H])C([H])([H])C2([H])N([H])C(=O)C1([H])N(C(=O)C([H])(N([H])C(=O)C([H])(N([H])C([H])([H])[H])C([H])([H])[H])C(C([H])([H])[H])(C([H])([H])[H])C([H])([H])[H])C([H])([H])c2c([H])c(OC([H])([H])C3([H])C([H])(N([H])C(=O)N4C([H])([H])C([H])([H])C([H])([H])C([H])(n5nc(-c6c([H])c([H])c(Oc7c([H])c([H])c(F)c([H])c7F)c([H])c6[H])c(C(=O)N([H])[H])c5N([H])[H])C4([H])[H])C([H])([H])[N+]([H])([H])C3([H])[H])c([H])c([H])c2C1([H])[H]

$$$$
5:0:0
     RDKit          3D

 91 98  0  0  1  0  0  0  0  0999 V2000
  -29.0200  -22.8480   19.5880 C   0  0  0  0  0  3  0  0  0  0  0  0
  -31.4850  -23.5770   19.4140 C   0  0  0  0  0  1  0  0  0  0  0  0
  -30.3140  -22.6680   17.3600 C   0  0  0  0  0  1  0  0  0  0  0  0
  -30.1400  -23.4260   18.6860 C   0  0  0  0  0  3  0  0  0  0  0  0
  -29.4790  -21.1990   20.1090 C   0  0  0  0  0  2  0  0  0  0  0  0
  -29.6510  -19.5900   19.3270 C   0  0  0  0  0  2  0  0  0  0  0  0
  -30.7620  -18.2060   19.5900 C   0  0  0  0  0  3  0  0  0  0  0  0
  -31.3050  -15.3290   19.4860 C   0  0  0  0  0  0  0  0  0  0  0  0
  -31.1890  -12.8140   18.9120 C   0  0  0  0  0  2  0  0  0  0  0  0
  -30.2050  -12.4920   17.7630 C   0  0  0  0  0  2  0  0  0  0  0  0
  -28.7690  -12.3320   18.2960 C   0  0  0  0  0  2  0  0  0  0  0  0
  -28.3930  -13.4430   19.3090 C   0  0  0  0  0  3  0  0  0  0  0  0
  -29.4970  -13.6910   20.3570 C   0  0  0  0  0  2  0  0  0  0  0  0
  -30.7030  -14.0560   19.6020 N   0  0  0  0  0  0  0  0  0  0  0  0
  -32.5290  -15.2930   19.3100 O   0  0  0  0  0  0  0  0  0  0  0  0
  -30.5420  -16.5820   19.3620 N   0  0  0  0  0  0  0  0  0  0  0  0
  -29.5600  -16.3670   19.2930 H   0  0  0  0  0  0  0  0  0  0  0  0
  -26.1560  -14.1910   20.2840 C   0  0  0  0  0  0  0  0  0  0  0  0
  -25.0530  -13.5010   20.7030 C   0  0  0  0  0  0  0  0  0  0  0  0
  -25.3800  -12.1160   20.5740 C   0  0  0  0  0  0  0  0  0  0  0  0
  -27.0840  -13.2330   19.9160 N   0  0  0  0  0  0  0  0  0  0  0  0
  -26.6340  -11.9750   20.1580 N   0  0  0  0  0  0  0  0  0  0  0  0
  -24.5470  -10.9210   20.7640 C   0  0  0  0  0  0  0  0  0  0  0  0
  -24.9010   -9.9090   21.6820 C   0  0  0  0  0  3  0  0  0  0  0  0
  -24.0700   -8.7820   21.8620 C   0  0  0  0  0  3  0  0  0  0  0  0
  -22.8720   -8.6580   21.1210 C   0  0  0  0  0  0  0  0  0  0  0  0
  -22.5340   -9.6580   20.1910 C   0  0  0  0  0  3  0  0  0  0  0  0
  -23.3640  -10.7760   20.0090 C   0  0  0  0  0  3  0  0  0  0  0  0
  -22.0160   -7.5860   21.2100 O   0  0  0  0  0  0  0  0  0  0  0  0
  -21.8470   -6.8980   22.3850 C   0  0  0  0  0  0  0  0  0  0  0  0
  -21.4020   -7.5330   23.5640 C   0  0  0  0  0  3  0  0  0  0  0  0
  -21.1740   -6.7750   24.7290 C   0  0  0  0  0  3  0  0  0  0  0  0
  -21.3810   -5.3820   24.7160 C   0  0  0  0  0  0  0  0  0  0  0  0
  -21.8190   -4.7460   23.5410 C   0  0  0  0  0  3  0  0  0  0  0  0
  -22.0480   -5.5030   22.3770 C   0  0  0  0  0  0  0  0  0  0  0  0
  -22.4500   -4.8820   21.2430 F   0  0  0  0  0  0  0  0  0  0  0  0
  -21.1540   -4.6510   25.8330 F   0  0  0  0  0  0  0  0  0  0  0  0
  -23.7340  -14.0970   21.0960 C   0  0  0  0  0  0  0  0  0  0  0  0
  -23.0170  -13.4510   22.0090 N   0  0  0  0  0  0  0  0  0  0  0  0
  -23.3530  -15.1700   20.6300 O   0  0  0  0  0  0  0  0  0  0  0  0
  -23.3390  -12.5830   22.4100 H   0  0  0  0  0  0  0  0  0  0  0  0
  -22.1340  -13.8340   22.3160 H   0  0  0  0  0  0  0  0  0  0  0  0
  -26.4380  -15.5480   20.1560 N   0  0  0  0  0  0  0  0  0  0  0  0
  -25.7450  -16.2600   20.3580 H   0  0  0  0  0  0  0  0  0  0  0  0
  -27.2830  -15.9260   19.7500 H   0  0  0  0  0  0  0  0  0  0  0  0
  -30.2230  -18.1520   22.1020 C   0  0  0  0  0  1  0  0  0  0  0  0
  -31.3420  -18.2600   21.0360 C   0  0  0  0  0  3  0  0  0  0  0  0
  -32.5810  -20.3320   22.5240 C   0  0  0  0  0  1  0  0  0  0  0  0
  -32.3530  -19.4320   21.2750 C   0  0  0  0  0  2  0  0  0  0  0  0
  -28.3990  -24.2420   20.5130 C   0  0  0  0  0  2  0  0  0  0  0  0
  -28.5700  -25.8620   20.4330 O   0  0  0  0  0  0  0  0  0  0  0  0
  -24.7280  -31.7160   23.2240 C   0  0  0  0  0  0  0  0  0  0  0  0
  -27.5100  -26.8920   20.3890 C   0  0  0  0  0  0  0  0  0  0  0  0
  -23.6380  -30.2870   21.5410 C   0  0  0  0  0  3  0  0  0  0  0  0
  -25.1800  -28.6960   20.2140 C   0  0  0  0  0  0  0  0  0  0  0  0
  -26.2010  -30.5530   21.5140 C   0  0  0  0  0  2  0  0  0  0  0  0
  -26.3280  -29.1400   20.8820 C   0  0  0  0  0  0  0  0  0  0  0  0
  -27.4940  -28.2600   20.9410 C   0  0  0  0  0  3  0  0  0  0  0  0
  -26.3300  -26.5810   19.6820 C   0  0  0  0  0  3  0  0  0  0  0  0
  -25.2020  -27.4350   19.5980 C   0  0  0  0  0  3  0  0  0  0  0  0
  -23.9460  -29.5940   20.1860 C   0  0  0  0  0  2  0  0  0  0  0  0
  -24.8740  -30.8790   22.1480 N   0  0  0  0  0  0  0  0  0  0  0  0
  -23.6110  -31.9910   23.6890 O   0  0  0  0  0  0  0  0  0  0  0  0
  -22.9160  -29.2880   22.4800 C   0  0  0  0  0  0  0  0  0  0  0  0
  -21.5890  -29.1260   22.3140 N   0  0  0  0  0  0  0  0  0  0  0  0
  -23.5550  -28.6540   23.3250 O   0  0  0  0  0  0  0  0  0  0  0  0
  -21.1270  -29.6870   21.6120 H   0  0  0  0  0  0  0  0  0  0  0  0
  -18.1900  -27.9290   22.7140 C   0  0  0  0  0  0  0  0  0  0  0  0
  -20.7410  -28.1880   23.0550 C   0  0  0  0  0  3  0  0  0  0  0  0
  -20.8560  -26.7570   22.4770 C   0  0  0  0  0  2  0  0  0  0  0  0
  -19.7850  -26.4420   21.4290 C   0  0  0  0  0  2  0  0  0  0  0  0
  -18.3850  -26.5850   22.0330 C   0  0  0  0  0  2  0  0  0  0  0  0
  -19.2960  -28.6880   23.1790 C   0  0  0  0  0  0  0  0  0  0  0  0
  -19.0590  -29.9440   23.7780 C   0  0  0  0  0  3  0  0  0  0  0  0
  -17.7500  -30.4440   23.9120 C   0  0  0  0  0  3  0  0  0  0  0  0
  -16.6570  -29.6830   23.4610 C   0  0  0  0  0  3  0  0  0  0  0  0
  -16.8780  -28.4260   22.8680 C   0  0  0  0  0  3  0  0  0  0  0  0
  -25.9570  -32.3830   23.9130 C   0  0  0  0  0  3  0  0  0  0  0  0
  -25.6030  -33.7800   24.2180 N   0  0  0  0  0  0  0  0  0  0  0  0
  -25.9480  -34.8380   23.4740 C   0  0  0  0  0  0  0  0  0  0  0  0
  -26.6600  -34.7440   22.4710 O   0  0  0  0  0  0  0  0  0  0  0  0
  -24.9740  -33.9260   24.9940 H   0  0  0  0  0  0  0  0  0  0  0  0
  -24.2000  -36.6030   23.0560 C   0  0  0  0  0  1  0  0  0  0  0  0
  -25.4220  -36.2220   23.9080 C   0  0  0  0  0  3  0  0  0  0  0  0
  -27.5130  -37.1540   24.7990 C   0  0  0  0  0  1  0  0  0  0  0  0
  -26.4380  -37.2940   23.8200 N   0  0  0  0  0  0  0  0  0  0  0  0
  -26.0110  -38.2070   23.9470 H   0  0  0  0  0  0  0  0  0  0  0  0
  -26.4090  -31.6370   25.2290 C   0  0  1  0  0  0  0  0  0  0  0  0
  -25.2580  -31.3940   26.2340 C   0  0  0  0  0  1  0  0  0  0  0  0
  -27.0380  -30.2640   24.8980 C   0  0  0  0  0  1  0  0  0  0  0  0
  -27.5040  -32.4600   25.9490 C   0  0  0  0  0  1  0  0  0  0  0  0
  1  5  1  0
  1 50  1  0
  3  4  1  0
  4  2  1  0
  4  1  1  0
  6  5  1  0
  7  6  1  0
  7 47  1  0
  8 14  1  0
  9 14  1  0
 10 11  1  0
 10  9  1  0
 12 11  1  0
 12 21  1  0
 12 13  1  0
 14 13  1  0
 15  8  2  0
 16  8  1  0
 16  7  1  0
 17 16  1  0
 18 19  2  0
 19 38  1  0
 20 19  1  0
 20 23  1  0
 21 22  1  0
 21 18  1  0
 22 20  2  0
 23 24  1  0
 24 25  2  0
 26 29  1  0
 26 25  1  0
 27 26  2  0
 28 27  1  0
 28 23  2  0
 29 30  1  0
 30 31  1  0
 31 32  2  0
 33 32  1  0
 33 37  1  0
 34 33  2  0
 35 30  2  0
 35 34  1  0
 36 35  1  0
 38 39  1  0
 39 42  1  0
 39 41  1  0
 40 38  2  0
 43 18  1  0
 43 44  1  0
 45 43  1  0
 47 49  1  0
 47 46  1  0
 49 48  1  0
 51 50  1  0
 52 63  2  0
 53 51  1  0
 53 58  1  0
 54 62  1  0
 54 64  1  0
 55 57  1  0
 56 62  1  0
 57 58  2  0
 57 56  1  0
 59 53  2  0
 60 59  1  0
 60 55  2  0
 61 55  1  0
 61 54  1  0
 62 52  1  0
 64 66  2  0
 65 64  1  0
 67 65  1  0
 68 77  2  0
 68 73  1  0
 69 65  1  0
 69 73  1  0
 70 69  1  0
 71 72  1  0
 71 70  1  0
 72 68  1  0
 73 74  2  0
 74 75  1  0
 76 75  2  0
 77 76  1  0
 78 52  1  0
 78 79  1  0
 78 88  1  0
 79 82  1  0
 80 84  1  0
 80 79  1  0
 81 80  2  0
 84 83  1  0
 86 84  1  0
 86 87  1  0
 86 85  1  0
 88 91  1  1
 88 89  1  0
 90 88  1  0
M  ISO  4   8 100  16 100  50 101  51 101
M  END
>  <TORSDO>  (6) 
F 23

>  <SCORE>  (6) 
-13.471

>  <name>  (6) 
5

>  <ligand_id>  (6) 
5

>  <original_smiles>  (6) 
[H]c1c([H])c([H])c2c(c1[H])C([H])([H])C([H])([H])C([H])([H])C2([H])N([H])C(=O)C1([H])N(C(=O)C([H])(N([H])C(=O)C([H])(N([H])C([H])([H])[H])C([H])([H])[H])C(C([H])([H])[H])(C([H])([H])[H])C([H])([H])[H])C([H])([H])c2c([H])c(OC([H])([H])C([H])(C([H])([H])C([H])([H])C([H])(N([H])C(=O)N3C([H])([H])C([H])([H])C([H])([H])C([H])(n4nc(-c5c([H])c([H])c(Oc6c([H])c([H])c(F)c([H])c6F)c([H])c5[H])c(C(=O)N([H])[H])c4N([H])[H])C3([H])[H])C([H])(C([H])([H])[H])C([H])([H])C([H])([H])[H])C([H])(C([H])([H])[H])C([H])([H])[H])c([H])c([H])c2C1([H])[H]

>  <smiles>  (6) 
[H]c1c([H])c([H])c2c(c1[H])C([H])([H])C([H])([H])C([H])([H])C2([H])N([H])C(=O)C1([H])N(C(=O)C([H])(N([H])C(=O)C([H])(N([H])C([H])([H])[H])C([H])([H])[H])C(C([H])([H])[H])(C([H])([H])[H])C([H])([H])[H])C([H])([H])c2c([H])c(OC([H])([H])C([H])(C([H])([H])C([H])([H])C([H])(N([H])C(=O)N3C([H])([H])C([H])([H])C([H])([H])C([H])(n4nc(-c5c([H])c([H])c(Oc6c([H])c([H])c(F)c([H])c6F)c([H])c5[H])c(C(=O)N([H])[H])c4N([H])[H])C3([H])[H])C([H])(C([H])([H])[H])C([H])([H])C([H])([H])[H])C([H])(C([H])([H])[H])C([H])([H])[H])c([H])c([H])c2C1([H])[H]

$$$$
6:0:0
     RDKit          3D

 97104  0  0  1  0  0  0  0  0999 V2000
  -30.0260  -17.7580   19.8320 C   0  0  0  0  0  3  0  0  0  0  0  0
  -30.3460  -15.0480   19.3900 C   0  0  0  0  0  0  0  0  0  0  0  0
  -29.9970  -12.8300   18.2250 C   0  0  0  0  0  2  0  0  0  0  0  0
  -28.8770  -12.9650   17.1690 C   0  0  0  0  0  2  0  0  0  0  0  0
  -27.4990  -12.7200   17.8140 C   0  0  0  0  0  2  0  0  0  0  0  0
  -27.3240  -13.4930   19.1490 C   0  0  0  0  0  3  0  0  0  0  0  0
  -28.5500  -13.3510   20.0750 C   0  0  0  0  0  2  0  0  0  0  0  0
  -29.7140  -13.8110   19.3100 N   0  0  0  0  0  0  0  0  0  0  0  0
  -31.4770  -15.1310   18.9020 O   0  0  0  0  0  0  0  0  0  0  0  0
  -29.6490  -16.2130   19.8220 N   0  0  0  0  0  0  0  0  0  0  0  0
  -28.7170  -16.0140   20.1530 H   0  0  0  0  0  0  0  0  0  0  0  0
  -25.0710  -13.9850   20.2560 C   0  0  0  0  0  0  0  0  0  0  0  0
  -24.0870  -13.1700   20.7430 C   0  0  0  0  0  0  0  0  0  0  0  0
  -24.5660  -11.8330   20.5860 C   0  0  0  0  0  0  0  0  0  0  0  0
  -26.0810  -13.1440   19.8260 N   0  0  0  0  0  0  0  0  0  0  0  0
  -25.7970  -11.8410   20.0870 N   0  0  0  0  0  0  0  0  0  0  0  0
  -23.8960  -10.5480   20.8230 C   0  0  0  0  0  0  0  0  0  0  0  0
  -24.4480   -9.5720   21.6810 C   0  0  0  0  0  3  0  0  0  0  0  0
  -23.7740   -8.3540   21.9090 C   0  0  0  0  0  3  0  0  0  0  0  0
  -22.5320   -8.1020   21.2790 C   0  0  0  0  0  0  0  0  0  0  0  0
  -21.9970   -9.0670   20.4060 C   0  0  0  0  0  3  0  0  0  0  0  0
  -22.6730  -10.2760   20.1770 C   0  0  0  0  0  3  0  0  0  0  0  0
  -21.8170   -6.9370   21.4210 O   0  0  0  0  0  0  0  0  0  0  0  0
  -21.8700   -6.1970   22.5750 C   0  0  0  0  0  0  0  0  0  0  0  0
  -21.5290   -6.7480   23.8310 C   0  0  0  0  0  3  0  0  0  0  0  0
  -21.5310   -5.9330   24.9810 C   0  0  0  0  0  3  0  0  0  0  0  0
  -21.8620   -4.5680   24.8780 C   0  0  0  0  0  0  0  0  0  0  0  0
  -22.1950   -4.0180   23.6280 C   0  0  0  0  0  3  0  0  0  0  0  0
  -22.1970   -4.8300   22.4790 C   0  0  0  0  0  0  0  0  0  0  0  0
  -22.4990   -4.2880   21.2750 F   0  0  0  0  0  0  0  0  0  0  0  0
  -21.8550   -3.7840   25.9800 F   0  0  0  0  0  0  0  0  0  0  0  0
  -22.7370  -13.6040   21.2350 C   0  0  0  0  0  0  0  0  0  0  0  0
  -22.1700  -12.8770   22.1900 N   0  0  0  0  0  0  0  0  0  0  0  0
  -22.1990  -14.6240   20.8060 O   0  0  0  0  0  0  0  0  0  0  0  0
  -22.6200  -12.0500   22.5550 H   0  0  0  0  0  0  0  0  0  0  0  0
  -21.2720  -13.1510   22.5640 H   0  0  0  0  0  0  0  0  0  0  0  0
  -25.1790  -15.3660   20.1170 N   0  0  0  0  0  0  0  0  0  0  0  0
  -24.4140  -15.9850   20.3660 H   0  0  0  0  0  0  0  0  0  0  0  0
  -25.9380  -15.8460   19.6530 H   0  0  0  0  0  0  0  0  0  0  0  0
  -31.3340  -17.9060   20.6750 C   0  0  0  0  0  3  0  0  0  0  0  0
  -31.6740  -19.3500   21.1230 C   0  0  0  0  0  2  0  0  0  0  0  0
  -32.0020  -20.2500   20.0000 N   0  0  0  0  0  4  0  0  0  0  0  0
  -32.7620  -19.8790   19.4560 H   0  0  0  0  0  0  0  0  0  0  0  0
  -32.2920  -21.1440   20.3570 H   0  0  0  0  0  0  0  0  0  0  0  0
  -31.2130  -20.3980   19.3970 H   0  0  0  0  0  0  0  0  0  0  0  0
  -31.3160  -16.9370   21.8880 C   0  0  0  0  0  2  0  0  0  0  0  0
  -32.2540  -15.7250   21.7380 C   0  0  0  0  0  2  0  0  0  0  0  0
  -30.4670  -13.9350   21.3890 C   0  0  0  0  0  1  0  0  0  0  0  0
  -32.7120  -13.3140   22.3470 C   0  0  0  0  0  1  0  0  0  0  0  0
  -31.6430  -14.4110   22.2640 C   0  0  0  0  0  3  0  0  0  0  0  0
  -28.9430  -18.9740   20.2940 C   0  0  0  0  0  2  0  0  0  0  0  0
  -27.4390  -20.6530   18.9480 C   0  0  0  0  0  1  0  0  0  0  0  0
  -28.7740  -20.5580   19.7030 C   0  0  0  0  0  3  0  0  0  0  0  0
  -28.9460  -21.9860   20.5730 C   0  0  0  0  0  2  0  0  0  0  0  0
  -28.0530  -23.4260   20.5700 C   0  0  0  0  0  2  0  0  0  0  0  0
  -28.3590  -24.8990   19.8320 C   0  0  0  0  0  2  0  0  0  0  0  0
  -28.2450  -26.3440   20.3820 O   0  0  0  0  0  0  0  0  0  0  0  0
  -24.6310  -31.9720   23.3480 C   0  0  0  0  0  0  0  0  0  0  0  0
  -27.1590  -27.2750   20.2760 C   0  0  0  0  0  0  0  0  0  0  0  0
  -23.4040  -30.5860   21.7150 C   0  0  0  0  0  3  0  0  0  0  0  0
  -24.8300  -29.0040   20.2700 C   0  0  0  0  0  0  0  0  0  0  0  0
  -25.9540  -30.8450   21.5240 C   0  0  0  0  0  2  0  0  0  0  0  0
  -26.0120  -29.4560   20.8680 C   0  0  0  0  0  0  0  0  0  0  0  0
  -27.1740  -28.6040   20.8580 C   0  0  0  0  0  3  0  0  0  0  0  0
  -25.9560  -26.9110   19.6410 C   0  0  0  0  0  3  0  0  0  0  0  0
  -24.8140  -27.7460   19.6410 C   0  0  0  0  0  3  0  0  0  0  0  0
  -23.6050  -29.9030   20.3340 C   0  0  0  0  0  2  0  0  0  0  0  0
  -24.6830  -31.1560   22.2510 N   0  0  0  0  0  0  0  0  0  0  0  0
  -23.5530  -32.2610   23.8890 O   0  0  0  0  0  0  0  0  0  0  0  0
  -22.7320  -29.5820   22.6840 C   0  0  0  0  0  0  0  0  0  0  0  0
  -21.4070  -29.3970   22.5520 N   0  0  0  0  0  0  0  0  0  0  0  0
  -23.4060  -28.9700   23.5180 O   0  0  0  0  0  0  0  0  0  0  0  0
  -20.9200  -29.9450   21.8570 H   0  0  0  0  0  0  0  0  0  0  0  0
  -18.0390  -28.1540   23.0280 C   0  0  0  0  0  0  0  0  0  0  0  0
  -20.5900  -28.4590   23.3260 C   0  0  0  0  0  3  0  0  0  0  0  0
  -20.7200  -27.0200   22.7750 C   0  0  0  0  0  2  0  0  0  0  0  0
  -19.6390  -26.6660   21.7500 C   0  0  0  0  0  2  0  0  0  0  0  0
  -18.2460  -26.7980   22.3730 C   0  0  0  0  0  2  0  0  0  0  0  0
  -19.1410  -28.9410   23.4600 C   0  0  0  0  0  0  0  0  0  0  0  0
  -18.8940  -30.2080   24.0320 C   0  0  0  0  0  3  0  0  0  0  0  0
  -17.5790  -30.6890   24.1750 C   0  0  0  0  0  3  0  0  0  0  0  0
  -16.4930  -29.9020   23.7580 C   0  0  0  0  0  3  0  0  0  0  0  0
  -16.7230  -28.6370   23.1910 C   0  0  0  0  0  3  0  0  0  0  0  0
  -25.9200  -32.5970   23.9630 C   0  0  0  0  0  3  0  0  0  0  0  0
  -26.4220  -31.8430   25.2570 C   0  0  1  0  0  0  0  0  0  0  0  0
  -25.3180  -31.6290   26.3210 C   0  0  0  0  0  1  0  0  0  0  0  0
  -26.9980  -30.4540   24.8990 C   0  0  0  0  0  1  0  0  0  0  0  0
  -27.5740  -32.6390   25.9140 C   0  0  0  0  0  1  0  0  0  0  0  0
  -25.6300  -34.0060   24.2720 N   0  0  0  0  0  0  0  0  0  0  0  0
  -25.9780  -35.0450   23.5010 C   0  0  0  0  0  0  0  0  0  0  0  0
  -26.6440  -34.9170   22.4700 O   0  0  0  0  0  0  0  0  0  0  0  0
  -25.0320  -34.1780   25.0680 H   0  0  0  0  0  0  0  0  0  0  0  0
  -24.2820  -36.8710   23.1280 C   0  0  0  0  0  1  0  0  0  0  0  0
  -25.5160  -36.4500   23.9420 C   0  0  0  0  0  3  0  0  0  0  0  0
  -27.6670  -37.3100   24.7610 C   0  0  0  0  0  1  0  0  0  0  0  0
  -26.5680  -37.4830   23.8160 N   0  0  0  0  0  0  0  0  0  0  0  0
  -26.1760  -38.4120   23.9500 H   0  0  0  0  0  0  0  0  0  0  0  0
  1 51  1  0
  1 40  1  0
  2 10  1  0
  3  8  1  0
  4  5  1  0
  4  3  1  0
  6  5  1  0
  6 15  1  0
  6  7  1  0
  8  2  1  0
  8  7  1  0
  9  2  2  0
 10  1  1  0
 10 11  1  0
 12 13  2  0
 13 32  1  0
 14 13  1  0
 14 17  1  0
 15 16  1  0
 15 12  1  0
 16 14  2  0
 17 18  1  0
 18 19  2  0
 20 23  1  0
 20 19  1  0
 21 20  2  0
 22 21  1  0
 22 17  2  0
 23 24  1  0
 24 25  1  0
 25 26  2  0
 27 26  1  0
 27 31  1  0
 28 27  2  0
 29 24  2  0
 29 28  1  0
 30 29  1  0
 32 33  1  0
 33 35  1  0
 33 36  1  0
 34 32  2  0
 37 12  1  0
 37 38  1  0
 39 37  1  0
 40 41  1  0
 40 46  1  0
 42 44  1  0
 42 41  1  0
 43 42  1  0
 45 42  1  0
 47 46  1  0
 47 50  1  0
 48 50  1  0
 50 49  1  0
 53 52  1  0
 53 51  1  0
 53 54  1  0
 55 54  1  0
 56 57  1  0
 56 55  1  0
 58 69  2  0
 59 57  1  0
 59 64  1  0
 60 68  1  0
 60 70  1  0
 61 67  1  0
 61 63  1  0
 62 68  1  0
 63 62  1  0
 64 63  2  0
 65 59  2  0
 66 65  1  0
 66 61  2  0
 67 60  1  0
 68 58  1  0
 70 72  2  0
 71 70  1  0
 73 71  1  0
 74 83  2  0
 74 79  1  0
 75 71  1  0
 75 79  1  0
 76 75  1  0
 77 78  1  0
 77 76  1  0
 78 74  1  0
 79 80  2  0
 80 81  1  0
 82 81  2  0
 83 82  1  0
 84 58  1  0
 84 89  1  0
 84 85  1  0
 85 88  1  1
 85 86  1  0
 87 85  1  0
 89 92  1  0
 90 94  1  0
 90 89  1  0
 91 90  2  0
 94 93  1  0
 96 94  1  0
 96 97  1  0
 96 95  1  0
M  ISO  4   2 100  10 100  56 101  57 101
M  END
>  <TORSDO>  (7) 
F 27

>  <SCORE>  (7) 
-8.183

>  <name>  (7) 
6

>  <ligand_id>  (7) 
6

>  <original_smiles>  (7) 
[H]c1c([H])c([H])c2c(c1[H])C([H])([H])C([H])([H])C([H])([H])C2([H])N([H])C(=O)C1([H])N(C(=O)C([H])(N([H])C(=O)C([H])(N([H])C([H])([H])[H])C([H])([H])[H])C(C([H])([H])[H])(C([H])([H])[H])C([H])([H])[H])C([H])([H])c2c([H])c(OC([H])([H])C([H])([H])C([H])([H])C([H])(C([H])([H])[H])C([H])([H])C([H])(N([H])C(=O)N3C([H])([H])C([H])([H])C([H])([H])C([H])(n4nc(-c5c([H])c([H])c(Oc6c([H])c([H])c(F)c([H])c6F)c([H])c5[H])c(C(=O)N([H])[H])c4N([H])[H])C3([H])[H])C([H])(C([H])([H])C([H])([H])C([H])(C([H])([H])[H])C([H])([H])[H])C([H])([H])[N+]([H])([H])[H])c([H])c([H])c2C1([H])[H]

>  <smiles>  (7) 
[H]c1c([H])c([H])c2c(c1[H])C([H])([H])C([H])([H])C([H])([H])C2([H])N([H])C(=O)C1([H])N(C(=O)C([H])(N([H])C(=O)C([H])(N([H])C([H])([H])[H])C([H])([H])[H])C(C([H])([H])[H])(C([H])([H])[H])C([H])([H])[H])C([H])([H])c2c([H])c(OC([H])([H])C([H])([H])C([H])([H])C([H])(C([H])([H])[H])C([H])([H])C([H])(N([H])C(=O)N3C([H])([H])C([H])([H])C([H])([H])C([H])(n4nc(-c5c([H])c([H])c(Oc6c([H])c([H])c(F)c([H])c6F)c([H])c5[H])c(C(=O)N([H])[H])c4N([H])[H])C3([H])[H])C([H])(C([H])([H])C([H])([H])C([H])(C([H])([H])[H])C([H])([H])[H])C([H])([H])[N+]([H])([H])[H])c([H])c([H])c2C1([H])[H]

$$$$
7:0:0
     RDKit          3D

 93100  0  0  1  0  0  0  0  0999 V2000
  -28.3780  -21.8770   20.7500 C   0  0  0  0  0  2  0  0  0  0  0  0
  -28.9340  -23.1160   20.1320 N   0  0  0  0  0  4  0  0  0  0  0  0
  -29.2510  -22.8570   19.2110 H   0  0  0  0  0  0  0  0  0  0  0  0
  -29.7560  -23.3950   20.6460 H   0  0  0  0  0  0  0  0  0  0  0  0
  -28.0350  -24.2960   19.9430 C   0  0  0  0  0  2  0  0  0  0  0  0
  -28.3950  -25.5150   20.8360 C   0  0  0  0  0  2  0  0  0  0  0  0
  -28.3580  -26.7910   20.1650 O   0  0  0  0  0  0  0  0  0  0  0  0
  -24.5450  -31.9530   23.2910 C   0  0  0  0  0  0  0  0  0  0  0  0
  -27.1810  -27.5030   20.2110 C   0  0  0  0  0  0  0  0  0  0  0  0
  -23.3390  -30.5550   21.6450 C   0  0  0  0  0  3  0  0  0  0  0  0
  -24.7880  -29.0120   20.2220 C   0  0  0  0  0  0  0  0  0  0  0  0
  -25.8620  -30.9110   21.4430 C   0  0  0  0  0  2  0  0  0  0  0  0
  -25.9450  -29.5360   20.8110 C   0  0  0  0  0  0  0  0  0  0  0  0
  -27.1460  -28.7910   20.7980 C   0  0  0  0  0  3  0  0  0  0  0  0
  -26.0070  -26.9940   19.6160 C   0  0  0  0  0  3  0  0  0  0  0  0
  -24.8140  -27.7390   19.6220 C   0  0  0  0  0  3  0  0  0  0  0  0
  -23.5470  -29.8720   20.2650 C   0  0  0  0  0  2  0  0  0  0  0  0
  -24.6010  -31.1540   22.1870 N   0  0  0  0  0  0  0  0  0  0  0  0
  -23.4650  -32.2250   23.8320 O   0  0  0  0  0  0  0  0  0  0  0  0
  -22.6850  -29.5340   22.6050 C   0  0  0  0  0  0  0  0  0  0  0  0
  -21.3610  -29.3480   22.4700 N   0  0  0  0  0  0  0  0  0  0  0  0
  -23.3660  -28.9130   23.4250 O   0  0  0  0  0  0  0  0  0  0  0  0
  -20.8720  -29.9040   21.7820 H   0  0  0  0  0  0  0  0  0  0  0  0
  -17.9910  -28.1420   22.9470 C   0  0  0  0  0  0  0  0  0  0  0  0
  -20.5450  -28.4060   23.2340 C   0  0  0  0  0  3  0  0  0  0  0  0
  -20.6550  -26.9760   22.6550 C   0  0  0  0  0  2  0  0  0  0  0  0
  -19.5590  -26.6520   21.6350 C   0  0  0  0  0  2  0  0  0  0  0  0
  -18.1740  -26.7930   22.2710 C   0  0  0  0  0  2  0  0  0  0  0  0
  -19.1040  -28.9070   23.3840 C   0  0  0  0  0  0  0  0  0  0  0  0
  -18.8780  -30.1710   23.9720 C   0  0  0  0  0  3  0  0  0  0  0  0
  -17.5710  -30.6680   24.1290 C   0  0  0  0  0  3  0  0  0  0  0  0
  -16.4720  -29.9010   23.7090 C   0  0  0  0  0  3  0  0  0  0  0  0
  -16.6820  -28.6390   23.1230 C   0  0  0  0  0  3  0  0  0  0  0  0
  -25.8330  -32.5800   23.9130 C   0  0  0  0  0  3  0  0  0  0  0  0
  -26.3320  -31.8220   25.2040 C   0  0  1  0  0  0  0  0  0  0  0  0
  -25.2280  -31.6100   26.2670 C   0  0  0  0  0  1  0  0  0  0  0  0
  -26.9030  -30.4340   24.8320 C   0  0  0  0  0  1  0  0  0  0  0  0
  -27.4870  -32.6120   25.8640 C   0  0  0  0  0  1  0  0  0  0  0  0
  -25.5370  -33.9870   24.2170 N   0  0  0  0  0  0  0  0  0  0  0  0
  -25.8990  -35.0230   23.4490 C   0  0  0  0  0  0  0  0  0  0  0  0
  -26.5860  -34.8950   22.4320 O   0  0  0  0  0  0  0  0  0  0  0  0
  -24.9370  -34.1610   25.0090 H   0  0  0  0  0  0  0  0  0  0  0  0
  -24.2090  -36.8360   23.0230 C   0  0  0  0  0  1  0  0  0  0  0  0
  -25.4210  -36.4250   23.8750 C   0  0  0  0  0  3  0  0  0  0  0  0
  -27.5450  -37.2870   24.7560 C   0  0  0  0  0  1  0  0  0  0  0  0
  -26.4750  -37.4590   23.7770 N   0  0  0  0  0  0  0  0  0  0  0  0
  -26.0800  -38.3890   23.9000 H   0  0  0  0  0  0  0  0  0  0  0  0
  -29.2190  -20.6230   20.3570 C   0  0  0  0  0  2  0  0  0  0  0  0
  -28.9910  -19.3280   21.1900 C   0  0  0  0  0  2  0  0  0  0  0  0
  -29.1210  -17.9490   20.4620 C   0  0  0  0  0  2  0  0  0  0  0  0
  -30.4690  -17.1390   20.4980 C   0  0  0  0  0  3  0  0  0  0  0  0
  -30.9040  -14.5930   20.4130 C   0  0  0  0  0  0  0  0  0  0  0  0
  -30.6080  -12.4280   19.2890 C   0  0  0  0  0  2  0  0  0  0  0  0
  -29.6880  -12.6390   18.0680 C   0  0  0  0  0  2  0  0  0  0  0  0
  -28.2060  -12.5070   18.4750 C   0  0  0  0  0  2  0  0  0  0  0  0
  -27.8520  -13.3450   19.7340 C   0  0  0  0  0  3  0  0  0  0  0  0
  -28.8950  -13.1410   20.8570 C   0  0  0  0  0  2  0  0  0  0  0  0
  -30.2210  -13.4250   20.2970 N   0  0  0  0  0  0  0  0  0  0  0  0
  -32.0990  -14.6780   20.1320 O   0  0  0  0  0  0  0  0  0  0  0  0
  -30.1350  -15.6910   20.6050 N   0  0  0  0  0  0  0  0  0  0  0  0
  -29.1670  -15.4890   20.8020 H   0  0  0  0  0  0  0  0  0  0  0  0
  -25.4420  -13.9530   20.4000 C   0  0  0  0  0  0  0  0  0  0  0  0
  -24.3720  -13.1830   20.7690 C   0  0  0  0  0  0  0  0  0  0  0  0
  -24.8410  -11.8320   20.7710 C   0  0  0  0  0  0  0  0  0  0  0  0
  -26.4940  -13.0730   20.2010 N   0  0  0  0  0  0  0  0  0  0  0  0
  -26.1350  -11.7940   20.4840 N   0  0  0  0  0  0  0  0  0  0  0  0
  -24.1160  -10.5710   20.9690 C   0  0  0  0  0  0  0  0  0  0  0  0
  -24.5290   -9.6260   21.9350 C   0  0  0  0  0  3  0  0  0  0  0  0
  -23.8060   -8.4260   22.1190 C   0  0  0  0  0  3  0  0  0  0  0  0
  -22.6570   -8.1650   21.3370 C   0  0  0  0  0  0  0  0  0  0  0  0
  -22.2630   -9.0980   20.3620 C   0  0  0  0  0  3  0  0  0  0  0  0
  -22.9860  -10.2870   20.1760 C   0  0  0  0  0  3  0  0  0  0  0  0
  -21.9060   -7.0170   21.4290 O   0  0  0  0  0  0  0  0  0  0  0  0
  -21.8180   -6.3070   22.5990 C   0  0  0  0  0  0  0  0  0  0  0  0
  -21.3260   -6.8890   23.7890 C   0  0  0  0  0  3  0  0  0  0  0  0
  -21.1850   -6.1040   24.9510 C   0  0  0  0  0  3  0  0  0  0  0  0
  -21.5280   -4.7400   24.9250 C   0  0  0  0  0  0  0  0  0  0  0  0
  -22.0110   -4.1560   23.7400 C   0  0  0  0  0  3  0  0  0  0  0  0
  -22.1510   -4.9380   22.5790 C   0  0  0  0  0  0  0  0  0  0  0  0
  -22.5980   -4.3660   21.4360 F   0  0  0  0  0  0  0  0  0  0  0  0
  -21.3860   -3.9840   26.0390 F   0  0  0  0  0  0  0  0  0  0  0  0
  -22.9680  -13.6580   21.0090 C   0  0  0  0  0  0  0  0  0  0  0  0
  -22.2250  -12.9750   21.8760 N   0  0  0  0  0  0  0  0  0  0  0  0
  -22.5340  -14.6690   20.4610 O   0  0  0  0  0  0  0  0  0  0  0  0
  -22.5820  -12.1560   22.3460 H   0  0  0  0  0  0  0  0  0  0  0  0
  -21.2820  -13.2800   22.0750 H   0  0  0  0  0  0  0  0  0  0  0  0
  -25.6030  -15.3200   20.1930 N   0  0  0  0  0  0  0  0  0  0  0  0
  -24.8260  -15.9690   20.2540 H   0  0  0  0  0  0  0  0  0  0  0  0
  -26.4410  -15.7490   19.8210 H   0  0  0  0  0  0  0  0  0  0  0  0
  -30.7730  -17.1380   17.9110 C   0  0  0  0  0  1  0  0  0  0  0  0
  -31.4260  -17.4280   19.2790 C   0  0  0  0  0  3  0  0  0  0  0  0
  -32.9540  -19.0960   20.5280 C   0  0  0  0  0  1  0  0  0  0  0  0
  -32.1420  -18.7910   19.2580 C   0  0  0  0  0  2  0  0  0  0  0  0
  2  4  1  0
  2  1  1  0
  3  2  1  0
  5  2  1  0
  5  6  1  0
  7  9  1  0
  7  6  1  0
  8 19  2  0
  9 14  1  0
 10 18  1  0
 10 20  1  0
 11 17  1  0
 11 13  1  0
 12 18  1  0
 13 12  1  0
 14 13  2  0
 15 16  1  0
 15  9  2  0
 16 11  2  0
 17 10  1  0
 18  8  1  0
 20 22  2  0
 21 20  1  0
 23 21  1  0
 24 33  2  0
 24 29  1  0
 25 21  1  0
 25 29  1  0
 26 25  1  0
 27 28  1  0
 27 26  1  0
 28 24  1  0
 29 30  2  0
 30 31  1  0
 32 31  2  0
 33 32  1  0
 34  8  1  0
 34 39  1  0
 34 35  1  0
 35 38  1  1
 35 36  1  0
 37 35  1  0
 39 42  1  0
 40 44  1  0
 40 39  1  0
 41 40  2  0
 44 43  1  0
 46 44  1  0
 46 47  1  0
 46 45  1  0
 48  1  1  0
 48 49  1  0
 50 49  1  0
 51 50  1  0
 51 60  1  0
 52 60  1  0
 53 58  1  0
 54 55  1  0
 54 53  1  0
 56 55  1  0
 56 65  1  0
 56 57  1  0
 58 52  1  0
 58 57  1  0
 59 52  2  0
 60 61  1  0
 62 63  2  0
 63 64  1  0
 63 82  1  0
 64 67  1  0
 65 62  1  0
 65 66  1  0
 66 64  2  0
 67 68  1  0
 68 69  2  0
 70 73  1  0
 70 69  1  0
 71 70  2  0
 72 71  1  0
 72 67  2  0
 73 74  1  0
 74 75  1  0
 75 76  2  0
 77 76  1  0
 77 81  1  0
 78 77  2  0
 79 74  2  0
 79 78  1  0
 80 79  1  0
 82 83  1  0
 83 86  1  0
 83 85  1  0
 84 82  2  0
 87 88  1  0
 87 62  1  0
 89 87  1  0
 91 90  1  0
 91 51  1  0
 93 91  1  0
 93 92  1  0
M  ISO  4   6 101   7 101  52 100  60 100
M  END
>  <TORSDO>  (8) 
F 25

>  <SCORE>  (8) 
-11.720

>  <name>  (8) 
7

>  <ligand_id>  (8) 
7

>  <original_smiles>  (8) 
[H]c1c([H])c([H])c2c(c1[H])C([H])([H])C([H])([H])C([H])([H])C2([H])N([H])C(=O)C1([H])N(C(=O)C([H])(N([H])C(=O)C([H])(N([H])C([H])([H])[H])C([H])([H])[H])C(C([H])([H])[H])(C([H])([H])[H])C([H])([H])[H])C([H])([H])c2c([H])c(OC([H])([H])C([H])([H])[N+]([H])([H])C([H])([H])C([H])([H])C([H])([H])C([H])([H])C([H])(N([H])C(=O)N3C([H])([H])C([H])([H])C([H])([H])C([H])(n4nc(-c5c([H])c([H])c(Oc6c([H])c([H])c(F)c([H])c6F)c([H])c5[H])c(C(=O)N([H])[H])c4N([H])[H])C3([H])[H])C([H])(C([H])([H])[H])C([H])([H])C([H])([H])[H])c([H])c([H])c2C1([H])[H]

>  <smiles>  (8) 
[H]c1c([H])c([H])c2c(c1[H])C([H])([H])C([H])([H])C([H])([H])C2([H])N([H])C(=O)C1([H])N(C(=O)C([H])(N([H])C(=O)C([H])(N([H])C([H])([H])[H])C([H])([H])[H])C(C([H])([H])[H])(C([H])([H])[H])C([H])([H])[H])C([H])([H])c2c([H])c(OC([H])([H])C([H])([H])[N+]([H])([H])C([H])([H])C([H])([H])C([H])([H])C([H])([H])C([H])(N([H])C(=O)N3C([H])([H])C([H])([H])C([H])([H])C([H])(n4nc(-c5c([H])c([H])c(Oc6c([H])c([H])c(F)c([H])c6F)c([H])c5[H])c(C(=O)N([H])[H])c4N([H])[H])C3([H])[H])C([H])(C([H])([H])[H])C([H])([H])C([H])([H])[H])c([H])c([H])c2C1([H])[H]

$$$$
8:0:0
     RDKit          3D

 96103  0  0  1  0  0  0  0  0999 V2000
  -28.8310  -20.4370   20.1090 N   0  0  0  0  0  4  0  0  0  0  0  0
  -28.4470  -20.5670   19.1880 H   0  0  0  0  0  0  0  0  0  0  0  0
  -28.0580  -20.1190   20.6740 H   0  0  0  0  0  0  0  0  0  0  0  0
  -29.1460  -21.9270   20.5860 C   0  0  0  0  0  2  0  0  0  0  0  0
  -27.4230  -23.0330   18.9200 C   0  0  0  0  0  1  0  0  0  0  0  0
  -29.8190  -23.7530   18.8610 C   0  0  0  0  0  1  0  0  0  0  0  0
  -28.6520  -23.3690   19.7950 C   0  0  2  0  0  0  0  0  0  0  0  0
  -28.2740  -24.8110   20.6240 C   0  0  0  0  0  2  0  0  0  0  0  0
  -28.3360  -26.3070   20.1710 O   0  0  0  0  0  0  0  0  0  0  0  0
  -24.6350  -31.9700   23.2160 C   0  0  0  0  0  0  0  0  0  0  0  0
  -27.2370  -27.2390   20.2200 C   0  0  0  0  0  0  0  0  0  0  0  0
  -23.4350  -30.5430   21.6020 C   0  0  0  0  0  3  0  0  0  0  0  0
  -24.8860  -28.9520   20.2000 C   0  0  0  0  0  0  0  0  0  0  0  0
  -25.9840  -30.8300   21.4130 C   0  0  0  0  0  2  0  0  0  0  0  0
  -26.0670  -29.4270   20.7830 C   0  0  0  0  0  0  0  0  0  0  0  0
  -27.2440  -28.5870   20.7670 C   0  0  0  0  0  3  0  0  0  0  0  0
  -26.0230  -26.8560   19.6160 C   0  0  0  0  0  3  0  0  0  0  0  0
  -24.8750  -27.6800   19.6050 C   0  0  0  0  0  3  0  0  0  0  0  0
  -23.6510  -29.8390   20.2350 C   0  0  0  0  0  2  0  0  0  0  0  0
  -24.7050  -31.1400   22.1310 N   0  0  0  0  0  0  0  0  0  0  0  0
  -23.5510  -32.2460   23.7530 O   0  0  0  0  0  0  0  0  0  0  0  0
  -22.7710  -29.5480   22.5840 C   0  0  0  0  0  0  0  0  0  0  0  0
  -21.4450  -29.3580   22.4580 N   0  0  0  0  0  0  0  0  0  0  0  0
  -23.4490  -28.9440   23.4180 O   0  0  0  0  0  0  0  0  0  0  0  0
  -20.9520  -29.8970   21.7600 H   0  0  0  0  0  0  0  0  0  0  0  0
  -18.0770  -28.1230   22.9770 C   0  0  0  0  0  0  0  0  0  0  0  0
  -20.6340  -28.4220   23.2410 C   0  0  0  0  0  3  0  0  0  0  0  0
  -20.7540  -26.9820   22.6900 C   0  0  0  0  0  2  0  0  0  0  0  0
  -19.6580  -26.6310   21.6780 C   0  0  0  0  0  2  0  0  0  0  0  0
  -18.2730  -26.7680   22.3180 C   0  0  0  0  0  2  0  0  0  0  0  0
  -19.1850  -28.9060   23.3950 C   0  0  0  0  0  0  0  0  0  0  0  0
  -18.9520  -30.1750   23.9700 C   0  0  0  0  0  3  0  0  0  0  0  0
  -17.6410  -30.6610   24.1350 C   0  0  0  0  0  3  0  0  0  0  0  0
  -16.5460  -29.8750   23.7340 C   0  0  0  0  0  3  0  0  0  0  0  0
  -16.7640  -28.6090   23.1620 C   0  0  0  0  0  3  0  0  0  0  0  0
  -25.9120  -32.6230   23.8280 C   0  0  0  0  0  3  0  0  0  0  0  0
  -26.4370  -31.8690   25.1130 C   0  0  1  0  0  0  0  0  0  0  0  0
  -25.3450  -31.6190   26.1790 C   0  0  0  0  0  1  0  0  0  0  0  0
  -27.0480  -30.4980   24.7410 C   0  0  0  0  0  1  0  0  0  0  0  0
  -27.5640  -32.6930   25.7790 C   0  0  0  0  0  1  0  0  0  0  0  0
  -25.5900  -34.0220   24.1490 N   0  0  0  0  0  0  0  0  0  0  0  0
  -25.9180  -35.0770   23.3900 C   0  0  0  0  0  0  0  0  0  0  0  0
  -26.5880  -34.9750   22.3600 O   0  0  0  0  0  0  0  0  0  0  0  0
  -24.9920  -34.1750   24.9490 H   0  0  0  0  0  0  0  0  0  0  0  0
  -24.1800  -36.8670   23.0380 C   0  0  0  0  0  1  0  0  0  0  0  0
  -25.4250  -36.4660   23.8460 C   0  0  0  0  0  3  0  0  0  0  0  0
  -27.5540  -37.3710   24.6710 C   0  0  0  0  0  1  0  0  0  0  0  0
  -26.4520  -37.5250   23.7270 N   0  0  0  0  0  0  0  0  0  0  0  0
  -26.0390  -38.4430   23.8700 H   0  0  0  0  0  0  0  0  0  0  0  0
  -29.7770  -19.1600   19.8860 C   0  0  0  0  0  3  0  0  0  0  0  0
  -29.7220  -17.7400   20.8180 C   0  0  0  0  0  2  0  0  0  0  0  0
  -30.5130  -15.0750   20.2070 C   0  0  0  0  0  0  0  0  0  0  0  0
  -30.3860  -12.7820   19.1280 C   0  0  0  0  0  2  0  0  0  0  0  0
  -29.4100  -12.8260   17.9300 C   0  0  0  0  0  2  0  0  0  0  0  0
  -27.9580  -12.5760   18.3920 C   0  0  0  0  0  2  0  0  0  0  0  0
  -27.5920  -13.4270   19.6370 C   0  0  0  0  0  3  0  0  0  0  0  0
  -28.6860  -13.3610   20.7240 C   0  0  0  0  0  2  0  0  0  0  0  0
  -29.9310  -13.8170   20.0920 N   0  0  0  0  0  0  0  0  0  0  0  0
  -31.7240  -15.1670   19.9950 O   0  0  0  0  0  0  0  0  0  0  0  0
  -29.6680  -16.2130   20.3570 N   0  0  0  0  0  0  0  0  0  0  0  0
  -28.7100  -15.9020   20.3060 H   0  0  0  0  0  0  0  0  0  0  0  0
  -25.2300  -13.9730   20.4520 C   0  0  0  0  0  0  0  0  0  0  0  0
  -24.1850  -13.1790   20.8420 C   0  0  0  0  0  0  0  0  0  0  0  0
  -24.6600  -11.8340   20.7680 C   0  0  0  0  0  0  0  0  0  0  0  0
  -26.2720  -13.1070   20.1660 N   0  0  0  0  0  0  0  0  0  0  0  0
  -25.9430  -11.8160   20.4250 N   0  0  0  0  0  0  0  0  0  0  0  0
  -23.9500  -10.5630   20.9440 C   0  0  0  0  0  0  0  0  0  0  0  0
  -24.3890   -9.5980   21.8760 C   0  0  0  0  0  3  0  0  0  0  0  0
  -23.6780   -8.3920   22.0450 C   0  0  0  0  0  3  0  0  0  0  0  0
  -22.5130   -8.1410   21.2830 C   0  0  0  0  0  0  0  0  0  0  0  0
  -22.0930   -9.0940   20.3410 C   0  0  0  0  0  3  0  0  0  0  0  0
  -22.8030  -10.2930   20.1700 C   0  0  0  0  0  3  0  0  0  0  0  0
  -21.7720   -6.9860   21.3650 O   0  0  0  0  0  0  0  0  0  0  0  0
  -21.6950   -6.2560   22.5250 C   0  0  0  0  0  0  0  0  0  0  0  0
  -21.2090   -6.8180   23.7270 C   0  0  0  0  0  3  0  0  0  0  0  0
  -21.0850   -6.0130   24.8760 C   0  0  0  0  0  3  0  0  0  0  0  0
  -21.4330   -4.6510   24.8260 C   0  0  0  0  0  0  0  0  0  0  0  0
  -21.9070   -4.0900   23.6260 C   0  0  0  0  0  3  0  0  0  0  0  0
  -22.0350   -4.8890   22.4790 C   0  0  0  0  0  0  0  0  0  0  0  0
  -22.4730   -4.3390   21.3190 F   0  0  0  0  0  0  0  0  0  0  0  0
  -21.3050   -3.8760   25.9280 F   0  0  0  0  0  0  0  0  0  0  0  0
  -22.7910  -13.6370   21.1560 C   0  0  0  0  0  0  0  0  0  0  0  0
  -22.0830  -12.9140   22.0150 N   0  0  0  0  0  0  0  0  0  0  0  0
  -22.3370  -14.6700   20.6650 O   0  0  0  0  0  0  0  0  0  0  0  0
  -22.4600  -12.0750   22.4340 H   0  0  0  0  0  0  0  0  0  0  0  0
  -21.1480  -13.2030   22.2590 H   0  0  0  0  0  0  0  0  0  0  0  0
  -25.3770  -15.3490   20.2890 N   0  0  0  0  0  0  0  0  0  0  0  0
  -24.6070  -15.9920   20.4240 H   0  0  0  0  0  0  0  0  0  0  0  0
  -26.1850  -15.7930   19.8740 H   0  0  0  0  0  0  0  0  0  0  0  0
  -29.8110  -18.7610   18.3660 C   0  0  0  0  0  3  0  0  0  0  0  0
  -28.3940  -18.4960   16.2240 C   0  0  0  0  0  1  0  0  0  0  0  0
  -28.5990  -19.2680   17.5380 C   0  0  0  0  0  2  0  0  0  0  0  0
  -31.7210  -20.4180   17.7530 C   0  0  0  0  0  1  0  0  0  0  0  0
  -31.1800  -18.9810   17.6480 C   0  0  0  0  0  3  0  0  0  0  0  0
  -32.0990  -16.5910   17.3480 C   0  0  0  0  0  1  0  0  0  0  0  0
  -32.2460  -17.9430   18.0670 C   0  0  0  0  0  2  0  0  0  0  0  0
  1  4  1  0
  1  3  1  0
  2  1  1  0
  7  5  1  6
  6  7  1  0
  7  4  1  0
  7  8  1  0
  9 11  1  0
  9  8  1  0
 10 21  2  0
 11 16  1  0
 12 20  1  0
 12 22  1  0
 13 19  1  0
 13 15  1  0
 14 20  1  0
 15 14  1  0
 16 15  2  0
 17 11  2  0
 18 17  1  0
 18 13  2  0
 19 12  1  0
 20 10  1  0
 22 24  2  0
 23 22  1  0
 25 23  1  0
 26 35  2  0
 26 31  1  0
 27 23  1  0
 27 31  1  0
 28 27  1  0
 29 30  1  0
 29 28  1  0
 30 26  1  0
 31 32  2  0
 32 33  1  0
 34 33  2  0
 35 34  1  0
 36 10  1  0
 36 41  1  0
 36 37  1  0
 37 40  1  1
 37 38  1  0
 39 37  1  0
 41 44  1  0
 42 46  1  0
 42 41  1  0
 43 42  2  0
 46 45  1  0
 48 46  1  0
 48 49  1  0
 48 47  1  0
 50  1  1  0
 50 51  1  0
 52 60  1  0
 53 58  1  0
 54 55  1  0
 54 53  1  0
 56 55  1  0
 56 65  1  0
 56 57  1  0
 58 52  1  0
 58 57  1  0
 59 52  2  0
 60 51  1  0
 61 60  1  0
 62 63  2  0
 63 82  1  0
 64 63  1  0
 64 67  1  0
 65 66  1  0
 65 62  1  0
 66 64  2  0
 67 68  1  0
 68 69  2  0
 70 73  1  0
 70 69  1  0
 71 70  2  0
 72 71  1  0
 72 67  2  0
 73 74  1  0
 74 75  1  0
 75 76  2  0
 77 76  1  0
 77 81  1  0
 78 77  2  0
 79 74  2  0
 79 78  1  0
 80 79  1  0
 82 83  1  0
 83 86  1  0
 83 85  1  0
 84 82  2  0
 87 88  1  0
 87 62  1  0
 89 87  1  0
 90 92  1  0
 90 50  1  0
 91 92  1  0
 94 93  1  0
 94 96  1  0
 94 90  1  0
 95 96  1  0
M  ISO  4   8 101   9 101  52 100  60 100
M  END
>  <TORSDO>  (9) 
F 25

>  <SCORE>  (9) 
-13.792

>  <name>  (9) 
8

>  <ligand_id>  (9) 
8

>  <original_smiles>  (9) 
[H]c1c([H])c([H])c2c(c1[H])C([H])([H])C([H])([H])C([H])([H])C2([H])N([H])C(=O)C1([H])N(C(=O)C([H])(N([H])C(=O)C([H])(N([H])C([H])([H])[H])C([H])([H])[H])C(C([H])([H])[H])(C([H])([H])[H])C([H])([H])[H])C([H])([H])c2c([H])c(OC([H])([H])C(C([H])([H])[H])(C([H])([H])[H])C([H])([H])[N+]([H])([H])C([H])(C([H])([H])N([H])C(=O)N3C([H])([H])C([H])([H])C([H])([H])C([H])(n4nc(-c5c([H])c([H])c(Oc6c([H])c([H])c(F)c([H])c6F)c([H])c5[H])c(C(=O)N([H])[H])c4N([H])[H])C3([H])[H])C([H])(C([H])([H])C([H])([H])[H])C([H])(C([H])([H])[H])C([H])([H])C([H])([H])[H])c([H])c([H])c2C1([H])[H]

>  <smiles>  (9) 
[H]c1c([H])c([H])c2c(c1[H])C([H])([H])C([H])([H])C([H])([H])C2([H])N([H])C(=O)C1([H])N(C(=O)C([H])(N([H])C(=O)C([H])(N([H])C([H])([H])[H])C([H])([H])[H])C(C([H])([H])[H])(C([H])([H])[H])C([H])([H])[H])C([H])([H])c2c([H])c(OC([H])([H])C(C([H])([H])[H])(C([H])([H])[H])C([H])([H])[N+]([H])([H])C([H])(C([H])([H])N([H])C(=O)N3C([H])([H])C([H])([H])C([H])([H])C([H])(n4nc(-c5c([H])c([H])c(Oc6c([H])c([H])c(F)c([H])c6F)c([H])c5[H])c(C(=O)N([H])[H])c4N([H])[H])C3([H])[H])C([H])(C([H])([H])C([H])([H])[H])C([H])(C([H])([H])[H])C([H])([H])C([H])([H])[H])c([H])c([H])c2C1([H])[H]

$$$$
9:0:0
     RDKit          3D

 93100  0  0  1  0  0  0  0  0999 V2000
  -28.3050  -22.6410   20.0770 C   0  0  0  0  0  3  0  0  0  0  0  0
  -27.1590  -22.1270   20.8550 N   0  0  0  0  0  4  0  0  0  0  0  0
  -27.4610  -21.8050   21.7600 H   0  0  0  0  0  0  0  0  0  0  0  0
  -26.7100  -21.3680   20.3730 H   0  0  0  0  0  0  0  0  0  0  0  0
  -26.4710  -22.8480   20.9940 H   0  0  0  0  0  0  0  0  0  0  0  0
  -29.2820  -21.2120   19.5900 C   0  0  0  0  0  2  0  0  0  0  0  0
  -31.4940  -19.8180   19.9820 C   0  0  0  0  0  1  0  0  0  0  0  0
  -29.9780  -19.6560   20.1750 C   0  0  0  0  0  3  0  0  0  0  0  0
  -29.7400  -17.9320   19.7480 C   0  0  0  0  0  3  0  0  0  0  0  0
  -31.0800  -15.2180   20.0070 C   0  0  0  0  0  0  0  0  0  0  0  0
  -30.9750  -12.7070   19.3950 C   0  0  0  0  0  2  0  0  0  0  0  0
  -30.0920  -12.3850   18.1680 C   0  0  0  0  0  2  0  0  0  0  0  0
  -28.6280  -12.1820   18.5930 C   0  0  0  0  0  2  0  0  0  0  0  0
  -28.1610  -13.2620   19.6010 C   0  0  0  0  0  3  0  0  0  0  0  0
  -29.1920  -13.4950   20.7340 C   0  0  0  0  0  2  0  0  0  0  0  0
  -30.4340  -13.9460   20.0800 N   0  0  0  0  0  0  0  0  0  0  0  0
  -32.2830  -15.1000   19.7400 O   0  0  0  0  0  0  0  0  0  0  0  0
  -30.6020  -16.5970   20.2670 N   0  0  0  0  0  0  0  0  0  0  0  0
  -31.4180  -17.0090   20.6960 H   0  0  0  0  0  0  0  0  0  0  0  0
  -25.7820  -13.9170   20.2780 C   0  0  0  0  0  0  0  0  0  0  0  0
  -24.6970  -13.1920   20.6720 C   0  0  0  0  0  0  0  0  0  0  0  0
  -25.1160  -11.8280   20.6790 C   0  0  0  0  0  0  0  0  0  0  0  0
  -26.8110  -13.0080   20.0940 N   0  0  0  0  0  0  0  0  0  0  0  0
  -26.4130  -11.7420   20.3920 N   0  0  0  0  0  0  0  0  0  0  0  0
  -24.3350  -10.6010   20.8790 C   0  0  0  0  0  0  0  0  0  0  0  0
  -24.7010   -9.6410   21.8480 C   0  0  0  0  0  3  0  0  0  0  0  0
  -23.9160   -8.4830   22.0380 C   0  0  0  0  0  3  0  0  0  0  0  0
  -22.7530   -8.2760   21.2580 C   0  0  0  0  0  0  0  0  0  0  0  0
  -22.4070   -9.2240   20.2790 C   0  0  0  0  0  3  0  0  0  0  0  0
  -23.1910  -10.3740   20.0860 C   0  0  0  0  0  3  0  0  0  0  0  0
  -21.9430   -7.1710   21.3570 O   0  0  0  0  0  0  0  0  0  0  0  0
  -21.8070   -6.4820   22.5360 C   0  0  0  0  0  0  0  0  0  0  0  0
  -21.3540   -7.1120   23.7160 C   0  0  0  0  0  3  0  0  0  0  0  0
  -21.1600   -6.3530   24.8890 C   0  0  0  0  0  3  0  0  0  0  0  0
  -21.4120   -4.9680   24.8810 C   0  0  0  0  0  0  0  0  0  0  0  0
  -21.8620   -4.3400   23.7060 C   0  0  0  0  0  3  0  0  0  0  0  0
  -22.0550   -5.0950   22.5360 C   0  0  0  0  0  0  0  0  0  0  0  0
  -22.4640   -4.4810   21.4000 F   0  0  0  0  0  0  0  0  0  0  0  0
  -21.2220   -4.2380   26.0050 F   0  0  0  0  0  0  0  0  0  0  0  0
  -23.3200  -13.7340   20.9180 C   0  0  0  0  0  0  0  0  0  0  0  0
  -22.5650  -13.1160   21.8200 N   0  0  0  0  0  0  0  0  0  0  0  0
  -22.9210  -14.7460   20.3420 O   0  0  0  0  0  0  0  0  0  0  0  0
  -22.8980  -12.2950   22.3020 H   0  0  0  0  0  0  0  0  0  0  0  0
  -21.6410  -13.4650   22.0250 H   0  0  0  0  0  0  0  0  0  0  0  0
  -25.9470  -15.2710   20.0310 N   0  0  0  0  0  0  0  0  0  0  0  0
  -25.1850  -15.9270   20.1610 H   0  0  0  0  0  0  0  0  0  0  0  0
  -26.8130  -15.7230   19.7700 H   0  0  0  0  0  0  0  0  0  0  0  0
  -27.9270  -16.3230   20.7090 C   0  0  0  0  0  1  0  0  0  0  0  0
  -28.2520  -17.7270   20.1990 C   0  0  0  0  0  3  0  0  0  0  0  0
  -25.8040  -18.3660   19.6950 C   0  0  0  0  0  1  0  0  0  0  0  0
  -27.2270  -18.1800   19.1340 C   0  0  0  0  0  2  0  0  0  0  0  0
  -28.5800  -24.3330   20.5880 C   0  0  0  0  0  2  0  0  0  0  0  0
  -28.3690  -25.8910   20.1090 O   0  0  0  0  0  0  0  0  0  0  0  0
  -24.6830  -31.7920   23.0760 C   0  0  0  0  0  0  0  0  0  0  0  0
  -27.2810  -26.8910   20.1900 C   0  0  0  0  0  0  0  0  0  0  0  0
  -23.5050  -30.3630   21.4530 C   0  0  0  0  0  3  0  0  0  0  0  0
  -24.9640  -28.7280   20.0900 C   0  0  0  0  0  0  0  0  0  0  0  0
  -26.0690  -30.5880   21.3170 C   0  0  0  0  0  2  0  0  0  0  0  0
  -26.1460  -29.1640   20.7030 C   0  0  0  0  0  0  0  0  0  0  0  0
  -27.3020  -28.2690   20.7200 C   0  0  0  0  0  3  0  0  0  0  0  0
  -26.0670  -26.5880   19.5370 C   0  0  0  0  0  3  0  0  0  0  0  0
  -24.9450  -27.4560   19.4900 C   0  0  0  0  0  3  0  0  0  0  0  0
  -23.7450  -29.6480   20.0980 C   0  0  0  0  0  2  0  0  0  0  0  0
  -24.7730  -30.9430   22.0010 N   0  0  0  0  0  0  0  0  0  0  0  0
  -23.5880  -32.0850   23.5830 O   0  0  0  0  0  0  0  0  0  0  0  0
  -22.8070  -29.3840   22.4330 C   0  0  0  0  0  0  0  0  0  0  0  0
  -21.4730  -29.2450   22.3270 N   0  0  0  0  0  0  0  0  0  0  0  0
  -23.4710  -28.7470   23.2540 O   0  0  0  0  0  0  0  0  0  0  0  0
  -20.9880  -29.8100   21.6430 H   0  0  0  0  0  0  0  0  0  0  0  0
  -18.0700  -28.1250   22.9070 C   0  0  0  0  0  0  0  0  0  0  0  0
  -20.6420  -28.3220   23.1100 C   0  0  0  0  0  3  0  0  0  0  0  0
  -20.6920  -26.8910   22.5240 C   0  0  0  0  0  2  0  0  0  0  0  0
  -19.5570  -26.6040   21.5350 C   0  0  0  0  0  2  0  0  0  0  0  0
  -18.1960  -26.7780   22.2130 C   0  0  0  0  0  2  0  0  0  0  0  0
  -19.2190  -28.8570   23.3130 C   0  0  0  0  0  0  0  0  0  0  0  0
  -19.0440  -30.1160   23.9250 C   0  0  0  0  0  3  0  0  0  0  0  0
  -17.7550  -30.6440   24.1330 C   0  0  0  0  0  3  0  0  0  0  0  0
  -16.6230  -29.9090   23.7400 C   0  0  0  0  0  3  0  0  0  0  0  0
  -16.7810  -28.6510   23.1340 C   0  0  0  0  0  3  0  0  0  0  0  0
  -25.9460  -32.4480   23.7100 C   0  0  0  0  0  3  0  0  0  0  0  0
  -26.4790  -31.6740   24.9770 C   0  0  1  0  0  0  0  0  0  0  0  0
  -25.3930  -31.4040   26.0470 C   0  0  0  0  0  1  0  0  0  0  0  0
  -27.0850  -30.3100   24.5750 C   0  0  0  0  0  1  0  0  0  0  0  0
  -27.6180  -32.4810   25.6420 C   0  0  0  0  0  1  0  0  0  0  0  0
  -25.6030  -33.8360   24.0700 N   0  0  0  0  0  0  0  0  0  0  0  0
  -25.9210  -34.9180   23.3500 C   0  0  0  0  0  0  0  0  0  0  0  0
  -26.5990  -34.8560   22.3190 O   0  0  0  0  0  0  0  0  0  0  0  0
  -25.0060  -33.9580   24.8750 H   0  0  0  0  0  0  0  0  0  0  0  0
  -24.1770  -36.7080   23.0340 C   0  0  0  0  0  1  0  0  0  0  0  0
  -25.4130  -36.2880   23.8470 C   0  0  0  0  0  3  0  0  0  0  0  0
  -27.5250  -37.1740   24.7330 C   0  0  0  0  0  1  0  0  0  0  0  0
  -26.4330  -37.3580   23.7810 N   0  0  0  0  0  0  0  0  0  0  0  0
  -26.0140  -38.2680   23.9480 H   0  0  0  0  0  0  0  0  0  0  0  0
  1  6  1  0
  1 52  1  0
  1  2  1  0
  2  5  1  0
  2  3  1  0
  4  2  1  0
  6  8  1  0
  8  7  1  0
  9  8  1  0
  9 49  1  0
  9 18  1  0
 10 16  1  0
 10 18  1  0
 11 16  1  0
 12 13  1  0
 12 11  1  0
 14 13  1  0
 14 23  1  0
 14 15  1  0
 16 15  1  0
 17 10  2  0
 18 19  1  0
 20 21  2  0
 21 22  1  0
 21 40  1  0
 22 25  1  0
 23 20  1  0
 23 24  1  0
 24 22  2  0
 25 26  1  0
 26 27  2  0
 28 31  1  0
 28 27  1  0
 29 28  2  0
 30 29  1  0
 30 25  2  0
 31 32  1  0
 32 37  2  0
 32 33  1  0
 33 34  2  0
 35 34  1  0
 35 39  1  0
 36 35  2  0
 37 36  1  0
 38 37  1  0
 40 41  1  0
 41 44  1  0
 41 43  1  0
 42 40  2  0
 45 46  1  0
 45 20  1  0
 47 45  1  0
 49 48  1  0
 51 50  1  0
 51 49  1  0
 53 55  1  0
 53 52  1  0
 54 65  2  0
 55 60  1  0
 56 64  1  0
 56 66  1  0
 57 63  1  0
 57 59  1  0
 58 64  1  0
 59 60  2  0
 59 58  1  0
 61 55  2  0
 62 61  1  0
 62 57  2  0
 63 56  1  0
 64 54  1  0
 66 68  2  0
 67 66  1  0
 69 67  1  0
 70 79  2  0
 70 75  1  0
 71 67  1  0
 71 75  1  0
 72 71  1  0
 73 74  1  0
 73 72  1  0
 74 70  1  0
 75 76  2  0
 76 77  1  0
 78 77  2  0
 79 78  1  0
 80 54  1  0
 80 85  1  0
 80 81  1  0
 81 84  1  1
 81 82  1  0
 83 81  1  0
 85 88  1  0
 86 90  1  0
 86 85  1  0
 87 86  2  0
 90 89  1  0
 92 90  1  0
 92 93  1  0
 92 91  1  0
M  ISO  4  10 100  18 100  52 101  53 101
M  END
>  <TORSDO>  (10) 
F 23

>  <SCORE>  (10) 
-13.976

>  <name>  (10) 
9

>  <ligand_id>  (10) 
9

>  <original_smiles>  (10) 
[H]c1c([H])c([H])c2c(c1[H])C([H])([H])C([H])([H])C([H])([H])C2([H])N([H])C(=O)C1([H])N(C(=O)C([H])(N([H])C(=O)C([H])(N([H])C([H])([H])[H])C([H])([H])[H])C(C([H])([H])[H])(C([H])([H])[H])C([H])([H])[H])C([H])([H])c2c([H])c(OC([H])([H])C([H])(C([H])([H])C([H])(C([H])([H])[H])C([H])(N([H])C(=O)N3C([H])([H])C([H])([H])C([H])([H])C([H])(n4nc(-c5c([H])c([H])c(Oc6c([H])c([H])c(F)c([H])c6F)c([H])c5[H])c(C(=O)N([H])[H])c4N([H])[H])C3([H])[H])C([H])(C([H])([H])[H])C([H])([H])C([H])([H])[H])[N+]([H])([H])[H])c([H])c([H])c2C1([H])[H]

>  <smiles>  (10) 
[H]c1c([H])c([H])c2c(c1[H])C([H])([H])C([H])([H])C([H])([H])C2([H])N([H])C(=O)C1([H])N(C(=O)C([H])(N([H])C(=O)C([H])(N([H])C([H])([H])[H])C([H])([H])[H])C(C([H])([H])[H])(C([H])([H])[H])C([H])([H])[H])C([H])([H])c2c([H])c(OC([H])([H])C([H])(C([H])([H])C([H])(C([H])([H])[H])C([H])(N([H])C(=O)N3C([H])([H])C([H])([H])C([H])([H])C([H])(n4nc(-c5c([H])c([H])c(Oc6c([H])c([H])c(F)c([H])c6F)c([H])c5[H])c(C(=O)N([H])[H])c4N([H])[H])C3([H])[H])C([H])(C([H])([H])[H])C([H])([H])C([H])([H])[H])[N+]([H])([H])[H])c([H])c([H])c2C1([H])[H]

$$$$
10:0:0
     RDKit          3D

 89 96  0  0  1  0  0  0  0  0999 V2000
  -29.1290  -19.8420   20.4030 C   0  0  0  0  0  0  0  0  0  0  0  0
  -29.0930  -21.2510   19.9180 N   0  0  0  0  0  0  0  0  0  0  0  0
  -28.5030  -19.6410   21.4440 O   0  0  0  0  0  0  0  0  0  0  0  0
  -29.5610  -21.3290   19.0230 H   0  0  0  0  0  0  0  0  0  0  0  0
  -28.7070  -22.7760   20.5230 C   0  0  0  0  0  2  0  0  0  0  0  0
  -28.1280  -24.3490   19.8220 C   0  0  0  0  0  2  0  0  0  0  0  0
  -28.1790  -25.9520   20.2640 O   0  0  0  0  0  0  0  0  0  0  0  0
  -24.5810  -31.9000   23.2140 C   0  0  0  0  0  0  0  0  0  0  0  0
  -27.1650  -27.0490   20.1590 C   0  0  0  0  0  0  0  0  0  0  0  0
  -23.3980  -30.5140   21.5590 C   0  0  0  0  0  3  0  0  0  0  0  0
  -24.8590  -28.9280   20.1200 C   0  0  0  0  0  0  0  0  0  0  0  0
  -25.9640  -30.7330   21.4250 C   0  0  0  0  0  2  0  0  0  0  0  0
  -26.0410  -29.3300   20.7540 C   0  0  0  0  0  0  0  0  0  0  0  0
  -27.1840  -28.4090   20.7520 C   0  0  0  0  0  3  0  0  0  0  0  0
  -25.9560  -26.8090   19.4680 C   0  0  0  0  0  3  0  0  0  0  0  0
  -24.8420  -27.6910   19.4570 C   0  0  0  0  0  3  0  0  0  0  0  0
  -23.6350  -29.8450   20.1760 C   0  0  0  0  0  2  0  0  0  0  0  0
  -24.6700  -31.0770   22.1190 N   0  0  0  0  0  0  0  0  0  0  0  0
  -23.4890  -32.1820   23.7340 O   0  0  0  0  0  0  0  0  0  0  0  0
  -22.7050  -29.5080   22.5140 C   0  0  0  0  0  0  0  0  0  0  0  0
  -21.3770  -29.3340   22.3790 N   0  0  0  0  0  0  0  0  0  0  0  0
  -23.3690  -28.8850   23.3450 O   0  0  0  0  0  0  0  0  0  0  0  0
  -20.8940  -29.8880   21.6860 H   0  0  0  0  0  0  0  0  0  0  0  0
  -18.0010  -28.0920   22.8580 C   0  0  0  0  0  0  0  0  0  0  0  0
  -20.5570  -28.3830   23.1390 C   0  0  0  0  0  3  0  0  0  0  0  0
  -20.6770  -26.9560   22.5570 C   0  0  0  0  0  2  0  0  0  0  0  0
  -19.5840  -26.6280   21.5340 C   0  0  0  0  0  2  0  0  0  0  0  0
  -18.1970  -26.7510   22.1700 C   0  0  0  0  0  2  0  0  0  0  0  0
  -19.1090  -28.8650   23.2980 C   0  0  0  0  0  0  0  0  0  0  0  0
  -18.8700  -30.1170   23.9050 C   0  0  0  0  0  3  0  0  0  0  0  0
  -17.5570  -30.5980   24.0720 C   0  0  0  0  0  3  0  0  0  0  0  0
  -16.4650  -29.8230   23.6450 C   0  0  0  0  0  3  0  0  0  0  0  0
  -16.6870  -28.5720   23.0440 C   0  0  0  0  0  3  0  0  0  0  0  0
  -25.8470  -32.5440   23.8570 C   0  0  0  0  0  3  0  0  0  0  0  0
  -26.3230  -31.7990   25.1660 C   0  0  1  0  0  0  0  0  0  0  0  0
  -25.2000  -31.5960   26.2110 C   0  0  0  0  0  1  0  0  0  0  0  0
  -26.9040  -30.4060   24.8310 C   0  0  0  0  0  1  0  0  0  0  0  0
  -27.4630  -32.6000   25.8390 C   0  0  0  0  0  1  0  0  0  0  0  0
  -25.5360  -33.9520   24.1620 N   0  0  0  0  0  0  0  0  0  0  0  0
  -25.8930  -34.9990   23.4060 C   0  0  0  0  0  0  0  0  0  0  0  0
  -26.5810  -34.8810   22.3880 O   0  0  0  0  0  0  0  0  0  0  0  0
  -24.9270  -34.1170   24.9490 H   0  0  0  0  0  0  0  0  0  0  0  0
  -24.1960  -36.8180   23.0100 C   0  0  0  0  0  1  0  0  0  0  0  0
  -25.4160  -36.3990   23.8470 C   0  0  0  0  0  3  0  0  0  0  0  0
  -27.5380  -37.2730   24.7230 C   0  0  0  0  0  1  0  0  0  0  0  0
  -26.4640  -37.4390   23.7480 N   0  0  0  0  0  0  0  0  0  0  0  0
  -26.0650  -38.3660   23.8700 H   0  0  0  0  0  0  0  0  0  0  0  0
  -29.9600  -18.3950   19.8110 C   0  0  0  0  0  3  0  0  0  0  0  0
  -30.4580  -15.4500   19.8890 C   0  0  0  0  0  0  0  0  0  0  0  0
  -30.3550  -13.0210   18.9630 C   0  0  0  0  0  2  0  0  0  0  0  0
  -29.3670  -12.8510   17.7830 C   0  0  0  0  0  2  0  0  0  0  0  0
  -27.9480  -12.5670   18.3020 C   0  0  0  0  0  2  0  0  0  0  0  0
  -27.5690  -13.4960   19.4810 C   0  0  0  0  0  3  0  0  0  0  0  0
  -28.6840  -13.6230   20.5440 C   0  0  0  0  0  2  0  0  0  0  0  0
  -29.8730  -14.1470   19.8540 N   0  0  0  0  0  0  0  0  0  0  0  0
  -31.6460  -15.4180   19.5400 O   0  0  0  0  0  0  0  0  0  0  0  0
  -29.7480  -16.7460   20.1160 N   0  0  0  0  0  0  0  0  0  0  0  0
  -28.8090  -16.5760   20.4450 H   0  0  0  0  0  0  0  0  0  0  0  0
  -25.2450  -14.0250   20.3820 C   0  0  0  0  0  0  0  0  0  0  0  0
  -24.2110  -13.2360   20.7990 C   0  0  0  0  0  0  0  0  0  0  0  0
  -24.6820  -11.8890   20.7170 C   0  0  0  0  0  0  0  0  0  0  0  0
  -26.2770  -13.1600   20.0620 N   0  0  0  0  0  0  0  0  0  0  0  0
  -25.9540  -11.8680   20.3310 N   0  0  0  0  0  0  0  0  0  0  0  0
  -23.9720  -10.6200   20.9250 C   0  0  0  0  0  0  0  0  0  0  0  0
  -24.4370   -9.6530   21.8440 C   0  0  0  0  0  3  0  0  0  0  0  0
  -23.7230   -8.4520   22.0420 C   0  0  0  0  0  3  0  0  0  0  0  0
  -22.5290   -8.2070   21.3230 C   0  0  0  0  0  0  0  0  0  0  0  0
  -22.0830   -9.1630   20.3930 C   0  0  0  0  0  3  0  0  0  0  0  0
  -22.7980  -10.3550   20.1920 C   0  0  0  0  0  3  0  0  0  0  0  0
  -21.7840   -7.0580   21.4320 O   0  0  0  0  0  0  0  0  0  0  0  0
  -21.7550   -6.3270   22.5920 C   0  0  0  0  0  0  0  0  0  0  0  0
  -21.2990   -6.8780   23.8090 C   0  0  0  0  0  3  0  0  0  0  0  0
  -21.2200   -6.0700   24.9620 C   0  0  0  0  0  3  0  0  0  0  0  0
  -21.5870   -4.7130   24.8980 C   0  0  0  0  0  0  0  0  0  0  0  0
  -22.0350   -4.1610   23.6850 C   0  0  0  0  0  3  0  0  0  0  0  0
  -22.1150   -4.9660   22.5350 C   0  0  0  0  0  0  0  0  0  0  0  0
  -22.5280   -4.4230   21.3640 F   0  0  0  0  0  0  0  0  0  0  0  0
  -21.5030   -3.9350   26.0030 F   0  0  0  0  0  0  0  0  0  0  0  0
  -22.8300  -13.7010   21.1530 C   0  0  0  0  0  0  0  0  0  0  0  0
  -22.1510  -12.9850   22.0420 N   0  0  0  0  0  0  0  0  0  0  0  0
  -22.3640  -14.7360   20.6770 O   0  0  0  0  0  0  0  0  0  0  0  0
  -22.5430  -12.1480   22.4470 H   0  0  0  0  0  0  0  0  0  0  0  0
  -21.2260  -13.2780   22.3220 H   0  0  0  0  0  0  0  0  0  0  0  0
  -25.3890  -15.4000   20.2180 N   0  0  0  0  0  0  0  0  0  0  0  0
  -24.6220  -16.0430   20.3800 H   0  0  0  0  0  0  0  0  0  0  0  0
  -26.2010  -15.8480   19.8140 H   0  0  0  0  0  0  0  0  0  0  0  0
  -31.8640  -18.6960   21.5400 C   0  0  0  0  0  1  0  0  0  0  0  0
  -32.0780  -19.8620   19.3010 C   0  0  0  0  0  1  0  0  0  0  0  0
  -31.4850  -18.6510   20.0470 C   0  0  0  0  0  3  0  0  0  0  0  0
  1  3  2  0
  2  1  1  0
  2  5  1  0
  4  2  1  0
  6  7  1  0
  6  5  1  0
  8 19  2  0
  9  7  1  0
  9 14  1  0
 10 18  1  0
 10 20  1  0
 11 17  1  0
 11 13  1  0
 12 18  1  0
 13 12  1  0
 14 13  2  0
 15  9  2  0
 16 15  1  0
 16 11  2  0
 17 10  1  0
 18  8  1  0
 20 22  2  0
 21 20  1  0
 23 21  1  0
 24 33  2  0
 24 29  1  0
 25 21  1  0
 25 29  1  0
 26 25  1  0
 27 28  1  0
 27 26  1  0
 28 24  1  0
 29 30  2  0
 30 31  1  0
 32 31  2  0
 33 32  1  0
 34  8  1  0
 34 39  1  0
 34 35  1  0
 35 38  1  1
 35 36  1  0
 37 35  1  0
 39 42  1  0
 40 44  1  0
 40 39  1  0
 41 40  2  0
 44 43  1  0
 46 44  1  0
 46 47  1  0
 46 45  1  0
 48 89  1  0
 48 57  1  0
 48  1  1  0
 49 57  1  0
 50 55  1  0
 51 52  1  0
 51 50  1  0
 53 52  1  0
 53 62  1  0
 53 54  1  0
 55 49  1  0
 55 54  1  0
 56 49  2  0
 57 58  1  0
 59 60  2  0
 60 79  1  0
 61 60  1  0
 61 64  1  0
 62 63  1  0
 62 59  1  0
 63 61  2  0
 64 65  1  0
 65 66  2  0
 67 70  1  0
 67 66  1  0
 68 67  2  0
 69 68  1  0
 69 64  2  0
 70 71  1  0
 71 72  1  0
 72 73  2  0
 74 73  1  0
 74 78  1  0
 75 74  2  0
 76 71  2  0
 76 75  1  0
 77 76  1  0
 79 80  1  0
 80 83  1  0
 80 82  1  0
 81 79  2  0
 84 85  1  0
 84 59  1  0
 86 84  1  0
 88 89  1  0
 89 87  1  0
M  ISO  4   6 101   7 101  49 100  57 100
M  END
>  <TORSDO>  (11) 
F 20

>  <SCORE>  (11) 
-15.647

>  <name>  (11) 
10

>  <ligand_id>  (11) 
10

>  <original_smiles>  (11) 
[H]c1c([H])c([H])c2c(c1[H])C([H])([H])C([H])([H])C([H])([H])C2([H])N([H])C(=O)C1([H])N(C(=O)C([H])(N([H])C(=O)C([H])(N([H])C([H])([H])[H])C([H])([H])[H])C(C([H])([H])[H])(C([H])([H])[H])C([H])([H])[H])C([H])([H])c2c([H])c(OC([H])([H])C([H])([H])N([H])C(=O)C([H])(N([H])C(=O)N3C([H])([H])C([H])([H])C([H])([H])C([H])(n4nc(-c5c([H])c([H])c(Oc6c([H])c([H])c(F)c([H])c6F)c([H])c5[H])c(C(=O)N([H])[H])c4N([H])[H])C3([H])[H])C([H])(C([H])([H])[H])C([H])([H])[H])c([H])c([H])c2C1([H])[H]

>  <smiles>  (11) 
[H]c1c([H])c([H])c2c(c1[H])C([H])([H])C([H])([H])C([H])([H])C2([H])N([H])C(=O)C1([H])N(C(=O)C([H])(N([H])C(=O)C([H])(N([H])C([H])([H])[H])C([H])([H])[H])C(C([H])([H])[H])(C([H])([H])[H])C([H])([H])[H])C([H])([H])c2c([H])c(OC([H])([H])C([H])([H])N([H])C(=O)C([H])(N([H])C(=O)N3C([H])([H])C([H])([H])C([H])([H])C([H])(n4nc(-c5c([H])c([H])c(Oc6c([H])c([H])c(F)c([H])c6F)c([H])c5[H])c(C(=O)N([H])[H])c4N([H])[H])C3([H])[H])C([H])(C([H])([H])[H])C([H])([H])[H])c([H])c([H])c2C1([H])[H]

$$$$
11:0:0
     RDKit          3D

 96 95  0  0  1  0  0  0  0  0999 V2000
  -26.6500  -25.8160   21.5450 C   0  0  0  0  0  2  0  0  0  0  0  0
  -26.3270  -28.0510   16.8030 C   0  0  0  0  0  3  0  0  0  0  0  0
  -26.4770  -28.6990   18.4560 C   0  0  0  0  0  1  0  0  0  0  0  0
  -26.2740  -26.3060   16.5700 C   0  0  0  0  0  3  0  0  0  0  0  0
  -26.1580  -25.1130   19.3320 C   0  0  0  0  0  2  0  0  0  0  0  0
  -26.3180  -26.5070   20.1610 C   0  0  0  0  0  2  0  0  0  0  0  0
  -26.5950  -25.1200   17.8430 C   0  0  0  0  0  2  0  0  0  0  0  0
  -27.9130  -25.7300   18.7960 O   0  0  0  0  0  0  0  0  0  0  0  0
  -24.6880  -32.0650   23.3480 C   0  0  0  0  0  0  0  0  0  0  0  0
  -28.4830  -27.1760   19.3170 C   0  0  0  0  0  3  0  0  0  0  0  0
  -23.1350  -30.4550   21.8030 C   0  0  0  0  0  2  0  0  0  0  0  0
  -24.7980  -28.2720   19.7350 C   0  0  0  0  0  2  0  0  0  0  0  0
  -26.4380  -30.4390   21.9010 C   0  0  0  0  0  2  0  0  0  0  0  0
  -26.5420  -28.9910   20.6170 C   0  0  0  0  0  3  0  0  0  0  0  0
  -28.0070  -28.4120   20.3110 C   0  0  0  0  0  3  0  0  0  0  0  0
  -27.6140  -26.8780   18.3440 C   0  0  0  0  0  2  0  0  0  0  0  0
  -25.0860  -27.1470   18.5000 C   0  0  0  0  0  1  0  0  0  0  0  0
  -23.0960  -29.0280   20.2900 C   0  0  0  0  0  1  0  0  0  0  0  0
  -24.7650  -31.0750   22.4790 N   0  0  0  0  0  0  0  0  0  0  0  0
  -23.5940  -32.4600   23.7580 O   0  0  0  0  0  0  0  0  0  0  0  0
  -22.4080  -29.7760   22.9090 C   0  0  0  0  0  0  0  0  0  0  0  0
  -21.2520  -29.3030   22.5420 N   0  0  0  0  0  0  0  0  0  0  0  0
  -23.0050  -29.3930   23.9150 O   0  0  0  0  0  0  0  0  0  0  0  0
  -20.8190  -29.6000   21.6780 H   0  0  0  0  0  0  0  0  0  0  0  0
  -18.1000  -27.9610   22.9680 C   0  0  0  0  0  0  0  0  0  0  0  0
  -20.5800  -28.3220   23.3370 C   0  0  0  0  0  3  0  0  0  0  0  0
  -20.8240  -26.9110   22.7690 C   0  0  0  0  0  2  0  0  0  0  0  0
  -19.7820  -26.5160   21.7240 C   0  0  0  0  0  2  0  0  0  0  0  0
  -18.3770  -26.6030   22.3360 C   0  0  0  0  0  2  0  0  0  0  0  0
  -19.1530  -28.7770   23.4260 C   0  0  0  0  0  0  0  0  0  0  0  0
  -18.8920  -30.0620   23.9520 C   0  0  0  0  0  3  0  0  0  0  0  0
  -17.5730  -30.5290   24.0460 C   0  0  0  0  0  3  0  0  0  0  0  0
  -16.5170  -29.7030   23.6260 C   0  0  0  0  0  3  0  0  0  0  0  0
  -16.7770  -28.4250   23.0920 C   0  0  0  0  0  3  0  0  0  0  0  0
  -26.0020  -32.6880   23.8450 C   0  0  0  0  0  3  0  0  0  0  0  0
  -26.5750  -31.9440   25.1130 C   0  0  1  0  0  0  0  0  0  0  0  0
  -25.4910  -31.6510   26.1700 C   0  0  0  0  0  1  0  0  0  0  0  0
  -27.2610  -30.5910   24.8600 C   0  0  0  0  0  1  0  0  0  0  0  0
  -27.6940  -32.8110   25.7220 C   0  0  0  0  0  1  0  0  0  0  0  0
  -25.6870  -34.0860   24.1470 N   0  0  0  0  0  0  0  0  0  0  0  0
  -25.9460  -35.1310   23.3550 C   0  0  0  0  0  0  0  0  0  0  0  0
  -26.5720  -35.0360   22.2970 O   0  0  0  0  0  0  0  0  0  0  0  0
  -25.1260  -34.2500   24.9700 H   0  0  0  0  0  0  0  0  0  0  0  0
  -24.1890  -36.9040   23.0280 C   0  0  0  0  0  1  0  0  0  0  0  0
  -25.4340  -36.5010   23.8330 C   0  0  0  0  0  3  0  0  0  0  0  0
  -27.5580  -37.3800   24.6930 C   0  0  0  0  0  1  0  0  0  0  0  0
  -26.4560  -37.5650   23.7510 N   0  0  0  0  0  0  0  0  0  0  0  0
  -26.0420  -38.4780   23.9230 H   0  0  0  0  0  0  0  0  0  0  0  0
  -26.9980  -23.8380   21.6850 C   0  0  0  0  0 15  0  0  0  0  0  0
  -27.9660  -22.2790   20.9320 C   0  0  0  0  0 15  0  0  0  0  0  0
  -28.1360  -20.3030   21.0260 C   0  0  0  0  0 15  0  0  0  0  0  0
  -29.2130  -18.7750   20.3650 C   0  0  0  0  0  1  0  0  0  0  0  0
  -30.1190  -15.6820   19.9380 C   0  0  0  0  0  0  0  0  0  0  0  0
  -30.3310  -13.1790   18.9450 C   0  0  0  0  0  2  0  0  0  0  0  0
  -29.3750  -12.7600   17.7840 C   0  0  0  0  0  2  0  0  0  0  0  0
  -27.9990  -12.3430   18.3240 C   0  0  0  0  0  2  0  0  0  0  0  0
  -27.5410  -13.3090   19.4380 C   0  0  0  0  0  3  0  0  0  0  0  0
  -28.6170  -13.5710   20.5120 C   0  0  0  0  0  2  0  0  0  0  0  0
  -29.7100  -14.2790   19.8330 N   0  0  0  0  0  0  0  0  0  0  0  0
  -31.3020  -15.7270   19.5300 O   0  0  0  0  0  0  0  0  0  0  0  0
  -29.2750  -16.9630   20.3330 N   0  0  0  0  0  0  0  0  0  0  0  0
  -28.3890  -16.6200   20.6780 H   0  0  0  0  0  0  0  0  0  0  0  0
  -25.2540  -13.8030   20.4020 C   0  0  0  0  0  0  0  0  0  0  0  0
  -24.2360  -13.0040   20.8340 C   0  0  0  0  0  0  0  0  0  0  0  0
  -24.7040  -11.6600   20.7050 C   0  0  0  0  0  0  0  0  0  0  0  0
  -26.2690  -12.9450   20.0280 N   0  0  0  0  0  0  0  0  0  0  0  0
  -25.9610  -11.6460   20.2760 N   0  0  0  0  0  0  0  0  0  0  0  0
  -24.0000  -10.3860   20.9040 C   0  0  0  0  0  0  0  0  0  0  0  0
  -24.4600   -9.4250   21.8310 C   0  0  0  0  0  3  0  0  0  0  0  0
  -23.7520   -8.2190   22.0190 C   0  0  0  0  0  3  0  0  0  0  0  0
  -22.5710   -7.9660   21.2820 C   0  0  0  0  0  0  0  0  0  0  0  0
  -22.1300   -8.9170   20.3450 C   0  0  0  0  0  3  0  0  0  0  0  0
  -22.8380  -10.1150   20.1540 C   0  0  0  0  0  3  0  0  0  0  0  0
  -21.8300   -6.8130   21.3820 O   0  0  0  0  0  0  0  0  0  0  0  0
  -21.7390   -6.1180   22.5610 C   0  0  0  0  0  0  0  0  0  0  0  0
  -21.2460   -6.7140   23.7430 C   0  0  0  0  0  3  0  0  0  0  0  0
  -21.1040   -5.9430   24.9150 C   0  0  0  0  0  3  0  0  0  0  0  0
  -21.4430   -4.5770   24.9050 C   0  0  0  0  0  0  0  0  0  0  0  0
  -21.9290   -3.9800   23.7280 C   0  0  0  0  0  3  0  0  0  0  0  0
  -22.0730   -4.7490   22.5590 C   0  0  0  0  0  0  0  0  0  0  0  0
  -22.5220   -4.1640   21.4220 F   0  0  0  0  0  0  0  0  0  0  0  0
  -21.2990   -3.8340   26.0270 F   0  0  0  0  0  0  0  0  0  0  0  0
  -22.8690  -13.4630   21.2440 C   0  0  0  0  0  0  0  0  0  0  0  0
  -22.2240  -12.7360   22.1470 N   0  0  0  0  0  0  0  0  0  0  0  0
  -22.3880  -14.5040   20.7980 O   0  0  0  0  0  0  0  0  0  0  0  0
  -22.6300  -11.8940   22.5310 H   0  0  0  0  0  0  0  0  0  0  0  0
  -21.3090  -13.0280   22.4630 H   0  0  0  0  0  0  0  0  0  0  0  0
  -25.3980  -15.1810   20.2650 N   0  0  0  0  0  0  0  0  0  0  0  0
  -24.6330  -15.8210   20.4540 H   0  0  0  0  0  0  0  0  0  0  0  0
  -26.1740  -15.6230   19.7910 H   0  0  0  0  0  0  0  0  0  0  0  0
  -25.6200  -26.9280   22.3980 C   0  0  0  0  0  2  0  0  0  0  0  0
  -24.6960  -28.5010   22.0950 C   0  0  0  0  0  1  0  0  0  0  0  0
  -24.7650  -30.3250   20.4290 N   0  0  0  0  0  0  0  0  0  0  0  0
  -24.5920  -31.2310   20.8260 H   0  0  0  0  0  0  0  0  0  0  0  0
  -24.1020  -30.1230   19.6990 H   0  0  0  0  0  0  0  0  0  0  0  0
  -25.6800  -30.3000   20.0090 H   0  0  0  0  0  0  0  0  0  0  0  0
  1 91  1  0
  2  3  1  0
  4  2  2  0
  4  7  1  0
  5  6  1  0
  6  1  1  0
  7  5  1  0
  8 10  1  0
  9 20  2  0
 10 15  1  0
 11 19  1  0
 11 21  1  0
 12 18  1  0
 13 19  1  0
 14 13  1  0
 15 14  2  0
 16  8  1  0
 16 10  1  0
 17 12  1  0
 19  9  1  0
 21 23  2  0
 22 21  1  0
 24 22  1  0
 25 34  2  0
 25 30  1  0
 26 22  1  0
 26 30  1  0
 27 26  1  0
 28 29  1  0
 28 27  1  0
 29 25  1  0
 30 31  2  0
 31 32  1  0
 33 32  2  0
 34 33  1  0
 35  9  1  0
 35 40  1  0
 35 36  1  0
 36 39  1  1
 36 37  1  0
 38 36  1  0
 40 43  1  0
 41 45  1  0
 41 40  1  0
 42 41  2  0
 45 44  1  0
 47 45  1  0
 47 48  1  0
 47 46  1  0
 53 61  1  0
 54 59  1  0
 55 56  1  0
 55 54  1  0
 57 56  1  0
 57 66  1  0
 57 58  1  0
 59 53  1  0
 59 58  1  0
 60 53  2  0
 61 52  1  0
 61 62  1  0
 63 64  2  0
 64 83  1  0
 65 64  1  0
 65 68  1  0
 66 67  1  0
 66 63  1  0
 67 65  2  0
 68 69  1  0
 69 70  2  0
 71 74  1  0
 71 70  1  0
 72 71  2  0
 73 72  1  0
 73 68  2  0
 74 75  1  0
 75 76  1  0
 76 77  2  0
 78 77  1  0
 78 82  1  0
 79 78  2  0
 80 75  2  0
 80 79  1  0
 81 80  1  0
 83 84  1  0
 84 87  1  0
 84 86  1  0
 85 83  2  0
 88 63  1  0
 88 89  1  0
 90 88  1  0
 92 91  1  0
 93 94  1  0
 95 93  1  0
 96 93  1  0
M  ISO  4   7 101   8 101  53 100  61 100
M  END
>  <TORSDO>  (12) 
F 24

>  <SCORE>  (12) 
-16.133

>  <name>  (12) 
11

>  <ligand_id>  (12) 
11

>  <original_smiles>  (12) 
[H]c1c([H])c([H])c2c(c1[H])C([H])([H])C([H])([H])C([H])([H])C2([H])N([H])C(=O)C1([H])N(C(=O)C([H])(N([H])C(=O)C([H])(N([H])C([H])([H])[H])C([H])([H])[H])C(C([H])([H])[H])(C([H])([H])[H])C([H])([H])[H])C([H])([H])c2c([H])c(Oc3c([H])c([H])c([H])c(C([H])(C([H])([H])C([H])([H])C([H])([H])C([H])([H])N([H])C(=O)N4C([H])([H])C([H])([H])C([H])([H])C([H])(n5nc(-c6c([H])c([H])c(Oc7c([H])c([H])c(F)c([H])c7F)c([H])c6[H])c(C(=O)N([H])[H])c5N([H])[H])C4([H])[H])C([H])([H])C([H])([H])[N+]([H])([H])[H])c3[H])c([H])c([H])c2C1([H])[H]

>  <smiles>  (12) 
[H]c1c([H])c([H])c2c(c1[H])C([H])([H])C([H])([H])C([H])([H])C2([H])N([H])C(=O)C1([H])N(C(=O)C([H])(N([H])C(=O)C([H])(N([H])C([H])([H])[H])C([H])([H])[H])C(C([H])([H])[H])(C([H])([H])[H])C([H])([H])[H])C([H])([H])c2c([H])c(Oc3c([H])c([H])c([H])c(C([H])(C([H])([H])C([H])([H])C([H])([H])C([H])([H])N([H])C(=O)N4C([H])([H])C([H])([H])C([H])([H])C([H])(n5nc(-c6c([H])c([H])c(Oc7c([H])c([H])c(F)c([H])c7F)c([H])c6[H])c(C(=O)N([H])[H])c5N([H])[H])C4([H])[H])C([H])([H])C([H])([H])[N+]([H])([H])[H])c3[H])c([H])c([H])c2C1([H])[H]

$$$$
12:0:0
     RDKit          3D

 96104  0  0  1  0  0  0  0  0999 V2000
  -30.3660  -19.4350   23.1290 C   0  0  0  0  0  2  0  0  0  0  0  0
  -29.5910  -20.5230   22.3540 C   0  0  0  0  0  2  0  0  0  0  0  0
  -30.5660  -18.1410   22.3110 C   0  0  0  0  0  2  0  0  0  0  0  0
  -30.3360  -19.4900   20.1910 C   0  0  0  0  0  2  0  0  0  0  0  0
  -30.2510  -20.8210   20.9900 C   0  0  0  0  0  3  0  0  0  0  0  0
  -31.2110  -18.4430   20.9450 C   0  0  0  0  0  3  0  0  0  0  0  0
  -29.5890  -21.9800   20.1840 C   0  0  0  0  0  2  0  0  0  0  0  0
  -29.4520  -23.2470   20.9560 N   0  0  0  0  0  4  0  0  0  0  0  0
  -30.3310  -23.4240   21.4200 H   0  0  0  0  0  0  0  0  0  0  0  0
  -28.7570  -23.1040   21.6740 H   0  0  0  0  0  0  0  0  0  0  0  0
  -29.0970  -24.4590   20.1540 C   0  0  0  0  0  2  0  0  0  0  0  0
  -28.8930  -25.7330   21.0200 C   0  0  0  0  0  2  0  0  0  0  0  0
  -28.8900  -26.9550   20.2620 O   0  0  0  0  0  0  0  0  0  0  0  0
  -24.7530  -31.8890   23.3270 C   0  0  0  0  0  0  0  0  0  0  0  0
  -27.7040  -27.6500   20.2490 C   0  0  0  0  0  0  0  0  0  0  0  0
  -23.6880  -30.5200   21.5620 C   0  0  0  0  0  3  0  0  0  0  0  0
  -25.2690  -29.0810   20.1670 C   0  0  0  0  0  0  0  0  0  0  0  0
  -26.2060  -30.9620   21.5250 C   0  0  0  0  0  2  0  0  0  0  0  0
  -26.3730  -29.6190   20.8400 C   0  0  0  0  0  0  0  0  0  0  0  0
  -27.5960  -28.9120   20.8770 C   0  0  0  0  0  3  0  0  0  0  0  0
  -26.5890  -27.1260   19.5660 C   0  0  0  0  0  3  0  0  0  0  0  0
  -25.3710  -27.8340   19.5260 C   0  0  0  0  0  3  0  0  0  0  0  0
  -23.9970  -29.9030   20.1720 C   0  0  0  0  0  2  0  0  0  0  0  0
  -24.8970  -31.1360   22.1990 N   0  0  0  0  0  0  0  0  0  0  0  0
  -23.6340  -32.1070   23.8140 O   0  0  0  0  0  0  0  0  0  0  0  0
  -23.0140  -29.4430   22.4430 C   0  0  0  0  0  0  0  0  0  0  0  0
  -21.6870  -29.3030   22.3040 N   0  0  0  0  0  0  0  0  0  0  0  0
  -23.6830  -28.7390   23.2050 O   0  0  0  0  0  0  0  0  0  0  0  0
  -21.2080  -29.9240   21.6650 H   0  0  0  0  0  0  0  0  0  0  0  0
  -18.2770  -28.1920   22.7540 C   0  0  0  0  0  0  0  0  0  0  0  0
  -20.8470  -28.3280   23.0010 C   0  0  0  0  0  3  0  0  0  0  0  0
  -20.8860  -26.9540   22.2910 C   0  0  0  0  0  2  0  0  0  0  0  0
  -19.7560  -26.7700   21.2730 C   0  0  0  0  0  2  0  0  0  0  0  0
  -18.3910  -26.9050   21.9540 C   0  0  0  0  0  2  0  0  0  0  0  0
  -19.4310  -28.8670   23.2310 C   0  0  0  0  0  0  0  0  0  0  0  0
  -19.2730  -30.0770   23.9420 C   0  0  0  0  0  3  0  0  0  0  0  0
  -17.9910  -30.6090   24.1790 C   0  0  0  0  0  3  0  0  0  0  0  0
  -16.8510  -29.9270   23.7200 C   0  0  0  0  0  3  0  0  0  0  0  0
  -16.9950  -28.7200   23.0120 C   0  0  0  0  0  3  0  0  0  0  0  0
  -25.9820  -32.5280   24.0450 C   0  0  0  0  0  3  0  0  0  0  0  0
  -25.6390  -33.9230   24.3520 N   0  0  0  0  0  0  0  0  0  0  0  0
  -26.0210  -34.9770   23.6190 C   0  0  0  0  0  0  0  0  0  0  0  0
  -26.7680  -34.8790   22.6410 O   0  0  0  0  0  0  0  0  0  0  0  0
  -24.9830  -34.0730   25.1050 H   0  0  0  0  0  0  0  0  0  0  0  0
  -24.3070  -36.7520   23.1320 C   0  0  0  0  0  1  0  0  0  0  0  0
  -25.4870  -36.3610   24.0360 C   0  0  0  0  0  3  0  0  0  0  0  0
  -27.5360  -37.2750   25.0330 C   0  0  0  0  0  1  0  0  0  0  0  0
  -26.5160  -37.4230   23.9990 N   0  0  0  0  0  0  0  0  0  0  0  0
  -26.0900  -38.3410   24.1040 H   0  0  0  0  0  0  0  0  0  0  0  0
  -26.4070  -31.7580   25.3550 C   0  0  1  0  0  0  0  0  0  0  0  0
  -25.2410  -31.5160   26.3420 C   0  0  0  0  0  1  0  0  0  0  0  0
  -27.0220  -30.3830   25.0040 C   0  0  0  0  0  1  0  0  0  0  0  0
  -27.5050  -32.5540   26.1000 C   0  0  0  0  0  1  0  0  0  0  0  0
  -31.7280  -17.1860   20.1550 C   0  0  0  0  0  3  0  0  0  0  0  0
  -31.7300  -14.6920   20.3790 C   0  0  0  0  0  0  0  0  0  0  0  0
  -31.2670  -12.5910   19.2050 C   0  0  0  0  0  2  0  0  0  0  0  0
  -30.3680  -12.8840   17.9860 C   0  0  0  0  0  2  0  0  0  0  0  0
  -28.8830  -12.8370   18.3910 C   0  0  0  0  0  2  0  0  0  0  0  0
  -28.5750  -13.6650   19.6680 C   0  0  0  0  0  3  0  0  0  0  0  0
  -29.6020  -13.3900   20.7900 C   0  0  0  0  0  2  0  0  0  0  0  0
  -30.9430  -13.5940   20.2310 N   0  0  0  0  0  0  0  0  0  0  0  0
  -32.9320  -14.6660   20.1240 O   0  0  0  0  0  0  0  0  0  0  0  0
  -31.0950  -15.8810   20.4990 N   0  0  0  0  0  0  0  0  0  0  0  0
  -30.0990  -15.8670   20.6530 H   0  0  0  0  0  0  0  0  0  0  0  0
  -26.1940  -14.3780   20.3250 C   0  0  0  0  0  0  0  0  0  0  0  0
  -25.0830  -13.6560   20.6700 C   0  0  0  0  0  0  0  0  0  0  0  0
  -25.4830  -12.2850   20.6550 C   0  0  0  0  0  0  0  0  0  0  0  0
  -27.2030  -13.4500   20.1220 N   0  0  0  0  0  0  0  0  0  0  0  0
  -26.7790  -12.1860   20.3820 N   0  0  0  0  0  0  0  0  0  0  0  0
  -24.6950  -11.0580   20.8280 C   0  0  0  0  0  0  0  0  0  0  0  0
  -25.0290  -10.0980   21.8090 C   0  0  0  0  0  3  0  0  0  0  0  0
  -24.2440   -8.9360   21.9690 C   0  0  0  0  0  3  0  0  0  0  0  0
  -23.1120   -8.7240   21.1460 C   0  0  0  0  0  0  0  0  0  0  0  0
  -22.7990   -9.6710   20.1560 C   0  0  0  0  0  3  0  0  0  0  0  0
  -23.5830  -10.8250   19.9940 C   0  0  0  0  0  3  0  0  0  0  0  0
  -22.3070   -7.6120   21.2140 O   0  0  0  0  0  0  0  0  0  0  0  0
  -22.0470   -6.9820   22.4030 C   0  0  0  0  0  0  0  0  0  0  0  0
  -21.4530   -7.6590   23.4910 C   0  0  0  0  0  3  0  0  0  0  0  0
  -21.1400   -6.9560   24.6710 C   0  0  0  0  0  3  0  0  0  0  0  0
  -21.4110   -5.5770   24.7640 C   0  0  0  0  0  0  0  0  0  0  0  0
  -21.9970   -4.9010   23.6810 C   0  0  0  0  0  3  0  0  0  0  0  0
  -22.3110   -5.6010   22.5020 C   0  0  0  0  0  0  0  0  0  0  0  0
  -22.8570   -4.9400   21.4530 F   0  0  0  0  0  0  0  0  0  0  0  0
  -21.1030   -4.9000   25.8950 F   0  0  0  0  0  0  0  0  0  0  0  0
  -23.7030  -14.1980   20.9010 C   0  0  0  0  0  0  0  0  0  0  0  0
  -22.9410  -13.5740   21.7920 N   0  0  0  0  0  0  0  0  0  0  0  0
  -23.3080  -15.2100   20.3240 O   0  0  0  0  0  0  0  0  0  0  0  0
  -23.2740  -12.7560   22.2820 H   0  0  0  0  0  0  0  0  0  0  0  0
  -22.0130  -13.9190   21.9900 H   0  0  0  0  0  0  0  0  0  0  0  0
  -26.4260  -15.7390   20.1450 N   0  0  0  0  0  0  0  0  0  0  0  0
  -25.6860  -16.4260   20.2320 H   0  0  0  0  0  0  0  0  0  0  0  0
  -27.2960  -16.1350   19.8130 H   0  0  0  0  0  0  0  0  0  0  0  0
  -31.8060  -17.4220   18.6180 C   0  0  0  0  0  2  0  0  0  0  0  0
  -32.8100  -17.0060   16.3350 C   0  0  0  0  0  1  0  0  0  0  0  0
  -34.3480  -17.2990   18.3080 C   0  0  0  0  0  1  0  0  0  0  0  0
  -32.9770  -16.7730   17.8440 C   0  0  0  0  0  3  0  0  0  0  0  0
  2  1  1  0
  3  1  1  0
  4  6  1  0
  4  5  1  0
  5  7  1  0
  5  2  1  0
  6 54  1  0
  6  3  1  0
  7  8  1  0
  8  9  1  0
  8 10  1  0
 11  8  1  0
 11 12  1  0
 13 12  1  0
 14 25  2  0
 15 13  1  0
 15 20  1  0
 16 24  1  0
 16 26  1  0
 17 23  1  0
 17 19  1  0
 18 24  1  0
 19 20  2  0
 19 18  1  0
 21 15  2  0
 22 21  1  0
 22 17  2  0
 23 16  1  0
 24 14  1  0
 26 28  2  0
 27 26  1  0
 29 27  1  0
 30 39  2  0
 30 35  1  0
 31 27  1  0
 31 35  1  0
 32 31  1  0
 33 34  1  0
 33 32  1  0
 34 30  1  0
 35 36  2  0
 36 37  1  0
 38 37  2  0
 39 38  1  0
 40 14  1  0
 40 41  1  0
 40 50  1  0
 41 44  1  0
 42 46  1  0
 42 41  1  0
 43 42  2  0
 46 45  1  0
 48 46  1  0
 48 49  1  0
 48 47  1  0
 50 53  1  1
 50 51  1  0
 52 50  1  0
 54 93  1  0
 54 63  1  0
 55 63  1  0
 56 61  1  0
 57 58  1  0
 57 56  1  0
 59 58  1  0
 59 68  1  0
 59 60  1  0
 61 55  1  0
 61 60  1  0
 62 55  2  0
 63 64  1  0
 65 66  2  0
 66 85  1  0
 67 66  1  0
 67 70  1  0
 68 65  1  0
 68 69  1  0
 69 67  2  0
 70 71  1  0
 71 72  2  0
 73 76  1  0
 73 72  1  0
 74 73  2  0
 75 74  1  0
 75 70  2  0
 76 77  1  0
 77 82  2  0
 77 78  1  0
 78 79  2  0
 79 80  1  0
 80 84  1  0
 81 80  2  0
 82 81  1  0
 83 82  1  0
 85 86  1  0
 86 89  1  0
 86 88  1  0
 87 85  2  0
 90 91  1  0
 90 65  1  0
 92 90  1  0
 94 96  1  0
 96 95  1  0
 96 93  1  0
M  ISO  4  12 101  13 101  55 100  63 100
M  END
>  <TORSDO>  (13) 
F 23

>  <SCORE>  (13) 
-10.638

>  <name>  (13) 
12

>  <ligand_id>  (13) 
12

>  <original_smiles>  (13) 
[H]c1c([H])c([H])c2c(c1[H])C([H])([H])C([H])([H])C([H])([H])C2([H])N([H])C(=O)C1([H])N(C(=O)C([H])(N([H])C(=O)C([H])(N([H])C([H])([H])[H])C([H])([H])[H])C(C([H])([H])[H])(C([H])([H])[H])C([H])([H])[H])C([H])([H])c2c([H])c(OC([H])([H])C([H])([H])[N+]([H])([H])C([H])([H])C3([H])C([H])([H])C([H])([H])C([H])([H])C([H])(C([H])(N([H])C(=O)N4C([H])([H])C([H])([H])C([H])([H])C([H])(n5nc(-c6c([H])c([H])c(Oc7c([H])c([H])c(F)c([H])c7F)c([H])c6[H])c(C(=O)N([H])[H])c5N([H])[H])C4([H])[H])C([H])([H])C([H])(C([H])([H])[H])C([H])([H])[H])C3([H])[H])c([H])c([H])c2C1([H])[H]

>  <smiles>  (13) 
[H]c1c([H])c([H])c2c(c1[H])C([H])([H])C([H])([H])C([H])([H])C2([H])N([H])C(=O)C1([H])N(C(=O)C([H])(N([H])C(=O)C([H])(N([H])C([H])([H])[H])C([H])([H])[H])C(C([H])([H])[H])(C([H])([H])[H])C([H])([H])[H])C([H])([H])c2c([H])c(OC([H])([H])C([H])([H])[N+]([H])([H])C([H])([H])C3([H])C([H])([H])C([H])([H])C([H])([H])C([H])(C([H])(N([H])C(=O)N4C([H])([H])C([H])([H])C([H])([H])C([H])(n5nc(-c6c([H])c([H])c(Oc7c([H])c([H])c(F)c([H])c7F)c([H])c6[H])c(C(=O)N([H])[H])c5N([H])[H])C4([H])[H])C([H])([H])C([H])(C([H])([H])[H])C([H])([H])[H])C3([H])[H])c([H])c([H])c2C1([H])[H]

$$$$
13:0:0
     RDKit          3D

 91 98  0  0  1  0  0  0  0  0999 V2000
  -29.7200  -19.9090   20.7980 C   0  0  0  0  0  3  0  0  0  0  0  0
  -29.1060  -21.2480   20.1600 C   0  0  0  0  0  3  0  0  0  0  0  0
  -29.2240  -22.6290   20.9660 C   0  0  0  0  0  3  0  0  0  0  0  0
  -28.7860  -24.0010   20.2590 C   0  0  0  0  0  3  0  0  0  0  0  0
  -28.6500  -25.3020   21.1720 C   0  0  0  0  0  3  0  0  0  0  0  0
  -28.6590  -26.6420   20.5550 O   0  0  0  0  0  0  0  0  0  0  0  0
  -24.6570  -31.9380   23.3740 C   0  0  0  0  0  0  0  0  0  0  0  0
  -27.4910  -27.4080   20.5320 C   0  0  0  0  0  0  0  0  0  0  0  0
  -23.5440  -30.4920   21.7070 C   0  0  0  0  0  3  0  0  0  0  0  0
  -25.0830  -28.9310   20.3880 C   0  0  0  0  0  0  0  0  0  0  0  0
  -26.0750  -30.8710   21.6110 C   0  0  0  0  0  2  0  0  0  0  0  0
  -26.2130  -29.4780   21.0070 C   0  0  0  0  0  0  0  0  0  0  0  0
  -27.4220  -28.7290   21.0640 C   0  0  0  0  0  3  0  0  0  0  0  0
  -26.3380  -26.8900   19.9130 C   0  0  0  0  0  3  0  0  0  0  0  0
  -25.1420  -27.6370   19.8380 C   0  0  0  0  0  3  0  0  0  0  0  0
  -23.8280  -29.7820   20.3560 C   0  0  0  0  0  2  0  0  0  0  0  0
  -24.7750  -31.1190   22.2890 N   0  0  0  0  0  0  0  0  0  0  0  0
  -23.5510  -32.2040   23.8640 O   0  0  0  0  0  0  0  0  0  0  0  0
  -22.8590  -29.4840   22.6610 C   0  0  0  0  0  0  0  0  0  0  0  0
  -21.5480  -29.2580   22.4650 N   0  0  0  0  0  0  0  0  0  0  0  0
  -23.5110  -28.9050   23.5350 O   0  0  0  0  0  0  0  0  0  0  0  0
  -21.0800  -29.7770   21.7350 H   0  0  0  0  0  0  0  0  0  0  0  0
  -18.2010  -27.9360   22.7960 C   0  0  0  0  0  0  0  0  0  0  0  0
  -20.7220  -28.3160   23.2190 C   0  0  0  0  0  3  0  0  0  0  0  0
  -20.9210  -26.8690   22.7130 C   0  0  0  0  0  2  0  0  0  0  0  0
  -19.9030  -26.4610   21.6430 C   0  0  0  0  0  2  0  0  0  0  0  0
  -18.4770  -26.5720   22.1870 C   0  0  0  0  0  2  0  0  0  0  0  0
  -19.2560  -28.7610   23.2680 C   0  0  0  0  0  0  0  0  0  0  0  0
  -18.9470  -30.0340   23.7940 C   0  0  0  0  0  3  0  0  0  0  0  0
  -17.6150  -30.4850   23.8560 C   0  0  0  0  0  3  0  0  0  0  0  0
  -16.5720  -29.6580   23.4020 C   0  0  0  0  0  3  0  0  0  0  0  0
  -16.8660  -28.3860   22.8790 C   0  0  0  0  0  3  0  0  0  0  0  0
  -25.9070  -32.6020   24.0370 C   0  0  0  0  0  3  0  0  0  0  0  0
  -25.5760  -34.0080   24.3020 N   0  0  0  0  0  0  0  0  0  0  0  0
  -25.9270  -35.0350   23.5150 C   0  0  0  0  0  0  0  0  0  0  0  0
  -26.6350  -34.8980   22.5140 O   0  0  0  0  0  0  0  0  0  0  0  0
  -24.9480  -34.1880   25.0730 H   0  0  0  0  0  0  0  0  0  0  0  0
  -24.1960  -36.7990   23.0400 C   0  0  0  0  0  1  0  0  0  0  0  0
  -25.4160  -36.4360   23.9010 C   0  0  0  0  0  3  0  0  0  0  0  0
  -27.5170  -37.3740   24.7600 C   0  0  0  0  0  1  0  0  0  0  0  0
  -26.4430  -37.4930   23.7760 N   0  0  0  0  0  0  0  0  0  0  0  0
  -26.0250  -38.4140   23.8740 H   0  0  0  0  0  0  0  0  0  0  0  0
  -26.3690  -31.8790   25.3630 C   0  0  1  0  0  0  0  0  0  0  0  0
  -25.2260  -31.6560   26.3810 C   0  0  0  0  0  1  0  0  0  0  0  0
  -26.9940  -30.5000   25.0500 C   0  0  0  0  0  1  0  0  0  0  0  0
  -27.4750  -32.7120   26.0550 C   0  0  0  0  0  1  0  0  0  0  0  0
  -29.6490  -18.5140   19.9920 C   0  0  0  0  0  3  0  0  0  0  0  0
  -30.6230  -17.2960   20.4080 C   0  0  0  0  0  3  0  0  0  0  0  0
  -30.9390  -14.7730   19.8390 C   0  0  0  0  0  0  0  0  0  0  0  0
  -30.6440  -12.4870   18.8930 C   0  0  0  0  0  2  0  0  0  0  0  0
  -29.6410  -12.5490   17.7220 C   0  0  0  0  0  2  0  0  0  0  0  0
  -28.1910  -12.4330   18.2340 C   0  0  0  0  0  2  0  0  0  0  0  0
  -27.9010  -13.3680   19.4380 C   0  0  0  0  0  3  0  0  0  0  0  0
  -29.0130  -13.2710   20.5030 C   0  0  0  0  0  2  0  0  0  0  0  0
  -30.2840  -13.5680   19.8310 N   0  0  0  0  0  0  0  0  0  0  0  0
  -32.1160  -14.8600   19.4860 O   0  0  0  0  0  0  0  0  0  0  0  0
  -30.1790  -15.8990   20.0420 N   0  0  0  0  0  0  0  0  0  0  0  0
  -29.2060  -15.7200   20.2380 H   0  0  0  0  0  0  0  0  0  0  0  0
  -25.5900  -14.0460   20.3250 C   0  0  0  0  0  0  0  0  0  0  0  0
  -24.5160  -13.3090   20.7460 C   0  0  0  0  0  0  0  0  0  0  0  0
  -24.9180  -11.9410   20.6570 C   0  0  0  0  0  0  0  0  0  0  0  0
  -26.5770  -13.1290   20.0050 N   0  0  0  0  0  0  0  0  0  0  0  0
  -26.1830  -11.8560   20.2670 N   0  0  0  0  0  0  0  0  0  0  0  0
  -24.1530  -10.7040   20.8630 C   0  0  0  0  0  0  0  0  0  0  0  0
  -24.5640   -9.7270   21.7960 C   0  0  0  0  0  3  0  0  0  0  0  0
  -23.7990   -8.5570   21.9890 C   0  0  0  0  0  3  0  0  0  0  0  0
  -22.6090   -8.3560   21.2500 C   0  0  0  0  0  0  0  0  0  0  0  0
  -22.2180   -9.3210   20.3060 C   0  0  0  0  0  3  0  0  0  0  0  0
  -22.9830  -10.4830   20.1110 C   0  0  0  0  0  3  0  0  0  0  0  0
  -21.8170   -7.2390   21.3530 O   0  0  0  0  0  0  0  0  0  0  0  0
  -21.6980   -6.5470   22.5320 C   0  0  0  0  0  0  0  0  0  0  0  0
  -21.2370   -7.1640   23.7160 C   0  0  0  0  0  3  0  0  0  0  0  0
  -21.0640   -6.3990   24.8870 C   0  0  0  0  0  3  0  0  0  0  0  0
  -21.3430   -5.0190   24.8750 C   0  0  0  0  0  0  0  0  0  0  0  0
  -21.7980   -4.4030   23.6950 C   0  0  0  0  0  3  0  0  0  0  0  0
  -21.9730   -5.1640   22.5270 C   0  0  0  0  0  0  0  0  0  0  0  0
  -22.3900   -4.5610   21.3880 F   0  0  0  0  0  0  0  0  0  0  0  0
  -21.1710   -4.2820   25.9980 F   0  0  0  0  0  0  0  0  0  0  0  0
  -23.1600  -13.8370   21.1160 C   0  0  0  0  0  0  0  0  0  0  0  0
  -22.4630  -13.1540   22.0160 N   0  0  0  0  0  0  0  0  0  0  0  0
  -22.7320  -14.8860   20.6380 O   0  0  0  0  0  0  0  0  0  0  0  0
  -22.8250  -12.3020   22.4200 H   0  0  0  0  0  0  0  0  0  0  0  0
  -21.5570  -13.4900   22.3100 H   0  0  0  0  0  0  0  0  0  0  0  0
  -25.8000  -15.4130   20.1680 N   0  0  0  0  0  0  0  0  0  0  0  0
  -25.0700  -16.0930   20.3440 H   0  0  0  0  0  0  0  0  0  0  0  0
  -26.6480  -15.8310   19.8050 H   0  0  0  0  0  0  0  0  0  0  0  0
  -30.6940  -17.2550   21.9380 C   0  0  0  0  0  0  0  0  0  0  0  0
  -31.7880  -17.7230   22.5130 N   0  0  0  0  0  0  0  0  0  0  0  0
  -29.7610  -16.8000   22.6010 O   0  0  0  0  0  0  0  0  0  0  0  0
  -32.5480  -18.0740   21.9480 H   0  0  0  0  0  0  0  0  0  0  0  0
  -31.8740  -17.7370   23.5200 H   0  0  0  0  0  0  0  0  0  0  0  0
  2  1  1  0
  2  3  2  0
  4  3  1  0
  4  5  2  0
  6  5  1  0
  7 18  2  0
  8  6  1  0
  8 13  1  0
  9 17  1  0
  9 19  1  0
 10 12  1  0
 11 17  1  0
 12 13  2  0
 12 11  1  0
 14  8  2  0
 15 14  1  0
 15 10  2  0
 16 10  1  0
 16  9  1  0
 17  7  1  0
 19 21  2  0
 20 19  1  0
 22 20  1  0
 23 32  2  0
 23 28  1  0
 24 20  1  0
 24 28  1  0
 25 24  1  0
 26 27  1  0
 26 25  1  0
 27 23  1  0
 28 29  2  0
 29 30  1  0
 31 30  2  0
 32 31  1  0
 33  7  1  0
 33 34  1  0
 33 43  1  0
 34 37  1  0
 35 39  1  0
 35 34  1  0
 36 35  2  0
 39 38  1  0
 41 42  1  0
 41 39  1  0
 41 40  1  0
 43 46  1  1
 43 44  1  0
 45 43  1  0
 47  1  2  0
 48 47  1  0
 48 87  1  0
 49 57  1  0
 50 55  1  0
 51 52  1  0
 51 50  1  0
 53 52  1  0
 53 62  1  0
 53 54  1  0
 55 49  1  0
 55 54  1  0
 56 49  2  0
 57 58  1  0
 57 48  1  0
 59 60  2  0
 60 79  1  0
 61 60  1  0
 61 64  1  0
 62 63  1  0
 62 59  1  0
 63 61  2  0
 64 65  1  0
 65 66  2  0
 67 70  1  0
 67 66  1  0
 68 67  2  0
 69 68  1  0
 69 64  2  0
 70 71  1  0
 71 72  1  0
 72 73  2  0
 74 73  1  0
 74 78  1  0
 75 74  2  0
 76 71  2  0
 76 75  1  0
 77 76  1  0
 79 80  1  0
 80 83  1  0
 80 82  1  0
 81 79  2  0
 84 59  1  0
 84 85  1  0
 86 84  1  0
 87 88  1  0
 87 89  2  0
 88 91  1  0
 90 88  1  0
M  ISO  4   5 101   6 101  49 100  57 100
M  END
>  <TORSDO>  (14) 
F 23

>  <SCORE>  (14) 
-11.673

>  <name>  (14) 
13

>  <ligand_id>  (14) 
13

>  <original_smiles>  (14) 
[H]c1c([H])c([H])c2c(c1[H])C([H])([H])C([H])([H])C([H])([H])C2([H])N([H])C(=O)C1([H])N(C(=O)C([H])(N([H])C(=O)C([H])(N([H])C([H])([H])[H])C([H])([H])[H])C(C([H])([H])[H])(C([H])([H])[H])C([H])([H])[H])C([H])([H])c2c([H])c(OC([H])([H])C([H])([H])C([H])([H])C([H])([H])C([H])([H])C([H])([H])C([H])(C(=O)N([H])[H])N([H])C(=O)N3C([H])([H])C([H])([H])C([H])([H])C([H])(n4nc(-c5c([H])c([H])c(Oc6c([H])c([H])c(F)c([H])c6F)c([H])c5[H])c(C(=O)N([H])[H])c4N([H])[H])C3([H])[H])c([H])c([H])c2C1([H])[H]

>  <smiles>  (14) 
[H]c1c([H])c([H])c2c(c1[H])C([H])([H])C([H])([H])C([H])([H])C2([H])N([H])C(=O)C1([H])N(C(=O)C([H])(N([H])C(=O)C([H])(N([H])C([H])([H])[H])C([H])([H])[H])C(C([H])([H])[H])(C([H])([H])[H])C([H])([H])[H])C([H])([H])c2c([H])c(OC([H])([H])C([H])([H])C([H])([H])C([H])([H])C([H])([H])C([H])([H])C([H])(C(=O)N([H])[H])N([H])C(=O)N3C([H])([H])C([H])([H])C([H])([H])C([H])(n4nc(-c5c([H])c([H])c(Oc6c([H])c([H])c(F)c([H])c6F)c([H])c5[H])c(C(=O)N([H])[H])c4N([H])[H])C3([H])[H])c([H])c([H])c2C1([H])[H]

$$$$
14:0:0
     RDKit          3D

101108  0  0  1  0  0  0  0  0999 V2000
  -29.8670  -27.2080   14.2170 C   0  0  0  0  0  3  0  0  0  0  0  0
  -28.4410  -28.4260   12.4130 C   0  0  0  0  0  1  0  0  0  0  0  0
  -30.0950  -26.7170   11.6880 C   0  0  0  0  0  1  0  0  0  0  0  0
  -27.9850  -26.0520   12.8770 C   0  0  0  0  0  1  0  0  0  0  0  0
  -29.1150  -27.0920   12.8280 C   0  0  1  0  0  0  0  0  0  0  0  0
  -32.0830  -28.4580   14.6080 C   0  0  0  0  0  0  0  0  0  0  0  0
  -31.2860  -27.5800   13.9410 N   0  0  0  0  0  0  0  0  0  0  0  0
  -31.7920  -28.8980   15.7240 O   0  0  0  0  0  0  0  0  0  0  0  0
  -31.6500  -27.2550   13.0560 H   0  0  0  0  0  0  0  0  0  0  0  0
  -33.3960  -28.9240   13.9120 C   0  0  0  0  0  2  0  0  0  0  0  0
  -33.1960  -29.9030   12.8440 O   0  0  0  0  0  0  0  0  0  0  0  0
  -29.1960  -28.1440    7.1850 C   0  0  0  0  0  0  0  0  0  0  0  0
  -33.2000  -29.5470   11.4970 C   0  0  0  0  0  0  0  0  0  0  0  0
  -31.6190  -27.7230    6.9660 C   0  0  0  0  0  3  0  0  0  0  0  0
  -33.0970  -28.7850    8.7520 C   0  0  0  0  0  0  0  0  0  0  0  0
  -30.7550  -29.6040    8.4790 C   0  0  0  0  0  2  0  0  0  0  0  0
  -31.9890  -29.4020    9.3420 C   0  0  0  0  0  0  0  0  0  0  0  0
  -32.0440  -29.7970   10.7040 C   0  0  0  0  0  3  0  0  0  0  0  0
  -34.3020  -28.9220   10.8600 C   0  0  0  0  0  3  0  0  0  0  0  0
  -34.2550  -28.5500    9.5050 C   0  0  0  0  0  3  0  0  0  0  0  0
  -32.9770  -28.3910    7.2960 C   0  0  0  0  0  2  0  0  0  0  0  0
  -30.4640  -28.4740    7.5590 N   0  0  0  0  0  0  0  0  0  0  0  0
  -28.9830  -27.2610    6.3420 O   0  0  0  0  0  0  0  0  0  0  0  0
  -31.6680  -26.2370    7.3970 C   0  0  0  0  0  0  0  0  0  0  0  0
  -31.8320  -25.3360    6.4160 N   0  0  0  0  0  0  0  0  0  0  0  0
  -31.5840  -25.9240    8.5870 O   0  0  0  0  0  0  0  0  0  0  0  0
  -31.8820  -25.6750    5.4650 H   0  0  0  0  0  0  0  0  0  0  0  0
  -31.2360  -22.1420    4.8190 C   0  0  0  0  0  0  0  0  0  0  0  0
  -31.9390  -23.8860    6.5950 C   0  0  0  0  0  3  0  0  0  0  0  0
  -33.3850  -23.3970    6.3500 C   0  0  0  0  0  2  0  0  0  0  0  0
  -33.6350  -22.9450    4.9080 C   0  0  0  0  0  2  0  0  0  0  0  0
  -32.6890  -21.8000    4.5340 C   0  0  0  0  0  2  0  0  0  0  0  0
  -30.8850  -23.1300    5.7780 C   0  0  0  0  0  0  0  0  0  0  0  0
  -29.5210  -23.4320    5.9820 C   0  0  0  0  0  3  0  0  0  0  0  0
  -28.5190  -22.7720    5.2450 C   0  0  0  0  0  3  0  0  0  0  0  0
  -28.8710  -21.7850    4.3080 C   0  0  0  0  0  3  0  0  0  0  0  0
  -30.2250  -21.4660    4.1040 C   0  0  0  0  0  3  0  0  0  0  0  0
  -27.9530  -28.8780    7.7770 C   0  0  0  0  0  3  0  0  0  0  0  0
  -26.9770  -27.9180    8.5600 C   0  0  1  0  0  0  0  0  0  0  0  0
  -25.7750  -27.4300    7.7180 C   0  0  0  0  0  1  0  0  0  0  0  0
  -27.7310  -26.6660    9.0660 C   0  0  0  0  0  1  0  0  0  0  0  0
  -26.4260  -28.6380    9.8140 C   0  0  0  0  0  1  0  0  0  0  0  0
  -27.2510  -29.5330    6.6640 N   0  0  0  0  0  0  0  0  0  0  0  0
  -27.6820  -30.6370    6.0400 C   0  0  0  0  0  0  0  0  0  0  0  0
  -28.6850  -31.2600    6.3990 O   0  0  0  0  0  0  0  0  0  0  0  0
  -26.4530  -29.0460    6.2810 H   0  0  0  0  0  0  0  0  0  0  0  0
  -25.5430  -31.7400    5.3130 C   0  0  0  0  0  1  0  0  0  0  0  0
  -26.8670  -31.1290    4.8270 C   0  0  0  0  0  3  0  0  0  0  0  0
  -27.8020  -29.5600    3.1850 C   0  0  0  0  0  1  0  0  0  0  0  0
  -26.5950  -30.0680    3.8320 N   0  0  0  0  0  0  0  0  0  0  0  0
  -25.9680  -30.4080    3.1080 H   0  0  0  0  0  0  0  0  0  0  0  0
  -29.7490  -25.9030   15.1380 C   0  0  0  0  0  2  0  0  0  0  0  0
  -29.1120  -26.0100   16.5930 C   0  0  0  0  0  2  0  0  0  0  0  0
  -28.0720  -27.1770   16.9090 C   0  0  0  0  0  3  0  0  0  0  0  0
  -28.5390  -28.4420   16.3060 N   0  0  0  0  0  4  0  0  0  0  0  0
  -29.3720  -28.7830   16.7540 H   0  0  0  0  0  0  0  0  0  0  0  0
  -27.8240  -29.1580   16.3890 H   0  0  0  0  0  0  0  0  0  0  0  0
  -28.7160  -28.3280   15.3250 H   0  0  0  0  0  0  0  0  0  0  0  0
  -27.7030  -27.4760   18.4360 C   0  0  0  0  0  3  0  0  0  0  0  0
  -25.2810  -26.4750   18.1870 C   0  0  0  0  0  0  0  0  0  0  0  0
  -24.0830  -24.4060   18.8270 C   0  0  0  0  0  2  0  0  0  0  0  0
  -24.1440  -24.2140   20.3580 C   0  0  0  0  0  2  0  0  0  0  0  0
  -25.4310  -23.4630   20.7520 C   0  0  0  0  0  2  0  0  0  0  0  0
  -26.6990  -24.0490   20.0710 C   0  0  0  0  0  3  0  0  0  0  0  0
  -26.4740  -24.2540   18.5590 C   0  0  0  0  0  2  0  0  0  0  0  0
  -25.3060  -25.1280   18.4200 N   0  0  0  0  0  0  0  0  0  0  0  0
  -24.2250  -27.0500   17.9190 O   0  0  0  0  0  0  0  0  0  0  0  0
  -26.2560  -27.2670   18.7120 N   0  0  0  0  0  0  0  0  0  0  0  0
  -25.8260  -28.1400   18.9820 H   0  0  0  0  0  0  0  0  0  0  0  0
  -28.7390  -23.2760   21.4280 C   0  0  0  0  0  0  0  0  0  0  0  0
  -29.6360  -22.2620   21.2300 C   0  0  0  0  0  0  0  0  0  0  0  0
  -29.2660  -21.6390   19.9960 C   0  0  0  0  0  0  0  0  0  0  0  0
  -27.8770  -23.2340   20.3430 N   0  0  0  0  0  0  0  0  0  0  0  0
  -28.2420  -22.2790   19.4500 N   0  0  0  0  0  0  0  0  0  0  0  0
  -29.7930  -20.4400   19.3290 C   0  0  0  0  0  0  0  0  0  0  0  0
  -30.4420  -20.5210   18.0770 C   0  0  0  0  0  3  0  0  0  0  0  0
  -30.9590  -19.3620   17.4600 C   0  0  0  0  0  3  0  0  0  0  0  0
  -30.8320  -18.1040   18.0950 C   0  0  0  0  0  0  0  0  0  0  0  0
  -30.1600  -18.0200   19.3270 C   0  0  0  0  0  3  0  0  0  0  0  0
  -29.6430  -19.1760   19.9370 C   0  0  0  0  0  3  0  0  0  0  0  0
  -31.2790  -16.9220   17.5550 O   0  0  0  0  0  0  0  0  0  0  0  0
  -32.4770  -16.8360   16.8900 C   0  0  0  0  0  0  0  0  0  0  0  0
  -33.7090  -16.7740   17.5760 C   0  0  0  0  0  3  0  0  0  0  0  0
  -34.9080  -16.6090   16.8570 C   0  0  0  0  0  3  0  0  0  0  0  0
  -34.8810  -16.5060   15.4540 C   0  0  0  0  0  0  0  0  0  0  0  0
  -33.6560  -16.5650   14.7690 C   0  0  0  0  0  3  0  0  0  0  0  0
  -32.4560  -16.7260   15.4850 C   0  0  0  0  0  0  0  0  0  0  0  0
  -31.2790  -16.7570   14.8190 F   0  0  0  0  0  0  0  0  0  0  0  0
  -36.0350  -16.3450   14.7620 F   0  0  0  0  0  0  0  0  0  0  0  0
  -30.7140  -21.8180   22.1740 C   0  0  0  0  0  0  0  0  0  0  0  0
  -31.9550  -21.7460   21.7020 N   0  0  0  0  0  0  0  0  0  0  0  0
  -30.4610  -21.5720   23.3520 O   0  0  0  0  0  0  0  0  0  0  0  0
  -32.1620  -21.9450   20.7340 H   0  0  0  0  0  0  0  0  0  0  0  0
  -32.7110  -21.4760   22.3160 H   0  0  0  0  0  0  0  0  0  0  0  0
  -28.5490  -24.2160   22.4470 N   0  0  0  0  0  0  0  0  0  0  0  0
  -29.0480  -23.9300   23.2820 H   0  0  0  0  0  0  0  0  0  0  0  0
  -27.5600  -24.3050   22.6500 H   0  0  0  0  0  0  0  0  0  0  0  0
  -28.5940  -26.6770   19.4370 C   0  0  0  0  0  2  0  0  0  0  0  0
  -31.0650  -26.3310   20.0370 C   0  0  0  0  0  1  0  0  0  0  0  0
  -29.7710  -28.2080   21.1340 C   0  0  0  0  0  1  0  0  0  0  0  0
  -29.9290  -27.3530   19.8600 C   0  0  0  0  0  3  0  0  0  0  0  0
  1 52  1  0
  5  2  1  6
  3  5  1  0
  5  4  1  0
  5  1  1  0
  6  8  2  0
  7  1  1  0
  7  6  1  0
  9  7  1  0
 10  6  1  0
 11 10  1  0
 12 22  1  0
 13 11  1  0
 14 21  1  0
 14 24  1  0
 14 22  1  0
 15 17  2  0
 15 20  1  0
 16 17  1  0
 17 18  1  0
 18 13  2  0
 19 13  1  0
 20 19  2  0
 21 15  1  0
 22 16  1  0
 23 12  2  0
 24 26  2  0
 25 24  1  0
 27 25  1  0
 28 33  1  0
 29 25  1  0
 30 29  1  0
 31 30  1  0
 32 28  1  0
 32 31  1  0
 33 34  2  0
 33 29  1  0
 35 34  1  0
 36 35  2  0
 37 36  1  0
 37 28  2  0
 38 12  1  0
 38 39  1  0
 39 41  1  1
 39 42  1  0
 40 39  1  0
 43 38  1  0
 44 45  2  0
 44 43  1  0
 46 43  1  0
 48 47  1  0
 48 44  1  0
 49 50  1  0
 50 48  1  0
 51 50  1  0
 52 53  1  0
 54 53  1  0
 54 59  1  0
 55 57  1  0
 55 56  1  0
 55 54  1  0
 58 55  1  0
 59 68  1  0
 59 98  1  0
 60 66  1  0
 60 68  1  0
 61 62  1  0
 62 63  1  0
 64 65  1  0
 64 73  1  0
 64 63  1  0
 66 65  1  0
 66 61  1  0
 67 60  2  0
 68 69  1  0
 70 95  1  0
 71 70  2  0
 71 90  1  0
 72 71  1  0
 73 70  1  0
 74 72  2  0
 74 73  1  0
 75 80  1  0
 75 72  1  0
 76 75  2  0
 77 76  1  0
 77 78  2  0
 78 79  1  0
 79 80  2  0
 81 78  1  0
 82 81  1  0
 82 83  1  0
 84 83  2  0
 85 84  1  0
 86 85  2  0
 86 87  1  0
 87 82  2  0
 88 87  1  0
 89 85  1  0
 90 92  2  0
 91 90  1  0
 91 94  1  0
 93 91  1  0
 95 97  1  0
 95 96  1  0
 98101  1  0
101 99  1  0
101100  1  0
M  ISO  4  10 101  11 101  60 100  68 100
M  END
>  <TORSDO>  (15) 
F 26

>  <SCORE>  (15) 
-3.855

>  <name>  (15) 
14

>  <ligand_id>  (15) 
14

>  <original_smiles>  (15) 
[H]c1c([H])c([H])c2c(c1[H])C([H])([H])C([H])([H])C([H])([H])C2([H])N([H])C(=O)C1([H])N(C(=O)C([H])(N([H])C(=O)C([H])(N([H])C([H])([H])[H])C([H])([H])[H])C(C([H])([H])[H])(C([H])([H])[H])C([H])([H])[H])C([H])([H])c2c([H])c(OC([H])([H])C(=O)N([H])C([H])(C([H])([H])C([H])([H])C([H])(C([H])(N([H])C(=O)N3C([H])([H])C([H])([H])C([H])([H])C([H])(n4nc(-c5c([H])c([H])c(Oc6c([H])c([H])c(F)c([H])c6F)c([H])c5[H])c(C(=O)N([H])[H])c4N([H])[H])C3([H])[H])C([H])([H])C([H])(C([H])([H])[H])C([H])([H])[H])[N+]([H])([H])[H])C(C([H])([H])[H])(C([H])([H])[H])C([H])([H])[H])c([H])c([H])c2C1([H])[H]

>  <smiles>  (15) 
[H]c1c([H])c([H])c2c(c1[H])C([H])([H])C([H])([H])C([H])([H])C2([H])N([H])C(=O)C1([H])N(C(=O)C([H])(N([H])C(=O)C([H])(N([H])C([H])([H])[H])C([H])([H])[H])C(C([H])([H])[H])(C([H])([H])[H])C([H])([H])[H])C([H])([H])c2c([H])c(OC([H])([H])C(=O)N([H])C([H])(C([H])([H])C([H])([H])C([H])(C([H])(N([H])C(=O)N3C([H])([H])C([H])([H])C([H])([H])C([H])(n4nc(-c5c([H])c([H])c(Oc6c([H])c([H])c(F)c([H])c6F)c([H])c5[H])c(C(=O)N([H])[H])c4N([H])[H])C3([H])[H])C([H])([H])C([H])(C([H])([H])[H])C([H])([H])[H])[N+]([H])([H])[H])C(C([H])([H])[H])(C([H])([H])[H])C([H])([H])[H])c([H])c([H])c2C1([H])[H]

$$$$
15:0:0
     RDKit          3D

 96103  0  0  1  0  0  0  0  0999 V2000
  -25.0660  -21.8370   24.2330 C   0  0  0  0  0  2  0  0  0  0  0  0
  -25.9870  -23.0760   24.3040 C   0  0  0  0  0  2  0  0  0  0  0  0
  -26.1520  -23.8400   22.9740 C   0  0  0  0  0  2  0  0  0  0  0  0
  -27.6290  -24.0540   22.5860 C   0  0  0  0  0  2  0  0  0  0  0  0
  -27.7920  -24.6910   21.1900 C   0  0  0  0  0  3  0  0  0  0  0  0
  -27.5140  -22.5170   19.8460 C   0  0  0  0  0  1  0  0  0  0  0  0
  -28.4110  -23.7220   20.1610 C   0  0  0  0  0  2  0  0  0  0  0  0
  -28.5890  -26.0120   21.2510 C   0  0  0  0  0  2  0  0  0  0  0  0
  -28.3940  -26.7600   20.0570 O   0  0  0  0  0  0  0  0  0  0  0  0
  -24.6060  -31.8730   23.2150 C   0  0  0  0  0  0  0  0  0  0  0  0
  -27.2350  -27.4920   20.0690 C   0  0  0  0  0  0  0  0  0  0  0  0
  -23.3930  -30.4900   21.5580 C   0  0  0  0  0  3  0  0  0  0  0  0
  -24.8400  -28.9690   20.1150 C   0  0  0  0  0  0  0  0  0  0  0  0
  -25.9150  -30.8480   21.3670 C   0  0  0  0  0  2  0  0  0  0  0  0
  -25.9960  -29.4890   20.7130 C   0  0  0  0  0  0  0  0  0  0  0  0
  -27.1970  -28.7530   20.6980 C   0  0  0  0  0  3  0  0  0  0  0  0
  -26.0760  -26.9860   19.4470 C   0  0  0  0  0  3  0  0  0  0  0  0
  -24.8710  -27.7140   19.4830 C   0  0  0  0  0  3  0  0  0  0  0  0
  -23.5990  -29.8290   20.1700 C   0  0  0  0  0  2  0  0  0  0  0  0
  -24.6550  -31.0840   22.1040 N   0  0  0  0  0  0  0  0  0  0  0  0
  -23.5280  -32.1460   23.7580 O   0  0  0  0  0  0  0  0  0  0  0  0
  -22.7390  -29.4620   22.5060 C   0  0  0  0  0  0  0  0  0  0  0  0
  -21.4110  -29.2950   22.3720 N   0  0  0  0  0  0  0  0  0  0  0  0
  -23.4190  -28.8250   23.3130 O   0  0  0  0  0  0  0  0  0  0  0  0
  -20.9350  -29.8490   21.6750 H   0  0  0  0  0  0  0  0  0  0  0  0
  -18.0260  -28.1340   22.8600 C   0  0  0  0  0  0  0  0  0  0  0  0
  -20.5850  -28.3630   23.1350 C   0  0  0  0  0  3  0  0  0  0  0  0
  -20.6810  -26.9370   22.5490 C   0  0  0  0  0  2  0  0  0  0  0  0
  -19.5650  -26.6110   21.5500 C   0  0  0  0  0  2  0  0  0  0  0  0
  -18.1920  -26.7740   22.2060 C   0  0  0  0  0  2  0  0  0  0  0  0
  -19.1530  -28.8850   23.2870 C   0  0  0  0  0  0  0  0  0  0  0  0
  -18.9480  -30.1530   23.8720 C   0  0  0  0  0  3  0  0  0  0  0  0
  -17.6470  -30.6680   24.0410 C   0  0  0  0  0  3  0  0  0  0  0  0
  -16.5350  -29.9110   23.6340 C   0  0  0  0  0  3  0  0  0  0  0  0
  -16.7270  -28.6480   23.0430 C   0  0  0  0  0  3  0  0  0  0  0  0
  -25.8990  -32.4820   23.8430 C   0  0  0  0  0  3  0  0  0  0  0  0
  -25.5890  -33.8630   24.2360 N   0  0  0  0  0  0  0  0  0  0  0  0
  -25.9030  -34.9460   23.5140 C   0  0  0  0  0  0  0  0  0  0  0  0
  -26.5590  -34.8910   22.4690 O   0  0  0  0  0  0  0  0  0  0  0  0
  -25.0040  -33.9810   25.0510 H   0  0  0  0  0  0  0  0  0  0  0  0
  -24.1500  -36.7320   23.2630 C   0  0  0  0  0  1  0  0  0  0  0  0
  -25.4110  -36.3110   24.0330 C   0  0  0  0  0  3  0  0  0  0  0  0
  -27.5590  -37.1800   24.8460 C   0  0  0  0  0  1  0  0  0  0  0  0
  -26.4310  -37.3780   23.9410 N   0  0  0  0  0  0  0  0  0  0  0  0
  -26.0190  -38.2850   24.1390 H   0  0  0  0  0  0  0  0  0  0  0  0
  -26.4440  -31.6580   25.0730 C   0  0  1  0  0  0  0  0  0  0  0  0
  -25.3720  -31.3750   26.1510 C   0  0  0  0  0  1  0  0  0  0  0  0
  -27.0240  -30.3020   24.6050 C   0  0  0  0  0  1  0  0  0  0  0  0
  -27.6050  -32.4280   25.7450 C   0  0  0  0  0  1  0  0  0  0  0  0
  -25.4810  -20.7510   23.2200 C   0  0  0  0  0  2  0  0  0  0  0  0
  -26.9200  -20.2380   23.4030 C   0  0  0  0  0  2  0  0  0  0  0  0
  -27.2950  -19.1280   22.4140 C   0  0  0  0  0  2  0  0  0  0  0  0
  -28.7260  -18.6060   22.6270 C   0  0  0  0  0  2  0  0  0  0  0  0
  -28.9900  -17.3190   21.8150 C   0  0  0  0  0  2  0  0  0  0  0  0
  -30.1380  -16.3790   22.2870 C   0  0  0  0  0  3  0  0  0  0  0  0
  -30.6550  -14.3860   20.7170 C   0  0  0  0  0  0  0  0  0  0  0  0
  -30.4370  -12.3240   19.3480 C   0  0  0  0  0  2  0  0  0  0  0  0
  -29.4730  -12.5540   18.1630 C   0  0  0  0  0  2  0  0  0  0  0  0
  -27.9950  -12.4000   18.5780 C   0  0  0  0  0  2  0  0  0  0  0  0
  -27.6630  -13.1800   19.8730 C   0  0  0  0  0  3  0  0  0  0  0  0
  -28.6970  -12.8290   20.9580 C   0  0  0  0  0  2  0  0  0  0  0  0
  -30.0310  -13.2120   20.4440 N   0  0  0  0  0  0  0  0  0  0  0  0
  -31.7180  -14.7450   20.2010 O   0  0  0  0  0  0  0  0  0  0  0  0
  -29.9430  -15.1100   21.5940 N   0  0  0  0  0  0  0  0  0  0  0  0
  -29.0810  -14.6530   21.8360 H   0  0  0  0  0  0  0  0  0  0  0  0
  -25.2660  -13.8100   20.5740 C   0  0  0  0  0  0  0  0  0  0  0  0
  -24.1830  -13.0450   20.9110 C   0  0  0  0  0  0  0  0  0  0  0  0
  -24.6300  -11.6880   20.8640 C   0  0  0  0  0  0  0  0  0  0  0  0
  -26.3030  -12.9200   20.3340 N   0  0  0  0  0  0  0  0  0  0  0  0
  -25.9200  -11.6390   20.5640 N   0  0  0  0  0  0  0  0  0  0  0  0
  -23.8930  -10.4300   21.0330 C   0  0  0  0  0  0  0  0  0  0  0  0
  -24.3540   -9.4250   21.9110 C   0  0  0  0  0  3  0  0  0  0  0  0
  -23.6250   -8.2280   22.0740 C   0  0  0  0  0  3  0  0  0  0  0  0
  -22.4230   -8.0270   21.3520 C   0  0  0  0  0  0  0  0  0  0  0  0
  -21.9820   -9.0210   20.4630 C   0  0  0  0  0  3  0  0  0  0  0  0
  -22.7100  -10.2110   20.3000 C   0  0  0  0  0  3  0  0  0  0  0  0
  -21.6650   -6.8830   21.4200 O   0  0  0  0  0  0  0  0  0  0  0  0
  -21.6850   -6.0690   22.5240 C   0  0  0  0  0  0  0  0  0  0  0  0
  -21.4010   -6.5620   23.8160 C   0  0  0  0  0  3  0  0  0  0  0  0
  -21.3680   -5.6790   24.9140 C   0  0  0  0  0  3  0  0  0  0  0  0
  -21.6050   -4.3040   24.7200 C   0  0  0  0  0  0  0  0  0  0  0  0
  -21.8820   -3.8110   23.4330 C   0  0  0  0  0  3  0  0  0  0  0  0
  -21.9210   -4.6930   22.3370 C   0  0  0  0  0  0  0  0  0  0  0  0
  -22.1670   -4.2110   21.0950 F   0  0  0  0  0  0  0  0  0  0  0  0
  -21.5660   -3.4540   25.7720 F   0  0  0  0  0  0  0  0  0  0  0  0
  -22.7880  -13.5300   21.1780 C   0  0  0  0  0  0  0  0  0  0  0  0
  -22.0520  -12.8310   22.0350 N   0  0  0  0  0  0  0  0  0  0  0  0
  -22.3570  -14.5620   20.6640 O   0  0  0  0  0  0  0  0  0  0  0  0
  -22.4150  -11.9960   22.4720 H   0  0  0  0  0  0  0  0  0  0  0  0
  -21.1140  -13.1350   22.2590 H   0  0  0  0  0  0  0  0  0  0  0  0
  -25.4550  -15.1830   20.4450 N   0  0  0  0  0  0  0  0  0  0  0  0
  -24.7200  -15.8550   20.6330 H   0  0  0  0  0  0  0  0  0  0  0  0
  -26.3500  -15.6140   20.2610 H   0  0  0  0  0  0  0  0  0  0  0  0
  -31.1910  -15.1070   24.2770 C   0  0  0  0  0  1  0  0  0  0  0  0
  -28.7320  -15.5670   24.3190 C   0  0  0  0  0  1  0  0  0  0  0  0
  -30.0990  -16.0900   23.8230 C   0  0  0  0  0  3  0  0  0  0  0  0
  1  2  1  0
  3  2  1  0
  4  3  1  0
  5  7  1  0
  5  8  1  0
  5  4  1  0
  6  7  1  0
  9 11  1  0
  9  8  1  0
 10 21  2  0
 11 16  1  0
 12 20  1  0
 12 22  1  0
 13 19  1  0
 13 15  1  0
 14 20  1  0
 15 14  1  0
 16 15  2  0
 17 18  1  0
 17 11  2  0
 18 13  2  0
 19 12  1  0
 20 10  1  0
 22 24  2  0
 23 22  1  0
 25 23  1  0
 26 35  2  0
 26 31  1  0
 27 23  1  0
 27 31  1  0
 28 27  1  0
 29 30  1  0
 29 28  1  0
 30 26  1  0
 31 32  2  0
 32 33  1  0
 34 33  2  0
 35 34  1  0
 36 10  1  0
 36 37  1  0
 36 46  1  0
 37 40  1  0
 38 42  1  0
 38 37  1  0
 39 38  2  0
 42 41  1  0
 44 42  1  0
 44 45  1  0
 44 43  1  0
 46 49  1  1
 46 47  1  0
 48 46  1  0
 50 51  1  0
 50  1  1  0
 52 53  1  0
 52 51  1  0
 54 53  1  0
 55 54  1  0
 55 96  1  0
 56 64  1  0
 57 62  1  0
 58 59  1  0
 58 57  1  0
 60 59  1  0
 60 69  1  0
 60 61  1  0
 62 56  1  0
 62 61  1  0
 63 56  2  0
 64 65  1  0
 64 55  1  0
 66 67  2  0
 67 86  1  0
 68 67  1  0
 68 71  1  0
 69 70  1  0
 69 66  1  0
 70 68  2  0
 71 72  1  0
 72 73  2  0
 74 77  1  0
 74 73  1  0
 75 74  2  0
 76 75  1  0
 76 71  2  0
 77 78  1  0
 78 79  1  0
 79 80  2  0
 81 80  1  0
 81 85  1  0
 82 81  2  0
 83 78  2  0
 83 82  1  0
 84 83  1  0
 86 87  1  0
 87 90  1  0
 87 89  1  0
 88 86  2  0
 91 66  1  0
 91 92  1  0
 93 91  1  0
 96 94  1  0
 96 95  1  0
M  ISO  4   8 101   9 101  56 100  64 100
M  END
>  <TORSDO>  (16) 
F 29

>  <SCORE>  (16) 
44.487

>  <name>  (16) 
15

>  <ligand_id>  (16) 
15

>  <original_smiles>  (16) 
[H]c1c([H])c([H])c2c(c1[H])C([H])([H])C([H])([H])C([H])([H])C2([H])N([H])C(=O)C1([H])N(C(=O)C([H])(N([H])C(=O)C([H])(N([H])C([H])([H])[H])C([H])([H])[H])C(C([H])([H])[H])(C([H])([H])[H])C([H])([H])[H])C([H])([H])c2c([H])c(OC([H])([H])C([H])(C([H])([H])C([H])([H])[H])C([H])([H])C([H])([H])C([H])([H])C([H])([H])C([H])([H])C([H])([H])C([H])([H])C([H])([H])C([H])([H])C([H])(N([H])C(=O)N3C([H])([H])C([H])([H])C([H])([H])C([H])(n4nc(-c5c([H])c([H])c(Oc6c([H])c([H])c(F)c([H])c6F)c([H])c5[H])c(C(=O)N([H])[H])c4N([H])[H])C3([H])[H])C([H])(C([H])([H])[H])C([H])([H])[H])c([H])c([H])c2C1([H])[H]

>  <smiles>  (16) 
[H]c1c([H])c([H])c2c(c1[H])C([H])([H])C([H])([H])C([H])([H])C2([H])N([H])C(=O)C1([H])N(C(=O)C([H])(N([H])C(=O)C([H])(N([H])C([H])([H])[H])C([H])([H])[H])C(C([H])([H])[H])(C([H])([H])[H])C([H])([H])[H])C([H])([H])c2c([H])c(OC([H])([H])C([H])(C([H])([H])C([H])([H])[H])C([H])([H])C([H])([H])C([H])([H])C([H])([H])C([H])([H])C([H])([H])C([H])([H])C([H])([H])C([H])([H])C([H])(N([H])C(=O)N3C([H])([H])C([H])([H])C([H])([H])C([H])(n4nc(-c5c([H])c([H])c(Oc6c([H])c([H])c(F)c([H])c6F)c([H])c5[H])c(C(=O)N([H])[H])c4N([H])[H])C3([H])[H])C([H])(C([H])([H])[H])C([H])([H])[H])c([H])c([H])c2C1([H])[H]

$$$$
16:0:0
     RDKit          3D

 89 97  0  0  1  0  0  0  0  0999 V2000
  -28.9420  -20.8080   19.7050 N   0  0  0  0  0  4  0  0  0  0  0  0
  -28.0300  -20.6320   19.3170 H   0  0  0  0  0  0  0  0  0  0  0  0
  -29.5130  -21.0940   18.9270 H   0  0  0  0  0  0  0  0  0  0  0  0
  -30.6950  -14.8720   19.9870 C   0  0  0  0  0  0  0  0  0  0  0  0
  -30.3660  -12.6010   18.9630 C   0  0  0  0  0  2  0  0  0  0  0  0
  -29.3640  -12.6330   17.7910 C   0  0  0  0  0  2  0  0  0  0  0  0
  -27.9290  -12.4430   18.3150 C   0  0  0  0  0  2  0  0  0  0  0  0
  -27.6180  -13.3340   19.5480 C   0  0  0  0  0  3  0  0  0  0  0  0
  -28.7470  -13.2980   20.5990 C   0  0  0  0  0  2  0  0  0  0  0  0
  -29.9740  -13.6900   19.8990 N   0  0  0  0  0  0  0  0  0  0  0  0
  -31.8940  -14.7980   19.6930 O   0  0  0  0  0  0  0  0  0  0  0  0
  -30.2300  -18.6630   18.9780 C   0  0  0  0  0  2  0  0  0  0  0  0
  -28.6030  -18.2950   20.6840 C   0  0  0  0  0  2  0  0  0  0  0  0
  -30.9070  -17.2710   19.3140 C   0  0  0  0  0  2  0  0  0  0  0  0
  -29.2090  -16.8190   20.9640 C   0  0  0  0  0  2  0  0  0  0  0  0
  -29.5590  -19.4400   20.1550 C   0  0  0  0  0  3  0  0  0  0  0  0
  -30.0980  -16.1650   19.9390 N   0  0  0  0  0  0  0  0  0  0  0  0
  -25.2870  -13.8960   20.4410 C   0  0  0  0  0  0  0  0  0  0  0  0
  -24.2450  -13.1120   20.8530 C   0  0  0  0  0  0  0  0  0  0  0  0
  -24.7080  -11.7610   20.7680 C   0  0  0  0  0  0  0  0  0  0  0  0
  -26.3140  -13.0240   20.1240 N   0  0  0  0  0  0  0  0  0  0  0  0
  -25.9790  -11.7340   20.3870 N   0  0  0  0  0  0  0  0  0  0  0  0
  -23.9930  -10.4930   20.9720 C   0  0  0  0  0  0  0  0  0  0  0  0
  -24.4520   -9.5260   21.8940 C   0  0  0  0  0  3  0  0  0  0  0  0
  -23.7370   -8.3230   22.0850 C   0  0  0  0  0  3  0  0  0  0  0  0
  -22.5490   -8.0790   21.3550 C   0  0  0  0  0  0  0  0  0  0  0  0
  -22.1100   -9.0350   20.4220 C   0  0  0  0  0  3  0  0  0  0  0  0
  -22.8250  -10.2290   20.2290 C   0  0  0  0  0  3  0  0  0  0  0  0
  -21.8010   -6.9300   21.4600 O   0  0  0  0  0  0  0  0  0  0  0  0
  -21.7470   -6.2100   22.6260 C   0  0  0  0  0  0  0  0  0  0  0  0
  -21.2780   -6.7770   23.8320 C   0  0  0  0  0  3  0  0  0  0  0  0
  -21.1720   -5.9810   24.9900 C   0  0  0  0  0  3  0  0  0  0  0  0
  -21.5250   -4.6190   24.9440 C   0  0  0  0  0  0  0  0  0  0  0  0
  -21.9870   -4.0520   23.7430 C   0  0  0  0  0  3  0  0  0  0  0  0
  -22.0940   -4.8440   22.5870 C   0  0  0  0  0  0  0  0  0  0  0  0
  -22.5190   -4.2870   21.4270 F   0  0  0  0  0  0  0  0  0  0  0  0
  -21.4160   -3.8520   26.0540 F   0  0  0  0  0  0  0  0  0  0  0  0
  -22.8640  -13.5790   21.2080 C   0  0  0  0  0  0  0  0  0  0  0  0
  -22.1830  -12.8610   22.0960 N   0  0  0  0  0  0  0  0  0  0  0  0
  -22.3990  -14.6170   20.7380 O   0  0  0  0  0  0  0  0  0  0  0  0
  -22.5740  -12.0210   22.4960 H   0  0  0  0  0  0  0  0  0  0  0  0
  -21.2590  -13.1530   22.3760 H   0  0  0  0  0  0  0  0  0  0  0  0
  -25.4420  -15.2690   20.2820 N   0  0  0  0  0  0  0  0  0  0  0  0
  -24.6860  -15.9240   20.4560 H   0  0  0  0  0  0  0  0  0  0  0  0
  -26.2730  -15.7140   19.9140 H   0  0  0  0  0  0  0  0  0  0  0  0
  -28.8470  -22.0870   20.5860 C   0  0  0  0  0  2  0  0  0  0  0  0
  -28.6290  -23.5760   19.8860 C   0  0  0  0  0  3  0  0  0  0  0  0
  -28.2290  -24.9200   20.7470 C   0  0  0  0  0  3  0  0  0  0  0  0
  -28.4000  -26.3650   20.2960 O   0  0  0  0  0  0  0  0  0  0  0  0
  -24.6320  -31.8920   23.2580 C   0  0  0  0  0  0  0  0  0  0  0  0
  -27.2990  -27.2590   20.2830 C   0  0  0  0  0  0  0  0  0  0  0  0
  -23.4600  -30.4680   21.6210 C   0  0  0  0  0  3  0  0  0  0  0  0
  -24.9360  -28.9040   20.2260 C   0  0  0  0  0  0  0  0  0  0  0  0
  -26.0020  -30.7860   21.4640 C   0  0  0  0  0  2  0  0  0  0  0  0
  -26.1000  -29.3950   20.8290 C   0  0  0  0  0  0  0  0  0  0  0  0
  -27.2870  -28.5880   20.8390 C   0  0  0  0  0  3  0  0  0  0  0  0
  -26.1110  -26.8360   19.6550 C   0  0  0  0  0  3  0  0  0  0  0  0
  -24.9460  -27.6320   19.6280 C   0  0  0  0  0  3  0  0  0  0  0  0
  -23.6950  -29.7790   20.2510 C   0  0  0  0  0  2  0  0  0  0  0  0
  -24.7180  -31.0680   22.1710 N   0  0  0  0  0  0  0  0  0  0  0  0
  -23.5410  -32.1650   23.7780 O   0  0  0  0  0  0  0  0  0  0  0  0
  -22.7940  -29.4550   22.5840 C   0  0  0  0  0  0  0  0  0  0  0  0
  -21.4680  -29.2730   22.4540 N   0  0  0  0  0  0  0  0  0  0  0  0
  -23.4690  -28.8390   23.4120 O   0  0  0  0  0  0  0  0  0  0  0  0
  -20.9800  -29.8220   21.7610 H   0  0  0  0  0  0  0  0  0  0  0  0
  -18.0910  -28.0710   22.9600 C   0  0  0  0  0  0  0  0  0  0  0  0
  -20.6490  -28.3340   23.2260 C   0  0  0  0  0  3  0  0  0  0  0  0
  -20.7510  -26.9020   22.6510 C   0  0  0  0  0  2  0  0  0  0  0  0
  -19.6470  -26.5780   21.6380 C   0  0  0  0  0  2  0  0  0  0  0  0
  -18.2660  -26.7220   22.2840 C   0  0  0  0  0  2  0  0  0  0  0  0
  -19.2090  -28.8340   23.3880 C   0  0  0  0  0  0  0  0  0  0  0  0
  -18.9880  -30.0970   23.9800 C   0  0  0  0  0  3  0  0  0  0  0  0
  -17.6820  -30.5970   24.1470 C   0  0  0  0  0  3  0  0  0  0  0  0
  -16.5790  -29.8300   23.7340 C   0  0  0  0  0  3  0  0  0  0  0  0
  -16.7840  -28.5690   23.1480 C   0  0  0  0  0  3  0  0  0  0  0  0
  -25.9000  -32.5430   23.8900 C   0  0  0  0  0  3  0  0  0  0  0  0
  -26.3970  -31.8000   25.1920 C   0  0  1  0  0  0  0  0  0  0  0  0
  -25.2850  -31.5780   26.2440 C   0  0  0  0  0  1  0  0  0  0  0  0
  -26.9950  -30.4190   24.8410 C   0  0  0  0  0  1  0  0  0  0  0  0
  -27.5290  -32.6150   25.8590 C   0  0  0  0  0  1  0  0  0  0  0  0
  -25.5770  -33.9460   24.1900 N   0  0  0  0  0  0  0  0  0  0  0  0
  -25.9140  -34.9880   23.4180 C   0  0  0  0  0  0  0  0  0  0  0  0
  -26.5960  -34.8700   22.3970 O   0  0  0  0  0  0  0  0  0  0  0  0
  -24.9730  -34.1110   24.9810 H   0  0  0  0  0  0  0  0  0  0  0  0
  -24.1870  -36.7700   23.0080 C   0  0  0  0  0  1  0  0  0  0  0  0
  -25.4160  -36.3830   23.8460 C   0  0  0  0  0  3  0  0  0  0  0  0
  -27.5310  -37.2910   24.7020 C   0  0  0  0  0  1  0  0  0  0  0  0
  -26.4470  -37.4370   23.7320 N   0  0  0  0  0  0  0  0  0  0  0  0
  -26.0360  -38.3590   23.8510 H   0  0  0  0  0  0  0  0  0  0  0  0
  1 46  1  0
  2  1  1  0
  3  1  1  0
  5 10  1  0
  6  7  1  0
  6  5  1  0
  8  7  1  0
  8 21  1  0
  8  9  1  0
 10  4  1  0
 10  9  1  0
 11  4  2  0
 12 14  1  0
 12 16  1  0
 13 15  1  0
 14 17  1  0
 16  1  1  0
 16 13  1  0
 17  4  1  0
 17 15  1  0
 18 19  2  0
 19 38  1  0
 20 19  1  0
 20 23  1  0
 21 22  1  0
 21 18  1  0
 22 20  2  0
 23 24  1  0
 24 25  2  0
 26 29  1  0
 26 25  1  0
 27 26  2  0
 28 27  1  0
 28 23  2  0
 29 30  1  0
 30 31  1  0
 31 32  2  0
 33 32  1  0
 33 37  1  0
 34 33  2  0
 35 30  2  0
 35 34  1  0
 36 35  1  0
 38 39  1  0
 39 42  1  0
 39 41  1  0
 40 38  2  0
 43 18  1  0
 43 44  1  0
 45 43  1  0
 47 46  1  0
 47 48  2  0
 49 48  1  0
 50 61  2  0
 51 49  1  0
 51 56  1  0
 52 60  1  0
 52 62  1  0
 53 59  1  0
 53 55  1  0
 54 60  1  0
 55 56  2  0
 55 54  1  0
 57 51  2  0
 58 57  1  0
 58 53  2  0
 59 52  1  0
 60 50  1  0
 62 64  2  0
 63 62  1  0
 65 63  1  0
 66 75  2  0
 66 71  1  0
 67 63  1  0
 67 71  1  0
 68 67  1  0
 69 70  1  0
 69 68  1  0
 70 66  1  0
 71 72  2  0
 72 73  1  0
 74 73  2  0
 75 74  1  0
 76 50  1  0
 76 81  1  0
 76 77  1  0
 77 80  1  1
 77 78  1  0
 79 77  1  0
 81 84  1  0
 82 86  1  0
 82 81  1  0
 83 82  2  0
 86 85  1  0
 88 86  1  0
 88 89  1  0
 88 87  1  0
M  ISO  4   4 100  17 100  48 101  49 101
M  END
>  <TORSDO>  (17) 
F 19

>  <SCORE>  (17) 
-14.006

>  <name>  (17) 
16

>  <ligand_id>  (17) 
16

>  <original_smiles>  (17) 
[H]c1c([H])c([H])c2c(c1[H])C([H])([H])C([H])([H])C([H])([H])C2([H])N([H])C(=O)C1([H])N(C(=O)C([H])(N([H])C(=O)C([H])(N([H])C([H])([H])[H])C([H])([H])[H])C(C([H])([H])[H])(C([H])([H])[H])C([H])([H])[H])C([H])([H])c2c([H])c(OC([H])([H])C([H])([H])C([H])([H])[N+]([H])([H])C3([H])C([H])([H])C([H])([H])N(C(=O)N4C([H])([H])C([H])([H])C([H])([H])C([H])(n5nc(-c6c([H])c([H])c(Oc7c([H])c([H])c(F)c([H])c7F)c([H])c6[H])c(C(=O)N([H])[H])c5N([H])[H])C4([H])[H])C([H])([H])C3([H])[H])c([H])c([H])c2C1([H])[H]

>  <smiles>  (17) 
[H]c1c([H])c([H])c2c(c1[H])C([H])([H])C([H])([H])C([H])([H])C2([H])N([H])C(=O)C1([H])N(C(=O)C([H])(N([H])C(=O)C([H])(N([H])C([H])([H])[H])C([H])([H])[H])C(C([H])([H])[H])(C([H])([H])[H])C([H])([H])[H])C([H])([H])c2c([H])c(OC([H])([H])C([H])([H])C([H])([H])[N+]([H])([H])C3([H])C([H])([H])C([H])([H])N(C(=O)N4C([H])([H])C([H])([H])C([H])([H])C([H])(n5nc(-c6c([H])c([H])c(Oc7c([H])c([H])c(F)c([H])c7F)c([H])c6[H])c(C(=O)N([H])[H])c5N([H])[H])C4([H])[H])C([H])([H])C3([H])[H])c([H])c([H])c2C1([H])[H]

$$$$
17:0:0
     RDKit          3D

 96103  0  0  1  0  0  0  0  0999 V2000
  -31.1910  -21.9170   20.6020 C   0  0  0  0  0  3  0  0  0  0  0  0
  -32.2690  -22.4060   19.6220 C   0  0  0  0  0  0  0  0  0  0  0  0
  -33.4500  -22.7710   20.1040 N   0  0  0  0  0  0  0  0  0  0  0  0
  -32.0260  -22.4590   18.4150 O   0  0  0  0  0  0  0  0  0  0  0  0
  -33.6450  -22.7200   21.0950 H   0  0  0  0  0  0  0  0  0  0  0  0
  -34.1650  -23.1190   19.4810 H   0  0  0  0  0  0  0  0  0  0  0  0
  -30.1170  -21.2800   19.8130 N   0  0  0  0  0  4  0  0  0  0  0  0
  -29.2180  -21.6510   20.0680 H   0  0  0  0  0  0  0  0  0  0  0  0
  -30.3380  -21.6030   18.8760 H   0  0  0  0  0  0  0  0  0  0  0  0
  -30.0970  -19.7980   19.7920 C   0  0  0  0  0  2  0  0  0  0  0  0
  -29.4830  -19.1830   21.0710 C   0  0  0  0  0  2  0  0  0  0  0  0
  -29.1800  -17.6700   20.9700 C   0  0  0  0  0  2  0  0  0  0  0  0
  -30.4210  -16.7550   21.0120 C   0  0  0  0  0  2  0  0  0  0  0  0
  -30.6680  -14.3870   20.2370 C   0  0  0  0  0  0  0  0  0  0  0  0
  -30.3040  -12.2650   19.0350 C   0  0  0  0  0  2  0  0  0  0  0  0
  -29.3200  -12.5050   17.8710 C   0  0  0  0  0  2  0  0  0  0  0  0
  -27.8590  -12.3840   18.3510 C   0  0  0  0  0  2  0  0  0  0  0  0
  -27.5810  -13.2030   19.6400 C   0  0  0  0  0  3  0  0  0  0  0  0
  -28.6670  -12.9270   20.7040 C   0  0  0  0  0  2  0  0  0  0  0  0
  -29.9790  -13.2230   20.1020 N   0  0  0  0  0  0  0  0  0  0  0  0
  -31.7460  -14.6060   19.6770 O   0  0  0  0  0  0  0  0  0  0  0  0
  -30.0310  -15.3460   20.9310 N   0  0  0  0  0  0  0  0  0  0  0  0
  -29.1570  -15.0810   21.3600 H   0  0  0  0  0  0  0  0  0  0  0  0
  -25.2080  -13.8370   20.4150 C   0  0  0  0  0  0  0  0  0  0  0  0
  -24.1420  -13.0760   20.8180 C   0  0  0  0  0  0  0  0  0  0  0  0
  -24.5890  -11.7200   20.7730 C   0  0  0  0  0  0  0  0  0  0  0  0
  -26.2370  -12.9440   20.1560 N   0  0  0  0  0  0  0  0  0  0  0  0
  -25.8670  -11.6660   20.4250 N   0  0  0  0  0  0  0  0  0  0  0  0
  -23.8550  -10.4660   20.9860 C   0  0  0  0  0  0  0  0  0  0  0  0
  -24.3140   -9.4890   21.8970 C   0  0  0  0  0  3  0  0  0  0  0  0
  -23.5840   -8.2980   22.0970 C   0  0  0  0  0  3  0  0  0  0  0  0
  -22.3810   -8.0760   21.3880 C   0  0  0  0  0  0  0  0  0  0  0  0
  -21.9400   -9.0420   20.4660 C   0  0  0  0  0  3  0  0  0  0  0  0
  -22.6690  -10.2250   20.2640 C   0  0  0  0  0  3  0  0  0  0  0  0
  -21.6180   -6.9390   21.4990 O   0  0  0  0  0  0  0  0  0  0  0  0
  -21.6150   -6.1850   22.6450 C   0  0  0  0  0  0  0  0  0  0  0  0
  -21.2710   -6.7350   23.8990 C   0  0  0  0  0  3  0  0  0  0  0  0
  -21.2140   -5.9090   25.0400 C   0  0  0  0  0  3  0  0  0  0  0  0
  -21.4890   -4.5340   24.9270 C   0  0  0  0  0  0  0  0  0  0  0  0
  -21.8240   -3.9820   23.6780 C   0  0  0  0  0  3  0  0  0  0  0  0
  -21.8850   -4.8050   22.5400 C   0  0  0  0  0  0  0  0  0  0  0  0
  -22.1900   -4.2650   21.3360 F   0  0  0  0  0  0  0  0  0  0  0  0
  -21.4260   -3.7390   26.0210 F   0  0  0  0  0  0  0  0  0  0  0  0
  -22.7600  -13.5690   21.1350 C   0  0  0  0  0  0  0  0  0  0  0  0
  -22.0540  -12.8810   22.0250 N   0  0  0  0  0  0  0  0  0  0  0  0
  -22.3160  -14.5990   20.6300 O   0  0  0  0  0  0  0  0  0  0  0  0
  -22.4280  -12.0470   22.4560 H   0  0  0  0  0  0  0  0  0  0  0  0
  -21.1280  -13.1920   22.2790 H   0  0  0  0  0  0  0  0  0  0  0  0
  -25.3820  -15.2050   20.2290 N   0  0  0  0  0  0  0  0  0  0  0  0
  -24.6250  -15.8680   20.3540 H   0  0  0  0  0  0  0  0  0  0  0  0
  -26.2280  -15.6290   19.8730 H   0  0  0  0  0  0  0  0  0  0  0  0
  -30.6440  -23.0590   21.5030 C   0  0  0  0  0  2  0  0  0  0  0  0
  -30.1350  -24.3370   20.7890 C   0  0  0  0  0  2  0  0  0  0  0  0
  -29.5950  -25.3930   21.7730 C   0  0  0  0  0  2  0  0  0  0  0  0
  -29.3400  -26.7740   21.1420 C   0  0  0  0  0  2  0  0  0  0  0  0
  -28.3570  -26.6660   20.1120 O   0  0  0  0  0  0  0  0  0  0  0  0
  -24.5790  -31.8790   23.2330 C   0  0  0  0  0  0  0  0  0  0  0  0
  -27.2250  -27.4500   20.1700 C   0  0  0  0  0  0  0  0  0  0  0  0
  -23.3650  -30.4750   21.5930 C   0  0  0  0  0  3  0  0  0  0  0  0
  -24.8150  -28.9320   20.1730 C   0  0  0  0  0  0  0  0  0  0  0  0
  -25.8830  -30.8430   21.3830 C   0  0  0  0  0  2  0  0  0  0  0  0
  -25.9690  -29.4680   20.7550 C   0  0  0  0  0  0  0  0  0  0  0  0
  -27.1760  -28.7410   20.7500 C   0  0  0  0  0  3  0  0  0  0  0  0
  -26.0580  -26.9280   19.5770 C   0  0  0  0  0  3  0  0  0  0  0  0
  -24.8520  -27.6570   19.5790 C   0  0  0  0  0  3  0  0  0  0  0  0
  -23.5690  -29.7870   20.2170 C   0  0  0  0  0  2  0  0  0  0  0  0
  -24.6270  -31.0800   22.1290 N   0  0  0  0  0  0  0  0  0  0  0  0
  -23.5020  -32.1530   23.7770 O   0  0  0  0  0  0  0  0  0  0  0  0
  -22.7140  -29.4580   22.5590 C   0  0  0  0  0  0  0  0  0  0  0  0
  -21.3900  -29.2810   22.4360 N   0  0  0  0  0  0  0  0  0  0  0  0
  -23.3980  -28.8320   23.3720 O   0  0  0  0  0  0  0  0  0  0  0  0
  -20.8990  -29.8420   21.7540 H   0  0  0  0  0  0  0  0  0  0  0  0
  -18.0140  -28.0940   22.9290 C   0  0  0  0  0  0  0  0  0  0  0  0
  -20.5710  -28.3470   23.2090 C   0  0  0  0  0  3  0  0  0  0  0  0
  -20.6720  -26.9140   22.6370 C   0  0  0  0  0  2  0  0  0  0  0  0
  -19.5720  -26.5900   21.6220 C   0  0  0  0  0  2  0  0  0  0  0  0
  -18.1890  -26.7420   22.2610 C   0  0  0  0  0  2  0  0  0  0  0  0
  -19.1330  -28.8560   23.3590 C   0  0  0  0  0  0  0  0  0  0  0  0
  -18.9160  -30.1240   23.9420 C   0  0  0  0  0  3  0  0  0  0  0  0
  -17.6130  -30.6310   24.1000 C   0  0  0  0  0  3  0  0  0  0  0  0
  -16.5080  -29.8660   23.6850 C   0  0  0  0  0  3  0  0  0  0  0  0
  -16.7090  -28.6010   23.1070 C   0  0  0  0  0  3  0  0  0  0  0  0
  -25.8710  -32.5040   23.8480 C   0  0  0  0  0  3  0  0  0  0  0  0
  -26.3980  -31.7240   25.1140 C   0  0  1  0  0  0  0  0  0  0  0  0
  -25.3160  -31.4810   26.1910 C   0  0  0  0  0  1  0  0  0  0  0  0
  -26.9750  -30.3490   24.7020 C   0  0  0  0  0  1  0  0  0  0  0  0
  -27.5560  -32.5140   25.7710 C   0  0  0  0  0  1  0  0  0  0  0  0
  -25.5670  -33.9010   24.1840 N   0  0  0  0  0  0  0  0  0  0  0  0
  -25.9010  -34.9550   23.4260 C   0  0  0  0  0  0  0  0  0  0  0  0
  -26.5670  -34.8520   22.3920 O   0  0  0  0  0  0  0  0  0  0  0  0
  -24.9750  -34.0550   24.9870 H   0  0  0  0  0  0  0  0  0  0  0  0
  -24.1710  -36.7480   23.0840 C   0  0  0  0  0  1  0  0  0  0  0  0
  -25.4160  -36.3420   23.8880 C   0  0  0  0  0  3  0  0  0  0  0  0
  -27.5590  -37.2190   24.7060 C   0  0  0  0  0  1  0  0  0  0  0  0
  -26.4500  -37.3950   23.7720 N   0  0  0  0  0  0  0  0  0  0  0  0
  -26.0460  -38.3140   23.9290 H   0  0  0  0  0  0  0  0  0  0  0  0
  1 52  1  0
  2  3  1  0
  2  1  1  0
  3  5  1  0
  4  2  2  0
  6  3  1  0
  7  8  1  0
  7  1  1  0
  9  7  1  0
 10  7  1  0
 10 11  1  0
 12 13  1  0
 12 11  1  0
 14 22  1  0
 15 20  1  0
 16 17  1  0
 16 15  1  0
 18 17  1  0
 18 27  1  0
 18 19  1  0
 20 14  1  0
 20 19  1  0
 21 14  2  0
 22 13  1  0
 22 23  1  0
 24 25  2  0
 25 44  1  0
 26 25  1  0
 26 29  1  0
 27 24  1  0
 27 28  1  0
 28 26  2  0
 29 30  1  0
 30 31  2  0
 32 35  1  0
 32 31  1  0
 33 32  2  0
 34 33  1  0
 34 29  2  0
 35 36  1  0
 36 37  1  0
 37 38  2  0
 39 38  1  0
 39 43  1  0
 40 39  2  0
 41 36  2  0
 41 40  1  0
 42 41  1  0
 44 45  1  0
 45 48  1  0
 45 47  1  0
 46 44  2  0
 49 50  1  0
 49 24  1  0
 51 49  1  0
 53 52  1  0
 53 54  1  0
 55 54  1  0
 56 58  1  0
 56 55  1  0
 57 68  2  0
 58 63  1  0
 59 67  1  0
 59 69  1  0
 60 66  1  0
 60 62  1  0
 61 67  1  0
 62 61  1  0
 63 62  2  0
 64 65  1  0
 64 58  2  0
 65 60  2  0
 66 59  1  0
 67 57  1  0
 69 71  2  0
 70 69  1  0
 72 70  1  0
 73 82  2  0
 73 78  1  0
 74 70  1  0
 74 78  1  0
 75 74  1  0
 76 77  1  0
 76 75  1  0
 77 73  1  0
 78 79  2  0
 79 80  1  0
 81 80  2  0
 82 81  1  0
 83 57  1  0
 83 88  1  0
 83 84  1  0
 84 87  1  1
 84 85  1  0
 86 84  1  0
 88 91  1  0
 89 93  1  0
 89 88  1  0
 90 89  2  0
 93 92  1  0
 95 93  1  0
 95 96  1  0
 95 94  1  0
M  ISO  4  14 100  22 100  55 101  56 101
M  END
>  <TORSDO>  (18) 
F 26

>  <SCORE>  (18) 
-11.815

>  <name>  (18) 
17

>  <ligand_id>  (18) 
17

>  <original_smiles>  (18) 
[H]c1c([H])c([H])c2c(c1[H])C([H])([H])C([H])([H])C([H])([H])C2([H])N([H])C(=O)C1([H])N(C(=O)C([H])(N([H])C(=O)C([H])(N([H])C([H])([H])[H])C([H])([H])[H])C(C([H])([H])[H])(C([H])([H])[H])C([H])([H])[H])C([H])([H])c2c([H])c(OC([H])([H])C([H])([H])C([H])([H])C([H])([H])C([H])(C(=O)N([H])[H])[N+]([H])([H])C([H])([H])C([H])([H])C([H])([H])C([H])([H])N([H])C(=O)N3C([H])([H])C([H])([H])C([H])([H])C([H])(n4nc(-c5c([H])c([H])c(Oc6c([H])c([H])c(F)c([H])c6F)c([H])c5[H])c(C(=O)N([H])[H])c4N([H])[H])C3([H])[H])c([H])c([H])c2C1([H])[H]

>  <smiles>  (18) 
[H]c1c([H])c([H])c2c(c1[H])C([H])([H])C([H])([H])C([H])([H])C2([H])N([H])C(=O)C1([H])N(C(=O)C([H])(N([H])C(=O)C([H])(N([H])C([H])([H])[H])C([H])([H])[H])C(C([H])([H])[H])(C([H])([H])[H])C([H])([H])[H])C([H])([H])c2c([H])c(OC([H])([H])C([H])([H])C([H])([H])C([H])([H])C([H])(C(=O)N([H])[H])[N+]([H])([H])C([H])([H])C([H])([H])C([H])([H])C([H])([H])N([H])C(=O)N3C([H])([H])C([H])([H])C([H])([H])C([H])(n4nc(-c5c([H])c([H])c(Oc6c([H])c([H])c(F)c([H])c6F)c([H])c5[H])c(C(=O)N([H])[H])c4N([H])[H])C3([H])[H])c([H])c([H])c2C1([H])[H]

$$$$
18:0:0
     RDKit          3D

 89 96  0  0  1  0  0  0  0  0999 V2000
  -30.3270  -15.9910   20.3230 C   0  0  0  0  0  0  0  0  0  0  0  0
  -30.4510  -13.3940   19.5300 C   0  0  0  0  0  2  0  0  0  0  0  0
  -29.6120  -12.8500   18.3350 C   0  0  0  0  0  2  0  0  0  0  0  0
  -28.1990  -12.4560   18.7800 C   0  0  0  0  0  2  0  0  0  0  0  0
  -27.6350  -13.4900   19.7760 C   0  0  0  0  0  3  0  0  0  0  0  0
  -28.6270  -13.9310   20.8820 C   0  0  0  0  0  2  0  0  0  0  0  0
  -29.7690  -14.6130   20.2060 N   0  0  0  0  0  0  0  0  0  0  0  0
  -31.5660  -15.8040   20.3090 O   0  0  0  0  0  0  0  0  0  0  0  0
  -30.1520  -20.6150   20.5670 C   0  0  0  0  0  2  0  0  0  0  0  0
  -28.1290  -20.1400   19.8920 C   0  0  0  0  0  2  0  0  0  0  0  0
  -30.2900  -18.8770   21.0410 C   0  0  0  0  0  2  0  0  0  0  0  0
  -28.7790  -21.6500   20.4840 C   0  0  0  0  0  2  0  0  0  0  0  0
  -28.8380  -18.5180   19.4710 C   0  0  0  0  0  3  0  0  0  0  0  0
  -29.7190  -17.5000   20.3850 N   0  0  0  0  0  0  0  0  0  0  0  0
  -25.2610  -14.0110   20.4850 C   0  0  0  0  0  0  0  0  0  0  0  0
  -24.1930  -13.2320   20.8220 C   0  0  0  0  0  0  0  0  0  0  0  0
  -24.6710  -11.8850   20.8240 C   0  0  0  0  0  0  0  0  0  0  0  0
  -26.3150  -13.1430   20.2810 N   0  0  0  0  0  0  0  0  0  0  0  0
  -25.9730  -11.8560   20.5530 N   0  0  0  0  0  0  0  0  0  0  0  0
  -23.9400  -10.6230   21.0050 C   0  0  0  0  0  0  0  0  0  0  0  0
  -24.3340   -9.6720   21.9720 C   0  0  0  0  0  3  0  0  0  0  0  0
  -23.5960   -8.4800   22.1460 C   0  0  0  0  0  3  0  0  0  0  0  0
  -22.4490   -8.2320   21.3540 C   0  0  0  0  0  0  0  0  0  0  0  0
  -22.0750   -9.1730   20.3790 C   0  0  0  0  0  3  0  0  0  0  0  0
  -22.8130  -10.3550   20.2030 C   0  0  0  0  0  3  0  0  0  0  0  0
  -21.6880   -7.0910   21.4350 O   0  0  0  0  0  0  0  0  0  0  0  0
  -21.5910   -6.3720   22.5990 C   0  0  0  0  0  0  0  0  0  0  0  0
  -21.0960   -6.9460   23.7900 C   0  0  0  0  0  3  0  0  0  0  0  0
  -20.9470   -6.1530   24.9450 C   0  0  0  0  0  3  0  0  0  0  0  0
  -21.2810   -4.7850   24.9100 C   0  0  0  0  0  0  0  0  0  0  0  0
  -21.7690   -4.2100   23.7230 C   0  0  0  0  0  3  0  0  0  0  0  0
  -21.9200   -5.0020   22.5700 C   0  0  0  0  0  0  0  0  0  0  0  0
  -22.3690   -4.4380   21.4220 F   0  0  0  0  0  0  0  0  0  0  0  0
  -21.1310   -4.0200   26.0160 F   0  0  0  0  0  0  0  0  0  0  0  0
  -22.7870  -13.7100   21.0340 C   0  0  0  0  0  0  0  0  0  0  0  0
  -22.0340  -13.0350   21.8950 N   0  0  0  0  0  0  0  0  0  0  0  0
  -22.3670  -14.7210   20.4740 O   0  0  0  0  0  0  0  0  0  0  0  0
  -22.3900  -12.2210   22.3730 H   0  0  0  0  0  0  0  0  0  0  0  0
  -21.0900  -13.3380   22.0810 H   0  0  0  0  0  0  0  0  0  0  0  0
  -25.4250  -15.3810   20.3070 N   0  0  0  0  0  0  0  0  0  0  0  0
  -24.6660  -16.0390   20.4470 H   0  0  0  0  0  0  0  0  0  0  0  0
  -26.3250  -15.8210   20.1890 H   0  0  0  0  0  0  0  0  0  0  0  0
  -28.2900  -23.6000   20.0580 C   0  0  0  0  0  1  0  0  0  0  0  0
  -28.3000  -25.3970   20.4600 O   0  0  0  0  0  0  0  0  0  0  0  0
  -24.6940  -31.8470   23.2570 C   0  0  0  0  0  0  0  0  0  0  0  0
  -27.3510  -26.6780   20.3420 C   0  0  0  0  0  0  0  0  0  0  0  0
  -23.5770  -30.4420   21.5790 C   0  0  0  0  0  3  0  0  0  0  0  0
  -25.0850  -28.7860   20.2140 C   0  0  0  0  0  0  0  0  0  0  0  0
  -26.1620  -30.5650   21.5610 C   0  0  0  0  0  2  0  0  0  0  0  0
  -26.2580  -29.1210   20.8990 C   0  0  0  0  0  0  0  0  0  0  0  0
  -27.3650  -28.0960   20.9310 C   0  0  0  0  0  3  0  0  0  0  0  0
  -26.1460  -26.5960   19.5900 C   0  0  0  0  0  3  0  0  0  0  0  0
  -25.0770  -27.5530   19.5370 C   0  0  0  0  0  3  0  0  0  0  0  0
  -23.8750  -29.7430   20.2190 C   0  0  0  0  0  2  0  0  0  0  0  0
  -24.8340  -30.9870   22.1850 N   0  0  0  0  0  0  0  0  0  0  0  0
  -23.5800  -32.1400   23.7280 O   0  0  0  0  0  0  0  0  0  0  0  0
  -22.8280  -29.4650   22.5290 C   0  0  0  0  0  0  0  0  0  0  0  0
  -21.4990  -29.3110   22.3670 N   0  0  0  0  0  0  0  0  0  0  0  0
  -23.4570  -28.8430   23.3870 O   0  0  0  0  0  0  0  0  0  0  0  0
  -21.0370  -29.8590   21.6560 H   0  0  0  0  0  0  0  0  0  0  0  0
  -18.1010  -28.0870   22.7980 C   0  0  0  0  0  0  0  0  0  0  0  0
  -20.6540  -28.3670   23.1140 C   0  0  0  0  0  3  0  0  0  0  0  0
  -20.7740  -26.9390   22.5340 C   0  0  0  0  0  2  0  0  0  0  0  0
  -19.6960  -26.6210   21.4930 C   0  0  0  0  0  2  0  0  0  0  0  0
  -18.3000  -26.7490   22.1070 C   0  0  0  0  0  2  0  0  0  0  0  0
  -19.2060  -28.8550   23.2570 C   0  0  0  0  0  0  0  0  0  0  0  0
  -18.9620  -30.1040   23.8680 C   0  0  0  0  0  3  0  0  0  0  0  0
  -17.6490  -30.5870   24.0230 C   0  0  0  0  0  3  0  0  0  0  0  0
  -16.5590  -29.8200   23.5760 C   0  0  0  0  0  3  0  0  0  0  0  0
  -16.7860  -28.5710   22.9700 C   0  0  0  0  0  3  0  0  0  0  0  0
  -25.9250  -32.5160   23.9410 C   0  0  0  0  0  3  0  0  0  0  0  0
  -26.3600  -31.7870   25.2740 C   0  0  1  0  0  0  0  0  0  0  0  0
  -25.2050  -31.5870   26.2840 C   0  0  0  0  0  1  0  0  0  0  0  0
  -26.9620  -30.3950   24.9790 C   0  0  0  0  0  1  0  0  0  0  0  0
  -27.4710  -32.6010   25.9780 C   0  0  0  0  0  1  0  0  0  0  0  0
  -25.5860  -33.9230   24.2380 N   0  0  0  0  0  0  0  0  0  0  0  0
  -25.9250  -34.9780   23.4860 C   0  0  0  0  0  0  0  0  0  0  0  0
  -26.6110  -34.8700   22.4660 O   0  0  0  0  0  0  0  0  0  0  0  0
  -24.9760  -34.0770   25.0270 H   0  0  0  0  0  0  0  0  0  0  0  0
  -24.1780  -36.7620   23.1280 C   0  0  0  0  0  1  0  0  0  0  0  0
  -25.4320  -36.3730   23.9290 C   0  0  0  0  0  3  0  0  0  0  0  0
  -27.5590  -37.3070   24.7290 C   0  0  0  0  0  1  0  0  0  0  0  0
  -26.4510  -37.4370   23.7870 N   0  0  0  0  0  0  0  0  0  0  0  0
  -26.0340  -38.3560   23.9150 H   0  0  0  0  0  0  0  0  0  0  0  0
  -27.7970  -17.6750   18.6960 C   0  0  0  0  0  2  0  0  0  0  0  0
  -27.2930  -18.3380   17.4760 N   0  0  0  0  0  4  0  0  0  0  0  0
  -26.7960  -19.1810   17.6980 H   0  0  0  0  0  0  0  0  0  0  0  0
  -26.6590  -17.7300   16.9860 H   0  0  0  0  0  0  0  0  0  0  0  0
  -28.0460  -18.5600   16.8490 H   0  0  0  0  0  0  0  0  0  0  0  0
  1 14  1  0
  2  7  1  0
  3  4  1  0
  3  2  1  0
  5  4  1  0
  5 18  1  0
  5  6  1  0
  7  1  1  0
  7  6  1  0
  8  1  2  0
  9 11  1  0
 10 12  1  0
 12  9  1  0
 13 85  1  0
 13 10  1  0
 13 14  1  0
 14 11  1  0
 15 16  2  0
 16 17  1  0
 16 35  1  0
 17 20  1  0
 18 15  1  0
 18 19  1  0
 19 17  2  0
 20 21  1  0
 21 22  2  0
 23 26  1  0
 23 22  1  0
 24 23  2  0
 25 24  1  0
 25 20  2  0
 26 27  1  0
 27 28  1  0
 28 29  2  0
 30 29  1  0
 30 34  1  0
 31 30  2  0
 32 27  2  0
 32 31  1  0
 33 32  1  0
 35 36  1  0
 36 39  1  0
 36 38  1  0
 37 35  2  0
 40 41  1  0
 40 15  1  0
 42 40  1  0
 43 44  1  0
 45 56  2  0
 46 44  1  0
 46 51  1  0
 47 55  1  0
 47 57  1  0
 48 54  1  0
 48 50  1  0
 49 55  1  0
 50 51  2  0
 50 49  1  0
 52 46  2  0
 53 52  1  0
 53 48  2  0
 54 47  1  0
 55 45  1  0
 57 59  2  0
 58 57  1  0
 60 58  1  0
 61 70  2  0
 61 66  1  0
 62 58  1  0
 62 66  1  0
 63 62  1  0
 64 65  1  0
 64 63  1  0
 65 61  1  0
 66 67  2  0
 67 68  1  0
 69 68  2  0
 70 69  1  0
 71 45  1  0
 71 76  1  0
 71 72  1  0
 72 75  1  1
 72 73  1  0
 74 72  1  0
 76 79  1  0
 77 81  1  0
 77 76  1  0
 78 77  2  0
 81 80  1  0
 83 84  1  0
 83 81  1  0
 83 82  1  0
 86 87  1  0
 86 85  1  0
 88 86  1  0
 89 86  1  0
M  ISO  4   1 100  14 100  43 101  44 101
M  END
>  <TORSDO>  (19) 
F 18

>  <SCORE>  (19) 
-15.331

>  <name>  (19) 
18

>  <ligand_id>  (19) 
18

>  <original_smiles>  (19) 
[H]c1c([H])c([H])c2c(c1[H])C([H])([H])C([H])([H])C([H])([H])C2([H])N([H])C(=O)C1([H])N(C(=O)C([H])(N([H])C(=O)C([H])(N([H])C([H])([H])[H])C([H])([H])[H])C(C([H])([H])[H])(C([H])([H])[H])C([H])([H])[H])C([H])([H])c2c([H])c(OC([H])([H])C3([H])C([H])([H])C([H])([H])N(C(=O)N4C([H])([H])C([H])([H])C([H])([H])C([H])(n5nc(-c6c([H])c([H])c(Oc7c([H])c([H])c(F)c([H])c7F)c([H])c6[H])c(C(=O)N([H])[H])c5N([H])[H])C4([H])[H])C([H])(C([H])([H])[N+]([H])([H])[H])C3([H])[H])c([H])c([H])c2C1([H])[H]

>  <smiles>  (19) 
[H]c1c([H])c([H])c2c(c1[H])C([H])([H])C([H])([H])C([H])([H])C2([H])N([H])C(=O)C1([H])N(C(=O)C([H])(N([H])C(=O)C([H])(N([H])C([H])([H])[H])C([H])([H])[H])C(C([H])([H])[H])(C([H])([H])[H])C([H])([H])[H])C([H])([H])c2c([H])c(OC([H])([H])C3([H])C([H])([H])C([H])([H])N(C(=O)N4C([H])([H])C([H])([H])C([H])([H])C([H])(n5nc(-c6c([H])c([H])c(Oc7c([H])c([H])c(F)c([H])c7F)c([H])c6[H])c(C(=O)N([H])[H])c5N([H])[H])C4([H])[H])C([H])(C([H])([H])[N+]([H])([H])[H])C3([H])[H])c([H])c([H])c2C1([H])[H]

$$$$
19:0:0
     RDKit          3D

 91 98  0  0  1  0  0  0  0  0999 V2000
  -29.2650  -22.0770   20.2710 C   0  0  0  0  0  2  0  0  0  0  0  0
  -28.2670  -23.6720   18.5000 C   0  0  0  0  0  1  0  0  0  0  0  0
  -26.8020  -22.9100   20.3530 C   0  0  0  0  0  1  0  0  0  0  0  0
  -28.2240  -23.3900   20.0150 C   0  0  1  0  0  0  0  0  0  0  0  0
  -28.4210  -24.8930   20.7510 C   0  0  0  0  0  2  0  0  0  0  0  0
  -28.3540  -26.3340   20.1900 O   0  0  0  0  0  0  0  0  0  0  0  0
  -24.6150  -31.9050   23.2630 C   0  0  0  0  0  0  0  0  0  0  0  0
  -27.2360  -27.2270   20.2560 C   0  0  0  0  0  0  0  0  0  0  0  0
  -23.4260  -30.4970   21.6230 C   0  0  0  0  0  3  0  0  0  0  0  0
  -24.8850  -28.9210   20.2170 C   0  0  0  0  0  0  0  0  0  0  0  0
  -25.9740  -30.7910   21.4550 C   0  0  0  0  0  2  0  0  0  0  0  0
  -26.0600  -29.3960   20.8160 C   0  0  0  0  0  0  0  0  0  0  0  0
  -27.2390  -28.5660   20.8100 C   0  0  0  0  0  3  0  0  0  0  0  0
  -26.0330  -26.8310   19.6440 C   0  0  0  0  0  3  0  0  0  0  0  0
  -24.8820  -27.6500   19.6180 C   0  0  0  0  0  3  0  0  0  0  0  0
  -23.6520  -29.8090   20.2500 C   0  0  0  0  0  2  0  0  0  0  0  0
  -24.6920  -31.0860   22.1700 N   0  0  0  0  0  0  0  0  0  0  0  0
  -23.5250  -32.1810   23.7900 O   0  0  0  0  0  0  0  0  0  0  0  0
  -22.7540  -29.4870   22.5860 C   0  0  0  0  0  0  0  0  0  0  0  0
  -21.4300  -29.2970   22.4480 N   0  0  0  0  0  0  0  0  0  0  0  0
  -23.4290  -28.8750   23.4180 O   0  0  0  0  0  0  0  0  0  0  0  0
  -20.9440  -29.8450   21.7520 H   0  0  0  0  0  0  0  0  0  0  0  0
  -18.0630  -28.0500   22.9190 C   0  0  0  0  0  0  0  0  0  0  0  0
  -20.6140  -28.3530   23.2170 C   0  0  0  0  0  3  0  0  0  0  0  0
  -20.7440  -26.9170   22.6570 C   0  0  0  0  0  2  0  0  0  0  0  0
  -19.6590  -26.5700   21.6320 C   0  0  0  0  0  2  0  0  0  0  0  0
  -18.2670  -26.6990   22.2560 C   0  0  0  0  0  2  0  0  0  0  0  0
  -19.1640  -28.8340   23.3560 C   0  0  0  0  0  0  0  0  0  0  0  0
  -18.9180  -30.0980   23.9340 C   0  0  0  0  0  3  0  0  0  0  0  0
  -17.6020  -30.5780   24.0830 C   0  0  0  0  0  3  0  0  0  0  0  0
  -16.5150  -29.7920   23.6620 C   0  0  0  0  0  3  0  0  0  0  0  0
  -16.7470  -28.5300   23.0860 C   0  0  0  0  0  3  0  0  0  0  0  0
  -25.8870  -32.5500   23.8920 C   0  0  0  0  0  3  0  0  0  0  0  0
  -25.5750  -33.9540   24.1990 N   0  0  0  0  0  0  0  0  0  0  0  0
  -25.9120  -34.9980   23.4300 C   0  0  0  0  0  0  0  0  0  0  0  0
  -26.5880  -34.8820   22.4050 O   0  0  0  0  0  0  0  0  0  0  0  0
  -24.9820  -34.1210   24.9990 H   0  0  0  0  0  0  0  0  0  0  0  0
  -24.1920  -36.7940   23.0400 C   0  0  0  0  0  1  0  0  0  0  0  0
  -25.4240  -36.3960   23.8680 C   0  0  0  0  0  3  0  0  0  0  0  0
  -27.5500  -37.2880   24.7150 C   0  0  0  0  0  1  0  0  0  0  0  0
  -26.4610  -37.4460   23.7540 N   0  0  0  0  0  0  0  0  0  0  0  0
  -26.0550  -38.3680   23.8870 H   0  0  0  0  0  0  0  0  0  0  0  0
  -26.3840  -31.8020   25.1900 C   0  0  1  0  0  0  0  0  0  0  0  0
  -25.2760  -31.5860   26.2480 C   0  0  0  0  0  1  0  0  0  0  0  0
  -26.9700  -30.4160   24.8350 C   0  0  0  0  0  1  0  0  0  0  0  0
  -27.5260  -32.6070   25.8530 C   0  0  0  0  0  1  0  0  0  0  0  0
  -28.9550  -20.5050   20.8030 C   0  0  0  0  0  2  0  0  0  0  0  0
  -29.1570  -19.0080   20.0520 C   0  0  0  0  0  2  0  0  0  0  0  0
  -30.1720  -17.7450   20.5230 C   0  0  0  0  0  3  0  0  0  0  0  0
  -30.5460  -14.9890   20.2190 C   0  0  0  0  0  0  0  0  0  0  0  0
  -30.3680  -12.6640   19.2410 C   0  0  0  0  0  2  0  0  0  0  0  0
  -29.4240  -12.6520   18.0190 C   0  0  0  0  0  2  0  0  0  0  0  0
  -27.9670  -12.4370   18.4690 C   0  0  0  0  0  2  0  0  0  0  0  0
  -27.5760  -13.3430   19.6670 C   0  0  0  0  0  3  0  0  0  0  0  0
  -28.6480  -13.3490   20.7770 C   0  0  0  0  0  2  0  0  0  0  0  0
  -29.9090  -13.7540   20.1470 N   0  0  0  0  0  0  0  0  0  0  0  0
  -31.7560  -14.9880   19.9840 O   0  0  0  0  0  0  0  0  0  0  0  0
  -29.8080  -16.2040   20.3470 N   0  0  0  0  0  0  0  0  0  0  0  0
  -28.8170  -16.0280   20.4250 H   0  0  0  0  0  0  0  0  0  0  0  0
  -25.1980  -13.9010   20.4240 C   0  0  0  0  0  0  0  0  0  0  0  0
  -24.1450  -13.1170   20.8050 C   0  0  0  0  0  0  0  0  0  0  0  0
  -24.6220  -11.7700   20.7730 C   0  0  0  0  0  0  0  0  0  0  0  0
  -26.2480  -13.0320   20.1800 N   0  0  0  0  0  0  0  0  0  0  0  0
  -25.9120  -11.7460   20.4570 N   0  0  0  0  0  0  0  0  0  0  0  0
  -23.9090  -10.5010   20.9700 C   0  0  0  0  0  0  0  0  0  0  0  0
  -24.3430   -9.5480   21.9170 C   0  0  0  0  0  3  0  0  0  0  0  0
  -23.6280   -8.3450   22.1020 C   0  0  0  0  0  3  0  0  0  0  0  0
  -22.4640   -8.0870   21.3400 C   0  0  0  0  0  0  0  0  0  0  0  0
  -22.0470   -9.0290   20.3830 C   0  0  0  0  0  3  0  0  0  0  0  0
  -22.7630  -10.2230   20.1960 C   0  0  0  0  0  3  0  0  0  0  0  0
  -21.7190   -6.9350   21.4350 O   0  0  0  0  0  0  0  0  0  0  0  0
  -21.6590   -6.2110   22.5970 C   0  0  0  0  0  0  0  0  0  0  0  0
  -21.1890   -6.7740   23.8030 C   0  0  0  0  0  3  0  0  0  0  0  0
  -21.0790   -5.9750   24.9570 C   0  0  0  0  0  3  0  0  0  0  0  0
  -21.4260   -4.6110   24.9070 C   0  0  0  0  0  0  0  0  0  0  0  0
  -21.8880   -4.0470   23.7050 C   0  0  0  0  0  3  0  0  0  0  0  0
  -22.0020   -4.8440   22.5530 C   0  0  0  0  0  0  0  0  0  0  0  0
  -22.4270   -4.2890   21.3930 F   0  0  0  0  0  0  0  0  0  0  0  0
  -21.3130   -3.8410   26.0140 F   0  0  0  0  0  0  0  0  0  0  0  0
  -22.7450  -13.5810   21.0790 C   0  0  0  0  0  0  0  0  0  0  0  0
  -22.0260  -12.8780   21.9490 N   0  0  0  0  0  0  0  0  0  0  0  0
  -22.2980  -14.6030   20.5600 O   0  0  0  0  0  0  0  0  0  0  0  0
  -22.4030  -12.0510   22.3890 H   0  0  0  0  0  0  0  0  0  0  0  0
  -21.0870  -13.1700   22.1770 H   0  0  0  0  0  0  0  0  0  0  0  0
  -25.3440  -15.2730   20.2380 N   0  0  0  0  0  0  0  0  0  0  0  0
  -24.5640  -15.9130   20.3360 H   0  0  0  0  0  0  0  0  0  0  0  0
  -26.1720  -15.7160   19.8620 H   0  0  0  0  0  0  0  0  0  0  0  0
  -31.6960  -17.9790   18.4560 C   0  0  0  0  0  1  0  0  0  0  0  0
  -31.6120  -18.0390   19.9960 C   0  0  0  0  0  3  0  0  0  0  0  0
  -33.7060  -19.5250   20.2250 C   0  0  0  0  0  1  0  0  0  0  0  0
  -32.2090  -19.3560   20.5360 C   0  0  0  0  0  2  0  0  0  0  0  0
  1 47  1  0
  4  2  1  6
  4  1  1  0
  4  3  1  0
  4  5  1  0
  6  8  1  0
  6  5  1  0
  7 18  2  0
  8 13  1  0
  9 17  1  0
  9 19  1  0
 10 16  1  0
 10 12  1  0
 11 17  1  0
 12 11  1  0
 13 12  2  0
 14  8  2  0
 15 14  1  0
 15 10  2  0
 16  9  1  0
 17  7  1  0
 19 21  2  0
 20 19  1  0
 22 20  1  0
 23 32  2  0
 23 28  1  0
 24 20  1  0
 24 28  1  0
 25 24  1  0
 26 27  1  0
 26 25  1  0
 27 23  1  0
 28 29  2  0
 29 30  1  0
 31 30  2  0
 32 31  1  0
 33  7  1  0
 33 34  1  0
 33 43  1  0
 34 37  1  0
 35 39  1  0
 35 34  1  0
 36 35  2  0
 39 38  1  0
 41 39  1  0
 41 42  1  0
 41 40  1  0
 43 46  1  1
 43 44  1  0
 45 43  1  0
 48 47  1  0
 49 48  1  0
 50 58  1  0
 51 56  1  0
 52 53  1  0
 52 51  1  0
 54 53  1  0
 54 63  1  0
 54 55  1  0
 56 50  1  0
 56 55  1  0
 57 50  2  0
 58 59  1  0
 58 49  1  0
 60 61  2  0
 61 80  1  0
 62 61  1  0
 62 65  1  0
 63 60  1  0
 63 64  1  0
 64 62  2  0
 65 66  1  0
 66 67  2  0
 68 71  1  0
 68 67  1  0
 69 68  2  0
 70 69  1  0
 70 65  2  0
 71 72  1  0
 72 73  1  0
 73 74  2  0
 75 74  1  0
 75 79  1  0
 76 75  2  0
 77 72  2  0
 77 76  1  0
 78 77  1  0
 80 81  1  0
 81 84  1  0
 81 83  1  0
 82 80  2  0
 85 86  1  0
 85 60  1  0
 87 85  1  0
 89 88  1  0
 89 49  1  0
 89 91  1  0
 90 91  1  0
M  ISO  4   5 101   6 101  50 100  58 100
M  END
>  <TORSDO>  (20) 
F 23

>  <SCORE>  (20) 
-13.380

>  <name>  (20) 
19

>  <ligand_id>  (20) 
19

>  <original_smiles>  (20) 
[H]c1c([H])c([H])c2c(c1[H])C([H])([H])C([H])([H])C([H])([H])C2([H])N([H])C(=O)C1([H])N(C(=O)C([H])(N([H])C(=O)C([H])(N([H])C([H])([H])[H])C([H])([H])[H])C(C([H])([H])[H])(C([H])([H])[H])C([H])([H])[H])C([H])([H])c2c([H])c(OC([H])([H])C(C([H])([H])[H])(C([H])([H])[H])C([H])([H])C([H])([H])C([H])([H])C([H])(N([H])C(=O)N3C([H])([H])C([H])([H])C([H])([H])C([H])(n4nc(-c5c([H])c([H])c(Oc6c([H])c([H])c(F)c([H])c6F)c([H])c5[H])c(C(=O)N([H])[H])c4N([H])[H])C3([H])[H])C([H])(C([H])([H])[H])C([H])([H])C([H])([H])[H])c([H])c([H])c2C1([H])[H]

>  <smiles>  (20) 
[H]c1c([H])c([H])c2c(c1[H])C([H])([H])C([H])([H])C([H])([H])C2([H])N([H])C(=O)C1([H])N(C(=O)C([H])(N([H])C(=O)C([H])(N([H])C([H])([H])[H])C([H])([H])[H])C(C([H])([H])[H])(C([H])([H])[H])C([H])([H])[H])C([H])([H])c2c([H])c(OC([H])([H])C(C([H])([H])[H])(C([H])([H])[H])C([H])([H])C([H])([H])C([H])([H])C([H])(N([H])C(=O)N3C([H])([H])C([H])([H])C([H])([H])C([H])(n4nc(-c5c([H])c([H])c(Oc6c([H])c([H])c(F)c([H])c6F)c([H])c5[H])c(C(=O)N([H])[H])c4N([H])[H])C3([H])[H])C([H])(C([H])([H])[H])C([H])([H])C([H])([H])[H])c([H])c([H])c2C1([H])[H]

$$$$
20:0:0
     RDKit          3D

100107  0  0  1  0  0  0  0  0999 V2000
  -28.9300  -21.3390   22.6160 C   0  0  0  0  0  3  0  0  0  0  0  0
  -29.5210  -20.7560   23.8410 N   0  0  0  0  0  4  0  0  0  0  0  0
  -29.2220  -19.8050   23.9710 H   0  0  0  0  0  0  0  0  0  0  0  0
  -29.2440  -21.2840   24.6490 H   0  0  0  0  0  0  0  0  0  0  0  0
  -30.5250  -20.7750   23.7960 H   0  0  0  0  0  0  0  0  0  0  0  0
  -29.1210  -20.3410   21.4200 C   0  0  0  0  0  3  0  0  0  0  0  0
  -28.7920  -20.8480   19.9840 C   0  0  0  0  0  2  0  0  0  0  0  0
  -26.8550  -20.8910   18.3310 C   0  0  0  0  0  1  0  0  0  0  0  0
  -27.1050  -22.8350   19.9420 C   0  0  0  0  0  1  0  0  0  0  0  0
  -27.3320  -21.3210   19.7350 C   0  0  0  0  0  3  0  0  0  0  0  0
  -30.3930  -19.4260   21.4450 C   0  0  0  0  0  2  0  0  0  0  0  0
  -29.9810  -17.9250   21.3080 C   0  0  0  0  0  2  0  0  0  0  0  0
  -31.3790  -14.5020   20.3630 C   0  0  0  0  0  0  0  0  0  0  0  0
  -30.9790  -12.3220   19.2910 C   0  0  0  0  0  2  0  0  0  0  0  0
  -30.0920  -12.5340   18.0500 C   0  0  0  0  0  2  0  0  0  0  0  0
  -28.5940  -12.5300   18.4300 C   0  0  0  0  0  2  0  0  0  0  0  0
  -28.2750  -13.4480   19.6400 C   0  0  0  0  0  3  0  0  0  0  0  0
  -29.2740  -13.1900   20.7920 C   0  0  0  0  0  2  0  0  0  0  0  0
  -30.6380  -13.3670   20.2590 N   0  0  0  0  0  0  0  0  0  0  0  0
  -32.5310  -14.6280   19.9280 O   0  0  0  0  0  0  0  0  0  0  0  0
  -31.0570  -16.9550   20.8630 C   0  0  0  0  0  0  0  0  0  0  0  0
  -30.6580  -15.6540   20.8280 N   0  0  0  0  0  0  0  0  0  0  0  0
  -32.3000  -17.3920   20.5540 N   0  0  0  0  0  4  0  0  0  0  0  0
  -29.7090  -15.5280   21.1340 H   0  0  0  0  0  0  0  0  0  0  0  0
  -33.0280  -16.7320   20.2900 H   0  0  0  0  0  0  0  0  0  0  0  0
  -32.5580  -18.3700   20.5930 H   0  0  0  0  0  0  0  0  0  0  0  0
  -25.9360  -14.2680   20.3160 C   0  0  0  0  0  0  0  0  0  0  0  0
  -24.7940  -13.5950   20.6670 C   0  0  0  0  0  0  0  0  0  0  0  0
  -25.1300  -12.2070   20.6290 C   0  0  0  0  0  0  0  0  0  0  0  0
  -26.8950  -13.2940   20.0870 N   0  0  0  0  0  0  0  0  0  0  0  0
  -26.4150  -12.0490   20.3340 N   0  0  0  0  0  0  0  0  0  0  0  0
  -24.2860  -11.0150   20.7980 C   0  0  0  0  0  0  0  0  0  0  0  0
  -24.6490   -9.9760   21.6810 C   0  0  0  0  0  3  0  0  0  0  0  0
  -23.8190   -8.8420   21.8320 C   0  0  0  0  0  3  0  0  0  0  0  0
  -22.6100   -8.7480   21.1040 C   0  0  0  0  0  0  0  0  0  0  0  0
  -22.2630   -9.7760   20.2120 C   0  0  0  0  0  3  0  0  0  0  0  0
  -23.0930  -10.8990   20.0580 C   0  0  0  0  0  3  0  0  0  0  0  0
  -21.7510   -7.6760   21.1730 O   0  0  0  0  0  0  0  0  0  0  0  0
  -21.6820   -6.8810   22.2870 C   0  0  0  0  0  0  0  0  0  0  0  0
  -21.4140   -7.4120   23.5690 C   0  0  0  0  0  3  0  0  0  0  0  0
  -21.2820   -6.5480   24.6740 C   0  0  0  0  0  3  0  0  0  0  0  0
  -21.4080   -5.1560   24.5010 C   0  0  0  0  0  0  0  0  0  0  0  0
  -21.6700   -4.6270   23.2260 C   0  0  0  0  0  3  0  0  0  0  0  0
  -21.8050   -5.4860   22.1220 C   0  0  0  0  0  0  0  0  0  0  0  0
  -22.0360   -4.9690   20.8910 F   0  0  0  0  0  0  0  0  0  0  0  0
  -21.2730   -4.3260   25.5610 F   0  0  0  0  0  0  0  0  0  0  0  0
  -23.4410  -14.2020   20.9130 C   0  0  0  0  0  0  0  0  0  0  0  0
  -22.6380  -13.5830   21.7750 N   0  0  0  0  0  0  0  0  0  0  0  0
  -23.1010  -15.2530   20.3770 O   0  0  0  0  0  0  0  0  0  0  0  0
  -22.9150  -12.7290   22.2310 H   0  0  0  0  0  0  0  0  0  0  0  0
  -21.7370  -13.9830   21.9870 H   0  0  0  0  0  0  0  0  0  0  0  0
  -26.2350  -15.6150   20.1480 N   0  0  0  0  0  0  0  0  0  0  0  0
  -25.5100  -16.3220   20.2050 H   0  0  0  0  0  0  0  0  0  0  0  0
  -27.0590  -15.9280   19.6500 H   0  0  0  0  0  0  0  0  0  0  0  0
  -29.3440  -22.8470   22.5340 C   0  0  0  0  0  2  0  0  0  0  0  0
  -29.3610  -23.6270   21.1910 C   0  0  0  0  0  2  0  0  0  0  0  0
  -30.3300  -25.7170   22.3590 C   0  0  0  0  0  1  0  0  0  0  0  0
  -29.3010  -25.1770   21.3450 C   0  0  0  0  0  3  0  0  0  0  0  0
  -29.4800  -25.9120   19.9930 C   0  0  0  0  0  2  0  0  0  0  0  0
  -29.2500  -27.3200   20.1520 O   0  0  0  0  0  0  0  0  0  0  0  0
  -24.6170  -31.8180   23.1400 C   0  0  0  0  0  0  0  0  0  0  0  0
  -27.9670  -27.8270   20.1320 C   0  0  0  0  0  0  0  0  0  0  0  0
  -23.6890  -30.3230   21.4000 C   0  0  0  0  0  3  0  0  0  0  0  0
  -25.4020  -29.0170   20.0440 C   0  0  0  0  0  0  0  0  0  0  0  0
  -26.1600  -31.0040   21.3580 C   0  0  0  0  0  2  0  0  0  0  0  0
  -26.4510  -29.6740   20.6980 C   0  0  0  0  0  0  0  0  0  0  0  0
  -27.7370  -29.0850   20.7330 C   0  0  0  0  0  3  0  0  0  0  0  0
  -26.8900  -27.1760   19.4850 C   0  0  0  0  0  3  0  0  0  0  0  0
  -25.6130  -27.7680   19.4410 C   0  0  0  0  0  3  0  0  0  0  0  0
  -24.0560  -29.7040   20.0250 C   0  0  0  0  0  2  0  0  0  0  0  0
  -24.8350  -31.0630   22.0250 N   0  0  0  0  0  0  0  0  0  0  0  0
  -23.4840  -31.9370   23.6220 O   0  0  0  0  0  0  0  0  0  0  0  0
  -23.1230  -29.2000   22.2970 C   0  0  0  0  0  0  0  0  0  0  0  0
  -21.8270  -28.8930   22.1170 N   0  0  0  0  0  0  0  0  0  0  0  0
  -23.8430  -28.6070   23.1040 O   0  0  0  0  0  0  0  0  0  0  0  0
  -21.3030  -29.4170   21.4310 H   0  0  0  0  0  0  0  0  0  0  0  0
  -18.5540  -27.4160   22.5270 C   0  0  0  0  0  0  0  0  0  0  0  0
  -21.0840  -27.8540   22.8270 C   0  0  0  0  0  3  0  0  0  0  0  0
  -21.2990  -26.4760   22.1640 C   0  0  0  0  0  2  0  0  0  0  0  0
  -20.2240  -26.1300   21.1280 C   0  0  0  0  0  2  0  0  0  0  0  0
  -18.8350  -26.1270   21.7720 C   0  0  0  0  0  2  0  0  0  0  0  0
  -19.6110  -28.2340   23.0060 C   0  0  0  0  0  0  0  0  0  0  0  0
  -19.3010  -29.4400   23.6710 C   0  0  0  0  0  3  0  0  0  0  0  0
  -17.9630  -29.8290   23.8650 C   0  0  0  0  0  3  0  0  0  0  0  0
  -16.9190  -29.0090   23.4010 C   0  0  0  0  0  3  0  0  0  0  0  0
  -17.2140  -27.8050   22.7390 C   0  0  0  0  0  3  0  0  0  0  0  0
  -25.7780  -32.5840   23.8530 C   0  0  0  0  0  3  0  0  0  0  0  0
  -26.2460  -31.9010   25.1940 C   0  0  1  0  0  0  0  0  0  0  0  0
  -25.0810  -31.5410   26.1440 C   0  0  0  0  0  1  0  0  0  0  0  0
  -27.0400  -30.6060   24.9040 C   0  0  0  0  0  1  0  0  0  0  0  0
  -27.2110  -32.8420   25.9530 C   0  0  0  0  0  1  0  0  0  0  0  0
  -25.3150  -33.9560   24.1000 N   0  0  0  0  0  0  0  0  0  0  0  0
  -25.6120  -35.0080   23.3220 C   0  0  0  0  0  0  0  0  0  0  0  0
  -26.3730  -34.9310   22.3520 O   0  0  0  0  0  0  0  0  0  0  0  0
  -24.6500  -34.0850   24.8460 H   0  0  0  0  0  0  0  0  0  0  0  0
  -23.7510  -36.5980   22.7600 C   0  0  0  0  0  1  0  0  0  0  0  0
  -24.9590  -36.3560   23.6780 C   0  0  0  0  0  3  0  0  0  0  0  0
  -26.9400  -37.4640   24.6070 C   0  0  0  0  0  1  0  0  0  0  0  0
  -25.8900  -37.4990   23.5930 N   0  0  0  0  0  0  0  0  0  0  0  0
  -25.3900  -38.3770   23.6870 H   0  0  0  0  0  0  0  0  0  0  0  0
  1 55  1  0
  1  2  1  0
  2  3  1  0
  2  4  1  0
  5  2  1  0
  6  7  1  0
  6 11  1  0
  6  1  1  0
  8 10  1  0
 10  9  1  0
 10  7  1  0
 12 11  1  0
 13 22  1  0
 14 19  1  0
 15 16  1  0
 15 14  1  0
 17 16  1  0
 17 30  1  0
 17 18  1  0
 19 13  1  0
 19 18  1  0
 20 13  2  0
 21 12  1  0
 22 21  1  0
 22 24  1  0
 23 26  1  0
 23 21  2  0
 25 23  1  0
 27 28  2  0
 28 47  1  0
 29 28  1  0
 29 32  1  0
 30 27  1  0
 30 31  1  0
 31 29  2  0
 32 33  1  0
 33 34  2  0
 35 38  1  0
 35 34  1  0
 36 35  2  0
 37 36  1  0
 37 32  2  0
 38 39  1  0
 39 40  1  0
 40 41  2  0
 42 41  1  0
 42 46  1  0
 43 42  2  0
 44 39  2  0
 44 43  1  0
 45 44  1  0
 47 48  1  0
 48 51  1  0
 48 50  1  0
 49 47  2  0
 52 53  1  0
 52 27  1  0
 54 52  1  0
 56 58  1  0
 56 55  1  0
 58 57  1  0
 59 60  1  0
 59 58  1  0
 61 72  2  0
 62 60  1  0
 62 67  1  0
 63 71  1  0
 63 73  1  0
 64 66  1  0
 65 71  1  0
 66 67  2  0
 66 65  1  0
 68 62  2  0
 69 68  1  0
 69 64  2  0
 70 64  1  0
 70 63  1  0
 71 61  1  0
 73 75  2  0
 74 73  1  0
 76 74  1  0
 77 86  2  0
 77 82  1  0
 78 74  1  0
 78 82  1  0
 79 78  1  0
 80 81  1  0
 80 79  1  0
 81 77  1  0
 82 83  2  0
 83 84  1  0
 85 84  2  0
 86 85  1  0
 87 61  1  0
 87 92  1  0
 87 88  1  0
 88 91  1  1
 88 89  1  0
 90 88  1  0
 92 95  1  0
 93 97  1  0
 93 92  1  0
 94 93  2  0
 97 96  1  0
 99 97  1  0
 99100  1  0
 99 98  1  0
M  ISO  4  13 100  22 100  59 101  60 101
M  END
>  <TORSDO>  (21) 
F 26

>  <SCORE>  (21) 
-9.593

>  <name>  (21) 
20

>  <ligand_id>  (21) 
20

>  <original_smiles>  (21) 
[H]c1c([H])c([H])c2c(c1[H])C([H])([H])C([H])([H])C([H])([H])C2([H])N([H])C(=O)C1([H])N(C(=O)C([H])(N([H])C(=O)C([H])(N([H])C([H])([H])[H])C([H])([H])[H])C(C([H])([H])[H])(C([H])([H])[H])C([H])([H])[H])C([H])([H])c2c([H])c(OC([H])([H])C([H])(C([H])([H])[H])C([H])([H])C([H])([H])C([H])(C([H])(C([H])([H])C([H])([H])C(N([H])C(=O)N3C([H])([H])C([H])([H])C([H])([H])C([H])(n4nc(-c5c([H])c([H])c(Oc6c([H])c([H])c(F)c([H])c6F)c([H])c5[H])c(C(=O)N([H])[H])c4N([H])[H])C3([H])[H])=[N+]([H])[H])C([H])([H])C([H])(C([H])([H])[H])C([H])([H])[H])[N+]([H])([H])[H])c([H])c([H])c2C1([H])[H]

>  <smiles>  (21) 
[H]c1c([H])c([H])c2c(c1[H])C([H])([H])C([H])([H])C([H])([H])C2([H])N([H])C(=O)C1([H])N(C(=O)C([H])(N([H])C(=O)C([H])(N([H])C([H])([H])[H])C([H])([H])[H])C(C([H])([H])[H])(C([H])([H])[H])C([H])([H])[H])C([H])([H])c2c([H])c(OC([H])([H])C([H])(C([H])([H])[H])C([H])([H])C([H])([H])C([H])(C([H])(C([H])([H])C([H])([H])C(N([H])C(=O)N3C([H])([H])C([H])([H])C([H])([H])C([H])(n4nc(-c5c([H])c([H])c(Oc6c([H])c([H])c(F)c([H])c6F)c([H])c5[H])c(C(=O)N([H])[H])c4N([H])[H])C3([H])[H])=[N+]([H])[H])C([H])([H])C([H])(C([H])([H])[H])C([H])([H])[H])[N+]([H])([H])[H])c([H])c([H])c2C1([H])[H]

$$$$
21:0:0
     RDKit          3D

 97105  0  0  1  0  0  0  0  0999 V2000
  -27.4600  -19.9430   19.2310 C   0  0  0  0  0  2  0  0  0  0  0  0
  -26.8460  -20.6570   18.0070 C   0  0  0  0  0  2  0  0  0  0  0  0
  -28.0300  -22.8690   17.9780 C   0  0  0  0  0  2  0  0  0  0  0  0
  -28.8280  -23.0890   19.2880 C   0  0  0  0  0  3  0  0  0  0  0  0
  -29.2080  -21.5780   19.9820 C   0  0  0  0  0  3  0  0  0  0  0  0
  -28.9050  -20.1720   19.3560 N   0  0  0  0  0  0  0  0  0  0  0  0
  -26.7570  -22.1280   18.1560 N   0  0  0  0  0  4  0  0  0  0  0  0
  -26.3090  -22.3640   19.0240 H   0  0  0  0  0  0  0  0  0  0  0  0
  -26.1390  -22.4370   17.4210 H   0  0  0  0  0  0  0  0  0  0  0  0
  -28.1990  -24.4430   20.1040 C   0  0  0  0  0  2  0  0  0  0  0  0
  -28.4760  -25.9760   19.9230 O   0  0  0  0  0  0  0  0  0  0  0  0
  -24.6700  -31.5430   23.0380 C   0  0  0  0  0  0  0  0  0  0  0  0
  -27.4120  -26.9510   19.9290 C   0  0  0  0  0  0  0  0  0  0  0  0
  -23.5480  -30.1670   21.3360 C   0  0  0  0  0  3  0  0  0  0  0  0
  -25.0630  -28.6650   19.9030 C   0  0  0  0  0  0  0  0  0  0  0  0
  -26.1000  -30.4800   21.2490 C   0  0  0  0  0  2  0  0  0  0  0  0
  -26.2180  -29.1040   20.5600 C   0  0  0  0  0  0  0  0  0  0  0  0
  -27.3960  -28.2630   20.5630 C   0  0  0  0  0  3  0  0  0  0  0  0
  -26.2340  -26.6280   19.2260 C   0  0  0  0  0  3  0  0  0  0  0  0
  -25.0850  -27.4400   19.2200 C   0  0  0  0  0  3  0  0  0  0  0  0
  -23.8200  -29.5380   19.9440 C   0  0  0  0  0  2  0  0  0  0  0  0
  -24.7940  -30.7510   21.9290 N   0  0  0  0  0  0  0  0  0  0  0  0
  -23.5640  -31.7930   23.5380 O   0  0  0  0  0  0  0  0  0  0  0  0
  -22.8660  -29.1180   22.2490 C   0  0  0  0  0  0  0  0  0  0  0  0
  -21.5360  -28.9610   22.1200 N   0  0  0  0  0  0  0  0  0  0  0  0
  -23.5360  -28.4470   23.0400 O   0  0  0  0  0  0  0  0  0  0  0  0
  -21.0500  -29.5590   21.4650 H   0  0  0  0  0  0  0  0  0  0  0  0
  -18.1440  -27.7780   22.6000 C   0  0  0  0  0  0  0  0  0  0  0  0
  -20.7100  -27.9920   22.8460 C   0  0  0  0  0  3  0  0  0  0  0  0
  -20.7840  -26.5920   22.1930 C   0  0  0  0  0  2  0  0  0  0  0  0
  -19.6650  -26.3400   21.1780 C   0  0  0  0  0  2  0  0  0  0  0  0
  -18.2920  -26.4670   21.8470 C   0  0  0  0  0  2  0  0  0  0  0  0
  -19.2790  -28.5020   23.0540 C   0  0  0  0  0  0  0  0  0  0  0  0
  -19.0820  -29.7320   23.7190 C   0  0  0  0  0  3  0  0  0  0  0  0
  -17.7860  -30.2390   23.9310 C   0  0  0  0  0  3  0  0  0  0  0  0
  -16.6670  -29.5110   23.4900 C   0  0  0  0  0  3  0  0  0  0  0  0
  -16.8460  -28.2820   22.8320 C   0  0  0  0  0  3  0  0  0  0  0  0
  -25.9170  -32.1910   23.7180 C   0  0  0  0  0  3  0  0  0  0  0  0
  -25.5620  -33.5740   24.0790 N   0  0  0  0  0  0  0  0  0  0  0  0
  -25.8950  -34.6580   23.3690 C   0  0  0  0  0  0  0  0  0  0  0  0
  -26.5990  -34.6030   22.3560 O   0  0  0  0  0  0  0  0  0  0  0  0
  -24.9410  -33.6910   24.8670 H   0  0  0  0  0  0  0  0  0  0  0  0
  -24.1460  -36.4350   23.0120 C   0  0  0  0  0  1  0  0  0  0  0  0
  -25.3660  -36.0240   23.8530 C   0  0  0  0  0  3  0  0  0  0  0  0
  -27.4500  -36.9220   24.7920 C   0  0  0  0  0  1  0  0  0  0  0  0
  -26.3800  -37.1000   23.8130 N   0  0  0  0  0  0  0  0  0  0  0  0
  -25.9520  -38.0070   23.9760 H   0  0  0  0  0  0  0  0  0  0  0  0
  -26.4070  -31.3990   24.9920 C   0  0  1  0  0  0  0  0  0  0  0  0
  -25.2900  -31.1230   26.0260 C   0  0  0  0  0  1  0  0  0  0  0  0
  -27.0170  -30.0380   24.5890 C   0  0  0  0  0  1  0  0  0  0  0  0
  -27.5310  -32.1910   25.7010 C   0  0  0  0  0  1  0  0  0  0  0  0
  -30.6620  -21.5090   20.5110 C   0  0  0  0  0  2  0  0  0  0  0  0
  -29.8670  -22.2580   22.8730 C   0  0  0  0  0  1  0  0  0  0  0  0
  -32.2830  -21.7490   22.4270 C   0  0  0  0  0  1  0  0  0  0  0  0
  -30.9820  -22.2900   21.8080 C   0  0  0  0  0  3  0  0  0  0  0  0
  -29.7570  -18.8860   19.0150 C   0  0  0  0  0  2  0  0  0  0  0  0
  -30.3640  -17.6250   19.9800 C   0  0  0  0  0  3  0  0  0  0  0  0
  -31.1580  -14.9280   19.6610 C   0  0  0  0  0  0  0  0  0  0  0  0
  -30.9820  -12.5050   18.9300 C   0  0  0  0  0  2  0  0  0  0  0  0
  -29.9920  -12.3930   17.7490 C   0  0  0  0  0  2  0  0  0  0  0  0
  -28.5400  -12.2670   18.2560 C   0  0  0  0  0  2  0  0  0  0  0  0
  -28.2130  -13.3030   19.3630 C   0  0  0  0  0  3  0  0  0  0  0  0
  -29.3130  -13.3540   20.4400 C   0  0  0  0  0  2  0  0  0  0  0  0
  -30.5630  -13.6760   19.7380 N   0  0  0  0  0  0  0  0  0  0  0  0
  -32.3710  -14.9750   19.4320 O   0  0  0  0  0  0  0  0  0  0  0  0
  -30.3190  -16.0800   19.6260 N   0  0  0  0  0  0  0  0  0  0  0  0
  -29.3590  -15.7680   19.5870 H   0  0  0  0  0  0  0  0  0  0  0  0
  -25.9550  -14.0710   20.2940 C   0  0  0  0  0  0  0  0  0  0  0  0
  -24.8510  -13.3760   20.7050 C   0  0  0  0  0  0  0  0  0  0  0  0
  -25.1860  -11.9920   20.5840 C   0  0  0  0  0  0  0  0  0  0  0  0
  -26.8900  -13.1100   19.9380 N   0  0  0  0  0  0  0  0  0  0  0  0
  -26.4450  -11.8530   20.1870 N   0  0  0  0  0  0  0  0  0  0  0  0
  -24.3590  -10.7920   20.7670 C   0  0  0  0  0  0  0  0  0  0  0  0
  -24.6900   -9.8100   21.7230 C   0  0  0  0  0  3  0  0  0  0  0  0
  -23.8690   -8.6760   21.8950 C   0  0  0  0  0  3  0  0  0  0  0  0
  -22.6980   -8.5210   21.1140 C   0  0  0  0  0  0  0  0  0  0  0  0
  -22.3870   -9.4920   20.1480 C   0  0  0  0  0  3  0  0  0  0  0  0
  -23.2090  -10.6190   19.9730 C   0  0  0  0  0  3  0  0  0  0  0  0
  -21.8530   -7.4410   21.1980 O   0  0  0  0  0  0  0  0  0  0  0  0
  -21.6260   -6.7910   22.3840 C   0  0  0  0  0  0  0  0  0  0  0  0
  -21.1180   -7.4630   23.5140 C   0  0  0  0  0  3  0  0  0  0  0  0
  -20.8370   -6.7430   24.6930 C   0  0  0  0  0  3  0  0  0  0  0  0
  -21.0520   -5.3520   24.7390 C   0  0  0  0  0  0  0  0  0  0  0  0
  -21.5530   -4.6810   23.6090 C   0  0  0  0  0  3  0  0  0  0  0  0
  -21.8380   -5.3970   22.4350 C   0  0  0  0  0  0  0  0  0  0  0  0
  -22.2990   -4.7440   21.3420 F   0  0  0  0  0  0  0  0  0  0  0  0
  -20.7760   -4.6590   25.8680 F   0  0  0  0  0  0  0  0  0  0  0  0
  -23.5230  -13.9660   21.0840 C   0  0  0  0  0  0  0  0  0  0  0  0
  -22.7950  -13.3120   21.9810 N   0  0  0  0  0  0  0  0  0  0  0  0
  -23.1470  -15.0410   20.6180 O   0  0  0  0  0  0  0  0  0  0  0  0
  -23.1100  -12.4430   22.3840 H   0  0  0  0  0  0  0  0  0  0  0  0
  -21.9070  -13.6890   22.2760 H   0  0  0  0  0  0  0  0  0  0  0  0
  -26.2280  -15.4320   20.1690 N   0  0  0  0  0  0  0  0  0  0  0  0
  -25.5400  -16.1360   20.4180 H   0  0  0  0  0  0  0  0  0  0  0  0
  -27.0680  -15.8320   19.7750 H   0  0  0  0  0  0  0  0  0  0  0  0
  -30.4860  -18.7890   22.3300 C   0  0  0  0  0  1  0  0  0  0  0  0
  -29.8660  -17.6960   21.4510 C   0  0  0  0  0  2  0  0  0  0  0  0
  1  6  1  0
  2  7  1  0
  2  1  1  0
  3  7  1  0
  3  4  1  0
  4  5  1  0
  4 10  1  0
  5 52  1  0
  6  5  1  0
  7  8  1  0
  9  7  1  0
 11 13  1  0
 11 10  1  0
 12 23  2  0
 13 18  1  0
 14 22  1  0
 14 24  1  0
 15 21  1  0
 15 17  1  0
 16 22  1  0
 17 18  2  0
 17 16  1  0
 19 13  2  0
 20 19  1  0
 20 15  2  0
 21 14  1  0
 22 12  1  0
 24 26  2  0
 25 24  1  0
 27 25  1  0
 28 37  2  0
 28 33  1  0
 29 25  1  0
 29 33  1  0
 30 29  1  0
 31 32  1  0
 31 30  1  0
 32 28  1  0
 33 34  2  0
 34 35  1  0
 36 35  2  0
 37 36  1  0
 38 12  1  0
 38 39  1  0
 38 48  1  0
 39 42  1  0
 40 44  1  0
 40 39  1  0
 41 40  2  0
 44 43  1  0
 46 44  1  0
 46 47  1  0
 46 45  1  0
 48 51  1  1
 48 49  1  0
 50 48  1  0
 52 55  1  0
 55 54  1  0
 55 53  1  0
 56  6  1  0
 57 56  1  0
 57 97  1  0
 58 64  1  0
 59 64  1  0
 60 61  1  0
 60 59  1  0
 62 61  1  0
 62 71  1  0
 62 63  1  0
 64 63  1  0
 65 58  2  0
 66 58  1  0
 66 57  1  0
 67 66  1  0
 68 69  2  0
 69 88  1  0
 70 69  1  0
 70 73  1  0
 71 72  1  0
 71 68  1  0
 72 70  2  0
 73 74  1  0
 74 75  2  0
 76 79  1  0
 76 75  1  0
 77 76  2  0
 78 77  1  0
 78 73  2  0
 79 80  1  0
 80 85  2  0
 80 81  1  0
 81 82  2  0
 82 83  1  0
 83 87  1  0
 84 83  2  0
 85 84  1  0
 86 85  1  0
 88 89  1  0
 89 92  1  0
 89 91  1  0
 90 88  2  0
 93 68  1  0
 93 94  1  0
 95 93  1  0
 97 96  1  0
M  ISO  4  10 101  11 101  58 100  66 100
M  END
>  <TORSDO>  (22) 
F 22

>  <SCORE>  (22) 
-12.669

>  <name>  (22) 
21

>  <ligand_id>  (22) 
21

>  <original_smiles>  (22) 
[H]c1c([H])c([H])c2c(c1[H])C([H])([H])C([H])([H])C([H])([H])C2([H])N([H])C(=O)C1([H])N(C(=O)C([H])(N([H])C(=O)C([H])(N([H])C([H])([H])[H])C([H])([H])[H])C(C([H])([H])[H])(C([H])([H])[H])C([H])([H])[H])C([H])([H])c2c([H])c(OC([H])([H])C3([H])C([H])(C([H])([H])C([H])(C([H])([H])[H])C([H])([H])[H])N(C([H])([H])C([H])(N([H])C(=O)N4C([H])([H])C([H])([H])C([H])([H])C([H])(n5nc(-c6c([H])c([H])c(Oc7c([H])c([H])c(F)c([H])c7F)c([H])c6[H])c(C(=O)N([H])[H])c5N([H])[H])C4([H])[H])C([H])([H])C([H])([H])[H])C([H])([H])C([H])([H])[N+]([H])([H])C3([H])[H])c([H])c([H])c2C1([H])[H]

>  <smiles>  (22) 
[H]c1c([H])c([H])c2c(c1[H])C([H])([H])C([H])([H])C([H])([H])C2([H])N([H])C(=O)C1([H])N(C(=O)C([H])(N([H])C(=O)C([H])(N([H])C([H])([H])[H])C([H])([H])[H])C(C([H])([H])[H])(C([H])([H])[H])C([H])([H])[H])C([H])([H])c2c([H])c(OC([H])([H])C3([H])C([H])(C([H])([H])C([H])(C([H])([H])[H])C([H])([H])[H])N(C([H])([H])C([H])(N([H])C(=O)N4C([H])([H])C([H])([H])C([H])([H])C([H])(n5nc(-c6c([H])c([H])c(Oc7c([H])c([H])c(F)c([H])c7F)c([H])c6[H])c(C(=O)N([H])[H])c5N([H])[H])C4([H])[H])C([H])([H])C([H])([H])[H])C([H])([H])C([H])([H])[N+]([H])([H])C3([H])[H])c([H])c([H])c2C1([H])[H]

$$$$
22:0:0
     RDKit          3D

 88 96  0  0  1  0  0  0  0  0999 V2000
  -28.8450  -22.5460   20.3940 C   0  0  0  0  0  0  0  0  0  0  0  0
  -29.6390  -22.7610   21.3140 O   0  0  0  0  0  0  0  0  0  0  0  0
  -30.3890  -15.5600   20.0650 C   0  0  0  0  0  0  0  0  0  0  0  0
  -30.3280  -13.0670   19.2180 C   0  0  0  0  0  2  0  0  0  0  0  0
  -29.3980  -12.7430   18.0220 C   0  0  0  0  0  2  0  0  0  0  0  0
  -27.9810  -12.4260   18.5180 C   0  0  0  0  0  2  0  0  0  0  0  0
  -27.5270  -13.4160   19.6180 C   0  0  0  0  0  3  0  0  0  0  0  0
  -28.5970  -13.6900   20.7000 C   0  0  0  0  0  2  0  0  0  0  0  0
  -29.7680  -14.2540   19.9990 N   0  0  0  0  0  0  0  0  0  0  0  0
  -31.6060  -15.4190   19.8450 O   0  0  0  0  0  0  0  0  0  0  0  0
  -30.2940  -19.9140   19.8600 C   0  0  0  0  0  2  0  0  0  0  0  0
  -28.3220  -19.4670   20.7630 C   0  0  0  0  0  2  0  0  0  0  0  0
  -30.5350  -18.2620   19.4830 C   0  0  0  0  0  2  0  0  0  0  0  0
  -28.5100  -17.7680   20.4450 C   0  0  0  0  0  2  0  0  0  0  0  0
  -28.8780  -20.7830   19.8790 C   0  0  1  0  0  0  0  0  0  0  0  0
  -29.8200  -16.9960   20.0640 N   0  0  0  0  0  0  0  0  0  0  0  0
  -25.1950  -13.9420   20.4730 C   0  0  0  0  0  0  0  0  0  0  0  0
  -24.1470  -13.1570   20.8600 C   0  0  0  0  0  0  0  0  0  0  0  0
  -24.6150  -11.8080   20.7910 C   0  0  0  0  0  0  0  0  0  0  0  0
  -26.2280  -13.0740   20.1780 N   0  0  0  0  0  0  0  0  0  0  0  0
  -25.8970  -11.7820   20.4380 N   0  0  0  0  0  0  0  0  0  0  0  0
  -23.8930  -10.5420   20.9810 C   0  0  0  0  0  0  0  0  0  0  0  0
  -24.3300   -9.5740   21.9110 C   0  0  0  0  0  3  0  0  0  0  0  0
  -23.6030   -8.3760   22.0920 C   0  0  0  0  0  3  0  0  0  0  0  0
  -22.4260   -8.1390   21.3420 C   0  0  0  0  0  0  0  0  0  0  0  0
  -22.0100   -9.0960   20.4010 C   0  0  0  0  0  3  0  0  0  0  0  0
  -22.7360  -10.2850   20.2180 C   0  0  0  0  0  3  0  0  0  0  0  0
  -21.6730   -6.9940   21.4330 O   0  0  0  0  0  0  0  0  0  0  0  0
  -21.5980   -6.2690   22.5960 C   0  0  0  0  0  0  0  0  0  0  0  0
  -21.1160   -6.8350   23.7980 C   0  0  0  0  0  3  0  0  0  0  0  0
  -20.9920   -6.0360   24.9520 C   0  0  0  0  0  3  0  0  0  0  0  0
  -21.3410   -4.6720   24.9060 C   0  0  0  0  0  0  0  0  0  0  0  0
  -21.8150   -4.1070   23.7090 C   0  0  0  0  0  3  0  0  0  0  0  0
  -21.9400   -4.9030   22.5570 C   0  0  0  0  0  0  0  0  0  0  0  0
  -22.3780   -4.3470   21.4020 F   0  0  0  0  0  0  0  0  0  0  0  0
  -21.2140   -3.9020   26.0120 F   0  0  0  0  0  0  0  0  0  0  0  0
  -22.7600  -13.6300   21.1750 C   0  0  0  0  0  0  0  0  0  0  0  0
  -22.0580  -12.9260   22.0560 N   0  0  0  0  0  0  0  0  0  0  0  0
  -22.3070  -14.6600   20.6770 O   0  0  0  0  0  0  0  0  0  0  0  0
  -22.4380  -12.0920   22.4820 H   0  0  0  0  0  0  0  0  0  0  0  0
  -21.1270  -13.2250   22.3090 H   0  0  0  0  0  0  0  0  0  0  0  0
  -25.3530  -15.3160   20.3140 N   0  0  0  0  0  0  0  0  0  0  0  0
  -24.5940  -15.9710   20.4690 H   0  0  0  0  0  0  0  0  0  0  0  0
  -26.1940  -15.7590   19.9700 H   0  0  0  0  0  0  0  0  0  0  0  0
  -29.0120  -21.3490   17.3370 C   0  0  0  0  0  1  0  0  0  0  0  0
  -28.2090  -20.7140   18.4850 C   0  0  0  0  0  2  0  0  0  0  0  0
  -27.9530  -24.0560   19.9050 C   0  0  0  0  0  2  0  0  0  0  0  0
  -28.1550  -25.7150   20.2910 O   0  0  0  0  0  0  0  0  0  0  0  0
  -24.6660  -31.8660   23.2630 C   0  0  0  0  0  0  0  0  0  0  0  0
  -27.1850  -26.8930   20.2150 C   0  0  0  0  0  0  0  0  0  0  0  0
  -23.4680  -30.4840   21.6170 C   0  0  0  0  0  3  0  0  0  0  0  0
  -24.9100  -28.8660   20.1800 C   0  0  0  0  0  0  0  0  0  0  0  0
  -26.0420  -30.6520   21.4820 C   0  0  0  0  0  2  0  0  0  0  0  0
  -26.1040  -29.2350   20.8120 C   0  0  0  0  0  0  0  0  0  0  0  0
  -27.2300  -28.2720   20.8030 C   0  0  0  0  0  3  0  0  0  0  0  0
  -25.9620  -26.7130   19.5250 C   0  0  0  0  0  3  0  0  0  0  0  0
  -24.8720  -27.6300   19.5150 C   0  0  0  0  0  3  0  0  0  0  0  0
  -23.6990  -29.8050   20.2380 C   0  0  0  0  0  2  0  0  0  0  0  0
  -24.7480  -31.0300   22.1740 N   0  0  0  0  0  0  0  0  0  0  0  0
  -23.5760  -32.1590   23.7830 O   0  0  0  0  0  0  0  0  0  0  0  0
  -22.7630  -29.4910   22.5800 C   0  0  0  0  0  0  0  0  0  0  0  0
  -21.4330  -29.3250   22.4470 N   0  0  0  0  0  0  0  0  0  0  0  0
  -23.4210  -28.8710   23.4180 O   0  0  0  0  0  0  0  0  0  0  0  0
  -20.9530  -29.8770   21.7490 H   0  0  0  0  0  0  0  0  0  0  0  0
  -18.0540  -28.0820   22.9250 C   0  0  0  0  0  0  0  0  0  0  0  0
  -20.6080  -28.3820   23.2120 C   0  0  0  0  0  3  0  0  0  0  0  0
  -20.7320  -26.9490   22.6440 C   0  0  0  0  0  2  0  0  0  0  0  0
  -19.6450  -26.6090   21.6200 C   0  0  0  0  0  2  0  0  0  0  0  0
  -18.2550  -26.7360   22.2500 C   0  0  0  0  0  2  0  0  0  0  0  0
  -19.1580  -28.8620   23.3630 C   0  0  0  0  0  0  0  0  0  0  0  0
  -18.9130  -30.1180   23.9600 C   0  0  0  0  0  3  0  0  0  0  0  0
  -17.5990  -30.5960   24.1190 C   0  0  0  0  0  3  0  0  0  0  0  0
  -16.5100  -29.8150   23.6950 C   0  0  0  0  0  3  0  0  0  0  0  0
  -16.7380  -28.5590   23.1050 C   0  0  0  0  0  3  0  0  0  0  0  0
  -25.9340  -32.5060   23.9040 C   0  0  0  0  0  3  0  0  0  0  0  0
  -25.6220  -33.9090   24.2350 N   0  0  0  0  0  0  0  0  0  0  0  0
  -25.9350  -34.9680   23.4770 C   0  0  0  0  0  0  0  0  0  0  0  0
  -26.5760  -34.8670   22.4280 O   0  0  0  0  0  0  0  0  0  0  0  0
  -25.0480  -34.0600   25.0510 H   0  0  0  0  0  0  0  0  0  0  0  0
  -24.1840  -36.7600   23.2070 C   0  0  0  0  0  1  0  0  0  0  0  0
  -25.4660  -36.3590   23.9550 C   0  0  0  0  0  3  0  0  0  0  0  0
  -27.6300  -37.2660   24.6800 C   0  0  0  0  0  1  0  0  0  0  0  0
  -26.4870  -37.4170   23.7850 N   0  0  0  0  0  0  0  0  0  0  0  0
  -26.0820  -38.3370   23.9390 H   0  0  0  0  0  0  0  0  0  0  0  0
  -26.4250  -31.7430   25.1970 C   0  0  1  0  0  0  0  0  0  0  0  0
  -25.3150  -31.5270   26.2520 C   0  0  0  0  0  1  0  0  0  0  0  0
  -27.0040  -30.3560   24.8390 C   0  0  0  0  0  1  0  0  0  0  0  0
  -27.5730  -32.5350   25.8670 C   0  0  0  0  0  1  0  0  0  0  0  0
  1  2  2  0
  4  9  1  0
  5  6  1  0
  5  4  1  0
  7  6  1  0
  7 20  1  0
  7  8  1  0
  9  3  1  0
  9  8  1  0
 10  3  2  0
 11 15  1  0
 13 11  1  0
 13 16  1  0
 14 12  1  0
 15 46  1  6
 15  1  1  0
 15 12  1  0
 16  3  1  0
 16 14  1  0
 17 18  2  0
 18 37  1  0
 19 18  1  0
 19 22  1  0
 20 21  1  0
 20 17  1  0
 21 19  2  0
 22 23  1  0
 23 24  2  0
 25 28  1  0
 25 24  1  0
 26 25  2  0
 27 26  1  0
 27 22  2  0
 28 29  1  0
 29 30  1  0
 30 31  2  0
 32 31  1  0
 32 36  1  0
 33 32  2  0
 34 29  2  0
 34 33  1  0
 35 34  1  0
 37 38  1  0
 38 41  1  0
 38 40  1  0
 39 37  2  0
 42 43  1  0
 42 17  1  0
 44 42  1  0
 45 46  1  0
 47 48  1  0
 47  1  1  0
 49 60  2  0
 50 48  1  0
 50 55  1  0
 51 59  1  0
 51 61  1  0
 52 58  1  0
 52 54  1  0
 53 59  1  0
 54 53  1  0
 55 54  2  0
 56 50  2  0
 57 56  1  0
 57 52  2  0
 58 51  1  0
 59 49  1  0
 61 63  2  0
 62 61  1  0
 64 62  1  0
 65 74  2  0
 65 70  1  0
 66 62  1  0
 66 70  1  0
 67 66  1  0
 68 69  1  0
 68 67  1  0
 69 65  1  0
 70 71  2  0
 71 72  1  0
 73 72  2  0
 74 73  1  0
 75 49  1  0
 75 76  1  0
 75 85  1  0
 76 79  1  0
 77 81  1  0
 77 76  1  0
 78 77  2  0
 81 80  1  0
 83 84  1  0
 83 81  1  0
 83 82  1  0
 85 88  1  1
 85 86  1  0
 87 85  1  0
M  ISO  4   3 100  16 100  47 101  48 101
M  END
>  <TORSDO>  (23) 
F 18

>  <SCORE>  (23) 
-16.090

>  <name>  (23) 
22

>  <ligand_id>  (23) 
22

>  <original_smiles>  (23) 
[H]c1c([H])c([H])c2c(c1[H])C([H])([H])C([H])([H])C([H])([H])C2([H])N([H])C(=O)C1([H])N(C(=O)C([H])(N([H])C(=O)C([H])(N([H])C([H])([H])[H])C([H])([H])[H])C(C([H])([H])[H])(C([H])([H])[H])C([H])([H])[H])C([H])([H])c2c([H])c(OC([H])([H])C(=O)C3(C([H])([H])C([H])([H])[H])C([H])([H])C([H])([H])N(C(=O)N4C([H])([H])C([H])([H])C([H])([H])C([H])(n5nc(-c6c([H])c([H])c(Oc7c([H])c([H])c(F)c([H])c7F)c([H])c6[H])c(C(=O)N([H])[H])c5N([H])[H])C4([H])[H])C([H])([H])C3([H])[H])c([H])c([H])c2C1([H])[H]

>  <smiles>  (23) 
[H]c1c([H])c([H])c2c(c1[H])C([H])([H])C([H])([H])C([H])([H])C2([H])N([H])C(=O)C1([H])N(C(=O)C([H])(N([H])C(=O)C([H])(N([H])C([H])([H])[H])C([H])([H])[H])C(C([H])([H])[H])(C([H])([H])[H])C([H])([H])[H])C([H])([H])c2c([H])c(OC([H])([H])C(=O)C3(C([H])([H])C([H])([H])[H])C([H])([H])C([H])([H])N(C(=O)N4C([H])([H])C([H])([H])C([H])([H])C([H])(n5nc(-c6c([H])c([H])c(Oc7c([H])c([H])c(F)c([H])c7F)c([H])c6[H])c(C(=O)N([H])[H])c5N([H])[H])C4([H])[H])C([H])([H])C3([H])[H])c([H])c([H])c2C1([H])[H]

$$$$
23:0:0
     RDKit          3D

104112  0  0  1  0  0  0  0  0999 V2000
  -28.5040  -22.6320   23.0050 C   0  0  0  0  0  2  0  0  0  0  0  0
  -27.1840  -23.3820   22.9760 C   0  0  0  0  0  2  0  0  0  0  0  0
  -29.3660  -23.9720   21.1050 C   0  0  0  0  0  2  0  0  0  0  0  0
  -29.0420  -22.5260   21.5840 C   0  0  0  0  0  3  0  0  0  0  0  0
  -27.2640  -24.8380   22.4380 C   0  0  0  0  0  3  0  0  0  0  0  0
  -28.1920  -25.0030   21.1570 C   0  0  0  0  0  3  0  0  0  0  0  0
  -25.7840  -26.9430   22.3730 C   0  0  0  0  0  1  0  0  0  0  0  0
  -24.8930  -24.9690   23.5040 C   0  0  0  0  0  1  0  0  0  0  0  0
  -25.0720  -24.9640   21.0240 C   0  0  0  0  0  1  0  0  0  0  0  0
  -25.7920  -25.4110   22.3190 C   0  0  2  0  0  0  0  0  0  0  0  0
  -28.8000  -26.4510   21.0120 C   0  0  0  0  0  2  0  0  0  0  0  0
  -28.6340  -27.0880   19.7250 O   0  0  0  0  0  0  0  0  0  0  0  0
  -24.5160  -31.8050   23.0390 C   0  0  0  0  0  0  0  0  0  0  0  0
  -27.4800  -27.8300   19.6590 C   0  0  0  0  0  0  0  0  0  0  0  0
  -23.4180  -30.4490   21.2850 C   0  0  0  0  0  3  0  0  0  0  0  0
  -24.9890  -29.1510   19.7380 C   0  0  0  0  0  0  0  0  0  0  0  0
  -25.9050  -31.0190   21.1250 C   0  0  0  0  0  2  0  0  0  0  0  0
  -26.1000  -29.7160   20.3770 C   0  0  0  0  0  0  0  0  0  0  0  0
  -27.3520  -29.0630   20.3380 C   0  0  0  0  0  3  0  0  0  0  0  0
  -26.3690  -27.2950   18.9770 C   0  0  0  0  0  3  0  0  0  0  0  0
  -25.1210  -27.9460   19.0240 C   0  0  0  0  0  3  0  0  0  0  0  0
  -23.6760  -29.8960   19.8560 C   0  0  0  0  0  2  0  0  0  0  0  0
  -24.6290  -31.1010   21.8770 N   0  0  0  0  0  0  0  0  0  0  0  0
  -23.4190  -31.9500   23.5950 O   0  0  0  0  0  0  0  0  0  0  0  0
  -22.8470  -29.3150   22.1650 C   0  0  0  0  0  0  0  0  0  0  0  0
  -21.5420  -29.0380   22.0260 N   0  0  0  0  0  0  0  0  0  0  0  0
  -23.5730  -28.6940   22.9400 O   0  0  0  0  0  0  0  0  0  0  0  0
  -21.0030  -29.6040   21.3870 H   0  0  0  0  0  0  0  0  0  0  0  0
  -18.2630  -27.6070   22.4960 C   0  0  0  0  0  0  0  0  0  0  0  0
  -20.8090  -27.9850   22.7280 C   0  0  0  0  0  3  0  0  0  0  0  0
  -20.9760  -26.6240   22.0130 C   0  0  0  0  0  2  0  0  0  0  0  0
  -19.8630  -26.3360   21.0000 C   0  0  0  0  0  2  0  0  0  0  0  0
  -18.4930  -26.3420   21.6890 C   0  0  0  0  0  2  0  0  0  0  0  0
  -19.3510  -28.3860   22.9710 C   0  0  0  0  0  0  0  0  0  0  0  0
  -19.0830  -29.5690   23.6920 C   0  0  0  0  0  3  0  0  0  0  0  0
  -17.7590  -29.9740   23.9440 C   0  0  0  0  0  3  0  0  0  0  0  0
  -16.6860  -29.1900   23.4880 C   0  0  0  0  0  3  0  0  0  0  0  0
  -16.9390  -28.0100   22.7680 C   0  0  0  0  0  3  0  0  0  0  0  0
  -25.7510  -32.4830   23.7110 C   0  0  0  0  0  3  0  0  0  0  0  0
  -26.2840  -31.7010   24.9740 C   0  0  1  0  0  0  0  0  0  0  0  0
  -25.1860  -31.3800   26.0160 C   0  0  0  0  0  1  0  0  0  0  0  0
  -26.9420  -30.3670   24.5500 C   0  0  0  0  0  1  0  0  0  0  0  0
  -27.3870  -32.5290   25.6760 C   0  0  0  0  0  1  0  0  0  0  0  0
  -25.3610  -33.8520   24.0730 N   0  0  0  0  0  0  0  0  0  0  0  0
  -25.6770  -34.9440   23.3670 C   0  0  0  0  0  0  0  0  0  0  0  0
  -26.3970  -34.9100   22.3660 O   0  0  0  0  0  0  0  0  0  0  0  0
  -24.7250  -33.9500   24.8520 H   0  0  0  0  0  0  0  0  0  0  0  0
  -23.8900  -36.6700   22.9760 C   0  0  0  0  0  1  0  0  0  0  0  0
  -25.1010  -36.2920   23.8440 C   0  0  0  0  0  3  0  0  0  0  0  0
  -27.1410  -37.2370   24.8290 C   0  0  0  0  0  1  0  0  0  0  0  0
  -26.0890  -37.3920   23.8280 N   0  0  0  0  0  0  0  0  0  0  0  0
  -25.6330  -38.2880   23.9830 H   0  0  0  0  0  0  0  0  0  0  0  0
  -30.2030  -21.4810   21.5500 C   0  0  0  0  0  3  0  0  0  0  0  0
  -30.0780  -20.5440   20.4010 N   0  0  0  0  0  4  0  0  0  0  0  0
  -29.8920  -21.0990   19.5830 H   0  0  0  0  0  0  0  0  0  0  0  0
  -29.2730  -19.9500   20.5380 H   0  0  0  0  0  0  0  0  0  0  0  0
  -31.2510  -19.7000   20.0490 C   0  0  0  0  0  3  0  0  0  0  0  0
  -31.2590  -20.9150   17.7750 C   0  0  0  0  0  1  0  0  0  0  0  0
  -31.3200  -19.5670   18.5140 C   0  0  0  0  0  2  0  0  0  0  0  0
  -32.8450  -17.9060   20.9240 C   0  0  0  0  0  1  0  0  0  0  0  0
  -31.3770  -18.3730   20.8970 C   0  0  0  0  0  3  0  0  0  0  0  0
  -30.3120  -17.2160   20.7080 C   0  0  0  0  0  2  0  0  0  0  0  0
  -31.2590  -14.9080   20.3630 C   0  0  0  0  0  0  0  0  0  0  0  0
  -30.8830  -12.7230   19.3310 C   0  0  0  0  0  2  0  0  0  0  0  0
  -29.9980  -12.9050   18.0810 C   0  0  0  0  0  2  0  0  0  0  0  0
  -28.5030  -12.8860   18.4600 C   0  0  0  0  0  2  0  0  0  0  0  0
  -28.1500  -13.7480   19.7040 C   0  0  0  0  0  3  0  0  0  0  0  0
  -29.1720  -13.5630   20.8470 C   0  0  0  0  0  2  0  0  0  0  0  0
  -30.5090  -13.7790   20.2810 N   0  0  0  0  0  0  0  0  0  0  0  0
  -32.4850  -14.8710   20.2720 O   0  0  0  0  0  0  0  0  0  0  0  0
  -30.6440  -16.0250   19.8720 N   0  0  0  0  0  0  0  0  0  0  0  0
  -25.7320  -14.4060   20.2780 C   0  0  0  0  0  0  0  0  0  0  0  0
  -24.6360  -13.6560   20.6170 C   0  0  0  0  0  0  0  0  0  0  0  0
  -25.0850  -12.3010   20.6700 C   0  0  0  0  0  0  0  0  0  0  0  0
  -26.7780  -13.5070   20.1420 N   0  0  0  0  0  0  0  0  0  0  0  0
  -26.3910  -12.2390   20.4410 N   0  0  0  0  0  0  0  0  0  0  0  0
  -24.3360  -11.0530   20.8660 C   0  0  0  0  0  0  0  0  0  0  0  0
  -24.7200  -10.1050   21.8400 C   0  0  0  0  0  3  0  0  0  0  0  0
  -23.9690   -8.9240   22.0250 C   0  0  0  0  0  3  0  0  0  0  0  0
  -22.8220   -8.6810   21.2340 C   0  0  0  0  0  0  0  0  0  0  0  0
  -22.4590   -9.6160   20.2470 C   0  0  0  0  0  3  0  0  0  0  0  0
  -23.2100  -10.7870   20.0610 C   0  0  0  0  0  3  0  0  0  0  0  0
  -22.0490   -7.5490   21.3260 O   0  0  0  0  0  0  0  0  0  0  0  0
  -21.9400   -6.8430   22.4980 C   0  0  0  0  0  0  0  0  0  0  0  0
  -21.4790   -7.4430   23.6890 C   0  0  0  0  0  3  0  0  0  0  0  0
  -21.3140   -6.6660   24.8520 C   0  0  0  0  0  3  0  0  0  0  0  0
  -21.6070   -5.2900   24.8270 C   0  0  0  0  0  0  0  0  0  0  0  0
  -22.0650   -4.6880   23.6400 C   0  0  0  0  0  3  0  0  0  0  0  0
  -22.2280   -5.4640   22.4790 C   0  0  0  0  0  0  0  0  0  0  0  0
  -22.6490   -4.8750   21.3330 F   0  0  0  0  0  0  0  0  0  0  0  0
  -21.4430   -4.5410   25.9410 F   0  0  0  0  0  0  0  0  0  0  0  0
  -23.2310  -14.1550   20.7840 C   0  0  0  0  0  0  0  0  0  0  0  0
  -22.4540  -13.5170   21.6520 N   0  0  0  0  0  0  0  0  0  0  0  0
  -22.8280  -15.1470   20.1790 O   0  0  0  0  0  0  0  0  0  0  0  0
  -22.7870  -12.7140   22.1640 H   0  0  0  0  0  0  0  0  0  0  0  0
  -21.5080  -13.8400   21.8060 H   0  0  0  0  0  0  0  0  0  0  0  0
  -25.9200  -15.7670   20.0550 N   0  0  0  0  0  0  0  0  0  0  0  0
  -25.1590  -16.4370   20.0840 H   0  0  0  0  0  0  0  0  0  0  0  0
  -26.7990  -16.1800   19.7660 H   0  0  0  0  0  0  0  0  0  0  0  0
  -29.6440  -16.8020   17.6740 C   0  0  0  0  0  1  0  0  0  0  0  0
  -30.8960  -16.3460   18.4510 C   0  0  0  0  0  2  0  0  0  0  0  0
  -31.4870  -22.1690   21.5800 N   0  0  0  0  0  0  0  0  0  0  0  0
  -31.6560  -22.4740   22.5320 H   0  0  0  0  0  0  0  0  0  0  0  0
  -31.4010  -23.0380   21.0660 H   0  0  0  0  0  0  0  0  0  0  0  0
  2  1  1  0
  3  6  1  0
  3  4  1  0
  4 53  1  0
  4  1  1  0
  5 10  1  0
  5  2  1  0
  6 11  1  0
  6  5  1  0
 10  9  1  6
 10  7  1  0
 10  8  1  0
 12 11  1  0
 13 24  2  0
 14 12  1  0
 14 19  1  0
 15 23  1  0
 15 25  1  0
 16 22  1  0
 16 18  1  0
 17 23  1  0
 18 17  1  0
 19 18  2  0
 20 21  1  0
 20 14  2  0
 21 16  2  0
 22 15  1  0
 23 13  1  0
 25 27  2  0
 26 25  1  0
 28 26  1  0
 29 38  2  0
 29 34  1  0
 30 26  1  0
 30 34  1  0
 31 30  1  0
 32 33  1  0
 32 31  1  0
 33 29  1  0
 34 35  2  0
 35 36  1  0
 37 36  2  0
 38 37  1  0
 39 13  1  0
 39 44  1  0
 39 40  1  0
 40 43  1  1
 40 41  1  0
 42 40  1  0
 44 47  1  0
 45 49  1  0
 45 44  1  0
 46 45  2  0
 49 48  1  0
 51 49  1  0
 51 52  1  0
 51 50  1  0
 53102  1  0
 54 56  1  0
 54 53  1  0
 55 54  1  0
 57 59  1  0
 57 54  1  0
 57 61  1  0
 58 59  1  0
 61 60  1  0
 62 61  1  0
 64 69  1  0
 65 66  1  0
 65 64  1  0
 67 66  1  0
 67 75  1  0
 67 68  1  0
 69 63  1  0
 69 68  1  0
 70 63  2  0
 71 63  1  0
 71 62  1  0
 72 73  2  0
 73 74  1  0
 73 92  1  0
 74 77  1  0
 75 72  1  0
 75 76  1  0
 76 74  2  0
 77 78  1  0
 78 79  2  0
 80 83  1  0
 80 79  1  0
 81 80  2  0
 82 81  1  0
 82 77  2  0
 83 84  1  0
 84 85  1  0
 85 86  2  0
 87 86  1  0
 87 91  1  0
 88 87  2  0
 89 84  2  0
 89 88  1  0
 90 89  1  0
 92 93  1  0
 93 96  1  0
 93 95  1  0
 94 92  2  0
 97 98  1  0
 97 72  1  0
 99 97  1  0
100101  1  0
101 71  1  0
102103  1  0
104102  1  0
M  ISO  4  11 101  12 101  63 100  71 100
M  END
>  <TORSDO>  (24) 
F 26

>  <SCORE>  (24) 
-8.177

>  <name>  (24) 
23

>  <ligand_id>  (24) 
23

>  <original_smiles>  (24) 
[H]c1c([H])c([H])c2c(c1[H])C([H])([H])C([H])([H])C([H])([H])C2([H])N([H])C(=O)C1([H])N(C(=O)C([H])(N([H])C(=O)C([H])(N([H])C([H])([H])[H])C([H])([H])[H])C(C([H])([H])[H])(C([H])([H])[H])C([H])([H])[H])C([H])([H])c2c([H])c(OC([H])([H])C3([H])C([H])([H])C([H])(C([H])(N([H])[H])[N+]([H])([H])C([H])(C([H])([H])C([H])([H])[H])C([H])(C([H])([H])[H])C([H])([H])N(C(=O)N4C([H])([H])C([H])([H])C([H])([H])C([H])(n5nc(-c6c([H])c([H])c(Oc7c([H])c([H])c(F)c([H])c7F)c([H])c6[H])c(C(=O)N([H])[H])c5N([H])[H])C4([H])[H])C([H])([H])C([H])([H])[H])C([H])([H])C([H])([H])C3([H])C(C([H])([H])[H])(C([H])([H])[H])C([H])([H])[H])c([H])c([H])c2C1([H])[H]

>  <smiles>  (24) 
[H]c1c([H])c([H])c2c(c1[H])C([H])([H])C([H])([H])C([H])([H])C2([H])N([H])C(=O)C1([H])N(C(=O)C([H])(N([H])C(=O)C([H])(N([H])C([H])([H])[H])C([H])([H])[H])C(C([H])([H])[H])(C([H])([H])[H])C([H])([H])[H])C([H])([H])c2c([H])c(OC([H])([H])C3([H])C([H])([H])C([H])(C([H])(N([H])[H])[N+]([H])([H])C([H])(C([H])([H])C([H])([H])[H])C([H])(C([H])([H])[H])C([H])([H])N(C(=O)N4C([H])([H])C([H])([H])C([H])([H])C([H])(n5nc(-c6c([H])c([H])c(Oc7c([H])c([H])c(F)c([H])c7F)c([H])c6[H])c(C(=O)N([H])[H])c5N([H])[H])C4([H])[H])C([H])([H])C([H])([H])[H])C([H])([H])C([H])([H])C3([H])C(C([H])([H])[H])(C([H])([H])[H])C([H])([H])[H])c([H])c([H])c2C1([H])[H]

$$$$
24:0:0
     RDKit          3D

 99107  0  0  1  0  0  0  0  0999 V2000
  -30.2200  -19.2020   20.4000 C   0  0  0  0  0  3  0  0  0  0  0  0
  -30.9980  -20.4880   19.9480 C   0  0  0  0  0  2  0  0  0  0  0  0
  -29.1160  -22.2150   19.6250 C   0  0  0  0  0  3  0  0  0  0  0  0
  -30.9470  -22.7620   21.1230 C   0  0  0  0  0  3  0  0  0  0  0  0
  -28.5260  -23.4750   19.8840 C   0  0  0  0  0  3  0  0  0  0  0  0
  -30.3560  -24.0160   21.3830 C   0  0  0  0  0  3  0  0  0  0  0  0
  -30.3280  -21.8380   20.2510 C   0  0  0  0  0  0  0  0  0  0  0  0
  -29.1380  -24.3880   20.7730 C   0  0  0  0  0  0  0  0  0  0  0  0
  -28.4470  -25.7020   21.1560 C   0  0  0  0  0  2  0  0  0  0  0  0
  -28.4800  -26.7300   20.1530 O   0  0  0  0  0  0  0  0  0  0  0  0
  -24.5940  -31.8850   23.2050 C   0  0  0  0  0  0  0  0  0  0  0  0
  -27.3330  -27.4930   20.1380 C   0  0  0  0  0  0  0  0  0  0  0  0
  -23.4290  -30.4810   21.5350 C   0  0  0  0  0  3  0  0  0  0  0  0
  -24.9220  -28.9670   20.1230 C   0  0  0  0  0  0  0  0  0  0  0  0
  -25.9530  -30.8700   21.3790 C   0  0  0  0  0  2  0  0  0  0  0  0
  -26.0670  -29.5020   20.7310 C   0  0  0  0  0  0  0  0  0  0  0  0
  -27.2770  -28.7710   20.7390 C   0  0  0  0  0  3  0  0  0  0  0  0
  -26.1750  -26.9710   19.5260 C   0  0  0  0  0  3  0  0  0  0  0  0
  -24.9710  -27.7000   19.5180 C   0  0  0  0  0  3  0  0  0  0  0  0
  -23.6660  -29.8090   20.1560 C   0  0  0  0  0  2  0  0  0  0  0  0
  -24.6760  -31.0930   22.0970 N   0  0  0  0  0  0  0  0  0  0  0  0
  -23.5020  -32.1410   23.7300 O   0  0  0  0  0  0  0  0  0  0  0  0
  -22.7710  -29.4490   22.4790 C   0  0  0  0  0  0  0  0  0  0  0  0
  -21.4470  -29.2730   22.3440 N   0  0  0  0  0  0  0  0  0  0  0  0
  -23.4490  -28.8100   23.2880 O   0  0  0  0  0  0  0  0  0  0  0  0
  -20.9600  -29.8330   21.6570 H   0  0  0  0  0  0  0  0  0  0  0  0
  -18.0630  -28.1030   22.8300 C   0  0  0  0  0  0  0  0  0  0  0  0
  -20.6240  -28.3300   23.0990 C   0  0  0  0  0  3  0  0  0  0  0  0
  -20.7130  -26.9110   22.4920 C   0  0  0  0  0  2  0  0  0  0  0  0
  -19.6040  -26.6210   21.4760 C   0  0  0  0  0  2  0  0  0  0  0  0
  -18.2250  -26.7670   22.1260 C   0  0  0  0  0  2  0  0  0  0  0  0
  -19.1910  -28.8450   23.2720 C   0  0  0  0  0  0  0  0  0  0  0  0
  -18.9860  -30.0990   23.8900 C   0  0  0  0  0  3  0  0  0  0  0  0
  -17.6870  -30.6080   24.0720 C   0  0  0  0  0  3  0  0  0  0  0  0
  -16.5730  -29.8620   23.6490 C   0  0  0  0  0  3  0  0  0  0  0  0
  -16.7630  -28.6120   23.0310 C   0  0  0  0  0  3  0  0  0  0  0  0
  -25.8640  -32.5240   23.8470 C   0  0  0  0  0  3  0  0  0  0  0  0
  -26.3690  -31.7500   25.1250 C   0  0  1  0  0  0  0  0  0  0  0  0
  -25.2610  -31.4910   26.1730 C   0  0  0  0  0  1  0  0  0  0  0  0
  -26.9710  -30.3810   24.7310 C   0  0  0  0  0  1  0  0  0  0  0  0
  -27.5020  -32.5500   25.8090 C   0  0  0  0  0  1  0  0  0  0  0  0
  -25.5400  -33.9180   24.1790 N   0  0  0  0  0  0  0  0  0  0  0  0
  -25.8690  -34.9750   23.4230 C   0  0  0  0  0  0  0  0  0  0  0  0
  -26.5490  -34.8790   22.3980 O   0  0  0  0  0  0  0  0  0  0  0  0
  -24.9390  -34.0680   24.9760 H   0  0  0  0  0  0  0  0  0  0  0  0
  -24.1300  -36.7510   23.0500 C   0  0  0  0  0  1  0  0  0  0  0  0
  -25.3630  -36.3570   23.8780 C   0  0  0  0  0  3  0  0  0  0  0  0
  -27.4750  -37.2610   24.7450 C   0  0  0  0  0  1  0  0  0  0  0  0
  -26.3890  -37.4200   23.7820 N   0  0  0  0  0  0  0  0  0  0  0  0
  -25.9720  -38.3360   23.9230 H   0  0  0  0  0  0  0  0  0  0  0  0
  -29.9830  -19.1530   21.9420 C   0  0  0  0  0  2  0  0  0  0  0  0
  -31.2070  -19.1390   22.7730 N   0  0  0  0  0  4  0  0  0  0  0  0
  -31.7970  -18.3500   22.5810 H   0  0  0  0  0  0  0  0  0  0  0  0
  -30.9410  -19.0770   23.7410 H   0  0  0  0  0  0  0  0  0  0  0  0
  -31.7400  -19.9850   22.6720 H   0  0  0  0  0  0  0  0  0  0  0  0
  -30.7480  -17.8320   19.8090 C   0  0  0  0  0  3  0  0  0  0  0  0
  -31.1790  -17.9740   18.3970 N   0  0  0  0  0  4  0  0  0  0  0  0
  -30.4180  -18.2540   17.8000 H   0  0  0  0  0  0  0  0  0  0  0  0
  -31.5280  -17.0930   18.0590 H   0  0  0  0  0  0  0  0  0  0  0  0
  -31.9250  -18.6400   18.2970 H   0  0  0  0  0  0  0  0  0  0  0  0
  -29.6610  -16.7100   19.8600 C   0  0  0  0  0  2  0  0  0  0  0  0
  -30.7120  -14.5230   20.2540 C   0  0  0  0  0  0  0  0  0  0  0  0
  -30.3960  -12.3910   19.0810 C   0  0  0  0  0  2  0  0  0  0  0  0
  -29.4200  -12.6640   17.9160 C   0  0  0  0  0  2  0  0  0  0  0  0
  -27.9560  -12.5200   18.3760 C   0  0  0  0  0  2  0  0  0  0  0  0
  -27.6640  -13.3000   19.6860 C   0  0  0  0  0  3  0  0  0  0  0  0
  -28.7530  -13.0210   20.7520 C   0  0  0  0  0  2  0  0  0  0  0  0
  -30.0700  -13.3290   20.1660 N   0  0  0  0  0  0  0  0  0  0  0  0
  -31.8000  -14.7620   19.7240 O   0  0  0  0  0  0  0  0  0  0  0  0
  -29.9400  -15.5300   20.6940 N   0  0  0  0  0  0  0  0  0  0  0  0
  -29.1570  -15.2150   21.2480 H   0  0  0  0  0  0  0  0  0  0  0  0
  -25.2760  -13.8930   20.4480 C   0  0  0  0  0  0  0  0  0  0  0  0
  -24.2210  -13.1120   20.8410 C   0  0  0  0  0  0  0  0  0  0  0  0
  -24.6900  -11.7640   20.7940 C   0  0  0  0  0  0  0  0  0  0  0  0
  -26.3210  -13.0180   20.1920 N   0  0  0  0  0  0  0  0  0  0  0  0
  -25.9730  -11.7340   20.4540 N   0  0  0  0  0  0  0  0  0  0  0  0
  -23.9770  -10.4960   20.9980 C   0  0  0  0  0  0  0  0  0  0  0  0
  -24.4240   -9.5390   21.9360 C   0  0  0  0  0  3  0  0  0  0  0  0
  -23.7110   -8.3360   22.1250 C   0  0  0  0  0  3  0  0  0  0  0  0
  -22.5360   -8.0810   21.3770 C   0  0  0  0  0  0  0  0  0  0  0  0
  -22.1100   -9.0270   20.4280 C   0  0  0  0  0  3  0  0  0  0  0  0
  -22.8240  -10.2210   20.2350 C   0  0  0  0  0  3  0  0  0  0  0  0
  -21.7940   -6.9300   21.4750 O   0  0  0  0  0  0  0  0  0  0  0  0
  -21.7410   -6.2050   22.6390 C   0  0  0  0  0  0  0  0  0  0  0  0
  -21.2710   -6.7660   23.8470 C   0  0  0  0  0  3  0  0  0  0  0  0
  -21.1680   -5.9670   25.0030 C   0  0  0  0  0  3  0  0  0  0  0  0
  -21.5240   -4.6060   24.9520 C   0  0  0  0  0  0  0  0  0  0  0  0
  -21.9860   -4.0440   23.7500 C   0  0  0  0  0  3  0  0  0  0  0  0
  -22.0930   -4.8400   22.5960 C   0  0  0  0  0  0  0  0  0  0  0  0
  -22.5200   -4.2880   21.4350 F   0  0  0  0  0  0  0  0  0  0  0  0
  -21.4170   -3.8350   26.0610 F   0  0  0  0  0  0  0  0  0  0  0  0
  -22.8270  -13.5800   21.1470 C   0  0  0  0  0  0  0  0  0  0  0  0
  -22.1220  -12.8730   22.0240 N   0  0  0  0  0  0  0  0  0  0  0  0
  -22.3720  -14.6060   20.6450 O   0  0  0  0  0  0  0  0  0  0  0  0
  -22.5050  -12.0450   22.4540 H   0  0  0  0  0  0  0  0  0  0  0  0
  -21.1870  -13.1670   22.2690 H   0  0  0  0  0  0  0  0  0  0  0  0
  -25.4260  -15.2650   20.2700 N   0  0  0  0  0  0  0  0  0  0  0  0
  -24.6490  -15.9070   20.3820 H   0  0  0  0  0  0  0  0  0  0  0  0
  -26.2560  -15.7100   19.9020 H   0  0  0  0  0  0  0  0  0  0  0  0
  1  2  1  0
  1 51  1  0
  2  7  1  0
  3  5  2  0
  3  7  1  0
  4  6  1  0
  5  8  1  0
  7  4  2  0
  8  9  1  0
  8  6  2  0
 10  9  1  0
 11 22  2  0
 12 10  1  0
 12 17  1  0
 13 21  1  0
 13 23  1  0
 14 20  1  0
 14 16  1  0
 15 21  1  0
 16 17  2  0
 16 15  1  0
 18 12  2  0
 19 18  1  0
 19 14  2  0
 20 13  1  0
 21 11  1  0
 23 25  2  0
 24 23  1  0
 26 24  1  0
 27 36  2  0
 27 32  1  0
 28 24  1  0
 28 32  1  0
 29 28  1  0
 30 31  1  0
 30 29  1  0
 31 27  1  0
 32 33  2  0
 33 34  1  0
 35 34  2  0
 36 35  1  0
 37 11  1  0
 37 42  1  0
 37 38  1  0
 38 41  1  1
 38 39  1  0
 40 38  1  0
 42 45  1  0
 43 47  1  0
 43 42  1  0
 44 43  2  0
 47 46  1  0
 49 47  1  0
 49 50  1  0
 49 48  1  0
 51 52  1  0
 52 54  1  0
 53 52  1  0
 55 52  1  0
 56 61  1  0
 56  1  1  0
 57 56  1  0
 58 57  1  0
 59 57  1  0
 60 57  1  0
 61 70  1  0
 62 70  1  0
 63 68  1  0
 64 65  1  0
 64 63  1  0
 66 65  1  0
 66 75  1  0
 66 67  1  0
 68 62  1  0
 68 67  1  0
 69 62  2  0
 70 71  1  0
 72 73  2  0
 73 92  1  0
 74 73  1  0
 74 77  1  0
 75 72  1  0
 75 76  1  0
 76 74  2  0
 77 78  1  0
 78 79  2  0
 80 83  1  0
 80 79  1  0
 81 80  2  0
 82 81  1  0
 82 77  2  0
 83 84  1  0
 84 85  1  0
 85 86  2  0
 87 86  1  0
 87 91  1  0
 88 87  2  0
 89 84  2  0
 89 88  1  0
 90 89  1  0
 92 93  1  0
 93 96  1  0
 93 95  1  0
 94 92  2  0
 97 98  1  0
 97 72  1  0
 99 97  1  0
M  ISO  4   9 101  10 101  62 100  70 100
M  END
>  <TORSDO>  (25) 
F 24

>  <SCORE>  (25) 
-12.689

>  <name>  (25) 
24

>  <ligand_id>  (25) 
24

>  <original_smiles>  (25) 
[H]c1c([H])c([H])c2c(c1[H])C([H])([H])C([H])([H])C([H])([H])C2([H])N([H])C(=O)C1([H])N(C(=O)C([H])(N([H])C(=O)C([H])(N([H])C([H])([H])[H])C([H])([H])[H])C(C([H])([H])[H])(C([H])([H])[H])C([H])([H])[H])C([H])([H])c2c([H])c(OC([H])([H])c3c([H])c([H])c(C([H])([H])C([H])(C([H])([H])[N+]([H])([H])[H])C([H])(C([H])([H])N([H])C(=O)N4C([H])([H])C([H])([H])C([H])([H])C([H])(n5nc(-c6c([H])c([H])c(Oc7c([H])c([H])c(F)c([H])c7F)c([H])c6[H])c(C(=O)N([H])[H])c5N([H])[H])C4([H])[H])[N+]([H])([H])[H])c([H])c3[H])c([H])c([H])c2C1([H])[H]

>  <smiles>  (25) 
[H]c1c([H])c([H])c2c(c1[H])C([H])([H])C([H])([H])C([H])([H])C2([H])N([H])C(=O)C1([H])N(C(=O)C([H])(N([H])C(=O)C([H])(N([H])C([H])([H])[H])C([H])([H])[H])C(C([H])([H])[H])(C([H])([H])[H])C([H])([H])[H])C([H])([H])c2c([H])c(OC([H])([H])c3c([H])c([H])c(C([H])([H])C([H])(C([H])([H])[N+]([H])([H])[H])C([H])(C([H])([H])N([H])C(=O)N4C([H])([H])C([H])([H])C([H])([H])C([H])(n5nc(-c6c([H])c([H])c(Oc7c([H])c([H])c(F)c([H])c7F)c([H])c6[H])c(C(=O)N([H])[H])c5N([H])[H])C4([H])[H])[N+]([H])([H])[H])c([H])c3[H])c([H])c([H])c2C1([H])[H]

$$$$
25:0:0
     RDKit          3D

 99108  0  0  1  0  0  0  0  0999 V2000
  -29.8130  -24.7400   15.8770 C   0  0  0  0  0  2  0  0  0  0  0  0
  -30.3000  -23.3740   15.3500 C   0  0  0  0  0  2  0  0  0  0  0  0
  -29.9210  -20.8330   15.3860 C   0  0  0  0  0  2  0  0  0  0  0  0
  -29.0260  -19.6830   15.8960 C   0  0  0  0  0  2  0  0  0  0  0  0
  -28.6530  -23.5990   17.7880 C   0  0  0  0  0  2  0  0  0  0  0  0
  -28.2590  -21.1200   17.8140 C   0  0  0  0  0  2  0  0  0  0  0  0
  -29.6620  -24.6920   17.4110 C   0  0  0  0  0  3  0  0  0  0  0  0
  -29.3870  -22.2140   15.8140 C   0  0  0  0  0  3  0  0  0  0  0  0
  -29.1900  -22.2420   17.3440 C   0  0  0  0  0  3  0  0  0  0  0  0
  -28.8250  -19.7430   17.4280 C   0  0  0  0  0  3  0  0  0  0  0  0
  -29.2910  -26.0180   18.0710 C   0  0  0  0  0  0  0  0  0  0  0  0
  -29.1360  -27.0570   17.4200 O   0  0  0  0  0  0  0  0  0  0  0  0
  -29.1470  -25.9590   19.6000 C   0  0  0  0  0  2  0  0  0  0  0  0
  -28.9150  -27.2400   20.1520 O   0  0  0  0  0  0  0  0  0  0  0  0
  -24.7010  -31.9550   23.2400 C   0  0  0  0  0  0  0  0  0  0  0  0
  -27.6510  -27.7790   20.1240 C   0  0  0  0  0  0  0  0  0  0  0  0
  -23.5940  -30.5210   21.5500 C   0  0  0  0  0  3  0  0  0  0  0  0
  -25.1540  -29.0900   20.1270 C   0  0  0  0  0  0  0  0  0  0  0  0
  -26.0890  -31.0380   21.3930 C   0  0  0  0  0  2  0  0  0  0  0  0
  -26.2610  -29.6850   20.7400 C   0  0  0  0  0  0  0  0  0  0  0  0
  -27.5040  -29.0310   20.7430 C   0  0  0  0  0  3  0  0  0  0  0  0
  -26.5230  -27.1730   19.5180 C   0  0  0  0  0  3  0  0  0  0  0  0
  -25.2760  -27.8280   19.5180 C   0  0  0  0  0  3  0  0  0  0  0  0
  -23.8590  -29.8690   20.1640 C   0  0  0  0  0  2  0  0  0  0  0  0
  -24.8110  -31.1830   22.1220 N   0  0  0  0  0  0  0  0  0  0  0  0
  -23.6000  -32.1560   23.7720 O   0  0  0  0  0  0  0  0  0  0  0  0
  -22.9870  -29.4500   22.4820 C   0  0  0  0  0  0  0  0  0  0  0  0
  -21.6790  -29.1950   22.3250 N   0  0  0  0  0  0  0  0  0  0  0  0
  -23.6910  -28.8480   23.2980 O   0  0  0  0  0  0  0  0  0  0  0  0
  -21.1700  -29.7370   21.6390 H   0  0  0  0  0  0  0  0  0  0  0  0
  -18.3730  -27.7920   22.7180 C   0  0  0  0  0  0  0  0  0  0  0  0
  -20.9020  -28.1990   23.0620 C   0  0  0  0  0  3  0  0  0  0  0  0
  -21.1070  -26.7850   22.4700 C   0  0  0  0  0  2  0  0  0  0  0  0
  -20.0550  -26.4090   21.4230 C   0  0  0  0  0  2  0  0  0  0  0  0
  -18.6490  -26.4650   22.0300 C   0  0  0  0  0  2  0  0  0  0  0  0
  -19.4330  -28.6140   23.1870 C   0  0  0  0  0  0  0  0  0  0  0  0
  -19.1260  -29.8550   23.7870 C   0  0  0  0  0  3  0  0  0  0  0  0
  -17.7920  -30.2800   23.9180 C   0  0  0  0  0  3  0  0  0  0  0  0
  -16.7440  -29.4560   23.4670 C   0  0  0  0  0  3  0  0  0  0  0  0
  -17.0360  -28.2130   22.8760 C   0  0  0  0  0  3  0  0  0  0  0  0
  -25.9440  -32.6410   23.8900 C   0  0  0  0  0  3  0  0  0  0  0  0
  -25.5830  -34.0330   24.1830 N   0  0  0  0  0  0  0  0  0  0  0  0
  -25.9270  -35.0820   23.4230 C   0  0  0  0  0  0  0  0  0  0  0  0
  -26.6550  -34.9800   22.4320 O   0  0  0  0  0  0  0  0  0  0  0  0
  -24.9460  -34.1850   24.9520 H   0  0  0  0  0  0  0  0  0  0  0  0
  -24.1770  -36.8160   22.9310 C   0  0  0  0  0  1  0  0  0  0  0  0
  -25.3750  -36.4610   23.8260 C   0  0  0  0  0  3  0  0  0  0  0  0
  -27.4340  -37.4090   24.7670 C   0  0  0  0  0  1  0  0  0  0  0  0
  -26.3840  -37.5410   23.7600 N   0  0  0  0  0  0  0  0  0  0  0  0
  -25.9490  -38.4530   23.8740 H   0  0  0  0  0  0  0  0  0  0  0  0
  -26.4440  -31.9110   25.1960 C   0  0  1  0  0  0  0  0  0  0  0  0
  -25.3260  -31.6510   26.2320 C   0  0  0  0  0  1  0  0  0  0  0  0
  -27.0890  -30.5510   24.8440 C   0  0  0  0  0  1  0  0  0  0  0  0
  -27.5450  -32.7560   25.8800 C   0  0  0  0  0  1  0  0  0  0  0  0
  -28.0290  -18.5150   17.9790 C   0  0  0  0  0  3  0  0  0  0  0  0
  -26.2420  -17.6160   19.6500 C   0  0  0  0  0  1  0  0  0  0  0  0
  -27.0740  -18.8130   19.1660 C   0  0  0  0  0  2  0  0  0  0  0  0
  -29.0100  -17.3620   18.2850 C   0  0  0  0  0  2  0  0  0  0  0  0
  -29.7080  -17.4450   19.6610 C   0  0  0  0  0  2  0  0  0  0  0  0
  -30.7050  -16.2970   19.8600 C   0  0  0  0  0  2  0  0  0  0  0  0
  -30.7110  -15.7330   21.3000 C   0  0  0  0  0  2  0  0  0  0  0  0
  -31.9260  -13.7320   20.5000 C   0  0  0  0  0  0  0  0  0  0  0  0
  -31.1730  -12.0570   18.8610 C   0  0  0  0  0  2  0  0  0  0  0  0
  -30.2600  -12.7010   17.8010 C   0  0  0  0  0  2  0  0  0  0  0  0
  -28.7950  -12.6940   18.2760 C   0  0  0  0  0  2  0  0  0  0  0  0
  -28.6350  -13.2560   19.7100 C   0  0  0  0  0  3  0  0  0  0  0  0
  -29.6590  -12.6190   20.6770 C   0  0  0  0  0  2  0  0  0  0  0  0
  -31.0060  -12.8080   20.1130 N   0  0  0  0  0  0  0  0  0  0  0  0
  -33.0350  -13.8490   19.9770 O   0  0  0  0  0  0  0  0  0  0  0  0
  -31.5800  -14.5650   21.4890 N   0  0  0  0  0  0  0  0  0  0  0  0
  -32.3860  -14.8210   22.0420 H   0  0  0  0  0  0  0  0  0  0  0  0
  -26.3300  -14.0850   20.4870 C   0  0  0  0  0  0  0  0  0  0  0  0
  -25.1890  -13.4160   20.8310 C   0  0  0  0  0  0  0  0  0  0  0  0
  -25.5010  -12.0250   20.7280 C   0  0  0  0  0  0  0  0  0  0  0  0
  -27.2690  -13.1080   20.1980 N   0  0  0  0  0  0  0  0  0  0  0  0
  -26.7750  -11.8610   20.3990 N   0  0  0  0  0  0  0  0  0  0  0  0
  -24.6480  -10.8380   20.8660 C   0  0  0  0  0  0  0  0  0  0  0  0
  -24.9810   -9.7910   21.7520 C   0  0  0  0  0  3  0  0  0  0  0  0
  -24.1330   -8.6710   21.8860 C   0  0  0  0  0  3  0  0  0  0  0  0
  -22.9390   -8.5900   21.1290 C   0  0  0  0  0  0  0  0  0  0  0  0
  -22.6240   -9.6250   20.2300 C   0  0  0  0  0  3  0  0  0  0  0  0
  -23.4720  -10.7360   20.0960 C   0  0  0  0  0  3  0  0  0  0  0  0
  -22.0690   -7.5270   21.1720 O   0  0  0  0  0  0  0  0  0  0  0  0
  -21.9060   -6.7780   22.3100 C   0  0  0  0  0  0  0  0  0  0  0  0
  -21.5410   -7.3640   23.5430 C   0  0  0  0  0  3  0  0  0  0  0  0
  -21.3110   -6.5490   24.6680 C   0  0  0  0  0  3  0  0  0  0  0  0
  -21.4380   -5.1510   24.5620 C   0  0  0  0  0  0  0  0  0  0  0  0
  -21.7990   -4.5660   23.3360 C   0  0  0  0  0  3  0  0  0  0  0  0
  -22.0280   -5.3780   22.2100 C   0  0  0  0  0  0  0  0  0  0  0  0
  -22.3510   -4.8090   21.0230 F   0  0  0  0  0  0  0  0  0  0  0  0
  -21.2130   -4.3640   25.6390 F   0  0  0  0  0  0  0  0  0  0  0  0
  -23.8550  -14.0240   21.1520 C   0  0  0  0  0  0  0  0  0  0  0  0
  -23.0850  -13.3810   22.0220 N   0  0  0  0  0  0  0  0  0  0  0  0
  -23.5100  -15.1030   20.6700 O   0  0  0  0  0  0  0  0  0  0  0  0
  -23.3780  -12.5050   22.4300 H   0  0  0  0  0  0  0  0  0  0  0  0
  -22.1910  -13.7710   22.2890 H   0  0  0  0  0  0  0  0  0  0  0  0
  -26.6460  -15.4340   20.3740 N   0  0  0  0  0  0  0  0  0  0  0  0
  -25.9570  -16.1660   20.5050 H   0  0  0  0  0  0  0  0  0  0  0  0
  -27.5430  -15.7780   20.0580 H   0  0  0  0  0  0  0  0  0  0  0  0
  1  7  1  0
  2  1  1  0
  3  8  1  0
  3  4  1  0
  4 10  1  0
  7  5  1  0
  7 11  1  0
  8  2  1  0
  8  9  1  0
  9  5  1  0
  9  6  1  0
 10  6  1  0
 10 55  1  0
 11 13  1  0
 12 11  2  0
 13 14  1  0
 15 26  2  0
 16 14  1  0
 16 21  1  0
 17 25  1  0
 17 27  1  0
 18 24  1  0
 18 20  1  0
 19 25  1  0
 20 21  2  0
 20 19  1  0
 22 23  1  0
 22 16  2  0
 23 18  2  0
 24 17  1  0
 25 15  1  0
 27 29  2  0
 28 27  1  0
 30 28  1  0
 31 40  2  0
 31 36  1  0
 32 28  1  0
 32 36  1  0
 33 32  1  0
 34 35  1  0
 34 33  1  0
 35 31  1  0
 36 37  2  0
 37 38  1  0
 39 38  2  0
 40 39  1  0
 41 15  1  0
 41 42  1  0
 41 51  1  0
 42 45  1  0
 43 47  1  0
 43 42  1  0
 44 43  2  0
 47 46  1  0
 49 47  1  0
 49 50  1  0
 49 48  1  0
 51 54  1  1
 51 52  1  0
 53 51  1  0
 55 58  1  0
 55 57  1  0
 57 56  1  0
 58 59  1  0
 59 60  1  0
 60 61  1  0
 61 70  1  0
 62 70  1  0
 63 68  1  0
 64 65  1  0
 64 63  1  0
 66 65  1  0
 66 75  1  0
 66 67  1  0
 68 62  1  0
 68 67  1  0
 69 62  2  0
 70 71  1  0
 72 73  2  0
 73 92  1  0
 74 73  1  0
 74 77  1  0
 75 76  1  0
 75 72  1  0
 76 74  2  0
 77 78  1  0
 78 79  2  0
 80 83  1  0
 80 79  1  0
 81 80  2  0
 82 81  1  0
 82 77  2  0
 83 84  1  0
 84 85  1  0
 85 86  2  0
 87 86  1  0
 87 91  1  0
 88 87  2  0
 89 84  2  0
 89 88  1  0
 90 89  1  0
 92 93  1  0
 93 96  1  0
 93 95  1  0
 94 92  2  0
 97 72  1  0
 97 98  1  0
 99 97  1  0
M  ISO  4  13 101  14 101  62 100  70 100
M  END
>  <TORSDO>  (26) 
F 24

>  <SCORE>  (26) 
-11.431

>  <name>  (26) 
25

>  <ligand_id>  (26) 
25

>  <original_smiles>  (26) 
[H]c1c([H])c([H])c2c(c1[H])C([H])([H])C([H])([H])C([H])([H])C2([H])N([H])C(=O)C1([H])N(C(=O)C([H])(N([H])C(=O)C([H])(N([H])C([H])([H])[H])C([H])([H])[H])C(C([H])([H])[H])(C([H])([H])[H])C([H])([H])[H])C([H])([H])c2c([H])c(OC([H])([H])C(=O)C3([H])C([H])([H])C([H])([H])C4([H])C([H])([H])C([H])([H])C([H])(C([H])(C([H])([H])C([H])([H])[H])C([H])([H])C([H])([H])C([H])([H])C([H])([H])N([H])C(=O)N5C([H])([H])C([H])([H])C([H])([H])C([H])(n6nc(-c7c([H])c([H])c(Oc8c([H])c([H])c(F)c([H])c8F)c([H])c7[H])c(C(=O)N([H])[H])c6N([H])[H])C5([H])[H])C([H])([H])C4([H])C3([H])[H])c([H])c([H])c2C1([H])[H]

>  <smiles>  (26) 
[H]c1c([H])c([H])c2c(c1[H])C([H])([H])C([H])([H])C([H])([H])C2([H])N([H])C(=O)C1([H])N(C(=O)C([H])(N([H])C(=O)C([H])(N([H])C([H])([H])[H])C([H])([H])[H])C(C([H])([H])[H])(C([H])([H])[H])C([H])([H])[H])C([H])([H])c2c([H])c(OC([H])([H])C(=O)C3([H])C([H])([H])C([H])([H])C4([H])C([H])([H])C([H])([H])C([H])(C([H])(C([H])([H])C([H])([H])[H])C([H])([H])C([H])([H])C([H])([H])C([H])([H])N([H])C(=O)N5C([H])([H])C([H])([H])C([H])([H])C([H])(n6nc(-c7c([H])c([H])c(Oc8c([H])c([H])c(F)c([H])c8F)c([H])c7[H])c(C(=O)N([H])[H])c6N([H])[H])C5([H])[H])C([H])([H])C4([H])C3([H])[H])c([H])c([H])c2C1([H])[H]

$$$$
26:0:0
     RDKit          3D

 94101  0  0  1  0  0  0  0  0999 V2000
  -28.6650  -22.6290   20.2900 C   0  0  0  0  0  3  0  0  0  0  0  0
  -29.6420  -21.3570   20.1260 C   0  0  0  0  0  2  0  0  0  0  0  0
  -29.1940  -19.9810   20.8310 C   0  0  0  0  0  2  0  0  0  0  0  0
  -29.4580  -18.5460   20.1660 C   0  0  0  0  0  2  0  0  0  0  0  0
  -29.9390  -17.3480   21.1170 C   0  0  0  0  0  2  0  0  0  0  0  0
  -30.4930  -14.8590   20.4880 C   0  0  0  0  0  0  0  0  0  0  0  0
  -30.3690  -12.6060   19.4290 C   0  0  0  0  0  2  0  0  0  0  0  0
  -29.4230  -12.6720   18.2090 C   0  0  0  0  0  2  0  0  0  0  0  0
  -27.9610  -12.4540   18.6440 C   0  0  0  0  0  2  0  0  0  0  0  0
  -27.5610  -13.3370   19.8560 C   0  0  0  0  0  3  0  0  0  0  0  0
  -28.6160  -13.2410   20.9790 C   0  0  0  0  0  2  0  0  0  0  0  0
  -29.9090  -13.6240   20.3950 N   0  0  0  0  0  0  0  0  0  0  0  0
  -31.6770  -15.0320   20.1930 O   0  0  0  0  0  0  0  0  0  0  0  0
  -29.6510  -15.9130   20.7400 N   0  0  0  0  0  0  0  0  0  0  0  0
  -28.6840  -15.6370   20.8400 H   0  0  0  0  0  0  0  0  0  0  0  0
  -25.1520  -13.8740   20.5680 C   0  0  0  0  0  0  0  0  0  0  0  0
  -24.1040  -13.0720   20.9290 C   0  0  0  0  0  0  0  0  0  0  0  0
  -24.6030  -11.7330   20.8990 C   0  0  0  0  0  0  0  0  0  0  0  0
  -26.2200  -13.0220   20.3370 N   0  0  0  0  0  0  0  0  0  0  0  0
  -25.8960  -11.7290   20.6000 N   0  0  0  0  0  0  0  0  0  0  0  0
  -23.9130  -10.4520   21.0830 C   0  0  0  0  0  0  0  0  0  0  0  0
  -24.3620   -9.4980   22.0220 C   0  0  0  0  0  3  0  0  0  0  0  0
  -23.6700   -8.2800   22.1910 C   0  0  0  0  0  3  0  0  0  0  0  0
  -22.5160   -8.0060   21.4200 C   0  0  0  0  0  0  0  0  0  0  0  0
  -22.0880   -8.9490   20.4690 C   0  0  0  0  0  3  0  0  0  0  0  0
  -22.7800  -10.1590   20.2970 C   0  0  0  0  0  3  0  0  0  0  0  0
  -21.7940   -6.8400   21.4980 O   0  0  0  0  0  0  0  0  0  0  0  0
  -21.7520   -6.0950   22.6500 C   0  0  0  0  0  0  0  0  0  0  0  0
  -21.2890   -6.6350   23.8690 C   0  0  0  0  0  3  0  0  0  0  0  0
  -21.2000   -5.8160   25.0140 C   0  0  0  0  0  3  0  0  0  0  0  0
  -21.5610   -4.4570   24.9370 C   0  0  0  0  0  0  0  0  0  0  0  0
  -22.0160   -3.9170   23.7220 C   0  0  0  0  0  3  0  0  0  0  0  0
  -22.1080   -4.7330   22.5810 C   0  0  0  0  0  0  0  0  0  0  0  0
  -22.5280   -4.2030   21.4070 F   0  0  0  0  0  0  0  0  0  0  0  0
  -21.4670   -3.6690   26.0330 F   0  0  0  0  0  0  0  0  0  0  0  0
  -22.6920  -13.5090   21.1940 C   0  0  0  0  0  0  0  0  0  0  0  0
  -21.9780  -12.7880   22.0510 N   0  0  0  0  0  0  0  0  0  0  0  0
  -22.2310  -14.5250   20.6750 O   0  0  0  0  0  0  0  0  0  0  0  0
  -22.3610  -11.9630   22.4870 H   0  0  0  0  0  0  0  0  0  0  0  0
  -21.0310  -13.0630   22.2740 H   0  0  0  0  0  0  0  0  0  0  0  0
  -25.2760  -15.2510   20.3920 N   0  0  0  0  0  0  0  0  0  0  0  0
  -24.4850  -15.8740   20.5040 H   0  0  0  0  0  0  0  0  0  0  0  0
  -26.1030  -15.7210   20.0500 H   0  0  0  0  0  0  0  0  0  0  0  0
  -27.5660  -22.5580   19.2040 C   0  0  0  0  0  2  0  0  0  0  0  0
  -25.5990  -23.6880   18.0650 C   0  0  0  0  0  1  0  0  0  0  0  0
  -25.5890  -23.3340   20.5980 C   0  0  0  0  0  1  0  0  0  0  0  0
  -26.4470  -23.6110   19.3490 C   0  0  0  0  0  3  0  0  0  0  0  0
  -29.1770  -24.1510   20.5700 C   0  0  0  0  0  3  0  0  0  0  0  0
  -30.5980  -24.1850   20.9690 N   0  0  0  0  0  4  0  0  0  0  0  0
  -31.1870  -23.8080   20.2470 H   0  0  0  0  0  0  0  0  0  0  0  0
  -30.7560  -23.6660   21.8160 H   0  0  0  0  0  0  0  0  0  0  0  0
  -30.8870  -25.1370   21.1340 H   0  0  0  0  0  0  0  0  0  0  0  0
  -28.8570  -25.3850   19.5930 C   0  0  0  0  0  2  0  0  0  0  0  0
  -28.7060  -26.7300   20.2180 O   0  0  0  0  0  0  0  0  0  0  0  0
  -24.6810  -31.9140   23.2730 C   0  0  0  0  0  0  0  0  0  0  0  0
  -27.5210  -27.4940   20.1720 C   0  0  0  0  0  0  0  0  0  0  0  0
  -23.5660  -30.5220   21.5650 C   0  0  0  0  0  3  0  0  0  0  0  0
  -25.0980  -29.0350   20.1600 C   0  0  0  0  0  0  0  0  0  0  0  0
  -26.1010  -30.9110   21.4580 C   0  0  0  0  0  2  0  0  0  0  0  0
  -26.2390  -29.5440   20.7920 C   0  0  0  0  0  0  0  0  0  0  0  0
  -27.4490  -28.7850   20.7840 C   0  0  0  0  0  3  0  0  0  0  0  0
  -26.3390  -27.0300   19.5460 C   0  0  0  0  0  3  0  0  0  0  0  0
  -25.1490  -27.7800   19.5370 C   0  0  0  0  0  3  0  0  0  0  0  0
  -23.8390  -29.8780   20.1830 C   0  0  0  0  0  2  0  0  0  0  0  0
  -24.8010  -31.1310   22.1600 N   0  0  0  0  0  0  0  0  0  0  0  0
  -23.5740  -32.1580   23.7740 O   0  0  0  0  0  0  0  0  0  0  0  0
  -22.8960  -29.4710   22.4840 C   0  0  0  0  0  0  0  0  0  0  0  0
  -21.5790  -29.2660   22.3080 N   0  0  0  0  0  0  0  0  0  0  0  0
  -23.5620  -28.8400   23.3090 O   0  0  0  0  0  0  0  0  0  0  0  0
  -21.1010  -29.8320   21.6220 H   0  0  0  0  0  0  0  0  0  0  0  0
  -18.2120  -27.9930   22.6730 C   0  0  0  0  0  0  0  0  0  0  0  0
  -20.7560  -28.2890   23.0250 C   0  0  0  0  0  3  0  0  0  0  0  0
  -20.9000  -26.8770   22.4100 C   0  0  0  0  0  2  0  0  0  0  0  0
  -19.8360  -26.5680   21.3530 C   0  0  0  0  0  2  0  0  0  0  0  0
  -18.4330  -26.6690   21.9600 C   0  0  0  0  0  2  0  0  0  0  0  0
  -19.3040  -28.7610   23.1570 C   0  0  0  0  0  0  0  0  0  0  0  0
  -19.0470  -30.0020   23.7800 C   0  0  0  0  0  3  0  0  0  0  0  0
  -17.7310  -30.4760   23.9250 C   0  0  0  0  0  3  0  0  0  0  0  0
  -16.6510  -29.7030   23.4590 C   0  0  0  0  0  3  0  0  0  0  0  0
  -16.8920  -28.4640   22.8400 C   0  0  0  0  0  3  0  0  0  0  0  0
  -25.9230  -32.5620   23.9580 C   0  0  0  0  0  3  0  0  0  0  0  0
  -26.3720  -31.8120   25.2710 C   0  0  1  0  0  0  0  0  0  0  0  0
  -25.2240  -31.5710   26.2810 C   0  0  0  0  0  1  0  0  0  0  0  0
  -26.9850  -30.4370   24.9250 C   0  0  0  0  0  1  0  0  0  0  0  0
  -27.4860  -32.6180   25.9810 C   0  0  0  0  0  1  0  0  0  0  0  0
  -25.5870  -33.9620   24.2520 N   0  0  0  0  0  0  0  0  0  0  0  0
  -25.9280  -35.0080   23.4860 C   0  0  0  0  0  0  0  0  0  0  0  0
  -26.6310  -34.8940   22.4790 O   0  0  0  0  0  0  0  0  0  0  0  0
  -24.9610  -34.1240   25.0290 H   0  0  0  0  0  0  0  0  0  0  0  0
  -24.1810  -36.7690   23.0590 C   0  0  0  0  0  1  0  0  0  0  0  0
  -25.4110  -36.3980   23.9040 C   0  0  0  0  0  3  0  0  0  0  0  0
  -27.5160  -37.3320   24.7580 C   0  0  0  0  0  1  0  0  0  0  0  0
  -26.4300  -37.4640   23.7900 N   0  0  0  0  0  0  0  0  0  0  0  0
  -26.0100  -38.3810   23.9110 H   0  0  0  0  0  0  0  0  0  0  0  0
  1 44  1  0
  1 48  1  0
  2  1  1  0
  2  3  1  0
  4  3  1  0
  4  5  1  0
  6 14  1  0
  7 12  1  0
  8  9  1  0
  8  7  1  0
 10  9  1  0
 10 19  1  0
 10 11  1  0
 12  6  1  0
 12 11  1  0
 13  6  2  0
 14 15  1  0
 14  5  1  0
 16 17  2  0
 17 36  1  0
 18 17  1  0
 18 21  1  0
 19 16  1  0
 19 20  1  0
 20 18  2  0
 21 22  1  0
 22 23  2  0
 24 27  1  0
 24 23  1  0
 25 24  2  0
 26 25  1  0
 26 21  2  0
 27 28  1  0
 28 29  1  0
 29 30  2  0
 31 30  1  0
 31 35  1  0
 32 31  2  0
 33 28  2  0
 33 32  1  0
 34 33  1  0
 36 37  1  0
 37 40  1  0
 37 39  1  0
 38 36  2  0
 41 42  1  0
 41 16  1  0
 43 41  1  0
 44 47  1  0
 45 47  1  0
 47 46  1  0
 48 53  1  0
 48 49  1  0
 49 52  1  0
 49 51  1  0
 50 49  1  0
 53 54  1  0
 55 66  2  0
 56 54  1  0
 56 61  1  0
 57 65  1  0
 57 67  1  0
 58 64  1  0
 58 60  1  0
 59 65  1  0
 60 59  1  0
 61 60  2  0
 62 56  2  0
 63 62  1  0
 63 58  2  0
 64 57  1  0
 65 55  1  0
 67 69  2  0
 68 67  1  0
 70 68  1  0
 71 80  2  0
 71 76  1  0
 72 68  1  0
 72 76  1  0
 73 72  1  0
 74 75  1  0
 74 73  1  0
 75 71  1  0
 76 77  2  0
 77 78  1  0
 79 78  2  0
 80 79  1  0
 81 55  1  0
 81 86  1  0
 81 82  1  0
 82 85  1  1
 82 83  1  0
 84 82  1  0
 86 89  1  0
 87 91  1  0
 87 86  1  0
 88 87  2  0
 91 90  1  0
 93 91  1  0
 93 94  1  0
 93 92  1  0
M  ISO  4   6 100  14 100  53 101  54 101
M  END
>  <TORSDO>  (27) 
F 25

>  <SCORE>  (27) 
-12.331

>  <name>  (27) 
26

>  <ligand_id>  (27) 
26

>  <original_smiles>  (27) 
[H]c1c([H])c([H])c2c(c1[H])C([H])([H])C([H])([H])C([H])([H])C2([H])N([H])C(=O)C1([H])N(C(=O)C([H])(N([H])C(=O)C([H])(N([H])C([H])([H])[H])C([H])([H])[H])C(C([H])([H])[H])(C([H])([H])[H])C([H])([H])[H])C([H])([H])c2c([H])c(OC([H])([H])C([H])(C([H])(C([H])([H])C([H])([H])C([H])([H])C([H])([H])N([H])C(=O)N3C([H])([H])C([H])([H])C([H])([H])C([H])(n4nc(-c5c([H])c([H])c(Oc6c([H])c([H])c(F)c([H])c6F)c([H])c5[H])c(C(=O)N([H])[H])c4N([H])[H])C3([H])[H])C([H])([H])C([H])(C([H])([H])[H])C([H])([H])[H])[N+]([H])([H])[H])c([H])c([H])c2C1([H])[H]

>  <smiles>  (27) 
[H]c1c([H])c([H])c2c(c1[H])C([H])([H])C([H])([H])C([H])([H])C2([H])N([H])C(=O)C1([H])N(C(=O)C([H])(N([H])C(=O)C([H])(N([H])C([H])([H])[H])C([H])([H])[H])C(C([H])([H])[H])(C([H])([H])[H])C([H])([H])[H])C([H])([H])c2c([H])c(OC([H])([H])C([H])(C([H])(C([H])([H])C([H])([H])C([H])([H])C([H])([H])N([H])C(=O)N3C([H])([H])C([H])([H])C([H])([H])C([H])(n4nc(-c5c([H])c([H])c(Oc6c([H])c([H])c(F)c([H])c6F)c([H])c5[H])c(C(=O)N([H])[H])c4N([H])[H])C3([H])[H])C([H])([H])C([H])(C([H])([H])[H])C([H])([H])[H])[N+]([H])([H])[H])c([H])c([H])c2C1([H])[H]

$$$$
27:0:0
     RDKit          3D

 96103  0  0  1  0  0  0  0  0999 V2000
  -29.9210  -18.5670   20.9970 C   0  0  0  0  0  0  0  0  0  0  0  0
  -29.8400  -19.8250   20.4360 N   0  0  0  0  0  0  0  0  0  0  0  0
  -29.7090  -18.3930   22.1960 O   0  0  0  0  0  0  0  0  0  0  0  0
  -30.0280  -19.8560   19.4440 H   0  0  0  0  0  0  0  0  0  0  0  0
  -29.6370  -21.1740   21.1010 C   0  0  0  0  0  3  0  0  0  0  0  0
  -29.0620  -22.3900   20.2210 C   0  0  0  0  0  3  0  0  0  0  0  0
  -29.1120  -23.9000   20.7850 C   0  0  0  0  0  3  0  0  0  0  0  0
  -28.2360  -25.0280   20.0520 C   0  0  0  0  0  3  0  0  0  0  0  0
  -28.3860  -26.4820   20.3670 O   0  0  0  0  0  0  0  0  0  0  0  0
  -24.6240  -31.9340   23.2470 C   0  0  0  0  0  0  0  0  0  0  0  0
  -27.2750  -27.3450   20.2570 C   0  0  0  0  0  0  0  0  0  0  0  0
  -23.4400  -30.5180   21.6090 C   0  0  0  0  0  3  0  0  0  0  0  0
  -24.9080  -28.9670   20.2010 C   0  0  0  0  0  0  0  0  0  0  0  0
  -25.9790  -30.8410   21.4460 C   0  0  0  0  0  2  0  0  0  0  0  0
  -26.0680  -29.4580   20.8110 C   0  0  0  0  0  0  0  0  0  0  0  0
  -27.2520  -28.6570   20.8360 C   0  0  0  0  0  3  0  0  0  0  0  0
  -26.0990  -26.9300   19.5910 C   0  0  0  0  0  3  0  0  0  0  0  0
  -24.9270  -27.7100   19.5800 C   0  0  0  0  0  3  0  0  0  0  0  0
  -23.6650  -29.8360   20.2330 C   0  0  0  0  0  2  0  0  0  0  0  0
  -24.6990  -31.1160   22.1570 N   0  0  0  0  0  0  0  0  0  0  0  0
  -23.5350  -32.2090   23.7720 O   0  0  0  0  0  0  0  0  0  0  0  0
  -22.7740  -29.5060   22.5720 C   0  0  0  0  0  0  0  0  0  0  0  0
  -21.4490  -29.3270   22.4400 N   0  0  0  0  0  0  0  0  0  0  0  0
  -23.4500  -28.8880   23.3990 O   0  0  0  0  0  0  0  0  0  0  0  0
  -20.9630  -29.8760   21.7450 H   0  0  0  0  0  0  0  0  0  0  0  0
  -18.0660  -28.1490   22.9500 C   0  0  0  0  0  0  0  0  0  0  0  0
  -20.6260  -28.3930   23.2140 C   0  0  0  0  0  3  0  0  0  0  0  0
  -20.7200  -26.9610   22.6400 C   0  0  0  0  0  2  0  0  0  0  0  0
  -19.6130  -26.6440   21.6290 C   0  0  0  0  0  2  0  0  0  0  0  0
  -18.2340  -26.7990   22.2750 C   0  0  0  0  0  2  0  0  0  0  0  0
  -19.1900  -28.9050   23.3780 C   0  0  0  0  0  0  0  0  0  0  0  0
  -18.9790  -30.1700   23.9680 C   0  0  0  0  0  3  0  0  0  0  0  0
  -17.6780  -30.6770   24.1380 C   0  0  0  0  0  3  0  0  0  0  0  0
  -16.5670  -29.9180   23.7280 C   0  0  0  0  0  3  0  0  0  0  0  0
  -16.7630  -28.6560   23.1380 C   0  0  0  0  0  3  0  0  0  0  0  0
  -25.8980  -32.5770   23.8730 C   0  0  0  0  0  3  0  0  0  0  0  0
  -26.4120  -31.8170   25.1580 C   0  0  1  0  0  0  0  0  0  0  0  0
  -25.3090  -31.5690   26.2140 C   0  0  0  0  0  1  0  0  0  0  0  0
  -27.0190  -30.4480   24.7780 C   0  0  0  0  0  1  0  0  0  0  0  0
  -27.5460  -32.6300   25.8280 C   0  0  0  0  0  1  0  0  0  0  0  0
  -25.5790  -33.9770   24.1940 N   0  0  0  0  0  0  0  0  0  0  0  0
  -25.9100  -35.0270   23.4300 C   0  0  0  0  0  0  0  0  0  0  0  0
  -26.5880  -34.9220   22.4050 O   0  0  0  0  0  0  0  0  0  0  0  0
  -24.9820  -34.1340   24.9920 H   0  0  0  0  0  0  0  0  0  0  0  0
  -24.1760  -36.8090   23.0610 C   0  0  0  0  0  1  0  0  0  0  0  0
  -25.4160  -36.4150   23.8790 C   0  0  0  0  0  3  0  0  0  0  0  0
  -27.5420  -37.3180   24.7130 C   0  0  0  0  0  1  0  0  0  0  0  0
  -26.4440  -37.4730   23.7620 N   0  0  0  0  0  0  0  0  0  0  0  0
  -26.0320  -38.3920   23.9030 H   0  0  0  0  0  0  0  0  0  0  0  0
  -30.2940  -17.3000   20.1090 C   0  0  0  0  0  3  0  0  0  0  0  0
  -30.8290  -14.7690   20.3510 C   0  0  0  0  0  0  0  0  0  0  0  0
  -30.5620  -12.5410   19.2790 C   0  0  0  0  0  2  0  0  0  0  0  0
  -29.6180  -12.6940   18.0630 C   0  0  0  0  0  2  0  0  0  0  0  0
  -28.1490  -12.5440   18.4980 C   0  0  0  0  0  2  0  0  0  0  0  0
  -27.8080  -13.3920   19.7530 C   0  0  0  0  0  3  0  0  0  0  0  0
  -28.8710  -13.2320   20.8620 C   0  0  0  0  0  2  0  0  0  0  0  0
  -30.1780  -13.5620   20.2780 N   0  0  0  0  0  0  0  0  0  0  0  0
  -31.9910  -14.8770   19.9490 O   0  0  0  0  0  0  0  0  0  0  0  0
  -30.0840  -15.8920   20.6390 N   0  0  0  0  0  0  0  0  0  0  0  0
  -29.1770  -15.7210   21.0470 H   0  0  0  0  0  0  0  0  0  0  0  0
  -25.4290  -14.0030   20.4930 C   0  0  0  0  0  0  0  0  0  0  0  0
  -24.3540  -13.2380   20.8570 C   0  0  0  0  0  0  0  0  0  0  0  0
  -24.8020  -11.8830   20.8050 C   0  0  0  0  0  0  0  0  0  0  0  0
  -26.4610  -13.1160   20.2420 N   0  0  0  0  0  0  0  0  0  0  0  0
  -26.0910  -11.8340   20.4890 N   0  0  0  0  0  0  0  0  0  0  0  0
  -24.0620  -10.6270   20.9800 C   0  0  0  0  0  0  0  0  0  0  0  0
  -24.4880   -9.6390   21.8960 C   0  0  0  0  0  3  0  0  0  0  0  0
  -23.7480   -8.4480   22.0590 C   0  0  0  0  0  3  0  0  0  0  0  0
  -22.5680   -8.2360   21.3070 C   0  0  0  0  0  0  0  0  0  0  0  0
  -22.1620   -9.2110   20.3780 C   0  0  0  0  0  3  0  0  0  0  0  0
  -22.9030  -10.3950   20.2140 C   0  0  0  0  0  3  0  0  0  0  0  0
  -21.8000   -7.1010   21.3820 O   0  0  0  0  0  0  0  0  0  0  0  0
  -21.7530   -6.3370   22.5210 C   0  0  0  0  0  0  0  0  0  0  0  0
  -21.3540   -6.8740   23.7640 C   0  0  0  0  0  3  0  0  0  0  0  0
  -21.2560   -6.0370   24.8940 C   0  0  0  0  0  3  0  0  0  0  0  0
  -21.5440   -4.6640   24.7800 C   0  0  0  0  0  0  0  0  0  0  0  0
  -21.9360   -4.1270   23.5420 C   0  0  0  0  0  3  0  0  0  0  0  0
  -22.0380   -4.9600   22.4150 C   0  0  0  0  0  0  0  0  0  0  0  0
  -22.3950   -4.4330   21.2190 F   0  0  0  0  0  0  0  0  0  0  0  0
  -21.4420   -3.8590   25.8630 F   0  0  0  0  0  0  0  0  0  0  0  0
  -22.9650  -13.7280   21.1420 C   0  0  0  0  0  0  0  0  0  0  0  0
  -22.2370  -13.0350   22.0100 N   0  0  0  0  0  0  0  0  0  0  0  0
  -22.5350  -14.7620   20.6310 O   0  0  0  0  0  0  0  0  0  0  0  0
  -22.5960  -12.1960   22.4410 H   0  0  0  0  0  0  0  0  0  0  0  0
  -21.3050  -13.3460   22.2460 H   0  0  0  0  0  0  0  0  0  0  0  0
  -25.6070  -15.3740   20.3370 N   0  0  0  0  0  0  0  0  0  0  0  0
  -24.8520  -16.0320   20.4890 H   0  0  0  0  0  0  0  0  0  0  0  0
  -26.4720  -15.8010   20.0410 H   0  0  0  0  0  0  0  0  0  0  0  0
  -29.6980  -17.3910   18.6820 C   0  0  0  0  0  2  0  0  0  0  0  0
  -28.2550  -17.9420   18.6250 C   0  0  0  0  0  2  0  0  0  0  0  0
  -28.1110  -19.1410   17.6700 C   0  0  0  0  0  2  0  0  0  0  0  0
  -26.7590  -19.8700   17.7890 C   0  0  0  0  0  2  0  0  0  0  0  0
  -26.7010  -20.7690   18.9560 N   0  0  0  0  0  4  0  0  0  0  0  0
  -26.9010  -20.2820   19.8110 H   0  0  0  0  0  0  0  0  0  0  0  0
  -25.7810  -21.1670   19.0300 H   0  0  0  0  0  0  0  0  0  0  0  0
  -27.3540  -21.5260   18.8520 H   0  0  0  0  0  0  0  0  0  0  0  0
  1  3  2  0
  2  1  1  0
  2  5  1  0
  4  2  1  0
  6  7  1  0
  6  5  2  0
  8  9  1  0
  8  7  2  0
 10 21  2  0
 11  9  1  0
 11 16  1  0
 12 20  1  0
 12 22  1  0
 13 19  1  0
 13 15  1  0
 14 20  1  0
 15 16  2  0
 15 14  1  0
 17 11  2  0
 18 17  1  0
 18 13  2  0
 19 12  1  0
 20 10  1  0
 22 24  2  0
 23 22  1  0
 25 23  1  0
 26 35  2  0
 26 31  1  0
 27 23  1  0
 27 31  1  0
 28 27  1  0
 29 30  1  0
 29 28  1  0
 30 26  1  0
 31 32  2  0
 32 33  1  0
 34 33  2  0
 35 34  1  0
 36 10  1  0
 36 41  1  0
 36 37  1  0
 37 40  1  1
 37 38  1  0
 39 37  1  0
 41 44  1  0
 42 46  1  0
 42 41  1  0
 43 42  2  0
 46 45  1  0
 48 46  1  0
 48 49  1  0
 48 47  1  0
 50 89  1  0
 50 59  1  0
 50  1  1  0
 51 59  1  0
 52 57  1  0
 53 54  1  0
 53 52  1  0
 55 54  1  0
 55 64  1  0
 55 56  1  0
 57 51  1  0
 57 56  1  0
 58 51  2  0
 59 60  1  0
 61 62  2  0
 62 81  1  0
 63 62  1  0
 63 66  1  0
 64 65  1  0
 64 61  1  0
 65 63  2  0
 66 67  1  0
 67 68  2  0
 69 72  1  0
 69 68  1  0
 70 69  2  0
 71 70  1  0
 71 66  2  0
 72 73  1  0
 73 74  1  0
 74 75  2  0
 76 75  1  0
 76 80  1  0
 77 76  2  0
 78 73  2  0
 78 77  1  0
 79 78  1  0
 81 82  1  0
 82 85  1  0
 82 84  1  0
 83 81  2  0
 86 87  1  0
 86 61  1  0
 88 86  1  0
 90 89  1  0
 91 92  1  0
 91 90  1  0
 92 93  1  0
 93 95  1  0
 93 94  1  0
 96 93  1  0
M  ISO  4   8 101   9 101  51 100  59 100
M  END
>  <TORSDO>  (28) 
F 26

>  <SCORE>  (28) 
-11.709

>  <name>  (28) 
27

>  <ligand_id>  (28) 
27

>  <original_smiles>  (28) 
[H]c1c([H])c([H])c2c(c1[H])C([H])([H])C([H])([H])C([H])([H])C2([H])N([H])C(=O)C1([H])N(C(=O)C([H])(N([H])C(=O)C([H])(N([H])C([H])([H])[H])C([H])([H])[H])C(C([H])([H])[H])(C([H])([H])[H])C([H])([H])[H])C([H])([H])c2c([H])c(OC([H])([H])C([H])([H])C([H])([H])C([H])([H])N([H])C(=O)C([H])(N([H])C(=O)N3C([H])([H])C([H])([H])C([H])([H])C([H])(n4nc(-c5c([H])c([H])c(Oc6c([H])c([H])c(F)c([H])c6F)c([H])c5[H])c(C(=O)N([H])[H])c4N([H])[H])C3([H])[H])C([H])([H])C([H])([H])C([H])([H])C([H])([H])[N+]([H])([H])[H])c([H])c([H])c2C1([H])[H]

>  <smiles>  (28) 
[H]c1c([H])c([H])c2c(c1[H])C([H])([H])C([H])([H])C([H])([H])C2([H])N([H])C(=O)C1([H])N(C(=O)C([H])(N([H])C(=O)C([H])(N([H])C([H])([H])[H])C([H])([H])[H])C(C([H])([H])[H])(C([H])([H])[H])C([H])([H])[H])C([H])([H])c2c([H])c(OC([H])([H])C([H])([H])C([H])([H])C([H])([H])N([H])C(=O)C([H])(N([H])C(=O)N3C([H])([H])C([H])([H])C([H])([H])C([H])(n4nc(-c5c([H])c([H])c(Oc6c([H])c([H])c(F)c([H])c6F)c([H])c5[H])c(C(=O)N([H])[H])c4N([H])[H])C3([H])[H])C([H])([H])C([H])([H])C([H])([H])C([H])([H])[N+]([H])([H])[H])c([H])c([H])c2C1([H])[H]

$$$$
28:0:0
     RDKit          3D

 89 96  0  0  1  0  0  0  0  0999 V2000
  -27.7250  -19.1720   20.8140 C   0  0  0  0  0  1  0  0  0  0  0  0
  -29.0980  -19.6420   20.3210 C   0  0  0  0  0  3  0  0  0  0  0  0
  -28.8360  -21.2730   19.6320 C   0  0  0  0  0  2  0  0  0  0  0  0
  -28.6610  -22.9050   20.3260 C   0  0  0  0  0  3  0  0  0  0  0  0
  -27.9770  -24.4280   19.7050 C   0  0  0  0  0  3  0  0  0  0  0  0
  -28.1050  -26.0020   20.1130 O   0  0  0  0  0  0  0  0  0  0  0  0
  -24.6280  -31.8940   23.1770 C   0  0  0  0  0  0  0  0  0  0  0  0
  -27.0840  -27.0730   20.0430 C   0  0  0  0  0  0  0  0  0  0  0  0
  -23.3810  -30.5140   21.5640 C   0  0  0  0  0  3  0  0  0  0  0  0
  -24.7810  -28.9240   20.0820 C   0  0  0  0  0  0  0  0  0  0  0  0
  -25.9370  -30.7320   21.3370 C   0  0  0  0  0  2  0  0  0  0  0  0
  -25.9840  -29.3310   20.6720 C   0  0  0  0  0  0  0  0  0  0  0  0
  -27.1270  -28.4220   20.6340 C   0  0  0  0  0  3  0  0  0  0  0  0
  -25.8540  -26.8120   19.3970 C   0  0  0  0  0  3  0  0  0  0  0  0
  -24.7370  -27.6840   19.4260 C   0  0  0  0  0  3  0  0  0  0  0  0
  -23.5630  -29.8410   20.1760 C   0  0  0  0  0  2  0  0  0  0  0  0
  -24.6720  -31.0720   22.0800 N   0  0  0  0  0  0  0  0  0  0  0  0
  -23.5560  -32.1820   23.7350 O   0  0  0  0  0  0  0  0  0  0  0  0
  -22.7170  -29.5100   22.5430 C   0  0  0  0  0  0  0  0  0  0  0  0
  -21.3870  -29.3310   22.4410 N   0  0  0  0  0  0  0  0  0  0  0  0
  -23.4040  -28.8910   23.3590 O   0  0  0  0  0  0  0  0  0  0  0  0
  -20.8850  -29.8820   21.7580 H   0  0  0  0  0  0  0  0  0  0  0  0
  -18.0300  -28.0660   22.9810 C   0  0  0  0  0  0  0  0  0  0  0  0
  -20.5870  -28.3880   23.2280 C   0  0  0  0  0  3  0  0  0  0  0  0
  -20.7150  -26.9500   22.6720 C   0  0  0  0  0  2  0  0  0  0  0  0
  -19.6140  -26.5930   21.6680 C   0  0  0  0  0  2  0  0  0  0  0  0
  -18.2330  -26.7140   22.3170 C   0  0  0  0  0  2  0  0  0  0  0  0
  -19.1350  -28.8590   23.3950 C   0  0  0  0  0  0  0  0  0  0  0  0
  -18.8910  -30.1200   23.9800 C   0  0  0  0  0  3  0  0  0  0  0  0
  -17.5750  -30.5910   24.1540 C   0  0  0  0  0  3  0  0  0  0  0  0
  -16.4860  -29.7970   23.7540 C   0  0  0  0  0  3  0  0  0  0  0  0
  -16.7150  -28.5370   23.1740 C   0  0  0  0  0  3  0  0  0  0  0  0
  -25.9220  -32.5280   23.7750 C   0  0  0  0  0  3  0  0  0  0  0  0
  -26.4610  -31.7520   25.0390 C   0  0  1  0  0  0  0  0  0  0  0  0
  -25.3920  -31.5230   26.1340 C   0  0  0  0  0  1  0  0  0  0  0  0
  -27.0250  -30.3680   24.6410 C   0  0  0  0  0  1  0  0  0  0  0  0
  -27.6330  -32.5370   25.6750 C   0  0  0  0  0  1  0  0  0  0  0  0
  -25.6200  -33.9270   24.1260 N   0  0  0  0  0  0  0  0  0  0  0  0
  -25.9340  -34.9910   23.3780 C   0  0  0  0  0  0  0  0  0  0  0  0
  -26.5750  -34.8990   22.3270 O   0  0  0  0  0  0  0  0  0  0  0  0
  -25.0460  -34.0720   24.9450 H   0  0  0  0  0  0  0  0  0  0  0  0
  -24.2060  -36.8030   23.1030 C   0  0  0  0  0  1  0  0  0  0  0  0
  -25.4710  -36.3790   23.8680 C   0  0  0  0  0  3  0  0  0  0  0  0
  -27.6330  -37.2480   24.6430 C   0  0  0  0  0  1  0  0  0  0  0  0
  -26.5040  -37.4290   23.7340 N   0  0  0  0  0  0  0  0  0  0  0  0
  -26.1070  -38.3500   23.9020 H   0  0  0  0  0  0  0  0  0  0  0  0
  -29.9120  -18.1850   19.6820 C   0  0  0  0  0  0  0  0  0  0  0  0
  -30.4250  -15.3020   19.8480 C   0  0  0  0  0  0  0  0  0  0  0  0
  -30.3070  -12.8820   18.9620 C   0  0  0  0  0  2  0  0  0  0  0  0
  -29.3140  -12.7340   17.7840 C   0  0  0  0  0  2  0  0  0  0  0  0
  -27.8950  -12.4600   18.3100 C   0  0  0  0  0  2  0  0  0  0  0  0
  -27.5210  -13.4020   19.4840 C   0  0  0  0  0  3  0  0  0  0  0  0
  -28.6390  -13.5260   20.5430 C   0  0  0  0  0  2  0  0  0  0  0  0
  -29.8390  -14.0110   19.8450 N   0  0  0  0  0  0  0  0  0  0  0  0
  -31.6110  -15.2860   19.4940 O   0  0  0  0  0  0  0  0  0  0  0  0
  -29.6980  -16.5730   20.0420 N   0  0  0  0  0  4  0  0  0  0  0  0
  -28.7580  -16.3910   20.3610 H   0  0  0  0  0  0  0  0  0  0  0  0
  -25.2070  -13.9350   20.4130 C   0  0  0  0  0  0  0  0  0  0  0  0
  -24.1730  -13.1470   20.8340 C   0  0  0  0  0  0  0  0  0  0  0  0
  -24.6390  -11.7980   20.7360 C   0  0  0  0  0  0  0  0  0  0  0  0
  -26.2310  -13.0700   20.0740 N   0  0  0  0  0  0  0  0  0  0  0  0
  -25.9070  -11.7770   20.3370 N   0  0  0  0  0  0  0  0  0  0  0  0
  -23.9280  -10.5290   20.9430 C   0  0  0  0  0  0  0  0  0  0  0  0
  -24.3970   -9.5570   21.8550 C   0  0  0  0  0  3  0  0  0  0  0  0
  -23.6830   -8.3570   22.0520 C   0  0  0  0  0  3  0  0  0  0  0  0
  -22.4840   -8.1170   21.3390 C   0  0  0  0  0  0  0  0  0  0  0  0
  -22.0340   -9.0780   20.4160 C   0  0  0  0  0  3  0  0  0  0  0  0
  -22.7490  -10.2710   20.2170 C   0  0  0  0  0  3  0  0  0  0  0  0
  -21.7390   -6.9680   21.4460 O   0  0  0  0  0  0  0  0  0  0  0  0
  -21.7060   -6.2370   22.6050 C   0  0  0  0  0  0  0  0  0  0  0  0
  -21.2770   -6.7980   23.8280 C   0  0  0  0  0  3  0  0  0  0  0  0
  -21.1910   -5.9930   24.9810 C   0  0  0  0  0  3  0  0  0  0  0  0
  -21.5250   -4.6260   24.9140 C   0  0  0  0  0  0  0  0  0  0  0  0
  -21.9480   -4.0650   23.6960 C   0  0  0  0  0  3  0  0  0  0  0  0
  -22.0350   -4.8670   22.5440 C   0  0  0  0  0  0  0  0  0  0  0  0
  -22.4220   -4.3160   21.3690 F   0  0  0  0  0  0  0  0  0  0  0  0
  -21.4360   -3.8510   26.0190 F   0  0  0  0  0  0  0  0  0  0  0  0
  -22.7970  -13.6130   21.2060 C   0  0  0  0  0  0  0  0  0  0  0  0
  -22.1270  -12.8960   22.1010 N   0  0  0  0  0  0  0  0  0  0  0  0
  -22.3250  -14.6480   20.7360 O   0  0  0  0  0  0  0  0  0  0  0  0
  -22.5240  -12.0610   22.5030 H   0  0  0  0  0  0  0  0  0  0  0  0
  -21.2040  -13.1890   22.3890 H   0  0  0  0  0  0  0  0  0  0  0  0
  -25.3550  -15.3110   20.2570 N   0  0  0  0  0  0  0  0  0  0  0  0
  -24.5930  -15.9580   20.4310 H   0  0  0  0  0  0  0  0  0  0  0  0
  -26.1680  -15.7590   19.8560 H   0  0  0  0  0  0  0  0  0  0  0  0
  -31.8450  -19.6580   18.7170 C   0  0  0  0  0  1  0  0  0  0  0  0
  -31.4480  -18.4480   19.5810 C   0  0  0  0  0  3  0  0  0  0  0  0
  -32.4160  -19.7320   21.6780 C   0  0  0  0  0  1  0  0  0  0  0  0
  -32.2150  -18.4010   20.9320 C   0  0  0  0  0  2  0  0  0  0  0  0
  2  1  1  0
  3  2  1  0
  3  4  1  0
  5  6  1  0
  5  4  2  0
  7 18  2  0
  8  6  1  0
  8 13  1  0
  9 17  1  0
  9 19  1  0
 10 16  1  0
 10 12  1  0
 11 17  1  0
 12 11  1  0
 13 12  2  0
 14 15  1  0
 14  8  2  0
 15 10  2  0
 16  9  1  0
 17  7  1  0
 19 21  2  0
 20 19  1  0
 22 20  1  0
 23 32  2  0
 23 28  1  0
 24 20  1  0
 24 28  1  0
 25 24  1  0
 26 27  1  0
 26 25  1  0
 27 23  1  0
 28 29  2  0
 29 30  1  0
 31 30  2  0
 32 31  1  0
 33  7  1  0
 33 38  1  0
 33 34  1  0
 34 37  1  1
 34 35  1  0
 36 34  1  0
 38 41  1  0
 39 43  1  0
 39 38  1  0
 40 39  2  0
 43 42  1  0
 45 43  1  0
 45 46  1  0
 45 44  1  0
 47 56  2  0
 47  2  1  0
 48 56  1  0
 49 54  1  0
 50 51  1  0
 50 49  1  0
 52 51  1  0
 52 61  1  0
 52 53  1  0
 54 48  1  0
 54 53  1  0
 55 48  2  0
 56 57  1  0
 58 59  2  0
 59 78  1  0
 60 59  1  0
 60 63  1  0
 61 62  1  0
 61 58  1  0
 62 60  2  0
 63 64  1  0
 64 65  2  0
 66 69  1  0
 66 65  1  0
 67 66  2  0
 68 67  1  0
 68 63  2  0
 69 70  1  0
 70 71  1  0
 71 72  2  0
 73 72  1  0
 73 77  1  0
 74 73  2  0
 75 70  2  0
 75 74  1  0
 76 75  1  0
 78 79  1  0
 79 82  1  0
 79 81  1  0
 80 78  2  0
 83 58  1  0
 83 84  1  0
 85 83  1  0
 87 86  1  0
 87 47  1  0
 87 89  1  0
 89 88  1  0
M  ISO  4   5 101   6 101  48 100  56 100
M  END
>  <TORSDO>  (29) 
F 22

>  <SCORE>  (29) 
-14.183

>  <name>  (29) 
28

>  <ligand_id>  (29) 
28

>  <original_smiles>  (29) 
[H]c1c([H])c([H])c2c(c1[H])C([H])([H])C([H])([H])C([H])([H])C2([H])N([H])C(=O)C1([H])N(C(=O)C([H])(N([H])C(=O)C([H])(N([H])C([H])([H])[H])C([H])([H])[H])C(C([H])([H])[H])(C([H])([H])[H])C([H])([H])[H])C([H])([H])c2c([H])c(OC([H])([H])C([H])([H])C([H])([H])C([H])(C([H])([H])[H])C([H])(N([H])C(=O)N3C([H])([H])C([H])([H])C([H])([H])C([H])(n4nc(-c5c([H])c([H])c(Oc6c([H])c([H])c(F)c([H])c6F)c([H])c5[H])c(C(=O)N([H])[H])c4N([H])[H])C3([H])[H])C([H])(C([H])([H])[H])C([H])([H])C([H])([H])[H])c([H])c([H])c2C1([H])[H]

>  <smiles>  (29) 
[H]c1c([H])c([H])c2c(c1[H])C([H])([H])C([H])([H])C([H])([H])C2([H])N([H])C(=O)C1([H])N(C(=O)C([H])(N([H])C(=O)C([H])(N([H])C([H])([H])[H])C([H])([H])[H])C(C([H])([H])[H])(C([H])([H])[H])C([H])([H])[H])C([H])([H])c2c([H])c(OC([H])([H])C([H])([H])C([H])([H])C([H])(C([H])([H])[H])C([H])(N([H])C(=O)N3C([H])([H])C([H])([H])C([H])([H])C([H])(n4nc(-c5c([H])c([H])c(Oc6c([H])c([H])c(F)c([H])c6F)c([H])c5[H])c(C(=O)N([H])[H])c4N([H])[H])C3([H])[H])C([H])(C([H])([H])[H])C([H])([H])C([H])([H])[H])c([H])c([H])c2C1([H])[H]

$$$$
29:0:0
     RDKit          3D

 94101  0  0  1  0  0  0  0  0999 V2000
  -31.4520  -19.8960   19.4420 C   0  0  0  0  0  2  0  0  0  0  0  0
  -31.1450  -21.2470   18.7760 C   0  0  0  0  0  2  0  0  0  0  0  0
  -30.6730  -22.3430   19.7480 C   0  0  0  0  0  2  0  0  0  0  0  0
  -30.0640  -23.5270   18.9770 C   0  0  0  0  0  2  0  0  0  0  0  0
  -29.6340  -24.7060   19.8620 C   0  0  0  0  0  2  0  0  0  0  0  0
  -28.8280  -25.7470   19.0670 C   0  0  0  0  0  2  0  0  0  0  0  0
  -28.5590  -26.8740   19.9030 O   0  0  0  0  0  0  0  0  0  0  0  0
  -24.5950  -31.8110   23.0880 C   0  0  0  0  0  0  0  0  0  0  0  0
  -27.3380  -27.5180   19.8820 C   0  0  0  0  0  0  0  0  0  0  0  0
  -23.4170  -30.4290   21.4110 C   0  0  0  0  0  3  0  0  0  0  0  0
  -24.8980  -28.9620   19.9450 C   0  0  0  0  0  0  0  0  0  0  0  0
  -25.9320  -30.8470   21.2210 C   0  0  0  0  0  2  0  0  0  0  0  0
  -26.0430  -29.4950   20.5480 C   0  0  0  0  0  0  0  0  0  0  0  0
  -27.2580  -28.7780   20.5190 C   0  0  0  0  0  3  0  0  0  0  0  0
  -26.1640  -26.9890   19.2930 C   0  0  0  0  0  3  0  0  0  0  0  0
  -24.9520  -27.7060   19.3210 C   0  0  0  0  0  3  0  0  0  0  0  0
  -23.6380  -29.7930   20.0130 C   0  0  0  0  0  2  0  0  0  0  0  0
  -24.6670  -31.0420   21.9660 N   0  0  0  0  0  0  0  0  0  0  0  0
  -23.5090  -32.0490   23.6340 O   0  0  0  0  0  0  0  0  0  0  0  0
  -22.7870  -29.3700   22.3420 C   0  0  0  0  0  0  0  0  0  0  0  0
  -21.4610  -29.1890   22.2320 N   0  0  0  0  0  0  0  0  0  0  0  0
  -23.4860  -28.7170   23.1220 O   0  0  0  0  0  0  0  0  0  0  0  0
  -20.9570  -29.7710   21.5780 H   0  0  0  0  0  0  0  0  0  0  0  0
  -18.0910  -28.0040   22.7730 C   0  0  0  0  0  0  0  0  0  0  0  0
  -20.6590  -28.2220   22.9800 C   0  0  0  0  0  3  0  0  0  0  0  0
  -20.7280  -26.8200   22.3320 C   0  0  0  0  0  2  0  0  0  0  0  0
  -19.5920  -26.5600   21.3380 C   0  0  0  0  0  2  0  0  0  0  0  0
  -18.2310  -26.6880   22.0290 C   0  0  0  0  0  2  0  0  0  0  0  0
  -19.2300  -28.7320   23.2070 C   0  0  0  0  0  0  0  0  0  0  0  0
  -19.0440  -29.9690   23.8630 C   0  0  0  0  0  3  0  0  0  0  0  0
  -17.7510  -30.4760   24.0900 C   0  0  0  0  0  3  0  0  0  0  0  0
  -16.6260  -29.7420   23.6740 C   0  0  0  0  0  3  0  0  0  0  0  0
  -16.7970  -28.5090   23.0210 C   0  0  0  0  0  3  0  0  0  0  0  0
  -25.8710  -32.4500   23.7260 C   0  0  0  0  0  3  0  0  0  0  0  0
  -26.4080  -31.6520   24.9760 C   0  0  1  0  0  0  0  0  0  0  0  0
  -25.3250  -31.3600   26.0390 C   0  0  0  0  0  1  0  0  0  0  0  0
  -27.0160  -30.3000   24.5370 C   0  0  0  0  0  1  0  0  0  0  0  0
  -27.5460  -32.4490   25.6580 C   0  0  0  0  0  1  0  0  0  0  0  0
  -25.5350  -33.8310   24.0940 N   0  0  0  0  0  0  0  0  0  0  0  0
  -25.8680  -34.9120   23.3770 C   0  0  0  0  0  0  0  0  0  0  0  0
  -26.5600  -34.8530   22.3570 O   0  0  0  0  0  0  0  0  0  0  0  0
  -24.9200  -33.9530   24.8870 H   0  0  0  0  0  0  0  0  0  0  0  0
  -24.1200  -36.6890   23.0380 C   0  0  0  0  0  1  0  0  0  0  0  0
  -25.3480  -36.2760   23.8670 C   0  0  0  0  0  3  0  0  0  0  0  0
  -27.4480  -37.1600   24.7810 C   0  0  0  0  0  1  0  0  0  0  0  0
  -26.3650  -37.3480   23.8170 N   0  0  0  0  0  0  0  0  0  0  0  0
  -25.9410  -38.2560   23.9950 H   0  0  0  0  0  0  0  0  0  0  0  0
  -31.9440  -18.8610   18.4040 C   0  0  0  0  0  2  0  0  0  0  0  0
  -31.7540  -17.3550   18.7480 C   0  0  0  0  0  3  0  0  0  0  0  0
  -31.6850  -16.6710   16.1930 C   0  0  0  0  0  1  0  0  0  0  0  0
  -32.3100  -16.4780   17.5860 C   0  0  0  0  0  2  0  0  0  0  0  0
  -30.3330  -16.9730   19.3100 C   0  0  0  0  0  3  0  0  0  0  0  0
  -31.0370  -14.5790   19.9620 C   0  0  0  0  0  0  0  0  0  0  0  0
  -30.7290  -12.3370   19.0490 C   0  0  0  0  0  2  0  0  0  0  0  0
  -29.7560  -12.4820   17.8580 C   0  0  0  0  0  2  0  0  0  0  0  0
  -28.2900  -12.3930   18.3270 C   0  0  0  0  0  2  0  0  0  0  0  0
  -27.9880  -13.3070   19.5390 C   0  0  0  0  0  3  0  0  0  0  0  0
  -29.0750  -13.1690   20.6350 C   0  0  0  0  0  2  0  0  0  0  0  0
  -30.3900  -13.3910   20.0100 N   0  0  0  0  0  0  0  0  0  0  0  0
  -32.2370  -14.6930   19.7090 O   0  0  0  0  0  0  0  0  0  0  0  0
  -30.1830  -15.6120   19.8580 N   0  0  0  0  0  0  0  0  0  0  0  0
  -29.2310  -15.3540   20.0650 H   0  0  0  0  0  0  0  0  0  0  0  0
  -25.6380  -13.9890   20.3320 C   0  0  0  0  0  0  0  0  0  0  0  0
  -24.5590  -13.2540   20.7380 C   0  0  0  0  0  0  0  0  0  0  0  0
  -24.9770  -11.8890   20.6850 C   0  0  0  0  0  0  0  0  0  0  0  0
  -26.6470  -13.0770   20.0650 N   0  0  0  0  0  0  0  0  0  0  0  0
  -26.2540  -11.8080   20.3370 N   0  0  0  0  0  0  0  0  0  0  0  0
  -24.2160  -10.6530   20.8880 C   0  0  0  0  0  0  0  0  0  0  0  0
  -24.6160   -9.6900   21.8390 C   0  0  0  0  0  3  0  0  0  0  0  0
  -23.8600   -8.5140   22.0270 C   0  0  0  0  0  3  0  0  0  0  0  0
  -22.6870   -8.2970   21.2640 C   0  0  0  0  0  0  0  0  0  0  0  0
  -22.3050   -9.2480   20.3020 C   0  0  0  0  0  3  0  0  0  0  0  0
  -23.0640  -10.4160   20.1120 C   0  0  0  0  0  3  0  0  0  0  0  0
  -21.8990   -7.1760   21.3670 O   0  0  0  0  0  0  0  0  0  0  0  0
  -21.7750   -6.4890   22.5470 C   0  0  0  0  0  0  0  0  0  0  0  0
  -21.2860   -7.1050   23.7200 C   0  0  0  0  0  3  0  0  0  0  0  0
  -21.1120   -6.3450   24.8940 C   0  0  0  0  0  3  0  0  0  0  0  0
  -21.4170   -4.9710   24.8950 C   0  0  0  0  0  0  0  0  0  0  0  0
  -21.8980   -4.3550   23.7260 C   0  0  0  0  0  3  0  0  0  0  0  0
  -22.0750   -5.1130   22.5550 C   0  0  0  0  0  0  0  0  0  0  0  0
  -22.5200   -4.5110   21.4260 F   0  0  0  0  0  0  0  0  0  0  0  0
  -21.2420   -4.2380   26.0190 F   0  0  0  0  0  0  0  0  0  0  0  0
  -23.1900  -13.7790   21.0580 C   0  0  0  0  0  0  0  0  0  0  0  0
  -22.4800  -13.1220   21.9730 N   0  0  0  0  0  0  0  0  0  0  0  0
  -22.7600  -14.8070   20.5390 O   0  0  0  0  0  0  0  0  0  0  0  0
  -22.8350  -12.2820   22.4040 H   0  0  0  0  0  0  0  0  0  0  0  0
  -21.5680  -13.4640   22.2410 H   0  0  0  0  0  0  0  0  0  0  0  0
  -25.8280  -15.3500   20.1410 N   0  0  0  0  0  0  0  0  0  0  0  0
  -25.0710  -16.0060   20.2920 H   0  0  0  0  0  0  0  0  0  0  0  0
  -26.6260  -15.7640   19.6800 H   0  0  0  0  0  0  0  0  0  0  0  0
  -29.1970  -17.2090   18.2620 C   0  0  0  0  0  2  0  0  0  0  0  0
  -27.9700  -18.6870   20.0550 C   0  0  0  0  0  1  0  0  0  0  0  0
  -27.6920  -19.1630   17.5890 C   0  0  0  0  0  1  0  0  0  0  0  0
  -27.9630  -18.0760   18.6440 C   0  0  0  0  0  3  0  0  0  0  0  0
  2  1  1  0
  2  3  1  0
  4  3  1  0
  4  5  1  0
  6  5  1  0
  6  7  1  0
  8 19  2  0
  9  7  1  0
  9 14  1  0
 10 18  1  0
 10 20  1  0
 11 17  1  0
 11 13  1  0
 12 18  1  0
 13 12  1  0
 14 13  2  0
 15 16  1  0
 15  9  2  0
 16 11  2  0
 17 10  1  0
 18  8  1  0
 20 22  2  0
 21 20  1  0
 23 21  1  0
 24 33  2  0
 24 29  1  0
 25 21  1  0
 25 29  1  0
 26 25  1  0
 27 28  1  0
 27 26  1  0
 28 24  1  0
 29 30  2  0
 30 31  1  0
 32 31  2  0
 33 32  1  0
 34  8  1  0
 34 39  1  0
 34 35  1  0
 35 38  1  1
 35 36  1  0
 37 35  1  0
 39 42  1  0
 40 44  1  0
 40 39  1  0
 41 40  2  0
 44 43  1  0
 46 44  1  0
 46 47  1  0
 46 45  1  0
 48 49  1  0
 48  1  1  0
 49 51  1  0
 49 52  1  0
 50 51  1  0
 52 91  1  0
 52 61  1  0
 53 59  1  0
 54 59  1  0
 55 56  1  0
 55 54  1  0
 57 56  1  0
 57 66  1  0
 57 58  1  0
 59 58  1  0
 60 53  2  0
 61 53  1  0
 61 62  1  0
 63 64  2  0
 64 83  1  0
 65 64  1  0
 65 68  1  0
 66 63  1  0
 66 67  1  0
 67 65  2  0
 68 69  1  0
 69 70  2  0
 71 74  1  0
 71 70  1  0
 72 71  2  0
 73 72  1  0
 73 68  2  0
 74 75  1  0
 75 80  2  0
 75 76  1  0
 76 77  2  0
 77 78  1  0
 78 82  1  0
 79 78  2  0
 80 79  1  0
 81 80  1  0
 83 84  1  0
 84 87  1  0
 84 86  1  0
 85 83  2  0
 88 89  1  0
 88 63  1  0
 90 88  1  0
 91 94  1  0
 93 94  1  0
 94 92  1  0
M  ISO  4   6 101   7 101  53 100  61 100
M  END
>  <TORSDO>  (30) 
F 27

>  <SCORE>  (30) 
-11.244

>  <name>  (30) 
29

>  <ligand_id>  (30) 
29

>  <original_smiles>  (30) 
[H]c1c([H])c([H])c2c(c1[H])C([H])([H])C([H])([H])C([H])([H])C2([H])N([H])C(=O)C1([H])N(C(=O)C([H])(N([H])C(=O)C([H])(N([H])C([H])([H])[H])C([H])([H])[H])C(C([H])([H])[H])(C([H])([H])[H])C([H])([H])[H])C([H])([H])c2c([H])c(OC([H])([H])C([H])([H])C([H])([H])C([H])([H])C([H])([H])C([H])([H])C([H])([H])C([H])(C([H])([H])C([H])([H])[H])C([H])(N([H])C(=O)N3C([H])([H])C([H])([H])C([H])([H])C([H])(n4nc(-c5c([H])c([H])c(Oc6c([H])c([H])c(F)c([H])c6F)c([H])c5[H])c(C(=O)N([H])[H])c4N([H])[H])C3([H])[H])C([H])([H])C([H])(C([H])([H])[H])C([H])([H])[H])c([H])c([H])c2C1([H])[H]

>  <smiles>  (30) 
[H]c1c([H])c([H])c2c(c1[H])C([H])([H])C([H])([H])C([H])([H])C2([H])N([H])C(=O)C1([H])N(C(=O)C([H])(N([H])C(=O)C([H])(N([H])C([H])([H])[H])C([H])([H])[H])C(C([H])([H])[H])(C([H])([H])[H])C([H])([H])[H])C([H])([H])c2c([H])c(OC([H])([H])C([H])([H])C([H])([H])C([H])([H])C([H])([H])C([H])([H])C([H])([H])C([H])(C([H])([H])C([H])([H])[H])C([H])(N([H])C(=O)N3C([H])([H])C([H])([H])C([H])([H])C([H])(n4nc(-c5c([H])c([H])c(Oc6c([H])c([H])c(F)c([H])c6F)c([H])c5[H])c(C(=O)N([H])[H])c4N([H])[H])C3([H])[H])C([H])([H])C([H])(C([H])([H])[H])C([H])([H])[H])c([H])c([H])c2C1([H])[H]

$$$$
30:0:0
     RDKit          3D

106109  0  0  1  0  0  0  0  0999 V2000
  -24.9510  -20.7590   21.2890 C   0  0  0  0  0  3  0  0  0  0  0  0
  -23.7640  -23.2850   20.6650 C   0  0  0  0  0  0  0  0  0  0  0  0
  -23.8930  -21.9970   21.3320 N   0  0  0  0  0  0  0  0  0  0  0  0
  -24.4620  -23.4750   19.6680 O   0  0  0  0  0  0  0  0  0  0  0  0
  -23.2300  -21.9100   22.0920 H   0  0  0  0  0  0  0  0  0  0  0  0
  -22.7980  -24.5960   21.1440 C   0  0  0  0  0  2  0  0  0  0  0  0
  -22.6940  -26.0780   20.5170 O   0  0  0  0  0  0  0  0  0  0  0  0
  -16.9640  -29.0210   23.7010 C   0  0  0  0  0  0  0  0  0  0  0  0
  -21.3660  -26.5330   20.3220 C   0  0  0  0  0  0  0  0  0  0  0  0
  -16.7880  -26.9120   22.4550 C   0  0  0  0  0  3  0  0  0  0  0  0
  -18.5630  -26.4780   20.6680 C   0  0  0  0  0  0  0  0  0  0  0  0
  -18.3820  -28.7580   21.6350 C   0  0  0  0  0  2  0  0  0  0  0  0
  -19.2450  -27.6580   21.0000 C   0  0  0  0  0  0  0  0  0  0  0  0
  -20.6750  -27.7080   20.8210 C   0  0  0  0  0  3  0  0  0  0  0  0
  -20.5950  -25.5120   19.7760 C   0  0  0  0  0  3  0  0  0  0  0  0
  -19.2250  -25.4390   20.0100 C   0  0  0  0  0  3  0  0  0  0  0  0
  -17.1060  -26.3410   21.0520 C   0  0  0  0  0  2  0  0  0  0  0  0
  -17.3860  -28.2720   22.6410 N   0  0  0  0  0  0  0  0  0  0  0  0
  -16.1110  -28.5990   24.4970 O   0  0  0  0  0  0  0  0  0  0  0  0
  -17.2260  -25.9060   23.5510 C   0  0  0  0  0  0  0  0  0  0  0  0
  -16.4070  -24.8670   23.7900 N   0  0  0  0  0  0  0  0  0  0  0  0
  -18.2890  -26.0620   24.1590 O   0  0  0  0  0  0  0  0  0  0  0  0
  -15.5470  -24.8120   23.2610 H   0  0  0  0  0  0  0  0  0  0  0  0
  -15.0020  -21.8350   25.1880 C   0  0  0  0  0  0  0  0  0  0  0  0
  -16.6360  -23.7950   24.7640 C   0  0  0  0  0  3  0  0  0  0  0  0
  -17.6060  -22.7280   24.2040 C   0  0  0  0  0  2  0  0  0  0  0  0
  -16.8880  -21.5580   23.5240 C   0  0  0  0  0  2  0  0  0  0  0  0
  -15.9460  -20.8590   24.5080 C   0  0  0  0  0  2  0  0  0  0  0  0
  -15.3190  -23.2160   25.2960 C   0  0  0  0  0  0  0  0  0  0  0  0
  -14.3900  -24.0840   25.9110 C   0  0  0  0  0  3  0  0  0  0  0  0
  -13.1690  -23.5940   26.4110 C   0  0  0  0  0  3  0  0  0  0  0  0
  -12.8680  -22.2250   26.3150 C   0  0  0  0  0  3  0  0  0  0  0  0
  -13.7850  -21.3480   25.7070 C   0  0  0  0  0  3  0  0  0  0  0  0
  -17.5210  -30.4550   23.9520 C   0  0  0  0  0  3  0  0  0  0  0  0
  -16.3730  -31.3740   23.9920 N   0  0  0  0  0  0  0  0  0  0  0  0
  -15.9440  -32.1110   22.9590 C   0  0  0  0  0  0  0  0  0  0  0  0
  -16.5290  -32.1390   21.8730 O   0  0  0  0  0  0  0  0  0  0  0  0
  -15.8160  -31.3600   24.8340 H   0  0  0  0  0  0  0  0  0  0  0  0
  -13.4610  -32.2120   22.5670 C   0  0  0  0  0  1  0  0  0  0  0  0
  -14.6690  -32.9530   23.1620 C   0  0  0  0  0  3  0  0  0  0  0  0
  -15.7370  -35.1640   23.2460 C   0  0  0  0  0  1  0  0  0  0  0  0
  -14.7590  -34.3100   22.5770 N   0  0  0  0  0  0  0  0  0  0  0  0
  -13.8560  -34.7760   22.6090 H   0  0  0  0  0  0  0  0  0  0  0  0
  -18.3610  -30.5670   25.2830 C   0  0  1  0  0  0  0  0  0  0  0  0
  -17.6410  -29.9880   26.5230 C   0  0  0  0  0  1  0  0  0  0  0  0
  -19.7160  -29.8360   25.1470 C   0  0  0  0  0  1  0  0  0  0  0  0
  -18.6930  -32.0520   25.5660 C   0  0  0  0  0  1  0  0  0  0  0  0
  -26.1230  -21.0980   22.2400 C   0  0  0  0  0  2  0  0  0  0  0  0
  -26.7080  -22.5190   22.1870 C   0  0  0  0  0  2  0  0  0  0  0  0
  -28.0570  -22.6360   22.9270 C   0  0  0  0  0  2  0  0  0  0  0  0
  -27.9480  -22.3600   24.3730 N   0  0  0  0  0  4  0  0  0  0  0  0
  -27.3100  -22.9950   24.8190 H   0  0  0  0  0  0  0  0  0  0  0  0
  -28.8480  -22.4720   24.8060 H   0  0  0  0  0  0  0  0  0  0  0  0
  -27.6440  -21.4170   24.5420 H   0  0  0  0  0  0  0  0  0  0  0  0
  -24.6820  -19.0780   21.6480 C   0  0  0  0  0  2  0  0  0  0  0  0
  -25.7130  -17.7020   21.3340 C   0  0  0  0  0  3  0  0  0  0  0  0
  -25.4560  -16.0380   21.7350 C   0  0  0  0  0  3  0  0  0  0  0  0
  -27.3680  -13.9200   21.9570 C   0  0  0  0  0  2  0  0  0  0  0  0
  -27.9210  -12.9820   21.0110 C   0  0  0  0  0  3  0  0  0  0  0  0
  -26.8290  -12.8890   20.1270 N   0  0  0  0  0  2  0  0  0  0  0  0
  -25.9090  -13.8430   20.3490 N   0  0  0  0  0  2  0  0  0  0  0  0
  -26.2980  -14.6990   21.3650 N   0  0  0  0  0  0  0  0  0  0  0  0
  -29.5180  -12.3850   20.7880 C   0  0  0  0  0  2  0  0  0  0  0  0
  -30.8500  -12.6670   19.4730 C   0  0  0  0  0  2  0  0  0  0  0  0
  -33.5290  -13.8810   18.6860 C   0  0  0  0  0  2  0  0  0  0  0  0
  -31.3080  -10.3210   19.0730 C   0  0  0  0  0  1  0  0  0  0  0  0
  -31.6940  -11.9770   19.6850 C   0  0  0  0  0  2  0  0  0  0  0  0
  -34.4020  -15.7190   19.4690 C   0  0  0  0  0 15  0  0  0  0  0  0
  -34.5560  -19.2700   20.1220 C   0  0  2  0  0  0  0  0  0  0  0  0
  -35.8700  -19.6230   19.2990 C   0  0  0  0  0  1  0  0  0  0  0  0
  -34.7320  -19.8950   17.8420 C   0  0  0  0  0  1  0  0  0  0  0  0
  -33.0740  -19.4120   18.0100 C   0  0  0  0  0  2  0  0  0  0  0  0
  -32.3250  -19.1140   19.5770 C   0  0  0  0  0  2  0  0  0  0  0  0
  -33.4820  -18.8740   21.0890 C   0  0  0  0  0  1  0  0  0  0  0  0
  -35.1850  -19.2160   20.8650 N   0  0  0  0  0  1  0  0  0  0  0  0
  -34.1930  -20.7220   20.1540 O   0  0  0  0  0  1  0  0  0  0  0  0
  -34.5140  -17.6380   19.3990 N   0  0  0  0  0  1  0  0  0  0  0  0
  -34.0300  -17.8370   18.5340 H   0  0  0  0  0  0  0  0  0  0  0  0
  -30.4740  -17.6960   20.2210 C   0  0  0  0  0  0  0  0  0  0  0  0
  -30.3500  -16.4110   20.0240 C   0  0  0  0  0  0  0  0  0  0  0  0
  -31.4980  -15.9910   19.4950 C   0  0  0  0  0  3  0  0  0  0  0  0
  -31.5780  -17.9640   19.5280 N   0  0  0  0  0  0  0  0  0  0  0  0
  -32.0080  -16.9290   18.8410 N   0  0  0  0  0  2  0  0  0  0  0  0
  -31.7810  -14.7800   19.2050 C   0  0  0  0  0  0  0  0  0  0  0  0
  -33.0870  -13.6260   19.9710 C   0  0  0  0  0  2  0  0  0  0  0  0
  -33.8770  -12.2400   18.9480 C   0  0  0  0  0  2  0  0  0  0  0  0
  -33.1220  -11.8370   17.3040 C   0  0  0  0  0  0  0  0  0  0  0  0
  -31.7260  -12.8310   16.6670 C   0  0  0  0  0  3  0  0  0  0  0  0
  -31.1160  -14.3920   17.4280 C   0  0  0  0  0  3  0  0  0  0  0  0
  -33.2120  -10.5790   16.7290 O   0  0  0  0  0  0  0  0  0  0  0  0
  -33.7750   -9.4860   17.3570 C   0  0  0  0  0  0  0  0  0  0  0  0
  -33.4560   -8.9820   18.6510 C   0  0  0  0  0  3  0  0  0  0  0  0
  -34.1420   -7.8730   19.1770 C   0  0  0  0  0  3  0  0  0  0  0  0
  -35.1450   -7.2530   18.4140 C   0  0  0  0  0  0  0  0  0  0  0  0
  -35.4120   -7.6980   17.1090 C   0  0  0  0  0  3  0  0  0  0  0  0
  -34.7140   -8.7950   16.5820 C   0  0  0  0  0  0  0  0  0  0  0  0
  -34.9490   -9.2080   15.3150 F   0  0  0  0  0  0  0  0  0  0  0  0
  -35.8490   -6.2220   18.9350 F   0  0  0  0  0  0  0  0  0  0  0  0
  -29.3560  -15.5970   20.4950 C   0  0  0  0  0  0  0  0  0  0  0  0
  -29.9340  -14.8020   21.3550 N   0  0  0  0  0  0  0  0  0  0  0  0
  -28.2030  -15.7770   20.1560 O   0  0  0  0  0  0  0  0  0  0  0  0
  -30.9200  -14.8270   21.5620 H   0  0  0  0  0  0  0  0  0  0  0  0
  -29.3140  -14.1700   21.8500 H   0  0  0  0  0  0  0  0  0  0  0  0
  -29.7640  -18.6240   20.9260 N   0  0  0  0  0  0  0  0  0  0  0  0
  -28.9050  -18.4000   21.4100 H   0  0  0  0  0  0  0  0  0  0  0  0
  -29.9780  -19.6130   20.9360 H   0  0  0  0  0  0  0  0  0  0  0  0
  1  3  1  0
  1 55  1  0
  1 48  1  0
  2  6  1  0
  2  3  1  0
  3  5  1  0
  4  2  2  0
  7  6  1  0
  8 19  2  0
  9  7  1  0
  9 14  1  0
 10 18  1  0
 10 20  1  0
 11 13  1  0
 11 17  1  0
 12 18  1  0
 13 12  1  0
 14 13  2  0
 15 16  1  0
 15  9  2  0
 16 11  2  0
 17 10  1  0
 18  8  1  0
 20 21  1  0
 20 22  2  0
 23 21  1  0
 24 29  2  0
 24 33  1  0
 25 21  1  0
 25 29  1  0
 26 25  1  0
 27 26  1  0
 27 28  1  0
 28 24  1  0
 29 30  1  0
 30 31  2  0
 32 31  1  0
 33 32  2  0
 34  8  1  0
 34 35  1  0
 34 44  1  0
 35 38  1  0
 36 40  1  0
 36 35  1  0
 37 36  2  0
 40 39  1  0
 42 43  1  0
 42 40  1  0
 42 41  1  0
 44 47  1  1
 44 45  1  0
 46 44  1  0
 49 48  1  0
 49 50  1  0
 50 51  1  0
 51 54  1  0
 51 53  1  0
 51 52  1  0
 56 55  1  0
 56 57  2  0
 59 63  1  0
 59 58  1  0
 60 61  1  0
 60 59  1  0
 61 62  1  0
 62 57  1  0
 62 58  1  0
 64 67  1  0
 64 63  1  0
 65 86  1  0
 65 85  1  0
 66 67  1  0
 69 76  1  0
 69 75  1  0
 69 74  1  6
 70 69  1  0
 71 72  1  0
 72 73  1  0
 78 77  1  0
 79104  1  0
 80 79  2  0
 80 99  1  0
 81 84  1  0
 81 80  1  0
 82 73  1  0
 82 79  1  0
 83 81  1  0
 83 82  1  0
 84 85  1  0
 87 86  1  0
 88 87  2  0
 88 89  1  0
 89 84  2  0
 90 87  1  0
 90 91  1  0
 91 92  1  0
 92 93  2  0
 94 98  1  0
 94 93  1  0
 95 94  2  0
 96 95  1  0
 96 91  2  0
 97 96  1  0
 99100  1  0
100102  1  0
100103  1  0
101 99  2  0
104106  1  0
104105  1  0
M  ISO  4   6 101   7 101  69 100  77 100
M  END
>  <TORSDO>  (31) 
F 31

>  <SCORE>  (31) 
101.167

>  <name>  (31) 
30

>  <ligand_id>  (31) 
30

>  <original_smiles>  (31) 
[H]c1c([H])c([H])c2c(c1[H])C([H])([H])C([H])([H])C([H])([H])C2([H])N([H])C(=O)C1([H])N(C(=O)C([H])(N([H])C(=O)C([H])(N([H])C([H])([H])[H])C([H])([H])[H])C(C([H])([H])[H])(C([H])([H])[H])C([H])([H])[H])C([H])([H])c2c([H])c(OC([H])([H])C(=O)N([H])C([H])(C([H])([H])C([H])([H])C([H])([H])n3nnc(C([H])([H])C([H])([H])C([H])(C([H])([H])N([H])C(=O)N4C([H])([H])C([H])([H])C([H])([H])C([H])(n5nc(-c6c([H])c([H])c(Oc7c([H])c([H])c(F)c([H])c7F)c([H])c6[H])c(C(=O)N([H])[H])c5N([H])[H])C4([H])[H])C([H])([H])C([H])([H])[H])c3[H])C([H])([H])C([H])([H])C([H])([H])[N+]([H])([H])[H])c([H])c([H])c2C1([H])[H]

>  <smiles>  (31) 
[H]c1c([H])c([H])c2c(c1[H])C([H])([H])C([H])([H])C([H])([H])C2([H])N([H])C(=O)C1([H])N(C(=O)C([H])(N([H])C(=O)C([H])(N([H])C([H])([H])[H])C([H])([H])[H])C(C([H])([H])[H])(C([H])([H])[H])C([H])([H])[H])C([H])([H])c2c([H])c(OC([H])([H])C(=O)N([H])C([H])(C([H])([H])C([H])([H])C([H])([H])n3nnc(C([H])([H])C([H])([H])C([H])(C([H])([H])N([H])C(=O)N4C([H])([H])C([H])([H])C([H])([H])C([H])(n5nc(-c6c([H])c([H])c(Oc7c([H])c([H])c(F)c([H])c7F)c([H])c6[H])c(C(=O)N([H])[H])c5N([H])[H])C4([H])[H])C([H])([H])C([H])([H])[H])c3[H])C([H])([H])C([H])([H])C([H])([H])[N+]([H])([H])[H])c([H])c([H])c2C1([H])[H]

$$$$
31:0:0
     RDKit          3D

 99107  0  0  1  0  0  0  0  0999 V2000
  -29.4850  -19.5860   19.6520 C   0  0  0  0  0  3  0  0  0  0  0  0
  -28.1190  -18.1610   18.0030 C   0  0  0  0  0  1  0  0  0  0  0  0
  -29.4080  -18.9920   18.2040 C   0  0  0  0  0  3  0  0  0  0  0  0
  -31.1960  -21.3850   14.8620 C   0  0  0  0  0  2  0  0  0  0  0  0
  -30.8860  -22.0930   16.1840 C   0  0  0  0  0  2  0  0  0  0  0  0
  -30.1180  -20.3430   14.5450 C   0  0  0  0  0  2  0  0  0  0  0  0
  -30.7120  -21.0880   17.3340 C   0  0  0  0  0  2  0  0  0  0  0  0
  -29.9400  -19.3400   15.6980 C   0  0  0  0  0  2  0  0  0  0  0  0
  -29.6120  -20.0320   17.0470 C   0  0  0  0  0  3  0  0  0  0  0  0
  -28.3190  -20.5540   19.9910 C   0  0  0  0  0  2  0  0  0  0  0  0
  -28.7720  -21.7460   20.8620 C   0  0  0  0  0  2  0  0  0  0  0  0
  -27.6200  -22.6040   21.4310 C   0  0  0  0  0  2  0  0  0  0  0  0
  -27.7140  -24.1240   21.1600 C   0  0  0  0  0  2  0  0  0  0  0  0
  -29.4190  -24.4890   23.0430 C   0  0  0  0  0  1  0  0  0  0  0  0
  -29.0140  -24.8450   21.6020 C   0  0  0  0  0  3  0  0  0  0  0  0
  -28.9070  -26.3840   21.4720 C   0  0  0  0  0  2  0  0  0  0  0  0
  -28.4880  -26.7810   20.1650 O   0  0  0  0  0  0  0  0  0  0  0  0
  -24.6020  -31.8870   23.2510 C   0  0  0  0  0  0  0  0  0  0  0  0
  -27.3350  -27.5280   20.1590 C   0  0  0  0  0  0  0  0  0  0  0  0
  -23.4280  -30.4840   21.5820 C   0  0  0  0  0  3  0  0  0  0  0  0
  -24.9190  -28.9810   20.1540 C   0  0  0  0  0  0  0  0  0  0  0  0
  -25.9450  -30.8840   21.4100 C   0  0  0  0  0  2  0  0  0  0  0  0
  -26.0590  -29.5200   20.7630 C   0  0  0  0  0  0  0  0  0  0  0  0
  -27.2710  -28.7990   20.7700 C   0  0  0  0  0  3  0  0  0  0  0  0
  -26.1910  -27.0010   19.5300 C   0  0  0  0  0  3  0  0  0  0  0  0
  -24.9780  -27.7170   19.5370 C   0  0  0  0  0  3  0  0  0  0  0  0
  -23.6600  -29.8160   20.2000 C   0  0  0  0  0  2  0  0  0  0  0  0
  -24.6750  -31.1010   22.1390 N   0  0  0  0  0  0  0  0  0  0  0  0
  -23.5140  -32.1430   23.7850 O   0  0  0  0  0  0  0  0  0  0  0  0
  -22.7840  -29.4480   22.5290 C   0  0  0  0  0  0  0  0  0  0  0  0
  -21.4630  -29.2520   22.3890 N   0  0  0  0  0  0  0  0  0  0  0  0
  -23.4690  -28.8230   23.3430 O   0  0  0  0  0  0  0  0  0  0  0  0
  -20.9730  -29.8120   21.7060 H   0  0  0  0  0  0  0  0  0  0  0  0
  -18.0980  -28.0220   22.8430 C   0  0  0  0  0  0  0  0  0  0  0  0
  -20.6510  -28.2980   23.1430 C   0  0  0  0  0  3  0  0  0  0  0  0
  -20.7700  -26.8740   22.5510 C   0  0  0  0  0  2  0  0  0  0  0  0
  -19.6790  -26.5550   21.5230 C   0  0  0  0  0  2  0  0  0  0  0  0
  -18.2910  -26.6810   22.1560 C   0  0  0  0  0  2  0  0  0  0  0  0
  -19.2060  -28.7880   23.2910 C   0  0  0  0  0  0  0  0  0  0  0  0
  -18.9720  -30.0440   23.8920 C   0  0  0  0  0  3  0  0  0  0  0  0
  -17.6620  -30.5340   24.0520 C   0  0  0  0  0  3  0  0  0  0  0  0
  -16.5690  -29.7650   23.6210 C   0  0  0  0  0  3  0  0  0  0  0  0
  -16.7860  -28.5110   23.0220 C   0  0  0  0  0  3  0  0  0  0  0  0
  -25.8780  -32.5270   23.8870 C   0  0  0  0  0  3  0  0  0  0  0  0
  -26.3780  -31.7630   25.1750 C   0  0  1  0  0  0  0  0  0  0  0  0
  -25.2690  -31.5270   26.2290 C   0  0  0  0  0  1  0  0  0  0  0  0
  -26.9730  -30.3870   24.7950 C   0  0  0  0  0  1  0  0  0  0  0  0
  -27.5180  -32.5630   25.8480 C   0  0  0  0  0  1  0  0  0  0  0  0
  -25.5620  -33.9260   24.2010 N   0  0  0  0  0  0  0  0  0  0  0  0
  -25.9070  -34.9720   23.4370 C   0  0  0  0  0  0  0  0  0  0  0  0
  -26.5940  -34.8580   22.4190 O   0  0  0  0  0  0  0  0  0  0  0  0
  -24.9550  -34.0850   24.9920 H   0  0  0  0  0  0  0  0  0  0  0  0
  -24.1880  -36.7580   23.0220 C   0  0  0  0  0  1  0  0  0  0  0  0
  -25.4070  -36.3630   23.8700 C   0  0  0  0  0  3  0  0  0  0  0  0
  -27.5160  -37.2550   24.7510 C   0  0  0  0  0  1  0  0  0  0  0  0
  -26.4430  -37.4140   23.7760 N   0  0  0  0  0  0  0  0  0  0  0  0
  -26.0330  -38.3350   23.9010 H   0  0  0  0  0  0  0  0  0  0  0  0
  -29.6480  -18.5220   20.7780 C   0  0  0  0  0  2  0  0  0  0  0  0
  -32.1900  -18.6130   21.0660 C   0  0  0  0  0  1  0  0  0  0  0  0
  -30.9710  -17.7140   20.7910 C   0  0  0  0  0  3  0  0  0  0  0  0
  -30.9280  -16.5730   21.8430 C   0  0  0  0  0  2  0  0  0  0  0  0
  -30.7490  -14.4880   20.5160 C   0  0  0  0  0  0  0  0  0  0  0  0
  -30.3590  -12.4360   19.2080 C   0  0  0  0  0  2  0  0  0  0  0  0
  -29.4080  -12.7270   18.0320 C   0  0  0  0  0  2  0  0  0  0  0  0
  -27.9400  -12.5820   18.4750 C   0  0  0  0  0  2  0  0  0  0  0  0
  -27.6310  -13.3540   19.7870 C   0  0  0  0  0  3  0  0  0  0  0  0
  -28.6940  -13.0600   20.8680 C   0  0  0  0  0  2  0  0  0  0  0  0
  -30.0200  -13.3620   20.3000 N   0  0  0  0  0  0  0  0  0  0  0  0
  -31.8180  -14.7160   19.9440 O   0  0  0  0  0  0  0  0  0  0  0  0
  -30.2310  -15.3700   21.3820 N   0  0  0  0  0  0  0  0  0  0  0  0
  -29.3440  -15.1440   21.8060 H   0  0  0  0  0  0  0  0  0  0  0  0
  -25.2290  -13.9400   20.5030 C   0  0  0  0  0  0  0  0  0  0  0  0
  -24.1670  -13.1560   20.8720 C   0  0  0  0  0  0  0  0  0  0  0  0
  -24.6380  -11.8080   20.8330 C   0  0  0  0  0  0  0  0  0  0  0  0
  -26.2800  -13.0680   20.2660 N   0  0  0  0  0  0  0  0  0  0  0  0
  -25.9280  -11.7800   20.5210 N   0  0  0  0  0  0  0  0  0  0  0  0
  -23.9230  -10.5400   21.0200 C   0  0  0  0  0  0  0  0  0  0  0  0
  -24.3520   -9.5820   21.9640 C   0  0  0  0  0  3  0  0  0  0  0  0
  -23.6370   -8.3770   22.1380 C   0  0  0  0  0  3  0  0  0  0  0  0
  -22.4780   -8.1220   21.3660 C   0  0  0  0  0  0  0  0  0  0  0  0
  -22.0690   -9.0690   20.4120 C   0  0  0  0  0  3  0  0  0  0  0  0
  -22.7840  -10.2660   20.2360 C   0  0  0  0  0  3  0  0  0  0  0  0
  -21.7350   -6.9700   21.4490 O   0  0  0  0  0  0  0  0  0  0  0  0
  -21.6640   -6.2400   22.6080 C   0  0  0  0  0  0  0  0  0  0  0  0
  -21.1790   -6.7980   23.8110 C   0  0  0  0  0  3  0  0  0  0  0  0
  -21.0590   -5.9930   24.9630 C   0  0  0  0  0  3  0  0  0  0  0  0
  -21.4120   -4.6310   24.9100 C   0  0  0  0  0  0  0  0  0  0  0  0
  -21.8890   -4.0730   23.7120 C   0  0  0  0  0  3  0  0  0  0  0  0
  -22.0120   -4.8750   22.5630 C   0  0  0  0  0  0  0  0  0  0  0  0
  -22.4520   -4.3270   21.4060 F   0  0  0  0  0  0  0  0  0  0  0  0
  -21.2890   -3.8560   26.0130 F   0  0  0  0  0  0  0  0  0  0  0  0
  -22.7680  -13.6210   21.1520 C   0  0  0  0  0  0  0  0  0  0  0  0
  -22.0460  -12.9110   22.0120 N   0  0  0  0  0  0  0  0  0  0  0  0
  -22.3210  -14.6490   20.6430 O   0  0  0  0  0  0  0  0  0  0  0  0
  -22.4200  -12.0800   22.4450 H   0  0  0  0  0  0  0  0  0  0  0  0
  -21.1080  -13.2050   22.2420 H   0  0  0  0  0  0  0  0  0  0  0  0
  -25.3820  -15.3120   20.3320 N   0  0  0  0  0  0  0  0  0  0  0  0
  -24.6120  -15.9610   20.4470 H   0  0  0  0  0  0  0  0  0  0  0  0
  -26.2330  -15.7580   20.0100 H   0  0  0  0  0  0  0  0  0  0  0  0
  1 10  1  0
  1 58  1  0
  3  2  1  0
  3  1  1  0
  4  5  1  0
  5  7  1  0
  6  4  1  0
  6  8  1  0
  8  9  1  0
  9  7  1  0
  9  3  1  0
 10 11  1  0
 11 12  1  0
 13 12  1  0
 13 15  1  0
 15 14  1  0
 16 15  1  0
 17 16  1  0
 18 29  2  0
 19 17  1  0
 19 24  1  0
 20 28  1  0
 20 30  1  0
 21 27  1  0
 21 23  1  0
 22 28  1  0
 23 24  2  0
 23 22  1  0
 25 26  1  0
 25 19  2  0
 26 21  2  0
 27 20  1  0
 28 18  1  0
 30 32  2  0
 31 30  1  0
 33 31  1  0
 34 43  2  0
 34 39  1  0
 35 31  1  0
 35 39  1  0
 36 35  1  0
 37 38  1  0
 37 36  1  0
 38 34  1  0
 39 40  2  0
 40 41  1  0
 42 41  2  0
 43 42  1  0
 44 18  1  0
 44 49  1  0
 44 45  1  0
 45 48  1  1
 45 46  1  0
 47 45  1  0
 49 52  1  0
 50 54  1  0
 50 49  1  0
 51 50  2  0
 54 53  1  0
 56 54  1  0
 56 57  1  0
 56 55  1  0
 58 60  1  0
 60 59  1  0
 60 61  1  0
 62 70  1  0
 63 68  1  0
 64 65  1  0
 64 63  1  0
 66 65  1  0
 66 75  1  0
 66 67  1  0
 68 62  1  0
 68 67  1  0
 69 62  2  0
 70 71  1  0
 70 61  1  0
 72 73  2  0
 73 92  1  0
 74 73  1  0
 74 77  1  0
 75 72  1  0
 75 76  1  0
 76 74  2  0
 77 78  1  0
 78 79  2  0
 80 83  1  0
 80 79  1  0
 81 80  2  0
 82 81  1  0
 82 77  2  0
 83 84  1  0
 84 85  1  0
 85 86  2  0
 87 86  1  0
 87 91  1  0
 88 87  2  0
 89 84  2  0
 89 88  1  0
 90 89  1  0
 92 93  1  0
 93 96  1  0
 93 95  1  0
 94 92  2  0
 97 98  1  0
 97 72  1  0
 99 97  1  0
M  ISO  4  16 101  17 101  62 100  70 100
M  END
>  <TORSDO>  (32) 
F 27

>  <SCORE>  (32) 
-12.360

>  <name>  (32) 
31

>  <ligand_id>  (32) 
31

>  <original_smiles>  (32) 
[H]c1c([H])c([H])c2c(c1[H])C([H])([H])C([H])([H])C([H])([H])C2([H])N([H])C(=O)C1([H])N(C(=O)C([H])(N([H])C(=O)C([H])(N([H])C([H])([H])[H])C([H])([H])[H])C(C([H])([H])[H])(C([H])([H])[H])C([H])([H])[H])C([H])([H])c2c([H])c(OC([H])([H])C([H])(C([H])([H])[H])C([H])([H])C([H])([H])C([H])([H])C([H])([H])C([H])(C([H])([H])C([H])(C([H])([H])[H])C([H])([H])N([H])C(=O)N3C([H])([H])C([H])([H])C([H])([H])C([H])(n4nc(-c5c([H])c([H])c(Oc6c([H])c([H])c(F)c([H])c6F)c([H])c5[H])c(C(=O)N([H])[H])c4N([H])[H])C3([H])[H])C([H])(C([H])([H])[H])C3([H])C([H])([H])C([H])([H])C([H])([H])C([H])([H])C3([H])[H])c([H])c([H])c2C1([H])[H]

>  <smiles>  (32) 
[H]c1c([H])c([H])c2c(c1[H])C([H])([H])C([H])([H])C([H])([H])C2([H])N([H])C(=O)C1([H])N(C(=O)C([H])(N([H])C(=O)C([H])(N([H])C([H])([H])[H])C([H])([H])[H])C(C([H])([H])[H])(C([H])([H])[H])C([H])([H])[H])C([H])([H])c2c([H])c(OC([H])([H])C([H])(C([H])([H])[H])C([H])([H])C([H])([H])C([H])([H])C([H])([H])C([H])(C([H])([H])C([H])(C([H])([H])[H])C([H])([H])N([H])C(=O)N3C([H])([H])C([H])([H])C([H])([H])C([H])(n4nc(-c5c([H])c([H])c(Oc6c([H])c([H])c(F)c([H])c6F)c([H])c5[H])c(C(=O)N([H])[H])c4N([H])[H])C3([H])[H])C([H])(C([H])([H])[H])C3([H])C([H])([H])C([H])([H])C([H])([H])C([H])([H])C3([H])[H])c([H])c([H])c2C1([H])[H]

$$$$
32:0:0
     RDKit          3D

 98 94  0  0  1  0  0  0  0  0999 V2000
  -23.6760  -23.4160   20.1210 C   0  0  0  0  0  1  0  0  0  0  0  0
  -25.1340  -22.2160   20.5590 N   0  0  0  0  0  2  0  0  0  0  0  0
  -25.2970  -22.4590   21.5260 H   0  0  0  0  0  0  0  0  0  0  0  0
  -25.8690  -22.6710   20.0400 H   0  0  0  0  0  0  0  0  0  0  0  0
  -25.7530  -20.3740   20.4800 C   0  0  0  0  0 15  0  0  0  0  0  0
  -27.4580  -19.0010   20.3400 C   0  0  0  0  0 15  0  0  0  0  0  0
  -29.3920  -15.9830   20.3540 C   0  0  0  0  0  0  0  0  0  0  0  0
  -30.2430  -13.4230   19.5980 C   0  0  0  0  0  2  0  0  0  0  0  0
  -29.5150  -12.7540   18.3840 C   0  0  0  0  0  2  0  0  0  0  0  0
  -28.1150  -12.2610   18.7940 C   0  0  0  0  0  2  0  0  0  0  0  0
  -27.4840  -13.2600   19.7840 C   0  0  0  0  0  3  0  0  0  0  0  0
  -28.3830  -13.6300   20.9540 C   0  0  0  0  0  2  0  0  0  0  0  0
  -29.3450  -14.4910   20.3080 N   0  0  0  0  0  0  0  0  0  0  0  0
  -30.6550  -16.1300   20.2440 O   0  0  0  0  0  0  0  0  0  0  0  0
  -28.1630  -17.1530   20.3850 N   0  0  0  0  0  2  0  0  0  0  0  0
  -27.3350  -16.5820   20.3670 H   0  0  0  0  0  0  0  0  0  0  0  0
  -25.1860  -13.8050   20.5810 C   0  0  0  0  0  0  0  0  0  0  0  0
  -24.1300  -13.0280   20.9410 C   0  0  0  0  0  0  0  0  0  0  0  0
  -24.5970  -11.6790   20.8830 C   0  0  0  0  0  0  0  0  0  0  0  0
  -26.1960  -12.9170   20.2820 N   0  0  0  0  0  0  0  0  0  0  0  0
  -25.8780  -11.6340   20.5520 N   0  0  0  0  0  0  0  0  0  0  0  0
  -23.8810  -10.4170   21.0450 C   0  0  0  0  0  0  0  0  0  0  0  0
  -24.3450   -9.4140   21.9210 C   0  0  0  0  0  3  0  0  0  0  0  0
  -23.6170   -8.2150   22.0780 C   0  0  0  0  0  3  0  0  0  0  0  0
  -22.4160   -8.0160   21.3550 C   0  0  0  0  0  0  0  0  0  0  0  0
  -21.9750   -9.0120   20.4660 C   0  0  0  0  0  3  0  0  0  0  0  0
  -22.7030  -10.2010   20.3070 C   0  0  0  0  0  3  0  0  0  0  0  0
  -21.6580   -6.8740   21.4220 O   0  0  0  0  0  0  0  0  0  0  0  0
  -21.6810   -6.0660   22.5290 C   0  0  0  0  0  0  0  0  0  0  0  0
  -21.3980   -6.5590   23.8220 C   0  0  0  0  0  3  0  0  0  0  0  0
  -21.3650   -5.6760   24.9190 C   0  0  0  0  0  3  0  0  0  0  0  0
  -21.6050   -4.3030   24.7250 C   0  0  0  0  0  0  0  0  0  0  0  0
  -21.8830   -3.8110   23.4370 C   0  0  0  0  0  3  0  0  0  0  0  0
  -21.9180   -4.6900   22.3420 C   0  0  0  0  0  0  0  0  0  0  0  0
  -22.1660   -4.2070   21.1010 F   0  0  0  0  0  0  0  0  0  0  0  0
  -21.5630   -3.4540   25.7780 F   0  0  0  0  0  0  0  0  0  0  0  0
  -22.7400  -13.5120   21.2040 C   0  0  0  0  0  0  0  0  0  0  0  0
  -22.0040  -12.8150   22.0580 N   0  0  0  0  0  0  0  0  0  0  0  0
  -22.3210  -14.5460   20.6840 O   0  0  0  0  0  0  0  0  0  0  0  0
  -22.3580  -11.9780   22.4970 H   0  0  0  0  0  0  0  0  0  0  0  0
  -21.0710  -13.1270   22.2810 H   0  0  0  0  0  0  0  0  0  0  0  0
  -25.3690  -15.1800   20.4370 N   0  0  0  0  0  0  0  0  0  0  0  0
  -24.6080  -15.8370   20.5770 H   0  0  0  0  0  0  0  0  0  0  0  0
  -26.1340  -15.5560   19.9010 H   0  0  0  0  0  0  0  0  0  0  0  0
  -22.7720  -23.7210   17.5950 C   0  0  0  0  0  1  0  0  0  0  0  0
  -23.8040  -23.0960   18.5760 C   0  0  0  0  0  3  0  0  0  0  0  0
  -25.2480  -22.7780   17.9240 C   0  0  0  0  0  2  0  0  0  0  0  0
  -26.5950  -23.6240   17.9430 C   0  0  0  0  0  2  0  0  0  0  0  0
  -27.6770  -23.7150   19.1240 C   0  0  0  0  0  2  0  0  0  0  0  0
  -27.6460  -25.0150   19.9970 C   0  0  0  0  0  2  0  0  0  0  0  0
  -28.2120  -26.3740   20.0660 O   0  0  0  0  0  0  0  0  0  0  0  0
  -24.6740  -31.8730   23.2100 C   0  0  0  0  0  0  0  0  0  0  0  0
  -27.2090  -27.3410   20.0610 C   0  0  0  0  0  0  0  0  0  0  0  0
  -23.5670  -30.3220   21.6450 C   0  0  0  0  0  3  0  0  0  0  0  0
  -25.0130  -29.0560   20.0770 C   0  0  0  0  0  0  0  0  0  0  0  0
  -26.0780  -30.7880   21.4550 C   0  0  0  0  0  2  0  0  0  0  0  0
  -26.1570  -29.4420   20.7530 C   0  0  0  0  0  0  0  0  0  0  0  0
  -27.2840  -28.5810   20.7510 C   0  0  0  0  0  3  0  0  0  0  0  0
  -26.0130  -27.0470   19.3490 C   0  0  0  0  0  3  0  0  0  0  0  0
  -24.9200  -27.8810   19.3640 C   0  0  0  0  0  3  0  0  0  0  0  0
  -23.8740  -29.9680   20.1460 C   0  0  0  0  0  2  0  0  0  0  0  0
  -24.7700  -31.0560   22.1290 N   0  0  0  0  0  0  0  0  0  0  0  0
  -23.5790  -32.1400   23.7220 O   0  0  0  0  0  0  0  0  0  0  0  0
  -23.3260  -29.0860   22.6780 C   0  0  0  0  0  0  0  0  0  0  0  0
  -22.3020  -28.2640   23.0740 N   0  0  0  0  0  0  0  0  0  0  0  0
  -24.2280  -28.7810   23.4010 O   0  0  0  0  0  0  0  0  0  0  0  0
  -22.8120  -27.6330   23.6750 H   0  0  0  0  0  0  0  0  0  0  0  0
  -18.3960  -27.7320   23.4540 C   0  0  0  0  0  3  0  0  0  0  0  0
  -20.8600  -27.8240   23.1980 C   0  0  0  0  0  3  0  0  0  0  0  0
  -20.7870  -26.3140   23.3600 C   0  0  0  0  0  2  0  0  0  0  0  0
  -19.5390  -25.6360   22.7270 C   0  0  0  0  0  2  0  0  0  0  0  0
  -18.2920  -26.2470   23.3420 C   0  0  0  0  0  2  0  0  0  0  0  0
  -19.5250  -28.2610   22.4900 C   0  0  0  0  0  2  0  0  0  0  0  0
  -18.8540  -29.8260   21.4350 C   0  0  0  0  0  1  0  0  0  0  0  0
  -17.4350  -30.3760   21.9270 C   0  0  0  0  0  2  0  0  0  0  0  0
  -16.6390  -29.7040   22.9990 C   0  0  0  0  0  3  0  0  0  0  0  0
  -17.0720  -28.4520   23.6480 C   0  0  0  0  0  3  0  0  0  0  0  0
  -25.9410  -32.4930   23.8580 C   0  0  0  0  0  3  0  0  0  0  0  0
  -26.4680  -31.6770   25.0980 C   0  0  1  0  0  0  0  0  0  0  0  0
  -25.3730  -31.3790   26.1490 C   0  0  0  0  0  1  0  0  0  0  0  0
  -27.0870  -30.3270   24.6620 C   0  0  0  0  0  1  0  0  0  0  0  0
  -27.6120  -32.4680   25.7780 C   0  0  0  0  0  1  0  0  0  0  0  0
  -25.6060  -33.8730   24.2390 N   0  0  0  0  0  0  0  0  0  0  0  0
  -25.9100  -34.9550   23.5120 C   0  0  0  0  0  0  0  0  0  0  0  0
  -26.5600  -34.8960   22.4650 O   0  0  0  0  0  0  0  0  0  0  0  0
  -25.0320  -33.9960   25.0600 H   0  0  0  0  0  0  0  0  0  0  0  0
  -24.1480  -36.7380   23.2610 C   0  0  0  0  0  1  0  0  0  0  0  0
  -25.4110  -36.3220   24.0330 C   0  0  0  0  0  3  0  0  0  0  0  0
  -27.5610  -37.1840   24.8470 C   0  0  0  0  0  1  0  0  0  0  0  0
  -26.4320  -37.3890   23.9410 N   0  0  0  0  0  0  0  0  0  0  0  0
  -26.0250  -38.2990   24.1440 H   0  0  0  0  0  0  0  0  0  0  0  0
  -22.8000  -25.4650   20.3140 C   0  0  0  0  0 15  0  0  0  0  0  0
  -19.0880  -30.0770   23.5910 C   0  0  0  0  0 15  0  0  0  0  0  0
  -20.8070  -30.3280   22.5810 C   0  0  0  0  0 15  0  0  0  0  0  0
  -17.7230  -27.9700   21.2400 C   0  0  0  0  0 15  0  0  0  0  0  0
  -21.2440  -29.0140   20.8920 C   0  0  0  0  0 15  0  0  0  0  0  0
  -19.2550  -27.1570   20.2210 C   0  0  0  0  0  1  0  0  0  0  0  0
  -21.2020  -27.0510   20.4440 C   0  0  0  0  0  1  0  0  0  0  0  0
  2  3  1  0
  4  2  1  0
  7 15  1  0
  8 13  1  0
  9 10  1  0
  9  8  1  0
 11 10  1  0
 11 20  1  0
 11 12  1  0
 13  7  1  0
 13 12  1  0
 14  7  2  0
 16 15  1  0
 17 18  2  0
 18 37  1  0
 19 18  1  0
 19 22  1  0
 20 21  1  0
 20 17  1  0
 21 19  2  0
 22 23  1  0
 23 24  2  0
 25 28  1  0
 25 24  1  0
 26 25  2  0
 27 26  1  0
 27 22  2  0
 28 29  1  0
 29 30  1  0
 30 31  2  0
 32 31  1  0
 32 36  1  0
 33 32  2  0
 34 29  2  0
 34 33  1  0
 35 34  1  0
 37 38  1  0
 38 41  1  0
 38 40  1  0
 39 37  2  0
 42 43  1  0
 42 17  1  0
 44 42  1  0
 45 46  1  0
 46  1  1  0
 47 48  1  0
 47 46  1  0
 48 49  1  0
 49 50  1  0
 50 51  1  0
 52 63  2  0
 53 51  1  0
 53 58  1  0
 54 62  1  0
 54 64  1  0
 55 61  1  0
 55 57  1  0
 56 62  1  0
 57 56  1  0
 58 57  2  0
 59 60  1  0
 59 53  2  0
 60 55  2  0
 61 54  1  0
 62 52  1  0
 64 65  1  0
 64 66  2  0
 65 67  1  0
 68 77  1  0
 69 65  1  0
 69 70  1  0
 71 72  1  0
 71 70  1  0
 72 68  1  0
 73 69  1  0
 73 68  1  0
 74 75  1  0
 75 76  1  0
 76 77  2  0
 78 52  1  0
 78 83  1  0
 78 79  1  0
 79 82  1  1
 79 80  1  0
 81 79  1  0
 83 86  1  0
 84 88  1  0
 84 83  1  0
 85 84  2  0
 88 87  1  0
 90 88  1  0
 90 91  1  0
 90 89  1  0
 97 98  1  0
M  ISO  4   7 100  15 100  50 101  51 101
M  END
>  <TORSDO>  (33) 
F 26

>  <SCORE>  (33) 
0.376

>  <name>  (33) 
32

>  <ligand_id>  (33) 
32

>  <original_smiles>  (33) 
[H]c1c([H])c([H])c2c(c1[H])C([H])([H])C([H])([H])C([H])([H])C2([H])N([H])C(=O)C1([H])N(C(=O)C([H])(N([H])C(=O)C([H])(N([H])C([H])([H])[H])C([H])([H])[H])C(C([H])([H])[H])(C([H])([H])[H])C([H])([H])[H])C([H])([H])c2c([H])c(OC([H])([H])C([H])([H])C([H])([H])C([H])([H])C([H])(C([H])([H])[H])C([H])(C([H])([H])C3([H])C([H])([H])C([H])([H])C([H])([H])C([H])([H])C3([H])[H])[N+]([H])([H])C([H])([H])C([H])([H])N([H])C(=O)N3C([H])([H])C([H])([H])C([H])([H])C([H])(n4nc(-c5c([H])c([H])c(Oc6c([H])c([H])c(F)c([H])c6F)c([H])c5[H])c(C(=O)N([H])[H])c4N([H])[H])C3([H])[H])c([H])c([H])c2C1([H])[H]

>  <smiles>  (33) 
[H]c1c([H])c([H])c2c(c1[H])C([H])([H])C([H])([H])C([H])([H])C2([H])N([H])C(=O)C1([H])N(C(=O)C([H])(N([H])C(=O)C([H])(N([H])C([H])([H])[H])C([H])([H])[H])C(C([H])([H])[H])(C([H])([H])[H])C([H])([H])[H])C([H])([H])c2c([H])c(OC([H])([H])C([H])([H])C([H])([H])C([H])([H])C([H])(C([H])([H])[H])C([H])(C([H])([H])C3([H])C([H])([H])C([H])([H])C([H])([H])C([H])([H])C3([H])[H])[N+]([H])([H])C([H])([H])C([H])([H])N([H])C(=O)N3C([H])([H])C([H])([H])C([H])([H])C([H])(n4nc(-c5c([H])c([H])c(Oc6c([H])c([H])c(F)c([H])c6F)c([H])c5[H])c(C(=O)N([H])[H])c4N([H])[H])C3([H])[H])c([H])c([H])c2C1([H])[H]

$$$$
33:0:0
     RDKit          3D

 98105  0  0  1  0  0  0  0  0999 V2000
  -29.4330  -21.7230   21.9420 C   0  0  0  0  0  3  0  0  0  0  0  0
  -28.5880  -22.9650   21.8030 N   0  0  0  0  0  4  0  0  0  0  0  0
  -27.6350  -22.6430   21.7200 H   0  0  0  0  0  0  0  0  0  0  0  0
  -28.6490  -23.4350   22.6920 H   0  0  0  0  0  0  0  0  0  0  0  0
  -28.7890  -24.0090   20.7420 C   0  0  0  0  0  2  0  0  0  0  0  0
  -28.2600  -25.4030   21.2150 C   0  0  0  0  0  2  0  0  0  0  0  0
  -28.3320  -26.4730   20.2480 O   0  0  0  0  0  0  0  0  0  0  0  0
  -24.5410  -31.7410   23.2520 C   0  0  0  0  0  0  0  0  0  0  0  0
  -27.2060  -27.2700   20.2170 C   0  0  0  0  0  0  0  0  0  0  0  0
  -23.3610  -30.3570   21.5770 C   0  0  0  0  0  3  0  0  0  0  0  0
  -24.8340  -28.8150   20.1740 C   0  0  0  0  0  0  0  0  0  0  0  0
  -25.8980  -30.6860   21.4440 C   0  0  0  0  0  2  0  0  0  0  0  0
  -25.9850  -29.3170   20.7960 C   0  0  0  0  0  0  0  0  0  0  0  0
  -27.1770  -28.5540   20.8150 C   0  0  0  0  0  3  0  0  0  0  0  0
  -26.0450  -26.7860   19.5820 C   0  0  0  0  0  3  0  0  0  0  0  0
  -24.8600  -27.5480   19.5630 C   0  0  0  0  0  3  0  0  0  0  0  0
  -23.5960  -29.6840   20.2000 C   0  0  0  0  0  2  0  0  0  0  0  0
  -24.6170  -30.9440   22.1470 N   0  0  0  0  0  0  0  0  0  0  0  0
  -23.4510  -32.0220   23.7680 O   0  0  0  0  0  0  0  0  0  0  0  0
  -22.6790  -29.3360   22.5190 C   0  0  0  0  0  0  0  0  0  0  0  0
  -21.3580  -29.1550   22.3520 N   0  0  0  0  0  0  0  0  0  0  0  0
  -23.3350  -28.7100   23.3550 O   0  0  0  0  0  0  0  0  0  0  0  0
  -20.8940  -29.7110   21.6480 H   0  0  0  0  0  0  0  0  0  0  0  0
  -17.9620  -27.9870   22.7650 C   0  0  0  0  0  0  0  0  0  0  0  0
  -20.5160  -28.2200   23.0970 C   0  0  0  0  0  3  0  0  0  0  0  0
  -20.6180  -26.7920   22.5130 C   0  0  0  0  0  2  0  0  0  0  0  0
  -19.5360  -26.4870   21.4730 C   0  0  0  0  0  2  0  0  0  0  0  0
  -18.1420  -26.6390   22.0840 C   0  0  0  0  0  2  0  0  0  0  0  0
  -19.0770  -28.7350   23.2250 C   0  0  0  0  0  0  0  0  0  0  0  0
  -18.8550  -29.9970   23.8190 C   0  0  0  0  0  3  0  0  0  0  0  0
  -17.5520  -30.5110   23.9550 C   0  0  0  0  0  3  0  0  0  0  0  0
  -16.4510  -29.7580   23.5130 C   0  0  0  0  0  3  0  0  0  0  0  0
  -16.6570  -28.4980   22.9250 C   0  0  0  0  0  3  0  0  0  0  0  0
  -25.8180  -32.3560   23.9050 C   0  0  0  0  0  3  0  0  0  0  0  0
  -26.2810  -31.5950   25.2060 C   0  0  1  0  0  0  0  0  0  0  0  0
  -25.1500  -31.3780   26.2390 C   0  0  0  0  0  1  0  0  0  0  0  0
  -26.8610  -30.2080   24.8450 C   0  0  0  0  0  1  0  0  0  0  0  0
  -27.4200  -32.3830   25.8970 C   0  0  0  0  0  1  0  0  0  0  0  0
  -25.5240  -33.7640   24.2040 N   0  0  0  0  0  0  0  0  0  0  0  0
  -25.8970  -34.7980   23.4390 C   0  0  0  0  0  0  0  0  0  0  0  0
  -26.5910  -34.6690   22.4290 O   0  0  0  0  0  0  0  0  0  0  0  0
  -24.9060  -33.9420   24.9820 H   0  0  0  0  0  0  0  0  0  0  0  0
  -24.2020  -36.6100   23.0160 C   0  0  0  0  0  1  0  0  0  0  0  0
  -25.4180  -36.2010   23.8630 C   0  0  0  0  0  3  0  0  0  0  0  0
  -27.5390  -37.0720   24.7380 C   0  0  0  0  0  1  0  0  0  0  0  0
  -26.4700  -37.2360   23.7570 N   0  0  0  0  0  0  0  0  0  0  0  0
  -26.0730  -38.1660   23.8730 H   0  0  0  0  0  0  0  0  0  0  0  0
  -31.7260  -23.0300   21.7650 C   0  0  0  0  0  1  0  0  0  0  0  0
  -30.9060  -21.9270   22.4580 C   0  0  0  0  0  3  0  0  0  0  0  0
  -30.8200  -20.7510   24.7630 C   0  0  0  0  0  1  0  0  0  0  0  0
  -31.0080  -22.0730   23.9980 C   0  0  0  0  0  2  0  0  0  0  0  0
  -29.2470  -20.6940   20.7720 C   0  0  0  0  0  0  0  0  0  0  0  0
  -28.4460  -20.8620   19.8490 O   0  0  0  0  0  0  0  0  0  0  0  0
  -30.1060  -19.4030   20.8190 C   0  0  0  0  0  2  0  0  0  0  0  0
  -29.4960  -18.0750   20.2420 C   0  0  0  0  0  2  0  0  0  0  0  0
  -30.5290  -16.8950   20.1610 C   0  0  0  0  0  3  0  0  0  0  0  0
  -30.6020  -14.3760   19.9770 C   0  0  0  0  0  0  0  0  0  0  0  0
  -30.2640  -12.1370   19.0100 C   0  0  0  0  0  2  0  0  0  0  0  0
  -29.2580  -12.2070   17.8420 C   0  0  0  0  0  2  0  0  0  0  0  0
  -27.8170  -12.0570   18.3620 C   0  0  0  0  0  2  0  0  0  0  0  0
  -27.5110  -12.9880   19.5660 C   0  0  0  0  0  3  0  0  0  0  0  0
  -28.6300  -12.9240   20.6320 C   0  0  0  0  0  2  0  0  0  0  0  0
  -29.9070  -13.2030   19.9630 N   0  0  0  0  0  0  0  0  0  0  0  0
  -31.7540  -14.4540   19.5430 O   0  0  0  0  0  0  0  0  0  0  0  0
  -29.9280  -15.5240   20.2430 N   0  0  0  0  0  0  0  0  0  0  0  0
  -28.9690  -15.4470   20.5430 H   0  0  0  0  0  0  0  0  0  0  0  0
  -25.1590  -13.5840   20.4150 C   0  0  0  0  0  0  0  0  0  0  0  0
  -24.1200  -12.8080   20.8530 C   0  0  0  0  0  0  0  0  0  0  0  0
  -24.5900  -11.4600   20.8120 C   0  0  0  0  0  0  0  0  0  0  0  0
  -26.1960  -12.7080   20.1340 N   0  0  0  0  0  0  0  0  0  0  0  0
  -25.8610  -11.4270   20.4350 N   0  0  0  0  0  0  0  0  0  0  0  0
  -23.8850  -10.1940   21.0530 C   0  0  0  0  0  0  0  0  0  0  0  0
  -24.3200   -9.2820   22.0390 C   0  0  0  0  0  3  0  0  0  0  0  0
  -23.6150   -8.0800   22.2650 C   0  0  0  0  0  3  0  0  0  0  0  0
  -22.4590   -7.7820   21.5040 C   0  0  0  0  0  0  0  0  0  0  0  0
  -22.0440   -8.6800   20.5060 C   0  0  0  0  0  3  0  0  0  0  0  0
  -22.7510   -9.8740   20.2790 C   0  0  0  0  0  3  0  0  0  0  0  0
  -21.7250   -6.6290   21.6390 O   0  0  0  0  0  0  0  0  0  0  0  0
  -21.6210   -5.9770   22.8420 C   0  0  0  0  0  0  0  0  0  0  0  0
  -21.0640   -6.5970   23.9810 C   0  0  0  0  0  3  0  0  0  0  0  0
  -20.9150   -5.8690   25.1770 C   0  0  0  0  0  3  0  0  0  0  0  0
  -21.3090   -4.5180   25.2340 C   0  0  0  0  0  0  0  0  0  0  0  0
  -21.8560   -3.8970   24.0980 C   0  0  0  0  0  3  0  0  0  0  0  0
  -22.0090   -4.6230   22.9040 C   0  0  0  0  0  0  0  0  0  0  0  0
  -22.5190   -4.0140   21.8080 F   0  0  0  0  0  0  0  0  0  0  0  0
  -21.1560   -3.8150   26.3800 F   0  0  0  0  0  0  0  0  0  0  0  0
  -22.7360  -13.2760   21.1960 C   0  0  0  0  0  0  0  0  0  0  0  0
  -22.0570  -12.5750   22.0980 N   0  0  0  0  0  0  0  0  0  0  0  0
  -22.2660  -14.2990   20.7000 O   0  0  0  0  0  0  0  0  0  0  0  0
  -22.4530  -11.7480   22.5190 H   0  0  0  0  0  0  0  0  0  0  0  0
  -21.1300  -12.8680   22.3700 H   0  0  0  0  0  0  0  0  0  0  0  0
  -25.3030  -14.9540   20.2120 N   0  0  0  0  0  0  0  0  0  0  0  0
  -24.5360  -15.6010   20.3540 H   0  0  0  0  0  0  0  0  0  0  0  0
  -26.1120  -15.3870   19.7840 H   0  0  0  0  0  0  0  0  0  0  0  0
  -31.4560  -17.1570   19.0350 N   0  0  0  0  0  4  0  0  0  0  0  0
  -30.9680  -17.2530   18.1620 H   0  0  0  0  0  0  0  0  0  0  0  0
  -32.0840  -16.3700   18.9570 H   0  0  0  0  0  0  0  0  0  0  0  0
  -32.0080  -17.9830   19.1900 H   0  0  0  0  0  0  0  0  0  0  0  0
  1 52  1  0
  1 49  1  0
  2  1  1  0
  2  4  1  0
  3  2  1  0
  5  6  1  0
  5  2  1  0
  7  6  1  0
  8 19  2  0
  9  7  1  0
  9 14  1  0
 10 18  1  0
 10 20  1  0
 11 17  1  0
 11 13  1  0
 12 18  1  0
 13 14  2  0
 13 12  1  0
 15  9  2  0
 16 15  1  0
 16 11  2  0
 17 10  1  0
 18  8  1  0
 20 22  2  0
 21 20  1  0
 23 21  1  0
 24 33  2  0
 24 29  1  0
 25 21  1  0
 25 29  1  0
 26 25  1  0
 27 28  1  0
 27 26  1  0
 28 24  1  0
 29 30  2  0
 30 31  1  0
 32 31  2  0
 33 32  1  0
 34  8  1  0
 34 39  1  0
 34 35  1  0
 35 38  1  1
 35 36  1  0
 37 35  1  0
 39 42  1  0
 40 44  1  0
 40 39  1  0
 41 40  2  0
 44 43  1  0
 46 44  1  0
 46 47  1  0
 46 45  1  0
 49 48  1  0
 49 51  1  0
 51 50  1  0
 52 54  1  0
 53 52  2  0
 55 54  1  0
 56 55  1  0
 56 65  1  0
 57 65  1  0
 58 63  1  0
 59 60  1  0
 59 58  1  0
 61 60  1  0
 61 70  1  0
 61 62  1  0
 63 57  1  0
 63 62  1  0
 64 57  2  0
 65 66  1  0
 67 68  2  0
 68 87  1  0
 69 68  1  0
 69 72  1  0
 70 67  1  0
 70 71  1  0
 71 69  2  0
 72 73  1  0
 73 74  2  0
 75 78  1  0
 75 74  1  0
 76 75  2  0
 77 76  1  0
 77 72  2  0
 78 79  1  0
 79 84  2  0
 79 80  1  0
 80 81  2  0
 81 82  1  0
 82 86  1  0
 83 82  2  0
 84 83  1  0
 85 84  1  0
 87 88  1  0
 88 91  1  0
 88 90  1  0
 89 87  2  0
 92 93  1  0
 92 67  1  0
 94 92  1  0
 95 98  1  0
 95 56  1  0
 96 95  1  0
 97 95  1  0
M  ISO  4   6 101   7 101  57 100  65 100
M  END
>  <TORSDO>  (34) 
F 26

>  <SCORE>  (34) 
-11.230

>  <name>  (34) 
33

>  <ligand_id>  (34) 
33

>  <original_smiles>  (34) 
[H]c1c([H])c([H])c2c(c1[H])C([H])([H])C([H])([H])C([H])([H])C2([H])N([H])C(=O)C1([H])N(C(=O)C([H])(N([H])C(=O)C([H])(N([H])C([H])([H])[H])C([H])([H])[H])C(C([H])([H])[H])(C([H])([H])[H])C([H])([H])[H])C([H])([H])c2c([H])c(OC([H])([H])C([H])([H])[N+]([H])([H])C([H])(C(=O)C([H])([H])C([H])([H])C([H])(N([H])C(=O)N3C([H])([H])C([H])([H])C([H])([H])C([H])(n4nc(-c5c([H])c([H])c(Oc6c([H])c([H])c(F)c([H])c6F)c([H])c5[H])c(C(=O)N([H])[H])c4N([H])[H])C3([H])[H])[N+]([H])([H])[H])C([H])(C([H])([H])[H])C([H])([H])C([H])([H])[H])c([H])c([H])c2C1([H])[H]

>  <smiles>  (34) 
[H]c1c([H])c([H])c2c(c1[H])C([H])([H])C([H])([H])C([H])([H])C2([H])N([H])C(=O)C1([H])N(C(=O)C([H])(N([H])C(=O)C([H])(N([H])C([H])([H])[H])C([H])([H])[H])C(C([H])([H])[H])(C([H])([H])[H])C([H])([H])[H])C([H])([H])c2c([H])c(OC([H])([H])C([H])([H])[N+]([H])([H])C([H])(C(=O)C([H])([H])C([H])([H])C([H])(N([H])C(=O)N3C([H])([H])C([H])([H])C([H])([H])C([H])(n4nc(-c5c([H])c([H])c(Oc6c([H])c([H])c(F)c([H])c6F)c([H])c5[H])c(C(=O)N([H])[H])c4N([H])[H])C3([H])[H])[N+]([H])([H])[H])C([H])(C([H])([H])[H])C([H])([H])C([H])([H])[H])c([H])c([H])c2C1([H])[H]

$$$$
34:0:0
     RDKit          3D

 97104  0  0  1  0  0  0  0  0999 V2000
  -29.6380  -20.7230   20.2220 C   0  0  0  0  0  3  0  0  0  0  0  0
  -28.9290  -23.3910   20.3520 C   0  0  0  0  0  0  0  0  0  0  0  0
  -28.6750  -21.9930   20.1730 N   0  0  0  0  0  0  0  0  0  0  0  0
  -30.0610  -23.7230   20.7110 O   0  0  0  0  0  0  0  0  0  0  0  0
  -27.7190  -21.7660   19.9250 H   0  0  0  0  0  0  0  0  0  0  0  0
  -27.8560  -24.6380   20.0920 C   0  0  0  0  0  2  0  0  0  0  0  0
  -28.2040  -26.1570   20.2750 O   0  0  0  0  0  0  0  0  0  0  0  0
  -24.6370  -31.9020   23.2580 C   0  0  0  0  0  0  0  0  0  0  0  0
  -27.1730  -27.1710   20.2090 C   0  0  0  0  0  0  0  0  0  0  0  0
  -23.4300  -30.5240   21.6120 C   0  0  0  0  0  3  0  0  0  0  0  0
  -24.8650  -28.9500   20.1760 C   0  0  0  0  0  0  0  0  0  0  0  0
  -25.9860  -30.7690   21.4500 C   0  0  0  0  0  2  0  0  0  0  0  0
  -26.0490  -29.3790   20.7890 C   0  0  0  0  0  0  0  0  0  0  0  0
  -27.2040  -28.5070   20.7890 C   0  0  0  0  0  3  0  0  0  0  0  0
  -25.9600  -26.8530   19.5530 C   0  0  0  0  0  3  0  0  0  0  0  0
  -24.8340  -27.7010   19.5430 C   0  0  0  0  0  3  0  0  0  0  0  0
  -23.6460  -29.8570   20.2270 C   0  0  0  0  0  2  0  0  0  0  0  0
  -24.7050  -31.0860   22.1620 N   0  0  0  0  0  0  0  0  0  0  0  0
  -23.5530  -32.1890   23.7880 O   0  0  0  0  0  0  0  0  0  0  0  0
  -22.7440  -29.5150   22.5680 C   0  0  0  0  0  0  0  0  0  0  0  0
  -21.4150  -29.3490   22.4380 N   0  0  0  0  0  0  0  0  0  0  0  0
  -23.4100  -28.8830   23.3910 O   0  0  0  0  0  0  0  0  0  0  0  0
  -20.9320  -29.9100   21.7500 H   0  0  0  0  0  0  0  0  0  0  0  0
  -18.0250  -28.1700   22.9430 C   0  0  0  0  0  0  0  0  0  0  0  0
  -20.5880  -28.4140   23.2070 C   0  0  0  0  0  3  0  0  0  0  0  0
  -20.6790  -26.9840   22.6260 C   0  0  0  0  0  2  0  0  0  0  0  0
  -19.5730  -26.6740   21.6130 C   0  0  0  0  0  2  0  0  0  0  0  0
  -18.1930  -26.8240   22.2580 C   0  0  0  0  0  2  0  0  0  0  0  0
  -19.1500  -28.9230   23.3740 C   0  0  0  0  0  0  0  0  0  0  0  0
  -18.9370  -30.1830   23.9760 C   0  0  0  0  0  3  0  0  0  0  0  0
  -17.6360  -30.6900   24.1490 C   0  0  0  0  0  3  0  0  0  0  0  0
  -16.5250  -29.9340   23.7310 C   0  0  0  0  0  3  0  0  0  0  0  0
  -16.7220  -28.6760   23.1340 C   0  0  0  0  0  3  0  0  0  0  0  0
  -25.9170  -32.5280   23.8890 C   0  0  0  0  0  3  0  0  0  0  0  0
  -26.4200  -31.7540   25.1700 C   0  0  1  0  0  0  0  0  0  0  0  0
  -25.3190  -31.5260   26.2310 C   0  0  0  0  0  1  0  0  0  0  0  0
  -26.9990  -30.3730   24.7860 C   0  0  0  0  0  1  0  0  0  0  0  0
  -27.5700  -32.5420   25.8400 C   0  0  0  0  0  1  0  0  0  0  0  0
  -25.6130  -33.9270   24.2250 N   0  0  0  0  0  0  0  0  0  0  0  0
  -25.9280  -34.9830   23.4630 C   0  0  0  0  0  0  0  0  0  0  0  0
  -26.5690  -34.8810   22.4140 O   0  0  0  0  0  0  0  0  0  0  0  0
  -25.0410  -34.0810   25.0420 H   0  0  0  0  0  0  0  0  0  0  0  0
  -24.1790  -36.7710   23.1750 C   0  0  0  0  0  1  0  0  0  0  0  0
  -25.4540  -36.3710   23.9360 C   0  0  0  0  0  3  0  0  0  0  0  0
  -27.6130  -37.2700   24.6850 C   0  0  0  0  0  1  0  0  0  0  0  0
  -26.4750  -37.4290   23.7810 N   0  0  0  0  0  0  0  0  0  0  0  0
  -26.0700  -38.3470   23.9390 H   0  0  0  0  0  0  0  0  0  0  0  0
  -29.1440  -19.0860   20.3290 C   0  0  0  0  0  0  0  0  0  0  0  0
  -27.9380  -18.8300   20.3870 O   0  0  0  0  0  0  0  0  0  0  0  0
  -30.1670  -17.7680   20.3450 C   0  0  0  0  0  2  0  0  0  0  0  0
  -30.4840  -15.0300   20.3260 C   0  0  0  0  0  0  0  0  0  0  0  0
  -30.3540  -12.6770   19.3810 C   0  0  0  0  0  2  0  0  0  0  0  0
  -29.4210  -12.6330   18.1470 C   0  0  0  0  0  2  0  0  0  0  0  0
  -27.9610  -12.4170   18.5820 C   0  0  0  0  0  2  0  0  0  0  0  0
  -27.5530  -13.3330   19.7640 C   0  0  0  0  0  3  0  0  0  0  0  0
  -28.6120  -13.3510   20.8870 C   0  0  0  0  0  2  0  0  0  0  0  0
  -29.8760  -13.7730   20.2740 N   0  0  0  0  0  0  0  0  0  0  0  0
  -31.6870  -15.0750   20.0530 O   0  0  0  0  0  0  0  0  0  0  0  0
  -29.7360  -16.2390   20.4690 N   0  0  0  0  0  0  0  0  0  0  0  0
  -28.7530  -16.1070   20.6550 H   0  0  0  0  0  0  0  0  0  0  0  0
  -25.1730  -13.8950   20.5070 C   0  0  0  0  0  0  0  0  0  0  0  0
  -24.1120  -13.1130   20.8730 C   0  0  0  0  0  0  0  0  0  0  0  0
  -24.5830  -11.7650   20.8380 C   0  0  0  0  0  0  0  0  0  0  0  0
  -26.2190  -13.0230   20.2650 N   0  0  0  0  0  0  0  0  0  0  0  0
  -25.8750  -11.7370   20.5310 N   0  0  0  0  0  0  0  0  0  0  0  0
  -23.8600  -10.4990   21.0230 C   0  0  0  0  0  0  0  0  0  0  0  0
  -24.2840   -9.5370   21.9660 C   0  0  0  0  0  3  0  0  0  0  0  0
  -23.5600   -8.3380   22.1400 C   0  0  0  0  0  3  0  0  0  0  0  0
  -22.3990   -8.0910   21.3690 C   0  0  0  0  0  0  0  0  0  0  0  0
  -21.9940   -9.0410   20.4150 C   0  0  0  0  0  3  0  0  0  0  0  0
  -22.7190  -10.2330   20.2400 C   0  0  0  0  0  3  0  0  0  0  0  0
  -21.6470   -6.9440   21.4510 O   0  0  0  0  0  0  0  0  0  0  0  0
  -21.5730   -6.2140   22.6090 C   0  0  0  0  0  0  0  0  0  0  0  0
  -21.0830   -6.7710   23.8110 C   0  0  0  0  0  3  0  0  0  0  0  0
  -20.9600   -5.9650   24.9600 C   0  0  0  0  0  3  0  0  0  0  0  0
  -21.3150   -4.6040   24.9090 C   0  0  0  0  0  0  0  0  0  0  0  0
  -21.7980   -4.0460   23.7120 C   0  0  0  0  0  3  0  0  0  0  0  0
  -21.9240   -4.8490   22.5650 C   0  0  0  0  0  0  0  0  0  0  0  0
  -22.3700   -4.3020   21.4080 F   0  0  0  0  0  0  0  0  0  0  0  0
  -21.1890   -3.8260   26.0110 F   0  0  0  0  0  0  0  0  0  0  0  0
  -22.7130  -13.5840   21.1420 C   0  0  0  0  0  0  0  0  0  0  0  0
  -21.9890  -12.8860   22.0090 N   0  0  0  0  0  0  0  0  0  0  0  0
  -22.2720  -14.6060   20.6190 O   0  0  0  0  0  0  0  0  0  0  0  0
  -22.3600  -12.0590   22.4520 H   0  0  0  0  0  0  0  0  0  0  0  0
  -21.0500  -13.1820   22.2350 H   0  0  0  0  0  0  0  0  0  0  0  0
  -25.3280  -15.2660   20.3320 N   0  0  0  0  0  0  0  0  0  0  0  0
  -24.5530  -15.9110   20.4280 H   0  0  0  0  0  0  0  0  0  0  0  0
  -26.1690  -15.7120   19.9890 H   0  0  0  0  0  0  0  0  0  0  0  0
  -30.6530  -20.8720   19.0570 C   0  0  0  0  0  2  0  0  0  0  0  0
  -32.1240  -20.7870   19.5010 C   0  0  0  0  0  2  0  0  0  0  0  0
  -33.0970  -20.9490   18.3240 C   0  0  0  0  0  2  0  0  0  0  0  0
  -34.5670  -20.8040   18.7450 C   0  0  0  0  0  2  0  0  0  0  0  0
  -35.5380  -20.9070   17.5520 C   0  0  0  0  0  2  0  0  0  0  0  0
  -36.9390  -20.7070   17.9570 N   0  0  0  0  0  4  0  0  0  0  0  0
  -37.2270  -21.4150   18.6080 H   0  0  0  0  0  0  0  0  0  0  0  0
  -37.5380  -20.7590   17.1520 H   0  0  0  0  0  0  0  0  0  0  0  0
  -37.0650  -19.8040   18.3800 H   0  0  0  0  0  0  0  0  0  0  0  0
  1 89  1  0
  1 48  1  0
  2  4  2  0
  3  1  1  0
  3  2  1  0
  5  3  1  0
  6  7  1  0
  6  2  1  0
  8 19  2  0
  9  7  1  0
  9 14  1  0
 10 18  1  0
 10 20  1  0
 11 17  1  0
 11 13  1  0
 12 18  1  0
 13 14  2  0
 13 12  1  0
 15  9  2  0
 16 15  1  0
 16 11  2  0
 17 10  1  0
 18  8  1  0
 20 22  2  0
 21 20  1  0
 23 21  1  0
 24 33  2  0
 24 29  1  0
 25 21  1  0
 25 29  1  0
 26 25  1  0
 27 28  1  0
 27 26  1  0
 28 24  1  0
 29 30  2  0
 30 31  1  0
 32 31  2  0
 33 32  1  0
 34  8  1  0
 34 39  1  0
 34 35  1  0
 35 38  1  1
 35 36  1  0
 37 35  1  0
 39 42  1  0
 40 44  1  0
 40 39  1  0
 41 40  2  0
 44 43  1  0
 46 44  1  0
 46 47  1  0
 46 45  1  0
 48 50  1  0
 48 49  2  0
 50 59  1  0
 51 59  1  0
 52 57  1  0
 53 54  1  0
 53 52  1  0
 55 54  1  0
 55 64  1  0
 55 56  1  0
 57 51  1  0
 57 56  1  0
 58 51  2  0
 59 60  1  0
 61 62  2  0
 62 81  1  0
 63 62  1  0
 63 66  1  0
 64 61  1  0
 64 65  1  0
 65 63  2  0
 66 67  1  0
 67 68  2  0
 69 72  1  0
 69 68  1  0
 70 69  2  0
 71 70  1  0
 71 66  2  0
 72 73  1  0
 73 74  1  0
 74 75  2  0
 76 75  1  0
 76 80  1  0
 77 76  2  0
 78 73  2  0
 78 77  1  0
 79 78  1  0
 81 82  1  0
 82 85  1  0
 82 84  1  0
 83 81  2  0
 86 87  1  0
 86 61  1  0
 88 86  1  0
 89 90  1  0
 91 92  1  0
 91 90  1  0
 93 94  1  0
 93 92  1  0
 94 97  1  0
 94 95  1  0
 96 94  1  0
M  ISO  4   6 101   7 101  51 100  59 100
M  END
>  <TORSDO>  (35) 
F 26

>  <SCORE>  (35) 
-12.351

>  <name>  (35) 
34

>  <ligand_id>  (35) 
34

>  <original_smiles>  (35) 
[H]c1c([H])c([H])c2c(c1[H])C([H])([H])C([H])([H])C([H])([H])C2([H])N([H])C(=O)C1([H])N(C(=O)C([H])(N([H])C(=O)C([H])(N([H])C([H])([H])[H])C([H])([H])[H])C(C([H])([H])[H])(C([H])([H])[H])C([H])([H])[H])C([H])([H])c2c([H])c(OC([H])([H])C(=O)N([H])C([H])(C(=O)C([H])([H])N([H])C(=O)N3C([H])([H])C([H])([H])C([H])([H])C([H])(n4nc(-c5c([H])c([H])c(Oc6c([H])c([H])c(F)c([H])c6F)c([H])c5[H])c(C(=O)N([H])[H])c4N([H])[H])C3([H])[H])C([H])([H])C([H])([H])C([H])([H])C([H])([H])C([H])([H])[N+]([H])([H])[H])c([H])c([H])c2C1([H])[H]

>  <smiles>  (35) 
[H]c1c([H])c([H])c2c(c1[H])C([H])([H])C([H])([H])C([H])([H])C2([H])N([H])C(=O)C1([H])N(C(=O)C([H])(N([H])C(=O)C([H])(N([H])C([H])([H])[H])C([H])([H])[H])C(C([H])([H])[H])(C([H])([H])[H])C([H])([H])[H])C([H])([H])c2c([H])c(OC([H])([H])C(=O)N([H])C([H])(C(=O)C([H])([H])N([H])C(=O)N3C([H])([H])C([H])([H])C([H])([H])C([H])(n4nc(-c5c([H])c([H])c(Oc6c([H])c([H])c(F)c([H])c6F)c([H])c5[H])c(C(=O)N([H])[H])c4N([H])[H])C3([H])[H])C([H])([H])C([H])([H])C([H])([H])C([H])([H])C([H])([H])[N+]([H])([H])[H])c([H])c([H])c2C1([H])[H]

$$$$
35:0:0
     RDKit          3D

109118  0  0  1  0  0  0  0  0999 V2000
  -28.3890  -23.5690   20.1210 C   0  0  0  0  0  3  0  0  0  0  0  0
  -29.7600  -23.0830   20.6970 C   0  0  0  0  0  2  0  0  0  0  0  0
  -30.2800  -21.2060   22.3570 C   0  0  0  0  0  3  0  0  0  0  0  0
  -29.6440  -20.5580   20.1060 C   0  0  0  0  0  3  0  0  0  0  0  0
  -30.4310  -19.8470   22.6990 C   0  0  0  0  0  3  0  0  0  0  0  0
  -29.7900  -19.1890   20.4560 C   0  0  0  0  0  3  0  0  0  0  0  0
  -29.8960  -21.5850   21.0520 C   0  0  0  0  0  0  0  0  0  0  0  0
  -30.2000  -18.8190   21.7580 C   0  0  0  0  0  0  0  0  0  0  0  0
  -30.4830  -17.3670   22.1860 C   0  0  0  0  0  2  0  0  0  0  0  0
  -30.4510  -15.4050   20.6270 C   0  0  0  0  0  0  0  0  0  0  0  0
  -30.1990  -13.4140   19.1770 C   0  0  0  0  0  2  0  0  0  0  0  0
  -29.2390  -13.7180   18.0100 C   0  0  0  0  0  2  0  0  0  0  0  0
  -27.7760  -13.4770   18.4250 C   0  0  0  0  0  2  0  0  0  0  0  0
  -27.4210  -14.1320   19.7870 C   0  0  0  0  0  3  0  0  0  0  0  0
  -28.4920  -13.8230   20.8550 C   0  0  0  0  0  2  0  0  0  0  0  0
  -29.7950  -14.2510   20.3210 N   0  0  0  0  0  0  0  0  0  0  0  0
  -31.5460  -15.6890   20.1330 O   0  0  0  0  0  0  0  0  0  0  0  0
  -29.8290  -16.2580   21.4670 N   0  0  0  0  0  0  0  0  0  0  0  0
  -28.9060  -15.9960   21.7790 H   0  0  0  0  0  0  0  0  0  0  0  0
  -24.9660  -14.5380   20.4330 C   0  0  0  0  0  0  0  0  0  0  0  0
  -23.9550  -13.6830   20.7720 C   0  0  0  0  0  0  0  0  0  0  0  0
  -24.5220  -12.3720   20.7490 C   0  0  0  0  0  0  0  0  0  0  0  0
  -26.0840  -13.7460   20.2300 N   0  0  0  0  0  0  0  0  0  0  0  0
  -25.8200  -12.4370   20.4760 N   0  0  0  0  0  0  0  0  0  0  0  0
  -23.8950  -11.0540   20.9140 C   0  0  0  0  0  0  0  0  0  0  0  0
  -24.3470  -10.1360   21.8870 C   0  0  0  0  0  3  0  0  0  0  0  0
  -23.7120   -8.8850   22.0400 C   0  0  0  0  0  3  0  0  0  0  0  0
  -22.6130   -8.5410   21.2190 C   0  0  0  0  0  0  0  0  0  0  0  0
  -22.1800   -9.4500   20.2380 C   0  0  0  0  0  3  0  0  0  0  0  0
  -22.8150  -10.6940   20.0830 C   0  0  0  0  0  3  0  0  0  0  0  0
  -21.9520   -7.3390   21.2790 O   0  0  0  0  0  0  0  0  0  0  0  0
  -21.8590   -6.6250   22.4470 C   0  0  0  0  0  0  0  0  0  0  0  0
  -21.3180   -7.1880   23.6230 C   0  0  0  0  0  3  0  0  0  0  0  0
  -21.1760   -6.3990   24.7810 C   0  0  0  0  0  3  0  0  0  0  0  0
  -21.5700   -5.0460   24.7630 C   0  0  0  0  0  0  0  0  0  0  0  0
  -22.1040   -4.4830   23.5910 C   0  0  0  0  0  3  0  0  0  0  0  0
  -22.2470   -5.2700   22.4360 C   0  0  0  0  0  0  0  0  0  0  0  0
  -22.7420   -4.7170   21.3020 F   0  0  0  0  0  0  0  0  0  0  0  0
  -21.4280   -4.2840   25.8730 F   0  0  0  0  0  0  0  0  0  0  0  0
  -22.5180  -14.0460   21.0090 C   0  0  0  0  0  0  0  0  0  0  0  0
  -21.8440  -13.3260   21.8980 N   0  0  0  0  0  0  0  0  0  0  0  0
  -22.0010  -15.0070   20.4410 O   0  0  0  0  0  0  0  0  0  0  0  0
  -22.2780  -12.5530   22.3790 H   0  0  0  0  0  0  0  0  0  0  0  0
  -20.8790  -13.5500   22.1010 H   0  0  0  0  0  0  0  0  0  0  0  0
  -25.0260  -15.9180   20.2620 N   0  0  0  0  0  0  0  0  0  0  0  0
  -24.1960  -16.4990   20.3210 H   0  0  0  0  0  0  0  0  0  0  0  0
  -25.8440  -16.4230   19.9480 H   0  0  0  0  0  0  0  0  0  0  0  0
  -27.2130  -22.7140   20.6870 C   0  0  0  0  0  2  0  0  0  0  0  0
  -25.7930  -23.2600   20.4720 C   0  0  0  0  0  2  0  0  0  0  0  0
  -24.9280  -22.9680   21.7140 C   0  0  0  0  0  2  0  0  0  0  0  0
  -23.6510  -23.8160   21.8300 C   0  0  0  0  0  2  0  0  0  0  0  0
  -22.7710  -23.6550   20.6610 N   0  0  0  0  0  4  0  0  0  0  0  0
  -23.2650  -23.8570   19.8100 H   0  0  0  0  0  0  0  0  0  0  0  0
  -21.9870  -24.2800   20.7310 H   0  0  0  0  0  0  0  0  0  0  0  0
  -22.4170  -22.7160   20.6170 H   0  0  0  0  0  0  0  0  0  0  0  0
  -28.1150  -25.1330   20.2270 C   0  0  0  0  0  3  0  0  0  0  0  0
  -27.2230  -25.8640   22.4380 C   0  0  0  0  0  0  0  0  0  0  0  0
  -28.2510  -25.6340   21.6030 N   0  0  0  0  0  0  0  0  0  0  0  0
  -26.0420  -25.6740   22.1340 O   0  0  0  0  0  0  0  0  0  0  0  0
  -29.1860  -25.8340   21.9290 H   0  0  0  0  0  0  0  0  0  0  0  0
  -27.0120  -28.2040   25.3020 C   0  0  0  0  0  2  0  0  0  0  0  0
  -27.5090  -27.8940   23.8940 C   0  0  0  0  0  2  0  0  0  0  0  0
  -26.0450  -27.0610   25.6120 C   0  0  0  0  0  2  0  0  0  0  0  0
  -27.5250  -26.3600   23.8510 C   0  0  0  0  0  3  0  0  0  0  0  0
  -26.4260  -25.9350   24.7380 N   0  0  0  0  0  4  0  0  0  0  0  0
  -25.6650  -25.7130   24.1090 H   0  0  0  0  0  0  0  0  0  0  0  0
  -26.6740  -25.1080   25.2580 H   0  0  0  0  0  0  0  0  0  0  0  0
  -28.8380  -26.0960   19.2150 C   0  0  0  0  0  2  0  0  0  0  0  0
  -28.7510  -27.5270   19.4810 O   0  0  0  0  0  0  0  0  0  0  0  0
  -24.6070  -32.0030   23.1830 C   0  0  0  0  0  0  0  0  0  0  0  0
  -27.5240  -28.1730   19.5410 C   0  0  0  0  0  0  0  0  0  0  0  0
  -23.4780  -30.6880   21.4230 C   0  0  0  0  0  3  0  0  0  0  0  0
  -25.0130  -29.4770   19.7840 C   0  0  0  0  0  0  0  0  0  0  0  0
  -25.9550  -31.3020   21.2020 C   0  0  0  0  0  2  0  0  0  0  0  0
  -26.1430  -30.0260   20.3990 C   0  0  0  0  0  0  0  0  0  0  0  0
  -27.4010  -29.3810   20.2780 C   0  0  0  0  0  3  0  0  0  0  0  0
  -26.3690  -27.6550   18.9130 C   0  0  0  0  0  3  0  0  0  0  0  0
  -25.1220  -28.2890   19.0410 C   0  0  0  0  0  3  0  0  0  0  0  0
  -23.7000  -30.2050   19.9660 C   0  0  0  0  0  2  0  0  0  0  0  0
  -24.7010  -31.3380   21.9960 N   0  0  0  0  0  0  0  0  0  0  0  0
  -23.5240  -32.1040   23.7750 O   0  0  0  0  0  0  0  0  0  0  0  0
  -22.9620  -29.5010   22.2680 C   0  0  0  0  0  0  0  0  0  0  0  0
  -21.6610  -29.1930   22.1330 N   0  0  0  0  0  0  0  0  0  0  0  0
  -23.7250  -28.8660   23.0020 O   0  0  0  0  0  0  0  0  0  0  0  0
  -21.1040  -29.7610   21.5110 H   0  0  0  0  0  0  0  0  0  0  0  0
  -18.4370  -27.6040   22.5410 C   0  0  0  0  0  0  0  0  0  0  0  0
  -20.9630  -28.0960   22.8020 C   0  0  0  0  0  3  0  0  0  0  0  0
  -21.1970  -26.7580   22.0640 C   0  0  0  0  0  2  0  0  0  0  0  0
  -20.1060  -26.4380   21.0360 C   0  0  0  0  0  2  0  0  0  0  0  0
  -18.7320  -26.3650   21.7110 C   0  0  0  0  0  2  0  0  0  0  0  0
  -19.4840  -28.4250   23.0390 C   0  0  0  0  0  0  0  0  0  0  0  0
  -19.1560  -29.5840   23.7750 C   0  0  0  0  0  3  0  0  0  0  0  0
  -17.8110  -29.9270   24.0150 C   0  0  0  0  0  3  0  0  0  0  0  0
  -16.7790  -29.1040   23.5330 C   0  0  0  0  0  3  0  0  0  0  0  0
  -17.0930  -27.9430   22.8040 C   0  0  0  0  0  3  0  0  0  0  0  0
  -25.8450  -32.6880   23.8390 C   0  0  0  0  0  3  0  0  0  0  0  0
  -26.3440  -31.9620   25.1460 C   0  0  1  0  0  0  0  0  0  0  0  0
  -25.2030  -31.5490   26.1050 C   0  0  0  0  0  1  0  0  0  0  0  0
  -27.1540  -30.7030   24.7790 C   0  0  0  0  0  1  0  0  0  0  0  0
  -27.3120  -32.8830   25.9250 C   0  0  0  0  0  1  0  0  0  0  0  0
  -25.4780  -34.0790   24.1310 N   0  0  0  0  0  0  0  0  0  0  0  0
  -25.8560  -35.1340   23.3970 C   0  0  0  0  0  0  0  0  0  0  0  0
  -26.6130  -35.0380   22.4270 O   0  0  0  0  0  0  0  0  0  0  0  0
  -24.8180  -34.2230   24.8820 H   0  0  0  0  0  0  0  0  0  0  0  0
  -24.1490  -36.9010   22.8650 C   0  0  0  0  0  1  0  0  0  0  0  0
  -25.3050  -36.5140   23.8010 C   0  0  0  0  0  3  0  0  0  0  0  0
  -27.3480  -37.4090   24.8270 C   0  0  0  0  0  1  0  0  0  0  0  0
  -26.3320  -37.5790   23.7910 N   0  0  0  0  0  0  0  0  0  0  0  0
  -25.9040  -38.4920   23.9160 H   0  0  0  0  0  0  0  0  0  0  0  0
  1 56  1  0
  1 48  1  0
  1  2  1  0
  2  7  1  0
  3  5  1  0
  4  6  2  0
  4  7  1  0
  6  8  1  0
  7  3  2  0
  8  9  1  0
  8  5  2  0
 10 18  1  0
 11 16  1  0
 12 13  1  0
 12 11  1  0
 14 13  1  0
 14 23  1  0
 14 15  1  0
 16 10  1  0
 16 15  1  0
 17 10  2  0
 18 19  1  0
 18  9  1  0
 20 21  2  0
 21 40  1  0
 22 21  1  0
 22 25  1  0
 23 20  1  0
 23 24  1  0
 24 22  2  0
 25 26  1  0
 26 27  2  0
 28 31  1  0
 28 27  1  0
 29 28  2  0
 30 29  1  0
 30 25  2  0
 31 32  1  0
 32 33  1  0
 33 34  2  0
 35 34  1  0
 35 39  1  0
 36 35  2  0
 37 32  2  0
 37 36  1  0
 38 37  1  0
 40 41  1  0
 41 44  1  0
 41 43  1  0
 42 40  2  0
 45 46  1  0
 45 20  1  0
 47 45  1  0
 49 48  1  0
 49 50  1  0
 50 51  1  0
 52 54  1  0
 52 51  1  0
 53 52  1  0
 55 52  1  0
 56 68  1  0
 56 58  1  0
 58 60  1  0
 58 57  1  0
 59 57  2  0
 61 63  1  0
 62 61  1  0
 64 57  1  0
 64 62  1  0
 64 65  1  0
 65 67  1  0
 65 63  1  0
 66 65  1  0
 68 69  1  0
 69 71  1  0
 70 81  2  0
 71 76  1  0
 72 80  1  0
 72 82  1  0
 73 79  1  0
 73 75  1  0
 74 80  1  0
 75 74  1  0
 76 75  2  0
 77 78  1  0
 77 71  2  0
 78 73  2  0
 79 72  1  0
 80 70  1  0
 82 84  2  0
 83 82  1  0
 85 83  1  0
 86 95  2  0
 86 91  1  0
 87 83  1  0
 87 91  1  0
 88 87  1  0
 89 90  1  0
 89 88  1  0
 90 86  1  0
 91 92  2  0
 92 93  1  0
 94 93  2  0
 95 94  1  0
 96 70  1  0
 96101  1  0
 96 97  1  0
 97100  1  1
 97 98  1  0
 99 97  1  0
101104  1  0
102106  1  0
102101  1  0
103102  2  0
106105  1  0
108106  1  0
108109  1  0
108107  1  0
M  ISO  4  10 100  18 100  68 101  69 101
M  END
>  <TORSDO>  (36) 
F 28

>  <SCORE>  (36) 
-8.821

>  <name>  (36) 
35

>  <ligand_id>  (36) 
35

>  <original_smiles>  (36) 
[H]c1c([H])c([H])c2c(c1[H])C([H])([H])C([H])([H])C([H])([H])C2([H])N([H])C(=O)C1([H])N(C(=O)C([H])(N([H])C(=O)C([H])(N([H])C([H])([H])[H])C([H])([H])[H])C(C([H])([H])[H])(C([H])([H])[H])C([H])([H])[H])C([H])([H])c2c([H])c(OC([H])([H])C([H])(N([H])C(=O)C3([H])C([H])([H])C([H])([H])C([H])([H])[N+]3([H])[H])C([H])(C([H])([H])c3c([H])c([H])c(C([H])([H])N([H])C(=O)N4C([H])([H])C([H])([H])C([H])([H])C([H])(n5nc(-c6c([H])c([H])c(Oc7c([H])c([H])c(F)c([H])c7F)c([H])c6[H])c(C(=O)N([H])[H])c5N([H])[H])C4([H])[H])c([H])c3[H])C([H])([H])C([H])([H])C([H])([H])C([H])([H])[N+]([H])([H])[H])c([H])c([H])c2C1([H])[H]

>  <smiles>  (36) 
[H]c1c([H])c([H])c2c(c1[H])C([H])([H])C([H])([H])C([H])([H])C2([H])N([H])C(=O)C1([H])N(C(=O)C([H])(N([H])C(=O)C([H])(N([H])C([H])([H])[H])C([H])([H])[H])C(C([H])([H])[H])(C([H])([H])[H])C([H])([H])[H])C([H])([H])c2c([H])c(OC([H])([H])C([H])(N([H])C(=O)C3([H])C([H])([H])C([H])([H])C([H])([H])[N+]3([H])[H])C([H])(C([H])([H])c3c([H])c([H])c(C([H])([H])N([H])C(=O)N4C([H])([H])C([H])([H])C([H])([H])C([H])(n5nc(-c6c([H])c([H])c(Oc7c([H])c([H])c(F)c([H])c7F)c([H])c6[H])c(C(=O)N([H])[H])c5N([H])[H])C4([H])[H])c([H])c3[H])C([H])([H])C([H])([H])C([H])([H])C([H])([H])[N+]([H])([H])[H])c([H])c([H])c2C1([H])[H]

$$$$
36:0:0
     RDKit          3D

 96103  0  0  1  0  0  0  0  0999 V2000
  -28.4130  -25.3510   19.5580 C   0  0  0  0  0  3  0  0  0  0  0  0
  -29.1990  -24.3330   20.4180 C   0  0  0  0  0  0  0  0  0  0  0  0
  -29.9870  -24.6850   21.3020 O   0  0  0  0  0  0  0  0  0  0  0  0
  -28.9300  -22.8450   20.1110 C   0  0  0  0  0  2  0  0  0  0  0  0
  -29.8060  -21.8040   20.8510 C   0  0  0  0  0  2  0  0  0  0  0  0
  -29.4850  -20.3530   20.4080 C   0  0  0  0  0  2  0  0  0  0  0  0
  -30.2870  -19.2550   21.1460 C   0  0  0  0  0  2  0  0  0  0  0  0
  -29.8750  -17.8150   20.7490 C   0  0  0  0  0  2  0  0  0  0  0  0
  -30.6350  -16.7160   21.5310 C   0  0  0  0  0  2  0  0  0  0  0  0
  -30.7390  -14.4220   20.4990 C   0  0  0  0  0  0  0  0  0  0  0  0
  -30.4010  -12.2870   19.3030 C   0  0  0  0  0  2  0  0  0  0  0  0
  -29.4690  -12.5090   18.0960 C   0  0  0  0  0  2  0  0  0  0  0  0
  -27.9890  -12.3930   18.5160 C   0  0  0  0  0  2  0  0  0  0  0  0
  -27.6590  -13.2320   19.7800 C   0  0  0  0  0  3  0  0  0  0  0  0
  -28.7020  -12.9820   20.8910 C   0  0  0  0  0  2  0  0  0  0  0  0
  -30.0380  -13.2670   20.3380 N   0  0  0  0  0  0  0  0  0  0  0  0
  -31.8270  -14.6320   19.9530 O   0  0  0  0  0  0  0  0  0  0  0  0
  -30.1340  -15.3660   21.2380 N   0  0  0  0  0  0  0  0  0  0  0  0
  -29.2430  -15.1120   21.6400 H   0  0  0  0  0  0  0  0  0  0  0  0
  -25.2620  -13.8800   20.4590 C   0  0  0  0  0  0  0  0  0  0  0  0
  -24.1810  -13.1260   20.8310 C   0  0  0  0  0  0  0  0  0  0  0  0
  -24.6240  -11.7680   20.8170 C   0  0  0  0  0  0  0  0  0  0  0  0
  -26.2970  -12.9830   20.2470 N   0  0  0  0  0  0  0  0  0  0  0  0
  -25.9150  -11.7080   20.5170 N   0  0  0  0  0  0  0  0  0  0  0  0
  -23.8800  -10.5180   21.0170 C   0  0  0  0  0  0  0  0  0  0  0  0
  -24.3080   -9.5450   21.9490 C   0  0  0  0  0  3  0  0  0  0  0  0
  -23.5660   -8.3580   22.1350 C   0  0  0  0  0  3  0  0  0  0  0  0
  -22.3850   -8.1350   21.3900 C   0  0  0  0  0  0  0  0  0  0  0  0
  -21.9760   -9.0960   20.4490 C   0  0  0  0  0  3  0  0  0  0  0  0
  -22.7170  -10.2740   20.2600 C   0  0  0  0  0  3  0  0  0  0  0  0
  -21.6140   -7.0010   21.4880 O   0  0  0  0  0  0  0  0  0  0  0  0
  -21.5760   -6.2530   22.6370 C   0  0  0  0  0  0  0  0  0  0  0  0
  -21.1970   -6.8110   23.8770 C   0  0  0  0  0  3  0  0  0  0  0  0
  -21.1040   -5.9900   25.0180 C   0  0  0  0  0  3  0  0  0  0  0  0
  -21.3790   -4.6120   24.9210 C   0  0  0  0  0  0  0  0  0  0  0  0
  -21.7520   -4.0550   23.6840 C   0  0  0  0  0  3  0  0  0  0  0  0
  -21.8480   -4.8730   22.5450 C   0  0  0  0  0  0  0  0  0  0  0  0
  -22.1860   -4.3270   21.3520 F   0  0  0  0  0  0  0  0  0  0  0  0
  -21.2830   -3.8210   26.0140 F   0  0  0  0  0  0  0  0  0  0  0  0
  -22.7870  -13.6250   21.0890 C   0  0  0  0  0  0  0  0  0  0  0  0
  -22.0450  -12.9490   21.9590 N   0  0  0  0  0  0  0  0  0  0  0  0
  -22.3660  -14.6500   20.5530 O   0  0  0  0  0  0  0  0  0  0  0  0
  -22.3970  -12.1210   22.4160 H   0  0  0  0  0  0  0  0  0  0  0  0
  -21.1090  -13.2670   22.1710 H   0  0  0  0  0  0  0  0  0  0  0  0
  -25.4450  -15.2450   20.2670 N   0  0  0  0  0  0  0  0  0  0  0  0
  -24.6870  -15.9120   20.3620 H   0  0  0  0  0  0  0  0  0  0  0  0
  -26.3080  -15.6700   19.9480 H   0  0  0  0  0  0  0  0  0  0  0  0
  -28.9310  -25.4440   18.1030 C   0  0  0  0  0  2  0  0  0  0  0  0
  -30.3900  -25.9370   17.9680 C   0  0  0  0  0  2  0  0  0  0  0  0
  -30.9050  -24.7470   15.7520 C   0  0  0  0  0  1  0  0  0  0  0  0
  -30.8750  -26.0900   16.5070 C   0  0  0  0  0  3  0  0  0  0  0  0
  -32.2000  -26.7370   16.4640 N   0  0  0  0  0  4  0  0  0  0  0  0
  -32.8940  -26.1860   16.9360 H   0  0  0  0  0  0  0  0  0  0  0  0
  -32.1660  -27.6420   16.8970 H   0  0  0  0  0  0  0  0  0  0  0  0
  -32.4960  -26.8660   15.5120 H   0  0  0  0  0  0  0  0  0  0  0  0
  -28.3900  -26.6760   20.1380 O   0  0  0  0  0  0  0  0  0  0  0  0
  -24.5950  -31.8740   23.2140 C   0  0  0  0  0  0  0  0  0  0  0  0
  -27.2110  -27.4100   20.1020 C   0  0  0  0  0  0  0  0  0  0  0  0
  -23.3780  -30.4760   21.5790 C   0  0  0  0  0  3  0  0  0  0  0  0
  -24.8180  -28.9430   20.1400 C   0  0  0  0  0  0  0  0  0  0  0  0
  -25.9070  -30.8200   21.3740 C   0  0  0  0  0  2  0  0  0  0  0  0
  -25.9820  -29.4490   20.7300 C   0  0  0  0  0  0  0  0  0  0  0  0
  -27.1760  -28.6870   20.7160 C   0  0  0  0  0  3  0  0  0  0  0  0
  -26.0240  -26.9380   19.4860 C   0  0  0  0  0  3  0  0  0  0  0  0
  -24.8360  -27.6870   19.5180 C   0  0  0  0  0  3  0  0  0  0  0  0
  -23.5780  -29.8050   20.1960 C   0  0  0  0  0  2  0  0  0  0  0  0
  -24.6450  -31.0720   22.1130 N   0  0  0  0  0  0  0  0  0  0  0  0
  -23.5170  -32.1480   23.7590 O   0  0  0  0  0  0  0  0  0  0  0  0
  -22.7310  -29.4520   22.5400 C   0  0  0  0  0  0  0  0  0  0  0  0
  -21.4060  -29.2720   22.4210 N   0  0  0  0  0  0  0  0  0  0  0  0
  -23.4190  -28.8230   23.3490 O   0  0  0  0  0  0  0  0  0  0  0  0
  -20.9110  -29.8310   21.7400 H   0  0  0  0  0  0  0  0  0  0  0  0
  -18.0320  -28.0810   22.9350 C   0  0  0  0  0  0  0  0  0  0  0  0
  -20.5920  -28.3350   23.1950 C   0  0  0  0  0  3  0  0  0  0  0  0
  -20.6880  -26.9030   22.6160 C   0  0  0  0  0  2  0  0  0  0  0  0
  -19.5810  -26.5830   21.6070 C   0  0  0  0  0  2  0  0  0  0  0  0
  -18.2030  -26.7310   22.2580 C   0  0  0  0  0  2  0  0  0  0  0  0
  -19.1540  -28.8400   23.3600 C   0  0  0  0  0  0  0  0  0  0  0  0
  -18.9410  -30.1050   23.9510 C   0  0  0  0  0  3  0  0  0  0  0  0
  -17.6380  -30.6100   24.1220 C   0  0  0  0  0  3  0  0  0  0  0  0
  -16.5300  -29.8470   23.7150 C   0  0  0  0  0  3  0  0  0  0  0  0
  -16.7280  -28.5840   23.1280 C   0  0  0  0  0  3  0  0  0  0  0  0
  -25.8860  -32.5020   23.8250 C   0  0  0  0  0  3  0  0  0  0  0  0
  -26.4210  -31.7170   25.0860 C   0  0  1  0  0  0  0  0  0  0  0  0
  -25.3440  -31.4640   26.1660 C   0  0  0  0  0  1  0  0  0  0  0  0
  -27.0020  -30.3450   24.6690 C   0  0  0  0  0  1  0  0  0  0  0  0
  -27.5810  -32.5060   25.7400 C   0  0  0  0  0  1  0  0  0  0  0  0
  -25.5780  -33.8950   24.1730 N   0  0  0  0  0  0  0  0  0  0  0  0
  -25.8940  -34.9550   23.4160 C   0  0  0  0  0  0  0  0  0  0  0  0
  -26.5490  -34.8620   22.3750 O   0  0  0  0  0  0  0  0  0  0  0  0
  -24.9980  -34.0410   24.9850 H   0  0  0  0  0  0  0  0  0  0  0  0
  -24.1500  -36.7390   23.1010 C   0  0  0  0  0  1  0  0  0  0  0  0
  -25.4060  -36.3370   23.8900 C   0  0  0  0  0  3  0  0  0  0  0  0
  -27.5510  -37.2260   24.6900 C   0  0  0  0  0  1  0  0  0  0  0  0
  -26.4320  -37.3960   23.7680 N   0  0  0  0  0  0  0  0  0  0  0  0
  -26.0220  -38.3130   23.9310 H   0  0  0  0  0  0  0  0  0  0  0  0
  1 48  1  0
  1 56  1  0
  1  2  1  0
  2  3  2  0
  4  2  1  0
  4  5  1  0
  6  5  1  0
  6  7  1  0
  8  7  1  0
  8  9  1  0
 10 18  1  0
 11 16  1  0
 12 13  1  0
 12 11  1  0
 14 13  1  0
 14 23  1  0
 14 15  1  0
 16 10  1  0
 16 15  1  0
 17 10  2  0
 18  9  1  0
 18 19  1  0
 20 21  2  0
 21 40  1  0
 22 21  1  0
 22 25  1  0
 23 20  1  0
 23 24  1  0
 24 22  2  0
 25 26  1  0
 26 27  2  0
 28 31  1  0
 28 27  1  0
 29 28  2  0
 30 29  1  0
 30 25  2  0
 31 32  1  0
 32 33  1  0
 33 34  2  0
 35 34  1  0
 35 39  1  0
 36 35  2  0
 37 32  2  0
 37 36  1  0
 38 37  1  0
 40 41  1  0
 41 44  1  0
 41 43  1  0
 42 40  2  0
 45 46  1  0
 45 20  1  0
 47 45  1  0
 49 48  1  0
 51 50  1  0
 51 49  1  0
 52 51  1  0
 52 54  1  0
 52 53  1  0
 55 52  1  0
 57 68  2  0
 58 56  1  0
 58 63  1  0
 59 67  1  0
 59 69  1  0
 60 66  1  0
 60 62  1  0
 61 67  1  0
 62 61  1  0
 63 62  2  0
 64 65  1  0
 64 58  2  0
 65 60  2  0
 66 59  1  0
 67 57  1  0
 69 71  2  0
 70 69  1  0
 72 70  1  0
 73 82  2  0
 73 78  1  0
 74 70  1  0
 74 78  1  0
 75 74  1  0
 76 77  1  0
 76 75  1  0
 77 73  1  0
 78 79  2  0
 79 80  1  0
 81 80  2  0
 82 81  1  0
 83 57  1  0
 83 88  1  0
 83 84  1  0
 84 87  1  1
 84 85  1  0
 86 84  1  0
 88 91  1  0
 89 93  1  0
 89 88  1  0
 90 89  2  0
 93 92  1  0
 95 93  1  0
 95 96  1  0
 95 94  1  0
M  ISO  4   1 101  10 100  18 100  56 101
M  END
>  <TORSDO>  (37) 
F 27

>  <SCORE>  (37) 
-11.765

>  <name>  (37) 
36

>  <ligand_id>  (37) 
36

>  <original_smiles>  (37) 
[H]c1c([H])c([H])c2c(c1[H])C([H])([H])C([H])([H])C([H])([H])C2([H])N([H])C(=O)C1([H])N(C(=O)C([H])(N([H])C(=O)C([H])(N([H])C([H])([H])[H])C([H])([H])[H])C(C([H])([H])[H])(C([H])([H])[H])C([H])([H])[H])C([H])([H])c2c([H])c(OC([H])(C(=O)C([H])([H])C([H])([H])C([H])([H])C([H])([H])C([H])([H])C([H])([H])N([H])C(=O)N3C([H])([H])C([H])([H])C([H])([H])C([H])(n4nc(-c5c([H])c([H])c(Oc6c([H])c([H])c(F)c([H])c6F)c([H])c5[H])c(C(=O)N([H])[H])c4N([H])[H])C3([H])[H])C([H])([H])C([H])([H])C([H])(C([H])([H])[H])[N+]([H])([H])[H])c([H])c([H])c2C1([H])[H]

>  <smiles>  (37) 
[H]c1c([H])c([H])c2c(c1[H])C([H])([H])C([H])([H])C([H])([H])C2([H])N([H])C(=O)C1([H])N(C(=O)C([H])(N([H])C(=O)C([H])(N([H])C([H])([H])[H])C([H])([H])[H])C(C([H])([H])[H])(C([H])([H])[H])C([H])([H])[H])C([H])([H])c2c([H])c(OC([H])(C(=O)C([H])([H])C([H])([H])C([H])([H])C([H])([H])C([H])([H])C([H])([H])N([H])C(=O)N3C([H])([H])C([H])([H])C([H])([H])C([H])(n4nc(-c5c([H])c([H])c(Oc6c([H])c([H])c(F)c([H])c6F)c([H])c5[H])c(C(=O)N([H])[H])c4N([H])[H])C3([H])[H])C([H])([H])C([H])([H])C([H])(C([H])([H])[H])[N+]([H])([H])[H])c([H])c([H])c2C1([H])[H]

$$$$
37:0:0
     RDKit          3D

117125  0  0  1  0  0  0  0  0999 V2000
  -27.2630  -24.7130   16.8040 C   0  0  0  0  0  3  0  0  0  0  0  0
  -25.9140  -26.9610   16.4850 C   0  0  0  0  0  1  0  0  0  0  0  0
  -25.8770  -25.4550   16.8350 C   0  0  0  0  0  3  0  0  0  0  0  0
  -24.6180  -24.7160   16.2680 C   0  0  0  0  0  2  0  0  0  0  0  0
  -24.7630  -23.6700   15.1330 C   0  0  0  0  0  2  0  0  0  0  0  0
  -25.4500  -22.3300   15.4810 C   0  0  0  0  0  2  0  0  0  0  0  0
  -25.6070  -21.5160   14.2500 N   0  0  0  0  0  4  0  0  0  0  0  0
  -25.8350  -22.1630   13.5130 H   0  0  0  0  0  0  0  0  0  0  0  0
  -24.7250  -21.0890   14.0120 H   0  0  0  0  0  0  0  0  0  0  0  0
  -26.2880  -19.2920   15.1380 C   0  0  0  0  0  1  0  0  0  0  0  0
  -26.6710  -20.4840   14.2440 C   0  0  0  0  0  3  0  0  0  0  0  0
  -26.9450  -20.0620   12.7800 C   0  0  0  0  0  2  0  0  0  0  0  0
  -28.1840  -19.1720   12.5650 C   0  0  0  0  0  2  0  0  0  0  0  0
  -28.5820  -19.0810   11.0770 C   0  0  0  0  0  2  0  0  0  0  0  0
  -29.8490  -18.2390   10.8360 C   0  0  0  0  0  2  0  0  0  0  0  0
  -30.4990  -18.4780    9.4500 C   0  0  0  0  0  3  0  0  0  0  0  0
  -29.6660  -18.4250    7.1070 C   0  0  0  0  0  0  0  0  0  0  0  0
  -28.4940  -18.4100    4.9350 C   0  0  0  0  0  2  0  0  0  0  0  0
  -27.2930  -19.3760    4.9740 C   0  0  0  0  0  2  0  0  0  0  0  0
  -26.0450  -18.6760    5.5470 C   0  0  0  0  0  2  0  0  0  0  0  0
  -26.3360  -17.9290    6.8750 C   0  0  0  0  0  3  0  0  0  0  0  0
  -27.5920  -17.0420    6.7320 C   0  0  0  0  0  2  0  0  0  0  0  0
  -28.7110  -17.8990    6.2970 N   0  0  0  0  0  0  0  0  0  0  0  0
  -30.5190  -19.2260    6.7170 O   0  0  0  0  0  0  0  0  0  0  0  0
  -29.5840  -18.0520    8.3920 N   0  0  0  0  0  0  0  0  0  0  0  0
  -28.8940  -17.3590    8.6290 H   0  0  0  0  0  0  0  0  0  0  0  0
  -24.5210  -17.1710    8.5370 C   0  0  0  0  0  0  0  0  0  0  0  0
  -23.4640  -16.3090    8.4060 C   0  0  0  0  0  0  0  0  0  0  0  0
  -23.5310  -15.8050    7.0710 C   0  0  0  0  0  0  0  0  0  0  0  0
  -25.1780  -17.1540    7.3170 N   0  0  0  0  0  0  0  0  0  0  0  0
  -24.6010  -16.2830    6.4510 N   0  0  0  0  0  0  0  0  0  0  0  0
  -22.6070  -14.9370    6.3300 C   0  0  0  0  0  0  0  0  0  0  0  0
  -23.0660  -13.8070    5.6180 C   0  0  0  0  0  3  0  0  0  0  0  0
  -22.1560  -12.9790    4.9270 C   0  0  0  0  0  3  0  0  0  0  0  0
  -20.7730  -13.2730    4.9460 C   0  0  0  0  0  0  0  0  0  0  0  0
  -20.3240  -14.4130    5.6370 C   0  0  0  0  0  3  0  0  0  0  0  0
  -21.2310  -15.2390    6.3200 C   0  0  0  0  0  3  0  0  0  0  0  0
  -19.8190  -12.5400    4.2820 O   0  0  0  0  0  0  0  0  0  0  0  0
  -20.0170  -11.2190    3.9680 C   0  0  0  0  0  0  0  0  0  0  0  0
  -20.3330  -10.2580    4.9530 C   0  0  0  0  0  3  0  0  0  0  0  0
  -20.4580   -8.9000    4.5970 C   0  0  0  0  0  3  0  0  0  0  0  0
  -20.2580   -8.5010    3.2630 C   0  0  0  0  0  0  0  0  0  0  0  0
  -19.9380   -9.4550    2.2820 C   0  0  0  0  0  3  0  0  0  0  0  0
  -19.8140  -10.8100    2.6340 C   0  0  0  0  0  0  0  0  0  0  0  0
  -19.4840  -11.7230    1.6900 F   0  0  0  0  0  0  0  0  0  0  0  0
  -20.3710   -7.1950    2.9220 F   0  0  0  0  0  0  0  0  0  0  0  0
  -22.3960  -16.0410    9.4260 C   0  0  0  0  0  0  0  0  0  0  0  0
  -21.8310  -14.8370    9.4200 N   0  0  0  0  0  0  0  0  0  0  0  0
  -22.0890  -16.8830   10.2690 O   0  0  0  0  0  0  0  0  0  0  0  0
  -22.0970  -14.1390    8.7410 H   0  0  0  0  0  0  0  0  0  0  0  0
  -21.1230  -14.6120   10.1040 H   0  0  0  0  0  0  0  0  0  0  0  0
  -24.9650  -17.9770    9.5810 N   0  0  0  0  0  0  0  0  0  0  0  0
  -24.4710  -18.0380   10.4630 H   0  0  0  0  0  0  0  0  0  0  0  0
  -25.7540  -18.6060    9.5220 H   0  0  0  0  0  0  0  0  0  0  0  0
  -31.7910  -17.6470    9.3610 C   0  0  0  0  0  0  0  0  0  0  0  0
  -32.9100  -18.2210    9.7790 N   0  0  0  0  0  0  0  0  0  0  0  0
  -31.7830  -16.4960    8.9260 O   0  0  0  0  0  0  0  0  0  0  0  0
  -32.8950  -19.1650   10.1360 H   0  0  0  0  0  0  0  0  0  0  0  0
  -33.7890  -17.7230    9.7380 H   0  0  0  0  0  0  0  0  0  0  0  0
  -28.0370  -24.9450   15.4700 C   0  0  0  0  0  2  0  0  0  0  0  0
  -27.4290  -24.2110   14.3550 N   0  0  0  0  0  0  0  0  0  0  0  0
  -28.0680  -23.4650   14.0960 H   0  0  0  0  0  0  0  0  0  0  0  0
  -27.2160  -25.0050   10.6320 C   0  0  0  0  0  2  0  0  0  0  0  0
  -25.7320  -25.4140   10.6020 C   0  0  0  0  0  2  0  0  0  0  0  0
  -25.6570  -25.3240   13.0510 C   0  0  0  0  0  2  0  0  0  0  0  0
  -27.5870  -24.1900   11.8960 C   0  0  0  0  0  3  0  0  0  0  0  0
  -27.1710  -25.0050   13.1510 C   0  0  0  0  0  3  0  0  0  0  0  0
  -25.3470  -26.1110   11.8440 N   0  0  0  0  0  4  0  0  0  0  0  0
  -24.3560  -26.2930   11.8180 H   0  0  0  0  0  0  0  0  0  0  0  0
  -25.8120  -27.0030   11.8930 H   0  0  0  0  0  0  0  0  0  0  0  0
  -29.0900  -23.8080   11.8960 C   0  0  0  0  0  2  0  0  0  0  0  0
  -31.0690  -22.6740   10.8150 C   0  0  0  0  0  1  0  0  0  0  0  0
  -28.8240  -21.5250   10.7300 C   0  0  0  0  0  1  0  0  0  0  0  0
  -29.5500  -22.8820   10.7450 C   0  0  0  0  0  3  0  0  0  0  0  0
  -28.1250  -25.0270   18.0820 C   0  0  0  0  0  2  0  0  0  0  0  0
  -28.0230  -23.9940   19.2580 C   0  0  0  0  0  2  0  0  0  0  0  0
  -27.9510  -24.5460   20.5950 O   0  0  0  0  0  0  0  0  0  0  0  0
  -23.8340  -27.5600   25.6470 C   0  0  0  0  0  0  0  0  0  0  0  0
  -26.8460  -25.3030   20.9400 C   0  0  0  0  0  0  0  0  0  0  0  0
  -23.0510  -27.7780   23.3180 C   0  0  0  0  0  3  0  0  0  0  0  0
  -24.7020  -27.0530   21.5340 C   0  0  0  0  0  0  0  0  0  0  0  0
  -25.5500  -27.5020   23.8350 C   0  0  0  0  0  2  0  0  0  0  0  0
  -25.6920  -26.8110   22.4960 C   0  0  0  0  0  0  0  0  0  0  0  0
  -26.7770  -25.9500   22.1970 C   0  0  0  0  0  3  0  0  0  0  0  0
  -25.7590  -25.4670   20.0570 C   0  0  0  0  0  3  0  0  0  0  0  0
  -24.7250  -26.3750   20.3120 C   0  0  0  0  0  3  0  0  0  0  0  0
  -23.6040  -28.0240   21.8940 C   0  0  0  0  0  2  0  0  0  0  0  0
  -24.1470  -27.5820   24.3230 N   0  0  0  0  0  0  0  0  0  0  0  0
  -22.6710  -27.7360   26.0350 O   0  0  0  0  0  0  0  0  0  0  0  0
  -22.0500  -26.6010   23.2650 C   0  0  0  0  0  0  0  0  0  0  0  0
  -20.8240  -26.8790   22.7910 N   0  0  0  0  0  0  0  0  0  0  0  0
  -22.3850  -25.4670   23.6190 O   0  0  0  0  0  0  0  0  0  0  0  0
  -20.6280  -27.8350   22.5290 H   0  0  0  0  0  0  0  0  0  0  0  0
  -17.3930  -26.5530   21.7010 C   0  0  0  0  0  0  0  0  0  0  0  0
  -19.7270  -25.9260   22.6220 C   0  0  0  0  0  3  0  0  0  0  0  0
  -19.9040  -25.1000   21.3280 C   0  0  0  0  0  2  0  0  0  0  0  0
  -19.1780  -25.7050   20.1220 C   0  0  0  0  0  2  0  0  0  0  0  0
  -17.6760  -25.8230   20.3990 C   0  0  0  0  0  2  0  0  0  0  0  0
  -18.3630  -26.6140   22.7380 C   0  0  0  0  0  0  0  0  0  0  0  0
  -18.0610  -27.3340   23.9130 C   0  0  0  0  0  3  0  0  0  0  0  0
  -16.8190  -27.9770   24.0670 C   0  0  0  0  0  3  0  0  0  0  0  0
  -15.8570  -27.8990   23.0450 C   0  0  0  0  0  3  0  0  0  0  0  0
  -16.1450  -27.1880   21.8670 C   0  0  0  0  0  3  0  0  0  0  0  0
  -24.9260  -27.3380   26.7380 C   0  0  0  0  0  3  0  0  0  0  0  0
  -24.6470  -28.2740   27.8360 N   0  0  0  0  0  0  0  0  0  0  0  0
  -25.2690  -29.4500   28.0080 C   0  0  0  0  0  0  0  0  0  0  0  0
  -26.2000  -29.8250   27.2900 O   0  0  0  0  0  0  0  0  0  0  0  0
  -23.8530  -28.0610   28.4220 H   0  0  0  0  0  0  0  0  0  0  0  0
  -23.8600  -31.4460   28.6110 C   0  0  0  0  0  1  0  0  0  0  0  0
  -24.7810  -30.3470   29.1620 C   0  0  0  0  0  3  0  0  0  0  0  0
  -26.6590  -29.9970   30.7060 C   0  0  0  0  0  1  0  0  0  0  0  0
  -25.8810  -30.9630   29.9350 N   0  0  0  0  0  0  0  0  0  0  0  0
  -25.5200  -31.6650   30.5760 H   0  0  0  0  0  0  0  0  0  0  0  0
  -24.9820  -25.8540   27.2660 C   0  0  1  0  0  0  0  0  0  0  0  0
  -23.6090  -25.2990   27.7090 C   0  0  0  0  0  1  0  0  0  0  0  0
  -25.5440  -24.9060   26.1790 C   0  0  0  0  0  1  0  0  0  0  0  0
  -25.9470  -25.7660   28.4710 C   0  0  0  0  0  1  0  0  0  0  0  0
  1 60  1  0
  1  3  1  0
  1 75  1  0
  3  2  1  0
  4  3  1  0
  5  6  1  0
  5  4  1  0
  7  6  1  0
  8  7  1  0
  9  7  1  0
 11  7  1  0
 11 10  1  0
 12 11  1  0
 13 12  1  0
 14 13  1  0
 15 14  1  0
 16 15  1  0
 17 25  1  0
 18 19  1  0
 18 23  1  0
 19 20  1  0
 21 20  1  0
 21 30  1  0
 22 21  1  0
 23 22  1  0
 23 17  1  0
 24 17  2  0
 25 26  1  0
 25 16  1  0
 27 52  1  0
 28 27  2  0
 28 47  1  0
 29 28  1  0
 30 27  1  0
 31 29  2  0
 31 30  1  0
 32 29  1  0
 33 32  2  0
 34 35  2  0
 34 33  1  0
 35 36  1  0
 36 37  2  0
 37 32  1  0
 38 35  1  0
 39 38  1  0
 39 40  1  0
 41 40  2  0
 42 41  1  0
 43 44  1  0
 43 42  2  0
 44 39  2  0
 45 44  1  0
 46 42  1  0
 47 49  2  0
 48 47  1  0
 48 51  1  0
 50 48  1  0
 52 53  1  0
 54 52  1  0
 55 16  1  0
 55 56  1  0
 56 58  1  0
 57 55  2  0
 59 56  1  0
 61 60  1  0
 62 61  1  0
 63 66  1  0
 64 63  1  0
 64 68  1  0
 65 67  1  0
 66 71  1  0
 66 67  1  0
 67 61  1  0
 68 70  1  0
 68 65  1  0
 69 68  1  0
 73 74  1  0
 74 72  1  0
 74 71  1  0
 75 76  1  0
 76 77  1  0
 77 79  1  0
 78 89  2  0
 79 84  1  0
 80 90  1  0
 80 88  1  0
 81 87  1  0
 81 83  1  0
 82 88  1  0
 83 82  1  0
 84 83  2  0
 85 86  1  0
 85 79  2  0
 86 81  2  0
 87 80  1  0
 88 78  1  0
 90 92  2  0
 91 90  1  0
 93 91  1  0
 94103  2  0
 94 99  1  0
 95 99  1  0
 95 91  1  0
 96 95  1  0
 97 98  1  0
 97 96  1  0
 98 94  1  0
 99100  2  0
100101  1  0
102101  2  0
103102  1  0
104 78  1  0
104114  1  0
104105  1  0
105106  1  0
105108  1  0
106110  1  0
107106  2  0
110109  1  0
110112  1  0
112113  1  0
112111  1  0
114115  1  1
114117  1  0
116114  1  0
M  ISO  4  17 100  25 100  76 101  77 101
M  END
>  <TORSDO>  (38) 
F 35

>  <SCORE>  (38) 
29.088

>  <name>  (38) 
37

>  <ligand_id>  (38) 
37

>  <original_smiles>  (38) 
[H]c1c([H])c([H])c2c(c1[H])C([H])([H])C([H])([H])C([H])([H])C2([H])N([H])C(=O)C1([H])N(C(=O)C([H])(N([H])C(=O)C([H])(N([H])C([H])([H])[H])C([H])([H])[H])C(C([H])([H])[H])(C([H])([H])[H])C([H])([H])[H])C([H])([H])c2c([H])c(OC([H])([H])C([H])([H])C([H])(C([H])([H])N([H])C3([H])C([H])(C([H])([H])C([H])(C([H])([H])[H])C([H])([H])[H])C([H])([H])C([H])([H])[N+]([H])([H])C3([H])[H])C([H])(C([H])([H])[H])C([H])([H])C([H])([H])C([H])([H])[N+]([H])([H])C([H])(C([H])([H])[H])C([H])([H])C([H])([H])C([H])([H])C([H])([H])C([H])(C(=O)N([H])[H])N([H])C(=O)N3C([H])([H])C([H])([H])C([H])([H])C([H])(n4nc(-c5c([H])c([H])c(Oc6c([H])c([H])c(F)c([H])c6F)c([H])c5[H])c(C(=O)N([H])[H])c4N([H])[H])C3([H])[H])c([H])c([H])c2C1([H])[H]

>  <smiles>  (38) 
[H]c1c([H])c([H])c2c(c1[H])C([H])([H])C([H])([H])C([H])([H])C2([H])N([H])C(=O)C1([H])N(C(=O)C([H])(N([H])C(=O)C([H])(N([H])C([H])([H])[H])C([H])([H])[H])C(C([H])([H])[H])(C([H])([H])[H])C([H])([H])[H])C([H])([H])c2c([H])c(OC([H])([H])C([H])([H])C([H])(C([H])([H])N([H])C3([H])C([H])(C([H])([H])C([H])(C([H])([H])[H])C([H])([H])[H])C([H])([H])C([H])([H])[N+]([H])([H])C3([H])[H])C([H])(C([H])([H])[H])C([H])([H])C([H])([H])C([H])([H])[N+]([H])([H])C([H])(C([H])([H])[H])C([H])([H])C([H])([H])C([H])([H])C([H])([H])C([H])(C(=O)N([H])[H])N([H])C(=O)N3C([H])([H])C([H])([H])C([H])([H])C([H])(n4nc(-c5c([H])c([H])c(Oc6c([H])c([H])c(F)c([H])c6F)c([H])c5[H])c(C(=O)N([H])[H])c4N([H])[H])C3([H])[H])c([H])c([H])c2C1([H])[H]

$$$$
38:0:0
     RDKit          3D

102109  0  0  1  0  0  0  0  0999 V2000
  -30.6800  -17.8820   21.5230 C   0  0  0  0  0  3  0  0  0  0  0  0
  -30.4930  -17.8350   23.0040 N   0  0  0  0  0  4  0  0  0  0  0  0
  -31.1720  -18.4630   23.4050 H   0  0  0  0  0  0  0  0  0  0  0  0
  -29.5800  -18.1910   23.2360 H   0  0  0  0  0  0  0  0  0  0  0  0
  -30.6750  -16.5200   23.6700 C   0  0  0  0  0  2  0  0  0  0  0  0
  -30.7930  -16.6200   25.2030 C   0  0  0  0  0  2  0  0  0  0  0  0
  -30.8710  -15.2210   25.8440 C   0  0  0  0  0  2  0  0  0  0  0  0
  -29.6570  -15.7220   28.0430 C   0  0  0  0  0  1  0  0  0  0  0  0
  -31.2790  -13.7890   27.8670 C   0  0  0  0  0  1  0  0  0  0  0  0
  -30.9480  -15.2080   27.3830 C   0  0  0  0  0  3  0  0  0  0  0  0
  -30.9810  -19.3700   21.0410 C   0  0  0  0  0  3  0  0  0  0  0  0
  -29.8930  -20.4910   21.1420 C   0  0  0  0  0  3  0  0  0  0  0  0
  -30.3180  -21.9470   20.7470 C   0  0  0  0  0  2  0  0  0  0  0  0
  -29.1800  -22.9190   20.8120 N   0  0  0  0  0  4  0  0  0  0  0  0
  -28.8440  -22.9260   21.7620 H   0  0  0  0  0  0  0  0  0  0  0  0
  -28.4320  -22.5630   20.2330 H   0  0  0  0  0  0  0  0  0  0  0  0
  -29.4560  -24.3360   20.3950 C   0  0  0  0  0  2  0  0  0  0  0  0
  -28.2130  -25.2650   20.5800 C   0  0  0  0  0  2  0  0  0  0  0  0
  -28.3830  -26.6340   20.1270 O   0  0  0  0  0  0  0  0  0  0  0  0
  -24.6170  -31.8680   23.2100 C   0  0  0  0  0  0  0  0  0  0  0  0
  -27.2330  -27.4100   20.1110 C   0  0  0  0  0  0  0  0  0  0  0  0
  -23.4070  -30.4960   21.5490 C   0  0  0  0  0  3  0  0  0  0  0  0
  -24.8540  -28.9640   20.1110 C   0  0  0  0  0  0  0  0  0  0  0  0
  -25.9380  -30.8310   21.3660 C   0  0  0  0  0  2  0  0  0  0  0  0
  -26.0160  -29.4640   20.7110 C   0  0  0  0  0  0  0  0  0  0  0  0
  -27.2090  -28.6970   20.7060 C   0  0  0  0  0  3  0  0  0  0  0  0
  -26.0510  -26.9440   19.4840 C   0  0  0  0  0  3  0  0  0  0  0  0
  -24.8690  -27.7070   19.4910 C   0  0  0  0  0  3  0  0  0  0  0  0
  -23.6190  -29.8380   20.1590 C   0  0  0  0  0  2  0  0  0  0  0  0
  -24.6720  -31.0760   22.1010 N   0  0  0  0  0  0  0  0  0  0  0  0
  -23.5350  -32.1420   23.7500 O   0  0  0  0  0  0  0  0  0  0  0  0
  -22.7440  -29.4660   22.4960 C   0  0  0  0  0  0  0  0  0  0  0  0
  -21.4150  -29.3050   22.3730 N   0  0  0  0  0  0  0  0  0  0  0  0
  -23.4210  -28.8170   23.2960 O   0  0  0  0  0  0  0  0  0  0  0  0
  -20.9310  -29.8800   21.6980 H   0  0  0  0  0  0  0  0  0  0  0  0
  -18.0290  -28.1430   22.8540 C   0  0  0  0  0  0  0  0  0  0  0  0
  -20.5890  -28.3680   23.1350 C   0  0  0  0  0  3  0  0  0  0  0  0
  -20.6770  -26.9420   22.5450 C   0  0  0  0  0  2  0  0  0  0  0  0
  -19.5730  -26.6400   21.5260 C   0  0  0  0  0  2  0  0  0  0  0  0
  -18.1910  -26.7980   22.1660 C   0  0  0  0  0  2  0  0  0  0  0  0
  -19.1540  -28.8870   23.2940 C   0  0  0  0  0  0  0  0  0  0  0  0
  -18.9480  -30.1490   23.8930 C   0  0  0  0  0  3  0  0  0  0  0  0
  -17.6480  -30.6640   24.0600 C   0  0  0  0  0  3  0  0  0  0  0  0
  -16.5350  -29.9150   23.6350 C   0  0  0  0  0  3  0  0  0  0  0  0
  -16.7280  -28.6570   23.0350 C   0  0  0  0  0  3  0  0  0  0  0  0
  -25.9030  -32.4840   23.8370 C   0  0  0  0  0  3  0  0  0  0  0  0
  -25.5870  -33.8640   24.2300 N   0  0  0  0  0  0  0  0  0  0  0  0
  -25.9020  -34.9490   23.5120 C   0  0  0  0  0  0  0  0  0  0  0  0
  -26.5590  -34.8960   22.4690 O   0  0  0  0  0  0  0  0  0  0  0  0
  -25.0070  -33.9790   25.0500 H   0  0  0  0  0  0  0  0  0  0  0  0
  -24.1450  -36.7250   23.2650 C   0  0  0  0  0  1  0  0  0  0  0  0
  -25.4100  -36.3110   24.0350 C   0  0  0  0  0  3  0  0  0  0  0  0
  -27.5560  -37.1790   24.8490 C   0  0  0  0  0  1  0  0  0  0  0  0
  -26.4270  -37.3800   23.9430 N   0  0  0  0  0  0  0  0  0  0  0  0
  -26.0160  -38.2850   24.1530 H   0  0  0  0  0  0  0  0  0  0  0  0
  -26.4460  -31.6650   25.0710 C   0  0  1  0  0  0  0  0  0  0  0  0
  -25.3710  -31.3790   26.1440 C   0  0  0  0  0  1  0  0  0  0  0  0
  -27.0310  -30.3110   24.6110 C   0  0  0  0  0  1  0  0  0  0  0  0
  -27.6020  -32.4390   25.7460 C   0  0  0  0  0  1  0  0  0  0  0  0
  -29.6400  -16.9910   20.7020 C   0  0  2  0  0  0  0  0  0  0  0  0
  -30.6430  -14.5510   20.5250 C   0  0  0  0  0  0  0  0  0  0  0  0
  -30.4510  -12.3390   19.4330 C   0  0  0  0  0  2  0  0  0  0  0  0
  -29.5090  -12.4720   18.2150 C   0  0  0  0  0  2  0  0  0  0  0  0
  -28.0240  -12.3510   18.6250 C   0  0  0  0  0  2  0  0  0  0  0  0
  -27.6610  -13.1970   19.8740 C   0  0  0  0  0  3  0  0  0  0  0  0
  -28.7110  -12.9970   20.9930 C   0  0  0  0  0  2  0  0  0  0  0  0
  -30.0400  -13.3310   20.4380 N   0  0  0  0  0  0  0  0  0  0  0  0
  -31.7740  -14.7810   20.0900 O   0  0  0  0  0  0  0  0  0  0  0  0
  -29.8030  -15.5240   20.9480 N   0  0  0  0  0  0  0  0  0  0  0  0
  -28.9630  -15.1080   21.3160 H   0  0  0  0  0  0  0  0  0  0  0  0
  -25.2500  -13.8040   20.5590 C   0  0  0  0  0  0  0  0  0  0  0  0
  -24.1800  -13.0340   20.9190 C   0  0  0  0  0  0  0  0  0  0  0  0
  -24.6380  -11.6830   20.8780 C   0  0  0  0  0  0  0  0  0  0  0  0
  -26.3000  -12.9250   20.3370 N   0  0  0  0  0  0  0  0  0  0  0  0
  -25.9310  -11.6430   20.5820 N   0  0  0  0  0  0  0  0  0  0  0  0
  -23.9050  -10.4240   21.0420 C   0  0  0  0  0  0  0  0  0  0  0  0
  -24.3590   -9.4160   21.9200 C   0  0  0  0  0  3  0  0  0  0  0  0
  -23.6260   -8.2200   22.0760 C   0  0  0  0  0  3  0  0  0  0  0  0
  -22.4260   -8.0250   21.3530 C   0  0  0  0  0  0  0  0  0  0  0  0
  -21.9890   -9.0230   20.4650 C   0  0  0  0  0  3  0  0  0  0  0  0
  -22.7220  -10.2100   20.3060 C   0  0  0  0  0  3  0  0  0  0  0  0
  -21.6620   -6.8850   21.4230 O   0  0  0  0  0  0  0  0  0  0  0  0
  -21.6840   -6.0720   22.5270 C   0  0  0  0  0  0  0  0  0  0  0  0
  -21.4000   -6.5630   23.8200 C   0  0  0  0  0  3  0  0  0  0  0  0
  -21.3660   -5.6780   24.9180 C   0  0  0  0  0  3  0  0  0  0  0  0
  -21.6050   -4.3050   24.7220 C   0  0  0  0  0  0  0  0  0  0  0  0
  -21.8820   -3.8130   23.4340 C   0  0  0  0  0  3  0  0  0  0  0  0
  -21.9190   -4.6950   22.3400 C   0  0  0  0  0  0  0  0  0  0  0  0
  -22.1660   -4.2140   21.0980 F   0  0  0  0  0  0  0  0  0  0  0  0
  -21.5640   -3.4530   25.7740 F   0  0  0  0  0  0  0  0  0  0  0  0
  -22.7820  -13.5170   21.1830 C   0  0  0  0  0  0  0  0  0  0  0  0
  -22.0450  -12.8200   22.0400 N   0  0  0  0  0  0  0  0  0  0  0  0
  -22.3530  -14.5490   20.6690 O   0  0  0  0  0  0  0  0  0  0  0  0
  -22.4030  -11.9880   22.4850 H   0  0  0  0  0  0  0  0  0  0  0  0
  -21.1050  -13.1240   22.2540 H   0  0  0  0  0  0  0  0  0  0  0  0
  -25.3970  -15.1730   20.3800 N   0  0  0  0  0  0  0  0  0  0  0  0
  -24.6080  -15.8040   20.4660 H   0  0  0  0  0  0  0  0  0  0  0  0
  -26.2180  -15.6150   19.9930 H   0  0  0  0  0  0  0  0  0  0  0  0
  -28.8230  -16.5260   18.2310 C   0  0  0  0  0  1  0  0  0  0  0  0
  -29.7650  -17.2950   19.1750 C   0  0  0  0  0  2  0  0  0  0  0  0
  -27.3340  -18.4170   20.7920 C   0  0  0  0  0  1  0  0  0  0  0  0
  -28.1530  -17.1740   21.1680 C   0  0  0  0  0  2  0  0  0  0  0  0
  1 11  1  0
  1  2  1  0
  2  4  1  0
  2  3  1  0
  2  5  1  0
  5  6  1  0
  6  7  1  0
  7 10  1  0
 10  9  1  0
 10  8  1  0
 11 12  2  0
 13 14  1  0
 13 12  1  0
 14 15  1  0
 16 14  1  0
 17 18  1  0
 17 14  1  0
 19 18  1  0
 20 31  2  0
 21 19  1  0
 21 26  1  0
 22 30  1  0
 22 32  1  0
 23 29  1  0
 23 25  1  0
 24 30  1  0
 25 24  1  0
 26 25  2  0
 27 28  1  0
 27 21  2  0
 28 23  2  0
 29 22  1  0
 30 20  1  0
 32 34  2  0
 33 32  1  0
 35 33  1  0
 36 45  2  0
 36 41  1  0
 37 33  1  0
 37 41  1  0
 38 37  1  0
 39 40  1  0
 39 38  1  0
 40 36  1  0
 41 42  2  0
 42 43  1  0
 44 43  2  0
 45 44  1  0
 46 20  1  0
 46 47  1  0
 46 56  1  0
 47 50  1  0
 48 52  1  0
 48 47  1  0
 49 48  2  0
 52 51  1  0
 54 52  1  0
 54 55  1  0
 54 53  1  0
 56 59  1  1
 56 57  1  0
 58 56  1  0
 60 69  1  0
 60102  1  1
 60  1  1  0
 61 69  1  0
 62 67  1  0
 63 64  1  0
 63 62  1  0
 65 64  1  0
 65 74  1  0
 65 66  1  0
 67 61  1  0
 67 66  1  0
 68 61  2  0
 69 70  1  0
 71 72  2  0
 72 91  1  0
 73 72  1  0
 73 76  1  0
 74 71  1  0
 74 75  1  0
 75 73  2  0
 76 77  1  0
 77 78  2  0
 79 82  1  0
 79 78  1  0
 80 79  2  0
 81 80  1  0
 81 76  2  0
 82 83  1  0
 83 84  1  0
 84 85  2  0
 86 85  1  0
 86 90  1  0
 87 86  2  0
 88 83  2  0
 88 87  1  0
 89 88  1  0
 91 92  1  0
 92 95  1  0
 92 94  1  0
 93 91  2  0
 96 97  1  0
 96 71  1  0
 98 96  1  0
 99100  1  0
100 60  1  0
101102  1  0
M  ISO  4  18 101  19 101  61 100  69 100
M  END
>  <TORSDO>  (39) 
F 30

>  <SCORE>  (39) 
26.469

>  <name>  (39) 
38

>  <ligand_id>  (39) 
38

>  <original_smiles>  (39) 
[H]c1c([H])c([H])c2c(c1[H])C([H])([H])C([H])([H])C([H])([H])C2([H])N([H])C(=O)C1([H])N(C(=O)C([H])(N([H])C(=O)C([H])(N([H])C([H])([H])[H])C([H])([H])[H])C(C([H])([H])[H])(C([H])([H])[H])C([H])([H])[H])C([H])([H])c2c([H])c(OC([H])([H])C([H])([H])[N+]([H])([H])C([H])([H])C([H])([H])C([H])([H])C([H])(C(N([H])C(=O)N3C([H])([H])C([H])([H])C([H])([H])C([H])(n4nc(-c5c([H])c([H])c(Oc6c([H])c([H])c(F)c([H])c6F)c([H])c5[H])c(C(=O)N([H])[H])c4N([H])[H])C3([H])[H])(C([H])([H])C([H])([H])[H])C([H])([H])C([H])([H])[H])[N+]([H])([H])C([H])([H])C([H])([H])C([H])([H])C([H])(C([H])([H])[H])C([H])([H])[H])c([H])c([H])c2C1([H])[H]

>  <smiles>  (39) 
[H]c1c([H])c([H])c2c(c1[H])C([H])([H])C([H])([H])C([H])([H])C2([H])N([H])C(=O)C1([H])N(C(=O)C([H])(N([H])C(=O)C([H])(N([H])C([H])([H])[H])C([H])([H])[H])C(C([H])([H])[H])(C([H])([H])[H])C([H])([H])[H])C([H])([H])c2c([H])c(OC([H])([H])C([H])([H])[N+]([H])([H])C([H])([H])C([H])([H])C([H])([H])C([H])(C(N([H])C(=O)N3C([H])([H])C([H])([H])C([H])([H])C([H])(n4nc(-c5c([H])c([H])c(Oc6c([H])c([H])c(F)c([H])c6F)c([H])c5[H])c(C(=O)N([H])[H])c4N([H])[H])C3([H])[H])(C([H])([H])C([H])([H])[H])C([H])([H])C([H])([H])[H])[N+]([H])([H])C([H])([H])C([H])([H])C([H])([H])C([H])(C([H])([H])[H])C([H])([H])[H])c([H])c([H])c2C1([H])[H]

$$$$
39:0:0
     RDKit          3D

 91 99  0  0  1  0  0  0  0  0999 V2000
  -29.7960  -18.8910   20.2780 C   0  0  0  0  0  0  0  0  0  0  0  0
  -30.3360  -15.7590   20.2540 C   0  0  0  0  0  0  0  0  0  0  0  0
  -30.4510  -13.2120   19.4660 C   0  0  0  0  0  2  0  0  0  0  0  0
  -29.5690  -12.7860   18.2590 C   0  0  0  0  0  2  0  0  0  0  0  0
  -28.1520  -12.4170   18.7180 C   0  0  0  0  0  2  0  0  0  0  0  0
  -27.6230  -13.4250   19.7630 C   0  0  0  0  0  3  0  0  0  0  0  0
  -28.6460  -13.7720   20.8710 C   0  0  0  0  0  2  0  0  0  0  0  0
  -29.8140  -14.3940   20.2040 N   0  0  0  0  0  0  0  0  0  0  0  0
  -31.5680  -15.7000   20.0940 O   0  0  0  0  0  0  0  0  0  0  0  0
  -29.5780  -17.1220   20.2940 N   0  0  0  0  0  4  0  0  0  0  0  0
  -28.5910  -16.9120   20.3610 H   0  0  0  0  0  0  0  0  0  0  0  0
  -25.2580  -13.9250   20.5400 C   0  0  0  0  0  0  0  0  0  0  0  0
  -24.2070  -13.1310   20.9030 C   0  0  0  0  0  0  0  0  0  0  0  0
  -24.6940  -11.7870   20.8600 C   0  0  0  0  0  0  0  0  0  0  0  0
  -26.3120  -13.0680   20.2870 N   0  0  0  0  0  0  0  0  0  0  0  0
  -25.9880  -11.7730   20.5460 N   0  0  0  0  0  0  0  0  0  0  0  0
  -23.9830  -10.5140   21.0410 C   0  0  0  0  0  0  0  0  0  0  0  0
  -24.4200   -9.5480   21.9750 C   0  0  0  0  0  3  0  0  0  0  0  0
  -23.7060   -8.3430   22.1460 C   0  0  0  0  0  3  0  0  0  0  0  0
  -22.5380   -8.0950   21.3850 C   0  0  0  0  0  0  0  0  0  0  0  0
  -22.1200   -9.0490   20.4420 C   0  0  0  0  0  3  0  0  0  0  0  0
  -22.8350  -10.2470   20.2690 C   0  0  0  0  0  3  0  0  0  0  0  0
  -21.7950   -6.9430   21.4680 O   0  0  0  0  0  0  0  0  0  0  0  0
  -21.7330   -6.2060   22.6240 C   0  0  0  0  0  0  0  0  0  0  0  0
  -21.2710   -6.7600   23.8370 C   0  0  0  0  0  3  0  0  0  0  0  0
  -21.1580   -5.9480   24.9840 C   0  0  0  0  0  3  0  0  0  0  0  0
  -21.4970   -4.5830   24.9170 C   0  0  0  0  0  0  0  0  0  0  0  0
  -21.9500   -4.0280   23.7080 C   0  0  0  0  0  3  0  0  0  0  0  0
  -22.0650   -4.8370   22.5640 C   0  0  0  0  0  0  0  0  0  0  0  0
  -22.4820   -4.2920   21.3960 F   0  0  0  0  0  0  0  0  0  0  0  0
  -21.3810   -3.8010   26.0170 F   0  0  0  0  0  0  0  0  0  0  0  0
  -22.8040  -13.5880   21.1700 C   0  0  0  0  0  0  0  0  0  0  0  0
  -22.0840  -12.8830   22.0340 N   0  0  0  0  0  0  0  0  0  0  0  0
  -22.3540  -14.6070   20.6450 O   0  0  0  0  0  0  0  0  0  0  0  0
  -22.4640  -12.0620   22.4830 H   0  0  0  0  0  0  0  0  0  0  0  0
  -21.1400  -13.1680   22.2540 H   0  0  0  0  0  0  0  0  0  0  0  0
  -25.4000  -15.2990   20.3680 N   0  0  0  0  0  0  0  0  0  0  0  0
  -24.6220  -15.9400   20.4780 H   0  0  0  0  0  0  0  0  0  0  0  0
  -26.2360  -15.7490   20.0180 H   0  0  0  0  0  0  0  0  0  0  0  0
  -28.7230  -20.5170   20.2910 C   0  0  0  0  0  2  0  0  0  0  0  0
  -28.9270  -22.3790   20.3910 C   0  0  0  0  0  0  0  0  0  0  0  0
  -30.0730  -22.6900   20.7220 O   0  0  0  0  0  0  0  0  0  0  0  0
  -27.8640  -23.8930   20.1540 C   0  0  0  0  0  2  0  0  0  0  0  0
  -28.0930  -25.6310   20.3090 O   0  0  0  0  0  0  0  0  0  0  0  0
  -24.6090  -31.9300   23.2090 C   0  0  0  0  0  0  0  0  0  0  0  0
  -27.1200  -26.8400   20.2400 C   0  0  0  0  0  0  0  0  0  0  0  0
  -23.4050  -30.5160   21.5970 C   0  0  0  0  0  3  0  0  0  0  0  0
  -24.8430  -28.8600   20.1840 C   0  0  0  0  0  0  0  0  0  0  0  0
  -25.9830  -30.6650   21.4460 C   0  0  0  0  0  2  0  0  0  0  0  0
  -26.0440  -29.2280   20.8020 C   0  0  0  0  0  0  0  0  0  0  0  0
  -27.1670  -28.2470   20.7970 C   0  0  0  0  0  3  0  0  0  0  0  0
  -25.8840  -26.6790   19.5640 C   0  0  0  0  0  3  0  0  0  0  0  0
  -24.8020  -27.6110   19.5390 C   0  0  0  0  0  3  0  0  0  0  0  0
  -23.6320  -29.8060   20.2300 C   0  0  0  0  0  2  0  0  0  0  0  0
  -24.6910  -31.0710   22.1350 N   0  0  0  0  0  0  0  0  0  0  0  0
  -23.5200  -32.2340   23.7270 O   0  0  0  0  0  0  0  0  0  0  0  0
  -22.7000  -29.5470   22.5840 C   0  0  0  0  0  0  0  0  0  0  0  0
  -21.3700  -29.3740   22.4570 N   0  0  0  0  0  0  0  0  0  0  0  0
  -23.3610  -28.9490   23.4360 O   0  0  0  0  0  0  0  0  0  0  0  0
  -20.8870  -29.9040   21.7460 H   0  0  0  0  0  0  0  0  0  0  0  0
  -18.0010  -28.1150   22.9710 C   0  0  0  0  0  0  0  0  0  0  0  0
  -20.5530  -28.4430   23.2450 C   0  0  0  0  0  3  0  0  0  0  0  0
  -20.6870  -26.9970   22.7090 C   0  0  0  0  0  2  0  0  0  0  0  0
  -19.6010  -26.6280   21.6930 C   0  0  0  0  0  2  0  0  0  0  0  0
  -18.2110  -26.7570   22.3220 C   0  0  0  0  0  2  0  0  0  0  0  0
  -19.0990  -28.9140   23.3890 C   0  0  0  0  0  0  0  0  0  0  0  0
  -18.8450  -30.1790   23.9610 C   0  0  0  0  0  3  0  0  0  0  0  0
  -17.5260  -30.6480   24.1140 C   0  0  0  0  0  3  0  0  0  0  0  0
  -16.4420  -29.8490   23.7070 C   0  0  0  0  0  3  0  0  0  0  0  0
  -16.6810  -28.5840   23.1430 C   0  0  0  0  0  3  0  0  0  0  0  0
  -25.8760  -32.5860   23.8330 C   0  0  0  0  0  3  0  0  0  0  0  0
  -25.5560  -33.9910   24.1580 N   0  0  0  0  0  0  0  0  0  0  0  0
  -25.8980  -35.0530   23.4160 C   0  0  0  0  0  0  0  0  0  0  0  0
  -26.5720  -34.9530   22.3880 O   0  0  0  0  0  0  0  0  0  0  0  0
  -24.9560  -34.1390   24.9560 H   0  0  0  0  0  0  0  0  0  0  0  0
  -24.1830  -36.8690   23.0730 C   0  0  0  0  0  1  0  0  0  0  0  0
  -25.4180  -36.4440   23.8840 C   0  0  0  0  0  3  0  0  0  0  0  0
  -27.5540  -37.3170   24.7290 C   0  0  0  0  0  1  0  0  0  0  0  0
  -26.4570  -37.4930   23.7820 N   0  0  0  0  0  0  0  0  0  0  0  0
  -26.0560  -38.4140   23.9310 H   0  0  0  0  0  0  0  0  0  0  0  0
  -26.3840  -31.8400   25.1290 C   0  0  1  0  0  0  0  0  0  0  0  0
  -25.2880  -31.6290   26.2000 C   0  0  0  0  0  1  0  0  0  0  0  0
  -26.9640  -30.4510   24.7800 C   0  0  0  0  0  1  0  0  0  0  0  0
  -27.5350  -32.6440   25.7800 C   0  0  0  0  0  1  0  0  0  0  0  0
  -30.9860  -19.1210   21.2480 C   0  0  0  0  0  2  0  0  0  0  0  0
  -34.8490  -21.0930   20.2470 C   0  0  0  0  0  2  0  0  0  0  0  0
  -33.5800  -21.4810   19.4720 C   0  0  0  0  0  2  0  0  0  0  0  0
  -34.8470  -19.6010   20.6200 C   0  0  0  0  0  2  0  0  0  0  0  0
  -32.3060  -21.0500   20.2140 C   0  0  0  0  0  2  0  0  0  0  0  0
  -33.5630  -19.2000   21.3710 C   0  0  0  0  0  2  0  0  0  0  0  0
  -32.3050  -19.5450   20.5480 C   0  0  0  0  0  3  0  0  0  0  0  0
  1 40  1  0
  1 10  2  0
  1 85  1  0
  2 10  1  0
  3  8  1  0
  4  5  1  0
  4  3  1  0
  6  5  1  0
  6 15  1  0
  6  7  1  0
  8  2  1  0
  8  7  1  0
  9  2  2  0
 10 11  1  0
 12 13  2  0
 13 32  1  0
 14 13  1  0
 14 17  1  0
 15 12  1  0
 15 16  1  0
 16 14  2  0
 17 18  1  0
 18 19  2  0
 20 23  1  0
 20 19  1  0
 21 20  2  0
 22 21  1  0
 22 17  2  0
 23 24  1  0
 24 25  1  0
 25 26  2  0
 27 26  1  0
 27 31  1  0
 28 27  2  0
 29 24  2  0
 29 28  1  0
 30 29  1  0
 32 33  1  0
 33 36  1  0
 33 35  1  0
 34 32  2  0
 37 38  1  0
 37 12  1  0
 39 37  1  0
 40 41  1  0
 41 42  2  0
 43 44  1  0
 43 41  1  0
 45 56  2  0
 46 44  1  0
 46 51  1  0
 47 55  1  0
 47 57  1  0
 48 54  1  0
 48 50  1  0
 49 55  1  0
 50 49  1  0
 51 50  2  0
 52 46  2  0
 53 52  1  0
 53 48  2  0
 54 47  1  0
 55 45  1  0
 57 59  2  0
 58 57  1  0
 60 58  1  0
 61 70  2  0
 61 66  1  0
 62 58  1  0
 62 66  1  0
 63 62  1  0
 64 65  1  0
 64 63  1  0
 65 61  1  0
 66 67  2  0
 67 68  1  0
 69 68  2  0
 70 69  1  0
 71 45  1  0
 71 72  1  0
 71 81  1  0
 72 75  1  0
 73 77  1  0
 73 72  1  0
 74 73  2  0
 77 76  1  0
 79 77  1  0
 79 80  1  0
 79 78  1  0
 81 84  1  1
 81 82  1  0
 83 81  1  0
 86 88  1  0
 87 89  1  0
 87 86  1  0
 88 90  1  0
 89 91  1  0
 91 85  1  0
 91 90  1  0
M  ISO  4   2 100  10 100  43 101  44 101
M  END
>  <TORSDO>  (40) 
F 21

>  <SCORE>  (40) 
-16.045

>  <name>  (40) 
39

>  <ligand_id>  (40) 
39

>  <original_smiles>  (40) 
[H]c1c([H])c([H])c2c(c1[H])C([H])([H])C([H])([H])C([H])([H])C2([H])N([H])C(=O)C1([H])N(C(=O)C([H])(N([H])C(=O)C([H])(N([H])C([H])([H])[H])C([H])([H])[H])C(C([H])([H])[H])(C([H])([H])[H])C([H])([H])[H])C([H])([H])c2c([H])c(OC([H])([H])C(=O)C([H])([H])C([H])(N([H])C(=O)N3C([H])([H])C([H])([H])C([H])([H])C([H])(n4nc(-c5c([H])c([H])c(Oc6c([H])c([H])c(F)c([H])c6F)c([H])c5[H])c(C(=O)N([H])[H])c4N([H])[H])C3([H])[H])C([H])([H])C3([H])C([H])([H])C([H])([H])C([H])([H])C([H])([H])C3([H])[H])c([H])c([H])c2C1([H])[H]

>  <smiles>  (40) 
[H]c1c([H])c([H])c2c(c1[H])C([H])([H])C([H])([H])C([H])([H])C2([H])N([H])C(=O)C1([H])N(C(=O)C([H])(N([H])C(=O)C([H])(N([H])C([H])([H])[H])C([H])([H])[H])C(C([H])([H])[H])(C([H])([H])[H])C([H])([H])[H])C([H])([H])c2c([H])c(OC([H])([H])C(=O)C([H])([H])C([H])(N([H])C(=O)N3C([H])([H])C([H])([H])C([H])([H])C([H])(n4nc(-c5c([H])c([H])c(Oc6c([H])c([H])c(F)c([H])c6F)c([H])c5[H])c(C(=O)N([H])[H])c4N([H])[H])C3([H])[H])C([H])([H])C3([H])C([H])([H])C([H])([H])C([H])([H])C([H])([H])C3([H])[H])c([H])c([H])c2C1([H])[H]

$$$$
40:0:0
     RDKit          3D

 96103  0  0  1  0  0  0  0  0999 V2000
  -29.2480  -20.5910   20.5780 C   0  0  0  0  0  3  0  0  0  0  0  0
  -30.0890  -21.3010   21.6610 C   0  0  0  0  0  0  0  0  0  0  0  0
  -29.4270  -21.8920   22.6610 N   0  0  0  0  0  0  0  0  0  0  0  0
  -31.3160  -21.3590   21.5520 O   0  0  0  0  0  0  0  0  0  0  0  0
  -28.4220  -21.7840   22.6820 H   0  0  0  0  0  0  0  0  0  0  0  0
  -30.0010  -22.8380   23.6160 C   0  0  0  0  0  2  0  0  0  0  0  0
  -30.5040  -23.1560   26.0500 C   0  0  0  0  0  1  0  0  0  0  0  0
  -29.7600  -20.9040   25.2420 C   0  0  0  0  0  1  0  0  0  0  0  0
  -32.0500  -21.7560   24.6560 C   0  0  0  0  0  1  0  0  0  0  0  0
  -30.5800  -22.1580   24.8800 C   0  0  1  0  0  0  0  0  0  0  0  0
  -29.9660  -19.2730   20.1300 C   0  0  0  0  0  2  0  0  0  0  0  0
  -29.1550  -17.9440   20.1210 C   0  0  0  0  0  2  0  0  0  0  0  0
  -30.1320  -16.7460   19.9790 C   0  0  0  0  0  2  0  0  0  0  0  0
  -30.2960  -14.3010   19.8000 C   0  0  0  0  0  0  0  0  0  0  0  0
  -30.0380  -12.0340   18.8810 C   0  0  0  0  0  2  0  0  0  0  0  0
  -29.0130  -12.0690   17.7300 C   0  0  0  0  0  2  0  0  0  0  0  0
  -27.5850  -11.8730   18.2750 C   0  0  0  0  0  2  0  0  0  0  0  0
  -27.2720  -12.7960   19.4850 C   0  0  0  0  0  3  0  0  0  0  0  0
  -28.4140  -12.7750   20.5270 C   0  0  0  0  0  2  0  0  0  0  0  0
  -29.6670  -13.0960   19.8320 N   0  0  0  0  0  0  0  0  0  0  0  0
  -31.3880  -14.4560   19.2460 O   0  0  0  0  0  0  0  0  0  0  0  0
  -29.6140  -15.3850   20.2310 N   0  0  0  0  0  0  0  0  0  0  0  0
  -28.6980  -15.2630   20.6390 H   0  0  0  0  0  0  0  0  0  0  0  0
  -24.9420  -13.3120   20.4430 C   0  0  0  0  0  0  0  0  0  0  0  0
  -23.9370  -12.4990   20.8930 C   0  0  0  0  0  0  0  0  0  0  0  0
  -24.4280  -11.1620   20.7770 C   0  0  0  0  0  0  0  0  0  0  0  0
  -25.9830  -12.4680   20.0870 N   0  0  0  0  0  0  0  0  0  0  0  0
  -25.6830  -11.1680   20.3470 N   0  0  0  0  0  0  0  0  0  0  0  0
  -23.7570   -9.8740   20.9980 C   0  0  0  0  0  0  0  0  0  0  0  0
  -24.1490   -9.0060   22.0400 C   0  0  0  0  0  3  0  0  0  0  0  0
  -23.4760   -7.7830   22.2440 C   0  0  0  0  0  3  0  0  0  0  0  0
  -22.3960   -7.4180   21.4060 C   0  0  0  0  0  0  0  0  0  0  0  0
  -22.0250   -8.2760   20.3550 C   0  0  0  0  0  3  0  0  0  0  0  0
  -22.6990   -9.4910   20.1490 C   0  0  0  0  0  3  0  0  0  0  0  0
  -21.6990   -6.2380   21.5130 O   0  0  0  0  0  0  0  0  0  0  0  0
  -21.3780   -5.7010   22.7330 C   0  0  0  0  0  0  0  0  0  0  0  0
  -20.5320   -6.3710   23.6440 C   0  0  0  0  0  3  0  0  0  0  0  0
  -20.1730   -5.7530   24.8580 C   0  0  0  0  0  3  0  0  0  0  0  0
  -20.6490   -4.4620   25.1590 C   0  0  0  0  0  0  0  0  0  0  0  0
  -21.4860   -3.7900   24.2500 C   0  0  0  0  0  3  0  0  0  0  0  0
  -21.8480   -4.4070   23.0400 C   0  0  0  0  0  0  0  0  0  0  0  0
  -22.6380   -3.7470   22.1590 F   0  0  0  0  0  0  0  0  0  0  0  0
  -20.2970   -3.8630   26.3200 F   0  0  0  0  0  0  0  0  0  0  0  0
  -22.5600  -12.9280   21.3120 C   0  0  0  0  0  0  0  0  0  0  0  0
  -21.9370  -12.1890   22.2220 N   0  0  0  0  0  0  0  0  0  0  0  0
  -22.0470  -13.9550   20.8670 O   0  0  0  0  0  0  0  0  0  0  0  0
  -22.3700  -11.3590   22.6010 H   0  0  0  0  0  0  0  0  0  0  0  0
  -21.0180  -12.4560   22.5430 H   0  0  0  0  0  0  0  0  0  0  0  0
  -25.0530  -14.6900   20.2880 N   0  0  0  0  0  0  0  0  0  0  0  0
  -24.2840  -15.3200   20.4900 H   0  0  0  0  0  0  0  0  0  0  0  0
  -25.8540  -15.1610   19.8850 H   0  0  0  0  0  0  0  0  0  0  0  0
  -28.9980  -21.5970   19.4080 C   0  0  0  0  0  2  0  0  0  0  0  0
  -28.0170  -22.7620   19.7440 C   0  0  0  0  0  2  0  0  0  0  0  0
  -28.1320  -24.0310   18.8620 C   0  0  0  0  0  2  0  0  0  0  0  0
  -27.5390  -25.2720   19.5690 C   0  0  0  0  0  2  0  0  0  0  0  0
  -27.5700  -26.4620   18.7690 O   0  0  0  0  0  0  0  0  0  0  0  0
  -24.6730  -31.3610   23.0630 C   0  0  0  0  0  0  0  0  0  0  0  0
  -26.5270  -27.3260   19.0090 C   0  0  0  0  0  0  0  0  0  0  0  0
  -23.1970  -30.4500   21.2980 C   0  0  0  0  0  3  0  0  0  0  0  0
  -24.3520  -29.0570   19.4990 C   0  0  0  0  0  0  0  0  0  0  0  0
  -25.7310  -30.5500   20.9560 C   0  0  0  0  0  2  0  0  0  0  0  0
  -25.6020  -29.3270   20.0710 C   0  0  0  0  0  0  0  0  0  0  0  0
  -26.6990  -28.4690   19.8200 C   0  0  0  0  0  3  0  0  0  0  0  0
  -25.2640  -27.0700   18.4350 C   0  0  0  0  0  3  0  0  0  0  0  0
  -24.1770  -27.9280   18.6790 C   0  0  0  0  0  3  0  0  0  0  0  0
  -23.2330  -30.0270   19.8060 C   0  0  0  0  0  2  0  0  0  0  0  0
  -24.5570  -30.7880   21.8310 N   0  0  0  0  0  0  0  0  0  0  0  0
  -23.6700  -31.6460   23.7330 O   0  0  0  0  0  0  0  0  0  0  0  0
  -22.4810  -29.3440   22.1070 C   0  0  0  0  0  0  0  0  0  0  0  0
  -21.1380  -29.3600   22.0810 N   0  0  0  0  0  0  0  0  0  0  0  0
  -23.1260  -28.4860   22.7130 O   0  0  0  0  0  0  0  0  0  0  0  0
  -20.6830  -30.1020   21.5700 H   0  0  0  0  0  0  0  0  0  0  0  0
  -17.6760  -28.5740   22.7540 C   0  0  0  0  0  0  0  0  0  0  0  0
  -20.2540  -28.3950   22.7360 C   0  0  0  0  0  3  0  0  0  0  0  0
  -20.0590  -27.1350   21.8610 C   0  0  0  0  0  2  0  0  0  0  0  0
  -18.8260  -27.2150   20.9560 C   0  0  0  0  0  2  0  0  0  0  0  0
  -17.5570  -27.4040   21.7920 C   0  0  0  0  0  2  0  0  0  0  0  0
  -18.9430  -29.0490   23.1850 C   0  0  0  0  0  0  0  0  0  0  0  0
  -18.9990  -30.1610   24.0530 C   0  0  0  0  0  3  0  0  0  0  0  0
  -17.8190  -30.7930   24.4910 C   0  0  0  0  0  3  0  0  0  0  0  0
  -16.5670  -30.3090   24.0730 C   0  0  0  0  0  3  0  0  0  0  0  0
  -16.4970  -29.2010   23.2110 C   0  0  0  0  0  3  0  0  0  0  0  0
  -26.0650  -31.7080   23.6770 C   0  0  0  0  0  3  0  0  0  0  0  0
  -26.5890  -30.6150   24.6870 C   0  0  1  0  0  0  0  0  0  0  0  0
  -25.5610  -30.2300   25.7750 C   0  0  0  0  0  1  0  0  0  0  0  0
  -26.9890  -29.3230   23.9350 C   0  0  0  0  0  1  0  0  0  0  0  0
  -27.8650  -31.1270   25.3960 C   0  0  0  0  0  1  0  0  0  0  0  0
  -25.9430  -33.0140   24.3390 N   0  0  0  0  0  0  0  0  0  0  0  0
  -26.3700  -34.1730   23.8200 C   0  0  0  0  0  0  0  0  0  0  0  0
  -26.9790  -34.2430   22.7500 O   0  0  0  0  0  0  0  0  0  0  0  0
  -25.4040  -33.0400   25.1930 H   0  0  0  0  0  0  0  0  0  0  0  0
  -24.8730  -36.1870   23.9880 C   0  0  0  0  0  1  0  0  0  0  0  0
  -26.0730  -35.4590   24.6150 C   0  0  0  0  0  3  0  0  0  0  0  0
  -28.3140  -35.8720   25.5270 C   0  0  0  0  0  1  0  0  0  0  0  0
  -27.2270  -36.3800   24.6950 N   0  0  0  0  0  0  0  0  0  0  0  0
  -26.9420  -37.2840   25.0620 H   0  0  0  0  0  0  0  0  0  0  0  0
  1 52  1  0
  1  2  1  0
  2  3  1  0
  3  5  1  0
  3  6  1  0
  4  2  2  0
  6 10  1  0
 10  9  1  6
 10  8  1  0
 10  7  1  0
 11  1  1  0
 12 11  1  0
 13 12  1  0
 13 22  1  0
 14 20  1  0
 14 22  1  0
 15 20  1  0
 16 17  1  0
 16 15  1  0
 18 17  1  0
 18 27  1  0
 18 19  1  0
 20 19  1  0
 21 14  2  0
 22 23  1  0
 24 25  2  0
 25 44  1  0
 26 25  1  0
 26 29  1  0
 27 28  1  0
 27 24  1  0
 28 26  2  0
 29 30  1  0
 30 31  2  0
 32 35  1  0
 32 31  1  0
 33 32  2  0
 34 33  1  0
 34 29  2  0
 35 36  1  0
 36 41  2  0
 36 37  1  0
 37 38  2  0
 38 39  1  0
 39 43  1  0
 40 39  2  0
 41 40  1  0
 42 41  1  0
 44 45  1  0
 45 48  1  0
 45 47  1  0
 46 44  2  0
 49 24  1  0
 49 50  1  0
 51 49  1  0
 52 53  1  0
 54 55  1  0
 54 53  1  0
 56 58  1  0
 56 55  1  0
 57 68  2  0
 58 63  1  0
 59 67  1  0
 59 69  1  0
 60 66  1  0
 60 62  1  0
 61 67  1  0
 62 61  1  0
 63 62  2  0
 64 65  1  0
 64 58  2  0
 65 60  2  0
 66 59  1  0
 67 57  1  0
 69 71  2  0
 70 69  1  0
 72 70  1  0
 73 78  2  0
 73 82  1  0
 74 70  1  0
 74 78  1  0
 75 74  1  0
 76 77  1  0
 76 75  1  0
 77 73  1  0
 78 79  1  0
 79 80  2  0
 81 80  1  0
 82 81  2  0
 83 57  1  0
 83 88  1  0
 83 84  1  0
 84 87  1  1
 84 85  1  0
 86 84  1  0
 88 91  1  0
 89 88  1  0
 89 93  1  0
 90 89  2  0
 93 92  1  0
 93 95  1  0
 95 96  1  0
 95 94  1  0
M  ISO  4  14 100  22 100  55 101  56 101
M  END
>  <TORSDO>  (41) 
F 26

>  <SCORE>  (41) 
-5.996

>  <name>  (41) 
40

>  <ligand_id>  (41) 
40

>  <original_smiles>  (41) 
[H]c1c([H])c([H])c2c(c1[H])C([H])([H])C([H])([H])C([H])([H])C2([H])N([H])C(=O)C1([H])N(C(=O)C([H])(N([H])C(=O)C([H])(N([H])C([H])([H])[H])C([H])([H])[H])C(C([H])([H])[H])(C([H])([H])[H])C([H])([H])[H])C([H])([H])c2c([H])c(OC([H])([H])C([H])([H])C([H])([H])C([H])([H])C([H])(C(=O)N([H])C([H])([H])C(C([H])([H])[H])(C([H])([H])[H])C([H])([H])[H])C([H])([H])C([H])([H])C([H])([H])N([H])C(=O)N3C([H])([H])C([H])([H])C([H])([H])C([H])(n4nc(-c5c([H])c([H])c(Oc6c([H])c([H])c(F)c([H])c6F)c([H])c5[H])c(C(=O)N([H])[H])c4N([H])[H])C3([H])[H])c([H])c([H])c2C1([H])[H]

>  <smiles>  (41) 
[H]c1c([H])c([H])c2c(c1[H])C([H])([H])C([H])([H])C([H])([H])C2([H])N([H])C(=O)C1([H])N(C(=O)C([H])(N([H])C(=O)C([H])(N([H])C([H])([H])[H])C([H])([H])[H])C(C([H])([H])[H])(C([H])([H])[H])C([H])([H])[H])C([H])([H])c2c([H])c(OC([H])([H])C([H])([H])C([H])([H])C([H])([H])C([H])(C(=O)N([H])C([H])([H])C(C([H])([H])[H])(C([H])([H])[H])C([H])([H])[H])C([H])([H])C([H])([H])C([H])([H])N([H])C(=O)N3C([H])([H])C([H])([H])C([H])([H])C([H])(n4nc(-c5c([H])c([H])c(Oc6c([H])c([H])c(F)c([H])c6F)c([H])c5[H])c(C(=O)N([H])[H])c4N([H])[H])C3([H])[H])c([H])c([H])c2C1([H])[H]

$$$$
41:0:0
     RDKit          3D

 93100  0  0  1  0  0  0  0  0999 V2000
  -29.0310  -21.2510   20.3710 C   0  0  0  0  0  2  0  0  0  0  0  0
  -29.1670  -22.7410   20.7190 N   0  0  0  0  0  4  0  0  0  0  0  0
  -28.9950  -22.8130   21.7110 H   0  0  0  0  0  0  0  0  0  0  0  0
  -30.1330  -22.9920   20.5780 H   0  0  0  0  0  0  0  0  0  0  0  0
  -28.3330  -23.8230   20.0150 C   0  0  0  0  0  2  0  0  0  0  0  0
  -28.2230  -25.2510   20.7560 C   0  0  0  0  0  2  0  0  0  0  0  0
  -28.2310  -26.5600   20.0410 O   0  0  0  0  0  0  0  0  0  0  0  0
  -24.5230  -31.9280   23.2140 C   0  0  0  0  0  0  0  0  0  0  0  0
  -27.1040  -27.3950   20.0880 C   0  0  0  0  0  0  0  0  0  0  0  0
  -23.3030  -30.5440   21.5740 C   0  0  0  0  0  3  0  0  0  0  0  0
  -24.7390  -29.0040   20.1170 C   0  0  0  0  0  0  0  0  0  0  0  0
  -25.8390  -30.8680   21.3620 C   0  0  0  0  0  2  0  0  0  0  0  0
  -25.9160  -29.4950   20.7000 C   0  0  0  0  0  0  0  0  0  0  0  0
  -27.1050  -28.7050   20.6640 C   0  0  0  0  0  3  0  0  0  0  0  0
  -25.9070  -26.9520   19.4910 C   0  0  0  0  0  3  0  0  0  0  0  0
  -24.7390  -27.7410   19.5020 C   0  0  0  0  0  3  0  0  0  0  0  0
  -23.5000  -29.8780   20.1870 C   0  0  0  0  0  2  0  0  0  0  0  0
  -24.5730  -31.1320   22.1050 N   0  0  0  0  0  0  0  0  0  0  0  0
  -23.4450  -32.1990   23.7660 O   0  0  0  0  0  0  0  0  0  0  0  0
  -22.6570  -29.5170   22.5330 C   0  0  0  0  0  0  0  0  0  0  0  0
  -21.3300  -29.3320   22.4170 N   0  0  0  0  0  0  0  0  0  0  0  0
  -23.3470  -28.8870   23.3360 O   0  0  0  0  0  0  0  0  0  0  0  0
  -20.8350  -29.8970   21.7400 H   0  0  0  0  0  0  0  0  0  0  0  0
  -17.9630  -28.1200   22.9310 C   0  0  0  0  0  0  0  0  0  0  0  0
  -20.5220  -28.3840   23.1840 C   0  0  0  0  0  3  0  0  0  0  0  0
  -20.6240  -26.9580   22.5940 C   0  0  0  0  0  2  0  0  0  0  0  0
  -19.5130  -26.6430   21.5860 C   0  0  0  0  0  2  0  0  0  0  0  0
  -18.1360  -26.7780   22.2400 C   0  0  0  0  0  2  0  0  0  0  0  0
  -19.0820  -28.8810   23.3600 C   0  0  0  0  0  0  0  0  0  0  0  0
  -18.8650  -30.1380   23.9640 C   0  0  0  0  0  3  0  0  0  0  0  0
  -17.5590  -30.6340   24.1470 C   0  0  0  0  0  3  0  0  0  0  0  0
  -16.4550  -29.8660   23.7390 C   0  0  0  0  0  3  0  0  0  0  0  0
  -16.6570  -28.6140   23.1330 C   0  0  0  0  0  3  0  0  0  0  0  0
  -25.8120  -32.5550   23.8280 C   0  0  0  0  0  3  0  0  0  0  0  0
  -25.5140  -33.9570   24.1580 N   0  0  0  0  0  0  0  0  0  0  0  0
  -25.8700  -35.0080   23.4080 C   0  0  0  0  0  0  0  0  0  0  0  0
  -26.5510  -34.8990   22.3840 O   0  0  0  0  0  0  0  0  0  0  0  0
  -24.9140  -34.1150   24.9550 H   0  0  0  0  0  0  0  0  0  0  0  0
  -24.1830  -36.8300   23.0140 C   0  0  0  0  0  1  0  0  0  0  0  0
  -25.3910  -36.4000   23.8630 C   0  0  0  0  0  3  0  0  0  0  0  0
  -27.5090  -37.2450   24.7710 C   0  0  0  0  0  1  0  0  0  0  0  0
  -26.4430  -37.4350   23.7920 N   0  0  0  0  0  0  0  0  0  0  0  0
  -26.0490  -38.3620   23.9290 H   0  0  0  0  0  0  0  0  0  0  0  0
  -26.3260  -31.7870   25.1080 C   0  0  1  0  0  0  0  0  0  0  0  0
  -25.2290  -31.5610   26.1760 C   0  0  0  0  0  1  0  0  0  0  0  0
  -26.9060  -30.4080   24.7190 C   0  0  0  0  0  1  0  0  0  0  0  0
  -27.4830  -32.5770   25.7610 C   0  0  0  0  0  1  0  0  0  0  0  0
  -31.4910  -20.4620   20.2470 C   0  0  0  0  0  1  0  0  0  0  0  0
  -30.3770  -20.6510   22.4560 C   0  0  0  0  0  1  0  0  0  0  0  0
  -30.1480  -20.2370   20.9800 C   0  0  1  0  0  0  0  0  0  0  0  0
  -29.8080  -18.6390   21.0460 C   0  0  0  0  0  2  0  0  0  0  0  0
  -30.5260  -17.5020   20.1590 C   0  0  0  0  0  3  0  0  0  0  0  0
  -30.9680  -14.9140   20.3950 C   0  0  0  0  0  0  0  0  0  0  0  0
  -30.7180  -12.6660   19.3630 C   0  0  0  0  0  2  0  0  0  0  0  0
  -29.8030  -12.7980   18.1270 C   0  0  0  0  0  2  0  0  0  0  0  0
  -28.3210  -12.6660   18.5310 C   0  0  0  0  0  2  0  0  0  0  0  0
  -27.9550  -13.5350   19.7650 C   0  0  0  0  0  3  0  0  0  0  0  0
  -28.9960  -13.4010   20.8980 C   0  0  0  0  0  2  0  0  0  0  0  0
  -30.3120  -13.7100   20.3280 N   0  0  0  0  0  0  0  0  0  0  0  0
  -32.1680  -14.9860   20.1150 O   0  0  0  0  0  0  0  0  0  0  0  0
  -30.1990  -16.0550   20.5180 N   0  0  0  0  0  0  0  0  0  0  0  0
  -29.2300  -15.8770   20.7340 H   0  0  0  0  0  0  0  0  0  0  0  0
  -25.5650  -14.1710   20.4500 C   0  0  0  0  0  0  0  0  0  0  0  0
  -24.4810  -13.4140   20.8020 C   0  0  0  0  0  0  0  0  0  0  0  0
  -24.9250  -12.0560   20.7840 C   0  0  0  0  0  0  0  0  0  0  0  0
  -26.5990  -13.2740   20.2340 N   0  0  0  0  0  0  0  0  0  0  0  0
  -26.2200  -11.9980   20.4980 N   0  0  0  0  0  0  0  0  0  0  0  0
  -24.1770  -10.8050   20.9660 C   0  0  0  0  0  0  0  0  0  0  0  0
  -24.5670   -9.8450   21.9260 C   0  0  0  0  0  3  0  0  0  0  0  0
  -23.8220   -8.6590   22.0950 C   0  0  0  0  0  3  0  0  0  0  0  0
  -22.6730   -8.4230   21.3040 C   0  0  0  0  0  0  0  0  0  0  0  0
  -22.3040   -9.3700   20.3320 C   0  0  0  0  0  3  0  0  0  0  0  0
  -23.0480  -10.5490   20.1620 C   0  0  0  0  0  3  0  0  0  0  0  0
  -21.9030   -7.2870   21.3790 O   0  0  0  0  0  0  0  0  0  0  0  0
  -21.7810   -6.5770   22.5460 C   0  0  0  0  0  0  0  0  0  0  0  0
  -21.2750   -7.1630   23.7270 C   0  0  0  0  0  3  0  0  0  0  0  0
  -21.1030   -6.3780   24.8850 C   0  0  0  0  0  3  0  0  0  0  0  0
  -21.4270   -5.0080   24.8620 C   0  0  0  0  0  0  0  0  0  0  0  0
  -21.9250   -4.4220   23.6860 C   0  0  0  0  0  3  0  0  0  0  0  0
  -22.1000   -5.2040   22.5310 C   0  0  0  0  0  0  0  0  0  0  0  0
  -22.5600   -4.6290   21.3940 F   0  0  0  0  0  0  0  0  0  0  0  0
  -21.2540   -4.2520   25.9710 F   0  0  0  0  0  0  0  0  0  0  0  0
  -23.0860  -13.9100   21.0440 C   0  0  0  0  0  0  0  0  0  0  0  0
  -22.3330  -13.2300   21.9020 N   0  0  0  0  0  0  0  0  0  0  0  0
  -22.6690  -14.9370   20.5070 O   0  0  0  0  0  0  0  0  0  0  0  0
  -22.6870  -12.4020   22.3620 H   0  0  0  0  0  0  0  0  0  0  0  0
  -21.3920  -13.5360   22.0990 H   0  0  0  0  0  0  0  0  0  0  0  0
  -25.7520  -15.5390   20.2730 N   0  0  0  0  0  0  0  0  0  0  0  0
  -24.9900  -16.2000   20.3770 H   0  0  0  0  0  0  0  0  0  0  0  0
  -26.6050  -15.9700   19.9450 H   0  0  0  0  0  0  0  0  0  0  0  0
  -31.1840  -16.9850   17.7060 C   0  0  0  0  0  1  0  0  0  0  0  0
  -28.7760  -17.5870   18.2460 C   0  0  0  0  0  1  0  0  0  0  0  0
  -30.2540  -17.7700   18.6480 C   0  0  0  0  0  3  0  0  0  0  0  0
  1  2  1  0
  1 50  1  0
  2  3  1  0
  4  2  1  0
  5  2  1  0
  5  6  1  0
  7  9  1  0
  7  6  1  0
  8 19  2  0
  9 14  1  0
 10 18  1  0
 10 20  1  0
 11 17  1  0
 11 13  1  0
 12 18  1  0
 13 12  1  0
 14 13  2  0
 15 16  1  0
 15  9  2  0
 16 11  2  0
 17 10  1  0
 18  8  1  0
 20 22  2  0
 21 20  1  0
 23 21  1  0
 24 33  2  0
 24 29  1  0
 25 21  1  0
 25 29  1  0
 26 25  1  0
 27 28  1  0
 27 26  1  0
 28 24  1  0
 29 30  2  0
 30 31  1  0
 32 31  2  0
 33 32  1  0
 34  8  1  0
 34 35  1  0
 34 44  1  0
 35 38  1  0
 36 40  1  0
 36 35  1  0
 37 36  2  0
 40 39  1  0
 42 40  1  0
 42 43  1  0
 42 41  1  0
 44 47  1  1
 44 45  1  0
 46 44  1  0
 50 48  1  6
 50 51  1  0
 50 49  1  0
 52 61  1  0
 52 51  1  0
 53 61  1  0
 54 59  1  0
 55 56  1  0
 55 54  1  0
 57 56  1  0
 57 66  1  0
 57 58  1  0
 59 53  1  0
 59 58  1  0
 60 53  2  0
 61 62  1  0
 63 64  2  0
 64 83  1  0
 65 64  1  0
 65 68  1  0
 66 63  1  0
 66 67  1  0
 67 65  2  0
 68 69  1  0
 69 70  2  0
 71 74  1  0
 71 70  1  0
 72 71  2  0
 73 72  1  0
 73 68  2  0
 74 75  1  0
 75 76  1  0
 76 77  2  0
 78 77  1  0
 78 82  1  0
 79 78  2  0
 80 75  2  0
 80 79  1  0
 81 80  1  0
 83 84  1  0
 84 87  1  0
 84 86  1  0
 85 83  2  0
 88 89  1  0
 88 63  1  0
 90 88  1  0
 91 93  1  0
 92 93  1  0
 93 52  1  0
M  ISO  4   6 101   7 101  53 100  61 100
M  END
>  <TORSDO>  (42) 
F 23

>  <SCORE>  (42) 
-12.376

>  <name>  (42) 
41

>  <ligand_id>  (42) 
41

>  <original_smiles>  (42) 
[H]c1c([H])c([H])c2c(c1[H])C([H])([H])C([H])([H])C([H])([H])C2([H])N([H])C(=O)C1([H])N(C(=O)C([H])(N([H])C(=O)C([H])(N([H])C([H])([H])[H])C([H])([H])[H])C(C([H])([H])[H])(C([H])([H])[H])C([H])([H])[H])C([H])([H])c2c([H])c(OC([H])([H])C([H])([H])[N+]([H])([H])C([H])([H])C(C([H])([H])[H])(C([H])([H])[H])C([H])([H])C([H])(N([H])C(=O)N3C([H])([H])C([H])([H])C([H])([H])C([H])(n4nc(-c5c([H])c([H])c(Oc6c([H])c([H])c(F)c([H])c6F)c([H])c5[H])c(C(=O)N([H])[H])c4N([H])[H])C3([H])[H])C([H])(C([H])([H])[H])C([H])([H])[H])c([H])c([H])c2C1([H])[H]

>  <smiles>  (42) 
[H]c1c([H])c([H])c2c(c1[H])C([H])([H])C([H])([H])C([H])([H])C2([H])N([H])C(=O)C1([H])N(C(=O)C([H])(N([H])C(=O)C([H])(N([H])C([H])([H])[H])C([H])([H])[H])C(C([H])([H])[H])(C([H])([H])[H])C([H])([H])[H])C([H])([H])c2c([H])c(OC([H])([H])C([H])([H])[N+]([H])([H])C([H])([H])C(C([H])([H])[H])(C([H])([H])[H])C([H])([H])C([H])(N([H])C(=O)N3C([H])([H])C([H])([H])C([H])([H])C([H])(n4nc(-c5c([H])c([H])c(Oc6c([H])c([H])c(F)c([H])c6F)c([H])c5[H])c(C(=O)N([H])[H])c4N([H])[H])C3([H])[H])C([H])(C([H])([H])[H])C([H])([H])[H])c([H])c([H])c2C1([H])[H]

$$$$
42:0:0
     RDKit          3D

 87 90  0  0  1  0  0  0  0  0999 V2000
  -28.7670  -21.3810   20.5830 C   0  0  0  0  0  2  0  0  0  0  0  0
  -28.4860  -21.3540   21.7860 O   0  0  0  0  0  0  0  0  0  0  0  0
  -28.2930  -23.2230   19.9050 C   0  0  0  0  0 15  0  0  0  0  0  0
  -28.1760  -25.0730   20.3810 O   0  0  0  0  0  1  0  0  0  0  0  0
  -24.7120  -31.7630   23.1230 C   0  0  0  0  0  0  0  0  0  0  0  0
  -27.2580  -26.4210   20.2290 C   0  0  0  0  0  0  0  0  0  0  0  0
  -23.5540  -30.3490   21.4840 C   0  0  0  0  0  3  0  0  0  0  0  0
  -25.0200  -28.6360   20.1080 C   0  0  0  0  0  0  0  0  0  0  0  0
  -26.1430  -30.4050   21.4310 C   0  0  0  0  0  2  0  0  0  0  0  0
  -26.2080  -28.9400   20.7820 C   0  0  0  0  0  0  0  0  0  0  0  0
  -27.2890  -27.8660   20.8070 C   0  0  0  0  0  3  0  0  0  0  0  0
  -26.0370  -26.4050   19.4780 C   0  0  0  0  0  3  0  0  0  0  0  0
  -24.9910  -27.3980   19.4320 C   0  0  0  0  0  3  0  0  0  0  0  0
  -23.8240  -29.6240   20.1260 C   0  0  0  0  0  2  0  0  0  0  0  0
  -24.8300  -30.8780   22.0660 N   0  0  0  0  0  0  0  0  0  0  0  0
  -23.6080  -32.0830   23.6000 O   0  0  0  0  0  0  0  0  0  0  0  0
  -22.7910  -29.4060   22.4610 C   0  0  0  0  0  0  0  0  0  0  0  0
  -21.4520  -29.2960   22.3430 N   0  0  0  0  0  0  0  0  0  0  0  0
  -23.4220  -28.7710   23.3090 O   0  0  0  0  0  0  0  0  0  0  0  0
  -20.9910  -29.8700   21.6530 H   0  0  0  0  0  0  0  0  0  0  0  0
  -18.0350  -28.1400   22.8410 C   0  0  0  0  0  0  0  0  0  0  0  0
  -20.6000  -28.3750   23.1090 C   0  0  0  0  0  3  0  0  0  0  0  0
  -20.6800  -26.9370   22.5400 C   0  0  0  0  0  2  0  0  0  0  0  0
  -19.5770  -26.6300   21.5220 C   0  0  0  0  0  2  0  0  0  0  0  0
  -18.1950  -26.7910   22.1590 C   0  0  0  0  0  2  0  0  0  0  0  0
  -19.1620  -28.8900   23.2730 C   0  0  0  0  0  0  0  0  0  0  0  0
  -18.9550  -30.1490   23.8780 C   0  0  0  0  0  3  0  0  0  0  0  0
  -17.6530  -30.6590   24.0520 C   0  0  0  0  0  3  0  0  0  0  0  0
  -16.5410  -29.9050   23.6360 C   0  0  0  0  0  3  0  0  0  0  0  0
  -16.7340  -28.6480   23.0370 C   0  0  0  0  0  3  0  0  0  0  0  0
  -25.9550  -32.4280   23.7920 C   0  0  0  0  0  3  0  0  0  0  0  0
  -26.4610  -31.6500   25.0710 C   0  0  1  0  0  0  0  0  0  0  0  0
  -25.3580  -31.3960   26.1290 C   0  0  0  0  0  1  0  0  0  0  0  0
  -27.0520  -30.2780   24.6810 C   0  0  0  0  0  1  0  0  0  0  0  0
  -27.6010  -32.4440   25.7500 C   0  0  0  0  0  1  0  0  0  0  0  0
  -25.6020  -33.8130   24.1770 N   0  0  0  0  0  0  0  0  0  0  0  0
  -25.9130  -34.9170   23.4840 C   0  0  0  0  0  0  0  0  0  0  0  0
  -26.5780  -34.8800   22.4470 O   0  0  0  0  0  0  0  0  0  0  0  0
  -25.0150  -33.9170   24.9900 H   0  0  0  0  0  0  0  0  0  0  0  0
  -24.1490  -36.7060   23.2680 C   0  0  0  0  0  1  0  0  0  0  0  0
  -25.4110  -36.2740   24.0280 C   0  0  0  0  0  3  0  0  0  0  0  0
  -27.5510  -37.1660   24.8460 C   0  0  0  0  0  1  0  0  0  0  0  0
  -26.4190  -37.3570   23.9450 N   0  0  0  0  0  0  0  0  0  0  0  0
  -25.9930  -38.2550   24.1520 H   0  0  0  0  0  0  0  0  0  0  0  0
  -29.5950  -19.4650   20.0590 C   0  0  0  0  0  1  0  0  0  0  0  0
  -30.1890  -16.0490   20.2920 C   0  0  0  0  0  0  0  0  0  0  0  0
  -30.3920  -13.3960   19.5350 C   0  0  0  0  0  2  0  0  0  0  0  0
  -29.5680  -12.7630   18.3650 C   0  0  0  0  0  2  0  0  0  0  0  0
  -28.1750  -12.3210   18.8270 C   0  0  0  0  0  2  0  0  0  0  0  0
  -27.5840  -13.3620   19.7970 C   0  0  0  0  0  3  0  0  0  0  0  0
  -28.5690  -13.8700   20.8900 C   0  0  0  0  0  2  0  0  0  0  0  0
  -29.6840  -14.6170   20.2160 N   0  0  0  0  0  0  0  0  0  0  0  0
  -31.4230  -15.8710   20.1640 O   0  0  0  0  0  0  0  0  0  0  0  0
  -29.4910  -17.5570   20.3370 N   0  0  0  0  0  2  0  0  0  0  0  0
  -28.5060  -17.3660   20.4640 H   0  0  0  0  0  0  0  0  0  0  0  0
  -25.2250  -13.8340   20.5790 C   0  0  0  0  0  0  0  0  0  0  0  0
  -24.1720  -13.0410   20.9260 C   0  0  0  0  0  0  0  0  0  0  0  0
  -24.6490  -11.6950   20.8700 C   0  0  0  0  0  0  0  0  0  0  0  0
  -26.2780  -12.9800   20.3200 N   0  0  0  0  0  0  0  0  0  0  0  0
  -25.9450  -11.6800   20.5590 N   0  0  0  0  0  0  0  0  0  0  0  0
  -23.9190  -10.4290   21.0350 C   0  0  0  0  0  0  0  0  0  0  0  0
  -24.3680   -9.4210   21.9150 C   0  0  0  0  0  3  0  0  0  0  0  0
  -23.6310   -8.2270   22.0760 C   0  0  0  0  0  3  0  0  0  0  0  0
  -22.4280   -8.0310   21.3550 C   0  0  0  0  0  0  0  0  0  0  0  0
  -21.9940   -9.0290   20.4650 C   0  0  0  0  0  3  0  0  0  0  0  0
  -22.7320  -10.2140   20.3030 C   0  0  0  0  0  3  0  0  0  0  0  0
  -21.6650   -6.8890   21.4250 O   0  0  0  0  0  0  0  0  0  0  0  0
  -21.6850   -6.0720   22.5270 C   0  0  0  0  0  0  0  0  0  0  0  0
  -21.4030   -6.5630   23.8200 C   0  0  0  0  0  3  0  0  0  0  0  0
  -21.3680   -5.6780   24.9160 C   0  0  0  0  0  3  0  0  0  0  0  0
  -21.6050   -4.3030   24.7210 C   0  0  0  0  0  0  0  0  0  0  0  0
  -21.8810   -3.8130   23.4310 C   0  0  0  0  0  3  0  0  0  0  0  0
  -21.9190   -4.6960   22.3380 C   0  0  0  0  0  0  0  0  0  0  0  0
  -22.1650   -4.2140   21.0960 F   0  0  0  0  0  0  0  0  0  0  0  0
  -21.5640   -3.4510   25.7730 F   0  0  0  0  0  0  0  0  0  0  0  0
  -22.7700  -13.5120   21.1880 C   0  0  0  0  0  0  0  0  0  0  0  0
  -22.0350  -12.8130   22.0450 N   0  0  0  0  0  0  0  0  0  0  0  0
  -22.3380  -14.5400   20.6690 O   0  0  0  0  0  0  0  0  0  0  0  0
  -22.3930  -11.9860   22.4980 H   0  0  0  0  0  0  0  0  0  0  0  0
  -21.0980  -13.1200   22.2600 H   0  0  0  0  0  0  0  0  0  0  0  0
  -25.3740  -15.2100   20.4260 N   0  0  0  0  0  0  0  0  0  0  0  0
  -24.5960  -15.8500   20.5420 H   0  0  0  0  0  0  0  0  0  0  0  0
  -26.2210  -15.6680   20.1160 H   0  0  0  0  0  0  0  0  0  0  0  0
  -31.0920  -19.7800   20.4220 C   0  0  0  0  0  2  0  0  0  0  0  0
  -32.0440  -19.1860   18.0760 C   0  0  0  0  0  1  0  0  0  0  0  0
  -33.6420  -19.6660   19.9560 C   0  0  0  0  0  1  0  0  0  0  0  0
  -32.2420  -19.1160   19.5980 C   0  0  0  0  0  3  0  0  0  0  0  0
  1  2  2  0
  5 16  2  0
  6  4  1  0
  6 11  1  0
  7 15  1  0
  7 17  1  0
  8 14  1  0
  8 10  1  0
  9 15  1  0
 10 11  2  0
 10  9  1  0
 12  6  2  0
 13 12  1  0
 13  8  2  0
 14  7  1  0
 15  5  1  0
 17 19  2  0
 18 17  1  0
 20 18  1  0
 21 30  2  0
 21 26  1  0
 22 18  1  0
 22 26  1  0
 23 22  1  0
 24 25  1  0
 24 23  1  0
 25 21  1  0
 26 27  2  0
 27 28  1  0
 29 28  2  0
 30 29  1  0
 31  5  1  0
 31 36  1  0
 31 32  1  0
 32 35  1  1
 32 33  1  0
 34 32  1  0
 36 39  1  0
 37 41  1  0
 37 36  1  0
 38 37  2  0
 41 40  1  0
 43 41  1  0
 43 44  1  0
 43 42  1  0
 45 84  1  0
 46 54  1  0
 47 52  1  0
 48 49  1  0
 48 47  1  0
 50 49  1  0
 50 59  1  0
 50 51  1  0
 52 46  1  0
 52 51  1  0
 53 46  2  0
 54 55  1  0
 56 57  2  0
 57 76  1  0
 58 57  1  0
 58 61  1  0
 59 60  1  0
 59 56  1  0
 60 58  2  0
 61 62  1  0
 62 63  2  0
 64 67  1  0
 64 63  1  0
 65 64  2  0
 66 65  1  0
 66 61  2  0
 67 68  1  0
 68 69  1  0
 69 70  2  0
 71 70  1  0
 71 75  1  0
 72 71  2  0
 73 68  2  0
 73 72  1  0
 74 73  1  0
 76 77  1  0
 77 80  1  0
 77 79  1  0
 78 76  2  0
 81 82  1  0
 81 56  1  0
 83 81  1  0
 85 87  1  0
 87 86  1  0
 87 84  1  0
M  ISO  4   3 101   4 101  46 100  54 100
M  END
>  <TORSDO>  (43) 
F 20

>  <SCORE>  (43) 
-15.423

>  <name>  (43) 
42

>  <ligand_id>  (43) 
42

>  <original_smiles>  (43) 
[H]c1c([H])c([H])c2c(c1[H])C([H])([H])C([H])([H])C([H])([H])C2([H])N([H])C(=O)C1([H])N(C(=O)C([H])(N([H])C(=O)C([H])(N([H])C([H])([H])[H])C([H])([H])[H])C(C([H])([H])[H])(C([H])([H])[H])C([H])([H])[H])C([H])([H])c2c([H])c(OC([H])([H])C(=O)C([H])(N([H])C(=O)N3C([H])([H])C([H])([H])C([H])([H])C([H])(n4nc(-c5c([H])c([H])c(Oc6c([H])c([H])c(F)c([H])c6F)c([H])c5[H])c(C(=O)N([H])[H])c4N([H])[H])C3([H])[H])C([H])([H])C([H])(C([H])([H])[H])C([H])([H])[H])c([H])c([H])c2C1([H])[H]

>  <smiles>  (43) 
[H]c1c([H])c([H])c2c(c1[H])C([H])([H])C([H])([H])C([H])([H])C2([H])N([H])C(=O)C1([H])N(C(=O)C([H])(N([H])C(=O)C([H])(N([H])C([H])([H])[H])C([H])([H])[H])C(C([H])([H])[H])(C([H])([H])[H])C([H])([H])[H])C([H])([H])c2c([H])c(OC([H])([H])C(=O)C([H])(N([H])C(=O)N3C([H])([H])C([H])([H])C([H])([H])C([H])(n4nc(-c5c([H])c([H])c(Oc6c([H])c([H])c(F)c([H])c6F)c([H])c5[H])c(C(=O)N([H])[H])c4N([H])[H])C3([H])[H])C([H])([H])C([H])(C([H])([H])[H])C([H])([H])[H])c([H])c([H])c2C1([H])[H]

$$$$
43:0:0
     RDKit          3D

 93100  0  0  1  0  0  0  0  0999 V2000
  -29.0030  -21.2250   20.6670 C   0  0  0  0  0  0  0  0  0  0  0  0
  -29.2120  -22.5510   20.2990 N   0  0  0  0  0  0  0  0  0  0  0  0
  -27.9870  -20.8920   21.2760 O   0  0  0  0  0  0  0  0  0  0  0  0
  -30.1110  -22.7060   19.8610 H   0  0  0  0  0  0  0  0  0  0  0  0
  -30.0550  -20.0860   20.2510 C   0  0  0  0  0  2  0  0  0  0  0  0
  -30.2420  -18.5890   20.9070 C   0  0  0  0  0  2  0  0  0  0  0  0
  -29.2260  -17.3550   20.7280 C   0  0  0  0  0  0  0  0  0  0  0  0
  -30.5150  -14.9350   20.3610 C   0  0  0  0  0  0  0  0  0  0  0  0
  -30.4260  -12.7440   19.1470 C   0  0  0  0  0  2  0  0  0  0  0  0
  -29.4040  -12.8820   17.9870 C   0  0  0  0  0  2  0  0  0  0  0  0
  -27.9530  -12.6590   18.4680 C   0  0  0  0  0  2  0  0  0  0  0  0
  -27.6410  -13.4240   19.7810 C   0  0  0  0  0  3  0  0  0  0  0  0
  -28.7510  -13.1830   20.8310 C   0  0  0  0  0  2  0  0  0  0  0  0
  -30.0110  -13.6560   20.2380 N   0  0  0  0  0  0  0  0  0  0  0  0
  -31.6310  -15.2120   19.9100 O   0  0  0  0  0  0  0  0  0  0  0  0
  -29.6030  -15.8670   20.8290 N   0  0  0  0  0  4  0  0  0  0  0  0
  -28.8240  -15.3580   21.2190 H   0  0  0  0  0  0  0  0  0  0  0  0
  -25.2640  -13.9660   20.5920 C   0  0  0  0  0  0  0  0  0  0  0  0
  -24.2190  -13.1630   20.9640 C   0  0  0  0  0  0  0  0  0  0  0  0
  -24.7020  -11.8240   20.8750 C   0  0  0  0  0  0  0  0  0  0  0  0
  -26.3150  -13.1100   20.3000 N   0  0  0  0  0  0  0  0  0  0  0  0
  -25.9830  -11.8130   20.5290 N   0  0  0  0  0  0  0  0  0  0  0  0
  -24.0040  -10.5450   21.0540 C   0  0  0  0  0  0  0  0  0  0  0  0
  -24.4540   -9.5840   21.9860 C   0  0  0  0  0  3  0  0  0  0  0  0
  -23.7590   -8.3680   22.1530 C   0  0  0  0  0  3  0  0  0  0  0  0
  -22.5950   -8.1060   21.3910 C   0  0  0  0  0  0  0  0  0  0  0  0
  -22.1620   -9.0580   20.4510 C   0  0  0  0  0  3  0  0  0  0  0  0
  -22.8590  -10.2650   20.2820 C   0  0  0  0  0  3  0  0  0  0  0  0
  -21.8680   -6.9430   21.4710 O   0  0  0  0  0  0  0  0  0  0  0  0
  -21.8000   -6.2120   22.6280 C   0  0  0  0  0  0  0  0  0  0  0  0
  -21.2790   -6.7550   23.8250 C   0  0  0  0  0  3  0  0  0  0  0  0
  -21.1590   -5.9440   24.9710 C   0  0  0  0  0  3  0  0  0  0  0  0
  -21.5550   -4.5950   24.9230 C   0  0  0  0  0  0  0  0  0  0  0  0
  -22.0710   -4.0530   23.7320 C   0  0  0  0  0  3  0  0  0  0  0  0
  -22.1870   -4.8590   22.5880 C   0  0  0  0  0  0  0  0  0  0  0  0
  -22.6650   -4.3270   21.4370 F   0  0  0  0  0  0  0  0  0  0  0  0
  -21.4330   -3.8140   26.0220 F   0  0  0  0  0  0  0  0  0  0  0  0
  -22.8270  -13.6100   21.3000 C   0  0  0  0  0  0  0  0  0  0  0  0
  -22.1410  -12.8670   22.1630 N   0  0  0  0  0  0  0  0  0  0  0  0
  -22.3580  -14.6520   20.8410 O   0  0  0  0  0  0  0  0  0  0  0  0
  -22.5430  -12.0320   22.5640 H   0  0  0  0  0  0  0  0  0  0  0  0
  -21.2120  -13.1490   22.4400 H   0  0  0  0  0  0  0  0  0  0  0  0
  -25.3810  -15.3450   20.4690 N   0  0  0  0  0  0  0  0  0  0  0  0
  -24.5640  -15.9320   20.5940 H   0  0  0  0  0  0  0  0  0  0  0  0
  -26.2020  -15.8720   20.1910 H   0  0  0  0  0  0  0  0  0  0  0  0
  -28.1630  -17.5660   19.6430 C   0  0  0  0  0  0  0  0  0  0  0  0
  -26.9950  -18.0840   20.0120 N   0  0  0  0  0  0  0  0  0  0  0  0
  -28.3900  -17.2640   18.4740 O   0  0  0  0  0  0  0  0  0  0  0  0
  -26.8310  -18.3440   20.9770 H   0  0  0  0  0  0  0  0  0  0  0  0
  -26.2750  -18.2850   19.3310 H   0  0  0  0  0  0  0  0  0  0  0  0
  -28.2540  -23.7470   20.1490 C   0  0  0  0  0  2  0  0  0  0  0  0
  -28.5930  -25.1990   20.7980 C   0  0  0  0  0  2  0  0  0  0  0  0
  -28.4310  -26.5510   20.1500 O   0  0  0  0  0  0  0  0  0  0  0  0
  -24.5950  -31.9450   23.2290 C   0  0  0  0  0  0  0  0  0  0  0  0
  -27.2750  -27.3570   20.2270 C   0  0  0  0  0  0  0  0  0  0  0  0
  -23.4210  -30.5390   21.5730 C   0  0  0  0  0  3  0  0  0  0  0  0
  -24.8980  -28.9730   20.1850 C   0  0  0  0  0  0  0  0  0  0  0  0
  -25.9620  -30.8600   21.4200 C   0  0  0  0  0  2  0  0  0  0  0  0
  -26.0600  -29.4740   20.7840 C   0  0  0  0  0  0  0  0  0  0  0  0
  -27.2520  -28.6800   20.7850 C   0  0  0  0  0  3  0  0  0  0  0  0
  -26.0830  -26.9030   19.6270 C   0  0  0  0  0  3  0  0  0  0  0  0
  -24.9120  -27.6930   19.6000 C   0  0  0  0  0  3  0  0  0  0  0  0
  -23.6620  -29.8540   20.2020 C   0  0  0  0  0  2  0  0  0  0  0  0
  -24.6790  -31.1350   22.1320 N   0  0  0  0  0  0  0  0  0  0  0  0
  -23.5030  -32.2180   23.7500 O   0  0  0  0  0  0  0  0  0  0  0  0
  -22.7470  -29.5240   22.5290 C   0  0  0  0  0  0  0  0  0  0  0  0
  -21.4260  -29.3260   22.3740 N   0  0  0  0  0  0  0  0  0  0  0  0
  -23.4150  -28.9120   23.3680 O   0  0  0  0  0  0  0  0  0  0  0  0
  -20.9450  -29.8720   21.6730 H   0  0  0  0  0  0  0  0  0  0  0  0
  -18.0630  -28.0600   22.7970 C   0  0  0  0  0  0  0  0  0  0  0  0
  -20.6060  -28.3780   23.1310 C   0  0  0  0  0  3  0  0  0  0  0  0
  -20.7560  -26.9450   22.5720 C   0  0  0  0  0  2  0  0  0  0  0  0
  -19.6890  -26.5850   21.5340 C   0  0  0  0  0  2  0  0  0  0  0  0
  -18.2850  -26.7090   22.1370 C   0  0  0  0  0  2  0  0  0  0  0  0
  -19.1530  -28.8490   23.2500 C   0  0  0  0  0  0  0  0  0  0  0  0
  -18.8930  -30.1120   23.8260 C   0  0  0  0  0  3  0  0  0  0  0  0
  -17.5740  -30.5870   23.9530 C   0  0  0  0  0  3  0  0  0  0  0  0
  -16.4970  -29.7950   23.5170 C   0  0  0  0  0  3  0  0  0  0  0  0
  -16.7420  -28.5330   22.9470 C   0  0  0  0  0  3  0  0  0  0  0  0
  -25.8650  -32.5860   23.8730 C   0  0  0  0  0  3  0  0  0  0  0  0
  -25.5520  -33.9880   24.1840 N   0  0  0  0  0  0  0  0  0  0  0  0
  -25.8970  -35.0360   23.4230 C   0  0  0  0  0  0  0  0  0  0  0  0
  -26.5870  -34.9240   22.4060 O   0  0  0  0  0  0  0  0  0  0  0  0
  -24.9600  -34.1540   24.9850 H   0  0  0  0  0  0  0  0  0  0  0  0
  -24.1950  -36.8390   23.0110 C   0  0  0  0  0  1  0  0  0  0  0  0
  -25.4050  -36.4280   23.8650 C   0  0  0  0  0  3  0  0  0  0  0  0
  -27.5110  -37.3070   24.7730 C   0  0  0  0  0  1  0  0  0  0  0  0
  -26.4480  -37.4740   23.7860 N   0  0  0  0  0  0  0  0  0  0  0  0
  -26.0400  -38.3960   23.9130 H   0  0  0  0  0  0  0  0  0  0  0  0
  -26.3590  -31.8320   25.1680 C   0  0  1  0  0  0  0  0  0  0  0  0
  -25.2420  -31.6100   26.2160 C   0  0  0  0  0  1  0  0  0  0  0  0
  -26.9530  -30.4520   24.8050 C   0  0  0  0  0  1  0  0  0  0  0  0
  -27.4880  -32.6430   25.8500 C   0  0  0  0  0  1  0  0  0  0  0  0
  1  3  2  0
  2  1  1  0
  4  2  1  0
  5  1  1  0
  5  6  1  0
  7 16  2  0
  7  6  1  0
  8 16  1  0
  9 14  1  0
 10 11  1  0
 10  9  1  0
 12 11  1  0
 12 21  1  0
 12 13  1  0
 14  8  1  0
 14 13  1  0
 15  8  2  0
 16 17  1  0
 18 19  2  0
 19 38  1  0
 20 19  1  0
 20 23  1  0
 21 22  1  0
 21 18  1  0
 22 20  2  0
 23 24  1  0
 24 25  2  0
 26 29  1  0
 26 25  1  0
 27 26  2  0
 28 27  1  0
 28 23  2  0
 29 30  1  0
 30 31  1  0
 31 32  2  0
 33 32  1  0
 33 37  1  0
 34 33  2  0
 35 30  2  0
 35 34  1  0
 36 35  1  0
 38 39  1  0
 39 42  1  0
 39 41  1  0
 40 38  2  0
 43 18  1  0
 43 44  1  0
 45 43  1  0
 46 47  1  0
 46  7  1  0
 47 49  1  0
 48 46  2  0
 50 47  1  0
 51  2  1  0
 51 52  1  0
 53 55  1  0
 53 52  1  0
 54 65  2  0
 55 60  1  0
 56 64  1  0
 56 66  1  0
 57 63  1  0
 57 59  1  0
 58 64  1  0
 59 60  2  0
 59 58  1  0
 61 55  2  0
 62 61  1  0
 62 57  2  0
 63 56  1  0
 64 54  1  0
 66 68  2  0
 67 66  1  0
 69 67  1  0
 70 79  2  0
 70 75  1  0
 71 67  1  0
 71 75  1  0
 72 71  1  0
 73 74  1  0
 73 72  1  0
 74 70  1  0
 75 76  2  0
 76 77  1  0
 78 77  2  0
 79 78  1  0
 80 54  1  0
 80 81  1  0
 80 90  1  0
 81 84  1  0
 82 86  1  0
 82 81  1  0
 83 82  2  0
 86 85  1  0
 88 86  1  0
 88 89  1  0
 88 87  1  0
 90 93  1  1
 90 91  1  0
 92 90  1  0
M  ISO  4   8 100  16 100  52 101  53 101
M  END
>  <TORSDO>  (44) 
F 22

>  <SCORE>  (44) 
-13.323

>  <name>  (44) 
43

>  <ligand_id>  (44) 
43

>  <original_smiles>  (44) 
[H]c1c([H])c([H])c2c(c1[H])C([H])([H])C([H])([H])C([H])([H])C2([H])N([H])C(=O)C1([H])N(C(=O)C([H])(N([H])C(=O)C([H])(N([H])C([H])([H])[H])C([H])([H])[H])C(C([H])([H])[H])(C([H])([H])[H])C([H])([H])[H])C([H])([H])c2c([H])c(OC([H])([H])C([H])([H])N([H])C(=O)C([H])([H])C([H])([H])C([H])(C(=O)N([H])[H])N([H])C(=O)N3C([H])([H])C([H])([H])C([H])([H])C([H])(n4nc(-c5c([H])c([H])c(Oc6c([H])c([H])c(F)c([H])c6F)c([H])c5[H])c(C(=O)N([H])[H])c4N([H])[H])C3([H])[H])c([H])c([H])c2C1([H])[H]

>  <smiles>  (44) 
[H]c1c([H])c([H])c2c(c1[H])C([H])([H])C([H])([H])C([H])([H])C2([H])N([H])C(=O)C1([H])N(C(=O)C([H])(N([H])C(=O)C([H])(N([H])C([H])([H])[H])C([H])([H])[H])C(C([H])([H])[H])(C([H])([H])[H])C([H])([H])[H])C([H])([H])c2c([H])c(OC([H])([H])C([H])([H])N([H])C(=O)C([H])([H])C([H])([H])C([H])(C(=O)N([H])[H])N([H])C(=O)N3C([H])([H])C([H])([H])C([H])([H])C([H])(n4nc(-c5c([H])c([H])c(Oc6c([H])c([H])c(F)c([H])c6F)c([H])c5[H])c(C(=O)N([H])[H])c4N([H])[H])C3([H])[H])c([H])c([H])c2C1([H])[H]

$$$$
44:0:0
     RDKit          3D

 96103  0  0  1  0  0  0  0  0999 V2000
  -27.8800  -24.9540   20.3760 C   0  0  0  0  0  3  0  0  0  0  0  0
  -29.0680  -23.8960   20.2880 C   0  0  0  0  0  0  0  0  0  0  0  0
  -30.2410  -24.2740   20.2400 O   0  0  0  0  0  0  0  0  0  0  0  0
  -28.7260  -22.3460   20.2300 C   0  0  0  0  0  3  0  0  0  0  0  0
  -29.8270  -21.2100   20.4260 C   0  0  0  0  0  3  0  0  0  0  0  0
  -29.4000  -19.7270   20.0090 C   0  0  0  0  0  2  0  0  0  0  0  0
  -30.0270  -18.4410   20.7180 C   0  0  0  0  0  2  0  0  0  0  0  0
  -30.0050  -17.0870   19.8820 C   0  0  0  0  0  2  0  0  0  0  0  0
  -30.6220  -14.6370   20.3680 C   0  0  0  0  0  0  0  0  0  0  0  0
  -30.3680  -12.3800   19.3740 C   0  0  0  0  0  2  0  0  0  0  0  0
  -29.4590  -12.5050   18.1320 C   0  0  0  0  0  2  0  0  0  0  0  0
  -27.9760  -12.3750   18.5330 C   0  0  0  0  0  2  0  0  0  0  0  0
  -27.6030  -13.2630   19.7530 C   0  0  0  0  0  3  0  0  0  0  0  0
  -28.6430  -13.1380   20.8910 C   0  0  0  0  0  2  0  0  0  0  0  0
  -29.9680  -13.4350   20.3280 N   0  0  0  0  0  0  0  0  0  0  0  0
  -31.7920  -14.7460   19.9940 O   0  0  0  0  0  0  0  0  0  0  0  0
  -29.8560  -15.7520   20.5700 N   0  0  0  0  0  0  0  0  0  0  0  0
  -28.9290  -15.5440   20.9080 H   0  0  0  0  0  0  0  0  0  0  0  0
  -25.2030  -13.8810   20.4310 C   0  0  0  0  0  0  0  0  0  0  0  0
  -24.1250  -13.1180   20.7940 C   0  0  0  0  0  0  0  0  0  0  0  0
  -24.5830  -11.7650   20.7900 C   0  0  0  0  0  0  0  0  0  0  0  0
  -26.2460  -12.9930   20.2240 N   0  0  0  0  0  0  0  0  0  0  0  0
  -25.8770  -11.7170   20.5020 N   0  0  0  0  0  0  0  0  0  0  0  0
  -23.8480  -10.5090   20.9880 C   0  0  0  0  0  0  0  0  0  0  0  0
  -24.2640   -9.5530   21.9420 C   0  0  0  0  0  3  0  0  0  0  0  0
  -23.5310   -8.3600   22.1270 C   0  0  0  0  0  3  0  0  0  0  0  0
  -22.3670   -8.1170   21.3610 C   0  0  0  0  0  0  0  0  0  0  0  0
  -21.9690   -9.0600   20.3960 C   0  0  0  0  0  3  0  0  0  0  0  0
  -22.7040  -10.2450   20.2100 C   0  0  0  0  0  3  0  0  0  0  0  0
  -21.6050   -6.9780   21.4550 O   0  0  0  0  0  0  0  0  0  0  0  0
  -21.5450   -6.2470   22.6150 C   0  0  0  0  0  0  0  0  0  0  0  0
  -21.1170   -6.8170   23.8350 C   0  0  0  0  0  3  0  0  0  0  0  0
  -21.0020   -6.0120   24.9850 C   0  0  0  0  0  3  0  0  0  0  0  0
  -21.3040   -4.6380   24.9180 C   0  0  0  0  0  0  0  0  0  0  0  0
  -21.7230   -4.0680   23.7040 C   0  0  0  0  0  3  0  0  0  0  0  0
  -21.8400   -4.8710   22.5550 C   0  0  0  0  0  0  0  0  0  0  0  0
  -22.2250   -4.3100   21.3820 F   0  0  0  0  0  0  0  0  0  0  0  0
  -21.1840   -3.8630   26.0220 F   0  0  0  0  0  0  0  0  0  0  0  0
  -22.7270  -13.6060   21.0330 C   0  0  0  0  0  0  0  0  0  0  0  0
  -21.9770  -12.9290   21.8950 N   0  0  0  0  0  0  0  0  0  0  0  0
  -22.3040  -14.6250   20.4880 O   0  0  0  0  0  0  0  0  0  0  0  0
  -22.3290  -12.1050   22.3590 H   0  0  0  0  0  0  0  0  0  0  0  0
  -21.0380  -13.2410   22.0950 H   0  0  0  0  0  0  0  0  0  0  0  0
  -25.3750  -15.2490   20.2400 N   0  0  0  0  0  0  0  0  0  0  0  0
  -24.6090  -15.9050   20.3440 H   0  0  0  0  0  0  0  0  0  0  0  0
  -26.2250  -15.6840   19.9040 H   0  0  0  0  0  0  0  0  0  0  0  0
  -28.2590  -26.3980   20.2040 O   0  0  0  0  0  0  0  0  0  0  0  0
  -24.5940  -31.8470   23.1980 C   0  0  0  0  0  0  0  0  0  0  0  0
  -27.1960  -27.3150   20.0960 C   0  0  0  0  0  0  0  0  0  0  0  0
  -23.3900  -30.4660   21.5420 C   0  0  0  0  0  3  0  0  0  0  0  0
  -24.8450  -28.9480   20.0820 C   0  0  0  0  0  0  0  0  0  0  0  0
  -25.9290  -30.7820   21.3690 C   0  0  0  0  0  2  0  0  0  0  0  0
  -26.0090  -29.4100   20.7120 C   0  0  0  0  0  0  0  0  0  0  0  0
  -27.1850  -28.6010   20.7220 C   0  0  0  0  0  3  0  0  0  0  0  0
  -26.0300  -26.9430   19.3880 C   0  0  0  0  0  3  0  0  0  0  0  0
  -24.8660  -27.7270   19.3960 C   0  0  0  0  0  3  0  0  0  0  0  0
  -23.6060  -29.8170   20.1480 C   0  0  0  0  0  2  0  0  0  0  0  0
  -24.6570  -31.0480   22.0940 N   0  0  0  0  0  0  0  0  0  0  0  0
  -23.5110  -32.1190   23.7340 O   0  0  0  0  0  0  0  0  0  0  0  0
  -22.7300  -29.4340   22.4890 C   0  0  0  0  0  0  0  0  0  0  0  0
  -21.3990  -29.2760   22.3820 N   0  0  0  0  0  0  0  0  0  0  0  0
  -23.4130  -28.7780   23.2810 O   0  0  0  0  0  0  0  0  0  0  0  0
  -20.9060  -29.8650   21.7250 H   0  0  0  0  0  0  0  0  0  0  0  0
  -18.0130  -28.1170   22.9070 C   0  0  0  0  0  0  0  0  0  0  0  0
  -20.5770  -28.3350   23.1460 C   0  0  0  0  0  3  0  0  0  0  0  0
  -20.6470  -26.9130   22.5440 C   0  0  0  0  0  2  0  0  0  0  0  0
  -19.5280  -26.6260   21.5370 C   0  0  0  0  0  2  0  0  0  0  0  0
  -18.1590  -26.7790   22.2030 C   0  0  0  0  0  2  0  0  0  0  0  0
  -19.1480  -28.8550   23.3350 C   0  0  0  0  0  0  0  0  0  0  0  0
  -18.9580  -30.1090   23.9530 C   0  0  0  0  0  3  0  0  0  0  0  0
  -17.6630  -30.6250   24.1480 C   0  0  0  0  0  3  0  0  0  0  0  0
  -16.5420  -29.8840   23.7360 C   0  0  0  0  0  3  0  0  0  0  0  0
  -16.7170  -28.6310   23.1220 C   0  0  0  0  0  3  0  0  0  0  0  0
  -25.8780  -32.4750   23.8230 C   0  0  0  0  0  3  0  0  0  0  0  0
  -26.3930  -31.6950   25.0930 C   0  0  1  0  0  0  0  0  0  0  0  0
  -25.3000  -31.4510   26.1600 C   0  0  0  0  0  1  0  0  0  0  0  0
  -26.9720  -30.3190   24.6900 C   0  0  0  0  0  1  0  0  0  0  0  0
  -27.5440  -32.4810   25.7620 C   0  0  0  0  0  1  0  0  0  0  0  0
  -25.5700  -33.8710   24.1640 N   0  0  0  0  0  0  0  0  0  0  0  0
  -25.8990  -34.9300   23.4110 C   0  0  0  0  0  0  0  0  0  0  0  0
  -26.5670  -34.8330   22.3790 O   0  0  0  0  0  0  0  0  0  0  0  0
  -24.9840  -34.0200   24.9740 H   0  0  0  0  0  0  0  0  0  0  0  0
  -24.1680  -36.7240   23.0760 C   0  0  0  0  0  1  0  0  0  0  0  0
  -25.4130  -36.3160   23.8800 C   0  0  0  0  0  3  0  0  0  0  0  0
  -27.5520  -37.1970   24.7070 C   0  0  0  0  0  1  0  0  0  0  0  0
  -26.4460  -37.3710   23.7700 N   0  0  0  0  0  0  0  0  0  0  0  0
  -26.0380  -38.2890   23.9300 H   0  0  0  0  0  0  0  0  0  0  0  0
  -27.0790  -24.7630   21.7040 C   0  0  0  0  0  2  0  0  0  0  0  0
  -25.9720  -23.6810   21.6640 C   0  0  0  0  0  2  0  0  0  0  0  0
  -24.7230  -24.2170   21.0330 C   0  0  0  0  0  0  0  0  0  0  0  0
  -24.3650  -23.8220   19.8010 N   0  0  0  0  0  4  0  0  0  0  0  0
  -23.9740  -25.0950   21.7100 N   0  0  0  0  0  0  0  0  0  0  0  0
  -24.9000  -23.1270   19.2960 H   0  0  0  0  0  0  0  0  0  0  0  0
  -23.5130  -24.1220   19.3490 H   0  0  0  0  0  0  0  0  0  0  0  0
  -24.2340  -25.3700   22.6470 H   0  0  0  0  0  0  0  0  0  0  0  0
  -23.1470  -25.5190   21.3240 H   0  0  0  0  0  0  0  0  0  0  0  0
  1 88  1  0
  2  1  1  0
  3  2  2  0
  4  2  1  0
  4  5  2  0
  6  5  1  0
  6  7  1  0
  8 17  1  0
  8  7  1  0
  9 17  1  0
 10 15  1  0
 11 12  1  0
 11 10  1  0
 13 12  1  0
 13 22  1  0
 13 14  1  0
 15  9  1  0
 15 14  1  0
 16  9  2  0
 17 18  1  0
 19 20  2  0
 20 39  1  0
 21 20  1  0
 21 24  1  0
 22 19  1  0
 22 23  1  0
 23 21  2  0
 24 25  1  0
 25 26  2  0
 27 30  1  0
 27 26  1  0
 28 27  2  0
 29 28  1  0
 29 24  2  0
 30 31  1  0
 31 32  1  0
 32 33  2  0
 34 33  1  0
 34 38  1  0
 35 34  2  0
 36 31  2  0
 36 35  1  0
 37 36  1  0
 39 40  1  0
 40 43  1  0
 40 42  1  0
 41 39  2  0
 44 45  1  0
 44 19  1  0
 46 44  1  0
 47  1  1  0
 48 59  2  0
 49 47  1  0
 49 54  1  0
 50 58  1  0
 50 60  1  0
 51 57  1  0
 51 53  1  0
 52 58  1  0
 53 54  2  0
 53 52  1  0
 55 56  1  0
 55 49  2  0
 56 51  2  0
 57 50  1  0
 58 48  1  0
 60 62  2  0
 61 60  1  0
 63 61  1  0
 64 73  2  0
 64 69  1  0
 65 61  1  0
 65 69  1  0
 66 65  1  0
 67 68  1  0
 67 66  1  0
 68 64  1  0
 69 70  2  0
 70 71  1  0
 72 71  2  0
 73 72  1  0
 74 48  1  0
 74 79  1  0
 74 75  1  0
 75 78  1  1
 75 76  1  0
 77 75  1  0
 79 82  1  0
 80 84  1  0
 80 79  1  0
 81 80  2  0
 84 83  1  0
 86 84  1  0
 86 87  1  0
 86 85  1  0
 89 88  1  0
 90 89  1  0
 90 92  1  0
 91 90  2  0
 92 95  1  0
 93 91  1  0
 94 91  1  0
 96 92  1  0
M  ISO  4   1 101   9 100  17 100  47 101
M  END
>  <TORSDO>  (45) 
F 25

>  <SCORE>  (45) 
-12.317

>  <name>  (45) 
44

>  <ligand_id>  (45) 
44

>  <original_smiles>  (45) 
[H]c1c([H])c([H])c2c(c1[H])C([H])([H])C([H])([H])C([H])([H])C2([H])N([H])C(=O)C1([H])N(C(=O)C([H])(N([H])C(=O)C([H])(N([H])C([H])([H])[H])C([H])([H])[H])C(C([H])([H])[H])(C([H])([H])[H])C([H])([H])[H])C([H])([H])c2c([H])c(OC([H])(C(=O)C([H])([H])C([H])([H])C([H])([H])C([H])([H])C([H])([H])N([H])C(=O)N3C([H])([H])C([H])([H])C([H])([H])C([H])(n4nc(-c5c([H])c([H])c(Oc6c([H])c([H])c(F)c([H])c6F)c([H])c5[H])c(C(=O)N([H])[H])c4N([H])[H])C3([H])[H])C([H])([H])C([H])([H])C(N([H])[H])=[N+]([H])[H])c([H])c([H])c2C1([H])[H]

>  <smiles>  (45) 
[H]c1c([H])c([H])c2c(c1[H])C([H])([H])C([H])([H])C([H])([H])C2([H])N([H])C(=O)C1([H])N(C(=O)C([H])(N([H])C(=O)C([H])(N([H])C([H])([H])[H])C([H])([H])[H])C(C([H])([H])[H])(C([H])([H])[H])C([H])([H])[H])C([H])([H])c2c([H])c(OC([H])(C(=O)C([H])([H])C([H])([H])C([H])([H])C([H])([H])C([H])([H])N([H])C(=O)N3C([H])([H])C([H])([H])C([H])([H])C([H])(n4nc(-c5c([H])c([H])c(Oc6c([H])c([H])c(F)c([H])c6F)c([H])c5[H])c(C(=O)N([H])[H])c4N([H])[H])C3([H])[H])C([H])([H])C([H])([H])C(N([H])[H])=[N+]([H])[H])c([H])c([H])c2C1([H])[H]

$$$$
45:0:0
     RDKit          3D

 94101  0  0  1  0  0  0  0  0999 V2000
  -28.8290  -20.4490   20.2360 C   0  0  0  0  0  0  0  0  0  0  0  0
  -27.6310  -20.1940   20.0940 O   0  0  0  0  0  0  0  0  0  0  0  0
  -29.7340  -22.4330   21.7720 C   0  0  0  0  0  1  0  0  0  0  0  0
  -30.1370  -22.6170   19.3190 C   0  0  0  0  0  1  0  0  0  0  0  0
  -29.0800  -22.3000   20.3820 C   0  0  1  0  0  0  0  0  0  0  0  0
  -28.0060  -23.9000   20.2880 C   0  0  0  0  0  2  0  0  0  0  0  0
  -28.1670  -25.6430   20.3660 O   0  0  0  0  0  0  0  0  0  0  0  0
  -24.6520  -31.9180   23.2180 C   0  0  0  0  0  0  0  0  0  0  0  0
  -27.1760  -26.8290   20.2990 C   0  0  0  0  0  0  0  0  0  0  0  0
  -23.4530  -30.5040   21.6020 C   0  0  0  0  0  3  0  0  0  0  0  0
  -24.8980  -28.8380   20.2110 C   0  0  0  0  0  0  0  0  0  0  0  0
  -26.0310  -30.6550   21.4630 C   0  0  0  0  0  2  0  0  0  0  0  0
  -26.0940  -29.2130   20.8330 C   0  0  0  0  0  0  0  0  0  0  0  0
  -27.2170  -28.2360   20.8450 C   0  0  0  0  0  3  0  0  0  0  0  0
  -25.9390  -26.6490   19.6240 C   0  0  0  0  0  3  0  0  0  0  0  0
  -24.8560  -27.5790   19.5820 C   0  0  0  0  0  3  0  0  0  0  0  0
  -23.6890  -29.7880   20.2400 C   0  0  0  0  0  2  0  0  0  0  0  0
  -24.7360  -31.0580   22.1460 N   0  0  0  0  0  0  0  0  0  0  0  0
  -23.5630  -32.2270   23.7300 O   0  0  0  0  0  0  0  0  0  0  0  0
  -22.7420  -29.5370   22.5860 C   0  0  0  0  0  0  0  0  0  0  0  0
  -21.4100  -29.3760   22.4600 N   0  0  0  0  0  0  0  0  0  0  0  0
  -23.3980  -28.9310   23.4360 O   0  0  0  0  0  0  0  0  0  0  0  0
  -20.9310  -29.9170   21.7540 H   0  0  0  0  0  0  0  0  0  0  0  0
  -18.0250  -28.1650   22.9890 C   0  0  0  0  0  0  0  0  0  0  0  0
  -20.5850  -28.4520   23.2480 C   0  0  0  0  0  3  0  0  0  0  0  0
  -20.6920  -27.0080   22.7030 C   0  0  0  0  0  2  0  0  0  0  0  0
  -19.5940  -26.6630   21.6910 C   0  0  0  0  0  2  0  0  0  0  0  0
  -18.2090  -26.8090   22.3310 C   0  0  0  0  0  2  0  0  0  0  0  0
  -19.1400  -28.9430   23.4050 C   0  0  0  0  0  0  0  0  0  0  0  0
  -18.9080  -30.2090   23.9850 C   0  0  0  0  0  3  0  0  0  0  0  0
  -17.5980  -30.6970   24.1550 C   0  0  0  0  0  3  0  0  0  0  0  0
  -16.5000  -29.9190   23.7490 C   0  0  0  0  0  3  0  0  0  0  0  0
  -16.7150  -28.6560   23.1710 C   0  0  0  0  0  3  0  0  0  0  0  0
  -25.9200  -32.5720   23.8440 C   0  0  0  0  0  3  0  0  0  0  0  0
  -26.4120  -31.8360   25.1520 C   0  0  1  0  0  0  0  0  0  0  0  0
  -25.3050  -31.6460   26.2140 C   0  0  0  0  0  1  0  0  0  0  0  0
  -26.9860  -30.4400   24.8220 C   0  0  0  0  0  1  0  0  0  0  0  0
  -27.5630  -32.6380   25.8040 C   0  0  0  0  0  1  0  0  0  0  0  0
  -25.6070  -33.9830   24.1520 N   0  0  0  0  0  0  0  0  0  0  0  0
  -25.9230  -35.0300   23.3770 C   0  0  0  0  0  0  0  0  0  0  0  0
  -26.5650  -34.9090   22.3320 O   0  0  0  0  0  0  0  0  0  0  0  0
  -25.0340  -34.1510   24.9660 H   0  0  0  0  0  0  0  0  0  0  0  0
  -24.1860  -36.8290   23.0560 C   0  0  0  0  0  1  0  0  0  0  0  0
  -25.4540  -36.4290   23.8290 C   0  0  0  0  0  3  0  0  0  0  0  0
  -27.6120  -37.3370   24.5780 C   0  0  0  0  0  1  0  0  0  0  0  0
  -26.4840  -37.4810   23.6630 N   0  0  0  0  0  0  0  0  0  0  0  0
  -26.0790  -38.4050   23.7980 H   0  0  0  0  0  0  0  0  0  0  0  0
  -29.9200  -18.8310   20.2650 C   0  0  0  0  0  0  0  0  0  0  0  0
  -30.3530  -15.7070   20.2140 C   0  0  0  0  0  0  0  0  0  0  0  0
  -30.4140  -13.1820   19.3650 C   0  0  0  0  0  2  0  0  0  0  0  0
  -29.5030  -12.7820   18.1690 C   0  0  0  0  0  2  0  0  0  0  0  0
  -28.1030  -12.4050   18.6660 C   0  0  0  0  0  2  0  0  0  0  0  0
  -27.5910  -13.4090   19.7220 C   0  0  0  0  0  3  0  0  0  0  0  0
  -28.6350  -13.7530   20.8130 C   0  0  0  0  0  2  0  0  0  0  0  0
  -29.7980  -14.3610   20.1230 N   0  0  0  0  0  0  0  0  0  0  0  0
  -31.5900  -15.6200   20.1080 O   0  0  0  0  0  0  0  0  0  0  0  0
  -29.6290  -17.0820   20.2040 N   0  0  0  0  0  4  0  0  0  0  0  0
  -28.6340  -16.9140   20.1540 H   0  0  0  0  0  0  0  0  0  0  0  0
  -25.2350  -13.9060   20.5310 C   0  0  0  0  0  0  0  0  0  0  0  0
  -24.1880  -13.1060   20.8980 C   0  0  0  0  0  0  0  0  0  0  0  0
  -24.6750  -11.7650   20.8430 C   0  0  0  0  0  0  0  0  0  0  0  0
  -26.2870  -13.0500   20.2640 N   0  0  0  0  0  0  0  0  0  0  0  0
  -25.9640  -11.7530   20.5140 N   0  0  0  0  0  0  0  0  0  0  0  0
  -23.9640  -10.4910   21.0210 C   0  0  0  0  0  0  0  0  0  0  0  0
  -24.3910   -9.5300   21.9650 C   0  0  0  0  0  3  0  0  0  0  0  0
  -23.6770   -8.3230   22.1310 C   0  0  0  0  0  3  0  0  0  0  0  0
  -22.5210   -8.0700   21.3540 C   0  0  0  0  0  0  0  0  0  0  0  0
  -22.1130   -9.0190   20.4010 C   0  0  0  0  0  3  0  0  0  0  0  0
  -22.8270  -10.2170   20.2320 C   0  0  0  0  0  3  0  0  0  0  0  0
  -21.7770   -6.9150   21.4320 O   0  0  0  0  0  0  0  0  0  0  0  0
  -21.6800   -6.1980   22.5970 C   0  0  0  0  0  0  0  0  0  0  0  0
  -21.1270   -6.7530   23.7720 C   0  0  0  0  0  3  0  0  0  0  0  0
  -20.9830   -5.9600   24.9270 C   0  0  0  0  0  3  0  0  0  0  0  0
  -21.3780   -4.6090   24.9080 C   0  0  0  0  0  0  0  0  0  0  0  0
  -21.9230   -4.0510   23.7370 C   0  0  0  0  0  3  0  0  0  0  0  0
  -22.0700   -4.8430   22.5850 C   0  0  0  0  0  0  0  0  0  0  0  0
  -22.5750   -4.2920   21.4540 F   0  0  0  0  0  0  0  0  0  0  0  0
  -21.2330   -3.8430   26.0150 F   0  0  0  0  0  0  0  0  0  0  0  0
  -22.7880  -13.5630   21.1830 C   0  0  0  0  0  0  0  0  0  0  0  0
  -22.0750  -12.8500   22.0490 N   0  0  0  0  0  0  0  0  0  0  0  0
  -22.3330  -14.5870   20.6750 O   0  0  0  0  0  0  0  0  0  0  0  0
  -22.4540  -12.0260   22.4860 H   0  0  0  0  0  0  0  0  0  0  0  0
  -21.1350  -13.1350   22.2820 H   0  0  0  0  0  0  0  0  0  0  0  0
  -25.3770  -15.2790   20.3660 N   0  0  0  0  0  0  0  0  0  0  0  0
  -24.5980  -15.9170   20.4890 H   0  0  0  0  0  0  0  0  0  0  0  0
  -26.2090  -15.7330   20.0100 H   0  0  0  0  0  0  0  0  0  0  0  0
  -31.1190  -19.0680   19.2980 C   0  0  0  0  0  2  0  0  0  0  0  0
  -30.7860  -19.2790   17.8010 C   0  0  0  0  0  2  0  0  0  0  0  0
  -32.0410  -19.4160   16.9000 C   0  0  0  0  0  2  0  0  0  0  0  0
  -31.7440  -19.9770   15.4850 C   0  0  0  0  0  2  0  0  0  0  0  0
  -32.9600  -20.2430   14.6920 N   0  0  0  0  0  4  0  0  0  0  0  0
  -33.5790  -20.8890   15.1520 H   0  0  0  0  0  0  0  0  0  0  0  0
  -32.7060  -20.6380   13.8030 H   0  0  0  0  0  0  0  0  0  0  0  0
  -33.4600  -19.3930   14.5090 H   0  0  0  0  0  0  0  0  0  0  0  0
  1 48  1  0
  1  5  1  0
  2  1  2  0
  5  4  1  6
  5  3  1  0
  6  7  1  0
  6  5  1  0
  8 19  2  0
  9  7  1  0
  9 14  1  0
 10 18  1  0
 10 20  1  0
 11 17  1  0
 11 13  1  0
 12 18  1  0
 13 14  2  0
 13 12  1  0
 15  9  2  0
 16 15  1  0
 16 11  2  0
 17 10  1  0
 18  8  1  0
 20 22  2  0
 21 20  1  0
 23 21  1  0
 24 33  2  0
 24 29  1  0
 25 21  1  0
 25 29  1  0
 26 25  1  0
 27 28  1  0
 27 26  1  0
 28 24  1  0
 29 30  2  0
 30 31  1  0
 32 31  2  0
 33 32  1  0
 34  8  1  0
 34 39  1  0
 34 35  1  0
 35 38  1  1
 35 36  1  0
 37 35  1  0
 39 42  1  0
 40 44  1  0
 40 39  1  0
 41 40  2  0
 44 43  1  0
 46 47  1  0
 46 44  1  0
 46 45  1  0
 50 55  1  0
 51 52  1  0
 51 50  1  0
 53 52  1  0
 53 62  1  0
 53 54  1  0
 55 49  1  0
 55 54  1  0
 56 49  2  0
 57 49  1  0
 57 48  2  0
 58 57  1  0
 59 60  2  0
 60 79  1  0
 61 60  1  0
 61 64  1  0
 62 63  1  0
 62 59  1  0
 63 61  2  0
 64 65  1  0
 65 66  2  0
 67 70  1  0
 67 66  1  0
 68 67  2  0
 69 68  1  0
 69 64  2  0
 70 71  1  0
 71 72  1  0
 72 73  2  0
 74 73  1  0
 74 78  1  0
 75 74  2  0
 76 71  2  0
 76 75  1  0
 77 76  1  0
 79 80  1  0
 80 83  1  0
 80 82  1  0
 81 79  2  0
 84 85  1  0
 84 59  1  0
 86 84  1  0
 87 48  1  0
 88 87  1  0
 89 88  1  0
 90 89  1  0
 91 92  1  0
 91 90  1  0
 93 91  1  0
 94 91  1  0
M  ISO  4   6 101   7 101  49 100  57 100
M  END
>  <TORSDO>  (46) 
F 24

>  <SCORE>  (46) 
-14.642

>  <name>  (46) 
45

>  <ligand_id>  (46) 
45

>  <original_smiles>  (46) 
[H]c1c([H])c([H])c2c(c1[H])C([H])([H])C([H])([H])C([H])([H])C2([H])N([H])C(=O)C1([H])N(C(=O)C([H])(N([H])C(=O)C([H])(N([H])C([H])([H])[H])C([H])([H])[H])C(C([H])([H])[H])(C([H])([H])[H])C([H])([H])[H])C([H])([H])c2c([H])c(OC([H])([H])C(C(=O)C([H])(N([H])C(=O)N3C([H])([H])C([H])([H])C([H])([H])C([H])(n4nc(-c5c([H])c([H])c(Oc6c([H])c([H])c(F)c([H])c6F)c([H])c5[H])c(C(=O)N([H])[H])c4N([H])[H])C3([H])[H])C([H])([H])C([H])([H])C([H])([H])C([H])([H])[N+]([H])([H])[H])(C([H])([H])[H])C([H])([H])[H])c([H])c([H])c2C1([H])[H]

>  <smiles>  (46) 
[H]c1c([H])c([H])c2c(c1[H])C([H])([H])C([H])([H])C([H])([H])C2([H])N([H])C(=O)C1([H])N(C(=O)C([H])(N([H])C(=O)C([H])(N([H])C([H])([H])[H])C([H])([H])[H])C(C([H])([H])[H])(C([H])([H])[H])C([H])([H])[H])C([H])([H])c2c([H])c(OC([H])([H])C(C(=O)C([H])(N([H])C(=O)N3C([H])([H])C([H])([H])C([H])([H])C([H])(n4nc(-c5c([H])c([H])c(Oc6c([H])c([H])c(F)c([H])c6F)c([H])c5[H])c(C(=O)N([H])[H])c4N([H])[H])C3([H])[H])C([H])([H])C([H])([H])C([H])([H])C([H])([H])[N+]([H])([H])[H])(C([H])([H])[H])C([H])([H])[H])c([H])c([H])c2C1([H])[H]

$$$$
46:0:0
     RDKit          3D

 92100  0  0  1  0  0  0  0  0999 V2000
  -29.1180  -22.8560   20.1940 C   0  0  0  0  0  3  0  0  0  0  0  0
  -29.5530  -19.9230   20.4300 C   0  0  0  0  0  0  0  0  0  0  0  0
  -28.9750  -21.2000   19.9280 N   0  0  0  0  0  0  0  0  0  0  0  0
  -30.0260  -19.9650   21.5650 O   0  0  0  0  0  0  0  0  0  0  0  0
  -28.4840  -21.0340   19.0580 H   0  0  0  0  0  0  0  0  0  0  0  0
  -30.4130  -15.4140   20.0590 C   0  0  0  0  0  0  0  0  0  0  0  0
  -30.3680  -12.9390   19.2170 C   0  0  0  0  0  2  0  0  0  0  0  0
  -29.4060  -12.6940   18.0250 C   0  0  0  0  0  2  0  0  0  0  0  0
  -27.9780  -12.3770   18.5210 C   0  0  0  0  0  2  0  0  0  0  0  0
  -27.5400  -13.3250   19.6610 C   0  0  0  0  0  3  0  0  0  0  0  0
  -28.6460  -13.5450   20.7300 C   0  0  0  0  0  2  0  0  0  0  0  0
  -29.8390  -14.0920   20.0390 N   0  0  0  0  0  0  0  0  0  0  0  0
  -31.6430  -15.3800   19.8960 O   0  0  0  0  0  0  0  0  0  0  0  0
  -27.6660  -17.7410   18.9430 C   0  0  0  0  0  2  0  0  0  0  0  0
  -28.8770  -18.4620   18.4080 C   0  0  0  0  0  2  0  0  0  0  0  0
  -28.3040  -16.4710   19.4840 C   0  0  0  0  0  2  0  0  0  0  0  0
  -29.7880  -18.3680   19.6310 C   0  0  0  0  0  3  0  0  0  0  0  0
  -29.6460  -16.7190   20.0050 N   0  0  0  0  0  0  0  0  0  0  0  0
  -25.2020  -13.9180   20.5070 C   0  0  0  0  0  0  0  0  0  0  0  0
  -24.1470  -13.1500   20.9060 C   0  0  0  0  0  0  0  0  0  0  0  0
  -24.6080  -11.8000   20.8450 C   0  0  0  0  0  0  0  0  0  0  0  0
  -26.2340  -13.0340   20.2270 N   0  0  0  0  0  0  0  0  0  0  0  0
  -25.8880  -11.7520   20.4930 N   0  0  0  0  0  0  0  0  0  0  0  0
  -23.8800  -10.5450   21.0400 C   0  0  0  0  0  0  0  0  0  0  0  0
  -24.3290   -9.5670   21.9530 C   0  0  0  0  0  3  0  0  0  0  0  0
  -23.5970   -8.3750   22.1380 C   0  0  0  0  0  3  0  0  0  0  0  0
  -22.4040   -8.1560   21.4070 C   0  0  0  0  0  0  0  0  0  0  0  0
  -21.9760   -9.1250   20.4820 C   0  0  0  0  0  3  0  0  0  0  0  0
  -22.7100  -10.3070   20.2950 C   0  0  0  0  0  3  0  0  0  0  0  0
  -21.6420   -7.0170   21.5020 O   0  0  0  0  0  0  0  0  0  0  0  0
  -21.6060   -6.2730   22.6540 C   0  0  0  0  0  0  0  0  0  0  0  0
  -21.1820   -6.8230   23.8820 C   0  0  0  0  0  3  0  0  0  0  0  0
  -21.0920   -6.0060   25.0270 C   0  0  0  0  0  3  0  0  0  0  0  0
  -21.4170   -4.6380   24.9420 C   0  0  0  0  0  0  0  0  0  0  0  0
  -21.8360   -4.0870   23.7170 C   0  0  0  0  0  3  0  0  0  0  0  0
  -21.9260   -4.9020   22.5750 C   0  0  0  0  0  0  0  0  0  0  0  0
  -22.3090   -4.3630   21.3930 F   0  0  0  0  0  0  0  0  0  0  0  0
  -21.3230   -3.8490   26.0380 F   0  0  0  0  0  0  0  0  0  0  0  0
  -22.7650  -13.6400   21.2210 C   0  0  0  0  0  0  0  0  0  0  0  0
  -22.0520  -12.9500   22.1020 N   0  0  0  0  0  0  0  0  0  0  0  0
  -22.3250  -14.6770   20.7230 O   0  0  0  0  0  0  0  0  0  0  0  0
  -22.4220  -12.1180   22.5350 H   0  0  0  0  0  0  0  0  0  0  0  0
  -21.1270  -13.2650   22.3510 H   0  0  0  0  0  0  0  0  0  0  0  0
  -25.3330  -15.2900   20.3280 N   0  0  0  0  0  0  0  0  0  0  0  0
  -24.5500  -15.9200   20.4700 H   0  0  0  0  0  0  0  0  0  0  0  0
  -26.1360  -15.7490   19.9250 H   0  0  0  0  0  0  0  0  0  0  0  0
  -30.1670  -23.3580   19.1690 C   0  0  0  0  0  2  0  0  0  0  0  0
  -32.3830  -22.5070   20.1030 C   0  0  0  0  0  1  0  0  0  0  0  0
  -32.1580  -23.0790   17.6580 C   0  0  0  0  0  1  0  0  0  0  0  0
  -31.4360  -22.5240   18.8950 C   0  0  0  0  0  3  0  0  0  0  0  0
  -27.9780  -24.2530   20.1070 C   0  0  0  0  0  2  0  0  0  0  0  0
  -28.1930  -25.8890   20.2640 O   0  0  0  0  0  0  0  0  0  0  0  0
  -24.6300  -31.8740   23.2190 C   0  0  0  0  0  0  0  0  0  0  0  0
  -27.1790  -26.9820   20.2060 C   0  0  0  0  0  0  0  0  0  0  0  0
  -23.4420  -30.4800   21.5750 C   0  0  0  0  0  3  0  0  0  0  0  0
  -24.8900  -28.8730   20.1580 C   0  0  0  0  0  0  0  0  0  0  0  0
  -26.0100  -30.6800   21.4470 C   0  0  0  0  0  2  0  0  0  0  0  0
  -26.0770  -29.2720   20.7840 C   0  0  0  0  0  0  0  0  0  0  0  0
  -27.2150  -28.3470   20.7820 C   0  0  0  0  0  3  0  0  0  0  0  0
  -25.9590  -26.7330   19.5380 C   0  0  0  0  0  3  0  0  0  0  0  0
  -24.8560  -27.6240   19.5150 C   0  0  0  0  0  3  0  0  0  0  0  0
  -23.6770  -29.8000   20.1990 C   0  0  0  0  0  2  0  0  0  0  0  0
  -24.7160  -31.0390   22.1340 N   0  0  0  0  0  0  0  0  0  0  0  0
  -23.5380  -32.1700   23.7320 O   0  0  0  0  0  0  0  0  0  0  0  0
  -22.7370  -29.4870   22.5380 C   0  0  0  0  0  0  0  0  0  0  0  0
  -21.4080  -29.3260   22.4020 N   0  0  0  0  0  0  0  0  0  0  0  0
  -23.3940  -28.8630   23.3740 O   0  0  0  0  0  0  0  0  0  0  0  0
  -20.9290  -29.8780   21.7040 H   0  0  0  0  0  0  0  0  0  0  0  0
  -18.0180  -28.1270   22.8880 C   0  0  0  0  0  0  0  0  0  0  0  0
  -20.5770  -28.3930   23.1700 C   0  0  0  0  0  3  0  0  0  0  0  0
  -20.6830  -26.9580   22.6030 C   0  0  0  0  0  2  0  0  0  0  0  0
  -19.5890  -26.6320   21.5810 C   0  0  0  0  0  2  0  0  0  0  0  0
  -18.2020  -26.7770   22.2130 C   0  0  0  0  0  2  0  0  0  0  0  0
  -19.1340  -28.8930   23.3220 C   0  0  0  0  0  0  0  0  0  0  0  0
  -18.9060  -30.1530   23.9150 C   0  0  0  0  0  3  0  0  0  0  0  0
  -17.5980  -30.6490   24.0780 C   0  0  0  0  0  3  0  0  0  0  0  0
  -16.4990  -29.8800   23.6590 C   0  0  0  0  0  3  0  0  0  0  0  0
  -16.7090  -28.6200   23.0690 C   0  0  0  0  0  3  0  0  0  0  0  0
  -25.8980  -32.5140   23.8610 C   0  0  0  0  0  3  0  0  0  0  0  0
  -26.3890  -31.7560   25.1580 C   0  0  1  0  0  0  0  0  0  0  0  0
  -25.2770  -31.5400   26.2120 C   0  0  0  0  0  1  0  0  0  0  0  0
  -26.9700  -30.3710   24.7990 C   0  0  0  0  0  1  0  0  0  0  0  0
  -27.5330  -32.5540   25.8300 C   0  0  0  0  0  1  0  0  0  0  0  0
  -25.5860  -33.9170   24.1870 N   0  0  0  0  0  0  0  0  0  0  0  0
  -25.9130  -34.9730   23.4310 C   0  0  0  0  0  0  0  0  0  0  0  0
  -26.5730  -34.8710   22.3940 O   0  0  0  0  0  0  0  0  0  0  0  0
  -25.0020  -34.0720   24.9970 H   0  0  0  0  0  0  0  0  0  0  0  0
  -24.1810  -36.7740   23.1140 C   0  0  0  0  0  1  0  0  0  0  0  0
  -25.4370  -36.3640   23.9000 C   0  0  0  0  0  3  0  0  0  0  0  0
  -27.5840  -37.2520   24.6950 C   0  0  0  0  0  1  0  0  0  0  0  0
  -26.4670  -37.4180   23.7680 N   0  0  0  0  0  0  0  0  0  0  0  0
  -26.0620  -38.3360   23.9260 H   0  0  0  0  0  0  0  0  0  0  0  0
  1 47  1  0
  2  4  2  0
  3  1  1  0
  3  2  1  0
  5  3  1  0
  7 12  1  0
  8  9  1  0
  8  7  1  0
 10  9  1  0
 10 22  1  0
 10 11  1  0
 12  6  1  0
 12 11  1  0
 13  6  2  0
 14 16  1  0
 15 14  1  0
 15 17  1  0
 16 18  1  0
 17 18  1  0
 17  2  1  0
 18  6  1  0
 19 20  2  0
 20 39  1  0
 21 20  1  0
 21 24  1  0
 22 23  1  0
 22 19  1  0
 23 21  2  0
 24 25  1  0
 25 26  2  0
 27 30  1  0
 27 26  1  0
 28 27  2  0
 29 28  1  0
 29 24  2  0
 30 31  1  0
 31 32  1  0
 32 33  2  0
 34 33  1  0
 34 38  1  0
 35 34  2  0
 36 31  2  0
 36 35  1  0
 37 36  1  0
 39 40  1  0
 40 43  1  0
 40 42  1  0
 41 39  2  0
 44 45  1  0
 44 19  1  0
 46 44  1  0
 49 50  1  0
 50 47  1  0
 50 48  1  0
 51  1  1  0
 51 52  1  0
 53 64  2  0
 54 52  1  0
 54 59  1  0
 55 63  1  0
 55 65  1  0
 56 62  1  0
 56 58  1  0
 57 63  1  0
 58 57  1  0
 59 58  2  0
 60 54  2  0
 61 60  1  0
 61 56  2  0
 62 55  1  0
 63 53  1  0
 65 67  2  0
 66 65  1  0
 68 66  1  0
 69 78  2  0
 69 74  1  0
 70 66  1  0
 70 74  1  0
 71 70  1  0
 72 73  1  0
 72 71  1  0
 73 69  1  0
 74 75  2  0
 75 76  1  0
 77 76  2  0
 78 77  1  0
 79 53  1  0
 79 84  1  0
 79 80  1  0
 80 83  1  1
 80 81  1  0
 82 80  1  0
 84 87  1  0
 85 89  1  0
 85 84  1  0
 86 85  2  0
 89 88  1  0
 91 89  1  0
 91 92  1  0
 91 90  1  0
M  ISO  4   6 100  18 100  51 101  52 101
M  END
>  <TORSDO>  (47) 
F 20

>  <SCORE>  (47) 
-16.259

>  <name>  (47) 
46

>  <ligand_id>  (47) 
46

>  <original_smiles>  (47) 
[H]c1c([H])c([H])c2c(c1[H])C([H])([H])C([H])([H])C([H])([H])C2([H])N([H])C(=O)C1([H])N(C(=O)C([H])(N([H])C(=O)C([H])(N([H])C([H])([H])[H])C([H])([H])[H])C(C([H])([H])[H])(C([H])([H])[H])C([H])([H])[H])C([H])([H])c2c([H])c(OC([H])([H])C([H])(N([H])C(=O)C3([H])N(C(=O)N4C([H])([H])C([H])([H])C([H])([H])C([H])(n5nc(-c6c([H])c([H])c(Oc7c([H])c([H])c(F)c([H])c7F)c([H])c6[H])c(C(=O)N([H])[H])c5N([H])[H])C4([H])[H])C([H])([H])C([H])([H])C3([H])[H])C([H])([H])C([H])(C([H])([H])[H])C([H])([H])[H])c([H])c([H])c2C1([H])[H]

>  <smiles>  (47) 
[H]c1c([H])c([H])c2c(c1[H])C([H])([H])C([H])([H])C([H])([H])C2([H])N([H])C(=O)C1([H])N(C(=O)C([H])(N([H])C(=O)C([H])(N([H])C([H])([H])[H])C([H])([H])[H])C(C([H])([H])[H])(C([H])([H])[H])C([H])([H])[H])C([H])([H])c2c([H])c(OC([H])([H])C([H])(N([H])C(=O)C3([H])N(C(=O)N4C([H])([H])C([H])([H])C([H])([H])C([H])(n5nc(-c6c([H])c([H])c(Oc7c([H])c([H])c(F)c([H])c7F)c([H])c6[H])c(C(=O)N([H])[H])c5N([H])[H])C4([H])[H])C([H])([H])C([H])([H])C3([H])[H])C([H])([H])C([H])(C([H])([H])[H])C([H])([H])[H])c([H])c([H])c2C1([H])[H]

$$$$
47:0:0
     RDKit          3D

101108  0  0  1  0  0  0  0  0999 V2000
  -30.1830  -17.2350   20.1190 C   0  0  0  0  0  3  0  0  0  0  0  0
  -30.6180  -14.6970   20.4330 C   0  0  0  0  0  0  0  0  0  0  0  0
  -30.3750  -12.4420   19.4150 C   0  0  0  0  0  2  0  0  0  0  0  0
  -29.4650  -12.5630   18.1730 C   0  0  0  0  0  2  0  0  0  0  0  0
  -27.9840  -12.4230   18.5710 C   0  0  0  0  0  2  0  0  0  0  0  0
  -27.6080  -13.3080   19.7890 C   0  0  0  0  0  3  0  0  0  0  0  0
  -28.6410  -13.1820   20.9330 C   0  0  0  0  0  2  0  0  0  0  0  0
  -29.9620  -13.4920   20.3720 N   0  0  0  0  0  0  0  0  0  0  0  0
  -31.7990  -14.7820   20.0870 O   0  0  0  0  0  0  0  0  0  0  0  0
  -29.8640  -15.8350   20.6190 N   0  0  0  0  0  0  0  0  0  0  0  0
  -28.9210  -15.6980   20.9460 H   0  0  0  0  0  0  0  0  0  0  0  0
  -25.2080  -13.9340   20.4460 C   0  0  0  0  0  0  0  0  0  0  0  0
  -24.1260  -13.1760   20.8040 C   0  0  0  0  0  0  0  0  0  0  0  0
  -24.5760  -11.8200   20.8040 C   0  0  0  0  0  0  0  0  0  0  0  0
  -26.2480  -13.0410   20.2490 N   0  0  0  0  0  0  0  0  0  0  0  0
  -25.8730  -11.7660   20.5270 N   0  0  0  0  0  0  0  0  0  0  0  0
  -23.8340  -10.5670   20.9950 C   0  0  0  0  0  0  0  0  0  0  0  0
  -24.2490   -9.5970   21.9350 C   0  0  0  0  0  3  0  0  0  0  0  0
  -23.5070   -8.4110   22.1130 C   0  0  0  0  0  3  0  0  0  0  0  0
  -22.3350   -8.1850   21.3520 C   0  0  0  0  0  0  0  0  0  0  0  0
  -21.9390   -9.1420   20.4020 C   0  0  0  0  0  3  0  0  0  0  0  0
  -22.6820  -10.3210   20.2220 C   0  0  0  0  0  3  0  0  0  0  0  0
  -21.5640   -7.0500   21.4410 O   0  0  0  0  0  0  0  0  0  0  0  0
  -21.5120   -6.3020   22.5910 C   0  0  0  0  0  0  0  0  0  0  0  0
  -21.1250   -6.8640   23.8270 C   0  0  0  0  0  3  0  0  0  0  0  0
  -21.0180   -6.0450   24.9680 C   0  0  0  0  0  3  0  0  0  0  0  0
  -21.2880   -4.6660   24.8750 C   0  0  0  0  0  0  0  0  0  0  0  0
  -21.6690   -4.1060   23.6440 C   0  0  0  0  0  3  0  0  0  0  0  0
  -21.7770   -4.9210   22.5040 C   0  0  0  0  0  0  0  0  0  0  0  0
  -22.1240   -4.3710   21.3150 F   0  0  0  0  0  0  0  0  0  0  0  0
  -21.1780   -3.8780   25.9700 F   0  0  0  0  0  0  0  0  0  0  0  0
  -22.7270  -13.6700   21.0360 C   0  0  0  0  0  0  0  0  0  0  0  0
  -21.9740  -12.9950   21.8970 N   0  0  0  0  0  0  0  0  0  0  0  0
  -22.3100  -14.6900   20.4890 O   0  0  0  0  0  0  0  0  0  0  0  0
  -22.3230  -12.1680   22.3590 H   0  0  0  0  0  0  0  0  0  0  0  0
  -21.0360  -13.3090   22.0980 H   0  0  0  0  0  0  0  0  0  0  0  0
  -25.3880  -15.3000   20.2490 N   0  0  0  0  0  0  0  0  0  0  0  0
  -24.6230  -15.9600   20.3290 H   0  0  0  0  0  0  0  0  0  0  0  0
  -26.2430  -15.7210   19.9160 H   0  0  0  0  0  0  0  0  0  0  0  0
  -29.7450  -18.5070   20.9700 C   0  0  0  0  0  0  0  0  0  0  0  0
  -29.7630  -19.7710   20.4190 N   0  0  0  0  0  0  0  0  0  0  0  0
  -29.4000  -18.3310   22.1380 O   0  0  0  0  0  0  0  0  0  0  0  0
  -30.0690  -19.8050   19.4570 H   0  0  0  0  0  0  0  0  0  0  0  0
  -29.5360  -21.1230   21.0710 C   0  0  0  0  0  3  0  0  0  0  0  0
  -28.9420  -22.3270   20.1880 C   0  0  0  0  0  3  0  0  0  0  0  0
  -29.0230  -23.8410   20.7340 C   0  0  0  0  0  3  0  0  0  0  0  0
  -28.1220  -24.9710   20.0410 C   0  0  0  0  0  3  0  0  0  0  0  0
  -28.3030  -26.4250   20.3430 O   0  0  0  0  0  0  0  0  0  0  0  0
  -24.6160  -31.9260   23.2400 C   0  0  0  0  0  0  0  0  0  0  0  0
  -27.2020  -27.3020   20.2430 C   0  0  0  0  0  0  0  0  0  0  0  0
  -23.4070  -30.5140   21.6180 C   0  0  0  0  0  3  0  0  0  0  0  0
  -24.8500  -28.9460   20.2020 C   0  0  0  0  0  0  0  0  0  0  0  0
  -25.9490  -30.8140   21.4340 C   0  0  0  0  0  2  0  0  0  0  0  0
  -26.0200  -29.4280   20.8010 C   0  0  0  0  0  0  0  0  0  0  0  0
  -27.1970  -28.6170   20.8150 C   0  0  0  0  0  3  0  0  0  0  0  0
  -26.0140  -26.8960   19.5900 C   0  0  0  0  0  3  0  0  0  0  0  0
  -24.8510  -27.6870   19.5860 C   0  0  0  0  0  3  0  0  0  0  0  0
  -23.6160  -29.8270   20.2430 C   0  0  0  0  0  2  0  0  0  0  0  0
  -24.6760  -31.1030   22.1540 N   0  0  0  0  0  0  0  0  0  0  0  0
  -23.5350  -32.2120   23.7740 O   0  0  0  0  0  0  0  0  0  0  0  0
  -22.7420  -29.5110   22.5900 C   0  0  0  0  0  0  0  0  0  0  0  0
  -21.4160  -29.3310   22.4640 N   0  0  0  0  0  0  0  0  0  0  0  0
  -23.4190  -28.8960   23.4180 O   0  0  0  0  0  0  0  0  0  0  0  0
  -20.9280  -29.8800   21.7690 H   0  0  0  0  0  0  0  0  0  0  0  0
  -18.0390  -28.1320   22.9610 C   0  0  0  0  0  0  0  0  0  0  0  0
  -20.5940  -28.4070   23.2470 C   0  0  0  0  0  3  0  0  0  0  0  0
  -20.7070  -26.9630   22.7030 C   0  0  0  0  0  2  0  0  0  0  0  0
  -19.6150  -26.6150   21.6870 C   0  0  0  0  0  2  0  0  0  0  0  0
  -18.2260  -26.7700   22.3140 C   0  0  0  0  0  2  0  0  0  0  0  0
  -19.1510  -28.9080   23.3840 C   0  0  0  0  0  0  0  0  0  0  0  0
  -18.9220  -30.1810   23.9470 C   0  0  0  0  0  3  0  0  0  0  0  0
  -17.6130  -30.6800   24.0920 C   0  0  0  0  0  3  0  0  0  0  0  0
  -16.5160  -29.9030   23.6860 C   0  0  0  0  0  3  0  0  0  0  0  0
  -16.7290  -28.6310   23.1250 C   0  0  0  0  0  3  0  0  0  0  0  0
  -25.9030  -32.5620   23.8520 C   0  0  0  0  0  3  0  0  0  0  0  0
  -26.4250  -31.7980   25.1310 C   0  0  1  0  0  0  0  0  0  0  0  0
  -25.3390  -31.5690   26.2060 C   0  0  0  0  0  1  0  0  0  0  0  0
  -27.0060  -30.4180   24.7450 C   0  0  0  0  0  1  0  0  0  0  0  0
  -27.5800  -32.5960   25.7810 C   0  0  0  0  0  1  0  0  0  0  0  0
  -25.5940  -33.9620   24.1790 N   0  0  0  0  0  0  0  0  0  0  0  0
  -25.9150  -35.0120   23.4110 C   0  0  0  0  0  0  0  0  0  0  0  0
  -26.5730  -34.9050   22.3730 O   0  0  0  0  0  0  0  0  0  0  0  0
  -25.0120  -34.1210   24.9880 H   0  0  0  0  0  0  0  0  0  0  0  0
  -24.1770  -36.7970   23.0750 C   0  0  0  0  0  1  0  0  0  0  0  0
  -25.4330  -36.4020   23.8670 C   0  0  0  0  0  3  0  0  0  0  0  0
  -27.5810  -37.2960   24.6520 C   0  0  0  0  0  1  0  0  0  0  0  0
  -26.4600  -37.4570   23.7290 N   0  0  0  0  0  0  0  0  0  0  0  0
  -26.0530  -38.3770   23.8820 H   0  0  0  0  0  0  0  0  0  0  0  0
  -29.7940  -17.3360   18.6200 C   0  0  0  0  0  2  0  0  0  0  0  0
  -28.2920  -17.5960   18.3500 C   0  0  0  0  0  2  0  0  0  0  0  0
  -28.0400  -18.9890   17.7400 C   0  0  0  0  0  2  0  0  0  0  0  0
  -26.6060  -19.5060   17.9320 C   0  0  0  0  0  2  0  0  0  0  0  0
  -25.7450  -21.8640   18.1870 C   0  0  0  0  0  0  0  0  0  0  0  0
  -25.8130  -23.1260   17.7810 N   0  0  0  0  0  4  0  0  0  0  0  0
  -24.9080  -21.5440   19.1720 N   0  0  0  0  0  0  0  0  0  0  0  0
  -26.5240  -20.9400   17.6060 N   0  0  0  0  0  0  0  0  0  0  0  0
  -25.2300  -23.8530   18.1700 H   0  0  0  0  0  0  0  0  0  0  0  0
  -26.4450  -23.4080   17.0450 H   0  0  0  0  0  0  0  0  0  0  0  0
  -24.3100  -22.2250   19.6150 H   0  0  0  0  0  0  0  0  0  0  0  0
  -24.8320  -20.5910   19.4920 H   0  0  0  0  0  0  0  0  0  0  0  0
  -27.0890  -21.2280   16.8170 H   0  0  0  0  0  0  0  0  0  0  0  0
  1 89  1  0
  1 10  1  0
  1 40  1  0
  2 10  1  0
  3  8  1  0
  4  5  1  0
  4  3  1  0
  6  5  1  0
  6 15  1  0
  6  7  1  0
  8  2  1  0
  8  7  1  0
  9  2  2  0
 10 11  1  0
 12 13  2  0
 13 32  1  0
 14 13  1  0
 14 17  1  0
 15 12  1  0
 15 16  1  0
 16 14  2  0
 17 18  1  0
 18 19  2  0
 20 23  1  0
 20 19  1  0
 21 20  2  0
 22 21  1  0
 22 17  2  0
 23 24  1  0
 24 25  1  0
 25 26  2  0
 27 26  1  0
 27 31  1  0
 28 27  2  0
 29 24  2  0
 29 28  1  0
 30 29  1  0
 32 33  1  0
 33 36  1  0
 33 35  1  0
 34 32  2  0
 37 38  1  0
 37 12  1  0
 39 37  1  0
 40 42  2  0
 41 40  1  0
 41 44  1  0
 43 41  1  0
 45 46  1  0
 45 44  2  0
 47 48  1  0
 47 46  2  0
 49 60  2  0
 50 48  1  0
 50 55  1  0
 51 59  1  0
 51 61  1  0
 52 58  1  0
 52 54  1  0
 53 59  1  0
 54 55  2  0
 54 53  1  0
 56 50  2  0
 57 56  1  0
 57 52  2  0
 58 51  1  0
 59 49  1  0
 61 63  2  0
 62 61  1  0
 64 62  1  0
 65 74  2  0
 65 70  1  0
 66 62  1  0
 66 70  1  0
 67 66  1  0
 68 69  1  0
 68 67  1  0
 69 65  1  0
 70 71  2  0
 71 72  1  0
 73 72  2  0
 74 73  1  0
 75 49  1  0
 75 80  1  0
 75 76  1  0
 76 79  1  1
 76 77  1  0
 78 76  1  0
 80 83  1  0
 81 85  1  0
 81 80  1  0
 82 81  2  0
 85 84  1  0
 87 85  1  0
 87 88  1  0
 87 86  1  0
 90 89  1  0
 91 92  1  0
 91 90  1  0
 93 95  1  0
 94 97  1  0
 94 93  2  0
 95100  1  0
 95 99  1  0
 96 92  1  0
 96 93  1  0
 98 94  1  0
101 96  1  0
M  ISO  4   2 100  10 100  47 101  48 101
M  END
>  <TORSDO>  (48) 
F 26

>  <SCORE>  (48) 
-11.280

>  <name>  (48) 
47

>  <ligand_id>  (48) 
47

>  <original_smiles>  (48) 
[H]c1c([H])c([H])c2c(c1[H])C([H])([H])C([H])([H])C([H])([H])C2([H])N([H])C(=O)C1([H])N(C(=O)C([H])(N([H])C(=O)C([H])(N([H])C([H])([H])[H])C([H])([H])[H])C(C([H])([H])[H])(C([H])([H])[H])C([H])([H])[H])C([H])([H])c2c([H])c(OC([H])([H])C([H])([H])C([H])([H])C([H])([H])N([H])C(=O)C([H])(N([H])C(=O)N3C([H])([H])C([H])([H])C([H])([H])C([H])(n4nc(-c5c([H])c([H])c(Oc6c([H])c([H])c(F)c([H])c6F)c([H])c5[H])c(C(=O)N([H])[H])c4N([H])[H])C3([H])[H])C([H])([H])C([H])([H])C([H])([H])C([H])([H])N([H])C(N([H])[H])=[N+]([H])[H])c([H])c([H])c2C1([H])[H]

>  <smiles>  (48) 
[H]c1c([H])c([H])c2c(c1[H])C([H])([H])C([H])([H])C([H])([H])C2([H])N([H])C(=O)C1([H])N(C(=O)C([H])(N([H])C(=O)C([H])(N([H])C([H])([H])[H])C([H])([H])[H])C(C([H])([H])[H])(C([H])([H])[H])C([H])([H])[H])C([H])([H])c2c([H])c(OC([H])([H])C([H])([H])C([H])([H])C([H])([H])N([H])C(=O)C([H])(N([H])C(=O)N3C([H])([H])C([H])([H])C([H])([H])C([H])(n4nc(-c5c([H])c([H])c(Oc6c([H])c([H])c(F)c([H])c6F)c([H])c5[H])c(C(=O)N([H])[H])c4N([H])[H])C3([H])[H])C([H])([H])C([H])([H])C([H])([H])C([H])([H])N([H])C(N([H])[H])=[N+]([H])[H])c([H])c([H])c2C1([H])[H]

$$$$
48:0:0
     RDKit          3D

106113  0  0  1  0  0  0  0  0999 V2000
  -30.4450  -19.8370   19.5390 C   0  0  0  0  0  0  0  0  0  0  0  0
  -30.9310  -19.8730   20.7200 N   0  0  0  0  0  0  0  0  0  0  0  0
  -30.9310  -18.3000   18.8240 C   0  0  0  0  0  3  0  0  0  0  0  0
  -31.3020  -15.4690   19.4700 C   0  0  0  0  0  0  0  0  0  0  0  0
  -31.2090  -12.9050   19.1530 C   0  0  0  0  0  2  0  0  0  0  0  0
  -30.2670  -12.4710   18.0030 C   0  0  0  0  0  2  0  0  0  0  0  0
  -28.8210  -12.3340   18.5090 C   0  0  0  0  0  2  0  0  0  0  0  0
  -28.4070  -13.5240   19.4110 C   0  0  0  0  0  3  0  0  0  0  0  0
  -29.4750  -13.8890   20.4650 C   0  0  0  0  0  2  0  0  0  0  0  0
  -30.7050  -14.2080   19.7250 N   0  0  0  0  0  0  0  0  0  0  0  0
  -32.5060  -15.3790   19.1910 O   0  0  0  0  0  0  0  0  0  0  0  0
  -30.5850  -16.7530   19.3370 N   0  0  0  0  0  0  0  0  0  0  0  0
  -29.6120  -16.6630   19.5870 H   0  0  0  0  0  0  0  0  0  0  0  0
  -26.2020  -14.3200   20.4150 C   0  0  0  0  0  0  0  0  0  0  0  0
  -25.0680  -13.6620   20.7960 C   0  0  0  0  0  0  0  0  0  0  0  0
  -25.3290  -12.2720   20.5950 C   0  0  0  0  0  0  0  0  0  0  0  0
  -27.0860  -13.3420   19.9990 N   0  0  0  0  0  0  0  0  0  0  0  0
  -26.5780  -12.0940   20.1740 N   0  0  0  0  0  0  0  0  0  0  0  0
  -24.4410  -11.1100   20.7220 C   0  0  0  0  0  0  0  0  0  0  0  0
  -24.7950   -9.9900   21.5070 C   0  0  0  0  0  3  0  0  0  0  0  0
  -23.9130   -8.8950   21.6310 C   0  0  0  0  0  3  0  0  0  0  0  0
  -22.6620   -8.9120   20.9690 C   0  0  0  0  0  0  0  0  0  0  0  0
  -22.3240  -10.0190   20.1710 C   0  0  0  0  0  3  0  0  0  0  0  0
  -23.2050  -11.1060   20.0450 C   0  0  0  0  0  3  0  0  0  0  0  0
  -21.7510   -7.8830   21.0110 O   0  0  0  0  0  0  0  0  0  0  0  0
  -21.6790   -7.0300   22.0840 C   0  0  0  0  0  0  0  0  0  0  0  0
  -21.4030   -7.4940   23.3880 C   0  0  0  0  0  3  0  0  0  0  0  0
  -21.2690   -6.5760   24.4480 C   0  0  0  0  0  3  0  0  0  0  0  0
  -21.4000   -5.1950   24.2060 C   0  0  0  0  0  0  0  0  0  0  0  0
  -21.6700   -4.7310   22.9050 C   0  0  0  0  0  3  0  0  0  0  0  0
  -21.8050   -5.6460   21.8480 C   0  0  0  0  0  0  0  0  0  0  0  0
  -22.0440   -5.1920   20.5930 F   0  0  0  0  0  0  0  0  0  0  0  0
  -21.2640   -4.3110   25.2210 F   0  0  0  0  0  0  0  0  0  0  0  0
  -23.7770  -14.2960   21.2260 C   0  0  0  0  0  0  0  0  0  0  0  0
  -23.0270  -13.6300   22.0960 N   0  0  0  0  0  0  0  0  0  0  0  0
  -23.4510  -15.4130   20.8270 O   0  0  0  0  0  0  0  0  0  0  0  0
  -23.3070  -12.7220   22.4370 H   0  0  0  0  0  0  0  0  0  0  0  0
  -22.1620  -14.0330   22.4260 H   0  0  0  0  0  0  0  0  0  0  0  0
  -26.5500  -15.6660   20.3570 N   0  0  0  0  0  0  0  0  0  0  0  0
  -25.9310  -16.4010   20.6780 H   0  0  0  0  0  0  0  0  0  0  0  0
  -27.4470  -16.0190   20.0510 H   0  0  0  0  0  0  0  0  0  0  0  0
  -32.4840  -18.3370   18.7470 C   0  0  0  0  0  2  0  0  0  0  0  0
  -33.1400  -19.4740   17.9290 C   0  0  0  0  0  2  0  0  0  0  0  0
  -34.6720  -19.3810   17.9100 C   0  0  0  0  0  0  0  0  0  0  0  0
  -35.3180  -20.1220   17.0220 N   0  0  0  0  0  0  0  0  0  0  0  0
  -35.2830  -18.6550   18.6930 O   0  0  0  0  0  0  0  0  0  0  0  0
  -34.8190  -20.7160   16.3750 H   0  0  0  0  0  0  0  0  0  0  0  0
  -36.3290  -20.1050   16.9890 H   0  0  0  0  0  0  0  0  0  0  0  0
  -29.4570  -21.1960   18.9200 C   0  0  0  0  0  3  0  0  0  0  0  0
  -29.0310  -20.8400   17.5540 N   0  0  0  0  0  4  0  0  0  0  0  0
  -29.7810  -20.9400   16.8940 H   0  0  0  0  0  0  0  0  0  0  0  0
  -28.2750  -21.4290   17.2590 H   0  0  0  0  0  0  0  0  0  0  0  0
  -28.6970  -19.8930   17.5220 H   0  0  0  0  0  0  0  0  0  0  0  0
  -29.6050  -22.9880   19.0120 C   0  0  0  0  0  3  0  0  0  0  0  0
  -28.4260  -24.3230   18.8220 C   0  0  0  0  0  3  0  0  0  0  0  0
  -28.4860  -25.9550   18.9280 O   0  0  0  0  0  0  0  0  0  0  0  0
  -24.6940  -31.0630   22.9150 C   0  0  0  0  0  0  0  0  0  0  0  0
  -27.3630  -26.9130   19.0670 C   0  0  0  0  0  0  0  0  0  0  0  0
  -23.4650  -29.7370   21.2410 C   0  0  0  0  0  3  0  0  0  0  0  0
  -24.8930  -28.4890   19.4840 C   0  0  0  0  0  0  0  0  0  0  0  0
  -25.9600  -30.2640   20.8640 C   0  0  0  0  0  2  0  0  0  0  0  0
  -26.0930  -28.9590   20.0310 C   0  0  0  0  0  0  0  0  0  0  0  0
  -27.3170  -28.1910   19.8060 C   0  0  0  0  0  3  0  0  0  0  0  0
  -26.1170  -26.5930   18.4850 C   0  0  0  0  0  3  0  0  0  0  0  0
  -24.9230  -27.3290   18.6910 C   0  0  0  0  0  3  0  0  0  0  0  0
  -23.6010  -29.2490   19.7710 C   0  0  0  0  0  2  0  0  0  0  0  0
  -24.7300  -30.3780   21.7270 N   0  0  0  0  0  0  0  0  0  0  0  0
  -23.6500  -31.1620   23.5790 O   0  0  0  0  0  0  0  0  0  0  0  0
  -22.9940  -28.5640   22.1380 C   0  0  0  0  0  0  0  0  0  0  0  0
  -21.7300  -28.1280   21.9800 N   0  0  0  0  0  0  0  0  0  0  0  0
  -23.7730  -28.0470   22.9440 O   0  0  0  0  0  0  0  0  0  0  0  0
  -21.1420  -28.6090   21.3130 H   0  0  0  0  0  0  0  0  0  0  0  0
  -18.7560  -26.0600   22.1950 C   0  0  0  0  0  0  0  0  0  0  0  0
  -21.1190  -26.9970   22.6860 C   0  0  0  0  0  3  0  0  0  0  0  0
  -21.6490  -25.6490   22.1430 C   0  0  0  0  0  2  0  0  0  0  0  0
  -20.7700  -25.0570   21.0360 C   0  0  0  0  0  2  0  0  0  0  0  0
  -19.3470  -24.8180   21.5500 C   0  0  0  0  0  2  0  0  0  0  0  0
  -19.5860  -27.0900   22.7130 C   0  0  0  0  0  0  0  0  0  0  0  0
  -18.9830  -28.2380   23.2710 C   0  0  0  0  0  3  0  0  0  0  0  0
  -17.5820  -28.3650   23.3190 C   0  0  0  0  0  3  0  0  0  0  0  0
  -16.7660  -27.3380   22.8150 C   0  0  0  0  0  3  0  0  0  0  0  0
  -17.3520  -26.1880   22.2590 C   0  0  0  0  0  3  0  0  0  0  0  0
  -25.9610  -31.7670   23.4910 C   0  0  0  0  0  3  0  0  0  0  0  0
  -26.6490  -30.9540   24.6560 C   0  0  1  0  0  0  0  0  0  0  0  0
  -25.6790  -30.5480   25.7900 C   0  0  0  0  0  1  0  0  0  0  0  0
  -27.3040  -29.6610   24.1170 C   0  0  0  0  0  1  0  0  0  0  0  0
  -27.7870  -31.7950   25.2810 C   0  0  0  0  0  1  0  0  0  0  0  0
  -25.5580  -33.1000   23.9740 N   0  0  0  0  0  0  0  0  0  0  0  0
  -25.8000  -34.2530   23.3370 C   0  0  0  0  0  0  0  0  0  0  0  0
  -26.4470  -34.3110   22.2880 O   0  0  0  0  0  0  0  0  0  0  0  0
  -24.9780  -33.1230   24.8000 H   0  0  0  0  0  0  0  0  0  0  0  0
  -23.9540  -35.9620   23.2090 C   0  0  0  0  0  1  0  0  0  0  0  0
  -25.2330  -35.5460   23.9570 C   0  0  0  0  0  3  0  0  0  0  0  0
  -27.3200  -36.4690   24.8650 C   0  0  0  0  0  1  0  0  0  0  0  0
  -26.1920  -36.6720   23.9590 N   0  0  0  0  0  0  0  0  0  0  0  0
  -25.7290  -37.5390   24.2160 H   0  0  0  0  0  0  0  0  0  0  0  0
  -30.7790  -20.9630   21.6710 C   0  0  0  0  0  3  0  0  0  0  0  0
  -30.7740  -20.3610   23.1010 C   0  0  0  0  0  0  0  0  0  0  0  0
  -29.8490  -20.7930   23.9500 N   0  0  0  0  0  0  0  0  0  0  0  0
  -31.5640  -19.4790   23.4360 O   0  0  0  0  0  0  0  0  0  0  0  0
  -29.2040  -21.5250   23.6860 H   0  0  0  0  0  0  0  0  0  0  0  0
  -29.8020  -20.4100   24.8820 H   0  0  0  0  0  0  0  0  0  0  0  0
  -31.5960  -23.3180   22.2620 C   0  0  0  0  0  1  0  0  0  0  0  0
  -31.8460  -22.5020   19.9250 C   0  0  0  0  0  1  0  0  0  0  0  0
  -33.3090  -21.5640   21.7170 C   0  0  0  0  0  1  0  0  0  0  0  0
  -31.8750  -22.0600   21.4080 C   0  0  2  0  0  0  0  0  0  0  0  0
  1  2  2  0
  3 42  1  0
  3 12  1  0
  3  1  1  0
  4 10  1  0
  5 10  1  0
  6  7  1  0
  6  5  1  0
  8  7  1  0
  8 17  1  0
  8  9  1  0
 10  9  1  0
 11  4  2  0
 12  4  1  0
 12 13  1  0
 14 15  2  0
 15 34  1  0
 16 19  1  0
 16 15  1  0
 17 18  1  0
 17 14  1  0
 18 16  2  0
 19 20  1  0
 20 21  2  0
 22 25  1  0
 22 21  1  0
 23 22  2  0
 24 23  1  0
 24 19  2  0
 25 26  1  0
 26 27  1  0
 27 28  2  0
 29 28  1  0
 29 33  1  0
 30 29  2  0
 31 26  2  0
 31 30  1  0
 32 31  1  0
 34 35  1  0
 35 38  1  0
 35 37  1  0
 36 34  2  0
 39 14  1  0
 39 40  1  0
 41 39  1  0
 43 42  1  0
 44 43  1  0
 44 46  2  0
 45 44  1  0
 47 45  1  0
 48 45  1  0
 49 54  1  0
 49  1  1  0
 50 49  1  0
 51 50  1  0
 52 50  1  0
 53 50  1  0
 55 56  1  0
 55 54  2  0
 56 58  1  0
 57 68  2  0
 58 63  1  0
 59 67  1  0
 59 69  1  0
 60 66  1  0
 60 62  1  0
 61 67  1  0
 62 61  1  0
 63 62  2  0
 64 65  1  0
 64 58  2  0
 65 60  2  0
 66 59  1  0
 67 57  1  0
 69 71  2  0
 70 69  1  0
 72 70  1  0
 73 82  2  0
 73 78  1  0
 74 70  1  0
 74 78  1  0
 75 74  1  0
 76 77  1  0
 76 75  1  0
 77 73  1  0
 78 79  2  0
 79 80  1  0
 81 80  2  0
 82 81  1  0
 83 57  1  0
 83 88  1  0
 83 84  1  0
 84 87  1  1
 84 85  1  0
 86 84  1  0
 88 91  1  0
 89 93  1  0
 89 88  1  0
 90 89  2  0
 93 92  1  0
 93 95  1  0
 95 96  1  0
 95 94  1  0
 97  2  1  0
 97 98  1  0
 98100  2  0
 98 99  1  0
 99102  1  0
101 99  1  0
106104  1  6
106 97  1  0
106105  1  0
106103  1  0
M  ISO  4   4 100  12 100  55 101  56 101
M  END
>  <TORSDO>  (49) 
F 27

>  <SCORE>  (49) 
-8.750

>  <name>  (49) 
48

>  <ligand_id>  (49) 
48

>  <original_smiles>  (49) 
[H]c1c([H])c([H])c2c(c1[H])C([H])([H])C([H])([H])C([H])([H])C2([H])N([H])C(=O)C1([H])N(C(=O)C([H])(N([H])C(=O)C([H])(N([H])C([H])([H])[H])C([H])([H])[H])C(C([H])([H])[H])(C([H])([H])[H])C([H])([H])[H])C([H])([H])c2c([H])c(OC([H])([H])C([H])([H])C([H])(C(=NC([H])(C(=O)N([H])[H])C(C([H])([H])[H])(C([H])([H])[H])C([H])([H])[H])C([H])(N([H])C(=O)N3C([H])([H])C([H])([H])C([H])([H])C([H])(n4nc(-c5c([H])c([H])c(Oc6c([H])c([H])c(F)c([H])c6F)c([H])c5[H])c(C(=O)N([H])[H])c4N([H])[H])C3([H])[H])C([H])([H])C([H])([H])C(=O)N([H])[H])[N+]([H])([H])[H])c([H])c([H])c2C1([H])[H]

>  <smiles>  (49) 
[H]c1c([H])c([H])c2c(c1[H])C([H])([H])C([H])([H])C([H])([H])C2([H])N([H])C(=O)C1([H])N(C(=O)C([H])(N([H])C(=O)C([H])(N([H])C([H])([H])[H])C([H])([H])[H])C(C([H])([H])[H])(C([H])([H])[H])C([H])([H])[H])C([H])([H])c2c([H])c(OC([H])([H])C([H])([H])C([H])(C(=NC([H])(C(=O)N([H])[H])C(C([H])([H])[H])(C([H])([H])[H])C([H])([H])[H])C([H])(N([H])C(=O)N3C([H])([H])C([H])([H])C([H])([H])C([H])(n4nc(-c5c([H])c([H])c(Oc6c([H])c([H])c(F)c([H])c6F)c([H])c5[H])c(C(=O)N([H])[H])c4N([H])[H])C3([H])[H])C([H])([H])C([H])([H])C(=O)N([H])[H])[N+]([H])([H])[H])c([H])c([H])c2C1([H])[H]

$$$$
49:0:0
     RDKit          3D

 91 98  0  0  1  0  0  0  0  0999 V2000
  -29.2290  -22.0000   20.0470 N   0  0  0  0  0  4  0  0  0  0  0  0
  -29.9340  -22.1480   19.3450 H   0  0  0  0  0  0  0  0  0  0  0  0
  -28.4090  -21.7030   19.5410 H   0  0  0  0  0  0  0  0  0  0  0  0
  -28.8730  -23.4400   20.6440 C   0  0  0  0  0  2  0  0  0  0  0  0
  -28.2220  -24.7280   19.7830 C   0  0  0  0  0  2  0  0  0  0  0  0
  -28.2600  -26.2430   20.1700 O   0  0  0  0  0  0  0  0  0  0  0  0
  -24.6300  -31.8870   23.1740 C   0  0  0  0  0  0  0  0  0  0  0  0
  -27.1780  -27.1960   20.0840 C   0  0  0  0  0  0  0  0  0  0  0  0
  -23.4090  -30.4860   21.5540 C   0  0  0  0  0  3  0  0  0  0  0  0
  -24.8370  -28.9280   20.0970 C   0  0  0  0  0  0  0  0  0  0  0  0
  -25.9560  -30.7710   21.3400 C   0  0  0  0  0  2  0  0  0  0  0  0
  -26.0220  -29.3800   20.6870 C   0  0  0  0  0  0  0  0  0  0  0  0
  -27.1870  -28.5260   20.6700 C   0  0  0  0  0  3  0  0  0  0  0  0
  -25.9670  -26.8510   19.4450 C   0  0  0  0  0  3  0  0  0  0  0  0
  -24.8230  -27.6780   19.4610 C   0  0  0  0  0  3  0  0  0  0  0  0
  -23.6060  -29.8170   20.1680 C   0  0  0  0  0  2  0  0  0  0  0  0
  -24.6860  -31.0710   22.0770 N   0  0  0  0  0  0  0  0  0  0  0  0
  -23.5520  -32.1630   23.7210 O   0  0  0  0  0  0  0  0  0  0  0  0
  -22.7570  -29.4720   22.5270 C   0  0  0  0  0  0  0  0  0  0  0  0
  -21.4330  -29.2690   22.4060 N   0  0  0  0  0  0  0  0  0  0  0  0
  -23.4460  -28.8700   23.3550 O   0  0  0  0  0  0  0  0  0  0  0  0
  -20.9310  -29.8080   21.7140 H   0  0  0  0  0  0  0  0  0  0  0  0
  -18.0910  -27.9490   22.8740 C   0  0  0  0  0  0  0  0  0  0  0  0
  -20.6320  -28.3230   23.1880 C   0  0  0  0  0  3  0  0  0  0  0  0
  -20.8040  -26.8790   22.6580 C   0  0  0  0  0  2  0  0  0  0  0  0
  -19.7380  -26.4830   21.6320 C   0  0  0  0  0  2  0  0  0  0  0  0
  -18.3380  -26.5910   22.2410 C   0  0  0  0  0  2  0  0  0  0  0  0
  -19.1700  -28.7700   23.3030 C   0  0  0  0  0  0  0  0  0  0  0  0
  -18.8860  -30.0390   23.8520 C   0  0  0  0  0  3  0  0  0  0  0  0
  -17.5570  -30.4870   23.9830 C   0  0  0  0  0  3  0  0  0  0  0  0
  -16.4950  -29.6650   23.5680 C   0  0  0  0  0  3  0  0  0  0  0  0
  -16.7630  -28.3980   23.0180 C   0  0  0  0  0  3  0  0  0  0  0  0
  -25.9160  -32.5300   23.7780 C   0  0  0  0  0  3  0  0  0  0  0  0
  -25.5960  -33.9220   24.1320 N   0  0  0  0  0  0  0  0  0  0  0  0
  -25.9170  -34.9920   23.3920 C   0  0  0  0  0  0  0  0  0  0  0  0
  -26.5830  -34.9110   22.3560 O   0  0  0  0  0  0  0  0  0  0  0  0
  -25.0080  -34.0580   24.9410 H   0  0  0  0  0  0  0  0  0  0  0  0
  -24.1770  -36.7850   23.0870 C   0  0  0  0  0  1  0  0  0  0  0  0
  -25.4260  -36.3690   23.8810 C   0  0  0  0  0  3  0  0  0  0  0  0
  -27.5640  -37.2500   24.7080 C   0  0  0  0  0  1  0  0  0  0  0  0
  -26.4510  -37.4300   23.7790 N   0  0  0  0  0  0  0  0  0  0  0  0
  -26.0400  -38.3440   23.9510 H   0  0  0  0  0  0  0  0  0  0  0  0
  -26.4610  -31.7550   25.0410 C   0  0  1  0  0  0  0  0  0  0  0  0
  -25.3890  -31.5000   26.1270 C   0  0  0  0  0  1  0  0  0  0  0  0
  -27.0510  -30.3850   24.6310 C   0  0  0  0  0  1  0  0  0  0  0  0
  -27.6200  -32.5530   25.6830 C   0  0  0  0  0  1  0  0  0  0  0  0
  -29.6920  -20.7090   20.8730 C   0  0  0  0  0  3  0  0  0  0  0  0
  -30.9330  -19.7370   22.8920 C   0  0  0  0  0  1  0  0  0  0  0  0
  -32.2390  -20.9690   21.0690 C   0  0  0  0  0  1  0  0  0  0  0  0
  -30.8660  -22.1380   22.7820 C   0  0  0  0  0  1  0  0  0  0  0  0
  -30.9180  -20.8970   21.8580 C   0  0  1  0  0  0  0  0  0  0  0  0
  -29.5890  -19.1210   20.2270 C   0  0  0  0  0  2  0  0  0  0  0  0
  -30.6220  -17.7730   20.3540 C   0  0  0  0  0  2  0  0  0  0  0  0
  -30.9610  -15.0550   20.0020 C   0  0  0  0  0  0  0  0  0  0  0  0
  -30.7490  -12.7180   19.0390 C   0  0  0  0  0  2  0  0  0  0  0  0
  -29.7750  -12.6920   17.8390 C   0  0  0  0  0  2  0  0  0  0  0  0
  -28.3210  -12.5220   18.3220 C   0  0  0  0  0  2  0  0  0  0  0  0
  -27.9760  -13.4690   19.5000 C   0  0  0  0  0  3  0  0  0  0  0  0
  -29.0620  -13.4440   20.5940 C   0  0  0  0  0  2  0  0  0  0  0  0
  -30.3240  -13.8200   19.9470 N   0  0  0  0  0  0  0  0  0  0  0  0
  -32.1630  -15.0910   19.7160 O   0  0  0  0  0  0  0  0  0  0  0  0
  -30.2170  -16.2540   20.1800 N   0  0  0  0  0  0  0  0  0  0  0  0
  -29.2330  -16.0770   20.3160 H   0  0  0  0  0  0  0  0  0  0  0  0
  -25.6370  -14.1200   20.3070 C   0  0  0  0  0  0  0  0  0  0  0  0
  -24.5600  -13.3760   20.7030 C   0  0  0  0  0  0  0  0  0  0  0  0
  -24.9840  -12.0120   20.6550 C   0  0  0  0  0  0  0  0  0  0  0  0
  -26.6460  -13.2120   20.0350 N   0  0  0  0  0  0  0  0  0  0  0  0
  -26.2640  -11.9380   20.3120 N   0  0  0  0  0  0  0  0  0  0  0  0
  -24.2260  -10.7700   20.8580 C   0  0  0  0  0  0  0  0  0  0  0  0
  -24.6390   -9.7960   21.7940 C   0  0  0  0  0  3  0  0  0  0  0  0
  -23.8810   -8.6200   21.9840 C   0  0  0  0  0  3  0  0  0  0  0  0
  -22.6970   -8.4100   21.2370 C   0  0  0  0  0  0  0  0  0  0  0  0
  -22.3040   -9.3720   20.2890 C   0  0  0  0  0  3  0  0  0  0  0  0
  -23.0620  -10.5400   20.0980 C   0  0  0  0  0  3  0  0  0  0  0  0
  -21.9110   -7.2870   21.3360 O   0  0  0  0  0  0  0  0  0  0  0  0
  -21.8290   -6.5680   22.5020 C   0  0  0  0  0  0  0  0  0  0  0  0
  -21.4070   -7.1610   23.7140 C   0  0  0  0  0  3  0  0  0  0  0  0
  -21.2710   -6.3710   24.8720 C   0  0  0  0  0  3  0  0  0  0  0  0
  -21.5430   -4.9900   24.8210 C   0  0  0  0  0  0  0  0  0  0  0  0
  -21.9540   -4.3990   23.6140 C   0  0  0  0  0  3  0  0  0  0  0  0
  -22.0950   -5.1850   22.4580 C   0  0  0  0  0  0  0  0  0  0  0  0
  -22.4730   -4.6060   21.2920 F   0  0  0  0  0  0  0  0  0  0  0  0
  -21.4030   -4.2290   25.9310 F   0  0  0  0  0  0  0  0  0  0  0  0
  -23.1850  -13.8920   21.0100 C   0  0  0  0  0  0  0  0  0  0  0  0
  -22.4630  -13.2180   21.8990 N   0  0  0  0  0  0  0  0  0  0  0  0
  -22.7620  -14.9280   20.5000 O   0  0  0  0  0  0  0  0  0  0  0  0
  -22.8180  -12.3770   22.3290 H   0  0  0  0  0  0  0  0  0  0  0  0
  -21.5430  -13.5480   22.1530 H   0  0  0  0  0  0  0  0  0  0  0  0
  -25.8380  -15.4860   20.1260 N   0  0  0  0  0  0  0  0  0  0  0  0
  -25.0930  -16.1620   20.2530 H   0  0  0  0  0  0  0  0  0  0  0  0
  -26.6750  -15.8940   19.7320 H   0  0  0  0  0  0  0  0  0  0  0  0
  1  4  1  0
  1 47  1  0
  2  1  1  0
  3  1  1  0
  5  6  1  0
  5  4  1  0
  7 18  2  0
  8  6  1  0
  8 13  1  0
  9 17  1  0
  9 19  1  0
 10 16  1  0
 10 12  1  0
 11 17  1  0
 12 11  1  0
 13 12  2  0
 14 15  1  0
 14  8  2  0
 15 10  2  0
 16  9  1  0
 17  7  1  0
 19 21  2  0
 20 19  1  0
 22 20  1  0
 23 32  2  0
 23 28  1  0
 24 20  1  0
 24 28  1  0
 25 24  1  0
 26 27  1  0
 26 25  1  0
 27 23  1  0
 28 29  2  0
 29 30  1  0
 31 30  2  0
 32 31  1  0
 33  7  1  0
 33 34  1  0
 33 43  1  0
 34 37  1  0
 35 39  1  0
 35 34  1  0
 36 35  2  0
 39 38  1  0
 41 39  1  0
 41 42  1  0
 41 40  1  0
 43 46  1  1
 43 44  1  0
 45 43  1  0
 47 52  1  0
 47 51  1  0
 51 49  1  6
 51 50  1  0
 51 48  1  0
 52 53  1  0
 54 62  1  0
 55 60  1  0
 56 57  1  0
 56 55  1  0
 58 57  1  0
 58 67  1  0
 58 59  1  0
 60 54  1  0
 60 59  1  0
 61 54  2  0
 62 63  1  0
 62 53  1  0
 64 65  2  0
 65 84  1  0
 66 65  1  0
 66 69  1  0
 67 64  1  0
 67 68  1  0
 68 66  2  0
 69 70  1  0
 70 71  2  0
 72 75  1  0
 72 71  1  0
 73 72  2  0
 74 73  1  0
 74 69  2  0
 75 76  1  0
 76 77  1  0
 77 78  2  0
 79 78  1  0
 79 83  1  0
 80 79  2  0
 81 76  2  0
 81 80  1  0
 82 81  1  0
 84 85  1  0
 85 88  1  0
 85 87  1  0
 86 84  2  0
 89 90  1  0
 89 64  1  0
 91 89  1  0
M  ISO  4   5 101   6 101  54 100  62 100
M  END
>  <TORSDO>  (50) 
F 22

>  <SCORE>  (50) 
-13.701

>  <name>  (50) 
49

>  <ligand_id>  (50) 
49

>  <original_smiles>  (50) 
[H]c1c([H])c([H])c2c(c1[H])C([H])([H])C([H])([H])C([H])([H])C2([H])N([H])C(=O)C1([H])N(C(=O)C([H])(N([H])C(=O)C([H])(N([H])C([H])([H])[H])C([H])([H])[H])C(C([H])([H])[H])(C([H])([H])[H])C([H])([H])[H])C([H])([H])c2c([H])c(OC([H])([H])C([H])([H])[N+]([H])([H])C([H])(C([H])([H])C([H])([H])N([H])C(=O)N3C([H])([H])C([H])([H])C([H])([H])C([H])(n4nc(-c5c([H])c([H])c(Oc6c([H])c([H])c(F)c([H])c6F)c([H])c5[H])c(C(=O)N([H])[H])c4N([H])[H])C3([H])[H])C(C([H])([H])[H])(C([H])([H])[H])C([H])([H])[H])c([H])c([H])c2C1([H])[H]

>  <smiles>  (50) 
[H]c1c([H])c([H])c2c(c1[H])C([H])([H])C([H])([H])C([H])([H])C2([H])N([H])C(=O)C1([H])N(C(=O)C([H])(N([H])C(=O)C([H])(N([H])C([H])([H])[H])C([H])([H])[H])C(C([H])([H])[H])(C([H])([H])[H])C([H])([H])[H])C([H])([H])c2c([H])c(OC([H])([H])C([H])([H])[N+]([H])([H])C([H])(C([H])([H])C([H])([H])N([H])C(=O)N3C([H])([H])C([H])([H])C([H])([H])C([H])(n4nc(-c5c([H])c([H])c(Oc6c([H])c([H])c(F)c([H])c6F)c([H])c5[H])c(C(=O)N([H])[H])c4N([H])[H])C3([H])[H])C(C([H])([H])[H])(C([H])([H])[H])C([H])([H])[H])c([H])c([H])c2C1([H])[H]

$$$$
50:0:0
     RDKit          3D

100107  0  0  1  0  0  0  0  0999 V2000
  -29.8800  -25.2950   24.0420 C   0  0  0  0  0  2  0  0  0  0  0  0
  -29.2950  -26.1010   22.8610 C   0  0  0  0  0  2  0  0  0  0  0  0
  -30.1870  -26.1370   21.5910 C   0  0  0  0  0  3  0  0  0  0  0  0
  -30.3050  -24.8160   20.9480 N   0  0  0  0  0  4  0  0  0  0  0  0
  -29.3990  -24.4910   20.6550 H   0  0  0  0  0  0  0  0  0  0  0  0
  -30.7180  -24.1490   21.5740 H   0  0  0  0  0  0  0  0  0  0  0  0
  -30.8860  -24.8930   20.1340 H   0  0  0  0  0  0  0  0  0  0  0  0
  -29.6100  -27.1050   20.5390 C   0  0  0  0  0  0  0  0  0  0  0  0
  -30.1660  -28.1460   20.1740 O   0  0  0  0  0  0  0  0  0  0  0  0
  -28.3920  -26.6850   20.1120 O   0  0  0  0  0  0  0  0  0  0  0  0
  -24.6090  -31.8700   23.2130 C   0  0  0  0  0  0  0  0  0  0  0  0
  -27.2730  -27.4940   20.0960 C   0  0  0  0  0  0  0  0  0  0  0  0
  -23.3970  -30.4880   21.5510 C   0  0  0  0  0  3  0  0  0  0  0  0
  -24.8530  -28.9640   20.1110 C   0  0  0  0  0  0  0  0  0  0  0  0
  -25.9150  -30.8630   21.3510 C   0  0  0  0  0  2  0  0  0  0  0  0
  -26.0020  -29.4980   20.7040 C   0  0  0  0  0  0  0  0  0  0  0  0
  -27.2070  -28.7740   20.7020 C   0  0  0  0  0  3  0  0  0  0  0  0
  -26.1070  -26.9710   19.4990 C   0  0  0  0  0  3  0  0  0  0  0  0
  -24.8980  -27.6950   19.5040 C   0  0  0  0  0  3  0  0  0  0  0  0
  -23.6030  -29.8120   20.1650 C   0  0  0  0  0  2  0  0  0  0  0  0
  -24.6580  -31.0870   22.0980 N   0  0  0  0  0  0  0  0  0  0  0  0
  -23.5290  -32.1410   23.7560 O   0  0  0  0  0  0  0  0  0  0  0  0
  -22.7400  -29.4640   22.5020 C   0  0  0  0  0  0  0  0  0  0  0  0
  -21.4140  -29.2990   22.3730 N   0  0  0  0  0  0  0  0  0  0  0  0
  -23.4190  -28.8200   23.3060 O   0  0  0  0  0  0  0  0  0  0  0  0
  -20.9310  -29.8620   21.6870 H   0  0  0  0  0  0  0  0  0  0  0  0
  -18.0260  -28.1370   22.8460 C   0  0  0  0  0  0  0  0  0  0  0  0
  -20.5850  -28.3630   23.1340 C   0  0  0  0  0  3  0  0  0  0  0  0
  -20.6780  -26.9380   22.5420 C   0  0  0  0  0  2  0  0  0  0  0  0
  -19.5770  -26.6370   21.5200 C   0  0  0  0  0  2  0  0  0  0  0  0
  -18.1940  -26.7910   22.1590 C   0  0  0  0  0  2  0  0  0  0  0  0
  -19.1510  -28.8820   23.2890 C   0  0  0  0  0  0  0  0  0  0  0  0
  -18.9450  -30.1430   23.8900 C   0  0  0  0  0  3  0  0  0  0  0  0
  -17.6460  -30.6580   24.0560 C   0  0  0  0  0  3  0  0  0  0  0  0
  -16.5350  -29.9080   23.6330 C   0  0  0  0  0  3  0  0  0  0  0  0
  -16.7260  -28.6500   23.0340 C   0  0  0  0  0  3  0  0  0  0  0  0
  -25.9000  -32.4850   23.8430 C   0  0  0  0  0  3  0  0  0  0  0  0
  -26.4480  -31.6620   25.0720 C   0  0  1  0  0  0  0  0  0  0  0  0
  -25.3780  -31.3680   26.1490 C   0  0  0  0  0  1  0  0  0  0  0  0
  -27.0310  -30.3090   24.6000 C   0  0  0  0  0  1  0  0  0  0  0  0
  -27.6090  -32.4320   25.7460 C   0  0  0  0  0  1  0  0  0  0  0  0
  -25.5890  -33.8650   24.2370 N   0  0  0  0  0  0  0  0  0  0  0  0
  -25.9040  -34.9480   23.5150 C   0  0  0  0  0  0  0  0  0  0  0  0
  -26.5580  -34.8920   22.4710 O   0  0  0  0  0  0  0  0  0  0  0  0
  -25.0130  -33.9830   25.0570 H   0  0  0  0  0  0  0  0  0  0  0  0
  -24.1490  -36.7310   23.2650 C   0  0  0  0  0  1  0  0  0  0  0  0
  -25.4110  -36.3130   24.0350 C   0  0  0  0  0  3  0  0  0  0  0  0
  -27.5600  -37.1810   24.8470 C   0  0  0  0  0  1  0  0  0  0  0  0
  -26.4300  -37.3800   23.9430 N   0  0  0  0  0  0  0  0  0  0  0  0
  -26.0180  -38.2880   24.1450 H   0  0  0  0  0  0  0  0  0  0  0  0
  -28.8860  -25.0950   25.2080 C   0  0  0  0  0  2  0  0  0  0  0  0
  -28.0480  -23.8090   25.1090 C   0  0  0  0  0  2  0  0  0  0  0  0
  -26.5860  -22.8680   23.4840 C   0  0  0  0  0  0  0  0  0  0  0  0
  -25.5900  -23.0100   22.3530 C   0  0  0  0  0  1  0  0  0  0  0  0
  -27.0920  -23.9090   24.0190 N   0  0  0  0  0  0  0  0  0  0  0  0
  -26.8940  -21.4220   23.8620 C   0  0  0  0  0  2  0  0  0  0  0  0
  -28.1170  -20.8750   23.1060 C   0  0  0  0  0  2  0  0  0  0  0  0
  -28.4650  -19.4400   23.5170 C   0  0  0  0  0  2  0  0  0  0  0  0
  -29.7120  -18.9190   22.7940 C   0  0  0  0  0  2  0  0  0  0  0  0
  -30.0310  -17.4620   23.1500 C   0  0  0  0  0  2  0  0  0  0  0  0
  -31.3630  -17.0130   22.5340 C   0  0  0  0  0  2  0  0  0  0  0  0
  -31.6650  -15.5240   22.7550 C   0  0  0  0  0  2  0  0  0  0  0  0
  -30.8450  -14.2600   20.7730 C   0  0  0  0  0  0  0  0  0  0  0  0
  -30.4100  -12.2880   19.3670 C   0  0  0  0  0  2  0  0  0  0  0  0
  -29.4700  -12.5420   18.1790 C   0  0  0  0  0  2  0  0  0  0  0  0
  -28.0030  -12.3820   18.6090 C   0  0  0  0  0  2  0  0  0  0  0  0
  -27.6680  -13.2040   19.8800 C   0  0  0  0  0  3  0  0  0  0  0  0
  -28.7070  -12.9550   20.9960 C   0  0  0  0  0  2  0  0  0  0  0  0
  -30.0600  -13.2020   20.4610 N   0  0  0  0  0  0  0  0  0  0  0  0
  -31.7460  -14.6850   20.0430 O   0  0  0  0  0  0  0  0  0  0  0  0
  -30.7250  -14.6590   22.0460 N   0  0  0  0  0  0  0  0  0  0  0  0
  -30.0090  -14.2020   22.5930 H   0  0  0  0  0  0  0  0  0  0  0  0
  -25.2620  -13.8160   20.5680 C   0  0  0  0  0  0  0  0  0  0  0  0
  -24.1860  -13.0450   20.9160 C   0  0  0  0  0  0  0  0  0  0  0  0
  -24.6400  -11.6910   20.8730 C   0  0  0  0  0  0  0  0  0  0  0  0
  -26.3070  -12.9330   20.3390 N   0  0  0  0  0  0  0  0  0  0  0  0
  -25.9330  -11.6490   20.5770 N   0  0  0  0  0  0  0  0  0  0  0  0
  -23.9070  -10.4300   21.0410 C   0  0  0  0  0  0  0  0  0  0  0  0
  -24.3620   -9.4210   21.9180 C   0  0  0  0  0  3  0  0  0  0  0  0
  -23.6290   -8.2250   22.0760 C   0  0  0  0  0  3  0  0  0  0  0  0
  -22.4280   -8.0290   21.3550 C   0  0  0  0  0  0  0  0  0  0  0  0
  -21.9910   -9.0260   20.4650 C   0  0  0  0  0  3  0  0  0  0  0  0
  -22.7240  -10.2140   20.3050 C   0  0  0  0  0  3  0  0  0  0  0  0
  -21.6640   -6.8890   21.4240 O   0  0  0  0  0  0  0  0  0  0  0  0
  -21.6850   -6.0740   22.5280 C   0  0  0  0  0  0  0  0  0  0  0  0
  -21.4010   -6.5640   23.8220 C   0  0  0  0  0  3  0  0  0  0  0  0
  -21.3660   -5.6790   24.9180 C   0  0  0  0  0  3  0  0  0  0  0  0
  -21.6040   -4.3050   24.7230 C   0  0  0  0  0  0  0  0  0  0  0  0
  -21.8820   -3.8150   23.4350 C   0  0  0  0  0  3  0  0  0  0  0  0
  -21.9190   -4.6970   22.3410 C   0  0  0  0  0  0  0  0  0  0  0  0
  -22.1660   -4.2160   21.0980 F   0  0  0  0  0  0  0  0  0  0  0  0
  -21.5620   -3.4540   25.7740 F   0  0  0  0  0  0  0  0  0  0  0  0
  -22.7880  -13.5250   21.1820 C   0  0  0  0  0  0  0  0  0  0  0  0
  -22.0520  -12.8250   22.0370 N   0  0  0  0  0  0  0  0  0  0  0  0
  -22.3570  -14.5560   20.6660 O   0  0  0  0  0  0  0  0  0  0  0  0
  -22.4120  -11.9910   22.4760 H   0  0  0  0  0  0  0  0  0  0  0  0
  -21.1140  -13.1290   22.2580 H   0  0  0  0  0  0  0  0  0  0  0  0
  -25.4350  -15.1880   20.4090 N   0  0  0  0  0  0  0  0  0  0  0  0
  -24.6730  -15.8480   20.5250 H   0  0  0  0  0  0  0  0  0  0  0  0
  -26.2990  -15.6280   20.1170 H   0  0  0  0  0  0  0  0  0  0  0  0
  1 51  1  0
  2  1  1  0
  3  2  1  0
  4  6  1  0
  4  3  1  0
  5  4  1  0
  7  4  1  0
  8  3  1  0
  9  8  2  0
 10  8  1  0
 11 22  2  0
 12 10  1  0
 12 17  1  0
 13 21  1  0
 13 23  1  0
 14 20  1  0
 14 16  1  0
 15 21  1  0
 16 15  1  0
 17 16  2  0
 18 19  1  0
 18 12  2  0
 19 14  2  0
 20 13  1  0
 21 11  1  0
 23 25  2  0
 24 23  1  0
 26 24  1  0
 27 36  2  0
 27 32  1  0
 28 24  1  0
 28 32  1  0
 29 28  1  0
 30 31  1  0
 30 29  1  0
 31 27  1  0
 32 33  2  0
 33 34  1  0
 35 34  2  0
 36 35  1  0
 37 11  1  0
 37 42  1  0
 37 38  1  0
 38 41  1  1
 38 39  1  0
 40 38  1  0
 42 45  1  0
 43 47  1  0
 43 42  1  0
 44 43  2  0
 47 46  1  0
 49 47  1  0
 49 50  1  0
 49 48  1  0
 52 51  1  0
 53 56  1  0
 53 55  2  0
 54 53  1  0
 55 52  1  0
 57 58  1  0
 57 56  1  0
 59 60  1  0
 59 58  1  0
 61 62  1  0
 61 60  1  0
 63 71  1  0
 64 69  1  0
 65 66  1  0
 65 64  1  0
 67 66  1  0
 67 76  1  0
 67 68  1  0
 69 63  1  0
 69 68  1  0
 70 63  2  0
 71 72  1  0
 71 62  1  0
 73 74  2  0
 74 93  1  0
 75 74  1  0
 75 78  1  0
 76 73  1  0
 76 77  1  0
 77 75  2  0
 78 79  1  0
 79 80  2  0
 81 84  1  0
 81 80  1  0
 82 81  2  0
 83 82  1  0
 83 78  2  0
 84 85  1  0
 85 86  1  0
 86 87  2  0
 88 87  1  0
 88 92  1  0
 89 88  2  0
 90 85  2  0
 90 89  1  0
 91 90  1  0
 93 94  1  0
 94 97  1  0
 94 96  1  0
 95 93  2  0
 98 99  1  0
 98 73  1  0
100 98  1  0
M  ISO  4   8 101  10 101  63 100  71 100
M  END
>  <TORSDO>  (51) 
F 30

>  <SCORE>  (51) 
17.986

>  <name>  (51) 
50

>  <ligand_id>  (51) 
50

>  <original_smiles>  (51) 
[H]c1c([H])c([H])c2c(c1[H])C([H])([H])C([H])([H])C([H])([H])C2([H])N([H])C(=O)C1([H])N(C(=O)C([H])(N([H])C(=O)C([H])(N([H])C([H])([H])[H])C([H])([H])[H])C(C([H])([H])[H])(C([H])([H])[H])C([H])([H])[H])C([H])([H])c2c([H])c(OC(=O)C([H])(C([H])([H])C([H])([H])C([H])([H])C([H])([H])N=C(C([H])([H])[H])C([H])([H])C([H])([H])C([H])([H])C([H])([H])C([H])([H])C([H])([H])C([H])([H])N([H])C(=O)N3C([H])([H])C([H])([H])C([H])([H])C([H])(n4nc(-c5c([H])c([H])c(Oc6c([H])c([H])c(F)c([H])c6F)c([H])c5[H])c(C(=O)N([H])[H])c4N([H])[H])C3([H])[H])[N+]([H])([H])[H])c([H])c([H])c2C1([H])[H]

>  <smiles>  (51) 
[H]c1c([H])c([H])c2c(c1[H])C([H])([H])C([H])([H])C([H])([H])C2([H])N([H])C(=O)C1([H])N(C(=O)C([H])(N([H])C(=O)C([H])(N([H])C([H])([H])[H])C([H])([H])[H])C(C([H])([H])[H])(C([H])([H])[H])C([H])([H])[H])C([H])([H])c2c([H])c(OC(=O)C([H])(C([H])([H])C([H])([H])C([H])([H])C([H])([H])N=C(C([H])([H])[H])C([H])([H])C([H])([H])C([H])([H])C([H])([H])C([H])([H])C([H])([H])C([H])([H])N([H])C(=O)N3C([H])([H])C([H])([H])C([H])([H])C([H])(n4nc(-c5c([H])c([H])c(Oc6c([H])c([H])c(F)c([H])c6F)c([H])c5[H])c(C(=O)N([H])[H])c4N([H])[H])C3([H])[H])[N+]([H])([H])[H])c([H])c([H])c2C1([H])[H]

$$$$
51:0:0
     RDKit          3D

 93100  0  0  1  0  0  0  0  0999 V2000
  -29.7610  -19.8110   19.9180 C   0  0  0  0  0  3  0  0  0  0  0  0
  -29.7210  -18.3920   20.6500 C   0  0  0  0  0  0  0  0  0  0  0  0
  -29.1960  -18.2800   21.7600 O   0  0  0  0  0  0  0  0  0  0  0  0
  -30.3250  -17.1130   19.9530 C   0  0  0  0  0  2  0  0  0  0  0  0
  -30.6790  -14.6100   20.1980 C   0  0  0  0  0  0  0  0  0  0  0  0
  -30.3550  -12.4060   19.1160 C   0  0  0  0  0  2  0  0  0  0  0  0
  -29.3880  -12.5870   17.9260 C   0  0  0  0  0  2  0  0  0  0  0  0
  -27.9280  -12.4420   18.3930 C   0  0  0  0  0  2  0  0  0  0  0  0
  -27.6170  -13.2790   19.6640 C   0  0  0  0  0  3  0  0  0  0  0  0
  -28.7070  -13.1080   20.7470 C   0  0  0  0  0  2  0  0  0  0  0  0
  -30.0030  -13.4210   20.1310 N   0  0  0  0  0  0  0  0  0  0  0  0
  -31.8340  -14.7060   19.7760 O   0  0  0  0  0  0  0  0  0  0  0  0
  -29.9700  -15.7450   20.4840 N   0  0  0  0  0  0  0  0  0  0  0  0
  -29.0390  -15.6340   20.8570 H   0  0  0  0  0  0  0  0  0  0  0  0
  -25.2450  -13.8760   20.4430 C   0  0  0  0  0  0  0  0  0  0  0  0
  -24.1870  -13.1030   20.8380 C   0  0  0  0  0  0  0  0  0  0  0  0
  -24.6450  -11.7510   20.7930 C   0  0  0  0  0  0  0  0  0  0  0  0
  -26.2820  -12.9960   20.1820 N   0  0  0  0  0  0  0  0  0  0  0  0
  -25.9290  -11.7120   20.4520 N   0  0  0  0  0  0  0  0  0  0  0  0
  -23.9210  -10.4900   20.9970 C   0  0  0  0  0  0  0  0  0  0  0  0
  -24.3690   -9.5220   21.9220 C   0  0  0  0  0  3  0  0  0  0  0  0
  -23.6440   -8.3260   22.1150 C   0  0  0  0  0  3  0  0  0  0  0  0
  -22.4570   -8.0890   21.3810 C   0  0  0  0  0  0  0  0  0  0  0  0
  -22.0290   -9.0450   20.4440 C   0  0  0  0  0  3  0  0  0  0  0  0
  -22.7550  -10.2330   20.2490 C   0  0  0  0  0  3  0  0  0  0  0  0
  -21.7020   -6.9450   21.4830 O   0  0  0  0  0  0  0  0  0  0  0  0
  -21.6690   -6.2060   22.6380 C   0  0  0  0  0  0  0  0  0  0  0  0
  -21.2510   -6.7620   23.8670 C   0  0  0  0  0  3  0  0  0  0  0  0
  -21.1650   -5.9490   25.0150 C   0  0  0  0  0  3  0  0  0  0  0  0
  -21.4870   -4.5810   24.9350 C   0  0  0  0  0  0  0  0  0  0  0  0
  -21.8970   -4.0240   23.7110 C   0  0  0  0  0  3  0  0  0  0  0  0
  -21.9840   -4.8350   22.5650 C   0  0  0  0  0  0  0  0  0  0  0  0
  -22.3600   -4.2880   21.3840 F   0  0  0  0  0  0  0  0  0  0  0  0
  -21.3960   -3.7980   26.0350 F   0  0  0  0  0  0  0  0  0  0  0  0
  -22.7970  -13.5830   21.1440 C   0  0  0  0  0  0  0  0  0  0  0  0
  -22.0890  -12.8840   22.0250 N   0  0  0  0  0  0  0  0  0  0  0  0
  -22.3490  -14.6100   20.6380 O   0  0  0  0  0  0  0  0  0  0  0  0
  -22.4650  -12.0530   22.4560 H   0  0  0  0  0  0  0  0  0  0  0  0
  -21.1570  -13.1870   22.2720 H   0  0  0  0  0  0  0  0  0  0  0  0
  -25.4050  -15.2470   20.2630 N   0  0  0  0  0  0  0  0  0  0  0  0
  -24.6400  -15.8990   20.3920 H   0  0  0  0  0  0  0  0  0  0  0  0
  -26.2400  -15.6860   19.8960 H   0  0  0  0  0  0  0  0  0  0  0  0
  -29.3970  -21.1210   20.7700 C   0  0  0  0  0  2  0  0  0  0  0  0
  -28.8960  -22.4090   19.9670 C   0  0  0  0  0  2  0  0  0  0  0  0
  -29.0090  -23.8660   20.6110 C   0  0  0  0  0  3  0  0  0  0  0  0
  -28.1130  -25.0000   19.9500 C   0  0  0  0  0  3  0  0  0  0  0  0
  -28.2920  -26.4300   20.3030 O   0  0  0  0  0  0  0  0  0  0  0  0
  -24.5770  -31.8680   23.2350 C   0  0  0  0  0  0  0  0  0  0  0  0
  -27.1850  -27.2920   20.2080 C   0  0  0  0  0  0  0  0  0  0  0  0
  -23.3790  -30.4750   21.5870 C   0  0  0  0  0  3  0  0  0  0  0  0
  -24.8310  -28.9210   20.1700 C   0  0  0  0  0  0  0  0  0  0  0  0
  -25.9220  -30.7770   21.4280 C   0  0  0  0  0  2  0  0  0  0  0  0
  -25.9970  -29.3990   20.7840 C   0  0  0  0  0  0  0  0  0  0  0  0
  -27.1730  -28.5930   20.7990 C   0  0  0  0  0  3  0  0  0  0  0  0
  -26.0030  -26.8840   19.5440 C   0  0  0  0  0  3  0  0  0  0  0  0
  -24.8370  -27.6690   19.5410 C   0  0  0  0  0  3  0  0  0  0  0  0
  -23.6000  -29.8000   20.2070 C   0  0  0  0  0  2  0  0  0  0  0  0
  -24.6440  -31.0560   22.1400 N   0  0  0  0  0  0  0  0  0  0  0  0
  -23.4900  -32.1530   23.7590 O   0  0  0  0  0  0  0  0  0  0  0  0
  -22.7030  -29.4610   22.5410 C   0  0  0  0  0  0  0  0  0  0  0  0
  -21.3770  -29.2920   22.4030 N   0  0  0  0  0  0  0  0  0  0  0  0
  -23.3710  -28.8310   23.3650 O   0  0  0  0  0  0  0  0  0  0  0  0
  -20.8980  -29.8520   21.7110 H   0  0  0  0  0  0  0  0  0  0  0  0
  -17.9850  -28.1330   22.8840 C   0  0  0  0  0  0  0  0  0  0  0  0
  -20.5440  -28.3640   23.1680 C   0  0  0  0  0  3  0  0  0  0  0  0
  -20.6330  -26.9310   22.5910 C   0  0  0  0  0  2  0  0  0  0  0  0
  -19.5320  -26.6220   21.5710 C   0  0  0  0  0  2  0  0  0  0  0  0
  -18.1490  -26.7830   22.2080 C   0  0  0  0  0  2  0  0  0  0  0  0
  -19.1100  -28.8820   23.3200 C   0  0  0  0  0  0  0  0  0  0  0  0
  -18.9010  -30.1470   23.9130 C   0  0  0  0  0  3  0  0  0  0  0  0
  -17.6020  -30.6630   24.0720 C   0  0  0  0  0  3  0  0  0  0  0  0
  -16.4910  -29.9110   23.6520 C   0  0  0  0  0  3  0  0  0  0  0  0
  -16.6830  -28.6480   23.0630 C   0  0  0  0  0  3  0  0  0  0  0  0
  -25.8580  -32.4920   23.8660 C   0  0  0  0  0  3  0  0  0  0  0  0
  -26.3580  -31.7210   25.1500 C   0  0  1  0  0  0  0  0  0  0  0  0
  -25.2520  -31.4920   26.2060 C   0  0  0  0  0  1  0  0  0  0  0  0
  -26.9360  -30.3400   24.7670 C   0  0  0  0  0  1  0  0  0  0  0  0
  -27.5060  -32.5100   25.8210 C   0  0  0  0  0  1  0  0  0  0  0  0
  -25.5550  -33.8940   24.1910 N   0  0  0  0  0  0  0  0  0  0  0  0
  -25.8960  -34.9430   23.4290 C   0  0  0  0  0  0  0  0  0  0  0  0
  -26.5700  -34.8320   22.4020 O   0  0  0  0  0  0  0  0  0  0  0  0
  -24.9570  -34.0550   24.9880 H   0  0  0  0  0  0  0  0  0  0  0  0
  -24.1800  -36.7450   23.0610 C   0  0  0  0  0  1  0  0  0  0  0  0
  -25.4140  -36.3350   23.8800 C   0  0  0  0  0  3  0  0  0  0  0  0
  -27.5480  -37.2120   24.7220 C   0  0  0  0  0  1  0  0  0  0  0  0
  -26.4540  -37.3810   23.7690 N   0  0  0  0  0  0  0  0  0  0  0  0
  -26.0520  -38.3050   23.9100 H   0  0  0  0  0  0  0  0  0  0  0  0
  -31.1060  -20.0560   19.1750 C   0  0  0  0  0  2  0  0  0  0  0  0
  -31.0810  -19.7090   17.6700 C   0  0  0  0  0  2  0  0  0  0  0  0
  -32.3630  -20.0070   17.0060 N   0  0  0  0  0  4  0  0  0  0  0  0
  -32.5830  -20.9850   17.0670 H   0  0  0  0  0  0  0  0  0  0  0  0
  -32.3090  -19.7630   16.0330 H   0  0  0  0  0  0  0  0  0  0  0  0
  -33.1160  -19.4810   17.4140 H   0  0  0  0  0  0  0  0  0  0  0  0
  1 88  1  0
  1  2  1  0
  1 43  1  0
  2  3  2  0
  4 13  1  0
  4  2  1  0
  5 13  1  0
  6 11  1  0
  7  8  1  0
  7  6  1  0
  9  8  1  0
  9 18  1  0
  9 10  1  0
 11  5  1  0
 11 10  1  0
 12  5  2  0
 13 14  1  0
 15 16  2  0
 16 35  1  0
 17 16  1  0
 17 20  1  0
 18 15  1  0
 18 19  1  0
 19 17  2  0
 20 21  1  0
 21 22  2  0
 23 26  1  0
 23 22  1  0
 24 23  2  0
 25 24  1  0
 25 20  2  0
 26 27  1  0
 27 28  1  0
 28 29  2  0
 30 29  1  0
 30 34  1  0
 31 30  2  0
 32 27  2  0
 32 31  1  0
 33 32  1  0
 35 36  1  0
 36 39  1  0
 36 38  1  0
 37 35  2  0
 40 41  1  0
 40 15  1  0
 42 40  1  0
 44 45  1  0
 44 43  1  0
 46 47  1  0
 46 45  2  0
 48 59  2  0
 49 47  1  0
 49 54  1  0
 50 58  1  0
 50 60  1  0
 51 57  1  0
 51 53  1  0
 52 58  1  0
 53 54  2  0
 53 52  1  0
 55 49  2  0
 56 55  1  0
 56 51  2  0
 57 50  1  0
 58 48  1  0
 60 62  2  0
 61 60  1  0
 63 61  1  0
 64 73  2  0
 64 69  1  0
 65 61  1  0
 65 69  1  0
 66 65  1  0
 67 68  1  0
 67 66  1  0
 68 64  1  0
 69 70  2  0
 70 71  1  0
 72 71  2  0
 73 72  1  0
 74 48  1  0
 74 79  1  0
 74 75  1  0
 75 78  1  1
 75 76  1  0
 77 75  1  0
 79 82  1  0
 80 84  1  0
 80 79  1  0
 81 80  2  0
 84 83  1  0
 86 84  1  0
 86 87  1  0
 86 85  1  0
 89 88  1  0
 90 91  1  0
 90 93  1  0
 90 89  1  0
 92 90  1  0
M  ISO  4   5 100  13 100  46 101  47 101
M  END
>  <TORSDO>  (52) 
F 25

>  <SCORE>  (52) 
-11.793

>  <name>  (52) 
51

>  <ligand_id>  (52) 
51

>  <original_smiles>  (52) 
[H]c1c([H])c([H])c2c(c1[H])C([H])([H])C([H])([H])C([H])([H])C2([H])N([H])C(=O)C1([H])N(C(=O)C([H])(N([H])C(=O)C([H])(N([H])C([H])([H])[H])C([H])([H])[H])C(C([H])([H])[H])(C([H])([H])[H])C([H])([H])[H])C([H])([H])c2c([H])c(OC([H])([H])C([H])([H])C([H])([H])C([H])([H])C([H])(C(=O)C([H])([H])N([H])C(=O)N3C([H])([H])C([H])([H])C([H])([H])C([H])(n4nc(-c5c([H])c([H])c(Oc6c([H])c([H])c(F)c([H])c6F)c([H])c5[H])c(C(=O)N([H])[H])c4N([H])[H])C3([H])[H])C([H])([H])C([H])([H])[N+]([H])([H])[H])c([H])c([H])c2C1([H])[H]

>  <smiles>  (52) 
[H]c1c([H])c([H])c2c(c1[H])C([H])([H])C([H])([H])C([H])([H])C2([H])N([H])C(=O)C1([H])N(C(=O)C([H])(N([H])C(=O)C([H])(N([H])C([H])([H])[H])C([H])([H])[H])C(C([H])([H])[H])(C([H])([H])[H])C([H])([H])[H])C([H])([H])c2c([H])c(OC([H])([H])C([H])([H])C([H])([H])C([H])([H])C([H])(C(=O)C([H])([H])N([H])C(=O)N3C([H])([H])C([H])([H])C([H])([H])C([H])(n4nc(-c5c([H])c([H])c(Oc6c([H])c([H])c(F)c([H])c6F)c([H])c5[H])c(C(=O)N([H])[H])c4N([H])[H])C3([H])[H])C([H])([H])C([H])([H])[N+]([H])([H])[H])c([H])c([H])c2C1([H])[H]

$$$$
52:0:0
     RDKit          3D

 87 94  0  0  1  0  0  0  0  0999 V2000
  -28.7160  -20.3570   20.3340 C   0  0  0  0  0  2  0  0  0  0  0  0
  -28.9410  -22.2690   20.2990 C   0  0  0  0  0  3  0  0  0  0  0  0
  -27.9340  -23.9100   20.2610 C   0  0  0  0  0  3  0  0  0  0  0  0
  -28.1330  -25.6420   20.3150 O   0  0  0  0  0  0  0  0  0  0  0  0
  -24.6490  -31.9060   23.2210 C   0  0  0  0  0  0  0  0  0  0  0  0
  -27.1500  -26.8310   20.2640 C   0  0  0  0  0  0  0  0  0  0  0  0
  -23.4470  -30.4970   21.6040 C   0  0  0  0  0  3  0  0  0  0  0  0
  -24.8810  -28.8400   20.1980 C   0  0  0  0  0  0  0  0  0  0  0  0
  -26.0220  -30.6450   21.4620 C   0  0  0  0  0  2  0  0  0  0  0  0
  -26.0800  -29.2100   20.8200 C   0  0  0  0  0  0  0  0  0  0  0  0
  -27.2010  -28.2320   20.8180 C   0  0  0  0  0  3  0  0  0  0  0  0
  -25.9150  -26.6570   19.5920 C   0  0  0  0  0  3  0  0  0  0  0  0
  -24.8340  -27.5880   19.5610 C   0  0  0  0  0  3  0  0  0  0  0  0
  -23.6760  -29.7890   20.2380 C   0  0  0  0  0  2  0  0  0  0  0  0
  -24.7300  -31.0480   22.1480 N   0  0  0  0  0  0  0  0  0  0  0  0
  -23.5610  -32.2130   23.7370 O   0  0  0  0  0  0  0  0  0  0  0  0
  -22.7370  -29.5280   22.5880 C   0  0  0  0  0  0  0  0  0  0  0  0
  -21.4060  -29.3640   22.4630 N   0  0  0  0  0  0  0  0  0  0  0  0
  -23.3960  -28.9210   23.4370 O   0  0  0  0  0  0  0  0  0  0  0  0
  -20.9250  -29.9050   21.7580 H   0  0  0  0  0  0  0  0  0  0  0  0
  -18.0250  -28.1410   22.9820 C   0  0  0  0  0  0  0  0  0  0  0  0
  -20.5830  -28.4360   23.2480 C   0  0  0  0  0  3  0  0  0  0  0  0
  -20.6980  -26.9940   22.7010 C   0  0  0  0  0  2  0  0  0  0  0  0
  -19.6020  -26.6430   21.6880 C   0  0  0  0  0  2  0  0  0  0  0  0
  -18.2170  -26.7830   22.3250 C   0  0  0  0  0  2  0  0  0  0  0  0
  -19.1350  -28.9230   23.4010 C   0  0  0  0  0  0  0  0  0  0  0  0
  -18.8980  -30.1890   23.9790 C   0  0  0  0  0  3  0  0  0  0  0  0
  -17.5860  -30.6730   24.1400 C   0  0  0  0  0  3  0  0  0  0  0  0
  -16.4920  -29.8890   23.7350 C   0  0  0  0  0  3  0  0  0  0  0  0
  -16.7120  -28.6240   23.1620 C   0  0  0  0  0  3  0  0  0  0  0  0
  -25.9200  -32.5570   23.8470 C   0  0  0  0  0  3  0  0  0  0  0  0
  -25.6040  -33.9630   24.1690 N   0  0  0  0  0  0  0  0  0  0  0  0
  -25.9160  -35.0180   23.4050 C   0  0  0  0  0  0  0  0  0  0  0  0
  -26.5580  -34.9130   22.3570 O   0  0  0  0  0  0  0  0  0  0  0  0
  -25.0290  -34.1170   24.9840 H   0  0  0  0  0  0  0  0  0  0  0  0
  -24.1720  -36.8150   23.1140 C   0  0  0  0  0  1  0  0  0  0  0  0
  -25.4460  -36.4120   23.8750 C   0  0  0  0  0  3  0  0  0  0  0  0
  -27.6060  -37.3200   24.6170 C   0  0  0  0  0  1  0  0  0  0  0  0
  -26.4710  -37.4680   23.7110 N   0  0  0  0  0  0  0  0  0  0  0  0
  -26.0650  -38.3890   23.8580 H   0  0  0  0  0  0  0  0  0  0  0  0
  -26.4200  -31.8120   25.1470 C   0  0  1  0  0  0  0  0  0  0  0  0
  -25.3160  -31.6030   26.2110 C   0  0  0  0  0  1  0  0  0  0  0  0
  -26.9990  -30.4220   24.8010 C   0  0  0  0  0  1  0  0  0  0  0  0
  -27.5690  -32.6130   25.8020 C   0  0  0  0  0  1  0  0  0  0  0  0
  -29.7740  -18.7510   20.2780 C   0  0  0  0  0  0  0  0  0  0  0  0
  -30.2790  -15.6510   20.1890 C   0  0  0  0  0  0  0  0  0  0  0  0
  -30.3310  -13.1470   19.2980 C   0  0  0  0  0  2  0  0  0  0  0  0
  -29.4000  -12.8070   18.1020 C   0  0  0  0  0  2  0  0  0  0  0  0
  -27.9860  -12.4550   18.5890 C   0  0  0  0  0  2  0  0  0  0  0  0
  -27.5180  -13.4190   19.7040 C   0  0  0  0  0  3  0  0  0  0  0  0
  -28.5840  -13.6800   20.7910 C   0  0  0  0  0  2  0  0  0  0  0  0
  -29.7430  -14.2990   20.1120 N   0  0  0  0  0  0  0  0  0  0  0  0
  -31.5010  -15.6000   19.9650 O   0  0  0  0  0  0  0  0  0  0  0  0
  -29.5330  -17.0030   20.3200 N   0  0  0  0  0  4  0  0  0  0  0  0
  -28.5510  -16.8020   20.4500 H   0  0  0  0  0  0  0  0  0  0  0  0
  -25.1720  -13.9130   20.5480 C   0  0  0  0  0  0  0  0  0  0  0  0
  -24.1330  -13.1130   20.9300 C   0  0  0  0  0  0  0  0  0  0  0  0
  -24.6180  -11.7710   20.8580 C   0  0  0  0  0  0  0  0  0  0  0  0
  -26.2190  -13.0590   20.2550 N   0  0  0  0  0  0  0  0  0  0  0  0
  -25.9010  -11.7620   20.5100 N   0  0  0  0  0  0  0  0  0  0  0  0
  -23.9100  -10.4960   21.0400 C   0  0  0  0  0  0  0  0  0  0  0  0
  -24.3550   -9.5280   21.9660 C   0  0  0  0  0  3  0  0  0  0  0  0
  -23.6420   -8.3220   22.1400 C   0  0  0  0  0  3  0  0  0  0  0  0
  -22.4690   -8.0760   21.3880 C   0  0  0  0  0  0  0  0  0  0  0  0
  -22.0420   -9.0320   20.4510 C   0  0  0  0  0  3  0  0  0  0  0  0
  -22.7560  -10.2290   20.2750 C   0  0  0  0  0  3  0  0  0  0  0  0
  -21.7260   -6.9220   21.4720 O   0  0  0  0  0  0  0  0  0  0  0  0
  -21.6590   -6.1920   22.6320 C   0  0  0  0  0  0  0  0  0  0  0  0
  -21.1610   -6.7440   23.8320 C   0  0  0  0  0  3  0  0  0  0  0  0
  -21.0440   -5.9380   24.9830 C   0  0  0  0  0  3  0  0  0  0  0  0
  -21.4140   -4.5820   24.9330 C   0  0  0  0  0  0  0  0  0  0  0  0
  -21.9060   -4.0280   23.7370 C   0  0  0  0  0  3  0  0  0  0  0  0
  -22.0240   -4.8310   22.5890 C   0  0  0  0  0  0  0  0  0  0  0  0
  -22.4780   -4.2880   21.4340 F   0  0  0  0  0  0  0  0  0  0  0  0
  -21.2960   -3.8050   26.0350 F   0  0  0  0  0  0  0  0  0  0  0  0
  -22.7380  -13.5690   21.2420 C   0  0  0  0  0  0  0  0  0  0  0  0
  -22.0410  -12.8530   22.1160 N   0  0  0  0  0  0  0  0  0  0  0  0
  -22.2760  -14.5950   20.7450 O   0  0  0  0  0  0  0  0  0  0  0  0
  -22.4300  -12.0230   22.5400 H   0  0  0  0  0  0  0  0  0  0  0  0
  -21.1050  -13.1400   22.3680 H   0  0  0  0  0  0  0  0  0  0  0  0
  -25.3080  -15.2890   20.3900 N   0  0  0  0  0  0  0  0  0  0  0  0
  -24.5300  -15.9250   20.5290 H   0  0  0  0  0  0  0  0  0  0  0  0
  -26.1280  -15.7430   20.0080 H   0  0  0  0  0  0  0  0  0  0  0  0
  -30.9350  -19.0160   21.2620 C   0  0  0  0  0  2  0  0  0  0  0  0
  -32.9190  -19.3880   19.6960 C   0  0  0  0  0  1  0  0  0  0  0  0
  -32.8360  -20.5590   21.9250 C   0  0  0  0  0  1  0  0  0  0  0  0
  -31.9990  -20.0170   20.7570 C   0  0  0  0  0  3  0  0  0  0  0  0
  2  1  1  0
  3  2  2  0
  3  4  1  0
  5 16  2  0
  6  4  1  0
  6 11  1  0
  7 15  1  0
  7 17  1  0
  8 14  1  0
  8 10  1  0
  9 15  1  0
 10  9  1  0
 11 10  2  0
 12  6  2  0
 13 12  1  0
 13  8  2  0
 14  7  1  0
 15  5  1  0
 17 19  2  0
 18 17  1  0
 20 18  1  0
 21 30  2  0
 21 26  1  0
 22 18  1  0
 22 26  1  0
 23 22  1  0
 24 25  1  0
 24 23  1  0
 25 21  1  0
 26 27  2  0
 27 28  1  0
 29 28  2  0
 30 29  1  0
 31  5  1  0
 31 32  1  0
 31 41  1  0
 32 35  1  0
 33 37  1  0
 33 32  1  0
 34 33  2  0
 37 36  1  0
 39 40  1  0
 39 37  1  0
 39 38  1  0
 41 44  1  1
 41 42  1  0
 43 41  1  0
 45 54  2  0
 45  1  1  0
 45 84  1  0
 46 54  1  0
 47 52  1  0
 48 49  1  0
 48 47  1  0
 50 49  1  0
 50 59  1  0
 50 51  1  0
 52 46  1  0
 52 51  1  0
 53 46  2  0
 54 55  1  0
 56 57  2  0
 57 76  1  0
 58 57  1  0
 58 61  1  0
 59 60  1  0
 59 56  1  0
 60 58  2  0
 61 62  1  0
 62 63  2  0
 64 67  1  0
 64 63  1  0
 65 64  2  0
 66 65  1  0
 66 61  2  0
 67 68  1  0
 68 69  1  0
 69 70  2  0
 71 70  1  0
 71 75  1  0
 72 71  2  0
 73 68  2  0
 73 72  1  0
 74 73  1  0
 76 77  1  0
 77 80  1  0
 77 79  1  0
 78 76  2  0
 81 82  1  0
 81 56  1  0
 83 81  1  0
 85 87  1  0
 87 84  1  0
 87 86  1  0
M  ISO  4   3 101   4 101  46 100  54 100
M  END
>  <TORSDO>  (53) 
F 21

>  <SCORE>  (53) 
-15.975

>  <name>  (53) 
52

>  <ligand_id>  (53) 
52

>  <original_smiles>  (53) 
[H]c1c([H])c([H])c2c(c1[H])C([H])([H])C([H])([H])C([H])([H])C2([H])N([H])C(=O)C1([H])N(C(=O)C([H])(N([H])C(=O)C([H])(N([H])C([H])([H])[H])C([H])([H])[H])C(C([H])([H])[H])(C([H])([H])[H])C([H])([H])[H])C([H])([H])c2c([H])c(OC([H])([H])C([H])([H])C([H])([H])C([H])(N([H])C(=O)N3C([H])([H])C([H])([H])C([H])([H])C([H])(n4nc(-c5c([H])c([H])c(Oc6c([H])c([H])c(F)c([H])c6F)c([H])c5[H])c(C(=O)N([H])[H])c4N([H])[H])C3([H])[H])C([H])([H])C([H])(C([H])([H])[H])C([H])([H])[H])c([H])c([H])c2C1([H])[H]

>  <smiles>  (53) 
[H]c1c([H])c([H])c2c(c1[H])C([H])([H])C([H])([H])C([H])([H])C2([H])N([H])C(=O)C1([H])N(C(=O)C([H])(N([H])C(=O)C([H])(N([H])C([H])([H])[H])C([H])([H])[H])C(C([H])([H])[H])(C([H])([H])[H])C([H])([H])[H])C([H])([H])c2c([H])c(OC([H])([H])C([H])([H])C([H])([H])C([H])(N([H])C(=O)N3C([H])([H])C([H])([H])C([H])([H])C([H])(n4nc(-c5c([H])c([H])c(Oc6c([H])c([H])c(F)c([H])c6F)c([H])c5[H])c(C(=O)N([H])[H])c4N([H])[H])C3([H])[H])C([H])([H])C([H])(C([H])([H])[H])C([H])([H])[H])c([H])c([H])c2C1([H])[H]

$$$$
53:0:0
     RDKit          3D

 85 89  0  0  1  0  0  0  0  0999 V2000
  -30.3410  -21.8140   19.0440 C   0  0  0  0  0  1  0  0  0  0  0  0
  -28.0270  -21.0770   18.5280 C   0  0  0  0  0  1  0  0  0  0  0  0
  -29.0040  -21.3920   19.6720 C   0  0  0  0  0  2  0  0  0  0  0  0
  -28.8720  -19.3980   21.6740 C   0  0  0  0  0  1  0  0  0  0  0  0
  -29.4940  -19.4350   20.2680 C   0  0  0  0  0  2  0  0  0  0  0  0
  -30.2680  -16.1000   19.7520 C   0  0  0  0  0  0  0  0  0  0  0  0
  -30.3980  -13.4910   18.8610 C   0  0  0  0  0  2  0  0  0  0  0  0
  -29.4510  -12.8810   17.7740 C   0  0  0  0  0  2  0  0  0  0  0  0
  -28.1090  -12.4420   18.3730 C   0  0  0  0  0  2  0  0  0  0  0  0
  -27.6260  -13.4710   19.4120 C   0  0  0  0  0  3  0  0  0  0  0  0
  -28.7230  -13.9310   20.4090 C   0  0  0  0  0  2  0  0  0  0  0  0
  -29.7540  -14.6850   19.6270 N   0  0  0  0  0  0  0  0  0  0  0  0
  -31.5080  -15.9470   19.6230 O   0  0  0  0  0  0  0  0  0  0  0  0
  -29.5360  -17.5760   19.8190 N   0  0  0  0  0  0  0  0  0  0  0  0
  -28.5670  -17.3420   19.6530 H   0  0  0  0  0  0  0  0  0  0  0  0
  -25.3570  -13.9790   20.4110 C   0  0  0  0  0  0  0  0  0  0  0  0
  -24.3230  -13.1940   20.8340 C   0  0  0  0  0  0  0  0  0  0  0  0
  -24.7710  -11.8430   20.7130 C   0  0  0  0  0  0  0  0  0  0  0  0
  -26.3650  -13.1080   20.0460 N   0  0  0  0  0  0  0  0  0  0  0  0
  -26.0340  -11.8110   20.2920 N   0  0  0  0  0  0  0  0  0  0  0  0
  -24.0420  -10.5820   20.9200 C   0  0  0  0  0  0  0  0  0  0  0  0
  -24.4950   -9.6030   21.8300 C   0  0  0  0  0  3  0  0  0  0  0  0
  -23.7600   -8.4140   22.0290 C   0  0  0  0  0  3  0  0  0  0  0  0
  -22.5560   -8.1950   21.3170 C   0  0  0  0  0  0  0  0  0  0  0  0
  -22.1200   -9.1630   20.3960 C   0  0  0  0  0  3  0  0  0  0  0  0
  -22.8570  -10.3430   20.1970 C   0  0  0  0  0  3  0  0  0  0  0  0
  -21.7930   -7.0580   21.4260 O   0  0  0  0  0  0  0  0  0  0  0  0
  -21.7480   -6.3260   22.5860 C   0  0  0  0  0  0  0  0  0  0  0  0
  -21.3010   -6.8860   23.8030 C   0  0  0  0  0  3  0  0  0  0  0  0
  -21.2070   -6.0820   24.9560 C   0  0  0  0  0  3  0  0  0  0  0  0
  -21.5490   -4.7170   24.8930 C   0  0  0  0  0  0  0  0  0  0  0  0
  -21.9900   -4.1570   23.6820 C   0  0  0  0  0  3  0  0  0  0  0  0
  -22.0880   -4.9600   22.5310 C   0  0  0  0  0  0  0  0  0  0  0  0
  -22.4930   -4.4090   21.3610 F   0  0  0  0  0  0  0  0  0  0  0  0
  -21.4520   -3.9420   25.9990 F   0  0  0  0  0  0  0  0  0  0  0  0
  -22.9580  -13.6760   21.2270 C   0  0  0  0  0  0  0  0  0  0  0  0
  -22.2910  -12.9640   22.1270 N   0  0  0  0  0  0  0  0  0  0  0  0
  -22.4990  -14.7250   20.7760 O   0  0  0  0  0  0  0  0  0  0  0  0
  -22.6760  -12.1180   22.5210 H   0  0  0  0  0  0  0  0  0  0  0  0
  -21.3810  -13.2760   22.4360 H   0  0  0  0  0  0  0  0  0  0  0  0
  -25.5160  -15.3540   20.2670 N   0  0  0  0  0  0  0  0  0  0  0  0
  -24.7680  -16.0090   20.4640 H   0  0  0  0  0  0  0  0  0  0  0  0
  -26.3330  -15.7970   19.8710 H   0  0  0  0  0  0  0  0  0  0  0  0
  -28.3230  -23.2990   20.2760 C   0  0  0  0  0 15  0  0  0  0  0  0
  -28.2990  -25.1890   20.0870 O   0  0  0  0  0  1  0  0  0  0  0  0
  -24.7410  -31.7690   23.0600 C   0  0  0  0  0  0  0  0  0  0  0  0
  -27.3150  -26.4890   20.1250 C   0  0  0  0  0  0  0  0  0  0  0  0
  -23.5720  -30.3330   21.4480 C   0  0  0  0  0  3  0  0  0  0  0  0
  -25.0370  -28.6510   20.0570 C   0  0  0  0  0  0  0  0  0  0  0  0
  -26.1600  -30.4510   21.3290 C   0  0  0  0  0  2  0  0  0  0  0  0
  -26.2400  -28.9820   20.6930 C   0  0  0  0  0  0  0  0  0  0  0  0
  -27.3500  -27.9390   20.6780 C   0  0  0  0  0  3  0  0  0  0  0  0
  -26.0650  -26.4320   19.4350 C   0  0  0  0  0  3  0  0  0  0  0  0
  -25.0020  -27.4050   19.4030 C   0  0  0  0  0  3  0  0  0  0  0  0
  -23.8270  -29.6140   20.0880 C   0  0  0  0  0  2  0  0  0  0  0  0
  -24.8520  -30.8920   21.9970 N   0  0  0  0  0  0  0  0  0  0  0  0
  -23.6420  -32.0610   23.5660 O   0  0  0  0  0  0  0  0  0  0  0  0
  -22.8610  -29.3710   22.4400 C   0  0  0  0  0  0  0  0  0  0  0  0
  -21.5240  -29.2230   22.3410 N   0  0  0  0  0  0  0  0  0  0  0  0
  -23.5250  -28.7540   23.2760 O   0  0  0  0  0  0  0  0  0  0  0  0
  -21.0330  -29.7740   21.6510 H   0  0  0  0  0  0  0  0  0  0  0  0
  -18.1480  -27.9860   22.9240 C   0  0  0  0  0  0  0  0  0  0  0  0
  -20.7130  -28.2810   23.1260 C   0  0  0  0  0  3  0  0  0  0  0  0
  -20.8130  -26.8480   22.5510 C   0  0  0  0  0  2  0  0  0  0  0  0
  -19.6940  -26.5180   21.5590 C   0  0  0  0  0  2  0  0  0  0  0  0
  -18.3250  -26.6440   22.2330 C   0  0  0  0  0  2  0  0  0  0  0  0
  -19.2690  -28.7620   23.3270 C   0  0  0  0  0  0  0  0  0  0  0  0
  -19.0470  -30.0120   23.9440 C   0  0  0  0  0  3  0  0  0  0  0  0
  -17.7400  -30.4910   24.1540 C   0  0  0  0  0  3  0  0  0  0  0  0
  -16.6360  -29.7150   23.7610 C   0  0  0  0  0  3  0  0  0  0  0  0
  -16.8410  -28.4650   23.1510 C   0  0  0  0  0  3  0  0  0  0  0  0
  -25.9880  -32.4550   23.6980 C   0  0  0  0  0  3  0  0  0  0  0  0
  -25.6320  -33.8480   24.0430 N   0  0  0  0  0  0  0  0  0  0  0  0
  -25.9390  -34.9320   23.3140 C   0  0  0  0  0  0  0  0  0  0  0  0
  -26.6060  -34.8660   22.2800 O   0  0  0  0  0  0  0  0  0  0  0  0
  -25.0360  -33.9700   24.8490 H   0  0  0  0  0  0  0  0  0  0  0  0
  -24.1760  -36.7130   23.0310 C   0  0  0  0  0  1  0  0  0  0  0  0
  -25.4370  -36.3050   23.8110 C   0  0  0  0  0  3  0  0  0  0  0  0
  -27.5620  -37.2310   24.6310 C   0  0  0  0  0  1  0  0  0  0  0  0
  -26.4480  -37.3810   23.7000 N   0  0  0  0  0  0  0  0  0  0  0  0
  -26.0210  -38.2900   23.8650 H   0  0  0  0  0  0  0  0  0  0  0  0
  -26.5070  -31.7100   24.9900 C   0  0  1  0  0  0  0  0  0  0  0  0
  -25.4080  -31.4560   26.0480 C   0  0  0  0  0  1  0  0  0  0  0  0
  -27.1300  -30.3440   24.6340 C   0  0  0  0  0  1  0  0  0  0  0  0
  -27.6340  -32.5380   25.6510 C   0  0  0  0  0  1  0  0  0  0  0  0
  1  3  1  0
  2  3  1  0
  5  4  1  0
  6 14  1  0
  7 12  1  0
  8  9  1  0
  8  7  1  0
 10  9  1  0
 10 19  1  0
 10 11  1  0
 12  6  1  0
 12 11  1  0
 13  6  2  0
 14  5  1  0
 15 14  1  0
 16 17  2  0
 17 36  1  0
 18 17  1  0
 18 21  1  0
 19 20  1  0
 19 16  1  0
 20 18  2  0
 21 22  1  0
 22 23  2  0
 24 27  1  0
 24 23  1  0
 25 24  2  0
 26 25  1  0
 26 21  2  0
 27 28  1  0
 28 29  1  0
 29 30  2  0
 31 30  1  0
 31 35  1  0
 32 31  2  0
 33 28  2  0
 33 32  1  0
 34 33  1  0
 36 37  1  0
 37 40  1  0
 37 39  1  0
 38 36  2  0
 41 16  1  0
 41 42  1  0
 43 41  1  0
 45 47  1  0
 46 57  2  0
 47 52  1  0
 48 56  1  0
 48 58  1  0
 49 55  1  0
 49 51  1  0
 50 56  1  0
 51 50  1  0
 52 51  2  0
 53 47  2  0
 54 53  1  0
 54 49  2  0
 55 48  1  0
 56 46  1  0
 58 60  2  0
 59 58  1  0
 61 59  1  0
 62 71  2  0
 62 67  1  0
 63 59  1  0
 63 67  1  0
 64 63  1  0
 65 66  1  0
 65 64  1  0
 66 62  1  0
 67 68  2  0
 68 69  1  0
 70 69  2  0
 71 70  1  0
 72 46  1  0
 72 73  1  0
 72 82  1  0
 73 76  1  0
 74 78  1  0
 74 73  1  0
 75 74  2  0
 78 77  1  0
 80 78  1  0
 80 81  1  0
 80 79  1  0
 82 85  1  1
 82 83  1  0
 84 82  1  0
M  ISO  4   6 100  14 100  44 101  45 101
M  END
>  <TORSDO>  (54) 
F 18

>  <SCORE>  (54) 
-14.661

>  <name>  (54) 
53

>  <ligand_id>  (54) 
53

>  <original_smiles>  (54) 
[H]c1c([H])c([H])c2c(c1[H])C([H])([H])C([H])([H])C([H])([H])C2([H])N([H])C(=O)C1([H])N(C(=O)C([H])(N([H])C(=O)C([H])(N([H])C([H])([H])[H])C([H])([H])[H])C(C([H])([H])[H])(C([H])([H])[H])C([H])([H])[H])C([H])([H])c2c([H])c(OC([H])([H])C(C([H])([H])[H])(C([H])([H])[H])C([H])(N([H])C(=O)N3C([H])([H])C([H])([H])C([H])([H])C([H])(n4nc(-c5c([H])c([H])c(Oc6c([H])c([H])c(F)c([H])c6F)c([H])c5[H])c(C(=O)N([H])[H])c4N([H])[H])C3([H])[H])C([H])([H])[H])c([H])c([H])c2C1([H])[H]

>  <smiles>  (54) 
[H]c1c([H])c([H])c2c(c1[H])C([H])([H])C([H])([H])C([H])([H])C2([H])N([H])C(=O)C1([H])N(C(=O)C([H])(N([H])C(=O)C([H])(N([H])C([H])([H])[H])C([H])([H])[H])C(C([H])([H])[H])(C([H])([H])[H])C([H])([H])[H])C([H])([H])c2c([H])c(OC([H])([H])C(C([H])([H])[H])(C([H])([H])[H])C([H])(N([H])C(=O)N3C([H])([H])C([H])([H])C([H])([H])C([H])(n4nc(-c5c([H])c([H])c(Oc6c([H])c([H])c(F)c([H])c6F)c([H])c5[H])c(C(=O)N([H])[H])c4N([H])[H])C3([H])[H])C([H])([H])[H])c([H])c([H])c2C1([H])[H]

$$$$
54:0:0
     RDKit          3D

 89 96  0  0  1  0  0  0  0  0999 V2000
  -30.1540  -19.4720   19.7190 C   0  0  0  0  0  2  0  0  0  0  0  0
  -29.2910  -20.9420   20.2770 C   0  0  0  0  0  2  0  0  0  0  0  0
  -29.4800  -22.6990   20.0230 C   0  0  0  0  0  3  0  0  0  0  0  0
  -28.4080  -24.0910   20.3380 C   0  0  0  0  0  3  0  0  0  0  0  0
  -28.5920  -25.7140   20.3510 O   0  0  0  0  0  0  0  0  0  0  0  0
  -24.5650  -31.5050   22.9830 C   0  0  0  0  0  0  0  0  0  0  0  0
  -27.5180  -26.7300   20.2330 C   0  0  0  0  0  0  0  0  0  0  0  0
  -23.5330  -30.0220   21.3090 C   0  0  0  0  0  3  0  0  0  0  0  0
  -25.1350  -28.4670   20.0120 C   0  0  0  0  0  0  0  0  0  0  0  0
  -26.0890  -30.3660   21.3020 C   0  0  0  0  0  2  0  0  0  0  0  0
  -26.2640  -28.9510   20.6850 C   0  0  0  0  0  0  0  0  0  0  0  0
  -27.4530  -28.1040   20.7680 C   0  0  0  0  0  3  0  0  0  0  0  0
  -26.3570  -26.3880   19.5060 C   0  0  0  0  0  3  0  0  0  0  0  0
  -25.2060  -27.2060   19.4010 C   0  0  0  0  0  3  0  0  0  0  0  0
  -23.8730  -29.3260   19.9640 C   0  0  0  0  0  2  0  0  0  0  0  0
  -24.7460  -30.6590   21.9190 N   0  0  0  0  0  0  0  0  0  0  0  0
  -23.4350  -31.7470   23.4380 O   0  0  0  0  0  0  0  0  0  0  0  0
  -22.8340  -29.0100   22.2550 C   0  0  0  0  0  0  0  0  0  0  0  0
  -21.5190  -28.7950   22.0710 N   0  0  0  0  0  0  0  0  0  0  0  0
  -23.4850  -28.4200   23.1210 O   0  0  0  0  0  0  0  0  0  0  0  0
  -21.0460  -29.3280   21.3550 H   0  0  0  0  0  0  0  0  0  0  0  0
  -18.1580  -27.4800   22.4490 C   0  0  0  0  0  0  0  0  0  0  0  0
  -20.6940  -27.8360   22.8160 C   0  0  0  0  0  3  0  0  0  0  0  0
  -20.8660  -26.4020   22.2600 C   0  0  0  0  0  2  0  0  0  0  0  0
  -19.8190  -26.0330   21.2040 C   0  0  0  0  0  2  0  0  0  0  0  0
  -18.4080  -26.1340   21.7890 C   0  0  0  0  0  2  0  0  0  0  0  0
  -19.2310  -28.2870   22.9160 C   0  0  0  0  0  0  0  0  0  0  0  0
  -18.9410  -29.5420   23.4910 C   0  0  0  0  0  3  0  0  0  0  0  0
  -17.6120  -29.9950   23.6020 C   0  0  0  0  0  3  0  0  0  0  0  0
  -16.5550  -29.1890   23.1480 C   0  0  0  0  0  3  0  0  0  0  0  0
  -16.8270  -27.9320   22.5790 C   0  0  0  0  0  3  0  0  0  0  0  0
  -25.7680  -32.2170   23.6760 C   0  0  0  0  0  3  0  0  0  0  0  0
  -25.3640  -33.6030   23.9680 N   0  0  0  0  0  0  0  0  0  0  0  0
  -25.7120  -34.6730   23.2400 C   0  0  0  0  0  0  0  0  0  0  0  0
  -26.4660  -34.5990   22.2660 O   0  0  0  0  0  0  0  0  0  0  0  0
  -24.7010  -33.7290   24.7190 H   0  0  0  0  0  0  0  0  0  0  0  0
  -23.9450  -36.3970   22.7450 C   0  0  0  0  0  1  0  0  0  0  0  0
  -25.1320  -36.0420   23.6540 C   0  0  0  0  0  3  0  0  0  0  0  0
  -27.1510  -37.0190   24.6530 C   0  0  0  0  0  1  0  0  0  0  0  0
  -26.1250  -37.1370   23.6200 N   0  0  0  0  0  0  0  0  0  0  0  0
  -25.6720  -38.0400   23.7270 H   0  0  0  0  0  0  0  0  0  0  0  0
  -26.2350  -31.4970   25.0000 C   0  0  1  0  0  0  0  0  0  0  0  0
  -25.0880  -31.2210   26.0000 C   0  0  0  0  0  1  0  0  0  0  0  0
  -26.9140  -30.1450   24.6810 C   0  0  0  0  0  1  0  0  0  0  0  0
  -27.2970  -32.3620   25.7190 C   0  0  0  0  0  1  0  0  0  0  0  0
  -30.1700  -17.8500   20.4380 C   0  0  0  0  0  0  0  0  0  0  0  0
  -31.0900  -15.0580   19.6510 C   0  0  0  0  0  0  0  0  0  0  0  0
  -30.8410  -12.6940   18.6170 C   0  0  0  0  0  2  0  0  0  0  0  0
  -29.7680  -12.6410   17.4990 C   0  0  0  0  0  2  0  0  0  0  0  0
  -28.3570  -12.4470   18.0870 C   0  0  0  0  0  2  0  0  0  0  0  0
  -28.1090  -13.3560   19.3150 C   0  0  0  0  0  3  0  0  0  0  0  0
  -29.2840  -13.3260   20.3160 C   0  0  0  0  0  2  0  0  0  0  0  0
  -30.4740  -13.7860   19.5820 N   0  0  0  0  0  0  0  0  0  0  0  0
  -32.2720  -15.0750   19.2790 O   0  0  0  0  0  0  0  0  0  0  0  0
  -30.3160  -16.2480   20.0030 N   0  0  0  0  0  4  0  0  0  0  0  0
  -29.4030  -15.8640   20.1890 H   0  0  0  0  0  0  0  0  0  0  0  0
  -25.8750  -14.0250   20.3570 C   0  0  0  0  0  0  0  0  0  0  0  0
  -24.8090  -13.2960   20.8040 C   0  0  0  0  0  0  0  0  0  0  0  0
  -25.1750  -11.9220   20.6500 C   0  0  0  0  0  0  0  0  0  0  0  0
  -26.8240  -13.0990   19.9520 N   0  0  0  0  0  0  0  0  0  0  0  0
  -26.4180  -11.8260   20.1920 N   0  0  0  0  0  0  0  0  0  0  0  0
  -24.3860  -10.7000   20.8530 C   0  0  0  0  0  0  0  0  0  0  0  0
  -24.7860   -9.7120   21.7800 C   0  0  0  0  0  3  0  0  0  0  0  0
  -24.0020   -8.5540   21.9750 C   0  0  0  0  0  3  0  0  0  0  0  0
  -22.8030   -8.3780   21.2430 C   0  0  0  0  0  0  0  0  0  0  0  0
  -22.4230   -9.3520   20.3040 C   0  0  0  0  0  3  0  0  0  0  0  0
  -23.2070  -10.5020   20.1080 C   0  0  0  0  0  3  0  0  0  0  0  0
  -21.9920   -7.2730   21.3490 O   0  0  0  0  0  0  0  0  0  0  0  0
  -21.8480   -6.5970   22.5330 C   0  0  0  0  0  0  0  0  0  0  0  0
  -21.3490   -7.2250   23.6960 C   0  0  0  0  0  3  0  0  0  0  0  0
  -21.1520   -6.4730   24.8720 C   0  0  0  0  0  3  0  0  0  0  0  0
  -21.4410   -5.0960   24.8860 C   0  0  0  0  0  0  0  0  0  0  0  0
  -21.9310   -4.4670   23.7280 C   0  0  0  0  0  3  0  0  0  0  0  0
  -22.1310   -5.2160   22.5540 C   0  0  0  0  0  0  0  0  0  0  0  0
  -22.5830   -4.6010   21.4350 F   0  0  0  0  0  0  0  0  0  0  0  0
  -21.2450   -4.3730   26.0130 F   0  0  0  0  0  0  0  0  0  0  0  0
  -23.4830  -13.8410   21.2450 C   0  0  0  0  0  0  0  0  0  0  0  0
  -22.8160  -13.1630   22.1720 N   0  0  0  0  0  0  0  0  0  0  0  0
  -23.0520  -14.9060   20.8030 O   0  0  0  0  0  0  0  0  0  0  0  0
  -23.1820  -12.3020   22.5510 H   0  0  0  0  0  0  0  0  0  0  0  0
  -21.9290  -13.5070   22.5080 H   0  0  0  0  0  0  0  0  0  0  0  0
  -26.1060  -15.3930   20.2340 N   0  0  0  0  0  0  0  0  0  0  0  0
  -25.3820  -16.0670   20.4640 H   0  0  0  0  0  0  0  0  0  0  0  0
  -26.9000  -15.8150   19.7730 H   0  0  0  0  0  0  0  0  0  0  0  0
  -30.7810  -17.9230   21.8400 C   0  0  0  0  0  0  0  0  0  0  0  0
  -30.1660  -18.6640   22.7520 N   0  0  0  0  0  0  0  0  0  0  0  0
  -31.8090  -17.3030   22.1080 O   0  0  0  0  0  0  0  0  0  0  0  0
  -29.3210  -19.1650   22.5140 H   0  0  0  0  0  0  0  0  0  0  0  0
  -30.5320  -18.7390   23.6910 H   0  0  0  0  0  0  0  0  0  0  0  0
  1  2  1  0
  1 46  1  0
  3  2  1  0
  3  4  2  0
  4  5  1  0
  6 17  2  0
  7  5  1  0
  7 12  1  0
  8 16  1  0
  8 18  1  0
  9 11  1  0
 10 16  1  0
 11 12  2  0
 11 10  1  0
 13  7  2  0
 14 13  1  0
 14  9  2  0
 15  9  1  0
 15  8  1  0
 16  6  1  0
 18 20  2  0
 19 18  1  0
 21 19  1  0
 22 31  2  0
 22 27  1  0
 23 19  1  0
 23 27  1  0
 24 23  1  0
 25 26  1  0
 25 24  1  0
 26 22  1  0
 27 28  2  0
 28 29  1  0
 30 29  2  0
 31 30  1  0
 32  6  1  0
 32 33  1  0
 32 42  1  0
 33 36  1  0
 34 38  1  0
 34 33  1  0
 35 34  2  0
 38 37  1  0
 40 38  1  0
 40 41  1  0
 40 39  1  0
 42 45  1  1
 42 43  1  0
 44 42  1  0
 46 85  1  0
 47 55  1  0
 48 53  1  0
 49 50  1  0
 49 48  1  0
 51 50  1  0
 51 60  1  0
 51 52  1  0
 53 47  1  0
 53 52  1  0
 54 47  2  0
 55 56  1  0
 55 46  2  3
 57 58  2  0
 58 77  1  0
 59 58  1  0
 59 62  1  0
 60 61  1  0
 60 57  1  0
 61 59  2  0
 62 63  1  0
 63 64  2  0
 65 68  1  0
 65 64  1  0
 66 65  2  0
 67 66  1  0
 67 62  2  0
 68 69  1  0
 69 74  2  0
 69 70  1  0
 70 71  2  0
 71 72  1  0
 72 76  1  0
 73 72  2  0
 74 73  1  0
 75 74  1  0
 77 78  1  0
 78 81  1  0
 78 80  1  0
 79 77  2  0
 82 57  1  0
 82 83  1  0
 84 82  1  0
 85 87  2  0
 85 86  1  0
 86 89  1  0
 88 86  1  0
M  ISO  4   4 101   5 101  47 100  55 100
M  END
>  <TORSDO>  (55) 
F 21

>  <SCORE>  (55) 
-12.533

>  <name>  (55) 
54

>  <ligand_id>  (55) 
54

>  <original_smiles>  (55) 
[H]c1c([H])c([H])c2c(c1[H])C([H])([H])C([H])([H])C([H])([H])C2([H])N([H])C(=O)C1([H])N(C(=O)C([H])(N([H])C(=O)C([H])(N([H])C([H])([H])[H])C([H])([H])[H])C(C([H])([H])[H])(C([H])([H])[H])C([H])([H])[H])C([H])([H])c2c([H])c(OC([H])([H])C([H])([H])C([H])([H])C([H])([H])C([H])(C(=O)N([H])[H])N([H])C(=O)N3C([H])([H])C([H])([H])C([H])([H])C([H])(n4nc(-c5c([H])c([H])c(Oc6c([H])c([H])c(F)c([H])c6F)c([H])c5[H])c(C(=O)N([H])[H])c4N([H])[H])C3([H])[H])c([H])c([H])c2C1([H])[H]

>  <smiles>  (55) 
[H]c1c([H])c([H])c2c(c1[H])C([H])([H])C([H])([H])C([H])([H])C2([H])N([H])C(=O)C1([H])N(C(=O)C([H])(N([H])C(=O)C([H])(N([H])C([H])([H])[H])C([H])([H])[H])C(C([H])([H])[H])(C([H])([H])[H])C([H])([H])[H])C([H])([H])c2c([H])c(OC([H])([H])C([H])([H])C([H])([H])C([H])([H])C([H])(C(=O)N([H])[H])N([H])C(=O)N3C([H])([H])C([H])([H])C([H])([H])C([H])(n4nc(-c5c([H])c([H])c(Oc6c([H])c([H])c(F)c([H])c6F)c([H])c5[H])c(C(=O)N([H])[H])c4N([H])[H])C3([H])[H])c([H])c([H])c2C1([H])[H]

$$$$
55:0:0
     RDKit          3D

 96103  0  0  1  0  0  0  0  0999 V2000
  -29.5620  -22.2480   19.9210 C   0  0  0  0  0  3  0  0  0  0  0  0
  -28.9840  -20.7670   20.0420 N   0  0  0  0  0  4  0  0  0  0  0  0
  -28.7330  -20.6090   21.0040 H   0  0  0  0  0  0  0  0  0  0  0  0
  -28.1020  -20.8420   19.5570 H   0  0  0  0  0  0  0  0  0  0  0  0
  -29.5830  -19.3960   19.4590 C   0  0  0  0  0  2  0  0  0  0  0  0
  -29.9960  -18.0120   20.3580 C   0  0  0  0  0  2  0  0  0  0  0  0
  -30.7870  -15.3340   19.7860 C   0  0  0  0  0  0  0  0  0  0  0  0
  -30.6790  -12.9760   18.8300 C   0  0  0  0  0  2  0  0  0  0  0  0
  -29.6600  -12.9060   17.6680 C   0  0  0  0  0  2  0  0  0  0  0  0
  -28.2280  -12.6820   18.1920 C   0  0  0  0  0  2  0  0  0  0  0  0
  -27.8900  -13.5910   19.4050 C   0  0  0  0  0  3  0  0  0  0  0  0
  -29.0230  -13.6050   20.4500 C   0  0  0  0  0  2  0  0  0  0  0  0
  -30.2300  -14.0560   19.7490 N   0  0  0  0  0  0  0  0  0  0  0  0
  -31.9870  -15.4350   19.5140 O   0  0  0  0  0  0  0  0  0  0  0  0
  -29.9340  -16.4730   19.9220 N   0  0  0  0  0  0  0  0  0  0  0  0
  -28.9770  -16.1600   19.9250 H   0  0  0  0  0  0  0  0  0  0  0  0
  -25.5840  -14.1400   20.3670 C   0  0  0  0  0  0  0  0  0  0  0  0
  -24.5510  -13.3520   20.7930 C   0  0  0  0  0  0  0  0  0  0  0  0
  -25.0050  -12.0040   20.6690 C   0  0  0  0  0  0  0  0  0  0  0  0
  -26.5980  -13.2700   20.0010 N   0  0  0  0  0  0  0  0  0  0  0  0
  -26.2660  -11.9790   20.2500 N   0  0  0  0  0  0  0  0  0  0  0  0
  -24.2890  -10.7360   20.8610 C   0  0  0  0  0  0  0  0  0  0  0  0
  -24.7020   -9.7950   21.8270 C   0  0  0  0  0  3  0  0  0  0  0  0
  -23.9860   -8.5920   22.0070 C   0  0  0  0  0  3  0  0  0  0  0  0
  -22.8410   -8.3220   21.2210 C   0  0  0  0  0  0  0  0  0  0  0  0
  -22.4470   -9.2550   20.2430 C   0  0  0  0  0  3  0  0  0  0  0  0
  -23.1640  -10.4480   20.0600 C   0  0  0  0  0  3  0  0  0  0  0  0
  -22.0980   -7.1690   21.3070 O   0  0  0  0  0  0  0  0  0  0  0  0
  -21.9030   -6.5270   22.5040 C   0  0  0  0  0  0  0  0  0  0  0  0
  -21.2090   -7.1350   23.5740 C   0  0  0  0  0  3  0  0  0  0  0  0
  -20.9700   -6.4100   24.7590 C   0  0  0  0  0  3  0  0  0  0  0  0
  -21.4170   -5.0810   24.8750 C   0  0  0  0  0  0  0  0  0  0  0  0
  -22.1040   -4.4750   23.8090 C   0  0  0  0  0  3  0  0  0  0  0  0
  -22.3450   -5.1960   22.6270 C   0  0  0  0  0  0  0  0  0  0  0  0
  -22.9860   -4.5960   21.5940 F   0  0  0  0  0  0  0  0  0  0  0  0
  -21.1850   -4.3810   26.0100 F   0  0  0  0  0  0  0  0  0  0  0  0
  -23.1810  -13.8220   21.1920 C   0  0  0  0  0  0  0  0  0  0  0  0
  -22.5200  -13.0920   22.0800 N   0  0  0  0  0  0  0  0  0  0  0  0
  -22.7130  -14.8690   20.7470 O   0  0  0  0  0  0  0  0  0  0  0  0
  -22.9190  -12.2460   22.4610 H   0  0  0  0  0  0  0  0  0  0  0  0
  -21.6030  -13.3860   22.3870 H   0  0  0  0  0  0  0  0  0  0  0  0
  -25.7370  -15.5160   20.2310 N   0  0  0  0  0  0  0  0  0  0  0  0
  -24.9740  -16.1580   20.4180 H   0  0  0  0  0  0  0  0  0  0  0  0
  -26.5190  -15.9640   19.7750 H   0  0  0  0  0  0  0  0  0  0  0  0
  -28.5250  -23.6170   19.8460 C   0  0  0  0  0  0  0  0  0  0  0  0
  -27.5160  -23.5270   19.1390 O   0  0  0  0  0  0  0  0  0  0  0  0
  -28.7070  -25.0760   20.6420 C   0  0  0  0  0  2  0  0  0  0  0  0
  -28.6680  -26.5030   20.0020 O   0  0  0  0  0  0  0  0  0  0  0  0
  -24.6600  -31.9600   23.0560 C   0  0  0  0  0  0  0  0  0  0  0  0
  -27.5480  -27.4080   20.0580 C   0  0  0  0  0  0  0  0  0  0  0  0
  -23.5750  -30.5230   21.3710 C   0  0  0  0  0  3  0  0  0  0  0  0
  -25.1380  -29.0300   19.9810 C   0  0  0  0  0  0  0  0  0  0  0  0
  -26.1150  -30.9210   21.2750 C   0  0  0  0  0  2  0  0  0  0  0  0
  -26.2780  -29.5360   20.6210 C   0  0  0  0  0  0  0  0  0  0  0  0
  -27.4880  -28.7420   20.6380 C   0  0  0  0  0  3  0  0  0  0  0  0
  -26.3760  -26.9950   19.3990 C   0  0  0  0  0  3  0  0  0  0  0  0
  -25.1980  -27.7740   19.3560 C   0  0  0  0  0  3  0  0  0  0  0  0
  -23.8670  -29.8670   19.9950 C   0  0  0  0  0  2  0  0  0  0  0  0
  -24.8020  -31.1570   21.9570 N   0  0  0  0  0  0  0  0  0  0  0  0
  -23.5480  -32.1830   23.5600 O   0  0  0  0  0  0  0  0  0  0  0  0
  -22.9230  -29.4740   22.3080 C   0  0  0  0  0  0  0  0  0  0  0  0
  -21.5980  -29.2770   22.1820 N   0  0  0  0  0  0  0  0  0  0  0  0
  -23.6120  -28.8380   23.1090 O   0  0  0  0  0  0  0  0  0  0  0  0
  -21.0970  -29.8430   21.5120 H   0  0  0  0  0  0  0  0  0  0  0  0
  -18.2350  -28.0480   22.7310 C   0  0  0  0  0  0  0  0  0  0  0  0
  -20.8010  -28.2990   22.9270 C   0  0  0  0  0  3  0  0  0  0  0  0
  -20.8830  -26.9000   22.2730 C   0  0  0  0  0  2  0  0  0  0  0  0
  -19.7480  -26.6310   21.2790 C   0  0  0  0  0  2  0  0  0  0  0  0
  -18.3880  -26.7380   21.9750 C   0  0  0  0  0  2  0  0  0  0  0  0
  -19.3660  -28.7880   23.1650 C   0  0  0  0  0  0  0  0  0  0  0  0
  -19.1670  -30.0130   23.8350 C   0  0  0  0  0  3  0  0  0  0  0  0
  -17.8670  -30.5020   24.0710 C   0  0  0  0  0  3  0  0  0  0  0  0
  -16.7500  -29.7580   23.6530 C   0  0  0  0  0  3  0  0  0  0  0  0
  -16.9360  -28.5310   22.9900 C   0  0  0  0  0  3  0  0  0  0  0  0
  -25.8870  -32.6530   23.7250 C   0  0  0  0  0  3  0  0  0  0  0  0
  -26.4320  -31.8700   24.9840 C   0  0  1  0  0  0  0  0  0  0  0  0
  -25.3390  -31.5170   26.0200 C   0  0  0  0  0  1  0  0  0  0  0  0
  -27.1140  -30.5500   24.5580 C   0  0  0  0  0  1  0  0  0  0  0  0
  -27.5140  -32.7140   25.6970 C   0  0  0  0  0  1  0  0  0  0  0  0
  -25.4800  -34.0140   24.1070 N   0  0  0  0  0  0  0  0  0  0  0  0
  -25.7090  -35.1140   23.3760 C   0  0  0  0  0  0  0  0  0  0  0  0
  -26.3510  -35.0930   22.3230 O   0  0  0  0  0  0  0  0  0  0  0  0
  -24.8990  -34.0970   24.9270 H   0  0  0  0  0  0  0  0  0  0  0  0
  -23.8490  -36.7920   23.1300 C   0  0  0  0  0  1  0  0  0  0  0  0
  -25.1370  -36.4480   23.8940 C   0  0  0  0  0  3  0  0  0  0  0  0
  -27.2170  -37.4670   24.7080 C   0  0  0  0  0  1  0  0  0  0  0  0
  -26.0850  -37.5780   23.7930 N   0  0  0  0  0  0  0  0  0  0  0  0
  -25.6150  -38.4610   23.9720 H   0  0  0  0  0  0  0  0  0  0  0  0
  -30.6600  -22.4450   20.9860 C   0  0  0  0  0  2  0  0  0  0  0  0
  -30.1260  -22.5120   22.4300 C   0  0  0  0  0  2  0  0  0  0  0  0
  -30.7930  -21.4920   23.3680 C   0  0  0  0  0  2  0  0  0  0  0  0
  -29.8200  -20.3700   23.7560 C   0  0  0  0  0  2  0  0  0  0  0  0
  -30.2850  -19.5110   24.9410 C   0  0  0  0  0  2  0  0  0  0  0  0
  -29.0790  -18.8520   25.6310 C   0  0  0  0  0  2  0  0  0  0  0  0
  -28.1530  -17.8210   27.7570 C   0  0  0  0  0  1  0  0  0  0  0  0
  -29.4150  -18.1100   26.9320 C   0  0  0  0  0  2  0  0  0  0  0  0
  1  2  1  0
  1 89  1  0
  2  3  1  0
  4  2  1  0
  5  2  1  0
  5  6  1  0
  7 15  1  0
  8 13  1  0
  9 10  1  0
  9  8  1  0
 11 10  1  0
 11 20  1  0
 11 12  1  0
 13  7  1  0
 13 12  1  0
 14  7  2  0
 15 16  1  0
 15  6  1  0
 17 18  2  0
 18 37  1  0
 19 18  1  0
 19 22  1  0
 20 21  1  0
 20 17  1  0
 21 19  2  0
 22 23  1  0
 23 24  2  0
 25 28  1  0
 25 24  1  0
 26 25  2  0
 27 26  1  0
 27 22  2  0
 28 29  1  0
 29 34  2  0
 29 30  1  0
 30 31  2  0
 31 32  1  0
 32 36  1  0
 33 32  2  0
 34 33  1  0
 35 34  1  0
 37 38  1  0
 38 41  1  0
 38 40  1  0
 39 37  2  0
 42 17  1  0
 42 43  1  0
 44 42  1  0
 45  1  1  0
 45 47  1  0
 46 45  2  0
 48 50  1  0
 48 47  1  0
 49 60  2  0
 50 55  1  0
 51 59  1  0
 51 61  1  0
 52 58  1  0
 52 54  1  0
 53 59  1  0
 54 55  2  0
 54 53  1  0
 56 50  2  0
 57 56  1  0
 57 52  2  0
 58 51  1  0
 59 49  1  0
 61 63  2  0
 62 61  1  0
 64 62  1  0
 65 74  2  0
 65 70  1  0
 66 62  1  0
 66 70  1  0
 67 66  1  0
 68 69  1  0
 68 67  1  0
 69 65  1  0
 70 71  2  0
 71 72  1  0
 73 72  2  0
 74 73  1  0
 75 49  1  0
 75 80  1  0
 75 76  1  0
 76 79  1  1
 76 77  1  0
 78 76  1  0
 80 83  1  0
 81 85  1  0
 81 80  1  0
 82 81  2  0
 85 84  1  0
 87 85  1  0
 87 88  1  0
 87 86  1  0
 89 90  1  0
 90 91  1  0
 91 92  1  0
 92 93  1  0
 93 94  1  0
 94 96  1  0
 96 95  1  0
M  ISO  4   7 100  15 100  47 101  48 101
M  END
>  <TORSDO>  (56) 
F 28

>  <SCORE>  (56) 
-3.947

>  <name>  (56) 
55

>  <ligand_id>  (56) 
55

>  <original_smiles>  (56) 
[H]c1c([H])c([H])c2c(c1[H])C([H])([H])C([H])([H])C([H])([H])C2([H])N([H])C(=O)C1([H])N(C(=O)C([H])(N([H])C(=O)C([H])(N([H])C([H])([H])[H])C([H])([H])[H])C(C([H])([H])[H])(C([H])([H])[H])C([H])([H])[H])C([H])([H])c2c([H])c(OC([H])([H])C(=O)C([H])(C([H])([H])C([H])([H])C([H])([H])C([H])([H])C([H])([H])C([H])([H])C([H])([H])C([H])([H])[H])[N+]([H])([H])C([H])([H])C([H])([H])N([H])C(=O)N3C([H])([H])C([H])([H])C([H])([H])C([H])(n4nc(-c5c([H])c([H])c(Oc6c([H])c([H])c(F)c([H])c6F)c([H])c5[H])c(C(=O)N([H])[H])c4N([H])[H])C3([H])[H])c([H])c([H])c2C1([H])[H]

>  <smiles>  (56) 
[H]c1c([H])c([H])c2c(c1[H])C([H])([H])C([H])([H])C([H])([H])C2([H])N([H])C(=O)C1([H])N(C(=O)C([H])(N([H])C(=O)C([H])(N([H])C([H])([H])[H])C([H])([H])[H])C(C([H])([H])[H])(C([H])([H])[H])C([H])([H])[H])C([H])([H])c2c([H])c(OC([H])([H])C(=O)C([H])(C([H])([H])C([H])([H])C([H])([H])C([H])([H])C([H])([H])C([H])([H])C([H])([H])C([H])([H])[H])[N+]([H])([H])C([H])([H])C([H])([H])N([H])C(=O)N3C([H])([H])C([H])([H])C([H])([H])C([H])(n4nc(-c5c([H])c([H])c(Oc6c([H])c([H])c(F)c([H])c6F)c([H])c5[H])c(C(=O)N([H])[H])c4N([H])[H])C3([H])[H])c([H])c([H])c2C1([H])[H]

$$$$
56:0:0
     RDKit          3D

 93101  0  0  1  0  0  0  0  0999 V2000
  -29.5160  -21.7440   20.2390 C   0  0  0  0  0  2  0  0  0  0  0  0
  -28.5830  -22.8850   20.0060 N   0  0  0  0  0  4  0  0  0  0  0  0
  -27.7310  -22.7360   20.5250 H   0  0  0  0  0  0  0  0  0  0  0  0
  -28.3360  -22.8480   19.0290 H   0  0  0  0  0  0  0  0  0  0  0  0
  -29.1160  -24.2530   20.3170 C   0  0  0  0  0  2  0  0  0  0  0  0
  -28.5050  -25.3820   19.4360 C   0  0  0  0  0  2  0  0  0  0  0  0
  -28.4240  -26.6740   20.1050 O   0  0  0  0  0  0  0  0  0  0  0  0
  -24.6300  -31.8900   23.2390 C   0  0  0  0  0  0  0  0  0  0  0  0
  -27.2460  -27.4150   20.1080 C   0  0  0  0  0  0  0  0  0  0  0  0
  -23.4210  -30.4970   21.6000 C   0  0  0  0  0  3  0  0  0  0  0  0
  -24.8630  -28.9710   20.1630 C   0  0  0  0  0  0  0  0  0  0  0  0
  -25.9580  -30.8350   21.4060 C   0  0  0  0  0  2  0  0  0  0  0  0
  -26.0330  -29.4690   20.7490 C   0  0  0  0  0  0  0  0  0  0  0  0
  -27.2240  -28.7000   20.7190 C   0  0  0  0  0  3  0  0  0  0  0  0
  -26.0380  -26.9480   19.5310 C   0  0  0  0  0  3  0  0  0  0  0  0
  -24.8630  -27.7090   19.5600 C   0  0  0  0  0  3  0  0  0  0  0  0
  -23.6290  -29.8410   20.2150 C   0  0  0  0  0  2  0  0  0  0  0  0
  -24.6890  -31.0900   22.1370 N   0  0  0  0  0  0  0  0  0  0  0  0
  -23.5510  -32.1580   23.7830 O   0  0  0  0  0  0  0  0  0  0  0  0
  -22.7740  -29.4650   22.5540 C   0  0  0  0  0  0  0  0  0  0  0  0
  -21.4480  -29.2840   22.4350 N   0  0  0  0  0  0  0  0  0  0  0  0
  -23.4610  -28.8310   23.3600 O   0  0  0  0  0  0  0  0  0  0  0  0
  -20.9530  -29.8540   21.7640 H   0  0  0  0  0  0  0  0  0  0  0  0
  -18.0770  -28.0840   22.9480 C   0  0  0  0  0  0  0  0  0  0  0  0
  -20.6360  -28.3430   23.2070 C   0  0  0  0  0  3  0  0  0  0  0  0
  -20.7370  -26.9130   22.6280 C   0  0  0  0  0  2  0  0  0  0  0  0
  -19.6280  -26.5910   21.6200 C   0  0  0  0  0  2  0  0  0  0  0  0
  -18.2500  -26.7360   22.2700 C   0  0  0  0  0  2  0  0  0  0  0  0
  -19.1970  -28.8440   23.3750 C   0  0  0  0  0  0  0  0  0  0  0  0
  -18.9830  -30.1060   23.9730 C   0  0  0  0  0  3  0  0  0  0  0  0
  -17.6790  -30.6070   24.1460 C   0  0  0  0  0  3  0  0  0  0  0  0
  -16.5720  -29.8450   23.7330 C   0  0  0  0  0  3  0  0  0  0  0  0
  -16.7720  -28.5870   23.1390 C   0  0  0  0  0  3  0  0  0  0  0  0
  -25.9150  -32.5210   23.8560 C   0  0  0  0  0  3  0  0  0  0  0  0
  -25.6030  -33.9160   24.1930 N   0  0  0  0  0  0  0  0  0  0  0  0
  -25.9200  -34.9730   23.4320 C   0  0  0  0  0  0  0  0  0  0  0  0
  -26.5800  -34.8770   22.3950 O   0  0  0  0  0  0  0  0  0  0  0  0
  -25.0150  -34.0640   25.0010 H   0  0  0  0  0  0  0  0  0  0  0  0
  -24.1780  -36.7590   23.0970 C   0  0  0  0  0  1  0  0  0  0  0  0
  -25.4270  -36.3580   23.8990 C   0  0  0  0  0  3  0  0  0  0  0  0
  -27.5650  -37.2510   24.7150 C   0  0  0  0  0  1  0  0  0  0  0  0
  -26.4540  -37.4170   23.7800 N   0  0  0  0  0  0  0  0  0  0  0  0
  -26.0440  -38.3340   23.9340 H   0  0  0  0  0  0  0  0  0  0  0  0
  -26.4430  -31.7460   25.1250 C   0  0  1  0  0  0  0  0  0  0  0  0
  -25.3590  -31.5020   26.2010 C   0  0  0  0  0  1  0  0  0  0  0  0
  -27.0290  -30.3720   24.7220 C   0  0  0  0  0  1  0  0  0  0  0  0
  -27.5920  -32.5450   25.7850 C   0  0  0  0  0  1  0  0  0  0  0  0
  -28.8400  -20.4230   20.7270 C   0  0  0  0  0  2  0  0  0  0  0  0
  -29.6200  -18.0020   20.9660 C   0  0  0  0  0  0  0  0  0  0  0  0
  -29.7580  -19.2840   20.5780 N   0  0  0  0  0  0  0  0  0  0  0  0
  -28.6810  -17.6130   21.6630 O   0  0  0  0  0  0  0  0  0  0  0  0
  -30.5670  -19.4500   19.9930 H   0  0  0  0  0  0  0  0  0  0  0  0
  -30.8250  -14.5580   20.3710 C   0  0  0  0  0  0  0  0  0  0  0  0
  -30.5080  -12.3390   19.3870 C   0  0  0  0  0  2  0  0  0  0  0  0
  -29.5820  -12.4140   18.1530 C   0  0  0  0  0  2  0  0  0  0  0  0
  -28.1070  -12.3220   18.5810 C   0  0  0  0  0  2  0  0  0  0  0  0
  -27.7370  -13.2460   19.7710 C   0  0  0  0  0  3  0  0  0  0  0  0
  -28.7840  -13.1680   20.9030 C   0  0  0  0  0  2  0  0  0  0  0  0
  -30.1000  -13.4110   20.3050 N   0  0  0  0  0  0  0  0  0  0  0  0
  -32.0540  -14.5600   20.3190 O   0  0  0  0  0  0  0  0  0  0  0  0
  -30.7140  -17.2410   18.1360 C   0  0  0  0  0  2  0  0  0  0  0  0
  -31.5930  -17.5430   19.3360 C   0  0  0  0  0  2  0  0  0  0  0  0
  -30.1640  -15.8560   18.5010 C   0  0  0  0  0  2  0  0  0  0  0  0
  -30.7160  -17.0100   20.4830 C   0  0  0  0  0  3  0  0  0  0  0  0
  -30.1970  -15.7030   19.9840 N   0  0  0  0  0  0  0  0  0  0  0  0
  -25.3300  -13.8440   20.4400 C   0  0  0  0  0  0  0  0  0  0  0  0
  -24.2600  -13.0670   20.7960 C   0  0  0  0  0  0  0  0  0  0  0  0
  -24.7350  -11.7210   20.8080 C   0  0  0  0  0  0  0  0  0  0  0  0
  -26.3860  -12.9690   20.2510 N   0  0  0  0  0  0  0  0  0  0  0  0
  -26.0330  -11.6910   20.5370 N   0  0  0  0  0  0  0  0  0  0  0  0
  -24.0200  -10.4530   20.9970 C   0  0  0  0  0  0  0  0  0  0  0  0
  -24.4420   -9.5040   21.9530 C   0  0  0  0  0  3  0  0  0  0  0  0
  -23.7280   -8.2990   22.1290 C   0  0  0  0  0  3  0  0  0  0  0  0
  -22.5780   -8.0350   21.3500 C   0  0  0  0  0  0  0  0  0  0  0  0
  -22.1770   -8.9730   20.3830 C   0  0  0  0  0  3  0  0  0  0  0  0
  -22.8900  -10.1700   20.2040 C   0  0  0  0  0  3  0  0  0  0  0  0
  -21.8350   -6.8820   21.4370 O   0  0  0  0  0  0  0  0  0  0  0  0
  -21.7590   -6.1620   22.6040 C   0  0  0  0  0  0  0  0  0  0  0  0
  -21.2860   -6.7350   23.8030 C   0  0  0  0  0  3  0  0  0  0  0  0
  -21.1610   -5.9400   24.9600 C   0  0  0  0  0  3  0  0  0  0  0  0
  -21.4930   -4.5720   24.9160 C   0  0  0  0  0  0  0  0  0  0  0  0
  -21.9560   -3.9990   23.7190 C   0  0  0  0  0  3  0  0  0  0  0  0
  -22.0860   -4.7910   22.5660 C   0  0  0  0  0  0  0  0  0  0  0  0
  -22.5150   -4.2300   21.4080 F   0  0  0  0  0  0  0  0  0  0  0  0
  -21.3660   -3.8060   26.0260 F   0  0  0  0  0  0  0  0  0  0  0  0
  -22.8500  -13.5360   21.0170 C   0  0  0  0  0  0  0  0  0  0  0  0
  -22.1070  -12.8540   21.8810 N   0  0  0  0  0  0  0  0  0  0  0  0
  -22.4130  -14.5420   20.4600 O   0  0  0  0  0  0  0  0  0  0  0  0
  -22.4740  -12.0450   22.3600 H   0  0  0  0  0  0  0  0  0  0  0  0
  -21.1610  -13.1510   22.0710 H   0  0  0  0  0  0  0  0  0  0  0  0
  -25.4940  -15.2100   20.2350 N   0  0  0  0  0  0  0  0  0  0  0  0
  -24.7420  -15.8810   20.3300 H   0  0  0  0  0  0  0  0  0  0  0  0
  -26.3800  -15.6380   19.9880 H   0  0  0  0  0  0  0  0  0  0  0  0
  1 48  1  0
  2  1  1  0
  2  5  1  0
  2  3  1  0
  4  2  1  0
  6  7  1  0
  6  5  1  0
  7  9  1  0
  8 19  2  0
  9 14  1  0
 10 18  1  0
 10 20  1  0
 11 17  1  0
 11 13  1  0
 12 18  1  0
 13 12  1  0
 14 13  2  0
 15 16  1  0
 15  9  2  0
 16 11  2  0
 17 10  1  0
 18  8  1  0
 20 22  2  0
 21 20  1  0
 23 21  1  0
 24 33  2  0
 24 29  1  0
 25 21  1  0
 25 29  1  0
 26 25  1  0
 27 28  1  0
 27 26  1  0
 28 24  1  0
 29 30  2  0
 30 31  1  0
 32 31  2  0
 33 32  1  0
 34  8  1  0
 34 35  1  0
 34 44  1  0
 35 38  1  0
 36 40  1  0
 36 35  1  0
 37 36  2  0
 40 39  1  0
 42 40  1  0
 42 43  1  0
 42 41  1  0
 44 47  1  1
 44 45  1  0
 46 44  1  0
 49 51  2  0
 50 48  1  0
 50 49  1  0
 52 50  1  0
 54 59  1  0
 55 56  1  0
 55 54  1  0
 57 56  1  0
 57 69  1  0
 57 58  1  0
 59 53  1  0
 59 58  1  0
 60 53  2  0
 61 63  1  0
 61 62  1  0
 62 64  1  0
 63 65  1  0
 64 49  1  0
 65 53  1  0
 65 64  1  0
 66 67  2  0
 67 68  1  0
 67 86  1  0
 68 71  1  0
 69 66  1  0
 69 70  1  0
 70 68  2  0
 71 72  1  0
 72 73  2  0
 74 77  1  0
 74 73  1  0
 75 74  2  0
 76 75  1  0
 76 71  2  0
 77 78  1  0
 78 79  1  0
 79 80  2  0
 81 80  1  0
 81 85  1  0
 82 81  2  0
 83 78  2  0
 83 82  1  0
 84 83  1  0
 86 87  1  0
 87 90  1  0
 87 89  1  0
 88 86  2  0
 91 92  1  0
 91 66  1  0
 93 91  1  0
M  ISO  4   6 101   7 101  53 100  65 100
M  END
>  <TORSDO>  (57) 
F 21

>  <SCORE>  (57) 
-12.459

>  <name>  (57) 
56

>  <ligand_id>  (57) 
56

>  <original_smiles>  (57) 
[H]c1c([H])c([H])c2c(c1[H])C([H])([H])C([H])([H])C([H])([H])C2([H])N([H])C(=O)C1([H])N(C(=O)C([H])(N([H])C(=O)C([H])(N([H])C([H])([H])[H])C([H])([H])[H])C(C([H])([H])[H])(C([H])([H])[H])C([H])([H])[H])C([H])([H])c2c([H])c(OC([H])([H])C([H])([H])[N+]([H])([H])C([H])([H])C([H])([H])N([H])C(=O)C3([H])N(C(=O)N4C([H])([H])C([H])([H])C([H])([H])C([H])(n5nc(-c6c([H])c([H])c(Oc7c([H])c([H])c(F)c([H])c7F)c([H])c6[H])c(C(=O)N([H])[H])c5N([H])[H])C4([H])[H])C([H])([H])C([H])([H])C3([H])[H])c([H])c([H])c2C1([H])[H]

>  <smiles>  (57) 
[H]c1c([H])c([H])c2c(c1[H])C([H])([H])C([H])([H])C([H])([H])C2([H])N([H])C(=O)C1([H])N(C(=O)C([H])(N([H])C(=O)C([H])(N([H])C([H])([H])[H])C([H])([H])[H])C(C([H])([H])[H])(C([H])([H])[H])C([H])([H])[H])C([H])([H])c2c([H])c(OC([H])([H])C([H])([H])[N+]([H])([H])C([H])([H])C([H])([H])N([H])C(=O)C3([H])N(C(=O)N4C([H])([H])C([H])([H])C([H])([H])C([H])(n5nc(-c6c([H])c([H])c(Oc7c([H])c([H])c(F)c([H])c7F)c([H])c6[H])c(C(=O)N([H])[H])c5N([H])[H])C4([H])[H])C([H])([H])C([H])([H])C3([H])[H])c([H])c([H])c2C1([H])[H]

$$$$
57:0:0
     RDKit          3D

 94102  0  0  1  0  0  0  0  0999 V2000
  -28.8590  -19.9320   19.7010 C   0  0  0  0  0  2  0  0  0  0  0  0
  -26.3710  -17.4890   20.2460 C   0  0  0  0  0  2  0  0  0  0  0  0
  -26.3410  -18.2210   18.8920 C   0  0  0  0  0  2  0  0  0  0  0  0
  -27.6180  -16.6040   20.3670 C   0  0  0  0  0  2  0  0  0  0  0  0
  -27.7320  -18.3080   18.2240 C   0  0  0  0  0  2  0  0  0  0  0  0
  -28.9210  -17.4410   20.2490 C   0  0  0  0  0  3  0  0  0  0  0  0
  -28.8200  -18.5280   19.2150 N   0  0  2  0  0  4  0  0  0  0  0  0
  -29.6770  -18.4630   18.6830 H   0  0  0  0  0  0  0  0  0  0  0  0
  -30.1940  -16.5930   19.9910 C   0  0  0  0  0  2  0  0  0  0  0  0
  -31.0300  -14.3220   20.4050 C   0  0  0  0  0  0  0  0  0  0  0  0
  -30.7520  -12.0770   19.4470 C   0  0  0  0  0  2  0  0  0  0  0  0
  -29.8620  -12.2090   18.1930 C   0  0  0  0  0  2  0  0  0  0  0  0
  -28.3670  -12.1380   18.5660 C   0  0  0  0  0  2  0  0  0  0  0  0
  -28.0000  -13.0760   19.7470 C   0  0  0  0  0  3  0  0  0  0  0  0
  -29.0050  -12.9120   20.9130 C   0  0  0  0  0  2  0  0  0  0  0  0
  -30.3640  -13.1370   20.3890 N   0  0  0  0  0  0  0  0  0  0  0  0
  -32.1450  -14.4920   19.9050 O   0  0  0  0  0  0  0  0  0  0  0  0
  -30.2740  -15.3600   20.7810 N   0  0  0  0  0  0  0  0  0  0  0  0
  -29.4330  -15.1030   21.2730 H   0  0  0  0  0  0  0  0  0  0  0  0
  -25.5970  -13.7840   20.3450 C   0  0  0  0  0  0  0  0  0  0  0  0
  -24.4950  -13.0650   20.7140 C   0  0  0  0  0  0  0  0  0  0  0  0
  -24.9090  -11.6990   20.7370 C   0  0  0  0  0  0  0  0  0  0  0  0
  -26.6220  -12.8650   20.1840 N   0  0  0  0  0  0  0  0  0  0  0  0
  -26.2070  -11.6060   20.4730 N   0  0  0  0  0  0  0  0  0  0  0  0
  -24.1330  -10.4700   20.9370 C   0  0  0  0  0  0  0  0  0  0  0  0
  -24.5010   -9.5170   21.9120 C   0  0  0  0  0  3  0  0  0  0  0  0
  -23.7300   -8.3510   22.0990 C   0  0  0  0  0  3  0  0  0  0  0  0
  -22.5750   -8.1290   21.3110 C   0  0  0  0  0  0  0  0  0  0  0  0
  -22.2240   -9.0690   20.3270 C   0  0  0  0  0  3  0  0  0  0  0  0
  -22.9980  -10.2270   20.1370 C   0  0  0  0  0  3  0  0  0  0  0  0
  -21.7800   -7.0130   21.4080 O   0  0  0  0  0  0  0  0  0  0  0  0
  -21.6580   -6.3150   22.5830 C   0  0  0  0  0  0  0  0  0  0  0  0
  -21.2060   -6.9290   23.7720 C   0  0  0  0  0  3  0  0  0  0  0  0
  -21.0280   -6.1590   24.9380 C   0  0  0  0  0  3  0  0  0  0  0  0
  -21.2960   -4.7760   24.9180 C   0  0  0  0  0  0  0  0  0  0  0  0
  -21.7430   -4.1630   23.7340 C   0  0  0  0  0  3  0  0  0  0  0  0
  -21.9200   -4.9300   22.5700 C   0  0  0  0  0  0  0  0  0  0  0  0
  -22.3300   -4.3310   21.4260 F   0  0  0  0  0  0  0  0  0  0  0  0
  -21.1180   -4.0360   26.0350 F   0  0  0  0  0  0  0  0  0  0  0  0
  -23.1090  -13.6000   20.9280 C   0  0  0  0  0  0  0  0  0  0  0  0
  -22.3400  -12.9710   21.8110 N   0  0  0  0  0  0  0  0  0  0  0  0
  -22.7170  -14.6110   20.3470 O   0  0  0  0  0  0  0  0  0  0  0  0
  -22.6710  -12.1540   22.3010 H   0  0  0  0  0  0  0  0  0  0  0  0
  -21.4080  -13.3100   21.9970 H   0  0  0  0  0  0  0  0  0  0  0  0
  -25.8040  -15.1350   20.1040 N   0  0  0  0  0  0  0  0  0  0  0  0
  -25.0160  -15.7720   20.0710 H   0  0  0  0  0  0  0  0  0  0  0  0
  -26.5960  -15.4450   19.5620 H   0  0  0  0  0  0  0  0  0  0  0  0
  -30.4690  -20.1860   17.6710 C   0  0  0  0  0  1  0  0  0  0  0  0
  -29.9470  -20.7900   18.9940 C   0  0  0  0  0  3  0  0  0  0  0  0
  -29.4570  -22.2290   18.7120 C   0  0  0  0  0  2  0  0  0  0  0  0
  -29.1930  -23.0920   19.9560 C   0  0  0  0  0  2  0  0  0  0  0  0
  -28.8840  -24.5520   19.5930 C   0  0  0  0  0  2  0  0  0  0  0  0
  -28.4890  -25.3770   20.8240 C   0  0  0  0  0  2  0  0  0  0  0  0
  -28.5190  -26.7660   20.5270 O   0  0  0  0  0  0  0  0  0  0  0  0
  -24.6470  -31.9760   23.3700 C   0  0  0  0  0  0  0  0  0  0  0  0
  -27.3200  -27.4330   20.5060 C   0  0  0  0  0  0  0  0  0  0  0  0
  -23.4590  -30.5320   21.7470 C   0  0  0  0  0  3  0  0  0  0  0  0
  -24.9270  -28.9260   20.4170 C   0  0  0  0  0  0  0  0  0  0  0  0
  -25.9870  -30.8670   21.5890 C   0  0  0  0  0  2  0  0  0  0  0  0
  -26.0730  -29.4750   21.0050 C   0  0  0  0  0  0  0  0  0  0  0  0
  -27.2720  -28.7360   21.0410 C   0  0  0  0  0  3  0  0  0  0  0  0
  -26.1560  -26.8810   19.9270 C   0  0  0  0  0  3  0  0  0  0  0  0
  -24.9600  -27.6270   19.8790 C   0  0  0  0  0  3  0  0  0  0  0  0
  -23.6900  -29.7960   20.4000 C   0  0  0  0  0  2  0  0  0  0  0  0
  -24.7150  -31.1400   22.2950 N   0  0  0  0  0  0  0  0  0  0  0  0
  -23.5580  -32.2790   23.8770 O   0  0  0  0  0  0  0  0  0  0  0  0
  -22.7750  -29.5540   22.7260 C   0  0  0  0  0  0  0  0  0  0  0  0
  -21.4560  -29.3650   22.5560 N   0  0  0  0  0  0  0  0  0  0  0  0
  -23.4270  -28.9670   23.5930 O   0  0  0  0  0  0  0  0  0  0  0  0
  -20.9930  -29.8880   21.8260 H   0  0  0  0  0  0  0  0  0  0  0  0
  -18.0650  -28.1940   22.9670 C   0  0  0  0  0  0  0  0  0  0  0  0
  -20.6100  -28.4610   23.3340 C   0  0  0  0  0  3  0  0  0  0  0  0
  -20.7340  -27.0070   22.8240 C   0  0  0  0  0  2  0  0  0  0  0  0
  -19.6730  -26.6400   21.7810 C   0  0  0  0  0  2  0  0  0  0  0  0
  -18.2670  -26.8150   22.3600 C   0  0  0  0  0  2  0  0  0  0  0  0
  -19.1670  -28.9730   23.4100 C   0  0  0  0  0  0  0  0  0  0  0  0
  -18.9280  -30.2620   23.9340 C   0  0  0  0  0  3  0  0  0  0  0  0
  -17.6200  -30.7720   24.0220 C   0  0  0  0  0  3  0  0  0  0  0  0
  -16.5310  -29.9890   23.5990 C   0  0  0  0  0  3  0  0  0  0  0  0
  -16.7550  -28.7030   23.0770 C   0  0  0  0  0  3  0  0  0  0  0  0
  -25.9290  -32.6090   24.0000 C   0  0  0  0  0  3  0  0  0  0  0  0
  -25.6230  -34.0120   24.3090 N   0  0  0  0  0  0  0  0  0  0  0  0
  -25.9620  -35.0510   23.5340 C   0  0  0  0  0  0  0  0  0  0  0  0
  -26.6360  -34.9310   22.5080 O   0  0  0  0  0  0  0  0  0  0  0  0
  -25.0260  -34.1800   25.1040 H   0  0  0  0  0  0  0  0  0  0  0  0
  -24.2370  -36.8380   23.1430 C   0  0  0  0  0  1  0  0  0  0  0  0
  -25.4740  -36.4460   23.9680 C   0  0  0  0  0  3  0  0  0  0  0  0
  -27.6060  -37.3400   24.7930 C   0  0  0  0  0  1  0  0  0  0  0  0
  -26.5080  -37.4960   23.8420 N   0  0  0  0  0  0  0  0  0  0  0  0
  -26.1030  -38.4190   23.9750 H   0  0  0  0  0  0  0  0  0  0  0  0
  -26.4310  -31.8480   25.2870 C   0  0  1  0  0  0  0  0  0  0  0  0
  -25.3190  -31.5880   26.3280 C   0  0  0  0  0  1  0  0  0  0  0  0
  -27.0520  -30.4840   24.9060 C   0  0  0  0  0  1  0  0  0  0  0  0
  -27.5510  -32.6660   25.9770 C   0  0  0  0  0  1  0  0  0  0  0  0
  2  4  1  0
  3  2  1  0
  5  3  1  0
  5  7  1  0
  6  9  1  0
  6  4  1  0
  7  1  1  0
  7  6  1  0
  7  8  1  6
  9 18  1  0
 10 18  1  0
 11 16  1  0
 12 13  1  0
 12 11  1  0
 14 13  1  0
 14 23  1  0
 14 15  1  0
 16 10  1  0
 16 15  1  0
 17 10  2  0
 18 19  1  0
 20 21  2  0
 21 22  1  0
 21 40  1  0
 22 25  1  0
 23 20  1  0
 23 24  1  0
 24 22  2  0
 25 26  1  0
 26 27  2  0
 28 31  1  0
 28 27  1  0
 29 28  2  0
 30 29  1  0
 30 25  2  0
 31 32  1  0
 32 33  1  0
 33 34  2  0
 35 34  1  0
 35 39  1  0
 36 35  2  0
 37 32  2  0
 37 36  1  0
 38 37  1  0
 40 41  1  0
 41 44  1  0
 41 43  1  0
 42 40  2  0
 45 20  1  0
 46 45  1  0
 47 45  1  0
 49 48  1  0
 49  1  1  0
 50 49  1  0
 50 51  1  0
 52 51  1  0
 52 53  1  0
 54 53  1  0
 55 66  2  0
 56 54  1  0
 56 61  1  0
 57 65  1  0
 57 67  1  0
 58 60  1  0
 59 65  1  0
 60 61  2  0
 60 59  1  0
 62 56  2  0
 63 62  1  0
 63 58  2  0
 64 58  1  0
 64 57  1  0
 65 55  1  0
 67 69  2  0
 68 67  1  0
 70 68  1  0
 71 80  2  0
 71 76  1  0
 72 68  1  0
 72 76  1  0
 73 72  1  0
 74 75  1  0
 74 73  1  0
 75 71  1  0
 76 77  2  0
 77 78  1  0
 79 78  2  0
 80 79  1  0
 81 55  1  0
 81 82  1  0
 81 91  1  0
 82 85  1  0
 83 87  1  0
 83 82  1  0
 84 83  2  0
 87 86  1  0
 89 87  1  0
 89 90  1  0
 89 88  1  0
 91 94  1  1
 91 92  1  0
 93 91  1  0
M  ISO  4  10 100  18 100  53 101  54 101
M  END
>  <TORSDO>  (58) 
F 23

>  <SCORE>  (58) 
-12.214

>  <name>  (58) 
57

>  <ligand_id>  (58) 
57

>  <original_smiles>  (58) 
[H]c1c([H])c([H])c2c(c1[H])C([H])([H])C([H])([H])C([H])([H])C2([H])N([H])C(=O)C1([H])N(C(=O)C([H])(N([H])C(=O)C([H])(N([H])C([H])([H])[H])C([H])([H])[H])C(C([H])([H])[H])(C([H])([H])[H])C([H])([H])[H])C([H])([H])c2c([H])c(OC([H])([H])C([H])([H])C([H])([H])C([H])([H])C([H])(C([H])([H])[H])C([H])([H])[N+]3([H])C([H])([H])C([H])([H])C([H])([H])C([H])([H])C3([H])C([H])([H])N([H])C(=O)N3C([H])([H])C([H])([H])C([H])([H])C([H])(n4nc(-c5c([H])c([H])c(Oc6c([H])c([H])c(F)c([H])c6F)c([H])c5[H])c(C(=O)N([H])[H])c4N([H])[H])C3([H])[H])c([H])c([H])c2C1([H])[H]

>  <smiles>  (58) 
[H]c1c([H])c([H])c2c(c1[H])C([H])([H])C([H])([H])C([H])([H])C2([H])N([H])C(=O)C1([H])N(C(=O)C([H])(N([H])C(=O)C([H])(N([H])C([H])([H])[H])C([H])([H])[H])C(C([H])([H])[H])(C([H])([H])[H])C([H])([H])[H])C([H])([H])c2c([H])c(OC([H])([H])C([H])([H])C([H])([H])C([H])([H])C([H])(C([H])([H])[H])C([H])([H])[N+]3([H])C([H])([H])C([H])([H])C([H])([H])C([H])([H])C3([H])C([H])([H])N([H])C(=O)N3C([H])([H])C([H])([H])C([H])([H])C([H])(n4nc(-c5c([H])c([H])c(Oc6c([H])c([H])c(F)c([H])c6F)c([H])c5[H])c(C(=O)N([H])[H])c4N([H])[H])C3([H])[H])c([H])c([H])c2C1([H])[H]

$$$$
58:0:0
     RDKit          3D

 99106  0  0  1  0  0  0  0  0999 V2000
  -30.8630  -19.4690   21.0890 C   0  0  0  0  0  3  0  0  0  0  0  0
  -28.7570  -20.6930   20.1510 C   0  0  0  0  0  1  0  0  0  0  0  0
  -29.8810  -20.6910   21.2040 C   0  0  0  0  0  3  0  0  0  0  0  0
  -29.3340  -20.9900   22.6230 C   0  0  0  0  0  2  0  0  0  0  0  0
  -29.3880  -22.4930   23.0290 C   0  0  0  0  0  2  0  0  0  0  0  0
  -28.3860  -23.4610   22.3370 C   0  0  0  0  0  2  0  0  0  0  0  0
  -28.5620  -24.9320   22.7990 C   0  0  0  0  0  2  0  0  0  0  0  0
  -27.6670  -25.8430   22.1360 O   0  0  0  0  0  0  0  0  0  0  0  0
  -27.6580  -31.4070   26.5770 C   0  0  0  0  0  0  0  0  0  0  0  0
  -26.9490  -26.6390   22.9930 C   0  0  0  0  0  0  0  0  0  0  0  0
  -25.6920  -29.9110   26.6990 C   0  0  0  0  0  3  0  0  0  0  0  0
  -25.4680  -28.2160   24.8050 C   0  0  0  0  0  0  0  0  0  0  0  0
  -26.9910  -30.1790   24.5120 C   0  0  0  0  0  2  0  0  0  0  0  0
  -26.6010  -28.7520   24.1750 C   0  0  0  0  0  0  0  0  0  0  0  0
  -27.3440  -27.9690   23.2640 C   0  0  0  0  0  3  0  0  0  0  0  0
  -25.7990  -26.1160   23.6220 C   0  0  0  0  0  3  0  0  0  0  0  0
  -25.0630  -26.8990   24.5300 C   0  0  0  0  0  3  0  0  0  0  0  0
  -24.7340  -29.1150   25.7720 C   0  0  0  0  0  2  0  0  0  0  0  0
  -26.8400  -30.5170   25.9470 N   0  0  0  0  0  0  0  0  0  0  0  0
  -27.4400  -31.7570   27.7450 O   0  0  0  0  0  0  0  0  0  0  0  0
  -26.1330  -28.9900   27.8580 C   0  0  0  0  0  0  0  0  0  0  0  0
  -25.3710  -29.0150   28.9630 N   0  0  0  0  0  0  0  0  0  0  0  0
  -27.1230  -28.2610   27.7470 O   0  0  0  0  0  0  0  0  0  0  0  0
  -24.5900  -29.6570   28.9810 H   0  0  0  0  0  0  0  0  0  0  0  0
  -24.3120  -28.5850   32.3900 C   0  0  0  0  0  0  0  0  0  0  0  0
  -25.5690  -28.2050   30.1640 C   0  0  0  0  0  3  0  0  0  0  0  0
  -24.7930  -26.8710   30.0760 C   0  0  0  0  0  2  0  0  0  0  0  0
  -23.3960  -26.9390   30.7030 C   0  0  0  0  0  2  0  0  0  0  0  0
  -23.4950  -27.3220   32.1820 C   0  0  0  0  0  2  0  0  0  0  0  0
  -25.2750  -29.0090   31.4360 C   0  0  0  0  0  0  0  0  0  0  0  0
  -25.9800  -30.2110   31.6630 C   0  0  0  0  0  3  0  0  0  0  0  0
  -25.7430  -30.9770   32.8180 C   0  0  0  0  0  3  0  0  0  0  0  0
  -24.8010  -30.5440   33.7670 C   0  0  0  0  0  3  0  0  0  0  0  0
  -24.0920  -29.3510   33.5550 C   0  0  0  0  0  3  0  0  0  0  0  0
  -28.8860  -32.0460   25.8550 C   0  0  0  0  0  3  0  0  0  0  0  0
  -29.0540  -33.4050   26.3870 N   0  0  0  0  0  0  0  0  0  0  0  0
  -28.6580  -34.5190   25.7570 C   0  0  0  0  0  0  0  0  0  0  0  0
  -28.1690  -34.5120   24.6240 O   0  0  0  0  0  0  0  0  0  0  0  0
  -29.3870  -33.4810   27.3370 H   0  0  0  0  0  0  0  0  0  0  0  0
  -27.4770  -36.3030   27.0860 C   0  0  0  0  0  1  0  0  0  0  0  0
  -28.8280  -35.8550   26.5060 C   0  0  0  0  0  3  0  0  0  0  0  0
  -30.7810  -36.7040   25.2770 C   0  0  0  0  0  1  0  0  0  0  0  0
  -29.3910  -36.9340   25.6650 N   0  0  0  0  0  0  0  0  0  0  0  0
  -29.3390  -37.8290   26.1460 H   0  0  0  0  0  0  0  0  0  0  0  0
  -30.2130  -31.2080   26.0220 C   0  0  1  0  0  0  0  0  0  0  0  0
  -30.5350  -30.8420   27.4900 C   0  0  0  0  0  1  0  0  0  0  0  0
  -30.1340  -29.8920   25.2100 C   0  0  0  0  0  1  0  0  0  0  0  0
  -31.4090  -32.0030   25.4490 C   0  0  0  0  0  1  0  0  0  0  0  0
  -31.9480  -19.7220   19.9920 C   0  0  0  0  0  2  0  0  0  0  0  0
  -34.0780  -21.0200   19.3380 C   0  0  0  0  0  1  0  0  0  0  0  0
  -32.8100  -20.9870   20.2050 C   0  0  0  0  0  2  0  0  0  0  0  0
  -30.2000  -18.0390   20.9960 C   0  0  0  0  0  2  0  0  0  0  0  0
  -31.1480  -16.9790   20.3560 C   0  0  0  0  0  2  0  0  0  0  0  0
  -31.0690  -15.4540   20.6900 C   0  0  0  0  0  3  0  0  0  0  0  0
  -30.1670  -13.9700   18.7970 C   0  0  0  0  0  0  0  0  0  0  0  0
  -29.2370  -12.1540   17.3940 C   0  0  0  0  0  2  0  0  0  0  0  0
  -28.0210  -12.6380   16.5810 C   0  0  0  0  0  2  0  0  0  0  0  0
  -26.7260  -12.5140   17.4050 C   0  0  0  0  0  2  0  0  0  0  0  0
  -26.8670  -13.1170   18.8280 C   0  0  0  0  0  3  0  0  0  0  0  0
  -28.1540  -12.6070   19.5120 C   0  0  0  0  0  2  0  0  0  0  0  0
  -29.2960  -12.9340   18.6390 N   0  0  0  0  0  0  0  0  0  0  0  0
  -31.0070  -14.2520   17.9410 O   0  0  0  0  0  0  0  0  0  0  0  0
  -30.0650  -14.6460   19.9580 N   0  0  0  0  0  0  0  0  0  0  0  0
  -29.2630  -14.3800   20.5100 H   0  0  0  0  0  0  0  0  0  0  0  0
  -24.7540  -13.7440   20.1580 C   0  0  0  0  0  0  0  0  0  0  0  0
  -23.8050  -12.9780   20.7820 C   0  0  0  0  0  0  0  0  0  0  0  0
  -24.2120  -11.6200   20.6000 C   0  0  0  0  0  0  0  0  0  0  0  0
  -25.6810  -12.8520   19.6400 N   0  0  0  0  0  0  0  0  0  0  0  0
  -25.3720  -11.5700   19.9610 N   0  0  0  0  0  0  0  0  0  0  0  0
  -23.5370  -10.3640   20.9500 C   0  0  0  0  0  0  0  0  0  0  0  0
  -24.1110   -9.4460   21.8570 C   0  0  0  0  0  3  0  0  0  0  0  0
  -23.4330   -8.2530   22.1930 C   0  0  0  0  0  3  0  0  0  0  0  0
  -22.1700   -7.9690   21.6210 C   0  0  0  0  0  0  0  0  0  0  0  0
  -21.6130   -8.8770   20.7030 C   0  0  0  0  0  3  0  0  0  0  0  0
  -22.2910  -10.0610   20.3670 C   0  0  0  0  0  3  0  0  0  0  0  0
  -21.4500   -6.8240   21.8680 O   0  0  0  0  0  0  0  0  0  0  0  0
  -21.5110   -6.1830   23.0790 C   0  0  0  0  0  0  0  0  0  0  0  0
  -21.1300   -6.8220   24.2790 C   0  0  0  0  0  3  0  0  0  0  0  0
  -21.1420   -6.1050   25.4920 C   0  0  0  0  0  3  0  0  0  0  0  0
  -21.5240   -4.7500   25.5060 C   0  0  0  0  0  0  0  0  0  0  0  0
  -21.8960   -4.1100   24.3110 C   0  0  0  0  0  3  0  0  0  0  0  0
  -21.8880   -4.8250   23.1000 C   0  0  0  0  0  0  0  0  0  0  0  0
  -22.2290   -4.2000   21.9470 F   0  0  0  0  0  0  0  0  0  0  0  0
  -21.5270   -4.0580   26.6700 F   0  0  0  0  0  0  0  0  0  0  0  0
  -22.5390  -13.4680   21.4230 C   0  0  0  0  0  0  0  0  0  0  0  0
  -22.0870  -12.7970   22.4770 N   0  0  0  0  0  0  0  0  0  0  0  0
  -21.9690  -14.4800   21.0210 O   0  0  0  0  0  0  0  0  0  0  0  0
  -22.5680  -11.9790   22.8200 H   0  0  0  0  0  0  0  0  0  0  0  0
  -21.2480  -13.1060   22.9470 H   0  0  0  0  0  0  0  0  0  0  0  0
  -24.8970  -15.1160   19.9700 N   0  0  0  0  0  0  0  0  0  0  0  0
  -24.2120  -15.7870   20.3040 H   0  0  0  0  0  0  0  0  0  0  0  0
  -25.6420  -15.5410   19.4320 H   0  0  0  0  0  0  0  0  0  0  0  0
  -32.4890  -14.7770   20.6550 C   0  0  0  0  0  3  0  0  0  0  0  0
  -34.8140  -14.8930   19.4730 C   0  0  0  0  0  1  0  0  0  0  0  0
  -33.5990  -15.6630   20.0130 C   0  0  0  0  0  2  0  0  0  0  0  0
  -32.9400  -14.3040   22.0670 C   0  0  0  0  0  2  0  0  0  0  0  0
  -33.1790  -12.7860   22.1870 C   0  0  0  0  0  2  0  0  0  0  0  0
  -34.6220  -10.7780   21.5040 C   0  0  0  0  0  1  0  0  0  0  0  0
  -34.3740  -12.2830   21.3540 C   0  0  0  0  0  2  0  0  0  0  0  0
  1 49  1  0
  1  3  1  0
  3  2  1  0
  3  4  1  0
  4  5  1  0
  6  7  1  0
  6  5  1  0
  8  7  1  0
  8 10  1  0
  9 20  2  0
 10 15  2  0
 10 16  1  0
 11 21  1  0
 12 18  1  0
 13 19  1  0
 14 13  1  0
 14 12  2  0
 15 14  1  0
 16 17  2  0
 17 12  1  0
 18 11  1  0
 19  9  1  0
 19 11  1  0
 21 22  1  0
 22 24  1  0
 23 21  2  0
 25 34  1  0
 26 22  1  0
 26 30  1  0
 27 26  1  0
 27 28  1  0
 28 29  1  0
 29 25  1  0
 30 31  1  0
 30 25  2  0
 31 32  2  0
 32 33  1  0
 34 33  2  0
 35 45  1  0
 35 36  1  0
 35  9  1  0
 36 39  1  0
 37 36  1  0
 37 41  1  0
 38 37  2  0
 41 40  1  0
 42 43  1  0
 43 44  1  0
 43 41  1  0
 45 46  1  1
 47 45  1  0
 48 45  1  0
 49 51  1  0
 50 51  1  0
 52  1  1  0
 53 52  1  0
 54 53  1  0
 55 63  1  0
 56 61  1  0
 57 56  1  0
 57 58  1  0
 59 58  1  0
 59 60  1  0
 59 68  1  0
 61 55  1  0
 61 60  1  0
 62 55  2  0
 63 64  1  0
 63 54  1  0
 65 66  2  0
 66 85  1  0
 67 66  1  0
 67 70  1  0
 68 69  1  0
 68 65  1  0
 69 67  2  0
 70 71  1  0
 71 72  2  0
 73 76  1  0
 73 72  1  0
 74 73  2  0
 75 74  1  0
 75 70  2  0
 76 77  1  0
 77 82  2  0
 77 78  1  0
 78 79  2  0
 79 80  1  0
 80 84  1  0
 81 80  2  0
 82 81  1  0
 83 82  1  0
 85 86  1  0
 86 88  1  0
 86 89  1  0
 87 85  2  0
 90 65  1  0
 90 91  1  0
 92 90  1  0
 93 95  1  0
 93 54  1  0
 93 96  1  0
 94 95  1  0
 96 97  1  0
 99 98  1  0
 99 97  1  0
M  ISO  4   7 101   8 101  55 100  63 100
M  END
>  <TORSDO>  (59) 
F 31

>  <SCORE>  (59) 
-1.146

>  <name>  (59) 
58

>  <ligand_id>  (59) 
58

>  <original_smiles>  (59) 
[H]c1c([H])c([H])c2c(c1[H])C([H])([H])C([H])([H])C([H])([H])C2([H])N([H])C(=O)C1([H])N(C(=O)C([H])(N([H])C(=O)C([H])(N([H])C([H])([H])[H])C([H])([H])[H])C(C([H])([H])[H])(C([H])([H])[H])C([H])([H])[H])C([H])([H])c2c([H])c(OC([H])([H])C([H])([H])C([H])([H])C([H])([H])C([H])(C([H])([H])[H])C([H])(C([H])([H])C([H])([H])C([H])([H])[H])C([H])([H])C([H])([H])C([H])(N([H])C(=O)N3C([H])([H])C([H])([H])C([H])([H])C([H])(n4nc(-c5c([H])c([H])c(Oc6c([H])c([H])c(F)c([H])c6F)c([H])c5[H])c(C(=O)N([H])[H])c4N([H])[H])C3([H])[H])C([H])(C([H])([H])C([H])([H])[H])C([H])([H])C([H])([H])C([H])([H])C([H])([H])[H])c([H])c([H])c2C1([H])[H]

>  <smiles>  (59) 
[H]c1c([H])c([H])c2c(c1[H])C([H])([H])C([H])([H])C([H])([H])C2([H])N([H])C(=O)C1([H])N(C(=O)C([H])(N([H])C(=O)C([H])(N([H])C([H])([H])[H])C([H])([H])[H])C(C([H])([H])[H])(C([H])([H])[H])C([H])([H])[H])C([H])([H])c2c([H])c(OC([H])([H])C([H])([H])C([H])([H])C([H])([H])C([H])(C([H])([H])[H])C([H])(C([H])([H])C([H])([H])C([H])([H])[H])C([H])([H])C([H])([H])C([H])(N([H])C(=O)N3C([H])([H])C([H])([H])C([H])([H])C([H])(n4nc(-c5c([H])c([H])c(Oc6c([H])c([H])c(F)c([H])c6F)c([H])c5[H])c(C(=O)N([H])[H])c4N([H])[H])C3([H])[H])C([H])(C([H])([H])C([H])([H])[H])C([H])([H])C([H])([H])C([H])([H])C([H])([H])[H])c([H])c([H])c2C1([H])[H]

$$$$
60:0:0
     RDKit          3D

 92 99  0  0  1  0  0  0  0  0999 V2000
  -29.5200  -19.6550   20.6860 C   0  0  0  0  0  3  0  0  0  0  0  0
  -30.6400  -19.9660   21.5890 N   0  0  0  0  0  4  0  0  0  0  0  0
  -31.4130  -20.3940   21.1120 H   0  0  0  0  0  0  0  0  0  0  0  0
  -30.9530  -19.1510   22.0740 H   0  0  0  0  0  0  0  0  0  0  0  0
  -30.3120  -20.6040   22.2990 H   0  0  0  0  0  0  0  0  0  0  0  0
  -29.0320  -21.1520   19.8630 C   0  0  0  0  0  2  0  0  0  0  0  0
  -28.8040  -22.8260   20.4380 C   0  0  0  0  0  3  0  0  0  0  0  0
  -28.0850  -24.3240   19.8080 C   0  0  0  0  0  3  0  0  0  0  0  0
  -28.2290  -25.8820   20.2330 O   0  0  0  0  0  0  0  0  0  0  0  0
  -24.6120  -31.7840   23.1330 C   0  0  0  0  0  0  0  0  0  0  0  0
  -27.2070  -26.9470   20.1350 C   0  0  0  0  0  0  0  0  0  0  0  0
  -23.4370  -30.3830   21.4850 C   0  0  0  0  0  3  0  0  0  0  0  0
  -24.8970  -28.7790   20.0810 C   0  0  0  0  0  0  0  0  0  0  0  0
  -25.9990  -30.6100   21.3620 C   0  0  0  0  0  2  0  0  0  0  0  0
  -26.0780  -29.2020   20.7070 C   0  0  0  0  0  0  0  0  0  0  0  0
  -27.2320  -28.3070   20.7060 C   0  0  0  0  0  3  0  0  0  0  0  0
  -26.0050  -26.6720   19.4550 C   0  0  0  0  0  3  0  0  0  0  0  0
  -24.8780  -27.5340   19.4420 C   0  0  0  0  0  3  0  0  0  0  0  0
  -23.6730  -29.6880   20.1200 C   0  0  0  0  0  2  0  0  0  0  0  0
  -24.7040  -30.9490   22.0470 N   0  0  0  0  0  0  0  0  0  0  0  0
  -23.5180  -32.0790   23.6370 O   0  0  0  0  0  0  0  0  0  0  0  0
  -22.7300  -29.3890   22.4440 C   0  0  0  0  0  0  0  0  0  0  0  0
  -21.3980  -29.2500   22.3150 N   0  0  0  0  0  0  0  0  0  0  0  0
  -23.3820  -28.7500   23.2730 O   0  0  0  0  0  0  0  0  0  0  0  0
  -20.9300  -29.8100   21.6130 H   0  0  0  0  0  0  0  0  0  0  0  0
  -17.9920  -28.1150   22.8440 C   0  0  0  0  0  0  0  0  0  0  0  0
  -20.5580  -28.3240   23.0840 C   0  0  0  0  0  3  0  0  0  0  0  0
  -20.6230  -26.8960   22.4960 C   0  0  0  0  0  2  0  0  0  0  0  0
  -19.5070  -26.6050   21.4840 C   0  0  0  0  0  2  0  0  0  0  0  0
  -18.1370  -26.7740   22.1470 C   0  0  0  0  0  2  0  0  0  0  0  0
  -19.1270  -28.8510   23.2660 C   0  0  0  0  0  0  0  0  0  0  0  0
  -18.9380  -30.1130   23.8780 C   0  0  0  0  0  3  0  0  0  0  0  0
  -17.6490  -30.6340   24.0760 C   0  0  0  0  0  3  0  0  0  0  0  0
  -16.5260  -29.8950   23.6600 C   0  0  0  0  0  3  0  0  0  0  0  0
  -16.6970  -28.6390   23.0500 C   0  0  0  0  0  3  0  0  0  0  0  0
  -25.8780  -32.4240   23.7790 C   0  0  0  0  0  3  0  0  0  0  0  0
  -26.3820  -31.6480   25.0580 C   0  0  1  0  0  0  0  0  0  0  0  0
  -25.2770  -31.4000   26.1110 C   0  0  0  0  0  1  0  0  0  0  0  0
  -26.9670  -30.2730   24.6690 C   0  0  0  0  0  1  0  0  0  0  0  0
  -27.5260  -32.4400   25.7310 C   0  0  0  0  0  1  0  0  0  0  0  0
  -25.5530  -33.8200   24.1240 N   0  0  0  0  0  0  0  0  0  0  0  0
  -25.8920  -34.8920   23.3910 C   0  0  0  0  0  0  0  0  0  0  0  0
  -26.5890  -34.8080   22.3740 O   0  0  0  0  0  0  0  0  0  0  0  0
  -24.9360  -33.9570   24.9140 H   0  0  0  0  0  0  0  0  0  0  0  0
  -24.1680  -36.6850   23.0570 C   0  0  0  0  0  1  0  0  0  0  0  0
  -25.4030  -36.2710   23.8720 C   0  0  0  0  0  3  0  0  0  0  0  0
  -27.5290  -37.1470   24.7330 C   0  0  0  0  0  1  0  0  0  0  0  0
  -26.4360  -37.3310   23.7790 N   0  0  0  0  0  0  0  0  0  0  0  0
  -26.0240  -38.2470   23.9400 H   0  0  0  0  0  0  0  0  0  0  0  0
  -29.5780  -17.9570   20.0960 C   0  0  0  0  0  3  0  0  0  0  0  0
  -30.9450  -15.2710   20.4670 C   0  0  0  0  0  0  0  0  0  0  0  0
  -30.8410  -12.7660   19.8530 C   0  0  0  0  0  2  0  0  0  0  0  0
  -30.0340  -12.4030   18.5850 C   0  0  0  0  0  2  0  0  0  0  0  0
  -28.5630  -12.1650   18.9510 C   0  0  0  0  0  2  0  0  0  0  0  0
  -28.0240  -13.2450   19.9250 C   0  0  0  0  0  3  0  0  0  0  0  0
  -28.9820  -13.6020   21.0880 C   0  0  0  0  0  2  0  0  0  0  0  0
  -30.2630  -14.0160   20.4900 N   0  0  0  0  0  0  0  0  0  0  0  0
  -32.1610  -15.1180   20.3040 O   0  0  0  0  0  0  0  0  0  0  0  0
  -30.5150  -16.6870   20.6110 N   0  0  0  0  0  0  0  0  0  0  0  0
  -31.4200  -17.1070   20.7460 H   0  0  0  0  0  0  0  0  0  0  0  0
  -25.6380  -13.8470   20.5250 C   0  0  0  0  0  0  0  0  0  0  0  0
  -24.5400  -13.1090   20.8770 C   0  0  0  0  0  0  0  0  0  0  0  0
  -24.9800  -11.7560   20.9100 C   0  0  0  0  0  0  0  0  0  0  0  0
  -26.6710  -12.9520   20.3760 N   0  0  0  0  0  0  0  0  0  0  0  0
  -26.2860  -11.6820   20.6640 N   0  0  0  0  0  0  0  0  0  0  0  0
  -24.2140  -10.5150   21.0880 C   0  0  0  0  0  0  0  0  0  0  0  0
  -24.5960   -9.5380   22.0350 C   0  0  0  0  0  3  0  0  0  0  0  0
  -23.8270   -8.3670   22.2060 C   0  0  0  0  0  3  0  0  0  0  0  0
  -22.6610   -8.1650   21.4290 C   0  0  0  0  0  0  0  0  0  0  0  0
  -22.2970   -9.1280   20.4740 C   0  0  0  0  0  3  0  0  0  0  0  0
  -23.0690  -10.2890   20.2970 C   0  0  0  0  0  3  0  0  0  0  0  0
  -21.8670   -7.0450   21.5070 O   0  0  0  0  0  0  0  0  0  0  0  0
  -21.8000   -6.2930   22.6490 C   0  0  0  0  0  0  0  0  0  0  0  0
  -21.4220   -6.8530   23.8920 C   0  0  0  0  0  3  0  0  0  0  0  0
  -21.2980   -6.0290   25.0280 C   0  0  0  0  0  3  0  0  0  0  0  0
  -21.5430   -4.6460   24.9240 C   0  0  0  0  0  0  0  0  0  0  0  0
  -21.9190   -4.0880   23.6930 C   0  0  0  0  0  3  0  0  0  0  0  0
  -22.0440   -4.9070   22.5580 C   0  0  0  0  0  0  0  0  0  0  0  0
  -22.3850   -4.3610   21.3660 F   0  0  0  0  0  0  0  0  0  0  0  0
  -21.4170   -3.8520   26.0150 F   0  0  0  0  0  0  0  0  0  0  0  0
  -23.1450  -13.6360   21.0530 C   0  0  0  0  0  0  0  0  0  0  0  0
  -22.3530  -12.9930   21.9070 N   0  0  0  0  0  0  0  0  0  0  0  0
  -22.7660  -14.6490   20.4750 O   0  0  0  0  0  0  0  0  0  0  0  0
  -22.6700  -12.1710   22.3980 H   0  0  0  0  0  0  0  0  0  0  0  0
  -21.4120  -13.3250   22.0580 H   0  0  0  0  0  0  0  0  0  0  0  0
  -25.8260  -15.1880   20.2700 N   0  0  0  0  0  0  0  0  0  0  0  0
  -25.0670  -15.8540   20.3400 H   0  0  0  0  0  0  0  0  0  0  0  0
  -26.7060  -15.6190   20.0000 H   0  0  0  0  0  0  0  0  0  0  0  0
  -28.1180  -17.4460   20.3060 C   0  0  0  0  0  2  0  0  0  0  0  0
  -27.0810  -18.3890   18.1290 C   0  0  0  0  0  1  0  0  0  0  0  0
  -25.6130  -17.5910   20.0260 C   0  0  0  0  0  1  0  0  0  0  0  0
  -26.9450  -18.2340   19.6460 C   0  0  0  0  0  3  0  0  0  0  0  0
  1  6  1  0
  1  2  1  0
  2  4  1  0
  2  5  1  0
  3  2  1  0
  6  7  1  0
  8  9  1  0
  8  7  2  0
 10 21  2  0
 11  9  1  0
 11 16  1  0
 12 20  1  0
 12 22  1  0
 13 19  1  0
 13 15  1  0
 14 20  1  0
 15 14  1  0
 16 15  2  0
 17 11  2  0
 18 17  1  0
 18 13  2  0
 19 12  1  0
 20 10  1  0
 22 24  2  0
 23 22  1  0
 25 23  1  0
 26 35  2  0
 26 31  1  0
 27 23  1  0
 27 31  1  0
 28 27  1  0
 29 30  1  0
 29 28  1  0
 30 26  1  0
 31 32  2  0
 32 33  1  0
 34 33  2  0
 35 34  1  0
 36 10  1  0
 36 41  1  0
 36 37  1  0
 37 40  1  1
 37 38  1  0
 39 37  1  0
 41 44  1  0
 42 46  1  0
 42 41  1  0
 43 42  2  0
 46 45  1  0
 48 46  1  0
 48 49  1  0
 48 47  1  0
 50 89  1  0
 50 59  1  0
 50  1  1  0
 51 57  1  0
 51 59  1  0
 52 57  1  0
 53 54  1  0
 53 52  1  0
 55 54  1  0
 55 64  1  0
 55 56  1  0
 57 56  1  0
 58 51  2  0
 59 60  1  0
 61 62  2  0
 62 63  1  0
 62 81  1  0
 63 66  1  0
 64 61  1  0
 64 65  1  0
 65 63  2  0
 66 67  1  0
 67 68  2  0
 69 72  1  0
 69 68  1  0
 70 69  2  0
 71 70  1  0
 71 66  2  0
 72 73  1  0
 73 74  1  0
 74 75  2  0
 76 75  1  0
 76 80  1  0
 77 76  2  0
 78 73  2  0
 78 77  1  0
 79 78  1  0
 81 82  1  0
 82 85  1  0
 82 84  1  0
 83 81  2  0
 86 87  1  0
 86 61  1  0
 88 86  1  0
 90 92  1  0
 92 91  1  0
 92 89  1  0
M  ISO  4   8 101   9 101  51 100  59 100
M  END
>  <TORSDO>  (60) 
F 23

>  <SCORE>  (60) 
-14.147

>  <name>  (60) 
60

>  <ligand_id>  (60) 
60

>  <original_smiles>  (60) 
[H]c1c([H])c([H])c2c(c1[H])C([H])([H])C([H])([H])C([H])([H])C2([H])N([H])C(=O)C1([H])N(C(=O)C([H])(N([H])C(=O)C([H])(N([H])C([H])([H])[H])C([H])([H])[H])C(C([H])([H])[H])(C([H])([H])[H])C([H])([H])[H])C([H])([H])c2c([H])c(OC([H])([H])C([H])([H])C([H])([H])C([H])(C([H])(N([H])C(=O)N3C([H])([H])C([H])([H])C([H])([H])C([H])(n4nc(-c5c([H])c([H])c(Oc6c([H])c([H])c(F)c([H])c6F)c([H])c5[H])c(C(=O)N([H])[H])c4N([H])[H])C3([H])[H])C([H])([H])C([H])(C([H])([H])[H])C([H])([H])[H])[N+]([H])([H])[H])c([H])c([H])c2C1([H])[H]

>  <smiles>  (60) 
[H]c1c([H])c([H])c2c(c1[H])C([H])([H])C([H])([H])C([H])([H])C2([H])N([H])C(=O)C1([H])N(C(=O)C([H])(N([H])C(=O)C([H])(N([H])C([H])([H])[H])C([H])([H])[H])C(C([H])([H])[H])(C([H])([H])[H])C([H])([H])[H])C([H])([H])c2c([H])c(OC([H])([H])C([H])([H])C([H])([H])C([H])(C([H])(N([H])C(=O)N3C([H])([H])C([H])([H])C([H])([H])C([H])(n4nc(-c5c([H])c([H])c(Oc6c([H])c([H])c(F)c([H])c6F)c([H])c5[H])c(C(=O)N([H])[H])c4N([H])[H])C3([H])[H])C([H])([H])C([H])(C([H])([H])[H])C([H])([H])[H])[N+]([H])([H])[H])c([H])c([H])c2C1([H])[H]

$$$$
61:0:0
     RDKit          3D

 91 89  0  0  1  0  0  0  0  0999 V2000
  -21.9940  -25.9760   21.0480 C   0  0  0  0  0  1  0  0  0  0  0  0
  -19.5490  -26.3980   23.0860 C   0  0  0  0  0  1  0  0  0  0  0  0
  -17.7520  -27.9230   21.9670 C   0  0  2  0  0  0  0  0  0  0  0  0
  -18.5590  -27.0980   23.1790 N   0  0  0  0  0  4  0  0  0  0  0  0
  -17.7170  -28.3440   20.7660 O   0  0  0  0  0  0  0  0  0  0  0  0
  -18.0780  -27.0690   24.0620 H   0  0  0  0  0  0  0  0  0  0  0  0
  -19.5110  -27.4380   23.1760 H   0  0  0  0  0  0  0  0  0  0  0  0
  -23.1680  -24.1570   20.2890 C   0  0  0  0  0 15  0  0  0  0  0  0
  -25.0210  -22.9630   19.8320 C   0  0  0  0  0 15  0  0  0  0  0  0
  -26.1370  -21.1140   19.1640 C   0  0  0  0  0 15  0  0  0  0  0  0
  -27.9100  -19.7140   19.2600 C   0  0  0  0  0 15  0  0  0  0  0  0
  -30.0090  -16.6600   19.2110 C   0  0  0  0  0  0  0  0  0  0  0  0
  -30.9650  -14.0190   18.7440 C   0  0  0  0  0  2  0  0  0  0  0  0
  -30.2390  -13.0160   17.7710 C   0  0  0  0  0  2  0  0  0  0  0  0
  -28.9000  -12.5570   18.3500 C   0  0  0  0  0  2  0  0  0  0  0  0
  -28.2860  -13.7330   19.1290 C   0  0  0  0  0  3  0  0  0  0  0  0
  -29.1890  -14.3460   20.1980 C   0  0  0  0  0  2  0  0  0  0  0  0
  -30.0590  -15.1570   19.3830 N   0  0  0  0  0  0  0  0  0  0  0  0
  -31.2420  -16.7860   18.8870 O   0  0  0  0  0  0  0  0  0  0  0  0
  -28.7420  -17.8450   19.2940 N   0  0  0  0  0  2  0  0  0  0  0  0
  -28.0240  -17.2720   19.7450 H   0  0  0  0  0  0  0  0  0  0  0  0
  -26.1110  -14.4570   20.0850 C   0  0  0  0  0  0  0  0  0  0  0  0
  -25.0420  -13.7560   20.5570 C   0  0  0  0  0  0  0  0  0  0  0  0
  -25.3930  -12.3720   20.4570 C   0  0  0  0  0  0  0  0  0  0  0  0
  -27.0100  -13.4890   19.7000 N   0  0  0  0  0  0  0  0  0  0  0  0
  -26.6300  -12.2310   20.0070 N   0  0  0  0  0  0  0  0  0  0  0  0
  -24.6030  -11.1650   20.6830 C   0  0  0  0  0  0  0  0  0  0  0  0
  -24.9830  -10.2040   21.6460 C   0  0  0  0  0  3  0  0  0  0  0  0
  -24.1840   -9.0620   21.8610 C   0  0  0  0  0  3  0  0  0  0  0  0
  -22.9990   -8.8760   21.1090 C   0  0  0  0  0  0  0  0  0  0  0  0
  -22.6430   -9.8240   20.1330 C   0  0  0  0  0  3  0  0  0  0  0  0
  -23.4410  -10.9580   19.9160 C   0  0  0  0  0  3  0  0  0  0  0  0
  -22.1750   -7.7830   21.2290 O   0  0  0  0  0  0  0  0  0  0  0  0
  -21.9610   -7.1740   22.4390 C   0  0  0  0  0  0  0  0  0  0  0  0
  -21.4720   -7.8870   23.5570 C   0  0  0  0  0  3  0  0  0  0  0  0
  -21.2030   -7.2080   24.7610 C   0  0  0  0  0  3  0  0  0  0  0  0
  -21.4160   -5.8180   24.8480 C   0  0  0  0  0  0  0  0  0  0  0  0
  -21.9010   -5.1080   23.7360 C   0  0  0  0  0  3  0  0  0  0  0  0
  -22.1690   -5.7840   22.5330 C   0  0  0  0  0  0  0  0  0  0  0  0
  -22.6170   -5.0940   21.4570 F   0  0  0  0  0  0  0  0  0  0  0  0
  -21.1480   -5.1630   26.0010 F   0  0  0  0  0  0  0  0  0  0  0  0
  -23.7230  -14.3380   20.9480 C   0  0  0  0  0  0  0  0  0  0  0  0
  -23.0350  -13.7070   21.8930 N   0  0  0  0  0  0  0  0  0  0  0  0
  -23.3160  -15.3860   20.4460 O   0  0  0  0  0  0  0  0  0  0  0  0
  -23.3750  -12.8560   22.3130 H   0  0  0  0  0  0  0  0  0  0  0  0
  -22.1480  -14.0840   22.1960 H   0  0  0  0  0  0  0  0  0  0  0  0
  -26.3980  -15.8170   19.9190 N   0  0  0  0  0  0  0  0  0  0  0  0
  -25.6660  -16.4990   20.0890 H   0  0  0  0  0  0  0  0  0  0  0  0
  -27.0580  -16.1340   19.2170 H   0  0  0  0  0  0  0  0  0  0  0  0
  -23.7300  -26.7820   20.6990 C   0  0  0  0  0  2  0  0  0  0  0  0
  -25.4850  -26.8530   20.9110 O   0  0  0  0  0  0  0  0  0  0  0  0
  -24.7690  -32.0720   23.4630 C   0  0  0  0  0  0  0  0  0  0  0  0
  -26.4680  -27.6180   20.1890 C   0  0  0  0  0  3  0  0  0  0  0  0
  -23.6030  -30.8340   21.7340 C   0  0  0  0  0  3  0  0  0  0  0  0
  -24.9110  -29.7100   19.8560 C   0  0  0  0  0  3  0  0  0  0  0  0
  -26.0790  -31.1820   21.5110 C   0  0  0  0  0  2  0  0  0  0  0  0
  -26.0260  -29.9140   20.6710 C   0  0  0  0  0  3  0  0  0  0  0  0
  -26.9250  -28.8380   20.7760 C   0  0  0  0  0  2  0  0  0  0  0  0
  -25.9560  -27.7260   18.9190 C   0  0  0  0  0  2  0  0  0  0  0  0
  -24.9460  -28.6970   18.8690 C   0  0  0  0  0  2  0  0  0  0  0  0
  -23.6820  -30.5080   20.2030 C   0  0  0  0  0  2  0  0  0  0  0  0
  -24.8290  -31.4450   22.2570 N   0  0  0  0  0  0  0  0  0  0  0  0
  -23.6930  -32.2250   24.0680 O   0  0  0  0  0  0  0  0  0  0  0  0
  -23.4110  -29.5790   22.5780 C   0  0  0  0  0  0  0  0  0  0  0  0
  -22.4330  -28.8530   22.2270 N   0  0  2  0  0  4  0  0  0  0  0  0
  -24.1010  -29.1980   23.5130 O   0  0  0  0  0  0  0  0  0  0  0  0
  -21.8410  -29.1640   21.4660 H   0  0  0  0  0  0  0  0  0  0  0  0
  -19.4980  -26.8620   20.8220 C   0  0  0  0  0  1  0  0  0  0  0  0
  -21.8470  -27.9820   23.1260 C   0  0  0  0  0  3  0  0  0  0  0  0
  -21.9380  -26.1190   23.6330 C   0  0  0  0  0  1  0  0  0  0  0  0
  -20.9370  -24.8450   22.5080 C   0  0  0  0  0  1  0  0  0  0  0  0
  -19.9770  -25.3250   21.0750 C   0  0  0  0  0  2  0  0  0  0  0  0
  -20.8120  -28.5120   21.9440 C   0  0  0  0  0  2  0  0  0  0  0  0
  -19.7960  -29.7080   23.3890 C   0  0  0  0  0 15  0  0  0  0  0  0
  -17.8150  -29.4570   23.8040 C   0  0  0  0  0 15  0  0  0  0  0  0
  -16.6830  -28.0360   22.9160 C   0  0  0  0  0  1  0  0  0  0  0  0
  -17.4480  -26.7290   21.5050 C   0  0  0  0  0  2  0  0  0  0  0  0
  -26.0570  -32.6110   24.1270 C   0  0  0  0  0  3  0  0  0  0  0  0
  -25.7740  -34.0040   24.4770 N   0  0  0  0  0  0  0  0  0  0  0  0
  -26.1170  -35.0480   23.7160 C   0  0  0  0  0  0  0  0  0  0  0  0
  -26.7880  -34.9330   22.6860 O   0  0  0  0  0  0  0  0  0  0  0  0
  -25.1840  -34.1660   25.2800 H   0  0  0  0  0  0  0  0  0  0  0  0
  -24.4470  -36.8860   23.3290 C   0  0  0  0  0  1  0  0  0  0  0  0
  -25.6490  -36.4390   24.1760 C   0  0  0  0  0  3  0  0  0  0  0  0
  -27.7850  -37.2330   25.0830 C   0  0  0  0  0  1  0  0  0  0  0  0
  -26.7150  -37.4620   24.1150 N   0  0  0  0  0  0  0  0  0  0  0  0
  -26.3340  -38.3910   24.2790 H   0  0  0  0  0  0  0  0  0  0  0  0
  -26.5140  -31.7910   25.3940 C   0  0  1  0  0  0  0  0  0  0  0  0
  -25.3870  -31.5390   26.4220 C   0  0  0  0  0  1  0  0  0  0  0  0
  -27.0980  -30.4160   24.9890 C   0  0  0  0  0  1  0  0  0  0  0  0
  -27.6560  -32.5530   26.1040 C   0  0  0  0  0  1  0  0  0  0  0  0
  2  4  1  0
  3 76  1  6
  3  4  1  0
  4  6  1  0
  5 77  1  0
  5  3  1  0
  7  4  1  0
 12 20  1  0
 12 18  1  0
 13 18  1  0
 14 15  1  0
 14 13  1  0
 16 15  1  0
 16 25  1  0
 16 17  1  0
 18 17  1  0
 19 12  2  0
 20 21  1  0
 22 23  2  0
 23 42  1  0
 24 23  1  0
 24 27  1  0
 25 26  1  0
 25 22  1  0
 26 24  2  0
 27 28  1  0
 28 29  2  0
 30 33  1  0
 30 29  1  0
 31 30  2  0
 32 31  1  0
 32 27  2  0
 33 34  1  0
 34 39  2  0
 34 35  1  0
 35 36  2  0
 36 37  1  0
 37 41  1  0
 38 37  2  0
 39 38  1  0
 40 39  1  0
 42 43  1  0
 43 46  1  0
 43 45  1  0
 44 42  2  0
 47 22  1  0
 47 48  1  0
 49 47  1  0
 50 51  1  0
 50  1  1  0
 52 63  2  0
 53 58  1  0
 53 51  1  0
 54 62  1  0
 54 64  1  0
 55 60  1  0
 55 61  1  0
 55 57  1  0
 56 62  1  0
 57 58  1  0
 57 56  1  0
 59 53  1  0
 60 59  1  0
 61 54  1  0
 62 52  1  0
 64 66  2  0
 65 64  1  0
 65 69  1  0
 65 67  1  1
 68 72  1  0
 69 70  1  0
 72 71  1  0
 73 65  1  0
 73 69  1  0
 77  3  1  0
 78 52  1  0
 78 79  1  0
 78 88  1  0
 79 82  1  0
 80 84  1  0
 80 79  1  0
 81 80  2  0
 84 83  1  0
 86 84  1  0
 86 87  1  0
 86 85  1  0
 88 91  1  1
 88 89  1  0
 90 88  1  0
M  ISO  4  12 100  20 100  50 101  51 101
M  END
>  <TORSDO>  (61) 
F 23

>  <SCORE>  (61) 
-12.710

>  <name>  (61) 
61

>  <ligand_id>  (61) 
61

>  <original_smiles>  (61) 
[H]c1c([H])c([H])c2c(c1[H])C([H])([H])C([H])([H])C([H])([H])C2([H])N([H])C(=O)C1([H])N(C(=O)C([H])(N([H])C(=O)C([H])(N([H])C([H])([H])[H])C([H])([H])[H])C(C([H])([H])[H])(C([H])([H])[H])C([H])([H])[H])C([H])([H])c2c([H])c(OC([H])([H])C([H])(C([H])([H])C(=O)N([H])[H])C([H])([H])C([H])([H])C([H])([H])C([H])([H])N([H])C(=O)N3C([H])([H])C([H])([H])C([H])([H])C([H])(n4nc(-c5c([H])c([H])c(Oc6c([H])c([H])c(F)c([H])c6F)c([H])c5[H])c(C(=O)N([H])[H])c4N([H])[H])C3([H])[H])c([H])c([H])c2C1([H])[H]

>  <smiles>  (61) 
[H]c1c([H])c([H])c2c(c1[H])C([H])([H])C([H])([H])C([H])([H])C2([H])N([H])C(=O)C1([H])N(C(=O)C([H])(N([H])C(=O)C([H])(N([H])C([H])([H])[H])C([H])([H])[H])C(C([H])([H])[H])(C([H])([H])[H])C([H])([H])[H])C([H])([H])c2c([H])c(OC([H])([H])C([H])(C([H])([H])C(=O)N([H])[H])C([H])([H])C([H])([H])C([H])([H])C([H])([H])N([H])C(=O)N3C([H])([H])C([H])([H])C([H])([H])C([H])(n4nc(-c5c([H])c([H])c(Oc6c([H])c([H])c(F)c([H])c6F)c([H])c5[H])c(C(=O)N([H])[H])c4N([H])[H])C3([H])[H])c([H])c([H])c2C1([H])[H]

$$$$
62:0:0
     RDKit          3D

 93100  0  0  1  0  0  0  0  0999 V2000
  -28.3780  -21.8770   20.7500 C   0  0  0  0  0  2  0  0  0  0  0  0
  -28.9340  -23.1160   20.1320 N   0  0  0  0  0  4  0  0  0  0  0  0
  -29.2510  -22.8570   19.2110 H   0  0  0  0  0  0  0  0  0  0  0  0
  -29.7560  -23.3950   20.6460 H   0  0  0  0  0  0  0  0  0  0  0  0
  -28.0350  -24.2960   19.9430 C   0  0  0  0  0  2  0  0  0  0  0  0
  -28.3950  -25.5150   20.8360 C   0  0  0  0  0  2  0  0  0  0  0  0
  -28.3580  -26.7910   20.1650 O   0  0  0  0  0  0  0  0  0  0  0  0
  -24.5450  -31.9530   23.2910 C   0  0  0  0  0  0  0  0  0  0  0  0
  -27.1810  -27.5030   20.2110 C   0  0  0  0  0  0  0  0  0  0  0  0
  -23.3390  -30.5550   21.6450 C   0  0  0  0  0  3  0  0  0  0  0  0
  -24.7880  -29.0120   20.2220 C   0  0  0  0  0  0  0  0  0  0  0  0
  -25.8620  -30.9110   21.4430 C   0  0  0  0  0  2  0  0  0  0  0  0
  -25.9450  -29.5360   20.8110 C   0  0  0  0  0  0  0  0  0  0  0  0
  -27.1460  -28.7910   20.7980 C   0  0  0  0  0  3  0  0  0  0  0  0
  -26.0070  -26.9940   19.6160 C   0  0  0  0  0  3  0  0  0  0  0  0
  -24.8140  -27.7390   19.6220 C   0  0  0  0  0  3  0  0  0  0  0  0
  -23.5470  -29.8720   20.2650 C   0  0  0  0  0  2  0  0  0  0  0  0
  -24.6010  -31.1540   22.1870 N   0  0  0  0  0  0  0  0  0  0  0  0
  -23.4650  -32.2250   23.8320 O   0  0  0  0  0  0  0  0  0  0  0  0
  -22.6850  -29.5340   22.6050 C   0  0  0  0  0  0  0  0  0  0  0  0
  -21.3610  -29.3480   22.4700 N   0  0  0  0  0  0  0  0  0  0  0  0
  -23.3660  -28.9130   23.4250 O   0  0  0  0  0  0  0  0  0  0  0  0
  -20.8720  -29.9040   21.7820 H   0  0  0  0  0  0  0  0  0  0  0  0
  -17.9910  -28.1420   22.9470 C   0  0  0  0  0  0  0  0  0  0  0  0
  -20.5450  -28.4060   23.2340 C   0  0  0  0  0  3  0  0  0  0  0  0
  -20.6550  -26.9760   22.6550 C   0  0  0  0  0  2  0  0  0  0  0  0
  -19.5590  -26.6520   21.6350 C   0  0  0  0  0  2  0  0  0  0  0  0
  -18.1740  -26.7930   22.2710 C   0  0  0  0  0  2  0  0  0  0  0  0
  -19.1040  -28.9070   23.3840 C   0  0  0  0  0  0  0  0  0  0  0  0
  -18.8780  -30.1710   23.9720 C   0  0  0  0  0  3  0  0  0  0  0  0
  -17.5710  -30.6680   24.1290 C   0  0  0  0  0  3  0  0  0  0  0  0
  -16.4720  -29.9010   23.7090 C   0  0  0  0  0  3  0  0  0  0  0  0
  -16.6820  -28.6390   23.1230 C   0  0  0  0  0  3  0  0  0  0  0  0
  -25.8330  -32.5800   23.9130 C   0  0  0  0  0  3  0  0  0  0  0  0
  -26.3320  -31.8220   25.2040 C   0  0  1  0  0  0  0  0  0  0  0  0
  -25.2280  -31.6100   26.2670 C   0  0  0  0  0  1  0  0  0  0  0  0
  -26.9030  -30.4340   24.8320 C   0  0  0  0  0  1  0  0  0  0  0  0
  -27.4870  -32.6120   25.8640 C   0  0  0  0  0  1  0  0  0  0  0  0
  -25.5370  -33.9870   24.2170 N   0  0  0  0  0  0  0  0  0  0  0  0
  -25.8990  -35.0230   23.4490 C   0  0  0  0  0  0  0  0  0  0  0  0
  -26.5860  -34.8950   22.4320 O   0  0  0  0  0  0  0  0  0  0  0  0
  -24.9370  -34.1610   25.0090 H   0  0  0  0  0  0  0  0  0  0  0  0
  -24.2090  -36.8360   23.0230 C   0  0  0  0  0  1  0  0  0  0  0  0
  -25.4210  -36.4250   23.8750 C   0  0  0  0  0  3  0  0  0  0  0  0
  -27.5450  -37.2870   24.7560 C   0  0  0  0  0  1  0  0  0  0  0  0
  -26.4750  -37.4590   23.7770 N   0  0  0  0  0  0  0  0  0  0  0  0
  -26.0800  -38.3890   23.9000 H   0  0  0  0  0  0  0  0  0  0  0  0
  -29.2190  -20.6230   20.3570 C   0  0  0  0  0  2  0  0  0  0  0  0
  -28.9910  -19.3280   21.1900 C   0  0  0  0  0  2  0  0  0  0  0  0
  -29.1210  -17.9490   20.4620 C   0  0  0  0  0  2  0  0  0  0  0  0
  -30.4690  -17.1390   20.4980 C   0  0  0  0  0  3  0  0  0  0  0  0
  -30.9040  -14.5930   20.4130 C   0  0  0  0  0  0  0  0  0  0  0  0
  -30.6080  -12.4280   19.2890 C   0  0  0  0  0  2  0  0  0  0  0  0
  -29.6880  -12.6390   18.0680 C   0  0  0  0  0  2  0  0  0  0  0  0
  -28.2060  -12.5070   18.4750 C   0  0  0  0  0  2  0  0  0  0  0  0
  -27.8520  -13.3450   19.7340 C   0  0  0  0  0  3  0  0  0  0  0  0
  -28.8950  -13.1410   20.8570 C   0  0  0  0  0  2  0  0  0  0  0  0
  -30.2210  -13.4250   20.2970 N   0  0  0  0  0  0  0  0  0  0  0  0
  -32.0990  -14.6780   20.1320 O   0  0  0  0  0  0  0  0  0  0  0  0
  -30.1350  -15.6910   20.6050 N   0  0  0  0  0  0  0  0  0  0  0  0
  -29.1670  -15.4890   20.8020 H   0  0  0  0  0  0  0  0  0  0  0  0
  -25.4420  -13.9530   20.4000 C   0  0  0  0  0  0  0  0  0  0  0  0
  -24.3720  -13.1830   20.7690 C   0  0  0  0  0  0  0  0  0  0  0  0
  -24.8410  -11.8320   20.7710 C   0  0  0  0  0  0  0  0  0  0  0  0
  -26.4940  -13.0730   20.2010 N   0  0  0  0  0  0  0  0  0  0  0  0
  -26.1350  -11.7940   20.4840 N   0  0  0  0  0  0  0  0  0  0  0  0
  -24.1160  -10.5710   20.9690 C   0  0  0  0  0  0  0  0  0  0  0  0
  -24.5290   -9.6260   21.9350 C   0  0  0  0  0  3  0  0  0  0  0  0
  -23.8060   -8.4260   22.1190 C   0  0  0  0  0  3  0  0  0  0  0  0
  -22.6570   -8.1650   21.3370 C   0  0  0  0  0  0  0  0  0  0  0  0
  -22.2630   -9.0980   20.3620 C   0  0  0  0  0  3  0  0  0  0  0  0
  -22.9860  -10.2870   20.1760 C   0  0  0  0  0  3  0  0  0  0  0  0
  -21.9060   -7.0170   21.4290 O   0  0  0  0  0  0  0  0  0  0  0  0
  -21.8180   -6.3070   22.5990 C   0  0  0  0  0  0  0  0  0  0  0  0
  -21.3260   -6.8890   23.7890 C   0  0  0  0  0  3  0  0  0  0  0  0
  -21.1850   -6.1040   24.9510 C   0  0  0  0  0  3  0  0  0  0  0  0
  -21.5280   -4.7400   24.9250 C   0  0  0  0  0  0  0  0  0  0  0  0
  -22.0110   -4.1560   23.7400 C   0  0  0  0  0  3  0  0  0  0  0  0
  -22.1510   -4.9380   22.5790 C   0  0  0  0  0  0  0  0  0  0  0  0
  -22.5980   -4.3660   21.4360 F   0  0  0  0  0  0  0  0  0  0  0  0
  -21.3860   -3.9840   26.0390 F   0  0  0  0  0  0  0  0  0  0  0  0
  -22.9680  -13.6580   21.0090 C   0  0  0  0  0  0  0  0  0  0  0  0
  -22.2250  -12.9750   21.8760 N   0  0  0  0  0  0  0  0  0  0  0  0
  -22.5340  -14.6690   20.4610 O   0  0  0  0  0  0  0  0  0  0  0  0
  -22.5820  -12.1560   22.3460 H   0  0  0  0  0  0  0  0  0  0  0  0
  -21.2820  -13.2800   22.0750 H   0  0  0  0  0  0  0  0  0  0  0  0
  -25.6030  -15.3200   20.1930 N   0  0  0  0  0  0  0  0  0  0  0  0
  -24.8260  -15.9690   20.2540 H   0  0  0  0  0  0  0  0  0  0  0  0
  -26.4410  -15.7490   19.8210 H   0  0  0  0  0  0  0  0  0  0  0  0
  -30.7730  -17.1380   17.9110 C   0  0  0  0  0  1  0  0  0  0  0  0
  -31.4260  -17.4280   19.2790 C   0  0  0  0  0  3  0  0  0  0  0  0
  -32.9540  -19.0960   20.5280 C   0  0  0  0  0  1  0  0  0  0  0  0
  -32.1420  -18.7910   19.2580 C   0  0  0  0  0  2  0  0  0  0  0  0
  2  4  1  0
  2  1  1  0
  3  2  1  0
  5  2  1  0
  5  6  1  0
  7  9  1  0
  7  6  1  0
  8 19  2  0
  9 14  1  0
 10 18  1  0
 10 20  1  0
 11 17  1  0
 11 13  1  0
 12 18  1  0
 13 12  1  0
 14 13  2  0
 15 16  1  0
 15  9  2  0
 16 11  2  0
 17 10  1  0
 18  8  1  0
 20 22  2  0
 21 20  1  0
 23 21  1  0
 24 33  2  0
 24 29  1  0
 25 21  1  0
 25 29  1  0
 26 25  1  0
 27 28  1  0
 27 26  1  0
 28 24  1  0
 29 30  2  0
 30 31  1  0
 32 31  2  0
 33 32  1  0
 34  8  1  0
 34 39  1  0
 34 35  1  0
 35 38  1  1
 35 36  1  0
 37 35  1  0
 39 42  1  0
 40 44  1  0
 40 39  1  0
 41 40  2  0
 44 43  1  0
 46 44  1  0
 46 47  1  0
 46 45  1  0
 48  1  1  0
 48 49  1  0
 50 49  1  0
 51 50  1  0
 51 60  1  0
 52 60  1  0
 53 58  1  0
 54 55  1  0
 54 53  1  0
 56 55  1  0
 56 65  1  0
 56 57  1  0
 58 52  1  0
 58 57  1  0
 59 52  2  0
 60 61  1  0
 62 63  2  0
 63 64  1  0
 63 82  1  0
 64 67  1  0
 65 62  1  0
 65 66  1  0
 66 64  2  0
 67 68  1  0
 68 69  2  0
 70 73  1  0
 70 69  1  0
 71 70  2  0
 72 71  1  0
 72 67  2  0
 73 74  1  0
 74 75  1  0
 75 76  2  0
 77 76  1  0
 77 81  1  0
 78 77  2  0
 79 74  2  0
 79 78  1  0
 80 79  1  0
 82 83  1  0
 83 86  1  0
 83 85  1  0
 84 82  2  0
 87 88  1  0
 87 62  1  0
 89 87  1  0
 91 90  1  0
 91 51  1  0
 93 91  1  0
 93 92  1  0
M  ISO  4   6 101   7 101  52 100  60 100
M  END
>  <TORSDO>  (62) 
F 25

>  <SCORE>  (62) 
-11.720

>  <name>  (62) 
62

>  <ligand_id>  (62) 
62

>  <original_smiles>  (62) 
[H]c1c([H])c([H])c2c(c1[H])C([H])([H])C([H])([H])C([H])([H])C2([H])N([H])C(=O)C1([H])N(C(=O)C([H])(N([H])C(=O)C([H])(N([H])C([H])([H])[H])C([H])([H])[H])C(C([H])([H])[H])(C([H])([H])[H])C([H])([H])[H])C([H])([H])c2c([H])c(OC([H])([H])C([H])([H])[N+]([H])([H])C([H])([H])C([H])([H])C([H])([H])C([H])([H])C([H])(N([H])C(=O)N3C([H])([H])C([H])([H])C([H])([H])C([H])(n4nc(-c5c([H])c([H])c(Oc6c([H])c([H])c(F)c([H])c6F)c([H])c5[H])c(C(=O)N([H])[H])c4N([H])[H])C3([H])[H])C([H])(C([H])([H])[H])C([H])([H])C([H])([H])[H])c([H])c([H])c2C1([H])[H]

>  <smiles>  (62) 
[H]c1c([H])c([H])c2c(c1[H])C([H])([H])C([H])([H])C([H])([H])C2([H])N([H])C(=O)C1([H])N(C(=O)C([H])(N([H])C(=O)C([H])(N([H])C([H])([H])[H])C([H])([H])[H])C(C([H])([H])[H])(C([H])([H])[H])C([H])([H])[H])C([H])([H])c2c([H])c(OC([H])([H])C([H])([H])[N+]([H])([H])C([H])([H])C([H])([H])C([H])([H])C([H])([H])C([H])(N([H])C(=O)N3C([H])([H])C([H])([H])C([H])([H])C([H])(n4nc(-c5c([H])c([H])c(Oc6c([H])c([H])c(F)c([H])c6F)c([H])c5[H])c(C(=O)N([H])[H])c4N([H])[H])C3([H])[H])C([H])(C([H])([H])[H])C([H])([H])C([H])([H])[H])c([H])c([H])c2C1([H])[H]

$$$$
63:0:0
     RDKit          3D

 88 95  0  0  1  0  0  0  0  0999 V2000
  -29.0510  -21.2740   20.0990 C   0  0  0  0  0  2  0  0  0  0  0  0
  -28.8520  -22.9680   20.6470 C   0  0  0  0  0  3  0  0  0  0  0  0
  -28.1840  -24.4440   19.8830 C   0  0  0  0  0  3  0  0  0  0  0  0
  -28.2940  -26.0540   20.1650 O   0  0  0  0  0  0  0  0  0  0  0  0
  -24.5890  -31.8940   23.0960 C   0  0  0  0  0  0  0  0  0  0  0  0
  -27.2530  -27.1110   20.0590 C   0  0  0  0  0  0  0  0  0  0  0  0
  -23.4260  -30.4840   21.4460 C   0  0  0  0  0  3  0  0  0  0  0  0
  -24.9110  -28.9210   20.0140 C   0  0  0  0  0  0  0  0  0  0  0  0
  -25.9850  -30.7550   21.3050 C   0  0  0  0  0  2  0  0  0  0  0  0
  -26.0850  -29.3520   20.6430 C   0  0  0  0  0  0  0  0  0  0  0  0
  -27.2470  -28.4650   20.6490 C   0  0  0  0  0  3  0  0  0  0  0  0
  -26.0490  -26.8250   19.3760 C   0  0  0  0  0  3  0  0  0  0  0  0
  -24.9160  -27.6780   19.3560 C   0  0  0  0  0  3  0  0  0  0  0  0
  -23.6710  -29.8130   20.0640 C   0  0  0  0  0  2  0  0  0  0  0  0
  -24.6880  -31.0730   22.0020 N   0  0  0  0  0  0  0  0  0  0  0  0
  -23.4930  -32.1590   23.6180 O   0  0  0  0  0  0  0  0  0  0  0  0
  -22.7520  -29.4690   22.4050 C   0  0  0  0  0  0  0  0  0  0  0  0
  -21.4210  -29.3050   22.2990 N   0  0  0  0  0  0  0  0  0  0  0  0
  -23.4320  -28.8330   23.2130 O   0  0  0  0  0  0  0  0  0  0  0  0
  -20.9250  -29.8740   21.6280 H   0  0  0  0  0  0  0  0  0  0  0  0
  -18.0400  -28.1180   22.8650 C   0  0  0  0  0  0  0  0  0  0  0  0
  -20.6090  -28.3530   23.0640 C   0  0  0  0  0  3  0  0  0  0  0  0
  -20.6790  -26.9380   22.4460 C   0  0  0  0  0  2  0  0  0  0  0  0
  -19.5440  -26.6550   21.4560 C   0  0  0  0  0  2  0  0  0  0  0  0
  -18.1840  -26.7900   22.1440 C   0  0  0  0  0  2  0  0  0  0  0  0
  -19.1760  -28.8610   23.2840 C   0  0  0  0  0  0  0  0  0  0  0  0
  -18.9810  -30.1050   23.9210 C   0  0  0  0  0  3  0  0  0  0  0  0
  -17.6830  -30.6030   24.1490 C   0  0  0  0  0  3  0  0  0  0  0  0
  -16.5630  -29.8580   23.7420 C   0  0  0  0  0  3  0  0  0  0  0  0
  -16.7430  -28.6170   23.1040 C   0  0  0  0  0  3  0  0  0  0  0  0
  -25.8460  -32.5550   23.7380 C   0  0  0  0  0  3  0  0  0  0  0  0
  -26.3730  -31.7780   25.0080 C   0  0  1  0  0  0  0  0  0  0  0  0
  -25.2840  -31.5090   26.0730 C   0  0  0  0  0  1  0  0  0  0  0  0
  -26.9840  -30.4150   24.6060 C   0  0  0  0  0  1  0  0  0  0  0  0
  -27.5080  -32.5860   25.6800 C   0  0  0  0  0  1  0  0  0  0  0  0
  -25.4930  -33.9380   24.1020 N   0  0  0  0  0  0  0  0  0  0  0  0
  -25.8520  -35.0280   23.4120 C   0  0  0  0  0  0  0  0  0  0  0  0
  -26.5750  -34.9770   22.4140 O   0  0  0  0  0  0  0  0  0  0  0  0
  -24.8550  -34.0490   24.8760 H   0  0  0  0  0  0  0  0  0  0  0  0
  -24.1460  -36.8410   23.0230 C   0  0  0  0  0  1  0  0  0  0  0  0
  -25.3250  -36.3930   23.9020 C   0  0  0  0  0  3  0  0  0  0  0  0
  -27.3900  -37.2400   24.9310 C   0  0  0  0  0  1  0  0  0  0  0  0
  -26.3580  -37.4520   23.9180 N   0  0  0  0  0  0  0  0  0  0  0  0
  -25.9370  -38.3640   24.0770 H   0  0  0  0  0  0  0  0  0  0  0  0
  -29.3790  -19.7130   20.9160 C   0  0  0  0  0  2  0  0  0  0  0  0
  -30.1370  -18.1940   20.3540 C   0  0  0  0  0  3  0  0  0  0  0  0
  -30.7770  -15.3950   20.7910 C   0  0  0  0  0  0  0  0  0  0  0  0
  -30.7690  -12.9860   19.8750 C   0  0  0  0  0  2  0  0  0  0  0  0
  -29.9330  -12.8510   18.5770 C   0  0  0  0  0  2  0  0  0  0  0  0
  -28.4490  -12.6150   18.9100 C   0  0  0  0  0  2  0  0  0  0  0  0
  -27.9420  -13.5580   20.0290 C   0  0  0  0  0  3  0  0  0  0  0  0
  -28.9120  -13.6320   21.2290 C   0  0  0  0  0  2  0  0  0  0  0  0
  -30.2000  -14.1050   20.7050 N   0  0  0  0  0  0  0  0  0  0  0  0
  -31.9980  -15.4070   20.5800 O   0  0  0  0  0  0  0  0  0  0  0  0
  -30.0070  -16.6390   20.8950 N   0  0  0  0  0  0  0  0  0  0  0  0
  -29.0590  -16.4360   21.1750 H   0  0  0  0  0  0  0  0  0  0  0  0
  -25.5190  -14.1190   20.5950 C   0  0  0  0  0  0  0  0  0  0  0  0
  -24.4370  -13.3450   20.9050 C   0  0  0  0  0  0  0  0  0  0  0  0
  -24.9100  -11.9950   20.9280 C   0  0  0  0  0  0  0  0  0  0  0  0
  -26.5790  -13.2450   20.4400 N   0  0  0  0  0  0  0  0  0  0  0  0
  -26.2210  -11.9620   20.7080 N   0  0  0  0  0  0  0  0  0  0  0  0
  -24.1740  -10.7330   21.0850 C   0  0  0  0  0  0  0  0  0  0  0  0
  -24.5370   -9.7840   22.0650 C   0  0  0  0  0  3  0  0  0  0  0  0
  -23.8050   -8.5850   22.2080 C   0  0  0  0  0  3  0  0  0  0  0  0
  -22.6930   -8.3290   21.3710 C   0  0  0  0  0  0  0  0  0  0  0  0
  -22.3490   -9.2660   20.3810 C   0  0  0  0  0  3  0  0  0  0  0  0
  -23.0840  -10.4550   20.2360 C   0  0  0  0  0  3  0  0  0  0  0  0
  -21.9360   -7.1840   21.4260 O   0  0  0  0  0  0  0  0  0  0  0  0
  -21.7860   -6.4730   22.5880 C   0  0  0  0  0  0  0  0  0  0  0  0
  -21.2360   -7.0540   23.7530 C   0  0  0  0  0  3  0  0  0  0  0  0
  -21.0400   -6.2660   24.9050 C   0  0  0  0  0  3  0  0  0  0  0  0
  -21.3780   -4.9000   24.8920 C   0  0  0  0  0  0  0  0  0  0  0  0
  -21.9180   -4.3190   23.7310 C   0  0  0  0  0  3  0  0  0  0  0  0
  -22.1190   -5.1040   22.5820 C   0  0  0  0  0  0  0  0  0  0  0  0
  -22.6190   -4.5340   21.4590 F   0  0  0  0  0  0  0  0  0  0  0  0
  -21.1800   -4.1420   25.9970 F   0  0  0  0  0  0  0  0  0  0  0  0
  -23.0230  -13.8180   21.0640 C   0  0  0  0  0  0  0  0  0  0  0  0
  -22.2370  -13.1420   21.8970 N   0  0  0  0  0  0  0  0  0  0  0  0
  -22.6170  -14.8230   20.4820 O   0  0  0  0  0  0  0  0  0  0  0  0
  -22.5720  -12.3300   22.3920 H   0  0  0  0  0  0  0  0  0  0  0  0
  -21.2850  -13.4460   22.0430 H   0  0  0  0  0  0  0  0  0  0  0  0
  -25.6860  -15.4860   20.4000 N   0  0  0  0  0  0  0  0  0  0  0  0
  -24.8950  -16.1230   20.4030 H   0  0  0  0  0  0  0  0  0  0  0  0
  -26.5230  -15.9010   20.0140 H   0  0  0  0  0  0  0  0  0  0  0  0
  -28.4780  -17.6620   18.4830 C   0  0  0  0  0  1  0  0  0  0  0  0
  -29.9010  -18.1390   18.8160 C   0  0  0  0  0  3  0  0  0  0  0  0
  -32.3380  -17.7890   17.9640 C   0  0  0  0  0  1  0  0  0  0  0  0
  -30.8900  -17.2840   17.9860 C   0  0  0  0  0  2  0  0  0  0  0  0
  1  2  1  0
  1 45  1  0
  3  4  1  0
  3  2  2  0
  5 16  2  0
  6  4  1  0
  6 11  1  0
  7 15  1  0
  7 17  1  0
  8 14  1  0
  8 10  1  0
  9 15  1  0
 10 11  2  0
 10  9  1  0
 12  6  2  0
 13 12  1  0
 13  8  2  0
 14  7  1  0
 15  5  1  0
 17 19  2  0
 18 17  1  0
 20 18  1  0
 21 30  2  0
 21 26  1  0
 22 18  1  0
 22 26  1  0
 23 22  1  0
 24 25  1  0
 24 23  1  0
 25 21  1  0
 26 27  2  0
 27 28  1  0
 29 28  2  0
 30 29  1  0
 31  5  1  0
 31 36  1  0
 31 32  1  0
 32 35  1  1
 32 33  1  0
 34 32  1  0
 36 39  1  0
 37 41  1  0
 37 36  1  0
 38 37  2  0
 41 40  1  0
 41 43  1  0
 43 44  1  0
 43 42  1  0
 46 55  1  0
 46 45  1  0
 47 55  1  0
 48 53  1  0
 49 50  1  0
 49 48  1  0
 51 50  1  0
 51 60  1  0
 51 52  1  0
 53 47  1  0
 53 52  1  0
 54 47  2  0
 55 56  1  0
 57 58  2  0
 58 59  1  0
 58 77  1  0
 59 62  1  0
 60 57  1  0
 60 61  1  0
 61 59  2  0
 62 63  1  0
 63 64  2  0
 65 68  1  0
 65 64  1  0
 66 65  2  0
 67 66  1  0
 67 62  2  0
 68 69  1  0
 69 70  1  0
 70 71  2  0
 72 71  1  0
 72 76  1  0
 73 72  2  0
 74 69  2  0
 74 73  1  0
 75 74  1  0
 77 78  1  0
 78 81  1  0
 78 80  1  0
 79 77  2  0
 82 83  1  0
 82 57  1  0
 84 82  1  0
 86 85  1  0
 86 46  1  0
 87 88  1  0
 88 86  1  0
M  ISO  4   3 101   4 101  47 100  55 100
M  END
>  <TORSDO>  (63) 
F 22

>  <SCORE>  (63) 
-14.406

>  <name>  (63) 
63

>  <ligand_id>  (63) 
63

>  <original_smiles>  (63) 
[H]c1c([H])c([H])c2c(c1[H])C([H])([H])C([H])([H])C([H])([H])C2([H])N([H])C(=O)C1([H])N(C(=O)C([H])(N([H])C(=O)C([H])(N([H])C([H])([H])[H])C([H])([H])[H])C(C([H])([H])[H])(C([H])([H])[H])C([H])([H])[H])C([H])([H])c2c([H])c(OC([H])([H])C([H])([H])C([H])([H])C([H])([H])C([H])(N([H])C(=O)N3C([H])([H])C([H])([H])C([H])([H])C([H])(n4nc(-c5c([H])c([H])c(Oc6c([H])c([H])c(F)c([H])c6F)c([H])c5[H])c(C(=O)N([H])[H])c4N([H])[H])C3([H])[H])C([H])(C([H])([H])[H])C([H])([H])C([H])([H])[H])c([H])c([H])c2C1([H])[H]

>  <smiles>  (63) 
[H]c1c([H])c([H])c2c(c1[H])C([H])([H])C([H])([H])C([H])([H])C2([H])N([H])C(=O)C1([H])N(C(=O)C([H])(N([H])C(=O)C([H])(N([H])C([H])([H])[H])C([H])([H])[H])C(C([H])([H])[H])(C([H])([H])[H])C([H])([H])[H])C([H])([H])c2c([H])c(OC([H])([H])C([H])([H])C([H])([H])C([H])([H])C([H])(N([H])C(=O)N3C([H])([H])C([H])([H])C([H])([H])C([H])(n4nc(-c5c([H])c([H])c(Oc6c([H])c([H])c(F)c([H])c6F)c([H])c5[H])c(C(=O)N([H])[H])c4N([H])[H])C3([H])[H])C([H])(C([H])([H])[H])C([H])([H])C([H])([H])[H])c([H])c([H])c2C1([H])[H]

$$$$
64:0:0
     RDKit          3D

 88 95  0  0  1  0  0  0  0  0999 V2000
  -28.4820  -21.8320   20.1540 C   0  0  0  0  0  2  0  0  0  0  0  0
  -29.5060  -20.5160   20.2980 C   0  0  0  0  0  3  0  0  0  0  0  0
  -29.0700  -18.8960   20.2510 C   0  0  0  0  0  3  0  0  0  0  0  0
  -30.1620  -17.6230   20.2510 C   0  0  0  0  0  3  0  0  0  0  0  0
  -30.4900  -14.9400   20.1410 C   0  0  0  0  0  0  0  0  0  0  0  0
  -30.3170  -12.6180   19.1770 C   0  0  0  0  0  2  0  0  0  0  0  0
  -29.3330  -12.6020   17.9860 C   0  0  0  0  0  2  0  0  0  0  0  0
  -27.8890  -12.3900   18.4790 C   0  0  0  0  0  2  0  0  0  0  0  0
  -27.5330  -13.3030   19.6810 C   0  0  0  0  0  3  0  0  0  0  0  0
  -28.6320  -13.2940   20.7640 C   0  0  0  0  0  2  0  0  0  0  0  0
  -29.8810  -13.6940   20.1050 N   0  0  0  0  0  0  0  0  0  0  0  0
  -31.6840  -15.0070   19.8400 O   0  0  0  0  0  0  0  0  0  0  0  0
  -29.7190  -16.1170   20.2770 N   0  0  0  0  0  0  0  0  0  0  0  0
  -28.7410  -15.9620   20.4580 H   0  0  0  0  0  0  0  0  0  0  0  0
  -25.1870  -13.8680   20.5350 C   0  0  0  0  0  0  0  0  0  0  0  0
  -24.1380  -13.0840   20.9290 C   0  0  0  0  0  0  0  0  0  0  0  0
  -24.6000  -11.7350   20.8480 C   0  0  0  0  0  0  0  0  0  0  0  0
  -26.2180  -12.9970   20.2290 N   0  0  0  0  0  0  0  0  0  0  0  0
  -25.8770  -11.7070   20.4850 N   0  0  0  0  0  0  0  0  0  0  0  0
  -23.8820  -10.4680   21.0340 C   0  0  0  0  0  0  0  0  0  0  0  0
  -24.3290   -9.4940   21.9540 C   0  0  0  0  0  3  0  0  0  0  0  0
  -23.6080   -8.2920   22.1310 C   0  0  0  0  0  3  0  0  0  0  0  0
  -22.4270   -8.0560   21.3870 C   0  0  0  0  0  0  0  0  0  0  0  0
  -21.9990   -9.0200   20.4570 C   0  0  0  0  0  3  0  0  0  0  0  0
  -22.7200  -10.2130   20.2780 C   0  0  0  0  0  3  0  0  0  0  0  0
  -21.6780   -6.9090   21.4730 O   0  0  0  0  0  0  0  0  0  0  0  0
  -21.6230   -6.1710   22.6280 C   0  0  0  0  0  0  0  0  0  0  0  0
  -21.1660   -6.7230   23.8460 C   0  0  0  0  0  3  0  0  0  0  0  0
  -21.0610   -5.9110   24.9920 C   0  0  0  0  0  3  0  0  0  0  0  0
  -21.4010   -4.5460   24.9220 C   0  0  0  0  0  0  0  0  0  0  0  0
  -21.8510   -3.9930   23.7110 C   0  0  0  0  0  3  0  0  0  0  0  0
  -21.9580   -4.8020   22.5670 C   0  0  0  0  0  0  0  0  0  0  0  0
  -22.3720   -4.2600   21.3960 F   0  0  0  0  0  0  0  0  0  0  0  0
  -21.2920   -3.7640   26.0220 F   0  0  0  0  0  0  0  0  0  0  0  0
  -22.7530  -13.5540   21.2660 C   0  0  0  0  0  0  0  0  0  0  0  0
  -22.0620  -12.8400   22.1460 N   0  0  0  0  0  0  0  0  0  0  0  0
  -22.2950  -14.5890   20.7820 O   0  0  0  0  0  0  0  0  0  0  0  0
  -22.4480  -12.0030   22.5570 H   0  0  0  0  0  0  0  0  0  0  0  0
  -21.1350  -13.1360   22.4170 H   0  0  0  0  0  0  0  0  0  0  0  0
  -25.3400  -15.2430   20.3810 N   0  0  0  0  0  0  0  0  0  0  0  0
  -24.5720  -15.8880   20.5350 H   0  0  0  0  0  0  0  0  0  0  0  0
  -26.1570  -15.6910   19.9850 H   0  0  0  0  0  0  0  0  0  0  0  0
  -31.1460  -17.8350   21.4100 C   0  0  0  0  0  0  0  0  0  0  0  0
  -32.4240  -18.6060   21.1170 C   0  0  0  0  0  1  0  0  0  0  0  0
  -30.9400  -17.4020   22.5480 O   0  0  0  0  0  0  0  0  0  0  0  0
  -28.9320  -23.4400   20.3160 C   0  0  0  0  0  3  0  0  0  0  0  0
  -27.9090  -24.7410   20.0750 C   0  0  0  0  0  3  0  0  0  0  0  0
  -28.2070  -26.2470   20.2710 O   0  0  0  0  0  0  0  0  0  0  0  0
  -24.6190  -31.9360   23.2520 C   0  0  0  0  0  0  0  0  0  0  0  0
  -27.1520  -27.2230   20.2100 C   0  0  0  0  0  0  0  0  0  0  0  0
  -23.4020  -30.5480   21.6180 C   0  0  0  0  0  3  0  0  0  0  0  0
  -24.8340  -28.9680   20.1880 C   0  0  0  0  0  0  0  0  0  0  0  0
  -25.9560  -30.8020   21.4420 C   0  0  0  0  0  2  0  0  0  0  0  0
  -26.0190  -29.4110   20.7900 C   0  0  0  0  0  0  0  0  0  0  0  0
  -27.1810  -28.5550   20.7820 C   0  0  0  0  0  3  0  0  0  0  0  0
  -25.9380  -26.8750   19.5750 C   0  0  0  0  0  3  0  0  0  0  0  0
  -24.8050  -27.7120   19.5660 C   0  0  0  0  0  3  0  0  0  0  0  0
  -23.6130  -29.8700   20.2380 C   0  0  0  0  0  2  0  0  0  0  0  0
  -24.6790  -31.1160   22.1590 N   0  0  0  0  0  0  0  0  0  0  0  0
  -23.5360  -32.2300   23.7820 O   0  0  0  0  0  0  0  0  0  0  0  0
  -22.7200  -29.5460   22.5820 C   0  0  0  0  0  0  0  0  0  0  0  0
  -21.3910  -29.3840   22.4540 N   0  0  0  0  0  0  0  0  0  0  0  0
  -23.3890  -28.9180   23.4070 O   0  0  0  0  0  0  0  0  0  0  0  0
  -20.9090  -29.9430   21.7650 H   0  0  0  0  0  0  0  0  0  0  0  0
  -18.0010  -28.2110   22.9620 C   0  0  0  0  0  0  0  0  0  0  0  0
  -20.5630  -28.4550   23.2270 C   0  0  0  0  0  3  0  0  0  0  0  0
  -20.6520  -27.0190   22.6560 C   0  0  0  0  0  2  0  0  0  0  0  0
  -19.5470  -26.7040   21.6430 C   0  0  0  0  0  2  0  0  0  0  0  0
  -18.1670  -26.8600   22.2880 C   0  0  0  0  0  2  0  0  0  0  0  0
  -19.1260  -28.9670   23.3880 C   0  0  0  0  0  0  0  0  0  0  0  0
  -18.9160  -30.2310   23.9790 C   0  0  0  0  0  3  0  0  0  0  0  0
  -17.6150  -30.7430   24.1460 C   0  0  0  0  0  3  0  0  0  0  0  0
  -16.5050  -29.9850   23.7350 C   0  0  0  0  0  3  0  0  0  0  0  0
  -16.6990  -28.7210   23.1490 C   0  0  0  0  0  3  0  0  0  0  0  0
  -25.9050  -32.5600   23.8740 C   0  0  0  0  0  3  0  0  0  0  0  0
  -25.6060  -33.9620   24.2060 N   0  0  0  0  0  0  0  0  0  0  0  0
  -25.9200  -35.0130   23.4370 C   0  0  0  0  0  0  0  0  0  0  0  0
  -26.5610  -34.9040   22.3880 O   0  0  0  0  0  0  0  0  0  0  0  0
  -25.0310  -34.1200   25.0210 H   0  0  0  0  0  0  0  0  0  0  0  0
  -24.1770  -36.8040   23.1460 C   0  0  0  0  0  1  0  0  0  0  0  0
  -25.4520  -36.4050   23.9040 C   0  0  0  0  0  3  0  0  0  0  0  0
  -27.6180  -37.3000   24.6390 C   0  0  0  0  0  1  0  0  0  0  0  0
  -26.4790  -37.4580   23.7390 N   0  0  0  0  0  0  0  0  0  0  0  0
  -26.0770  -38.3780   23.8960 H   0  0  0  0  0  0  0  0  0  0  0  0
  -26.4120  -31.7880   25.1550 C   0  0  1  0  0  0  0  0  0  0  0  0
  -25.3140  -31.5630   26.2210 C   0  0  0  0  0  1  0  0  0  0  0  0
  -26.9850  -30.4040   24.7720 C   0  0  0  0  0  1  0  0  0  0  0  0
  -27.5690  -32.5740   25.8150 C   0  0  0  0  0  1  0  0  0  0  0  0
  1  2  1  0
  1 46  1  0
  3  2  2  0
  4  3  1  0
  4 13  1  0
  4 43  1  0
  5 13  1  0
  6 11  1  0
  7  8  1  0
  7  6  1  0
  9  8  1  0
  9 18  1  0
  9 10  1  0
 11  5  1  0
 11 10  1  0
 12  5  2  0
 13 14  1  0
 15 16  2  0
 16 35  1  0
 17 16  1  0
 17 20  1  0
 18 19  1  0
 18 15  1  0
 19 17  2  0
 20 21  1  0
 21 22  2  0
 23 26  1  0
 23 22  1  0
 24 23  2  0
 25 24  1  0
 25 20  2  0
 26 27  1  0
 27 28  1  0
 28 29  2  0
 30 29  1  0
 30 34  1  0
 31 30  2  0
 32 27  2  0
 32 31  1  0
 33 32  1  0
 35 36  1  0
 36 39  1  0
 36 38  1  0
 37 35  2  0
 40 15  1  0
 40 41  1  0
 42 40  1  0
 43 45  2  0
 44 43  1  0
 47 48  1  0
 47 46  2  0
 49 60  2  0
 50 48  1  0
 50 55  1  0
 51 59  1  0
 51 61  1  0
 52 58  1  0
 52 54  1  0
 53 59  1  0
 54 53  1  0
 55 54  2  0
 56 50  2  0
 57 56  1  0
 57 52  2  0
 58 51  1  0
 59 49  1  0
 61 63  2  0
 62 61  1  0
 64 62  1  0
 65 74  2  0
 65 70  1  0
 66 62  1  0
 66 70  1  0
 67 66  1  0
 68 69  1  0
 68 67  1  0
 69 65  1  0
 70 71  2  0
 71 72  1  0
 73 72  2  0
 74 73  1  0
 75 49  1  0
 75 76  1  0
 75 85  1  0
 76 79  1  0
 77 81  1  0
 77 76  1  0
 78 77  2  0
 81 80  1  0
 83 84  1  0
 83 81  1  0
 83 82  1  0
 85 88  1  1
 85 86  1  0
 87 85  1  0
M  ISO  4   5 100  13 100  47 101  48 101
M  END
>  <TORSDO>  (64) 
F 22

>  <SCORE>  (64) 
-13.101

>  <name>  (64) 
64

>  <ligand_id>  (64) 
64

>  <original_smiles>  (64) 
[H]c1c([H])c([H])c2c(c1[H])C([H])([H])C([H])([H])C([H])([H])C2([H])N([H])C(=O)C1([H])N(C(=O)C([H])(N([H])C(=O)C([H])(N([H])C([H])([H])[H])C([H])([H])[H])C(C([H])([H])[H])(C([H])([H])[H])C([H])([H])[H])C([H])([H])c2c([H])c(OC([H])([H])C([H])([H])C([H])([H])C([H])([H])C([H])([H])C([H])(C(=O)C([H])([H])[H])N([H])C(=O)N3C([H])([H])C([H])([H])C([H])([H])C([H])(n4nc(-c5c([H])c([H])c(Oc6c([H])c([H])c(F)c([H])c6F)c([H])c5[H])c(C(=O)N([H])[H])c4N([H])[H])C3([H])[H])c([H])c([H])c2C1([H])[H]

>  <smiles>  (64) 
[H]c1c([H])c([H])c2c(c1[H])C([H])([H])C([H])([H])C([H])([H])C2([H])N([H])C(=O)C1([H])N(C(=O)C([H])(N([H])C(=O)C([H])(N([H])C([H])([H])[H])C([H])([H])[H])C(C([H])([H])[H])(C([H])([H])[H])C([H])([H])[H])C([H])([H])c2c([H])c(OC([H])([H])C([H])([H])C([H])([H])C([H])([H])C([H])([H])C([H])(C(=O)C([H])([H])[H])N([H])C(=O)N3C([H])([H])C([H])([H])C([H])([H])C([H])(n4nc(-c5c([H])c([H])c(Oc6c([H])c([H])c(F)c([H])c6F)c([H])c5[H])c(C(=O)N([H])[H])c4N([H])[H])C3([H])[H])c([H])c([H])c2C1([H])[H]

$$$$
65:0:0
     RDKit          3D

100107  0  0  1  0  0  0  0  0999 V2000
  -30.9290  -24.9560   18.7800 C   0  0  0  0  0  0  0  0  0  0  0  0
  -30.7430  -24.1600   17.7180 N   0  0  0  0  0  0  0  0  0  0  0  0
  -31.5010  -24.5800   19.8040 O   0  0  0  0  0  0  0  0  0  0  0  0
  -30.2960  -24.5690   16.9080 H   0  0  0  0  0  0  0  0  0  0  0  0
  -30.4230  -26.4030   18.6620 C   0  0  0  0  0  3  0  0  0  0  0  0
  -28.8760  -26.4780   18.7230 C   0  0  0  0  0  2  0  0  0  0  0  0
  -28.4560  -26.8280   20.0410 O   0  0  0  0  0  0  0  0  0  0  0  0
  -24.6180  -31.8990   23.2280 C   0  0  0  0  0  0  0  0  0  0  0  0
  -27.2600  -27.5000   20.1020 C   0  0  0  0  0  0  0  0  0  0  0  0
  -23.4000  -30.4910   21.5970 C   0  0  0  0  0  3  0  0  0  0  0  0
  -24.8460  -28.9530   20.1640 C   0  0  0  0  0  0  0  0  0  0  0  0
  -25.9180  -30.8610   21.3760 C   0  0  0  0  0  2  0  0  0  0  0  0
  -26.0020  -29.4890   20.7450 C   0  0  0  0  0  0  0  0  0  0  0  0
  -27.2090  -28.7600   20.7300 C   0  0  0  0  0  3  0  0  0  0  0  0
  -26.0880  -26.9580   19.5320 C   0  0  0  0  0  3  0  0  0  0  0  0
  -24.8790  -27.6800   19.5650 C   0  0  0  0  0  3  0  0  0  0  0  0
  -23.5980  -29.8060   20.2170 C   0  0  0  0  0  2  0  0  0  0  0  0
  -24.6640  -31.0980   22.1240 N   0  0  0  0  0  0  0  0  0  0  0  0
  -23.5420  -32.1680   23.7780 O   0  0  0  0  0  0  0  0  0  0  0  0
  -22.7610  -29.4700   22.5640 C   0  0  0  0  0  0  0  0  0  0  0  0
  -21.4380  -29.2790   22.4430 N   0  0  0  0  0  0  0  0  0  0  0  0
  -23.4530  -28.8510   23.3770 O   0  0  0  0  0  0  0  0  0  0  0  0
  -20.9420  -29.8300   21.7560 H   0  0  0  0  0  0  0  0  0  0  0  0
  -18.0760  -28.0600   22.9430 C   0  0  0  0  0  0  0  0  0  0  0  0
  -20.6300  -28.3400   23.2180 C   0  0  0  0  0  3  0  0  0  0  0  0
  -20.7460  -26.9060   22.6510 C   0  0  0  0  0  2  0  0  0  0  0  0
  -19.6480  -26.5680   21.6370 C   0  0  0  0  0  2  0  0  0  0  0  0
  -18.2650  -26.7070   22.2770 C   0  0  0  0  0  2  0  0  0  0  0  0
  -19.1870  -28.8330   23.3710 C   0  0  0  0  0  0  0  0  0  0  0  0
  -18.9580  -30.1000   23.9510 C   0  0  0  0  0  3  0  0  0  0  0  0
  -17.6500  -30.5920   24.1110 C   0  0  0  0  0  3  0  0  0  0  0  0
  -16.5520  -29.8160   23.7010 C   0  0  0  0  0  3  0  0  0  0  0  0
  -16.7660  -28.5510   23.1240 C   0  0  0  0  0  3  0  0  0  0  0  0
  -25.9110  -32.5310   23.8340 C   0  0  0  0  0  3  0  0  0  0  0  0
  -26.4480  -31.7550   25.1000 C   0  0  1  0  0  0  0  0  0  0  0  0
  -25.3720  -31.5130   26.1830 C   0  0  0  0  0  1  0  0  0  0  0  0
  -27.0270  -30.3810   24.6920 C   0  0  0  0  0  1  0  0  0  0  0  0
  -27.6070  -32.5490   25.7470 C   0  0  0  0  0  1  0  0  0  0  0  0
  -25.6040  -33.9280   24.1700 N   0  0  0  0  0  0  0  0  0  0  0  0
  -25.9300  -34.9800   23.4090 C   0  0  0  0  0  0  0  0  0  0  0  0
  -26.5940  -34.8800   22.3730 O   0  0  0  0  0  0  0  0  0  0  0  0
  -25.0160  -34.0800   24.9760 H   0  0  0  0  0  0  0  0  0  0  0  0
  -24.1970  -36.7690   23.0670 C   0  0  0  0  0  1  0  0  0  0  0  0
  -25.4440  -36.3670   23.8710 C   0  0  0  0  0  3  0  0  0  0  0  0
  -27.5830  -37.2500   24.6870 C   0  0  0  0  0  1  0  0  0  0  0  0
  -26.4740  -37.4220   23.7540 N   0  0  0  0  0  0  0  0  0  0  0  0
  -26.0680  -38.3400   23.9090 H   0  0  0  0  0  0  0  0  0  0  0  0
  -31.0170  -27.1430   17.4320 C   0  0  0  0  0  2  0  0  0  0  0  0
  -32.5590  -27.2210   17.4220 C   0  0  0  0  0  2  0  0  0  0  0  0
  -33.1120  -28.1060   16.2900 C   0  0  0  0  0  2  0  0  0  0  0  0
  -34.5830  -28.1580   16.3030 N   0  0  0  0  0  4  0  0  0  0  0  0
  -34.9220  -28.5080   17.1810 H   0  0  0  0  0  0  0  0  0  0  0  0
  -34.9110  -28.7690   15.5770 H   0  0  0  0  0  0  0  0  0  0  0  0
  -34.9780  -27.2490   16.1450 H   0  0  0  0  0  0  0  0  0  0  0  0
  -31.1460  -22.7600   17.5990 C   0  0  0  0  0  2  0  0  0  0  0  0
  -30.4060  -21.8220   18.5720 C   0  0  0  0  0  2  0  0  0  0  0  0
  -28.8740  -21.9770   18.5600 C   0  0  0  0  0  2  0  0  0  0  0  0
  -28.1480  -21.1990   19.6710 C   0  0  0  0  0  2  0  0  0  0  0  0
  -28.2360  -19.6650   19.5710 C   0  0  0  0  0  2  0  0  0  0  0  0
  -29.3750  -19.0260   20.3950 C   0  0  0  0  0  2  0  0  0  0  0  0
  -29.2570  -17.4940   20.4220 C   0  0  0  0  0  2  0  0  0  0  0  0
  -30.2560  -16.7920   21.3640 C   0  0  0  0  0  2  0  0  0  0  0  0
  -30.6560  -14.4460   20.5950 C   0  0  0  0  0  0  0  0  0  0  0  0
  -30.3510  -12.3380   19.3540 C   0  0  0  0  0  2  0  0  0  0  0  0
  -29.4060  -12.5750   18.1570 C   0  0  0  0  0  2  0  0  0  0  0  0
  -27.9290  -12.4450   18.5820 C   0  0  0  0  0  2  0  0  0  0  0  0
  -27.5980  -13.2520   19.8670 C   0  0  0  0  0  3  0  0  0  0  0  0
  -28.6460  -12.9700   20.9660 C   0  0  0  0  0  2  0  0  0  0  0  0
  -29.9810  -13.2800   20.4210 N   0  0  0  0  0  0  0  0  0  0  0  0
  -31.7210  -14.7110   20.0300 O   0  0  0  0  0  0  0  0  0  0  0  0
  -30.0160  -15.3510   21.3480 N   0  0  0  0  0  0  0  0  0  0  0  0
  -29.1780  -15.0270   21.8080 H   0  0  0  0  0  0  0  0  0  0  0  0
  -25.1920  -13.8580   20.5590 C   0  0  0  0  0  0  0  0  0  0  0  0
  -24.1250  -13.0830   20.9250 C   0  0  0  0  0  0  0  0  0  0  0  0
  -24.5880  -11.7330   20.8960 C   0  0  0  0  0  0  0  0  0  0  0  0
  -26.2410  -12.9800   20.3360 N   0  0  0  0  0  0  0  0  0  0  0  0
  -25.8800  -11.6970   20.5930 N   0  0  0  0  0  0  0  0  0  0  0  0
  -23.8670  -10.4690   21.0880 C   0  0  0  0  0  0  0  0  0  0  0  0
  -24.3170   -9.4910   22.0020 C   0  0  0  0  0  3  0  0  0  0  0  0
  -23.5940   -8.2930   22.1820 C   0  0  0  0  0  3  0  0  0  0  0  0
  -22.4060   -8.0630   21.4490 C   0  0  0  0  0  0  0  0  0  0  0  0
  -21.9750   -9.0300   20.5230 C   0  0  0  0  0  3  0  0  0  0  0  0
  -22.6970  -10.2210   20.3410 C   0  0  0  0  0  3  0  0  0  0  0  0
  -21.6540   -6.9160   21.5400 O   0  0  0  0  0  0  0  0  0  0  0  0
  -21.6520   -6.1420   22.6730 C   0  0  0  0  0  0  0  0  0  0  0  0
  -21.2910   -6.6690   23.9330 C   0  0  0  0  0  3  0  0  0  0  0  0
  -21.2320   -5.8240   25.0600 C   0  0  0  0  0  3  0  0  0  0  0  0
  -21.5250   -4.4540   24.9280 C   0  0  0  0  0  0  0  0  0  0  0  0
  -21.8770   -3.9260   23.6740 C   0  0  0  0  0  3  0  0  0  0  0  0
  -21.9360   -4.7680   22.5500 C   0  0  0  0  0  0  0  0  0  0  0  0
  -22.2550   -4.2500   21.3380 F   0  0  0  0  0  0  0  0  0  0  0  0
  -21.4620   -3.6390   26.0080 F   0  0  0  0  0  0  0  0  0  0  0  0
  -22.7250  -13.5560   21.1940 C   0  0  0  0  0  0  0  0  0  0  0  0
  -22.0000  -12.8620   22.0650 N   0  0  0  0  0  0  0  0  0  0  0  0
  -22.2800  -14.5740   20.6660 O   0  0  0  0  0  0  0  0  0  0  0  0
  -22.3690  -12.0380   22.5180 H   0  0  0  0  0  0  0  0  0  0  0  0
  -21.0590  -13.1610   22.2850 H   0  0  0  0  0  0  0  0  0  0  0  0
  -25.3540  -15.2280   20.3810 N   0  0  0  0  0  0  0  0  0  0  0  0
  -24.5890  -15.8830   20.4980 H   0  0  0  0  0  0  0  0  0  0  0  0
  -26.2110  -15.6700   20.0740 H   0  0  0  0  0  0  0  0  0  0  0  0
  1  3  2  0
  2  1  1  0
  4  2  1  0
  5 48  1  0
  5  6  1  0
  5  1  1  0
  6  7  1  0
  7  9  1  0
  8 19  2  0
  9 14  1  0
 10 18  1  0
 10 20  1  0
 11 17  1  0
 11 13  1  0
 12 18  1  0
 13 12  1  0
 14 13  2  0
 15 16  1  0
 15  9  2  0
 16 11  2  0
 17 10  1  0
 18  8  1  0
 20 22  2  0
 21 20  1  0
 23 21  1  0
 24 33  2  0
 24 29  1  0
 25 21  1  0
 25 29  1  0
 26 25  1  0
 27 28  1  0
 27 26  1  0
 28 24  1  0
 29 30  2  0
 30 31  1  0
 32 31  2  0
 33 32  1  0
 34  8  1  0
 34 39  1  0
 34 35  1  0
 35 38  1  1
 35 36  1  0
 37 35  1  0
 39 42  1  0
 40 44  1  0
 40 39  1  0
 41 40  2  0
 44 43  1  0
 46 44  1  0
 46 47  1  0
 46 45  1  0
 49 48  1  0
 50 51  1  0
 50 49  1  0
 51 52  1  0
 53 51  1  0
 54 51  1  0
 55  2  1  0
 55 56  1  0
 57 56  1  0
 57 58  1  0
 59 58  1  0
 59 60  1  0
 60 61  1  0
 61 62  1  0
 63 71  1  0
 64 69  1  0
 65 66  1  0
 65 64  1  0
 67 66  1  0
 67 76  1  0
 67 68  1  0
 69 63  1  0
 69 68  1  0
 70 63  2  0
 71 62  1  0
 71 72  1  0
 73 74  2  0
 74 93  1  0
 75 74  1  0
 75 78  1  0
 76 73  1  0
 76 77  1  0
 77 75  2  0
 78 79  1  0
 79 80  2  0
 81 84  1  0
 81 80  1  0
 82 81  2  0
 83 82  1  0
 83 78  2  0
 84 85  1  0
 85 86  1  0
 86 87  2  0
 88 87  1  0
 88 92  1  0
 89 88  2  0
 90 85  2  0
 90 89  1  0
 91 90  1  0
 93 94  1  0
 94 97  1  0
 94 96  1  0
 95 93  2  0
 98 99  1  0
 98 73  1  0
100 98  1  0
M  ISO  4   6 101   7 101  63 100  71 100
M  END
>  <TORSDO>  (65) 
F 30

>  <SCORE>  (65) 
-11.082

>  <name>  (65) 
65

>  <ligand_id>  (65) 
65

>  <original_smiles>  (65) 
[H]c1c([H])c([H])c2c(c1[H])C([H])([H])C([H])([H])C([H])([H])C2([H])N([H])C(=O)C1([H])N(C(=O)C([H])(N([H])C(=O)C([H])(N([H])C([H])([H])[H])C([H])([H])[H])C(C([H])([H])[H])(C([H])([H])[H])C([H])([H])[H])C([H])([H])c2c([H])c(OC([H])([H])C([H])(C(=O)N([H])C([H])([H])C([H])([H])C([H])([H])C([H])([H])C([H])([H])C([H])([H])C([H])([H])C([H])([H])N([H])C(=O)N3C([H])([H])C([H])([H])C([H])([H])C([H])(n4nc(-c5c([H])c([H])c(Oc6c([H])c([H])c(F)c([H])c6F)c([H])c5[H])c(C(=O)N([H])[H])c4N([H])[H])C3([H])[H])C([H])([H])C([H])([H])C([H])([H])[N+]([H])([H])[H])c([H])c([H])c2C1([H])[H]

>  <smiles>  (65) 
[H]c1c([H])c([H])c2c(c1[H])C([H])([H])C([H])([H])C([H])([H])C2([H])N([H])C(=O)C1([H])N(C(=O)C([H])(N([H])C(=O)C([H])(N([H])C([H])([H])[H])C([H])([H])[H])C(C([H])([H])[H])(C([H])([H])[H])C([H])([H])[H])C([H])([H])c2c([H])c(OC([H])([H])C([H])(C(=O)N([H])C([H])([H])C([H])([H])C([H])([H])C([H])([H])C([H])([H])C([H])([H])C([H])([H])C([H])([H])N([H])C(=O)N3C([H])([H])C([H])([H])C([H])([H])C([H])(n4nc(-c5c([H])c([H])c(Oc6c([H])c([H])c(F)c([H])c6F)c([H])c5[H])c(C(=O)N([H])[H])c4N([H])[H])C3([H])[H])C([H])([H])C([H])([H])C([H])([H])[N+]([H])([H])[H])c([H])c([H])c2C1([H])[H]

$$$$
66:0:0
     RDKit          3D

 99106  0  0  1  0  0  0  0  0999 V2000
  -29.4100  -22.1780   24.9760 C   0  0  0  0  0  2  0  0  0  0  0  0
  -29.4210  -23.6650   24.5720 C   0  0  0  0  0  2  0  0  0  0  0  0
  -29.8620  -23.9020   23.1200 C   0  0  0  0  0  2  0  0  0  0  0  0
  -29.5090  -25.3100   22.5870 C   0  0  0  0  0  2  0  0  0  0  0  0
  -30.6300  -26.2780   22.6570 N   0  0  0  0  0  4  0  0  0  0  0  0
  -31.0650  -26.2290   23.5660 H   0  0  0  0  0  0  0  0  0  0  0  0
  -30.2130  -27.1930   22.5750 H   0  0  0  0  0  0  0  0  0  0  0  0
  -31.6500  -26.1260   21.5870 C   0  0  0  0  0  2  0  0  0  0  0  0
  -32.3170  -27.4610   21.1840 C   0  0  0  0  0  2  0  0  0  0  0  0
  -31.7190  -27.9700   19.9910 O   0  0  0  0  0  0  0  0  0  0  0  0
  -26.2450  -30.5640   23.7390 C   0  0  0  0  0  0  0  0  0  0  0  0
  -30.3750  -28.2280   20.0710 C   0  0  0  0  0  0  0  0  0  0  0  0
  -25.6630  -29.2860   21.6990 C   0  0  0  0  0  3  0  0  0  0  0  0
  -27.6040  -28.7390   20.1420 C   0  0  0  0  0  0  0  0  0  0  0  0
  -27.8870  -30.5270   21.8700 C   0  0  0  0  0  2  0  0  0  0  0  0
  -28.4740  -29.4660   20.9660 C   0  0  0  0  0  0  0  0  0  0  0  0
  -29.8580  -29.2120   20.9370 C   0  0  0  0  0  3  0  0  0  0  0  0
  -29.4970  -27.5070   19.2380 C   0  0  0  0  0  3  0  0  0  0  0  0
  -28.1100  -27.7510   19.2770 C   0  0  0  0  0  3  0  0  0  0  0  0
  -26.1360  -29.0810   20.2340 C   0  0  0  0  0  2  0  0  0  0  0  0
  -26.6080  -30.1300   22.4980 N   0  0  0  0  0  0  0  0  0  0  0  0
  -25.1270  -30.3080   24.2020 O   0  0  0  0  0  0  0  0  0  0  0  0
  -25.4000  -27.9010   22.3310 C   0  0  0  0  0  0  0  0  0  0  0  0
  -24.2630  -27.2860   21.9640 N   0  0  0  0  0  0  0  0  0  0  0  0
  -26.2160  -27.3920   23.1050 O   0  0  0  0  0  0  0  0  0  0  0  0
  -23.6450  -27.7780   21.3320 H   0  0  0  0  0  0  0  0  0  0  0  0
  -21.6110  -24.8540   21.6430 C   0  0  0  0  0  0  0  0  0  0  0  0
  -23.8230  -25.9600   22.3960 C   0  0  0  0  0  3  0  0  0  0  0  0
  -24.5360  -24.8490   21.5920 C   0  0  0  0  0  2  0  0  0  0  0  0
  -23.7440  -24.3930   20.3620 C   0  0  0  0  0  2  0  0  0  0  0  0
  -22.3680  -23.8630   20.7740 C   0  0  0  0  0  2  0  0  0  0  0  0
  -22.2940  -25.8490   22.3920 C   0  0  0  0  0  0  0  0  0  0  0  0
  -21.5430  -26.7670   23.1550 C   0  0  0  0  0  3  0  0  0  0  0  0
  -20.1370  -26.6990   23.1830 C   0  0  0  0  0  3  0  0  0  0  0  0
  -19.4670  -25.7020   22.4540 C   0  0  0  0  0  3  0  0  0  0  0  0
  -20.2050  -24.7800   21.6890 C   0  0  0  0  0  3  0  0  0  0  0  0
  -27.2090  -31.4170   24.6230 C   0  0  0  0  0  3  0  0  0  0  0  0
  -27.7060  -30.6600   25.9150 C   0  0  1  0  0  0  0  0  0  0  0  0
  -26.5620  -30.0420   26.7520 C   0  0  0  0  0  1  0  0  0  0  0  0
  -28.6880  -29.5260   25.5390 C   0  0  0  0  0  1  0  0  0  0  0  0
  -28.4950  -31.6340   26.8220 C   0  0  0  0  0  1  0  0  0  0  0  0
  -26.5020  -32.6540   24.9830 N   0  0  0  0  0  0  0  0  0  0  0  0
  -26.6790  -33.8350   24.3750 C   0  0  0  0  0  0  0  0  0  0  0  0
  -27.5200  -34.0140   23.4910 O   0  0  0  0  0  0  0  0  0  0  0  0
  -25.7600  -32.5710   25.6640 H   0  0  0  0  0  0  0  0  0  0  0  0
  -24.6380  -35.1880   23.8060 C   0  0  0  0  0  1  0  0  0  0  0  0
  -25.7790  -35.0060   24.8190 C   0  0  0  0  0  3  0  0  0  0  0  0
  -27.4410  -36.2700   26.1110 C   0  0  0  0  0  1  0  0  0  0  0  0
  -26.5120  -36.2810   24.9840 N   0  0  0  0  0  0  0  0  0  0  0  0
  -25.8660  -37.0560   25.1110 H   0  0  0  0  0  0  0  0  0  0  0  0
  -30.8110  -21.5310   25.0470 C   0  0  0  0  0  2  0  0  0  0  0  0
  -32.8050  -21.0670   23.5510 C   0  0  0  0  0  1  0  0  0  0  0  0
  -31.2920  -20.8300   23.7510 C   0  0  0  0  0  3  0  0  0  0  0  0
  -30.9400  -19.3260   23.7170 C   0  0  0  0  0  0  0  0  0  0  0  0
  -30.4110  -18.7540   24.6760 O   0  0  0  0  0  0  0  0  0  0  0  0
  -31.2630  -18.5700   22.4310 C   0  0  0  0  0  2  0  0  0  0  0  0
  -30.7140  -17.1310   22.3860 C   0  0  0  0  0  2  0  0  0  0  0  0
  -30.9050  -14.4580   19.6570 C   0  0  0  0  0  0  0  0  0  0  0  0
  -30.3980  -12.3890   18.4210 C   0  0  0  0  0  2  0  0  0  0  0  0
  -29.3150  -12.6080   17.3490 C   0  0  0  0  0  2  0  0  0  0  0  0
  -27.9060  -12.4670   17.9530 C   0  0  0  0  0  2  0  0  0  0  0  0
  -27.7270  -13.3020   19.2470 C   0  0  0  0  0  3  0  0  0  0  0  0
  -28.8960  -13.0530   20.2240 C   0  0  0  0  0  2  0  0  0  0  0  0
  -30.1620  -13.3320   19.5220 N   0  0  0  0  0  0  0  0  0  0  0  0
  -31.8230  -14.7810   18.8860 O   0  0  0  0  0  0  0  0  0  0  0  0
  -31.2440  -16.4120   21.1720 C   0  0  0  0  0  0  0  0  0  0  0  0
  -30.6150  -15.2680   20.8050 N   0  0  0  0  0  0  0  0  0  0  0  0
  -32.3080  -16.9360   20.5210 N   0  0  0  0  0  4  0  0  0  0  0  0
  -29.8860  -14.9780   21.4350 H   0  0  0  0  0  0  0  0  0  0  0  0
  -32.7760  -17.7730   20.8420 H   0  0  0  0  0  0  0  0  0  0  0  0
  -32.6690  -16.4810   19.6860 H   0  0  0  0  0  0  0  0  0  0  0  0
  -25.4300  -13.9250   20.2310 C   0  0  0  0  0  0  0  0  0  0  0  0
  -24.4080  -13.1560   20.7210 C   0  0  0  0  0  0  0  0  0  0  0  0
  -24.8520  -11.8020   20.6280 C   0  0  0  0  0  0  0  0  0  0  0  0
  -26.4340  -13.0380   19.8750 N   0  0  0  0  0  0  0  0  0  0  0  0
  -26.0980  -11.7570   20.1700 N   0  0  0  0  0  0  0  0  0  0  0  0
  -24.1460  -10.5420   20.8910 C   0  0  0  0  0  0  0  0  0  0  0  0
  -24.5670   -9.6560   21.9070 C   0  0  0  0  0  3  0  0  0  0  0  0
  -23.8590   -8.4600   22.1520 C   0  0  0  0  0  3  0  0  0  0  0  0
  -22.7160   -8.1400   21.3810 C   0  0  0  0  0  0  0  0  0  0  0  0
  -22.3160   -9.0140   20.3540 C   0  0  0  0  0  3  0  0  0  0  0  0
  -23.0260  -10.2010   20.1070 C   0  0  0  0  0  3  0  0  0  0  0  0
  -21.9790   -6.9900   21.5330 O   0  0  0  0  0  0  0  0  0  0  0  0
  -21.7480   -6.4410   22.7690 C   0  0  0  0  0  0  0  0  0  0  0  0
  -21.1170   -7.1700   23.8010 C   0  0  0  0  0  3  0  0  0  0  0  0
  -20.8350   -6.5460   25.0320 C   0  0  0  0  0  3  0  0  0  0  0  0
  -21.1730   -5.1940   25.2310 C   0  0  0  0  0  0  0  0  0  0  0  0
  -21.7980   -4.4660   24.2030 C   0  0  0  0  0  3  0  0  0  0  0  0
  -22.0810   -5.0870   22.9750 C   0  0  0  0  0  0  0  0  0  0  0  0
  -22.6610   -4.3740   21.9800 F   0  0  0  0  0  0  0  0  0  0  0  0
  -20.8970   -4.5910   26.4110 F   0  0  0  0  0  0  0  0  0  0  0  0
  -23.0550  -13.6390   21.1600 C   0  0  0  0  0  0  0  0  0  0  0  0
  -22.4580  -12.9750   22.1420 N   0  0  0  0  0  0  0  0  0  0  0  0
  -22.5410  -14.6390   20.6600 O   0  0  0  0  0  0  0  0  0  0  0  0
  -22.8890  -12.1640   22.5620 H   0  0  0  0  0  0  0  0  0  0  0  0
  -21.5550  -13.2810   22.4780 H   0  0  0  0  0  0  0  0  0  0  0  0
  -25.5840  -15.2940   20.0410 N   0  0  0  0  0  0  0  0  0  0  0  0
  -24.8430  -15.9590   20.2390 H   0  0  0  0  0  0  0  0  0  0  0  0
  -26.3830  -15.7270   19.5940 H   0  0  0  0  0  0  0  0  0  0  0  0
  1 51  1  0
  2  1  1  0
  3  2  1  0
  4  5  1  0
  4  3  1  0
  5  6  1  0
  7  5  1  0
  8  5  1  0
  9  8  1  0
 10 12  1  0
 10  9  1  0
 11 22  2  0
 12 17  1  0
 13 23  1  0
 13 21  1  0
 14 20  1  0
 14 16  1  0
 15 21  1  0
 16 15  1  0
 17 16  2  0
 18 19  1  0
 18 12  2  0
 19 14  2  0
 20 13  1  0
 21 11  1  0
 23 25  2  0
 24 23  1  0
 26 24  1  0
 27 36  2  0
 27 32  1  0
 28 24  1  0
 29 28  1  0
 30 31  1  0
 30 29  1  0
 31 27  1  0
 32 28  1  0
 32 33  2  0
 33 34  1  0
 35 34  2  0
 36 35  1  0
 37 11  1  0
 37 42  1  0
 37 38  1  0
 38 39  1  1
 38 41  1  0
 40 38  1  0
 42 45  1  0
 43 47  1  0
 43 42  1  0
 44 43  2  0
 47 46  1  0
 47 49  1  0
 49 50  1  0
 49 48  1  0
 53 52  1  0
 53 51  1  0
 54 53  1  0
 54 55  2  0
 56 54  1  0
 57 56  1  0
 58 67  1  0
 59 64  1  0
 60 61  1  0
 60 59  1  0
 62 61  1  0
 62 75  1  0
 62 63  1  0
 64 58  1  0
 64 63  1  0
 65 58  2  0
 66 57  1  0
 67 66  1  0
 67 69  1  0
 68 70  1  0
 68 66  2  0
 71 68  1  0
 72 73  2  0
 73 92  1  0
 74 73  1  0
 74 77  1  0
 75 76  1  0
 75 72  1  0
 76 74  2  0
 77 78  1  0
 78 79  2  0
 80 83  1  0
 80 79  1  0
 81 80  2  0
 82 81  1  0
 82 77  2  0
 83 84  1  0
 84 89  2  0
 84 85  1  0
 85 86  2  0
 86 87  1  0
 87 91  1  0
 88 87  2  0
 89 88  1  0
 90 89  1  0
 92 93  1  0
 93 96  1  0
 93 95  1  0
 94 92  2  0
 97 72  1  0
 97 98  1  0
 99 97  1  0
M  ISO  4   9 101  10 101  58 100  67 100
M  END
>  <TORSDO>  (66) 
F 27

>  <SCORE>  (66) 
-3.348

>  <name>  (66) 
66

>  <ligand_id>  (66) 
66

>  <original_smiles>  (66) 
[H]c1c([H])c([H])c2c(c1[H])C([H])([H])C([H])([H])C([H])([H])C2([H])N([H])C(=O)C1([H])N(C(=O)C([H])(N([H])C(=O)C([H])(N([H])C([H])([H])[H])C([H])([H])[H])C(C([H])([H])[H])(C([H])([H])[H])C([H])([H])[H])C([H])([H])c2c([H])c(OC([H])([H])C([H])([H])[N+]([H])([H])C([H])([H])C([H])([H])C([H])([H])C([H])([H])C([H])([H])C([H])(C(=O)C([H])([H])C([H])([H])C(N([H])C(=O)N3C([H])([H])C([H])([H])C([H])([H])C([H])(n4nc(-c5c([H])c([H])c(Oc6c([H])c([H])c(F)c([H])c6F)c([H])c5[H])c(C(=O)N([H])[H])c4N([H])[H])C3([H])[H])=[N+]([H])[H])C([H])([H])[H])c([H])c([H])c2C1([H])[H]

>  <smiles>  (66) 
[H]c1c([H])c([H])c2c(c1[H])C([H])([H])C([H])([H])C([H])([H])C2([H])N([H])C(=O)C1([H])N(C(=O)C([H])(N([H])C(=O)C([H])(N([H])C([H])([H])[H])C([H])([H])[H])C(C([H])([H])[H])(C([H])([H])[H])C([H])([H])[H])C([H])([H])c2c([H])c(OC([H])([H])C([H])([H])[N+]([H])([H])C([H])([H])C([H])([H])C([H])([H])C([H])([H])C([H])([H])C([H])(C(=O)C([H])([H])C([H])([H])C(N([H])C(=O)N3C([H])([H])C([H])([H])C([H])([H])C([H])(n4nc(-c5c([H])c([H])c(Oc6c([H])c([H])c(F)c([H])c6F)c([H])c5[H])c(C(=O)N([H])[H])c4N([H])[H])C3([H])[H])=[N+]([H])[H])C([H])([H])[H])c([H])c([H])c2C1([H])[H]

$$$$
67:0:0
     RDKit          3D

 96103  0  0  1  0  0  0  0  0999 V2000
  -29.7520  -20.5740   20.4530 C   0  0  0  0  0  3  0  0  0  0  0  0
  -32.2820  -21.2690   20.3700 C   0  0  0  0  0  1  0  0  0  0  0  0
  -31.1060  -20.7250   21.2010 C   0  0  0  0  0  2  0  0  0  0  0  0
  -29.7760  -19.4810   19.3040 C   0  0  0  0  0  3  0  0  0  0  0  0
  -30.5650  -18.1030   19.5310 C   0  0  0  0  0  3  0  0  0  0  0  0
  -30.1600  -17.1810   20.7560 C   0  0  0  0  0  2  0  0  0  0  0  0
  -30.7580  -14.6470   20.3990 C   0  0  0  0  0  0  0  0  0  0  0  0
  -30.5060  -12.4730   19.2480 C   0  0  0  0  0  2  0  0  0  0  0  0
  -29.5470  -12.6910   18.0590 C   0  0  0  0  0  2  0  0  0  0  0  0
  -28.0800  -12.5320   18.5070 C   0  0  0  0  0  2  0  0  0  0  0  0
  -27.7470  -13.3390   19.7880 C   0  0  0  0  0  3  0  0  0  0  0  0
  -28.8220  -13.1140   20.8790 C   0  0  0  0  0  2  0  0  0  0  0  0
  -30.1250  -13.4500   20.2850 N   0  0  0  0  0  0  0  0  0  0  0  0
  -31.9520  -14.7910   20.1310 O   0  0  0  0  0  0  0  0  0  0  0  0
  -29.9290  -15.7120   20.5890 N   0  0  0  0  0  0  0  0  0  0  0  0
  -28.9670  -15.4370   20.7190 H   0  0  0  0  0  0  0  0  0  0  0  0
  -25.3400  -13.9190   20.4800 C   0  0  0  0  0  0  0  0  0  0  0  0
  -24.2780  -13.1400   20.8510 C   0  0  0  0  0  0  0  0  0  0  0  0
  -24.7510  -11.7920   20.8260 C   0  0  0  0  0  0  0  0  0  0  0  0
  -26.3970  -13.0490   20.2650 N   0  0  0  0  0  0  0  0  0  0  0  0
  -26.0450  -11.7650   20.5320 N   0  0  0  0  0  0  0  0  0  0  0  0
  -24.0290  -10.5260   21.0120 C   0  0  0  0  0  0  0  0  0  0  0  0
  -24.4600   -9.5690   21.9580 C   0  0  0  0  0  3  0  0  0  0  0  0
  -23.7450   -8.3620   22.1310 C   0  0  0  0  0  3  0  0  0  0  0  0
  -22.5850   -8.1090   21.3640 C   0  0  0  0  0  0  0  0  0  0  0  0
  -22.1740   -9.0560   20.4070 C   0  0  0  0  0  3  0  0  0  0  0  0
  -22.8900  -10.2510   20.2310 C   0  0  0  0  0  3  0  0  0  0  0  0
  -21.8350   -6.9590   21.4560 O   0  0  0  0  0  0  0  0  0  0  0  0
  -21.7730   -6.2280   22.6150 C   0  0  0  0  0  0  0  0  0  0  0  0
  -21.3050   -6.7890   23.8240 C   0  0  0  0  0  3  0  0  0  0  0  0
  -21.1980   -5.9840   24.9770 C   0  0  0  0  0  3  0  0  0  0  0  0
  -21.5440   -4.6220   24.9180 C   0  0  0  0  0  0  0  0  0  0  0  0
  -22.0000   -4.0570   23.7120 C   0  0  0  0  0  3  0  0  0  0  0  0
  -22.1140   -4.8580   22.5640 C   0  0  0  0  0  0  0  0  0  0  0  0
  -22.5390   -4.3110   21.4000 F   0  0  0  0  0  0  0  0  0  0  0  0
  -21.4250   -3.8440   26.0190 F   0  0  0  0  0  0  0  0  0  0  0  0
  -22.8770  -13.6060   21.1170 C   0  0  0  0  0  0  0  0  0  0  0  0
  -22.1580  -12.9020   21.9850 N   0  0  0  0  0  0  0  0  0  0  0  0
  -22.4340  -14.6280   20.5940 O   0  0  0  0  0  0  0  0  0  0  0  0
  -22.5410  -12.0820   22.4320 H   0  0  0  0  0  0  0  0  0  0  0  0
  -21.2140  -13.1840   22.2110 H   0  0  0  0  0  0  0  0  0  0  0  0
  -25.4880  -15.2890   20.2880 N   0  0  0  0  0  0  0  0  0  0  0  0
  -24.6870  -15.9060   20.3490 H   0  0  0  0  0  0  0  0  0  0  0  0
  -26.2990  -15.7270   19.8720 H   0  0  0  0  0  0  0  0  0  0  0  0
  -30.8150  -17.3240   18.2110 C   0  0  0  0  0  2  0  0  0  0  0  0
  -31.6880  -18.0630   17.1720 C   0  0  0  0  0  2  0  0  0  0  0  0
  -33.4050  -17.6050   15.3230 C   0  0  0  0  0  1  0  0  0  0  0  0
  -32.1290  -17.1310   16.0290 C   0  0  0  0  0  2  0  0  0  0  0  0
  -28.3860  -19.3010   18.6160 C   0  0  0  0  0  2  0  0  0  0  0  0
  -25.8760  -18.8200   18.8040 C   0  0  0  0  0  1  0  0  0  0  0  0
  -27.2600  -18.6920   19.4720 C   0  0  0  0  0  2  0  0  0  0  0  0
  -29.1770  -21.9810   19.9990 C   0  0  0  0  0  2  0  0  0  0  0  0
  -29.2490  -23.1520   21.0290 C   0  0  0  0  0  2  0  0  0  0  0  0
  -28.2490  -24.3450   20.8630 C   0  0  0  0  0  2  0  0  0  0  0  0
  -28.5120  -25.3690   19.7270 C   0  0  0  0  0  2  0  0  0  0  0  0
  -28.4440  -26.7500   20.1750 O   0  0  0  0  0  0  0  0  0  0  0  0
  -24.6080  -31.9350   23.2910 C   0  0  0  0  0  0  0  0  0  0  0  0
  -27.2500  -27.4610   20.1830 C   0  0  0  0  0  0  0  0  0  0  0  0
  -23.4090  -30.5430   21.6450 C   0  0  0  0  0  3  0  0  0  0  0  0
  -24.8610  -29.0030   20.2180 C   0  0  0  0  0  0  0  0  0  0  0  0
  -25.9440  -30.8800   21.4620 C   0  0  0  0  0  2  0  0  0  0  0  0
  -26.0220  -29.5110   20.8060 C   0  0  0  0  0  0  0  0  0  0  0  0
  -27.2180  -28.7490   20.7790 C   0  0  0  0  0  3  0  0  0  0  0  0
  -26.0580  -26.9710   19.6030 C   0  0  0  0  0  3  0  0  0  0  0  0
  -24.8730  -27.7340   19.6150 C   0  0  0  0  0  3  0  0  0  0  0  0
  -23.6260  -29.8790   20.2590 C   0  0  0  0  0  2  0  0  0  0  0  0
  -24.6750  -31.1350   22.1900 N   0  0  0  0  0  0  0  0  0  0  0  0
  -23.5240  -32.2050   23.8270 O   0  0  0  0  0  0  0  0  0  0  0  0
  -22.7560  -29.5130   22.5950 C   0  0  0  0  0  0  0  0  0  0  0  0
  -21.4370  -29.3110   22.4490 N   0  0  0  0  0  0  0  0  0  0  0  0
  -23.4340  -28.9000   23.4230 O   0  0  0  0  0  0  0  0  0  0  0  0
  -20.9490  -29.8640   21.7580 H   0  0  0  0  0  0  0  0  0  0  0  0
  -18.0690  -28.0640   22.8880 C   0  0  0  0  0  0  0  0  0  0  0  0
  -20.6180  -28.3670   23.2130 C   0  0  0  0  0  3  0  0  0  0  0  0
  -20.7540  -26.9320   22.6560 C   0  0  0  0  0  2  0  0  0  0  0  0
  -19.6820  -26.5820   21.6200 C   0  0  0  0  0  2  0  0  0  0  0  0
  -18.2830  -26.7130   22.2280 C   0  0  0  0  0  2  0  0  0  0  0  0
  -19.1680  -28.8460   23.3370 C   0  0  0  0  0  0  0  0  0  0  0  0
  -18.9150  -30.1110   23.9100 C   0  0  0  0  0  3  0  0  0  0  0  0
  -17.6010  -30.5930   24.0440 C   0  0  0  0  0  3  0  0  0  0  0  0
  -16.5180  -29.8080   23.6140 C   0  0  0  0  0  3  0  0  0  0  0  0
  -16.7530  -28.5470   23.0400 C   0  0  0  0  0  3  0  0  0  0  0  0
  -25.8890  -32.5700   23.9170 C   0  0  0  0  0  3  0  0  0  0  0  0
  -25.5810  -33.9730   24.2210 N   0  0  0  0  0  0  0  0  0  0  0  0
  -25.9210  -35.0140   23.4480 C   0  0  0  0  0  0  0  0  0  0  0  0
  -26.6050  -34.8960   22.4280 O   0  0  0  0  0  0  0  0  0  0  0  0
  -24.9800  -34.1390   25.0130 H   0  0  0  0  0  0  0  0  0  0  0  0
  -24.2070  -36.8120   23.0380 C   0  0  0  0  0  1  0  0  0  0  0  0
  -25.4260  -36.4080   23.8810 C   0  0  0  0  0  3  0  0  0  0  0  0
  -27.5480  -37.2940   24.7450 C   0  0  0  0  0  1  0  0  0  0  0  0
  -26.4610  -37.4610   23.7840 N   0  0  0  0  0  0  0  0  0  0  0  0
  -26.0520  -38.3810   23.9250 H   0  0  0  0  0  0  0  0  0  0  0  0
  -26.3820  -31.8190   25.2140 C   0  0  1  0  0  0  0  0  0  0  0  0
  -25.2750  -31.6120   26.2740 C   0  0  0  0  0  1  0  0  0  0  0  0
  -26.9590  -30.4290   24.8570 C   0  0  0  0  0  1  0  0  0  0  0  0
  -27.5240  -32.6220   25.8840 C   0  0  0  0  0  1  0  0  0  0  0  0
  1 52  1  0
  1  3  1  0
  2  3  1  0
  4 49  1  0
  4  5  1  0
  4  1  1  0
  5 45  1  0
  5  6  1  0
  7 15  1  0
  8 13  1  0
  9 10  1  0
  9  8  1  0
 11 10  1  0
 11 20  1  0
 11 12  1  0
 13  7  1  0
 13 12  1  0
 14  7  2  0
 15 16  1  0
 15  6  1  0
 17 18  2  0
 18 37  1  0
 19 18  1  0
 19 22  1  0
 20 17  1  0
 20 21  1  0
 21 19  2  0
 22 23  1  0
 23 24  2  0
 25 28  1  0
 25 24  1  0
 26 25  2  0
 27 26  1  0
 27 22  2  0
 28 29  1  0
 29 30  1  0
 30 31  2  0
 32 31  1  0
 32 36  1  0
 33 32  2  0
 34 29  2  0
 34 33  1  0
 35 34  1  0
 37 38  1  0
 38 41  1  0
 38 40  1  0
 39 37  2  0
 42 43  1  0
 42 17  1  0
 44 42  1  0
 46 45  1  0
 47 48  1  0
 48 46  1  0
 49 51  1  0
 50 51  1  0
 52 53  1  0
 54 53  1  0
 55 56  1  0
 55 54  1  0
 56 58  1  0
 57 68  2  0
 58 63  1  0
 59 67  1  0
 59 69  1  0
 60 66  1  0
 60 62  1  0
 61 67  1  0
 62 61  1  0
 63 62  2  0
 64 65  1  0
 64 58  2  0
 65 60  2  0
 66 59  1  0
 67 57  1  0
 69 71  2  0
 70 69  1  0
 72 70  1  0
 73 82  2  0
 73 78  1  0
 74 70  1  0
 74 78  1  0
 75 74  1  0
 76 77  1  0
 76 75  1  0
 77 73  1  0
 78 79  2  0
 79 80  1  0
 81 80  2  0
 82 81  1  0
 83 57  1  0
 83 84  1  0
 83 93  1  0
 84 87  1  0
 85 89  1  0
 85 84  1  0
 86 85  2  0
 89 88  1  0
 91 89  1  0
 91 92  1  0
 91 90  1  0
 93 96  1  1
 93 94  1  0
 95 93  1  0
M  ISO  4   7 100  15 100  55 101  56 101
M  END
>  <TORSDO>  (67) 
F 29

>  <SCORE>  (67) 
-10.945

>  <name>  (67) 
67

>  <ligand_id>  (67) 
67

>  <original_smiles>  (67) 
[H]c1c([H])c([H])c2c(c1[H])C([H])([H])C([H])([H])C([H])([H])C2([H])N([H])C(=O)C1([H])N(C(=O)C([H])(N([H])C(=O)C([H])(N([H])C([H])([H])[H])C([H])([H])[H])C(C([H])([H])[H])(C([H])([H])[H])C([H])([H])[H])C([H])([H])c2c([H])c(OC([H])([H])C([H])([H])C([H])([H])C([H])([H])C([H])(C([H])([H])C([H])([H])[H])C([H])(C([H])([H])C([H])([H])C([H])([H])[H])C([H])(C([H])([H])N([H])C(=O)N3C([H])([H])C([H])([H])C([H])([H])C([H])(n4nc(-c5c([H])c([H])c(Oc6c([H])c([H])c(F)c([H])c6F)c([H])c5[H])c(C(=O)N([H])[H])c4N([H])[H])C3([H])[H])C([H])([H])C([H])([H])C([H])([H])C([H])([H])[H])c([H])c([H])c2C1([H])[H]

>  <smiles>  (67) 
[H]c1c([H])c([H])c2c(c1[H])C([H])([H])C([H])([H])C([H])([H])C2([H])N([H])C(=O)C1([H])N(C(=O)C([H])(N([H])C(=O)C([H])(N([H])C([H])([H])[H])C([H])([H])[H])C(C([H])([H])[H])(C([H])([H])[H])C([H])([H])[H])C([H])([H])c2c([H])c(OC([H])([H])C([H])([H])C([H])([H])C([H])([H])C([H])(C([H])([H])C([H])([H])[H])C([H])(C([H])([H])C([H])([H])C([H])([H])[H])C([H])(C([H])([H])N([H])C(=O)N3C([H])([H])C([H])([H])C([H])([H])C([H])(n4nc(-c5c([H])c([H])c(Oc6c([H])c([H])c(F)c([H])c6F)c([H])c5[H])c(C(=O)N([H])[H])c4N([H])[H])C3([H])[H])C([H])([H])C([H])([H])C([H])([H])C([H])([H])[H])c([H])c([H])c2C1([H])[H]

$$$$
68:0:0
     RDKit          3D

 93100  0  0  1  0  0  0  0  0999 V2000
  -29.4580  -18.0940   19.5780 C   0  0  0  0  0  0  0  0  0  0  0  0
  -29.6690  -19.4220   19.7280 N   0  0  0  0  0  0  0  0  0  0  0  0
  -28.3460  -17.6480   19.2810 O   0  0  0  0  0  0  0  0  0  0  0  0
  -30.6070  -19.7290   19.9480 H   0  0  0  0  0  0  0  0  0  0  0  0
  -28.6180  -20.4520   19.6170 C   0  0  0  0  0  2  0  0  0  0  0  0
  -28.7350  -23.0040   19.4890 C   0  0  0  0  0  3  0  0  0  0  0  0
  -28.9890  -21.8460   20.1450 C   0  0  0  0  0  3  0  0  0  0  0  0
  -29.0150  -24.4360   19.9770 C   0  0  0  0  0  2  0  0  0  0  0  0
  -27.8030  -25.3880   19.7770 C   0  0  0  0  0  2  0  0  0  0  0  0
  -28.0180  -26.7770   20.1280 O   0  0  0  0  0  0  0  0  0  0  0  0
  -24.6370  -32.1140   23.4820 C   0  0  0  0  0  0  0  0  0  0  0  0
  -26.8970  -27.6030   20.1620 C   0  0  0  0  0  0  0  0  0  0  0  0
  -23.2860  -30.8160   21.8720 C   0  0  0  0  0  3  0  0  0  0  0  0
  -24.5880  -29.2550   20.3320 C   0  0  0  0  0  0  0  0  0  0  0  0
  -25.8180  -31.0500   21.5550 C   0  0  0  0  0  2  0  0  0  0  0  0
  -25.8030  -29.6930   20.8750 C   0  0  0  0  0  0  0  0  0  0  0  0
  -26.9580  -28.8760   20.7870 C   0  0  0  0  0  3  0  0  0  0  0  0
  -25.6600  -27.2010   19.6010 C   0  0  0  0  0  3  0  0  0  0  0  0
  -24.5140  -28.0110   19.6920 C   0  0  0  0  0  3  0  0  0  0  0  0
  -23.3920  -30.1710   20.4650 C   0  0  0  0  0  2  0  0  0  0  0  0
  -24.6030  -31.3400   22.3590 N   0  0  0  0  0  0  0  0  0  0  0  0
  -23.5990  -32.4210   24.0830 O   0  0  0  0  0  0  0  0  0  0  0  0
  -22.6360  -29.7980   22.8380 C   0  0  0  0  0  0  0  0  0  0  0  0
  -21.3350  -29.5280   22.6380 N   0  0  0  0  0  0  0  0  0  0  0  0
  -23.3000  -29.2550   23.7230 O   0  0  0  0  0  0  0  0  0  0  0  0
  -20.8600  -30.0230   21.8980 H   0  0  0  0  0  0  0  0  0  0  0  0
  -18.0540  -28.0300   22.8810 C   0  0  0  0  0  0  0  0  0  0  0  0
  -20.5270  -28.5760   23.4020 C   0  0  0  0  0  3  0  0  0  0  0  0
  -20.8310  -27.1200   22.9760 C   0  0  0  0  0  2  0  0  0  0  0  0
  -19.8890  -26.6010   21.8850 C   0  0  0  0  0  2  0  0  0  0  0  0
  -18.4350  -26.6550   22.3600 C   0  0  0  0  0  2  0  0  0  0  0  0
  -19.0390  -28.9370   23.3560 C   0  0  0  0  0  0  0  0  0  0  0  0
  -18.6340  -30.2150   23.7980 C   0  0  0  0  0  3  0  0  0  0  0  0
  -17.2780  -30.5900   23.7740 C   0  0  0  0  0  3  0  0  0  0  0  0
  -16.3060  -29.6820   23.3180 C   0  0  0  0  0  3  0  0  0  0  0  0
  -16.6940  -28.4050   22.8760 C   0  0  0  0  0  3  0  0  0  0  0  0
  -25.9800  -32.6690   24.0500 C   0  0  0  0  0  3  0  0  0  0  0  0
  -25.7760  -34.0920   24.3540 N   0  0  0  0  0  0  0  0  0  0  0  0
  -26.1050  -35.1000   23.5340 C   0  0  0  0  0  0  0  0  0  0  0  0
  -26.6840  -34.9260   22.4590 O   0  0  0  0  0  0  0  0  0  0  0  0
  -25.2550  -34.3050   25.1910 H   0  0  0  0  0  0  0  0  0  0  0  0
  -24.4340  -36.9630   23.2810 C   0  0  0  0  0  1  0  0  0  0  0  0
  -25.7320  -36.5290   23.9790 C   0  0  0  0  0  3  0  0  0  0  0  0
  -27.9720  -37.3470   24.5660 C   0  0  0  0  0  1  0  0  0  0  0  0
  -26.7950  -37.5220   23.7170 N   0  0  0  0  0  0  0  0  0  0  0  0
  -26.4470  -38.4670   23.8510 H   0  0  0  0  0  0  0  0  0  0  0  0
  -26.4820  -31.8950   25.3300 C   0  0  1  0  0  0  0  0  0  0  0  0
  -25.3970  -31.7210   26.4180 C   0  0  0  0  0  1  0  0  0  0  0  0
  -26.9970  -30.4870   24.9450 C   0  0  0  0  0  1  0  0  0  0  0  0
  -27.6740  -32.6470   25.9640 C   0  0  0  0  0  1  0  0  0  0  0  0
  -30.6410  -17.1100   19.8080 C   0  0  0  0  0  3  0  0  0  0  0  0
  -30.8050  -14.6600   19.1520 C   0  0  0  0  0  0  0  0  0  0  0  0
  -30.3670  -12.3980   18.2530 C   0  0  0  0  0  2  0  0  0  0  0  0
  -29.2380  -12.4800   17.2060 C   0  0  0  0  0  2  0  0  0  0  0  0
  -27.8540  -12.3820   17.8810 C   0  0  0  0  0  2  0  0  0  0  0  0
  -27.7130  -13.3360   19.0980 C   0  0  0  0  0  3  0  0  0  0  0  0
  -28.9350  -13.2160   20.0350 C   0  0  0  0  0  2  0  0  0  0  0  0
  -30.1430  -13.4740   19.2320 N   0  0  0  0  0  0  0  0  0  0  0  0
  -31.8360  -14.8050   18.4880 O   0  0  0  0  0  0  0  0  0  0  0  0
  -30.1950  -15.7020   19.7460 N   0  0  0  0  0  0  0  0  0  0  0  0
  -29.3010  -15.5140   20.1720 H   0  0  0  0  0  0  0  0  0  0  0  0
  -25.5630  -14.0390   20.3220 C   0  0  0  0  0  0  0  0  0  0  0  0
  -24.5190  -13.3120   20.8290 C   0  0  0  0  0  0  0  0  0  0  0  0
  -24.8410  -11.9410   20.5940 C   0  0  0  0  0  0  0  0  0  0  0  0
  -26.4590  -13.1120   19.8130 N   0  0  0  0  0  0  0  0  0  0  0  0
  -26.0390  -11.8400   20.0310 N   0  0  0  0  0  0  0  0  0  0  0  0
  -24.0540  -10.7220   20.8190 C   0  0  0  0  0  0  0  0  0  0  0  0
  -24.5060   -9.7010   21.6830 C   0  0  0  0  0  3  0  0  0  0  0  0
  -23.7220   -8.5460   21.8980 C   0  0  0  0  0  3  0  0  0  0  0  0
  -22.4730   -8.4050   21.2490 C   0  0  0  0  0  0  0  0  0  0  0  0
  -22.0390   -9.4150   20.3720 C   0  0  0  0  0  3  0  0  0  0  0  0
  -22.8210  -10.5610   20.1560 C   0  0  0  0  0  3  0  0  0  0  0  0
  -21.6560   -7.3080   21.3770 O   0  0  0  0  0  0  0  0  0  0  0  0
  -21.5790   -6.6010   22.5490 C   0  0  0  0  0  0  0  0  0  0  0  0
  -21.1200   -7.1910   23.7480 C   0  0  0  0  0  3  0  0  0  0  0  0
  -20.9910   -6.4100   24.9120 C   0  0  0  0  0  3  0  0  0  0  0  0
  -21.3110   -5.0400   24.8830 C   0  0  0  0  0  0  0  0  0  0  0  0
  -21.7640   -4.4490   23.6900 C   0  0  0  0  0  3  0  0  0  0  0  0
  -21.8940   -5.2270   22.5270 C   0  0  0  0  0  0  0  0  0  0  0  0
  -22.3110   -4.6480   21.3740 F   0  0  0  0  0  0  0  0  0  0  0  0
  -21.1800   -4.2870   26.0000 F   0  0  0  0  0  0  0  0  0  0  0  0
  -23.2500  -13.8610   21.4170 C   0  0  0  0  0  0  0  0  0  0  0  0
  -22.6420  -13.1340   22.3480 N   0  0  0  0  0  0  0  0  0  0  0  0
  -22.8140  -14.9620   21.0840 O   0  0  0  0  0  0  0  0  0  0  0  0
  -23.0100  -12.2390   22.6340 H   0  0  0  0  0  0  0  0  0  0  0  0
  -21.7970  -13.4780   22.7820 H   0  0  0  0  0  0  0  0  0  0  0  0
  -25.8190  -15.4040   20.2320 N   0  0  0  0  0  0  0  0  0  0  0  0
  -25.1560  -16.1040   20.5460 H   0  0  0  0  0  0  0  0  0  0  0  0
  -26.6400  -15.8090   19.7970 H   0  0  0  0  0  0  0  0  0  0  0  0
  -30.3660  -17.6430   22.3360 C   0  0  0  0  0  1  0  0  0  0  0  0
  -31.3480  -17.3440   21.1800 C   0  0  0  0  0  3  0  0  0  0  0  0
  -33.1920  -15.6660   20.4690 C   0  0  0  0  0  1  0  0  0  0  0  0
  -32.2820  -16.1810   21.5930 C   0  0  0  0  0  2  0  0  0  0  0  0
  1  2  1  0
  2  4  1  0
  3  1  2  0
  5  2  1  0
  5  7  1  0
  6  8  1  0
  6  7  2  0
  9  8  1  0
  9 10  1  0
 10 12  1  0
 11 22  2  0
 12 17  1  0
 13 21  1  0
 13 23  1  0
 14 20  1  0
 14 16  1  0
 15 21  1  0
 16 15  1  0
 17 16  2  0
 18 19  1  0
 18 12  2  0
 19 14  2  0
 20 13  1  0
 21 11  1  0
 23 25  2  0
 24 23  1  0
 26 24  1  0
 27 32  1  0
 28 24  1  0
 29 28  1  0
 30 31  1  0
 30 29  1  0
 31 27  1  0
 32 28  1  0
 32 33  2  0
 34 33  1  0
 35 34  2  0
 36 27  2  0
 36 35  1  0
 37 11  1  0
 37 38  1  0
 37 47  1  0
 38 41  1  0
 39 43  1  0
 39 38  1  0
 40 39  2  0
 43 42  1  0
 45 46  1  0
 45 43  1  0
 45 44  1  0
 47 50  1  1
 47 48  1  0
 49 47  1  0
 51  1  1  0
 51 91  1  0
 52 58  1  0
 52 60  1  0
 53 58  1  0
 54 55  1  0
 54 53  1  0
 56 55  1  0
 56 65  1  0
 56 57  1  0
 58 57  1  0
 59 52  2  0
 60 51  1  0
 60 61  1  0
 62 63  2  0
 63 82  1  0
 64 67  1  0
 64 63  1  0
 65 66  1  0
 65 62  1  0
 66 64  2  0
 67 68  1  0
 68 69  2  0
 70 73  1  0
 70 69  1  0
 71 70  2  0
 72 71  1  0
 72 67  2  0
 73 74  1  0
 74 75  1  0
 75 76  2  0
 77 76  1  0
 77 81  1  0
 78 77  2  0
 79 74  2  0
 79 78  1  0
 80 79  1  0
 82 83  1  0
 83 85  1  0
 83 86  1  0
 84 82  2  0
 87 62  1  0
 87 88  1  0
 89 87  1  0
 91 93  1  0
 91 90  1  0
 92 93  1  0
M  ISO  4   9 101  10 101  52 100  60 100
M  END
>  <TORSDO>  (68) 
F 23

>  <SCORE>  (68) 
-9.289

>  <name>  (68) 
68

>  <ligand_id>  (68) 
68

>  <original_smiles>  (68) 
[H]C(=C([H])C([H])([H])C([H])([H])Oc1c([H])c([H])c2c(c1[H])C([H])([H])N(C(=O)C([H])(N([H])C(=O)C([H])(N([H])C([H])([H])[H])C([H])([H])[H])C(C([H])([H])[H])(C([H])([H])[H])C([H])([H])[H])C([H])(C(=O)N([H])C1([H])c3c([H])c([H])c([H])c([H])c3C([H])([H])C([H])([H])C1([H])[H])C2([H])[H])C([H])([H])N([H])C(=O)C([H])(N([H])C(=O)N1C([H])([H])C([H])([H])C([H])([H])C([H])(n2nc(-c3c([H])c([H])c(Oc4c([H])c([H])c(F)c([H])c4F)c([H])c3[H])c(C(=O)N([H])[H])c2N([H])[H])C1([H])[H])C([H])(C([H])([H])[H])C([H])([H])C([H])([H])[H]

>  <smiles>  (68) 
[H]C(=C([H])C([H])([H])C([H])([H])Oc1c([H])c([H])c2c(c1[H])C([H])([H])N(C(=O)C([H])(N([H])C(=O)C([H])(N([H])C([H])([H])[H])C([H])([H])[H])C(C([H])([H])[H])(C([H])([H])[H])C([H])([H])[H])C([H])(C(=O)N([H])C1([H])c3c([H])c([H])c([H])c([H])c3C([H])([H])C([H])([H])C1([H])[H])C2([H])[H])C([H])([H])N([H])C(=O)C([H])(N([H])C(=O)N1C([H])([H])C([H])([H])C([H])([H])C([H])(n2nc(-c3c([H])c([H])c(Oc4c([H])c([H])c(F)c([H])c4F)c([H])c3[H])c(C(=O)N([H])[H])c2N([H])[H])C1([H])[H])C([H])(C([H])([H])[H])C([H])([H])C([H])([H])[H]

$$$$
69:0:0
     RDKit          3D

 84 88  0  0  1  0  0  0  0  0999 V2000
  -28.3260  -23.3620   20.3520 C   0  0  0  0  0 15  0  0  0  0  0  0
  -29.1990  -21.6740   18.2080 C   0  0  0  0  0  1  0  0  0  0  0  0
  -28.7880  -21.4190   19.6600 C   0  0  0  0  0  1  0  0  0  0  0  0
  -29.8040  -19.5920   21.5740 C   0  0  0  0  0  1  0  0  0  0  0  0
  -29.6580  -19.5410   20.0500 C   0  0  0  0  0  2  0  0  0  0  0  0
  -30.3580  -16.1810   19.6920 C   0  0  0  0  0  0  0  0  0  0  0  0
  -30.5030  -13.5470   18.8810 C   0  0  0  0  0  2  0  0  0  0  0  0
  -29.5700  -12.9360   17.7830 C   0  0  0  0  0  2  0  0  0  0  0  0
  -28.2180  -12.5070   18.3650 C   0  0  0  0  0  2  0  0  0  0  0  0
  -27.7270  -13.5400   19.3970 C   0  0  0  0  0  3  0  0  0  0  0  0
  -28.8130  -14.0220   20.3970 C   0  0  0  0  0  2  0  0  0  0  0  0
  -29.8550  -14.7610   19.6140 N   0  0  0  0  0  0  0  0  0  0  0  0
  -31.5980  -16.0360   19.5570 O   0  0  0  0  0  0  0  0  0  0  0  0
  -29.6210  -17.6560   19.7300 N   0  0  0  0  0  0  0  0  0  0  0  0
  -28.6430  -17.4220   19.6260 H   0  0  0  0  0  0  0  0  0  0  0  0
  -25.4610  -14.0480   20.4020 C   0  0  0  0  0  0  0  0  0  0  0  0
  -24.4240  -13.2680   20.8220 C   0  0  0  0  0  0  0  0  0  0  0  0
  -24.8650  -11.9150   20.6890 C   0  0  0  0  0  0  0  0  0  0  0  0
  -26.4650  -13.1780   20.0290 N   0  0  0  0  0  0  0  0  0  0  0  0
  -26.1280  -11.8810   20.2640 N   0  0  0  0  0  0  0  0  0  0  0  0
  -24.1280  -10.6570   20.8840 C   0  0  0  0  0  0  0  0  0  0  0  0
  -24.5680   -9.6750   21.7980 C   0  0  0  0  0  3  0  0  0  0  0  0
  -23.8270   -8.4880   21.9860 C   0  0  0  0  0  3  0  0  0  0  0  0
  -22.6300   -8.2750   21.2630 C   0  0  0  0  0  0  0  0  0  0  0  0
  -22.2070   -9.2460   20.3370 C   0  0  0  0  0  3  0  0  0  0  0  0
  -22.9490  -10.4240   20.1470 C   0  0  0  0  0  3  0  0  0  0  0  0
  -21.8590   -7.1420   21.3610 O   0  0  0  0  0  0  0  0  0  0  0  0
  -21.7760   -6.4260   22.5280 C   0  0  0  0  0  0  0  0  0  0  0  0
  -21.3090   -7.0060   23.7270 C   0  0  0  0  0  3  0  0  0  0  0  0
  -21.1750   -6.2180   24.8880 C   0  0  0  0  0  3  0  0  0  0  0  0
  -21.4970   -4.8480   24.8480 C   0  0  0  0  0  0  0  0  0  0  0  0
  -21.9570   -4.2660   23.6540 C   0  0  0  0  0  3  0  0  0  0  0  0
  -22.0940   -5.0520   22.4970 C   0  0  0  0  0  0  0  0  0  0  0  0
  -22.5160   -4.4820   21.3430 F   0  0  0  0  0  0  0  0  0  0  0  0
  -21.3620   -4.0880   25.9600 F   0  0  0  0  0  0  0  0  0  0  0  0
  -23.0630  -13.7560   21.2220 C   0  0  0  0  0  0  0  0  0  0  0  0
  -22.3970  -13.0430   22.1210 N   0  0  0  0  0  0  0  0  0  0  0  0
  -22.6040  -14.8060   20.7720 O   0  0  0  0  0  0  0  0  0  0  0  0
  -22.7840  -12.1940   22.5060 H   0  0  0  0  0  0  0  0  0  0  0  0
  -21.4860  -13.3510   22.4320 H   0  0  0  0  0  0  0  0  0  0  0  0
  -25.6280  -15.4240   20.2690 N   0  0  0  0  0  0  0  0  0  0  0  0
  -24.8830  -16.0810   20.4740 H   0  0  0  0  0  0  0  0  0  0  0  0
  -26.4480  -15.8640   19.8740 H   0  0  0  0  0  0  0  0  0  0  0  0
  -28.2760  -25.2540   20.1740 O   0  0  0  0  0  1  0  0  0  0  0  0
  -24.6080  -31.7770   23.1490 C   0  0  0  0  0  0  0  0  0  0  0  0
  -27.2810  -26.5450   20.2160 C   0  0  0  0  0  0  0  0  0  0  0  0
  -23.4890  -30.3580   21.4890 C   0  0  0  0  0  3  0  0  0  0  0  0
  -24.9950  -28.6940   20.1180 C   0  0  0  0  0  0  0  0  0  0  0  0
  -26.0780  -30.4810   21.4420 C   0  0  0  0  0  2  0  0  0  0  0  0
  -26.1800  -29.0240   20.7850 C   0  0  0  0  0  0  0  0  0  0  0  0
  -27.2990  -27.9910   20.7870 C   0  0  0  0  0  3  0  0  0  0  0  0
  -26.0500  -26.4910   19.4930 C   0  0  0  0  0  3  0  0  0  0  0  0
  -24.9840  -27.4570   19.4470 C   0  0  0  0  0  3  0  0  0  0  0  0
  -23.7810  -29.6520   20.1300 C   0  0  0  0  0  2  0  0  0  0  0  0
  -24.7510  -30.9110   22.0790 N   0  0  0  0  0  0  0  0  0  0  0  0
  -23.4950  -32.0620   23.6270 O   0  0  0  0  0  0  0  0  0  0  0  0
  -22.7500  -29.3820   22.4480 C   0  0  0  0  0  0  0  0  0  0  0  0
  -21.4220  -29.2130   22.2970 N   0  0  0  0  0  0  0  0  0  0  0  0
  -23.3920  -28.7720   23.3060 O   0  0  0  0  0  0  0  0  0  0  0  0
  -20.9490  -29.7550   21.5860 H   0  0  0  0  0  0  0  0  0  0  0  0
  -18.0520  -27.9010   22.7220 C   0  0  0  0  0  0  0  0  0  0  0  0
  -20.5960  -28.2580   23.0500 C   0  0  0  0  0  3  0  0  0  0  0  0
  -20.7570  -26.8250   22.4920 C   0  0  0  0  0  2  0  0  0  0  0  0
  -19.6970  -26.4610   21.4480 C   0  0  0  0  0  2  0  0  0  0  0  0
  -18.2940  -26.5590   22.0520 C   0  0  0  0  0  2  0  0  0  0  0  0
  -19.1330  -28.7060   23.1760 C   0  0  0  0  0  0  0  0  0  0  0  0
  -18.8480  -29.9560   23.7690 C   0  0  0  0  0  3  0  0  0  0  0  0
  -17.5210  -30.4040   23.9080 C   0  0  0  0  0  3  0  0  0  0  0  0
  -16.4570  -29.5990   23.4650 C   0  0  0  0  0  3  0  0  0  0  0  0
  -16.7230  -28.3480   22.8790 C   0  0  0  0  0  3  0  0  0  0  0  0
  -25.8340  -32.4620   23.8260 C   0  0  0  0  0  3  0  0  0  0  0  0
  -25.4790  -33.8660   24.1300 N   0  0  0  0  0  0  0  0  0  0  0  0
  -25.8290  -34.9320   23.3970 C   0  0  0  0  0  0  0  0  0  0  0  0
  -26.5350  -34.8390   22.3900 O   0  0  0  0  0  0  0  0  0  0  0  0
  -24.8520  -34.0100   24.9070 H   0  0  0  0  0  0  0  0  0  0  0  0
  -24.0980  -36.7260   23.0080 C   0  0  0  0  0  1  0  0  0  0  0  0
  -25.3210  -36.3220   23.8460 C   0  0  0  0  0  3  0  0  0  0  0  0
  -27.4210  -37.2370   24.7380 C   0  0  0  0  0  1  0  0  0  0  0  0
  -26.3480  -37.3850   23.7580 N   0  0  0  0  0  0  0  0  0  0  0  0
  -25.9290  -38.3030   23.8830 H   0  0  0  0  0  0  0  0  0  0  0  0
  -26.2890  -31.7360   25.1540 C   0  0  1  0  0  0  0  0  0  0  0  0
  -25.1430  -31.5190   26.1720 C   0  0  0  0  0  1  0  0  0  0  0  0
  -26.9080  -30.3550   24.8530 C   0  0  0  0  0  1  0  0  0  0  0  0
  -27.3950  -32.5650   25.8510 C   0  0  0  0  0  1  0  0  0  0  0  0
  2  3  1  0
  5  4  1  0
  6 14  1  0
  7 12  1  0
  8  9  1  0
  8  7  1  0
 10  9  1  0
 10 19  1  0
 10 11  1  0
 12  6  1  0
 12 11  1  0
 13  6  2  0
 14  5  1  0
 15 14  1  0
 16 17  2  0
 17 36  1  0
 18 17  1  0
 18 21  1  0
 19 20  1  0
 19 16  1  0
 20 18  2  0
 21 22  1  0
 22 23  2  0
 24 27  1  0
 24 23  1  0
 25 24  2  0
 26 25  1  0
 26 21  2  0
 27 28  1  0
 28 29  1  0
 29 30  2  0
 31 30  1  0
 31 35  1  0
 32 31  2  0
 33 28  2  0
 33 32  1  0
 34 33  1  0
 36 37  1  0
 37 40  1  0
 37 39  1  0
 38 36  2  0
 41 16  1  0
 41 42  1  0
 43 41  1  0
 44 46  1  0
 45 56  2  0
 46 51  1  0
 47 55  1  0
 47 57  1  0
 48 54  1  0
 48 50  1  0
 49 55  1  0
 50 51  2  0
 50 49  1  0
 52 46  2  0
 53 52  1  0
 53 48  2  0
 54 47  1  0
 55 45  1  0
 57 59  2  0
 58 57  1  0
 60 58  1  0
 61 70  2  0
 61 66  1  0
 62 58  1  0
 62 66  1  0
 63 62  1  0
 64 65  1  0
 64 63  1  0
 65 61  1  0
 66 67  2  0
 67 68  1  0
 69 68  2  0
 70 69  1  0
 71 45  1  0
 71 72  1  0
 71 81  1  0
 72 75  1  0
 73 77  1  0
 73 72  1  0
 74 73  2  0
 77 76  1  0
 79 77  1  0
 79 80  1  0
 79 78  1  0
 81 84  1  1
 81 82  1  0
 83 81  1  0
M  ISO  4   1 101   6 100  14 100  44 101
M  END
>  <TORSDO>  (69) 
F 18

>  <SCORE>  (69) 
-15.561

>  <name>  (69) 
69

>  <ligand_id>  (69) 
69

>  <original_smiles>  (69) 
[H]c1c([H])c([H])c2c(c1[H])C([H])([H])C([H])([H])C([H])([H])C2([H])N([H])C(=O)C1([H])N(C(=O)C([H])(N([H])C(=O)C([H])(N([H])C([H])([H])[H])C([H])([H])[H])C(C([H])([H])[H])(C([H])([H])[H])C([H])([H])[H])C([H])([H])c2c([H])c(OC([H])([H])C([H])(C([H])([H])[H])C([H])(N([H])C(=O)N3C([H])([H])C([H])([H])C([H])([H])C([H])(n4nc(-c5c([H])c([H])c(Oc6c([H])c([H])c(F)c([H])c6F)c([H])c5[H])c(C(=O)N([H])[H])c4N([H])[H])C3([H])[H])C([H])([H])[H])c([H])c([H])c2C1([H])[H]

>  <smiles>  (69) 
[H]c1c([H])c([H])c2c(c1[H])C([H])([H])C([H])([H])C([H])([H])C2([H])N([H])C(=O)C1([H])N(C(=O)C([H])(N([H])C(=O)C([H])(N([H])C([H])([H])[H])C([H])([H])[H])C(C([H])([H])[H])(C([H])([H])[H])C([H])([H])[H])C([H])([H])c2c([H])c(OC([H])([H])C([H])(C([H])([H])[H])C([H])(N([H])C(=O)N3C([H])([H])C([H])([H])C([H])([H])C([H])(n4nc(-c5c([H])c([H])c(Oc6c([H])c([H])c(F)c([H])c6F)c([H])c5[H])c(C(=O)N([H])[H])c4N([H])[H])C3([H])[H])C([H])([H])[H])c([H])c([H])c2C1([H])[H]

$$$$
70:0:0
     RDKit          3D

105114  0  0  1  0  0  0  0  0999 V2000
  -29.9810  -22.4710   20.2490 C   0  0  0  0  0  3  0  0  0  0  0  0
  -29.6300  -24.8850   19.7520 C   0  0  0  0  0  0  0  0  0  0  0  0
  -29.1780  -23.6890   20.1480 N   0  0  0  0  0  0  0  0  0  0  0  0
  -30.8210  -25.1960   19.7830 O   0  0  0  0  0  0  0  0  0  0  0  0
  -28.1760  -23.5540   20.1050 H   0  0  0  0  0  0  0  0  0  0  0  0
  -28.5820  -25.8430   19.1850 C   0  0  0  0  0  2  0  0  0  0  0  0
  -28.3730  -26.9040   20.1090 O   0  0  0  0  0  0  0  0  0  0  0  0
  -24.7350  -32.0110   23.3730 C   0  0  0  0  0  0  0  0  0  0  0  0
  -27.1820  -27.5960   20.1130 C   0  0  0  0  0  0  0  0  0  0  0  0
  -23.4400  -30.6590   21.7570 C   0  0  0  0  0  3  0  0  0  0  0  0
  -24.8070  -29.1270   20.2510 C   0  0  0  0  0  0  0  0  0  0  0  0
  -25.9580  -30.9830   21.4620 C   0  0  0  0  0  2  0  0  0  0  0  0
  -25.9920  -29.6200   20.8070 C   0  0  0  0  0  0  0  0  0  0  0  0
  -27.1770  -28.8580   20.7460 C   0  0  0  0  0  3  0  0  0  0  0  0
  -25.9740  -27.1120   19.5520 C   0  0  0  0  0  3  0  0  0  0  0  0
  -24.7920  -27.8710   19.6230 C   0  0  0  0  0  3  0  0  0  0  0  0
  -23.5810  -30.0010   20.3590 C   0  0  0  0  0  2  0  0  0  0  0  0
  -24.7320  -31.2300   22.2560 N   0  0  0  0  0  0  0  0  0  0  0  0
  -23.6810  -32.2940   23.9580 O   0  0  0  0  0  0  0  0  0  0  0  0
  -22.8080  -29.6320   22.7230 C   0  0  0  0  0  0  0  0  0  0  0  0
  -21.4940  -29.4010   22.5740 N   0  0  0  0  0  0  0  0  0  0  0  0
  -23.4980  -29.0440   23.5610 O   0  0  0  0  0  0  0  0  0  0  0  0
  -20.9990  -29.9320   21.8710 H   0  0  0  0  0  0  0  0  0  0  0  0
  -18.1740  -28.0320   22.9570 C   0  0  0  0  0  0  0  0  0  0  0  0
  -20.6950  -28.4520   23.3460 C   0  0  0  0  0  3  0  0  0  0  0  0
  -20.9090  -27.0070   22.8430 C   0  0  0  0  0  2  0  0  0  0  0  0
  -19.8820  -26.5760   21.7900 C   0  0  0  0  0  2  0  0  0  0  0  0
  -18.4620  -26.6680   22.3550 C   0  0  0  0  0  2  0  0  0  0  0  0
  -19.2230  -28.8770   23.4080 C   0  0  0  0  0  0  0  0  0  0  0  0
  -18.9030  -30.1500   23.9260 C   0  0  0  0  0  3  0  0  0  0  0  0
  -17.5660  -30.5820   24.0020 C   0  0  0  0  0  3  0  0  0  0  0  0
  -16.5300  -29.7350   23.5710 C   0  0  0  0  0  3  0  0  0  0  0  0
  -16.8340  -28.4640   23.0530 C   0  0  0  0  0  3  0  0  0  0  0  0
  -26.0550  -32.6070   23.9540 C   0  0  0  0  0  3  0  0  0  0  0  0
  -26.6130  -31.7950   25.1860 C   0  0  1  0  0  0  0  0  0  0  0  0
  -25.5570  -31.5200   26.2820 C   0  0  0  0  0  1  0  0  0  0  0  0
  -27.1810  -30.4320   24.7260 C   0  0  0  0  0  1  0  0  0  0  0  0
  -27.7900  -32.5650   25.8330 C   0  0  0  0  0  1  0  0  0  0  0  0
  -25.7860  -34.0020   24.3260 N   0  0  0  0  0  0  0  0  0  0  0  0
  -26.1190  -35.0640   23.5810 C   0  0  0  0  0  0  0  0  0  0  0  0
  -26.7580  -34.9700   22.5290 O   0  0  0  0  0  0  0  0  0  0  0  0
  -25.2220  -34.1500   25.1510 H   0  0  0  0  0  0  0  0  0  0  0  0
  -24.4140  -36.8910   23.3130 C   0  0  0  0  0  1  0  0  0  0  0  0
  -25.6710  -36.4500   24.0790 C   0  0  0  0  0  3  0  0  0  0  0  0
  -27.8470  -37.2740   24.8640 C   0  0  0  0  0  1  0  0  0  0  0  0
  -26.7200  -37.4880   23.9600 N   0  0  0  0  0  0  0  0  0  0  0  0
  -26.3350  -38.4110   24.1440 H   0  0  0  0  0  0  0  0  0  0  0  0
  -29.9610  -21.8180   18.8480 C   0  0  0  0  0  0  0  0  0  0  0  0
  -28.9190  -21.7790   18.1820 O   0  0  0  0  0  0  0  0  0  0  0  0
  -31.6180  -22.4230   16.2350 C   0  0  0  0  0  2  0  0  0  0  0  0
  -32.1690  -22.3020   17.6490 C   0  0  0  0  0  2  0  0  0  0  0  0
  -31.2560  -20.9710   15.9090 C   0  0  0  0  0  2  0  0  0  0  0  0
  -31.2810  -21.2320   18.2990 C   0  0  0  0  0  3  0  0  0  0  0  0
  -30.8740  -20.3280   17.1950 N   0  0  2  0  0  4  0  0  0  0  0  0
  -29.8600  -20.3420   17.2410 H   0  0  0  0  0  0  0  0  0  0  0  0
  -31.3370  -18.9240   17.3200 C   0  0  0  0  0  2  0  0  0  0  0  0
  -30.7060  -18.1150   18.4890 C   0  0  0  0  0  2  0  0  0  0  0  0
  -31.4610  -15.9330   17.3680 C   0  0  0  0  0  1  0  0  0  0  0  0
  -31.3820  -16.7370   18.6830 C   0  0  0  0  0  3  0  0  0  0  0  0
  -31.3800  -14.8340   20.2440 C   0  0  0  0  0  0  0  0  0  0  0  0
  -30.9970  -12.6290   19.3040 C   0  0  0  0  0  2  0  0  0  0  0  0
  -30.0600  -12.7390   18.0830 C   0  0  0  0  0  2  0  0  0  0  0  0
  -28.5840  -12.7110   18.5050 C   0  0  0  0  0  2  0  0  0  0  0  0
  -28.2580  -13.6460   19.7020 C   0  0  0  0  0  3  0  0  0  0  0  0
  -29.3070  -13.5150   20.8310 C   0  0  0  0  0  2  0  0  0  0  0  0
  -30.6370  -13.7010   20.2380 N   0  0  0  0  0  0  0  0  0  0  0  0
  -32.6070  -14.8310   20.1920 O   0  0  0  0  0  0  0  0  0  0  0  0
  -30.7390  -15.8940   19.7210 N   0  0  0  0  0  0  0  0  0  0  0  0
  -29.7330  -15.8580   19.7310 H   0  0  0  0  0  0  0  0  0  0  0  0
  -25.8720  -14.3190   20.3850 C   0  0  0  0  0  0  0  0  0  0  0  0
  -24.7780  -13.5730   20.7390 C   0  0  0  0  0  0  0  0  0  0  0  0
  -25.2080  -12.2120   20.7330 C   0  0  0  0  0  0  0  0  0  0  0  0
  -26.8980  -13.4100   20.1850 N   0  0  0  0  0  0  0  0  0  0  0  0
  -26.5030  -12.1410   20.4600 N   0  0  0  0  0  0  0  0  0  0  0  0
  -24.4510  -10.9660   20.9180 C   0  0  0  0  0  0  0  0  0  0  0  0
  -24.8300  -10.0100   21.8850 C   0  0  0  0  0  3  0  0  0  0  0  0
  -24.0780   -8.8290   22.0580 C   0  0  0  0  0  3  0  0  0  0  0  0
  -22.9310   -8.5960   21.2630 C   0  0  0  0  0  0  0  0  0  0  0  0
  -22.5720   -9.5380   20.2830 C   0  0  0  0  0  3  0  0  0  0  0  0
  -23.3260  -10.7120   20.1090 C   0  0  0  0  0  3  0  0  0  0  0  0
  -22.1540   -7.4660   21.3440 O   0  0  0  0  0  0  0  0  0  0  0  0
  -21.9950   -6.7850   22.5230 C   0  0  0  0  0  0  0  0  0  0  0  0
  -21.4910   -7.4130   23.6850 C   0  0  0  0  0  3  0  0  0  0  0  0
  -21.2780   -6.6600   24.8560 C   0  0  0  0  0  3  0  0  0  0  0  0
  -21.5600   -5.2810   24.8680 C   0  0  0  0  0  0  0  0  0  0  0  0
  -22.0570   -4.6530   23.7120 C   0  0  0  0  0  3  0  0  0  0  0  0
  -22.2710   -5.4030   22.5420 C   0  0  0  0  0  0  0  0  0  0  0  0
  -22.7310   -4.7890   21.4250 F   0  0  0  0  0  0  0  0  0  0  0  0
  -21.3480   -4.5560   25.9900 F   0  0  0  0  0  0  0  0  0  0  0  0
  -23.3890  -14.0820   20.9780 C   0  0  0  0  0  0  0  0  0  0  0  0
  -22.6380  -13.4200   21.8530 N   0  0  0  0  0  0  0  0  0  0  0  0
  -22.9770  -15.0990   20.4240 O   0  0  0  0  0  0  0  0  0  0  0  0
  -22.9860  -12.5920   22.3150 H   0  0  0  0  0  0  0  0  0  0  0  0
  -21.7070  -13.7460   22.0650 H   0  0  0  0  0  0  0  0  0  0  0  0
  -26.0730  -15.6810   20.1950 N   0  0  0  0  0  0  0  0  0  0  0  0
  -25.3160  -16.3510   20.2620 H   0  0  0  0  0  0  0  0  0  0  0  0
  -26.9420  -16.1010   19.8910 H   0  0  0  0  0  0  0  0  0  0  0  0
  -29.2770  -21.5020   21.2350 C   0  0  0  0  0  2  0  0  0  0  0  0
  -31.6630  -17.8770   23.4030 C   0  0  0  0  0  2  0  0  0  0  0  0
  -30.3530  -17.2750   22.8640 C   0  0  0  0  0  2  0  0  0  0  0  0
  -31.9340  -19.3630   23.1040 C   0  0  0  0  0  2  0  0  0  0  0  0
  -30.0100  -17.6320   21.4110 C   0  0  0  0  0  2  0  0  0  0  0  0
  -30.6940  -20.2620   22.9610 C   0  0  0  0  0  2  0  0  0  0  0  0
  -29.2380  -18.9540   21.2800 C   0  0  0  0  0  2  0  0  0  0  0  0
  -30.0820  -20.2140   21.5480 C   0  0  0  0  0  3  0  0  0  0  0  0
  1 98  1  0
  2  4  2  0
  2  3  1  0
  3  1  1  0
  5  3  1  0
  6  2  1  0
  6  7  1  0
  7  9  1  0
  8 19  2  0
  9 14  1  0
 10 18  1  0
 10 20  1  0
 11 17  1  0
 11 13  1  0
 12 18  1  0
 13 12  1  0
 14 13  2  0
 15 16  1  0
 15  9  2  0
 16 11  2  0
 17 10  1  0
 18  8  1  0
 20 22  2  0
 21 20  1  0
 23 21  1  0
 24 33  2  0
 24 29  1  0
 25 21  1  0
 25 29  1  0
 26 25  1  0
 27 28  1  0
 27 26  1  0
 28 24  1  0
 29 30  2  0
 30 31  1  0
 32 31  2  0
 33 32  1  0
 34  8  1  0
 34 39  1  0
 34 35  1  0
 35 38  1  1
 35 36  1  0
 37 35  1  0
 39 42  1  0
 40 44  1  0
 40 39  1  0
 41 40  2  0
 44 43  1  0
 46 44  1  0
 46 47  1  0
 46 45  1  0
 48  1  1  0
 49 48  2  0
 50 51  1  0
 51 53  1  0
 52 50  1  0
 52 54  1  0
 53 48  1  0
 54 55  1  6
 54 56  1  0
 54 53  1  0
 56 57  1  0
 57 59  1  0
 59 58  1  0
 59 68  1  0
 61 66  1  0
 62 63  1  0
 62 61  1  0
 64 63  1  0
 64 73  1  0
 64 65  1  0
 66 60  1  0
 66 65  1  0
 67 60  2  0
 68 69  1  0
 68 60  1  0
 70 71  2  0
 71 90  1  0
 72 71  1  0
 72 75  1  0
 73 70  1  0
 73 74  1  0
 74 72  2  0
 75 76  1  0
 76 77  2  0
 78 81  1  0
 78 77  1  0
 79 78  2  0
 80 79  1  0
 80 75  2  0
 81 82  1  0
 82 87  2  0
 82 83  1  0
 83 84  2  0
 84 85  1  0
 85 89  1  0
 86 85  2  0
 87 86  1  0
 88 87  1  0
 90 91  1  0
 91 94  1  0
 91 93  1  0
 92 90  2  0
 95 96  1  0
 95 70  1  0
 97 95  1  0
 98105  1  0
100 99  1  0
101 99  1  0
102100  1  0
103101  1  0
104102  1  0
104105  1  0
105103  1  0
M  ISO  4   6 101   7 101  60 100  68 100
M  END
>  <TORSDO>  (70) 
F 25

>  <SCORE>  (70) 
-9.789

>  <name>  (70) 
70

>  <ligand_id>  (70) 
70

>  <original_smiles>  (70) 
[H]c1c([H])c([H])c2c(c1[H])C([H])([H])C([H])([H])C([H])([H])C2([H])N([H])C(=O)C1([H])N(C(=O)C([H])(N([H])C(=O)C([H])(N([H])C([H])([H])[H])C([H])([H])[H])C(C([H])([H])[H])(C([H])([H])[H])C([H])([H])[H])C([H])([H])c2c([H])c(OC([H])([H])C(=O)N([H])C([H])(C(=O)C3([H])C([H])([H])C([H])([H])C([H])([H])[N+]3([H])C([H])([H])C([H])([H])C([H])(N([H])C(=O)N3C([H])([H])C([H])([H])C([H])([H])C([H])(n4nc(-c5c([H])c([H])c(Oc6c([H])c([H])c(F)c([H])c6F)c([H])c5[H])c(C(=O)N([H])[H])c4N([H])[H])C3([H])[H])C([H])([H])[H])C([H])([H])C3([H])C([H])([H])C([H])([H])C([H])([H])C([H])([H])C([H])([H])C3([H])[H])c([H])c([H])c2C1([H])[H]

>  <smiles>  (70) 
[H]c1c([H])c([H])c2c(c1[H])C([H])([H])C([H])([H])C([H])([H])C2([H])N([H])C(=O)C1([H])N(C(=O)C([H])(N([H])C(=O)C([H])(N([H])C([H])([H])[H])C([H])([H])[H])C(C([H])([H])[H])(C([H])([H])[H])C([H])([H])[H])C([H])([H])c2c([H])c(OC([H])([H])C(=O)N([H])C([H])(C(=O)C3([H])C([H])([H])C([H])([H])C([H])([H])[N+]3([H])C([H])([H])C([H])([H])C([H])(N([H])C(=O)N3C([H])([H])C([H])([H])C([H])([H])C([H])(n4nc(-c5c([H])c([H])c(Oc6c([H])c([H])c(F)c([H])c6F)c([H])c5[H])c(C(=O)N([H])[H])c4N([H])[H])C3([H])[H])C([H])([H])[H])C([H])([H])C3([H])C([H])([H])C([H])([H])C([H])([H])C([H])([H])C([H])([H])C3([H])[H])c([H])c([H])c2C1([H])[H]

$$$$
71:0:0
     RDKit          3D

 90 97  0  0  1  0  0  0  0  0999 V2000
  -29.0730  -19.7530   19.9800 C   0  0  0  0  0  0  0  0  0  0  0  0
  -29.2950  -21.1990   20.2660 N   0  0  0  0  0  0  0  0  0  0  0  0
  -27.9620  -19.4850   19.5260 O   0  0  0  0  0  0  0  0  0  0  0  0
  -30.2110  -21.3390   20.6740 H   0  0  0  0  0  0  0  0  0  0  0  0
  -28.5660  -22.6770   19.9140 C   0  0  0  0  0  2  0  0  0  0  0  0
  -28.3610  -24.2720   20.7550 C   0  0  0  0  0  2  0  0  0  0  0  0
  -28.4480  -25.8980   20.4120 O   0  0  0  0  0  0  0  0  0  0  0  0
  -24.6870  -31.8600   23.2500 C   0  0  0  0  0  0  0  0  0  0  0  0
  -27.4040  -26.9670   20.3930 C   0  0  0  0  0  0  0  0  0  0  0  0
  -23.5760  -30.4370   21.5760 C   0  0  0  0  0  3  0  0  0  0  0  0
  -25.0930  -28.8300   20.2300 C   0  0  0  0  0  0  0  0  0  0  0  0
  -26.1440  -30.6700   21.5300 C   0  0  0  0  0  2  0  0  0  0  0  0
  -26.2510  -29.2540   20.8900 C   0  0  0  0  0  0  0  0  0  0  0  0
  -27.4070  -28.3500   20.9360 C   0  0  0  0  0  3  0  0  0  0  0  0
  -26.2120  -26.6920   19.6910 C   0  0  0  0  0  3  0  0  0  0  0  0
  -25.1000  -27.5690   19.6050 C   0  0  0  0  0  3  0  0  0  0  0  0
  -23.8650  -29.7400   20.2160 C   0  0  0  0  0  2  0  0  0  0  0  0
  -24.8220  -31.0170   22.1720 N   0  0  0  0  0  0  0  0  0  0  0  0
  -23.5740  -32.1410   23.7220 O   0  0  0  0  0  0  0  0  0  0  0  0
  -22.8560  -29.4400   22.5220 C   0  0  0  0  0  0  0  0  0  0  0  0
  -21.5340  -29.2550   22.3470 N   0  0  0  0  0  0  0  0  0  0  0  0
  -23.4960  -28.8320   23.3860 O   0  0  0  0  0  0  0  0  0  0  0  0
  -21.0700  -29.8020   21.6350 H   0  0  0  0  0  0  0  0  0  0  0  0
  -18.1560  -27.9870   22.7310 C   0  0  0  0  0  0  0  0  0  0  0  0
  -20.6970  -28.3060   23.0910 C   0  0  0  0  0  3  0  0  0  0  0  0
  -20.8460  -26.8700   22.5380 C   0  0  0  0  0  2  0  0  0  0  0  0
  -19.7930  -26.5170   21.4820 C   0  0  0  0  0  2  0  0  0  0  0  0
  -18.3860  -26.6360   22.0730 C   0  0  0  0  0  2  0  0  0  0  0  0
  -19.2420  -28.7760   23.1980 C   0  0  0  0  0  0  0  0  0  0  0  0
  -18.9730  -30.0330   23.7790 C   0  0  0  0  0  3  0  0  0  0  0  0
  -17.6520  -30.5040   23.8980 C   0  0  0  0  0  3  0  0  0  0  0  0
  -16.5810  -29.7140   23.4440 C   0  0  0  0  0  3  0  0  0  0  0  0
  -16.8350  -28.4570   22.8670 C   0  0  0  0  0  3  0  0  0  0  0  0
  -25.9200  -32.5250   23.9320 C   0  0  0  0  0  3  0  0  0  0  0  0
  -25.5740  -33.9300   24.2190 N   0  0  0  0  0  0  0  0  0  0  0  0
  -25.9130  -34.9790   23.4570 C   0  0  0  0  0  0  0  0  0  0  0  0
  -26.6120  -34.8670   22.4480 O   0  0  0  0  0  0  0  0  0  0  0  0
  -24.9510  -34.0870   24.9970 H   0  0  0  0  0  0  0  0  0  0  0  0
  -24.1680  -36.7470   23.0450 C   0  0  0  0  0  1  0  0  0  0  0  0
  -25.4010  -36.3710   23.8830 C   0  0  0  0  0  3  0  0  0  0  0  0
  -27.5020  -37.3120   24.7400 C   0  0  0  0  0  1  0  0  0  0  0  0
  -26.4210  -37.4360   23.7650 N   0  0  0  0  0  0  0  0  0  0  0  0
  -26.0000  -38.3540   23.8730 H   0  0  0  0  0  0  0  0  0  0  0  0
  -26.3640  -31.7940   25.2600 C   0  0  1  0  0  0  0  0  0  0  0  0
  -25.2130  -31.5720   26.2720 C   0  0  0  0  0  1  0  0  0  0  0  0
  -26.9800  -30.4130   24.9480 C   0  0  0  0  0  1  0  0  0  0  0  0
  -27.4610  -32.6230   25.9710 C   0  0  0  0  0  1  0  0  0  0  0  0
  -30.1180  -18.3280   20.1130 C   0  0  0  0  0  0  0  0  0  0  0  0
  -30.5910  -15.3890   20.0210 C   0  0  0  0  0  0  0  0  0  0  0  0
  -30.5580  -12.9060   19.2310 C   0  0  0  0  0  2  0  0  0  0  0  0
  -29.6040  -12.6500   18.0330 C   0  0  0  0  0  2  0  0  0  0  0  0
  -28.1700  -12.3890   18.5240 C   0  0  0  0  0  2  0  0  0  0  0  0
  -27.7490  -13.3810   19.6360 C   0  0  0  0  0  3  0  0  0  0  0  0
  -28.8310  -13.5770   20.7190 C   0  0  0  0  0  2  0  0  0  0  0  0
  -30.0320  -14.0760   20.0310 N   0  0  0  0  0  0  0  0  0  0  0  0
  -31.7980  -15.3780   19.7400 O   0  0  0  0  0  0  0  0  0  0  0  0
  -29.8360  -16.6690   20.1630 N   0  0  0  0  0  4  0  0  0  0  0  0
  -28.8590  -16.4840   20.3250 H   0  0  0  0  0  0  0  0  0  0  0  0
  -25.4180  -13.9530   20.4990 C   0  0  0  0  0  0  0  0  0  0  0  0
  -24.3610  -13.1800   20.8890 C   0  0  0  0  0  0  0  0  0  0  0  0
  -24.8070  -11.8260   20.8090 C   0  0  0  0  0  0  0  0  0  0  0  0
  -26.4380  -13.0700   20.1950 N   0  0  0  0  0  0  0  0  0  0  0  0
  -26.0850  -11.7820   20.4480 N   0  0  0  0  0  0  0  0  0  0  0  0
  -24.0700  -10.5670   20.9970 C   0  0  0  0  0  0  0  0  0  0  0  0
  -24.4990   -9.5870   21.9200 C   0  0  0  0  0  3  0  0  0  0  0  0
  -23.7560   -8.3990   22.0980 C   0  0  0  0  0  3  0  0  0  0  0  0
  -22.5730   -8.1810   21.3530 C   0  0  0  0  0  0  0  0  0  0  0  0
  -22.1630   -9.1510   20.4190 C   0  0  0  0  0  3  0  0  0  0  0  0
  -22.9060  -10.3290   20.2390 C   0  0  0  0  0  3  0  0  0  0  0  0
  -21.8040   -7.0480   21.4380 O   0  0  0  0  0  0  0  0  0  0  0  0
  -21.7250   -6.3160   22.5980 C   0  0  0  0  0  0  0  0  0  0  0  0
  -21.2290   -6.8740   23.7950 C   0  0  0  0  0  3  0  0  0  0  0  0
  -21.0960   -6.0690   24.9440 C   0  0  0  0  0  3  0  0  0  0  0  0
  -21.4520   -4.7080   24.8960 C   0  0  0  0  0  0  0  0  0  0  0  0
  -21.9420   -4.1490   23.7040 C   0  0  0  0  0  3  0  0  0  0  0  0
  -22.0740   -4.9520   22.5550 C   0  0  0  0  0  0  0  0  0  0  0  0
  -22.5260   -4.4020   21.4020 F   0  0  0  0  0  0  0  0  0  0  0  0
  -21.3200   -3.9330   25.9990 F   0  0  0  0  0  0  0  0  0  0  0  0
  -22.9800  -13.6680   21.2200 C   0  0  0  0  0  0  0  0  0  0  0  0
  -22.2800  -12.9640   22.1020 N   0  0  0  0  0  0  0  0  0  0  0  0
  -22.5390  -14.7100   20.7360 O   0  0  0  0  0  0  0  0  0  0  0  0
  -22.6560  -12.1230   22.5140 H   0  0  0  0  0  0  0  0  0  0  0  0
  -21.3540  -13.2690   22.3690 H   0  0  0  0  0  0  0  0  0  0  0  0
  -25.5910  -15.3250   20.3410 N   0  0  0  0  0  0  0  0  0  0  0  0
  -24.8320  -15.9820   20.4850 H   0  0  0  0  0  0  0  0  0  0  0  0
  -26.4080  -15.7540   19.9270 H   0  0  0  0  0  0  0  0  0  0  0  0
  -30.7620  -19.0970   22.4730 C   0  0  0  0  0  1  0  0  0  0  0  0
  -31.2850  -18.6230   21.0990 C   0  0  0  0  0  3  0  0  0  0  0  0
  -33.2340  -20.3210   21.4590 C   0  0  0  0  0  1  0  0  0  0  0  0
  -32.3450  -19.5630   20.4630 C   0  0  0  0  0  2  0  0  0  0  0  0
  1 48  1  0
  1  2  1  0
  2  4  1  0
  3  1  2  0
  5  2  1  0
  5  6  1  0
  7  6  1  0
  8 19  2  0
  9  7  1  0
  9 14  1  0
 10 18  1  0
 10 20  1  0
 11 13  1  0
 12 18  1  0
 13 14  2  0
 13 12  1  0
 15  9  2  0
 16 15  1  0
 16 11  2  0
 17 11  1  0
 17 10  1  0
 18  8  1  0
 20 22  2  0
 21 20  1  0
 23 21  1  0
 24 33  2  0
 24 29  1  0
 25 21  1  0
 25 29  1  0
 26 25  1  0
 27 28  1  0
 27 26  1  0
 28 24  1  0
 29 30  2  0
 30 31  1  0
 32 31  2  0
 33 32  1  0
 34  8  1  0
 34 35  1  0
 34 44  1  0
 35 38  1  0
 36 40  1  0
 36 35  1  0
 37 36  2  0
 40 39  1  0
 42 43  1  0
 42 40  1  0
 42 41  1  0
 44 47  1  1
 44 45  1  0
 46 44  1  0
 48 57  2  0
 48 88  1  0
 49 55  1  0
 49 57  1  0
 50 55  1  0
 51 52  1  0
 51 50  1  0
 53 52  1  0
 53 62  1  0
 53 54  1  0
 55 54  1  0
 56 49  2  0
 57 58  1  0
 59 60  2  0
 60 79  1  0
 61 60  1  0
 61 64  1  0
 62 63  1  0
 62 59  1  0
 63 61  2  0
 64 65  1  0
 65 66  2  0
 67 70  1  0
 67 66  1  0
 68 67  2  0
 69 68  1  0
 69 64  2  0
 70 71  1  0
 71 72  1  0
 72 73  2  0
 74 73  1  0
 74 78  1  0
 75 74  2  0
 76 71  2  0
 76 75  1  0
 77 76  1  0
 79 80  1  0
 80 83  1  0
 80 82  1  0
 81 79  2  0
 84 85  1  0
 84 59  1  0
 86 84  1  0
 88 87  1  0
 90 88  1  0
 90 89  1  0
M  ISO  4   6 101   7 101  49 100  57 100
M  END
>  <TORSDO>  (71) 
F 21

>  <SCORE>  (71) 
-15.812

>  <name>  (71) 
71

>  <ligand_id>  (71) 
71

>  <original_smiles>  (71) 
[H]c1c([H])c([H])c2c(c1[H])C([H])([H])C([H])([H])C([H])([H])C2([H])N([H])C(=O)C1([H])N(C(=O)C([H])(N([H])C(=O)C([H])(N([H])C([H])([H])[H])C([H])([H])[H])C(C([H])([H])[H])(C([H])([H])[H])C([H])([H])[H])C([H])([H])c2c([H])c(OC([H])([H])C([H])([H])N([H])C(=O)C([H])(N([H])C(=O)N3C([H])([H])C([H])([H])C([H])([H])C([H])(n4nc(-c5c([H])c([H])c(Oc6c([H])c([H])c(F)c([H])c6F)c([H])c5[H])c(C(=O)N([H])[H])c4N([H])[H])C3([H])[H])C([H])(C([H])([H])[H])C([H])([H])C([H])([H])[H])c([H])c([H])c2C1([H])[H]

>  <smiles>  (71) 
[H]c1c([H])c([H])c2c(c1[H])C([H])([H])C([H])([H])C([H])([H])C2([H])N([H])C(=O)C1([H])N(C(=O)C([H])(N([H])C(=O)C([H])(N([H])C([H])([H])[H])C([H])([H])[H])C(C([H])([H])[H])(C([H])([H])[H])C([H])([H])[H])C([H])([H])c2c([H])c(OC([H])([H])C([H])([H])N([H])C(=O)C([H])(N([H])C(=O)N3C([H])([H])C([H])([H])C([H])([H])C([H])(n4nc(-c5c([H])c([H])c(Oc6c([H])c([H])c(F)c([H])c6F)c([H])c5[H])c(C(=O)N([H])[H])c4N([H])[H])C3([H])[H])C([H])(C([H])([H])[H])C([H])([H])C([H])([H])[H])c([H])c([H])c2C1([H])[H]

$$$$
72:0:0
     RDKit          3D

 96104  0  0  1  0  0  0  0  0999 V2000
  -31.6920  -20.8650   21.0290 C   0  0  0  0  0  2  0  0  0  0  0  0
  -29.2950  -20.8760   21.1600 C   0  0  0  0  0  2  0  0  0  0  0  0
  -31.6630  -21.8530   19.8410 C   0  0  0  0  0  2  0  0  0  0  0  0
  -29.2270  -21.8350   19.9520 C   0  0  0  0  0  2  0  0  0  0  0  0
  -30.4810  -20.0250   21.0250 N   0  0  0  0  0  0  0  0  0  0  0  0
  -30.4410  -22.6890   19.9130 N   0  0  2  0  0  4  0  0  0  0  0  0
  -30.5010  -23.1340   20.8130 H   0  0  0  0  0  0  0  0  0  0  0  0
  -30.5400  -18.9770   22.0420 C   0  0  0  0  0  2  0  0  0  0  0  0
  -31.3350  -17.7440   21.5440 C   0  0  0  0  0  2  0  0  0  0  0  0
  -30.6660  -16.9550   20.3750 C   0  0  0  0  0  3  0  0  0  0  0  0
  -31.0480  -14.4770   20.7930 C   0  0  0  0  0  0  0  0  0  0  0  0
  -30.7600  -12.2790   19.7490 C   0  0  0  0  0  2  0  0  0  0  0  0
  -29.8840  -12.4490   18.4870 C   0  0  0  0  0  2  0  0  0  0  0  0
  -28.3980  -12.3160   18.8430 C   0  0  0  0  0  2  0  0  0  0  0  0
  -28.0000  -13.2310   20.0260 C   0  0  0  0  0  3  0  0  0  0  0  0
  -28.9840  -13.0810   21.2090 C   0  0  0  0  0  2  0  0  0  0  0  0
  -30.3470  -13.3160   20.7040 N   0  0  0  0  0  0  0  0  0  0  0  0
  -32.2550  -14.5560   20.5740 O   0  0  0  0  0  0  0  0  0  0  0  0
  -30.2850  -15.5830   20.7940 N   0  0  0  0  0  0  0  0  0  0  0  0
  -29.2980  -15.4160   20.9150 H   0  0  0  0  0  0  0  0  0  0  0  0
  -25.5740  -13.8890   20.5690 C   0  0  0  0  0  0  0  0  0  0  0  0
  -24.4730  -13.1380   20.8840 C   0  0  0  0  0  0  0  0  0  0  0  0
  -24.9170  -11.7820   20.9140 C   0  0  0  0  0  0  0  0  0  0  0  0
  -26.6180  -12.9910   20.4310 N   0  0  0  0  0  0  0  0  0  0  0  0
  -26.2220  -11.7190   20.6960 N   0  0  0  0  0  0  0  0  0  0  0  0
  -24.1640  -10.5300   21.0830 C   0  0  0  0  0  0  0  0  0  0  0  0
  -24.5390   -9.5690   22.0480 C   0  0  0  0  0  3  0  0  0  0  0  0
  -23.7900   -8.3810   22.2030 C   0  0  0  0  0  3  0  0  0  0  0  0
  -22.6500   -8.1510   21.3950 C   0  0  0  0  0  0  0  0  0  0  0  0
  -22.2980   -9.1010   20.4200 C   0  0  0  0  0  3  0  0  0  0  0  0
  -23.0470  -10.2770   20.2620 C   0  0  0  0  0  3  0  0  0  0  0  0
  -21.8800   -7.0170   21.4610 O   0  0  0  0  0  0  0  0  0  0  0  0
  -21.7740   -6.2830   22.6170 C   0  0  0  0  0  0  0  0  0  0  0  0
  -21.3190   -6.8550   23.8260 C   0  0  0  0  0  3  0  0  0  0  0  0
  -21.1620   -6.0480   24.9720 C   0  0  0  0  0  3  0  0  0  0  0  0
  -21.4470   -4.6710   24.9070 C   0  0  0  0  0  0  0  0  0  0  0  0
  -21.8940   -4.0980   23.7040 C   0  0  0  0  0  3  0  0  0  0  0  0
  -22.0520   -4.9010   22.5600 C   0  0  0  0  0  0  0  0  0  0  0  0
  -22.4640   -4.3410   21.3970 F   0  0  0  0  0  0  0  0  0  0  0  0
  -21.2870   -3.8950   26.0050 F   0  0  0  0  0  0  0  0  0  0  0  0
  -23.0660  -13.6360   21.0550 C   0  0  0  0  0  0  0  0  0  0  0  0
  -22.2800  -12.9690   21.8960 N   0  0  0  0  0  0  0  0  0  0  0  0
  -22.6710  -14.6500   20.4810 O   0  0  0  0  0  0  0  0  0  0  0  0
  -22.6130  -12.1470   22.3790 H   0  0  0  0  0  0  0  0  0  0  0  0
  -21.3330  -13.2820   22.0570 H   0  0  0  0  0  0  0  0  0  0  0  0
  -25.7800  -15.2530   20.3660 N   0  0  0  0  0  0  0  0  0  0  0  0
  -25.0330  -15.9370   20.4150 H   0  0  0  0  0  0  0  0  0  0  0  0
  -26.6680  -15.6530   20.0960 H   0  0  0  0  0  0  0  0  0  0  0  0
  -31.0380  -15.9430   17.9860 C   0  0  0  0  0  1  0  0  0  0  0  0
  -31.4750  -16.9940   19.0210 C   0  0  0  0  0  3  0  0  0  0  0  0
  -30.2280  -18.8090   17.6540 C   0  0  0  0  0  1  0  0  0  0  0  0
  -31.5450  -18.3570   18.3100 C   0  0  0  0  0  2  0  0  0  0  0  0
  -30.3830  -23.7740   18.8980 C   0  0  0  0  0  2  0  0  0  0  0  0
  -29.9770  -25.1180   19.5310 C   0  0  0  0  0  2  0  0  0  0  0  0
  -28.5150  -25.5420   19.3140 C   0  0  0  0  0  2  0  0  0  0  0  0
  -28.3530  -26.7270   20.0880 O   0  0  0  0  0  0  0  0  0  0  0  0
  -24.5750  -31.8370   23.2160 C   0  0  0  0  0  0  0  0  0  0  0  0
  -27.1480  -27.3930   20.0890 C   0  0  0  0  0  0  0  0  0  0  0  0
  -23.3380  -30.4450   21.5870 C   0  0  0  0  0  3  0  0  0  0  0  0
  -24.7550  -28.8920   20.1440 C   0  0  0  0  0  0  0  0  0  0  0  0
  -25.8600  -30.7910   21.3520 C   0  0  0  0  0  2  0  0  0  0  0  0
  -25.9210  -29.4190   20.7130 C   0  0  0  0  0  0  0  0  0  0  0  0
  -27.1150  -28.6690   20.6920 C   0  0  0  0  0  3  0  0  0  0  0  0
  -25.9620  -26.8690   19.5290 C   0  0  0  0  0  3  0  0  0  0  0  0
  -24.7660  -27.6150   19.5600 C   0  0  0  0  0  3  0  0  0  0  0  0
  -23.5220  -29.7620   20.2060 C   0  0  0  0  0  2  0  0  0  0  0  0
  -24.6110  -31.0390   22.1100 N   0  0  0  0  0  0  0  0  0  0  0  0
  -23.5030  -32.1140   23.7700 O   0  0  0  0  0  0  0  0  0  0  0  0
  -22.6900  -29.4320   22.5580 C   0  0  0  0  0  0  0  0  0  0  0  0
  -21.3660  -29.2590   22.4410 N   0  0  0  0  0  0  0  0  0  0  0  0
  -23.3790  -28.8020   23.3660 O   0  0  0  0  0  0  0  0  0  0  0  0
  -20.8720  -29.8060   21.7480 H   0  0  0  0  0  0  0  0  0  0  0  0
  -17.9860  -28.0840   22.9680 C   0  0  0  0  0  0  0  0  0  0  0  0
  -20.5480  -28.3300   23.2200 C   0  0  0  0  0  3  0  0  0  0  0  0
  -20.6400  -26.8960   22.6480 C   0  0  0  0  0  2  0  0  0  0  0  0
  -19.5290  -26.5750   21.6440 C   0  0  0  0  0  2  0  0  0  0  0  0
  -18.1520  -26.7340   22.2930 C   0  0  0  0  0  2  0  0  0  0  0  0
  -19.1130  -28.8440   23.3870 C   0  0  0  0  0  0  0  0  0  0  0  0
  -18.9050  -30.1110   23.9730 C   0  0  0  0  0  3  0  0  0  0  0  0
  -17.6040  -30.6190   24.1460 C   0  0  0  0  0  3  0  0  0  0  0  0
  -16.4940  -29.8550   23.7460 C   0  0  0  0  0  3  0  0  0  0  0  0
  -16.6840  -28.5900   23.1640 C   0  0  0  0  0  3  0  0  0  0  0  0
  -25.8750  -32.4610   23.8180 C   0  0  0  0  0  3  0  0  0  0  0  0
  -25.5810  -33.8580   24.1650 N   0  0  0  0  0  0  0  0  0  0  0  0
  -25.9010  -34.9130   23.4040 C   0  0  0  0  0  0  0  0  0  0  0  0
  -26.5490  -34.8150   22.3600 O   0  0  0  0  0  0  0  0  0  0  0  0
  -25.0360  -34.0190   24.9990 H   0  0  0  0  0  0  0  0  0  0  0  0
  -24.1820  -36.7110   23.0830 C   0  0  0  0  0  1  0  0  0  0  0  0
  -25.4280  -36.2990   23.8830 C   0  0  0  0  0  3  0  0  0  0  0  0
  -27.5780  -37.1620   24.6980 C   0  0  0  0  0  1  0  0  0  0  0  0
  -26.4660  -37.3480   23.7680 N   0  0  0  0  0  0  0  0  0  0  0  0
  -26.0660  -38.2670   23.9350 H   0  0  0  0  0  0  0  0  0  0  0  0
  -26.4160  -31.6800   25.0740 C   0  0  1  0  0  0  0  0  0  0  0  0
  -25.3540  -31.4260   26.1680 C   0  0  0  0  0  1  0  0  0  0  0  0
  -26.9890  -30.3110   24.6480 C   0  0  0  0  0  1  0  0  0  0  0  0
  -27.5830  -32.4690   25.7130 C   0  0  0  0  0  1  0  0  0  0  0  0
  3  6  1  0
  3  1  1  0
  4  2  1  0
  5  1  1  0
  5  2  1  0
  5  8  1  0
  6  4  1  0
  6  7  1  1
  9  8  1  0
 10 19  1  0
 10  9  1  0
 11 19  1  0
 12 17  1  0
 13 14  1  0
 13 12  1  0
 15 14  1  0
 15 24  1  0
 15 16  1  0
 17 11  1  0
 17 16  1  0
 18 11  2  0
 19 20  1  0
 21 22  2  0
 22 23  1  0
 22 41  1  0
 23 26  1  0
 24 21  1  0
 24 25  1  0
 25 23  2  0
 26 27  1  0
 27 28  2  0
 29 32  1  0
 29 28  1  0
 30 29  2  0
 31 30  1  0
 31 26  2  0
 32 33  1  0
 33 34  1  0
 34 35  2  0
 36 35  1  0
 36 40  1  0
 37 36  2  0
 38 33  2  0
 38 37  1  0
 39 38  1  0
 41 42  1  0
 42 45  1  0
 42 44  1  0
 43 41  2  0
 46 47  1  0
 46 21  1  0
 48 46  1  0
 50 49  1  0
 50 10  1  0
 51 52  1  0
 52 50  1  0
 53 54  1  0
 53  6  1  0
 55 54  1  0
 55 56  1  0
 56 58  1  0
 57 68  2  0
 58 63  1  0
 59 67  1  0
 59 69  1  0
 60 66  1  0
 60 62  1  0
 61 67  1  0
 62 61  1  0
 63 62  2  0
 64 65  1  0
 64 58  2  0
 65 60  2  0
 66 59  1  0
 67 57  1  0
 69 71  2  0
 70 69  1  0
 72 70  1  0
 73 82  2  0
 73 78  1  0
 74 70  1  0
 74 78  1  0
 75 74  1  0
 76 77  1  0
 76 75  1  0
 77 73  1  0
 78 79  2  0
 79 80  1  0
 81 80  2  0
 82 81  1  0
 83 57  1  0
 83 84  1  0
 83 93  1  0
 84 87  1  0
 85 89  1  0
 85 84  1  0
 86 85  2  0
 89 88  1  0
 91 89  1  0
 91 92  1  0
 91 90  1  0
 93 96  1  1
 93 94  1  0
 95 93  1  0
M  ISO  4  11 100  19 100  55 101  56 101
M  END
>  <TORSDO>  (72) 
F 24

>  <SCORE>  (72) 
-12.065

>  <name>  (72) 
72

>  <ligand_id>  (72) 
72

>  <original_smiles>  (72) 
[H]c1c([H])c([H])c2c(c1[H])C([H])([H])C([H])([H])C([H])([H])C2([H])N([H])C(=O)C1([H])N(C(=O)C([H])(N([H])C(=O)C([H])(N([H])C([H])([H])[H])C([H])([H])[H])C(C([H])([H])[H])(C([H])([H])[H])C([H])([H])[H])C([H])([H])c2c([H])c(OC([H])([H])C([H])([H])C([H])([H])[N+]3([H])C([H])([H])C([H])([H])N(C([H])([H])C([H])([H])C([H])(N([H])C(=O)N4C([H])([H])C([H])([H])C([H])([H])C([H])(n5nc(-c6c([H])c([H])c(Oc7c([H])c([H])c(F)c([H])c7F)c([H])c6[H])c(C(=O)N([H])[H])c5N([H])[H])C4([H])[H])C([H])(C([H])([H])[H])C([H])([H])C([H])([H])[H])C([H])([H])C3([H])[H])c([H])c([H])c2C1([H])[H]

>  <smiles>  (72) 
[H]c1c([H])c([H])c2c(c1[H])C([H])([H])C([H])([H])C([H])([H])C2([H])N([H])C(=O)C1([H])N(C(=O)C([H])(N([H])C(=O)C([H])(N([H])C([H])([H])[H])C([H])([H])[H])C(C([H])([H])[H])(C([H])([H])[H])C([H])([H])[H])C([H])([H])c2c([H])c(OC([H])([H])C([H])([H])C([H])([H])[N+]3([H])C([H])([H])C([H])([H])N(C([H])([H])C([H])([H])C([H])(N([H])C(=O)N4C([H])([H])C([H])([H])C([H])([H])C([H])(n5nc(-c6c([H])c([H])c(Oc7c([H])c([H])c(F)c([H])c7F)c([H])c6[H])c(C(=O)N([H])[H])c5N([H])[H])C4([H])[H])C([H])(C([H])([H])[H])C([H])([H])C([H])([H])[H])C([H])([H])C3([H])[H])c([H])c([H])c2C1([H])[H]

$$$$
73:0:0
     RDKit          3D

 99106  0  0  1  0  0  0  0  0999 V2000
  -32.0530  -21.5150   22.3320 C   0  0  0  0  0  2  0  0  0  0  0  0
  -33.5800  -21.4140   22.4970 C   0  0  0  0  0  2  0  0  0  0  0  0
  -34.1750  -20.0030   22.2550 C   0  0  0  0  0  3  0  0  0  0  0  0
  -35.6600  -20.1190   21.8250 C   0  0  0  0  0  2  0  0  0  0  0  0
  -36.4190  -18.8860   22.1030 N   0  0  0  0  0  4  0  0  0  0  0  0
  -36.4340  -18.6920   23.0880 H   0  0  0  0  0  0  0  0  0  0  0  0
  -37.3690  -18.9900   21.7940 H   0  0  0  0  0  0  0  0  0  0  0  0
  -36.0180  -18.1010   21.6240 H   0  0  0  0  0  0  0  0  0  0  0  0
  -33.3810  -19.1530   21.2270 C   0  0  0  0  0  2  0  0  0  0  0  0
  -32.0220  -18.6320   21.7330 C   0  0  0  0  0  2  0  0  0  0  0  0
  -31.7850  -17.1450   21.4310 C   0  0  0  0  0  2  0  0  0  0  0  0
  -30.2870  -16.8360   21.2730 C   0  0  0  0  0  2  0  0  0  0  0  0
  -30.6550  -14.4310   20.7020 C   0  0  0  0  0  0  0  0  0  0  0  0
  -30.5060  -12.1040   19.8990 C   0  0  0  0  0  2  0  0  0  0  0  0
  -29.6430  -12.0470   18.6220 C   0  0  0  0  0  2  0  0  0  0  0  0
  -28.1480  -11.9180   18.9750 C   0  0  0  0  0  2  0  0  0  0  0  0
  -27.6940  -12.9610   20.0290 C   0  0  0  0  0  3  0  0  0  0  0  0
  -28.6680  -12.9740   21.2290 C   0  0  0  0  0  2  0  0  0  0  0  0
  -30.0290  -13.2270   20.7180 N   0  0  0  0  0  0  0  0  0  0  0  0
  -31.7260  -14.6380   20.1220 O   0  0  0  0  0  0  0  0  0  0  0  0
  -29.9940  -15.4090   21.3280 N   0  0  0  0  0  0  0  0  0  0  0  0
  -29.1310  -15.1390   21.7780 H   0  0  0  0  0  0  0  0  0  0  0  0
  -25.3110  -13.6340   20.7430 C   0  0  0  0  0  0  0  0  0  0  0  0
  -24.1970  -12.8900   21.0240 C   0  0  0  0  0  0  0  0  0  0  0  0
  -24.5890  -11.5240   20.8800 C   0  0  0  0  0  0  0  0  0  0  0  0
  -26.3160  -12.7230   20.4550 N   0  0  0  0  0  0  0  0  0  0  0  0
  -25.8810  -11.4430   20.5900 N   0  0  0  0  0  0  0  0  0  0  0  0
  -23.7980  -10.2890   20.9460 C   0  0  0  0  0  0  0  0  0  0  0  0
  -24.0750   -9.2850   21.9000 C   0  0  0  0  0  3  0  0  0  0  0  0
  -23.2880   -8.1150   21.9540 C   0  0  0  0  0  3  0  0  0  0  0  0
  -22.2110   -7.9410   21.0540 C   0  0  0  0  0  0  0  0  0  0  0  0
  -21.9530   -8.9340   20.0940 C   0  0  0  0  0  3  0  0  0  0  0  0
  -22.7400  -10.0960   20.0360 C   0  0  0  0  0  3  0  0  0  0  0  0
  -21.4080   -6.8250   21.0180 O   0  0  0  0  0  0  0  0  0  0  0  0
  -21.0890   -6.1300   22.1570 C   0  0  0  0  0  0  0  0  0  0  0  0
  -20.4410   -6.7480   23.2480 C   0  0  0  0  0  3  0  0  0  0  0  0
  -20.0680   -5.9820   24.3710 C   0  0  0  0  0  3  0  0  0  0  0  0
  -20.3330   -4.5990   24.4010 C   0  0  0  0  0  0  0  0  0  0  0  0
  -20.9730   -3.9820   23.3110 C   0  0  0  0  0  3  0  0  0  0  0  0
  -21.3470   -4.7450   22.1910 C   0  0  0  0  0  0  0  0  0  0  0  0
  -21.9450   -4.1420   21.1360 F   0  0  0  0  0  0  0  0  0  0  0  0
  -19.9680   -3.8610   25.4740 F   0  0  0  0  0  0  0  0  0  0  0  0
  -22.8210  -13.4130   21.3190 C   0  0  0  0  0  0  0  0  0  0  0  0
  -22.0480  -12.6880   22.1220 N   0  0  0  0  0  0  0  0  0  0  0  0
  -22.4390  -14.4960   20.8760 O   0  0  0  0  0  0  0  0  0  0  0  0
  -22.3680  -11.8090   22.4990 H   0  0  0  0  0  0  0  0  0  0  0  0
  -21.1240  -13.0170   22.3620 H   0  0  0  0  0  0  0  0  0  0  0  0
  -25.5510  -15.0050   20.6910 N   0  0  0  0  0  0  0  0  0  0  0  0
  -24.8200  -15.6900   20.8480 H   0  0  0  0  0  0  0  0  0  0  0  0
  -26.4370  -15.4230   20.4330 H   0  0  0  0  0  0  0  0  0  0  0  0
  -31.4880  -22.9260   22.5950 C   0  0  0  0  0  2  0  0  0  0  0  0
  -30.1510  -23.0800   21.9840 N   0  0  0  0  0  4  0  0  0  0  0  0
  -29.5240  -22.4320   22.4330 H   0  0  0  0  0  0  0  0  0  0  0  0
  -30.2040  -22.8290   21.0090 H   0  0  0  0  0  0  0  0  0  0  0  0
  -29.5570  -24.4300   22.1110 C   0  0  0  0  0  2  0  0  0  0  0  0
  -27.1300  -23.7240   21.6620 C   0  0  0  0  0  1  0  0  0  0  0  0
  -28.3160  -24.6040   21.2060 C   0  0  0  0  0  3  0  0  0  0  0  0
  -27.8770  -26.0830   21.1040 C   0  0  0  0  0  2  0  0  0  0  0  0
  -26.8980  -26.1470   20.0750 O   0  0  0  0  0  0  0  0  0  0  0  0
  -24.0610  -31.8910   23.2740 C   0  0  0  0  0  0  0  0  0  0  0  0
  -25.8670  -27.0390   20.2270 C   0  0  0  0  0  0  0  0  0  0  0  0
  -22.5510  -30.5850   21.8080 C   0  0  0  0  0  3  0  0  0  0  0  0
  -23.6770  -28.8110   20.3640 C   0  0  0  0  0  0  0  0  0  0  0  0
  -25.0740  -30.6110   21.3960 C   0  0  0  0  0  2  0  0  0  0  0  0
  -24.9360  -29.2120   20.8360 C   0  0  0  0  0  0  0  0  0  0  0  0
  -26.0350  -28.3290   20.7790 C   0  0  0  0  0  3  0  0  0  0  0  0
  -24.6010  -26.6500   19.7480 C   0  0  0  0  0  3  0  0  0  0  0  0
  -23.5000  -27.5240   19.8260 C   0  0  0  0  0  3  0  0  0  0  0  0
  -22.5570  -29.8240   20.4560 C   0  0  0  0  0  2  0  0  0  0  0  0
  -23.9190  -31.0450   22.2160 N   0  0  0  0  0  0  0  0  0  0  0  0
  -23.0730  -32.3240   23.8840 O   0  0  0  0  0  0  0  0  0  0  0  0
  -21.8650  -29.6980   22.8710 C   0  0  0  0  0  0  0  0  0  0  0  0
  -20.5480  -29.4870   22.7120 N   0  0  0  0  0  0  0  0  0  0  0  0
  -22.5140  -29.1930   23.7900 O   0  0  0  0  0  0  0  0  0  0  0  0
  -20.0860  -29.9430   21.9370 H   0  0  0  0  0  0  0  0  0  0  0  0
  -17.1990  -28.1940   23.1170 C   0  0  0  0  0  0  0  0  0  0  0  0
  -19.7020  -28.6560   23.5670 C   0  0  0  0  0  3  0  0  0  0  0  0
  -19.9270  -27.1520   23.2810 C   0  0  0  0  0  2  0  0  0  0  0  0
  -18.9480  -26.5830   22.2470 C   0  0  0  0  0  2  0  0  0  0  0  0
  -17.5030  -26.7570   22.7250 C   0  0  0  0  0  2  0  0  0  0  0  0
  -18.2340  -29.0890   23.4960 C   0  0  0  0  0  0  0  0  0  0  0  0
  -17.9040  -30.4230   23.8160 C   0  0  0  0  0  3  0  0  0  0  0  0
  -16.5700  -30.8660   23.7640 C   0  0  0  0  0  3  0  0  0  0  0  0
  -15.5470  -29.9740   23.4020 C   0  0  0  0  0  3  0  0  0  0  0  0
  -15.8620  -28.6400   23.0850 C   0  0  0  0  0  3  0  0  0  0  0  0
  -25.4660  -32.3740   23.7520 C   0  0  0  0  0  3  0  0  0  0  0  0
  -25.3440  -33.7890   24.1230 N   0  0  0  0  0  0  0  0  0  0  0  0
  -25.8160  -34.8080   23.3920 C   0  0  0  0  0  0  0  0  0  0  0  0
  -26.4710  -34.6460   22.3590 O   0  0  0  0  0  0  0  0  0  0  0  0
  -24.7740  -34.0020   24.9280 H   0  0  0  0  0  0  0  0  0  0  0  0
  -24.3690  -36.8340   23.0550 C   0  0  0  0  0  1  0  0  0  0  0  0
  -25.5120  -36.2350   23.8880 C   0  0  0  0  0  3  0  0  0  0  0  0
  -27.7170  -36.7790   24.8200 C   0  0  0  0  0  1  0  0  0  0  0  0
  -26.6860  -37.1330   23.8470 N   0  0  0  0  0  0  0  0  0  0  0  0
  -26.4070  -38.0960   24.0190 H   0  0  0  0  0  0  0  0  0  0  0  0
  -26.0400  -31.5270   24.9530 C   0  0  1  0  0  0  0  0  0  0  0  0
  -25.0390  -31.3480   26.1180 C   0  0  0  0  0  1  0  0  0  0  0  0
  -26.4700  -30.1220   24.4750 C   0  0  0  0  0  1  0  0  0  0  0  0
  -27.3080  -32.2120   25.5160 C   0  0  0  0  0  1  0  0  0  0  0  0
  1  2  1  0
  1 51  1  0
  3  9  1  0
  3  2  1  0
  4  5  1  0
  4  3  1  0
  5  6  1  0
  7  5  1  0
  8  5  1  0
  9 10  1  0
 11 10  1  0
 12 21  1  0
 12 11  1  0
 13 19  1  0
 13 21  1  0
 14 19  1  0
 15 16  1  0
 15 14  1  0
 17 16  1  0
 17 26  1  0
 17 18  1  0
 19 18  1  0
 20 13  2  0
 21 22  1  0
 23 24  2  0
 24 43  1  0
 25 28  1  0
 25 24  1  0
 26 27  1  0
 26 23  1  0
 27 25  2  0
 28 29  1  0
 29 30  2  0
 31 30  1  0
 32 31  2  0
 33 32  1  0
 33 28  2  0
 34 31  1  0
 34 35  1  0
 35 40  2  0
 35 36  1  0
 36 37  2  0
 37 38  1  0
 38 42  1  0
 39 38  2  0
 40 39  1  0
 41 40  1  0
 43 44  1  0
 44 47  1  0
 44 46  1  0
 45 43  2  0
 48 23  1  0
 48 49  1  0
 50 48  1  0
 52 55  1  0
 52 53  1  0
 52 51  1  0
 54 52  1  0
 57 56  1  0
 57 55  1  0
 58 57  1  0
 59 61  1  0
 59 58  1  0
 60 71  2  0
 61 66  1  0
 62 70  1  0
 62 72  1  0
 63 69  1  0
 63 65  1  0
 64 70  1  0
 65 64  1  0
 66 65  2  0
 67 68  1  0
 67 61  2  0
 68 63  2  0
 69 62  1  0
 70 60  1  0
 72 74  2  0
 73 72  1  0
 75 73  1  0
 76 81  1  0
 77 73  1  0
 78 77  1  0
 79 80  1  0
 79 78  1  0
 80 76  1  0
 81 77  1  0
 81 82  2  0
 83 82  1  0
 84 83  2  0
 85 76  2  0
 85 84  1  0
 86 60  1  0
 86 87  1  0
 86 96  1  0
 87 90  1  0
 88 92  1  0
 88 87  1  0
 89 88  2  0
 92 91  1  0
 94 92  1  0
 94 95  1  0
 94 93  1  0
 96 99  1  1
 96 97  1  0
 98 96  1  0
M  ISO  4  13 100  21 100  58 101  59 101
M  END
>  <TORSDO>  (73) 
F 29

>  <SCORE>  (73) 
-7.533

>  <name>  (73) 
73

>  <ligand_id>  (73) 
73

>  <original_smiles>  (73) 
[H]c1c([H])c([H])c2c(c1[H])C([H])([H])C([H])([H])C([H])([H])C2([H])N([H])C(=O)C1([H])N(C(=O)C([H])(N([H])C(=O)C([H])(N([H])C([H])([H])[H])C([H])([H])[H])C(C([H])([H])[H])(C([H])([H])[H])C([H])([H])[H])C([H])([H])c2c([H])c(OC([H])([H])C([H])(C([H])([H])[H])C([H])([H])[N+]([H])([H])C([H])([H])C([H])([H])C([H])([H])C([H])(C([H])([H])C([H])([H])C([H])([H])C([H])([H])N([H])C(=O)N3C([H])([H])C([H])([H])C([H])([H])C([H])(n4nc(-c5c([H])c([H])c(Oc6c([H])c([H])c(F)c([H])c6F)c([H])c5[H])c(C(=O)N([H])[H])c4N([H])[H])C3([H])[H])C([H])([H])[N+]([H])([H])[H])c([H])c([H])c2C1([H])[H]

>  <smiles>  (73) 
[H]c1c([H])c([H])c2c(c1[H])C([H])([H])C([H])([H])C([H])([H])C2([H])N([H])C(=O)C1([H])N(C(=O)C([H])(N([H])C(=O)C([H])(N([H])C([H])([H])[H])C([H])([H])[H])C(C([H])([H])[H])(C([H])([H])[H])C([H])([H])[H])C([H])([H])c2c([H])c(OC([H])([H])C([H])(C([H])([H])[H])C([H])([H])[N+]([H])([H])C([H])([H])C([H])([H])C([H])([H])C([H])(C([H])([H])C([H])([H])C([H])([H])C([H])([H])N([H])C(=O)N3C([H])([H])C([H])([H])C([H])([H])C([H])(n4nc(-c5c([H])c([H])c(Oc6c([H])c([H])c(F)c([H])c6F)c([H])c5[H])c(C(=O)N([H])[H])c4N([H])[H])C3([H])[H])C([H])([H])[N+]([H])([H])[H])c([H])c([H])c2C1([H])[H]

$$$$
74:0:0
     RDKit          3D

 91 98  0  0  1  0  0  0  0  0999 V2000
  -28.1000  -24.2780   19.1530 C   0  0  0  0  0  3  0  0  0  0  0  0
  -26.1000  -23.1620   17.9610 C   0  0  0  0  0  1  0  0  0  0  0  0
  -28.3970  -22.7560   17.0330 C   0  0  0  0  0  1  0  0  0  0  0  0
  -27.2840  -24.9090   16.6960 C   0  0  0  0  0  1  0  0  0  0  0  0
  -27.4980  -23.7910   17.7500 C   0  0  2  0  0  0  0  0  0  0  0  0
  -29.1150  -23.2450   19.8030 C   0  0  0  0  0  2  0  0  0  0  0  0
  -28.5850  -21.8440   20.2900 C   0  0  0  0  0  2  0  0  0  0  0  0
  -29.5570  -20.6190   20.1450 C   0  0  0  0  0  2  0  0  0  0  0  0
  -29.0180  -19.2900   20.7700 C   0  0  0  0  0  2  0  0  0  0  0  0
  -29.5540  -17.9300   20.2010 C   0  0  0  0  0  2  0  0  0  0  0  0
  -30.2410  -16.9550   21.2140 C   0  0  0  0  0  2  0  0  0  0  0  0
  -30.6540  -14.5300   20.4950 C   0  0  0  0  0  0  0  0  0  0  0  0
  -30.4000  -12.3640   19.3290 C   0  0  0  0  0  2  0  0  0  0  0  0
  -29.4690  -12.5650   18.1160 C   0  0  0  0  0  2  0  0  0  0  0  0
  -27.9890  -12.4270   18.5240 C   0  0  0  0  0  2  0  0  0  0  0  0
  -27.6390  -13.2560   19.7870 C   0  0  0  0  0  3  0  0  0  0  0  0
  -28.6780  -13.0200   20.9070 C   0  0  0  0  0  2  0  0  0  0  0  0
  -30.0070  -13.3400   20.3580 N   0  0  0  0  0  0  0  0  0  0  0  0
  -31.7940  -14.7270   20.0630 O   0  0  0  0  0  0  0  0  0  0  0  0
  -29.9030  -15.5300   21.0040 N   0  0  0  0  0  0  0  0  0  0  0  0
  -28.9820  -15.2490   21.3060 H   0  0  0  0  0  0  0  0  0  0  0  0
  -25.2310  -13.8850   20.4400 C   0  0  0  0  0  0  0  0  0  0  0  0
  -24.1530  -13.1230   20.8040 C   0  0  0  0  0  0  0  0  0  0  0  0
  -24.6090  -11.7690   20.8040 C   0  0  0  0  0  0  0  0  0  0  0  0
  -26.2760  -12.9960   20.2440 N   0  0  0  0  0  0  0  0  0  0  0  0
  -25.9050  -11.7190   20.5200 N   0  0  0  0  0  0  0  0  0  0  0  0
  -23.8760  -10.5130   21.0030 C   0  0  0  0  0  0  0  0  0  0  0  0
  -24.2960   -9.5580   21.9570 C   0  0  0  0  0  3  0  0  0  0  0  0
  -23.5680   -8.3650   22.1430 C   0  0  0  0  0  3  0  0  0  0  0  0
  -22.4060   -8.1150   21.3750 C   0  0  0  0  0  0  0  0  0  0  0  0
  -22.0040   -9.0580   20.4120 C   0  0  0  0  0  3  0  0  0  0  0  0
  -22.7340  -10.2450   20.2230 C   0  0  0  0  0  3  0  0  0  0  0  0
  -21.6490   -6.9730   21.4690 O   0  0  0  0  0  0  0  0  0  0  0  0
  -21.5900   -6.2420   22.6290 C   0  0  0  0  0  0  0  0  0  0  0  0
  -21.1610   -6.8120   23.8470 C   0  0  0  0  0  3  0  0  0  0  0  0
  -21.0500   -6.0070   24.9990 C   0  0  0  0  0  3  0  0  0  0  0  0
  -21.3560   -4.6340   24.9320 C   0  0  0  0  0  0  0  0  0  0  0  0
  -21.7770   -4.0640   23.7180 C   0  0  0  0  0  3  0  0  0  0  0  0
  -21.8910   -4.8660   22.5690 C   0  0  0  0  0  0  0  0  0  0  0  0
  -22.2760   -4.3070   21.3960 F   0  0  0  0  0  0  0  0  0  0  0  0
  -21.2400   -3.8590   26.0360 F   0  0  0  0  0  0  0  0  0  0  0  0
  -22.7530  -13.6070   21.0420 C   0  0  0  0  0  0  0  0  0  0  0  0
  -22.0080  -12.9270   21.9070 N   0  0  0  0  0  0  0  0  0  0  0  0
  -22.3250  -14.6220   20.4950 O   0  0  0  0  0  0  0  0  0  0  0  0
  -22.3650  -12.1050   22.3700 H   0  0  0  0  0  0  0  0  0  0  0  0
  -21.0650  -13.2300   22.1050 H   0  0  0  0  0  0  0  0  0  0  0  0
  -25.4060  -15.2510   20.2400 N   0  0  0  0  0  0  0  0  0  0  0  0
  -24.6420  -15.9130   20.3240 H   0  0  0  0  0  0  0  0  0  0  0  0
  -26.2590  -15.6730   19.8970 H   0  0  0  0  0  0  0  0  0  0  0  0
  -28.7070  -25.7500   19.1420 C   0  0  0  0  0  2  0  0  0  0  0  0
  -28.3960  -26.6650   20.2200 O   0  0  0  0  0  0  0  0  0  0  0  0
  -24.5990  -31.9030   23.2740 C   0  0  0  0  0  0  0  0  0  0  0  0
  -27.2340  -27.4260   20.1800 C   0  0  0  0  0  0  0  0  0  0  0  0
  -23.3900  -30.5030   21.6330 C   0  0  0  0  0  3  0  0  0  0  0  0
  -24.8420  -28.9630   20.2050 C   0  0  0  0  0  0  0  0  0  0  0  0
  -25.9210  -30.8460   21.4400 C   0  0  0  0  0  2  0  0  0  0  0  0
  -26.0020  -29.4730   20.8000 C   0  0  0  0  0  0  0  0  0  0  0  0
  -27.1950  -28.7050   20.7970 C   0  0  0  0  0  3  0  0  0  0  0  0
  -26.0460  -26.9420   19.5890 C   0  0  0  0  0  3  0  0  0  0  0  0
  -24.8580  -27.6950   19.6030 C   0  0  0  0  0  3  0  0  0  0  0  0
  -23.5990  -29.8270   20.2510 C   0  0  0  0  0  2  0  0  0  0  0  0
  -24.6550  -31.1010   22.1720 N   0  0  0  0  0  0  0  0  0  0  0  0
  -23.5200  -32.1770   23.8150 O   0  0  0  0  0  0  0  0  0  0  0  0
  -22.7360  -29.4830   22.5930 C   0  0  0  0  0  0  0  0  0  0  0  0
  -21.4130  -29.2990   22.4660 N   0  0  0  0  0  0  0  0  0  0  0  0
  -23.4200  -28.8590   23.4090 O   0  0  0  0  0  0  0  0  0  0  0  0
  -20.9230  -29.8500   21.7740 H   0  0  0  0  0  0  0  0  0  0  0  0
  -18.0420  -28.0960   22.9590 C   0  0  0  0  0  0  0  0  0  0  0  0
  -20.5970  -28.3640   23.2400 C   0  0  0  0  0  3  0  0  0  0  0  0
  -20.7060  -26.9300   22.6680 C   0  0  0  0  0  2  0  0  0  0  0  0
  -19.6080  -26.6000   21.6530 C   0  0  0  0  0  2  0  0  0  0  0  0
  -18.2240  -26.7450   22.2900 C   0  0  0  0  0  2  0  0  0  0  0  0
  -19.1560  -28.8640   23.3910 C   0  0  0  0  0  0  0  0  0  0  0  0
  -18.9310  -30.1290   23.9750 C   0  0  0  0  0  3  0  0  0  0  0  0
  -17.6240  -30.6270   24.1340 C   0  0  0  0  0  3  0  0  0  0  0  0
  -16.5240  -29.8560   23.7190 C   0  0  0  0  0  3  0  0  0  0  0  0
  -16.7340  -28.5930   23.1380 C   0  0  0  0  0  3  0  0  0  0  0  0
  -25.8870  -32.5340   23.8890 C   0  0  0  0  0  3  0  0  0  0  0  0
  -25.5820  -33.9350   24.2110 N   0  0  0  0  0  0  0  0  0  0  0  0
  -25.9120  -34.9830   23.4430 C   0  0  0  0  0  0  0  0  0  0  0  0
  -26.5790  -34.8730   22.4110 O   0  0  0  0  0  0  0  0  0  0  0  0
  -24.9960  -34.0960   25.0170 H   0  0  0  0  0  0  0  0  0  0  0  0
  -24.1850  -36.7750   23.0820 C   0  0  0  0  0  1  0  0  0  0  0  0
  -25.4270  -36.3740   23.8940 C   0  0  0  0  0  3  0  0  0  0  0  0
  -27.5620  -37.2610   24.7180 C   0  0  0  0  0  1  0  0  0  0  0  0
  -26.4590  -37.4240   23.7750 N   0  0  0  0  0  0  0  0  0  0  0  0
  -26.0520  -38.3450   23.9190 H   0  0  0  0  0  0  0  0  0  0  0  0
  -26.4060  -31.7710   25.1690 C   0  0  1  0  0  0  0  0  0  0  0  0
  -25.3160  -31.5390   26.2390 C   0  0  0  0  0  1  0  0  0  0  0  0
  -26.9860  -30.3890   24.7830 C   0  0  0  0  0  1  0  0  0  0  0  0
  -27.5570  -32.5670   25.8260 C   0  0  0  0  0  1  0  0  0  0  0  0
  1 50  1  0
  1  6  1  0
  5  3  1  6
  4  5  1  0
  5  2  1  0
  5  1  1  0
  6  7  1  0
  8  7  1  0
  8  9  1  0
 10  9  1  0
 10 11  1  0
 12 20  1  0
 13 18  1  0
 14 15  1  0
 14 13  1  0
 16 15  1  0
 16 25  1  0
 16 17  1  0
 18 12  1  0
 18 17  1  0
 19 12  2  0
 20 11  1  0
 20 21  1  0
 22 23  2  0
 23 42  1  0
 24 23  1  0
 24 27  1  0
 25 22  1  0
 25 26  1  0
 26 24  2  0
 27 28  1  0
 28 29  2  0
 30 33  1  0
 30 29  1  0
 31 30  2  0
 32 31  1  0
 32 27  2  0
 33 34  1  0
 34 35  1  0
 35 36  2  0
 37 36  1  0
 37 41  1  0
 38 37  2  0
 39 34  2  0
 39 38  1  0
 40 39  1  0
 42 43  1  0
 43 46  1  0
 43 45  1  0
 44 42  2  0
 47 48  1  0
 47 22  1  0
 49 47  1  0
 50 51  1  0
 52 63  2  0
 53 51  1  0
 53 58  1  0
 54 62  1  0
 54 64  1  0
 55 61  1  0
 55 57  1  0
 56 62  1  0
 57 56  1  0
 58 57  2  0
 59 60  1  0
 59 53  2  0
 60 55  2  0
 61 54  1  0
 62 52  1  0
 64 66  2  0
 65 64  1  0
 67 65  1  0
 68 77  2  0
 68 73  1  0
 69 65  1  0
 69 73  1  0
 70 69  1  0
 71 72  1  0
 71 70  1  0
 72 68  1  0
 73 74  2  0
 74 75  1  0
 76 75  2  0
 77 76  1  0
 78 52  1  0
 78 79  1  0
 78 88  1  0
 79 82  1  0
 80 84  1  0
 80 79  1  0
 81 80  2  0
 84 83  1  0
 86 84  1  0
 86 87  1  0
 86 85  1  0
 88 91  1  1
 88 89  1  0
 90 88  1  0
M  ISO  4  12 100  20 100  50 101  51 101
M  END
>  <TORSDO>  (74) 
F 24

>  <SCORE>  (74) 
-12.031

>  <name>  (74) 
74

>  <ligand_id>  (74) 
74

>  <original_smiles>  (74) 
[H]c1c([H])c([H])c2c(c1[H])C([H])([H])C([H])([H])C([H])([H])C2([H])N([H])C(=O)C1([H])N(C(=O)C([H])(N([H])C(=O)C([H])(N([H])C([H])([H])[H])C([H])([H])[H])C(C([H])([H])[H])(C([H])([H])[H])C([H])([H])[H])C([H])([H])c2c([H])c(OC([H])([H])C([H])(C([H])([H])C([H])([H])C([H])([H])C([H])([H])C([H])([H])C([H])([H])N([H])C(=O)N3C([H])([H])C([H])([H])C([H])([H])C([H])(n4nc(-c5c([H])c([H])c(Oc6c([H])c([H])c(F)c([H])c6F)c([H])c5[H])c(C(=O)N([H])[H])c4N([H])[H])C3([H])[H])C(C([H])([H])[H])(C([H])([H])[H])C([H])([H])[H])c([H])c([H])c2C1([H])[H]

>  <smiles>  (74) 
[H]c1c([H])c([H])c2c(c1[H])C([H])([H])C([H])([H])C([H])([H])C2([H])N([H])C(=O)C1([H])N(C(=O)C([H])(N([H])C(=O)C([H])(N([H])C([H])([H])[H])C([H])([H])[H])C(C([H])([H])[H])(C([H])([H])[H])C([H])([H])[H])C([H])([H])c2c([H])c(OC([H])([H])C([H])(C([H])([H])C([H])([H])C([H])([H])C([H])([H])C([H])([H])C([H])([H])N([H])C(=O)N3C([H])([H])C([H])([H])C([H])([H])C([H])(n4nc(-c5c([H])c([H])c(Oc6c([H])c([H])c(F)c([H])c6F)c([H])c5[H])c(C(=O)N([H])[H])c4N([H])[H])C3([H])[H])C(C([H])([H])[H])(C([H])([H])[H])C([H])([H])[H])c([H])c([H])c2C1([H])[H]

$$$$
75:0:0
     RDKit          3D

 86 93  0  0  1  0  0  0  0  0999 V2000
  -28.8370  -22.7640   20.5210 C   0  0  0  0  0  3  0  0  0  0  0  0
  -29.3040  -19.8370   20.4720 C   0  0  0  0  0  0  0  0  0  0  0  0
  -29.1010  -21.2080   19.9240 N   0  0  0  0  0  0  0  0  0  0  0  0
  -29.0370  -19.7210   21.6680 O   0  0  0  0  0  0  0  0  0  0  0  0
  -29.2830  -21.2270   18.9280 H   0  0  0  0  0  0  0  0  0  0  0  0
  -29.9160  -18.3420   19.7690 C   0  0  0  0  0  2  0  0  0  0  0  0
  -30.5450  -15.4350   19.9120 C   0  0  0  0  0  0  0  0  0  0  0  0
  -30.4730  -13.0020   18.9930 C   0  0  0  0  0  2  0  0  0  0  0  0
  -29.4800  -12.8250   17.8150 C   0  0  0  0  0  2  0  0  0  0  0  0
  -28.0620  -12.5370   18.3380 C   0  0  0  0  0  2  0  0  0  0  0  0
  -27.6820  -13.4660   19.5160 C   0  0  0  0  0  3  0  0  0  0  0  0
  -28.7990  -13.5920   20.5770 C   0  0  0  0  0  2  0  0  0  0  0  0
  -29.9860  -14.1210   19.8860 N   0  0  0  0  0  0  0  0  0  0  0  0
  -31.7310  -15.4470   19.5520 O   0  0  0  0  0  0  0  0  0  0  0  0
  -29.7910  -16.7020   20.1270 N   0  0  0  0  0  0  0  0  0  0  0  0
  -28.8680  -16.4950   20.4780 H   0  0  0  0  0  0  0  0  0  0  0  0
  -25.3690  -13.9960   20.4450 C   0  0  0  0  0  0  0  0  0  0  0  0
  -24.3330  -13.2060   20.8550 C   0  0  0  0  0  0  0  0  0  0  0  0
  -24.7930  -11.8580   20.7430 C   0  0  0  0  0  0  0  0  0  0  0  0
  -26.3910  -13.1300   20.1000 N   0  0  0  0  0  0  0  0  0  0  0  0
  -26.0610  -11.8360   20.3460 N   0  0  0  0  0  0  0  0  0  0  0  0
  -24.0760  -10.5890   20.9320 C   0  0  0  0  0  0  0  0  0  0  0  0
  -24.5270   -9.6140   21.8480 C   0  0  0  0  0  3  0  0  0  0  0  0
  -23.8060   -8.4140   22.0280 C   0  0  0  0  0  3  0  0  0  0  0  0
  -22.6190   -8.1800   21.2940 C   0  0  0  0  0  0  0  0  0  0  0  0
  -22.1860   -9.1460   20.3670 C   0  0  0  0  0  3  0  0  0  0  0  0
  -22.9080  -10.3370   20.1840 C   0  0  0  0  0  3  0  0  0  0  0  0
  -21.8680   -7.0330   21.3840 O   0  0  0  0  0  0  0  0  0  0  0  0
  -21.8000   -6.3070   22.5460 C   0  0  0  0  0  0  0  0  0  0  0  0
  -21.3120   -6.8670   23.7470 C   0  0  0  0  0  3  0  0  0  0  0  0
  -21.1940   -6.0650   24.9000 C   0  0  0  0  0  3  0  0  0  0  0  0
  -21.5530   -4.7060   24.8530 C   0  0  0  0  0  0  0  0  0  0  0  0
  -22.0340   -4.1450   23.6560 C   0  0  0  0  0  3  0  0  0  0  0  0
  -22.1530   -4.9440   22.5060 C   0  0  0  0  0  0  0  0  0  0  0  0
  -22.5970   -4.3930   21.3500 F   0  0  0  0  0  0  0  0  0  0  0  0
  -21.4340   -3.9340   25.9590 F   0  0  0  0  0  0  0  0  0  0  0  0
  -22.9580  -13.6740   21.2300 C   0  0  0  0  0  0  0  0  0  0  0  0
  -22.2850  -12.9510   22.1170 N   0  0  0  0  0  0  0  0  0  0  0  0
  -22.4910  -14.7170   20.7720 O   0  0  0  0  0  0  0  0  0  0  0  0
  -22.6760  -12.1070   22.5080 H   0  0  0  0  0  0  0  0  0  0  0  0
  -21.3640  -13.2450   22.4110 H   0  0  0  0  0  0  0  0  0  0  0  0
  -25.5210  -15.3730   20.3060 N   0  0  0  0  0  0  0  0  0  0  0  0
  -24.7590  -16.0170   20.4850 H   0  0  0  0  0  0  0  0  0  0  0  0
  -26.3290  -15.8220   19.8970 H   0  0  0  0  0  0  0  0  0  0  0  0
  -28.1150  -24.3050   19.8790 C   0  0  0  0  0  3  0  0  0  0  0  0
  -28.1940  -25.9180   20.2780 O   0  0  0  0  0  0  0  0  0  0  0  0
  -24.5950  -31.8880   23.1940 C   0  0  0  0  0  0  0  0  0  0  0  0
  -27.1750  -27.0110   20.1740 C   0  0  0  0  0  0  0  0  0  0  0  0
  -23.4050  -30.4810   21.5610 C   0  0  0  0  0  3  0  0  0  0  0  0
  -24.8610  -28.8830   20.1320 C   0  0  0  0  0  0  0  0  0  0  0  0
  -25.9690  -30.7060   21.4070 C   0  0  0  0  0  2  0  0  0  0  0  0
  -26.0460  -29.2950   20.7520 C   0  0  0  0  0  0  0  0  0  0  0  0
  -27.1940  -28.3790   20.7500 C   0  0  0  0  0  3  0  0  0  0  0  0
  -25.9610  -26.7580   19.4960 C   0  0  0  0  0  3  0  0  0  0  0  0
  -24.8440  -27.6370   19.4830 C   0  0  0  0  0  3  0  0  0  0  0  0
  -23.6350  -29.7950   20.1850 C   0  0  0  0  0  2  0  0  0  0  0  0
  -24.6780  -31.0530   22.1080 N   0  0  0  0  0  0  0  0  0  0  0  0
  -23.5050  -32.1710   23.7190 O   0  0  0  0  0  0  0  0  0  0  0  0
  -22.7210  -29.4820   22.5320 C   0  0  0  0  0  0  0  0  0  0  0  0
  -21.3910  -29.3080   22.4130 N   0  0  0  0  0  0  0  0  0  0  0  0
  -23.3930  -28.8650   23.3630 O   0  0  0  0  0  0  0  0  0  0  0  0
  -20.9010  -29.8570   21.7200 H   0  0  0  0  0  0  0  0  0  0  0  0
  -18.0190  -28.0780   22.9440 C   0  0  0  0  0  0  0  0  0  0  0  0
  -20.5790  -28.3650   23.1900 C   0  0  0  0  0  3  0  0  0  0  0  0
  -20.6870  -26.9330   22.6150 C   0  0  0  0  0  2  0  0  0  0  0  0
  -19.5810  -26.6030   21.6070 C   0  0  0  0  0  2  0  0  0  0  0  0
  -18.2020  -26.7330   22.2610 C   0  0  0  0  0  2  0  0  0  0  0  0
  -19.1340  -28.8510   23.3650 C   0  0  0  0  0  0  0  0  0  0  0  0
  -18.9060  -30.1080   23.9670 C   0  0  0  0  0  3  0  0  0  0  0  0
  -17.5960  -30.5930   24.1480 C   0  0  0  0  0  3  0  0  0  0  0  0
  -16.4970  -29.8180   23.7400 C   0  0  0  0  0  3  0  0  0  0  0  0
  -16.7080  -28.5620   23.1440 C   0  0  0  0  0  3  0  0  0  0  0  0
  -25.8630  -32.5410   23.8220 C   0  0  0  0  0  3  0  0  0  0  0  0
  -26.3680  -31.7940   25.1190 C   0  0  1  0  0  0  0  0  0  0  0  0
  -25.2640  -31.5700   26.1790 C   0  0  0  0  0  1  0  0  0  0  0  0
  -26.9610  -30.4120   24.7640 C   0  0  0  0  0  1  0  0  0  0  0  0
  -27.5080  -32.6040   25.7790 C   0  0  0  0  0  1  0  0  0  0  0  0
  -25.5400  -33.9440   24.1420 N   0  0  0  0  0  0  0  0  0  0  0  0
  -25.8640  -35.0000   23.3830 C   0  0  0  0  0  0  0  0  0  0  0  0
  -26.5290  -34.8960   22.3480 O   0  0  0  0  0  0  0  0  0  0  0  0
  -24.9480  -34.0970   24.9440 H   0  0  0  0  0  0  0  0  0  0  0  0
  -24.1290  -36.7940   23.0420 C   0  0  0  0  0  1  0  0  0  0  0  0
  -25.3790  -36.3910   23.8420 C   0  0  0  0  0  3  0  0  0  0  0  0
  -27.5130  -37.2930   24.6600 C   0  0  0  0  0  1  0  0  0  0  0  0
  -26.4080  -37.4470   23.7170 N   0  0  0  0  0  0  0  0  0  0  0  0
  -25.9980  -38.3670   23.8570 H   0  0  0  0  0  0  0  0  0  0  0  0
  2  4  2  0
  3  2  1  0
  3  1  1  0
  5  3  1  0
  6 15  1  0
  6  2  1  0
  7 15  1  0
  8 13  1  0
  9 10  1  0
  9  8  1  0
 11 10  1  0
 11 20  1  0
 11 12  1  0
 13  7  1  0
 13 12  1  0
 14  7  2  0
 15 16  1  0
 17 18  2  0
 18 37  1  0
 19 18  1  0
 19 22  1  0
 20 21  1  0
 20 17  1  0
 21 19  2  0
 22 23  1  0
 23 24  2  0
 25 28  1  0
 25 24  1  0
 26 25  2  0
 27 26  1  0
 27 22  2  0
 28 29  1  0
 29 30  1  0
 30 31  2  0
 32 31  1  0
 32 36  1  0
 33 32  2  0
 34 29  2  0
 34 33  1  0
 35 34  1  0
 37 38  1  0
 38 41  1  0
 38 40  1  0
 39 37  2  0
 42 17  1  0
 42 43  1  0
 44 42  1  0
 45 46  1  0
 45  1  2  0
 47 58  2  0
 48 46  1  0
 48 53  1  0
 49 57  1  0
 49 59  1  0
 50 56  1  0
 50 52  1  0
 51 57  1  0
 52 51  1  0
 53 52  2  0
 54 48  2  0
 55 54  1  0
 55 50  2  0
 56 49  1  0
 57 47  1  0
 59 61  2  0
 60 59  1  0
 62 60  1  0
 63 72  2  0
 63 68  1  0
 64 60  1  0
 64 68  1  0
 65 64  1  0
 66 67  1  0
 66 65  1  0
 67 63  1  0
 68 69  2  0
 69 70  1  0
 71 70  2  0
 72 71  1  0
 73 47  1  0
 73 78  1  0
 73 74  1  0
 74 77  1  1
 74 75  1  0
 76 74  1  0
 78 81  1  0
 79 83  1  0
 79 78  1  0
 80 79  2  0
 83 82  1  0
 85 83  1  0
 85 86  1  0
 85 84  1  0
M  ISO  4   7 100  15 100  45 101  46 101
M  END
>  <TORSDO>  (75) 
F 19

>  <SCORE>  (75) 
-15.612

>  <name>  (75) 
75

>  <ligand_id>  (75) 
75

>  <original_smiles>  (75) 
[H]c1c([H])c([H])c2c(c1[H])C([H])([H])C([H])([H])C([H])([H])C2([H])N([H])C(=O)C1([H])N(C(=O)C([H])(N([H])C(=O)C([H])(N([H])C([H])([H])[H])C([H])([H])[H])C(C([H])([H])[H])(C([H])([H])[H])C([H])([H])[H])C([H])([H])c2c([H])c(OC([H])([H])C([H])([H])N([H])C(=O)C([H])([H])N([H])C(=O)N3C([H])([H])C([H])([H])C([H])([H])C([H])(n4nc(-c5c([H])c([H])c(Oc6c([H])c([H])c(F)c([H])c6F)c([H])c5[H])c(C(=O)N([H])[H])c4N([H])[H])C3([H])[H])c([H])c([H])c2C1([H])[H]

>  <smiles>  (75) 
[H]c1c([H])c([H])c2c(c1[H])C([H])([H])C([H])([H])C([H])([H])C2([H])N([H])C(=O)C1([H])N(C(=O)C([H])(N([H])C(=O)C([H])(N([H])C([H])([H])[H])C([H])([H])[H])C(C([H])([H])[H])(C([H])([H])[H])C([H])([H])[H])C([H])([H])c2c([H])c(OC([H])([H])C([H])([H])N([H])C(=O)C([H])([H])N([H])C(=O)N3C([H])([H])C([H])([H])C([H])([H])C([H])(n4nc(-c5c([H])c([H])c(Oc6c([H])c([H])c(F)c([H])c6F)c([H])c5[H])c(C(=O)N([H])[H])c4N([H])[H])C3([H])[H])c([H])c([H])c2C1([H])[H]

$$$$
76:0:0
     RDKit          3D

 89 97  0  0  1  0  0  0  0  0999 V2000
  -27.6430  -23.7590   19.1630 C   0  0  0  0  0  3  0  0  0  0  0  0
  -28.6160  -24.0560   21.4350 C   0  0  0  0  0  2  0  0  0  0  0  0
  -27.6600  -22.2040   19.6140 C   0  0  0  0  0  2  0  0  0  0  0  0
  -29.4170  -22.6810   21.2900 C   0  0  0  0  0  2  0  0  0  0  0  0
  -28.3810  -24.8210   20.0930 C   0  0  0  0  0  0  0  0  0  0  0  0
  -28.9100  -21.6510   20.2810 N   0  0  1  0  0  4  0  0  0  0  0  0
  -29.6130  -21.6540   19.5540 H   0  0  0  0  0  0  0  0  0  0  0  0
  -28.2900  -26.3610   20.1110 O   0  0  0  0  0  0  0  0  0  0  0  0
  -24.6100  -31.8810   23.2010 C   0  0  0  0  0  0  0  0  0  0  0  0
  -27.1620  -27.2220   20.1320 C   0  0  0  0  0  0  0  0  0  0  0  0
  -23.4000  -30.4840   21.5750 C   0  0  0  0  0  3  0  0  0  0  0  0
  -24.8270  -28.9180   20.1400 C   0  0  0  0  0  0  0  0  0  0  0  0
  -25.9430  -30.7750   21.3750 C   0  0  0  0  0  2  0  0  0  0  0  0
  -26.0090  -29.3870   20.7230 C   0  0  0  0  0  0  0  0  0  0  0  0
  -27.1780  -28.5490   20.7010 C   0  0  0  0  0  3  0  0  0  0  0  0
  -25.9500  -26.8330   19.5320 C   0  0  0  0  0  3  0  0  0  0  0  0
  -24.8030  -27.6540   19.5370 C   0  0  0  0  0  3  0  0  0  0  0  0
  -23.6060  -29.8180   20.1890 C   0  0  0  0  0  2  0  0  0  0  0  0
  -24.6710  -31.0630   22.1070 N   0  0  0  0  0  0  0  0  0  0  0  0
  -23.5300  -32.1570   23.7430 O   0  0  0  0  0  0  0  0  0  0  0  0
  -22.7380  -29.4630   22.5330 C   0  0  0  0  0  0  0  0  0  0  0  0
  -21.4100  -29.2880   22.4120 N   0  0  0  0  0  0  0  0  0  0  0  0
  -23.4150  -28.8360   23.3510 O   0  0  0  0  0  0  0  0  0  0  0  0
  -20.9140  -29.8580   21.7390 H   0  0  0  0  0  0  0  0  0  0  0  0
  -18.0300  -28.0950   22.9270 C   0  0  0  0  0  0  0  0  0  0  0  0
  -20.5960  -28.3490   23.1860 C   0  0  0  0  0  3  0  0  0  0  0  0
  -20.6910  -26.9190   22.6080 C   0  0  0  0  0  2  0  0  0  0  0  0
  -19.5840  -26.6030   21.5980 C   0  0  0  0  0  2  0  0  0  0  0  0
  -18.2040  -26.7450   22.2490 C   0  0  0  0  0  2  0  0  0  0  0  0
  -19.1550  -28.8520   23.3530 C   0  0  0  0  0  0  0  0  0  0  0  0
  -18.9410  -30.1120   23.9480 C   0  0  0  0  0  3  0  0  0  0  0  0
  -17.6400  -30.6170   24.1260 C   0  0  0  0  0  3  0  0  0  0  0  0
  -16.5310  -29.8530   23.7240 C   0  0  0  0  0  3  0  0  0  0  0  0
  -16.7270  -28.5960   23.1240 C   0  0  0  0  0  3  0  0  0  0  0  0
  -25.8920  -32.5140   23.8200 C   0  0  0  0  0  3  0  0  0  0  0  0
  -26.4170  -31.7370   25.0900 C   0  0  1  0  0  0  0  0  0  0  0  0
  -25.3340  -31.4910   26.1660 C   0  0  0  0  0  1  0  0  0  0  0  0
  -27.0030  -30.3670   24.6780 C   0  0  0  0  0  1  0  0  0  0  0  0
  -27.5690  -32.5310   25.7490 C   0  0  0  0  0  1  0  0  0  0  0  0
  -25.5830  -33.9100   24.1680 N   0  0  0  0  0  0  0  0  0  0  0  0
  -25.9000  -34.9710   23.4150 C   0  0  0  0  0  0  0  0  0  0  0  0
  -26.5550  -34.8800   22.3730 O   0  0  0  0  0  0  0  0  0  0  0  0
  -25.0120  -34.0560   24.9870 H   0  0  0  0  0  0  0  0  0  0  0  0
  -24.1600  -36.7570   23.0960 C   0  0  0  0  0  1  0  0  0  0  0  0
  -25.4110  -36.3540   23.8920 C   0  0  0  0  0  3  0  0  0  0  0  0
  -27.5490  -37.2380   24.7020 C   0  0  0  0  0  1  0  0  0  0  0  0
  -26.4380  -37.4130   23.7720 N   0  0  0  0  0  0  0  0  0  0  0  0
  -26.0310  -38.3290   23.9400 H   0  0  0  0  0  0  0  0  0  0  0  0
  -28.8930  -20.1800   20.8370 C   0  0  0  0  0  2  0  0  0  0  0  0
  -29.1820  -18.7940   19.9730 C   0  0  0  0  0  2  0  0  0  0  0  0
  -29.9090  -17.5000   20.7160 C   0  0  0  0  0  2  0  0  0  0  0  0
  -30.5150  -14.8790   20.3200 C   0  0  0  0  0  0  0  0  0  0  0  0
  -30.4070  -12.5540   19.3620 C   0  0  0  0  0  2  0  0  0  0  0  0
  -29.4590  -12.5320   18.1410 C   0  0  0  0  0  2  0  0  0  0  0  0
  -27.9940  -12.3440   18.5860 C   0  0  0  0  0  2  0  0  0  0  0  0
  -27.6040  -13.2800   19.7570 C   0  0  0  0  0  3  0  0  0  0  0  0
  -28.6580  -13.2530   20.8780 C   0  0  0  0  0  2  0  0  0  0  0  0
  -29.9350  -13.6280   20.2660 N   0  0  0  0  0  0  0  0  0  0  0  0
  -31.7310  -14.9840   20.1250 O   0  0  0  0  0  0  0  0  0  0  0  0
  -29.6720  -16.0010   20.3910 N   0  0  0  0  0  0  0  0  0  0  0  0
  -28.6970  -15.7410   20.4060 H   0  0  0  0  0  0  0  0  0  0  0  0
  -25.2270  -13.8890   20.4850 C   0  0  0  0  0  0  0  0  0  0  0  0
  -24.1560  -13.1190   20.8580 C   0  0  0  0  0  0  0  0  0  0  0  0
  -24.6190  -11.7660   20.8420 C   0  0  0  0  0  0  0  0  0  0  0  0
  -26.2660  -13.0020   20.2590 N   0  0  0  0  0  0  0  0  0  0  0  0
  -25.9090  -11.7240   20.5390 N   0  0  0  0  0  0  0  0  0  0  0  0
  -23.8870  -10.5080   21.0360 C   0  0  0  0  0  0  0  0  0  0  0  0
  -24.3210   -9.5420   21.9710 C   0  0  0  0  0  3  0  0  0  0  0  0
  -23.5920   -8.3460   22.1530 C   0  0  0  0  0  3  0  0  0  0  0  0
  -22.4160   -8.1100   21.4000 C   0  0  0  0  0  0  0  0  0  0  0  0
  -22.0050   -9.0650   20.4540 C   0  0  0  0  0  3  0  0  0  0  0  0
  -22.7330  -10.2510   20.2720 C   0  0  0  0  0  3  0  0  0  0  0  0
  -21.6600   -6.9670   21.4920 O   0  0  0  0  0  0  0  0  0  0  0  0
  -21.6210   -6.2210   22.6430 C   0  0  0  0  0  0  0  0  0  0  0  0
  -21.2170   -6.7740   23.8770 C   0  0  0  0  0  3  0  0  0  0  0  0
  -21.1260   -5.9550   25.0200 C   0  0  0  0  0  3  0  0  0  0  0  0
  -21.4290   -4.5840   24.9300 C   0  0  0  0  0  0  0  0  0  0  0  0
  -21.8250   -4.0290   23.7000 C   0  0  0  0  0  3  0  0  0  0  0  0
  -21.9190   -4.8470   22.5590 C   0  0  0  0  0  0  0  0  0  0  0  0
  -22.2830   -4.3040   21.3720 F   0  0  0  0  0  0  0  0  0  0  0  0
  -21.3340   -3.7940   26.0240 F   0  0  0  0  0  0  0  0  0  0  0  0
  -22.7610  -13.6010   21.1170 C   0  0  0  0  0  0  0  0  0  0  0  0
  -22.0280  -12.9110   21.9850 N   0  0  0  0  0  0  0  0  0  0  0  0
  -22.3260  -14.6230   20.5860 O   0  0  0  0  0  0  0  0  0  0  0  0
  -22.3900  -12.0760   22.4250 H   0  0  0  0  0  0  0  0  0  0  0  0
  -21.0930  -13.2170   22.2130 H   0  0  0  0  0  0  0  0  0  0  0  0
  -25.3990  -15.2560   20.2930 N   0  0  0  0  0  0  0  0  0  0  0  0
  -24.6310  -15.9160   20.3670 H   0  0  0  0  0  0  0  0  0  0  0  0
  -26.2330  -15.6700   19.8980 H   0  0  0  0  0  0  0  0  0  0  0  0
  1  3  1  0
  1  5  2  0
  3  6  1  0
  4  2  1  0
  5  8  1  0
  5  2  1  0
  6 49  1  0
  6  4  1  0
  6  7  1  6
  8 10  1  0
  9 20  2  0
 10 15  1  0
 11 19  1  0
 11 21  1  0
 12 18  1  0
 12 14  1  0
 13 19  1  0
 14 13  1  0
 15 14  2  0
 16 17  1  0
 16 10  2  0
 17 12  2  0
 18 11  1  0
 19  9  1  0
 21 23  2  0
 22 21  1  0
 24 22  1  0
 25 34  2  0
 25 30  1  0
 26 22  1  0
 26 30  1  0
 27 26  1  0
 28 29  1  0
 28 27  1  0
 29 25  1  0
 30 31  2  0
 31 32  1  0
 33 32  2  0
 34 33  1  0
 35  9  1  0
 35 40  1  0
 35 36  1  0
 36 39  1  1
 36 37  1  0
 38 36  1  0
 40 43  1  0
 41 45  1  0
 41 40  1  0
 42 41  2  0
 45 44  1  0
 47 45  1  0
 47 48  1  0
 47 46  1  0
 50 51  1  0
 50 49  1  0
 52 60  1  0
 53 58  1  0
 54 55  1  0
 54 53  1  0
 56 55  1  0
 56 65  1  0
 56 57  1  0
 58 52  1  0
 58 57  1  0
 59 52  2  0
 60 61  1  0
 60 51  1  0
 62 63  2  0
 63 82  1  0
 64 63  1  0
 64 67  1  0
 65 62  1  0
 65 66  1  0
 66 64  2  0
 67 68  1  0
 68 69  2  0
 70 73  1  0
 70 69  1  0
 71 70  2  0
 72 71  1  0
 72 67  2  0
 73 74  1  0
 74 75  1  0
 75 76  2  0
 77 76  1  0
 77 81  1  0
 78 77  2  0
 79 74  2  0
 79 78  1  0
 80 79  1  0
 82 83  1  0
 83 86  1  0
 83 85  1  0
 84 82  2  0
 87 88  1  0
 87 62  1  0
 89 87  1  0
M  ISO  4   5 101   8 101  52 100  60 100
M  END
>  <TORSDO>  (76) 
F 19

>  <SCORE>  (76) 
-14.091

>  <name>  (76) 
76

>  <ligand_id>  (76) 
76

>  <original_smiles>  (76) 
[H]c1c([H])c([H])c2c(c1[H])C([H])([H])C([H])([H])C([H])([H])C2([H])N([H])C(=O)C1([H])N(C(=O)C([H])(N([H])C(=O)C([H])(N([H])C([H])([H])[H])C([H])([H])[H])C(C([H])([H])[H])(C([H])([H])[H])C([H])([H])[H])C([H])([H])c2c([H])c(OC3([H])C([H])([H])C([H])([H])[N+]([H])(C([H])([H])C([H])([H])C([H])([H])N([H])C(=O)N4C([H])([H])C([H])([H])C([H])([H])C([H])(n5nc(-c6c([H])c([H])c(Oc7c([H])c([H])c(F)c([H])c7F)c([H])c6[H])c(C(=O)N([H])[H])c5N([H])[H])C4([H])[H])C([H])([H])C3([H])[H])c([H])c([H])c2C1([H])[H]

>  <smiles>  (76) 
[H]c1c([H])c([H])c2c(c1[H])C([H])([H])C([H])([H])C([H])([H])C2([H])N([H])C(=O)C1([H])N(C(=O)C([H])(N([H])C(=O)C([H])(N([H])C([H])([H])[H])C([H])([H])[H])C(C([H])([H])[H])(C([H])([H])[H])C([H])([H])[H])C([H])([H])c2c([H])c(OC3([H])C([H])([H])C([H])([H])[N+]([H])(C([H])([H])C([H])([H])C([H])([H])N([H])C(=O)N4C([H])([H])C([H])([H])C([H])([H])C([H])(n5nc(-c6c([H])c([H])c(Oc7c([H])c([H])c(F)c([H])c7F)c([H])c6[H])c(C(=O)N([H])[H])c5N([H])[H])C4([H])[H])C([H])([H])C3([H])[H])c([H])c([H])c2C1([H])[H]

$$$$
77:0:0
     RDKit          3D

 87 95  0  0  1  0  0  0  0  0999 V2000
  -28.3430  -20.3520   20.7730 C   0  0  0  0  0  3  0  0  0  0  0  0
  -30.2020  -20.9310   19.5460 C   0  0  0  0  0  3  0  0  0  0  0  0
  -27.9200  -21.7790   20.7390 C   0  0  0  0  0  3  0  0  0  0  0  0
  -29.7780  -22.3530   19.5100 C   0  0  0  0  0  3  0  0  0  0  0  0
  -29.5340  -19.7860   20.1610 C   0  0  0  0  0  0  0  0  0  0  0  0
  -28.5900  -22.9230   20.1160 C   0  0  0  0  0  0  0  0  0  0  0  0
  -30.2450  -18.2000   20.1870 C   0  0  0  0  0  2  0  0  0  0  0  0
  -30.5290  -15.3550   20.1680 C   0  0  0  0  0  0  0  0  0  0  0  0
  -30.4510  -12.9400   19.2640 C   0  0  0  0  0  2  0  0  0  0  0  0
  -29.5010  -12.7760   18.0520 C   0  0  0  0  0  2  0  0  0  0  0  0
  -28.0610  -12.5130   18.5250 C   0  0  0  0  0  2  0  0  0  0  0  0
  -27.6440  -13.4600   19.6780 C   0  0  0  0  0  3  0  0  0  0  0  0
  -28.7200  -13.5800   20.7780 C   0  0  0  0  0  2  0  0  0  0  0  0
  -29.9420  -14.0670   20.1200 N   0  0  0  0  0  0  0  0  0  0  0  0
  -31.7390  -15.3570   19.9040 O   0  0  0  0  0  0  0  0  0  0  0  0
  -29.7970  -16.6240   20.3000 N   0  0  0  0  0  0  0  0  0  0  0  0
  -28.8100  -16.4950   20.4660 H   0  0  0  0  0  0  0  0  0  0  0  0
  -25.2930  -14.0040   20.5030 C   0  0  0  0  0  0  0  0  0  0  0  0
  -24.2410  -13.2200   20.8860 C   0  0  0  0  0  0  0  0  0  0  0  0
  -24.7090  -11.8700   20.8170 C   0  0  0  0  0  0  0  0  0  0  0  0
  -26.3300  -13.1360   20.2160 N   0  0  0  0  0  0  0  0  0  0  0  0
  -25.9930  -11.8450   20.4720 N   0  0  0  0  0  0  0  0  0  0  0  0
  -23.9870  -10.6030   21.0000 C   0  0  0  0  0  0  0  0  0  0  0  0
  -24.4180   -9.6360   21.9340 C   0  0  0  0  0  3  0  0  0  0  0  0
  -23.6950   -8.4360   22.1060 C   0  0  0  0  0  3  0  0  0  0  0  0
  -22.5270   -8.1960   21.3440 C   0  0  0  0  0  0  0  0  0  0  0  0
  -22.1150   -9.1520   20.3990 C   0  0  0  0  0  3  0  0  0  0  0  0
  -22.8400  -10.3430   20.2250 C   0  0  0  0  0  3  0  0  0  0  0  0
  -21.7730   -7.0490   21.4270 O   0  0  0  0  0  0  0  0  0  0  0  0
  -21.6850   -6.3290   22.5910 C   0  0  0  0  0  0  0  0  0  0  0  0
  -21.1370   -6.8810   23.7690 C   0  0  0  0  0  3  0  0  0  0  0  0
  -21.0010   -6.0840   24.9240 C   0  0  0  0  0  3  0  0  0  0  0  0
  -21.4010   -4.7350   24.9000 C   0  0  0  0  0  0  0  0  0  0  0  0
  -21.9410   -4.1810   23.7260 C   0  0  0  0  0  3  0  0  0  0  0  0
  -22.0800   -4.9760   22.5730 C   0  0  0  0  0  0  0  0  0  0  0  0
  -22.5810   -4.4310   21.4390 F   0  0  0  0  0  0  0  0  0  0  0  0
  -21.2630   -3.9660   26.0050 F   0  0  0  0  0  0  0  0  0  0  0  0
  -22.8510  -13.6890   21.1970 C   0  0  0  0  0  0  0  0  0  0  0  0
  -22.1460  -12.9780   22.0690 N   0  0  0  0  0  0  0  0  0  0  0  0
  -22.4010  -14.7220   20.7020 O   0  0  0  0  0  0  0  0  0  0  0  0
  -22.5260  -12.1440   22.4900 H   0  0  0  0  0  0  0  0  0  0  0  0
  -21.2140  -13.2750   22.3220 H   0  0  0  0  0  0  0  0  0  0  0  0
  -25.4470  -15.3790   20.3460 N   0  0  0  0  0  0  0  0  0  0  0  0
  -24.6770  -16.0250   20.4830 H   0  0  0  0  0  0  0  0  0  0  0  0
  -26.2740  -15.8250   19.9720 H   0  0  0  0  0  0  0  0  0  0  0  0
  -27.8620  -24.4830   19.8860 C   0  0  0  0  0  2  0  0  0  0  0  0
  -28.2330  -26.0370   20.1780 O   0  0  0  0  0  0  0  0  0  0  0  0
  -24.6920  -31.9260   23.2300 C   0  0  0  0  0  0  0  0  0  0  0  0
  -27.2340  -27.1330   20.1210 C   0  0  0  0  0  0  0  0  0  0  0  0
  -23.4840  -30.5440   21.5900 C   0  0  0  0  0  3  0  0  0  0  0  0
  -24.9230  -28.9780   20.1270 C   0  0  0  0  0  0  0  0  0  0  0  0
  -26.0450  -30.7820   21.4120 C   0  0  0  0  0  2  0  0  0  0  0  0
  -26.1150  -29.3860   20.7380 C   0  0  0  0  0  0  0  0  0  0  0  0
  -27.2660  -28.4830   20.7160 C   0  0  0  0  0  3  0  0  0  0  0  0
  -26.0130  -26.8730   19.4600 C   0  0  0  0  0  3  0  0  0  0  0  0
  -24.8940  -27.7400   19.4670 C   0  0  0  0  0  3  0  0  0  0  0  0
  -23.6980  -29.8840   20.2010 C   0  0  0  0  0  2  0  0  0  0  0  0
  -24.7610  -31.1090   22.1310 N   0  0  0  0  0  0  0  0  0  0  0  0
  -23.6080  -32.2010   23.7700 O   0  0  0  0  0  0  0  0  0  0  0  0
  -22.8100  -29.5280   22.5500 C   0  0  0  0  0  0  0  0  0  0  0  0
  -21.4850  -29.3350   22.4190 N   0  0  0  0  0  0  0  0  0  0  0  0
  -23.4870  -28.9170   23.3810 O   0  0  0  0  0  0  0  0  0  0  0  0
  -20.9910  -29.8800   21.7270 H   0  0  0  0  0  0  0  0  0  0  0  0
  -18.1240  -28.0690   22.9290 C   0  0  0  0  0  0  0  0  0  0  0  0
  -20.6790  -28.3800   23.1880 C   0  0  0  0  0  3  0  0  0  0  0  0
  -20.8050  -26.9520   22.6080 C   0  0  0  0  0  2  0  0  0  0  0  0
  -19.7070  -26.6140   21.5940 C   0  0  0  0  0  2  0  0  0  0  0  0
  -18.3240  -26.7280   22.2430 C   0  0  0  0  0  2  0  0  0  0  0  0
  -19.2290  -28.8510   23.3590 C   0  0  0  0  0  0  0  0  0  0  0  0
  -18.9860  -30.1030   23.9630 C   0  0  0  0  0  3  0  0  0  0  0  0
  -17.6710  -30.5750   24.1380 C   0  0  0  0  0  3  0  0  0  0  0  0
  -16.5810  -29.7910   23.7240 C   0  0  0  0  0  3  0  0  0  0  0  0
  -16.8080  -28.5400   23.1250 C   0  0  0  0  0  3  0  0  0  0  0  0
  -25.9680  -32.5680   23.8520 C   0  0  0  0  0  3  0  0  0  0  0  0
  -25.6500  -33.9640   24.1980 N   0  0  0  0  0  0  0  0  0  0  0  0
  -25.9410  -35.0280   23.4380 C   0  0  0  0  0  0  0  0  0  0  0  0
  -26.5700  -34.9390   22.3810 O   0  0  0  0  0  0  0  0  0  0  0  0
  -25.0870  -34.1050   25.0250 H   0  0  0  0  0  0  0  0  0  0  0  0
  -24.1820  -36.8090   23.1780 C   0  0  0  0  0  1  0  0  0  0  0  0
  -25.4620  -36.4100   23.9280 C   0  0  0  0  0  3  0  0  0  0  0  0
  -27.6120  -37.3250   24.6820 C   0  0  0  0  0  1  0  0  0  0  0  0
  -26.4770  -37.4760   23.7750 N   0  0  0  0  0  0  0  0  0  0  0  0
  -26.0640  -38.3910   23.9330 H   0  0  0  0  0  0  0  0  0  0  0  0
  -26.4890  -31.7970   25.1280 C   0  0  1  0  0  0  0  0  0  0  0  0
  -25.3970  -31.5480   26.1950 C   0  0  0  0  0  1  0  0  0  0  0  0
  -27.0830  -30.4240   24.7400 C   0  0  0  0  0  1  0  0  0  0  0  0
  -27.6310  -32.5980   25.7940 C   0  0  0  0  0  1  0  0  0  0  0  0
  2  5  1  0
  3  1  1  0
  4  2  2  0
  4  6  1  0
  5  7  1  0
  5  1  2  0
  6  3  2  0
  7 16  1  0
  8 16  1  0
  9 14  1  0
 10 11  1  0
 10  9  1  0
 12 11  1  0
 12 21  1  0
 12 13  1  0
 14  8  1  0
 14 13  1  0
 15  8  2  0
 16 17  1  0
 18 19  2  0
 19 38  1  0
 20 19  1  0
 20 23  1  0
 21 22  1  0
 21 18  1  0
 22 20  2  0
 23 24  1  0
 24 25  2  0
 26 29  1  0
 26 25  1  0
 27 26  2  0
 28 27  1  0
 28 23  2  0
 29 30  1  0
 30 31  1  0
 31 32  2  0
 33 32  1  0
 33 37  1  0
 34 33  2  0
 35 30  2  0
 35 34  1  0
 36 35  1  0
 38 39  1  0
 39 42  1  0
 39 41  1  0
 40 38  2  0
 43 44  1  0
 43 18  1  0
 45 43  1  0
 46  6  1  0
 46 47  1  0
 48 59  2  0
 49 47  1  0
 49 54  1  0
 50 58  1  0
 50 60  1  0
 51 57  1  0
 51 53  1  0
 52 58  1  0
 53 52  1  0
 54 53  2  0
 55 56  1  0
 55 49  2  0
 56 51  2  0
 57 50  1  0
 58 48  1  0
 60 62  2  0
 61 60  1  0
 63 61  1  0
 64 73  2  0
 64 69  1  0
 65 61  1  0
 65 69  1  0
 66 65  1  0
 67 68  1  0
 67 66  1  0
 68 64  1  0
 69 70  2  0
 70 71  1  0
 72 71  2  0
 73 72  1  0
 74 48  1  0
 74 75  1  0
 74 84  1  0
 75 78  1  0
 76 80  1  0
 76 75  1  0
 77 76  2  0
 80 79  1  0
 82 80  1  0
 82 83  1  0
 82 81  1  0
 84 87  1  1
 84 85  1  0
 86 84  1  0
M  ISO  4   8 100  16 100  46 101  47 101
M  END
>  <TORSDO>  (77) 
F 18

>  <SCORE>  (77) 
-15.768

>  <name>  (77) 
77

>  <ligand_id>  (77) 
77

>  <original_smiles>  (77) 
[H]c1c([H])c([H])c2c(c1[H])C([H])([H])C([H])([H])C([H])([H])C2([H])N([H])C(=O)C1([H])N(C(=O)C([H])(N([H])C(=O)C([H])(N([H])C([H])([H])[H])C([H])([H])[H])C(C([H])([H])[H])(C([H])([H])[H])C([H])([H])[H])C([H])([H])c2c([H])c(OC([H])([H])c3c([H])c([H])c(C([H])([H])N([H])C(=O)N4C([H])([H])C([H])([H])C([H])([H])C([H])(n5nc(-c6c([H])c([H])c(Oc7c([H])c([H])c(F)c([H])c7F)c([H])c6[H])c(C(=O)N([H])[H])c5N([H])[H])C4([H])[H])c([H])c3[H])c([H])c([H])c2C1([H])[H]

>  <smiles>  (77) 
[H]c1c([H])c([H])c2c(c1[H])C([H])([H])C([H])([H])C([H])([H])C2([H])N([H])C(=O)C1([H])N(C(=O)C([H])(N([H])C(=O)C([H])(N([H])C([H])([H])[H])C([H])([H])[H])C(C([H])([H])[H])(C([H])([H])[H])C([H])([H])[H])C([H])([H])c2c([H])c(OC([H])([H])c3c([H])c([H])c(C([H])([H])N([H])C(=O)N4C([H])([H])C([H])([H])C([H])([H])C([H])(n5nc(-c6c([H])c([H])c(Oc7c([H])c([H])c(F)c([H])c7F)c([H])c6[H])c(C(=O)N([H])[H])c5N([H])[H])C4([H])[H])c([H])c3[H])c([H])c([H])c2C1([H])[H]

$$$$
78:0:0
     RDKit          3D

 96103  0  0  1  0  0  0  0  0999 V2000
  -29.8400  -21.9770   19.5120 C   0  0  0  0  0  2  0  0  0  0  0  0
  -29.0250  -22.7160   18.4290 C   0  0  0  0  0  2  0  0  0  0  0  0
  -29.4220  -24.1350   18.2640 N   0  0  0  0  0  4  0  0  0  0  0  0
  -30.3350  -24.1720   17.8360 H   0  0  0  0  0  0  0  0  0  0  0  0
  -29.4950  -24.5430   19.1820 H   0  0  0  0  0  0  0  0  0  0  0  0
  -28.4490  -24.9250   17.4710 C   0  0  0  0  0  2  0  0  0  0  0  0
  -28.6750  -26.4590   17.5150 C   0  0  0  0  0  2  0  0  0  0  0  0
  -29.0960  -27.0760   18.8740 C   0  0  0  0  0  2  0  0  0  0  0  0
  -28.2230  -26.7380   19.9530 O   0  0  0  0  0  0  0  0  0  0  0  0
  -24.5280  -31.9070   23.2200 C   0  0  0  0  0  0  0  0  0  0  0  0
  -27.0750  -27.4850   20.0330 C   0  0  0  0  0  0  0  0  0  0  0  0
  -23.2790  -30.5270   21.5960 C   0  0  0  0  0  3  0  0  0  0  0  0
  -24.6870  -28.9830   20.1380 C   0  0  0  0  0  0  0  0  0  0  0  0
  -25.8020  -30.8670   21.3440 C   0  0  0  0  0  2  0  0  0  0  0  0
  -25.8630  -29.5030   20.6940 C   0  0  0  0  0  0  0  0  0  0  0  0
  -27.0640  -28.7600   20.6400 C   0  0  0  0  0  3  0  0  0  0  0  0
  -25.8780  -26.9580   19.5110 C   0  0  0  0  0  3  0  0  0  0  0  0
  -24.6850  -27.7050   19.5540 C   0  0  0  0  0  3  0  0  0  0  0  0
  -23.4570  -29.8580   20.2080 C   0  0  0  0  0  2  0  0  0  0  0  0
  -24.5570  -31.1140   22.1130 N   0  0  0  0  0  0  0  0  0  0  0  0
  -23.4590  -32.1820   23.7840 O   0  0  0  0  0  0  0  0  0  0  0  0
  -22.6370  -29.5050   22.5590 C   0  0  0  0  0  0  0  0  0  0  0  0
  -21.3100  -29.3210   22.4430 N   0  0  0  0  0  0  0  0  0  0  0  0
  -23.3270  -28.8790   23.3670 O   0  0  0  0  0  0  0  0  0  0  0  0
  -20.8100  -29.8800   21.7640 H   0  0  0  0  0  0  0  0  0  0  0  0
  -17.9470  -28.1160   22.9700 C   0  0  0  0  0  0  0  0  0  0  0  0
  -20.5030  -28.3850   23.2260 C   0  0  0  0  0  3  0  0  0  0  0  0
  -20.6100  -26.9500   22.6610 C   0  0  0  0  0  2  0  0  0  0  0  0
  -19.5050  -26.6180   21.6540 C   0  0  0  0  0  2  0  0  0  0  0  0
  -18.1270  -26.7620   22.3000 C   0  0  0  0  0  2  0  0  0  0  0  0
  -19.0630  -28.8840   23.3890 C   0  0  0  0  0  0  0  0  0  0  0  0
  -18.8410  -30.1510   23.9730 C   0  0  0  0  0  3  0  0  0  0  0  0
  -17.5350  -30.6470   24.1410 C   0  0  0  0  0  3  0  0  0  0  0  0
  -16.4330  -29.8770   23.7350 C   0  0  0  0  0  3  0  0  0  0  0  0
  -16.6380  -28.6130   23.1530 C   0  0  0  0  0  3  0  0  0  0  0  0
  -25.8320  -32.5230   23.8150 C   0  0  0  0  0  3  0  0  0  0  0  0
  -26.3640  -31.7480   25.0820 C   0  0  1  0  0  0  0  0  0  0  0  0
  -25.2900  -31.5270   26.1690 C   0  0  0  0  0  1  0  0  0  0  0  0
  -26.9220  -30.3650   24.6800 C   0  0  0  0  0  1  0  0  0  0  0  0
  -27.5350  -32.5330   25.7230 C   0  0  0  0  0  1  0  0  0  0  0  0
  -25.5470  -33.9270   24.1470 N   0  0  0  0  0  0  0  0  0  0  0  0
  -25.8920  -34.9740   23.3840 C   0  0  0  0  0  0  0  0  0  0  0  0
  -26.5590  -34.8570   22.3510 O   0  0  0  0  0  0  0  0  0  0  0  0
  -24.9610  -34.0930   24.9510 H   0  0  0  0  0  0  0  0  0  0  0  0
  -24.2040  -36.7980   23.0120 C   0  0  0  0  0  1  0  0  0  0  0  0
  -25.4270  -36.3690   23.8380 C   0  0  0  0  0  3  0  0  0  0  0  0
  -27.5620  -37.2090   24.7130 C   0  0  0  0  0  1  0  0  0  0  0  0
  -26.4820  -37.4010   23.7480 N   0  0  0  0  0  0  0  0  0  0  0  0
  -26.0910  -38.3290   23.8930 H   0  0  0  0  0  0  0  0  0  0  0  0
  -29.3590  -20.5270   19.6990 C   0  0  0  0  0  2  0  0  0  0  0  0
  -30.1910  -19.6810   20.6830 C   0  0  0  0  0  2  0  0  0  0  0  0
  -29.7010  -18.2110   20.7470 C   0  0  0  0  0  2  0  0  0  0  0  0
  -30.8050  -17.1230   20.6750 C   0  0  0  0  0  3  0  0  0  0  0  0
  -30.9100  -14.6500   20.9430 C   0  0  0  0  0  0  0  0  0  0  0  0
  -30.6270  -12.4830   19.8460 C   0  0  0  0  0  2  0  0  0  0  0  0
  -29.7850  -12.6850   18.5720 C   0  0  0  0  0  2  0  0  0  0  0  0
  -28.2880  -12.5320   18.8960 C   0  0  0  0  0  2  0  0  0  0  0  0
  -27.8440  -13.3900   20.1110 C   0  0  0  0  0  3  0  0  0  0  0  0
  -28.8260  -13.2460   21.2970 C   0  0  0  0  0  2  0  0  0  0  0  0
  -30.1900  -13.5060   20.8080 N   0  0  0  0  0  0  0  0  0  0  0  0
  -32.1250  -14.6950   20.7460 O   0  0  0  0  0  0  0  0  0  0  0  0
  -30.2180  -15.8010   21.0060 N   0  0  0  0  0  0  0  0  0  0  0  0
  -29.2160  -15.7460   21.1050 H   0  0  0  0  0  0  0  0  0  0  0  0
  -25.3940  -13.9610   20.6410 C   0  0  0  0  0  0  0  0  0  0  0  0
  -24.3110  -13.1730   20.9350 C   0  0  0  0  0  0  0  0  0  0  0  0
  -24.7940  -11.8300   20.9590 C   0  0  0  0  0  0  0  0  0  0  0  0
  -26.4670  -13.0950   20.5040 N   0  0  0  0  0  0  0  0  0  0  0  0
  -26.1070  -11.8090   20.7550 N   0  0  0  0  0  0  0  0  0  0  0  0
  -24.0750  -10.5550   21.1050 C   0  0  0  0  0  0  0  0  0  0  0  0
  -24.4520   -9.6060   22.0800 C   0  0  0  0  0  3  0  0  0  0  0  0
  -23.7360   -8.3980   22.2140 C   0  0  0  0  0  3  0  0  0  0  0  0
  -22.6290   -8.1310   21.3740 C   0  0  0  0  0  0  0  0  0  0  0  0
  -22.2740   -9.0700   20.3900 C   0  0  0  0  0  3  0  0  0  0  0  0
  -22.9890  -10.2710   20.2530 C   0  0  0  0  0  3  0  0  0  0  0  0
  -21.8930   -6.9730   21.4150 O   0  0  0  0  0  0  0  0  0  0  0  0
  -21.7600   -6.2400   22.5680 C   0  0  0  0  0  0  0  0  0  0  0  0
  -21.2080   -6.7950   23.7440 C   0  0  0  0  0  3  0  0  0  0  0  0
  -21.0300   -5.9890   24.8860 C   0  0  0  0  0  3  0  0  0  0  0  0
  -21.3890   -4.6290   24.8520 C   0  0  0  0  0  0  0  0  0  0  0  0
  -21.9310   -4.0720   23.6800 C   0  0  0  0  0  3  0  0  0  0  0  0
  -22.1120   -4.8750   22.5410 C   0  0  0  0  0  0  0  0  0  0  0  0
  -22.6160   -4.3310   21.4070 F   0  0  0  0  0  0  0  0  0  0  0  0
  -21.2080   -3.8530   25.9460 F   0  0  0  0  0  0  0  0  0  0  0  0
  -22.8890  -13.6280   21.0880 C   0  0  0  0  0  0  0  0  0  0  0  0
  -22.1050  -12.9280   21.9040 N   0  0  0  0  0  0  0  0  0  0  0  0
  -22.4720  -14.6340   20.5160 O   0  0  0  0  0  0  0  0  0  0  0  0
  -22.4500  -12.1180   22.3970 H   0  0  0  0  0  0  0  0  0  0  0  0
  -21.1440  -13.2060   22.0330 H   0  0  0  0  0  0  0  0  0  0  0  0
  -25.5570  -15.3320   20.4540 N   0  0  0  0  0  0  0  0  0  0  0  0
  -24.7800  -15.9840   20.4610 H   0  0  0  0  0  0  0  0  0  0  0  0
  -26.4230  -15.7630   20.1510 H   0  0  0  0  0  0  0  0  0  0  0  0
  -31.4640  -17.1120   19.2680 C   0  0  0  0  0  0  0  0  0  0  0  0
  -32.7090  -17.5630   19.1360 N   0  0  0  0  0  0  0  0  0  0  0  0
  -30.8410  -16.6910   18.2920 O   0  0  0  0  0  0  0  0  0  0  0  0
  -33.2290  -17.8950   19.9380 H   0  0  0  0  0  0  0  0  0  0  0  0
  -33.1690  -17.5590   18.2360 H   0  0  0  0  0  0  0  0  0  0  0  0
  1 50  1  0
  2  1  1  0
  3  2  1  0
  3  5  1  0
  4  3  1  0
  6  7  1  0
  6  3  1  0
  7  8  1  0
  8  9  1  0
  9 11  1  0
 10 21  2  0
 11 16  1  0
 12 20  1  0
 12 22  1  0
 13 19  1  0
 13 15  1  0
 14 20  1  0
 15 14  1  0
 16 15  2  0
 17 18  1  0
 17 11  2  0
 18 13  2  0
 19 12  1  0
 20 10  1  0
 22 24  2  0
 23 22  1  0
 25 23  1  0
 26 35  2  0
 26 31  1  0
 27 23  1  0
 27 31  1  0
 28 27  1  0
 29 30  1  0
 29 28  1  0
 30 26  1  0
 31 32  2  0
 32 33  1  0
 34 33  2  0
 35 34  1  0
 36 10  1  0
 36 41  1  0
 36 37  1  0
 37 40  1  1
 37 38  1  0
 39 37  1  0
 41 44  1  0
 42 46  1  0
 42 41  1  0
 43 42  2  0
 46 45  1  0
 48 46  1  0
 48 49  1  0
 48 47  1  0
 50 51  1  0
 51 52  1  0
 53 52  1  0
 53 62  1  0
 54 62  1  0
 55 60  1  0
 56 57  1  0
 56 55  1  0
 58 57  1  0
 58 67  1  0
 58 59  1  0
 60 54  1  0
 60 59  1  0
 61 54  2  0
 62 63  1  0
 64 65  2  0
 65 66  1  0
 65 84  1  0
 66 69  1  0
 67 64  1  0
 67 68  1  0
 68 66  2  0
 69 70  1  0
 70 71  2  0
 72 75  1  0
 72 71  1  0
 73 72  2  0
 74 73  1  0
 74 69  2  0
 75 76  1  0
 76 77  1  0
 77 78  2  0
 79 78  1  0
 79 83  1  0
 80 79  2  0
 81 76  2  0
 81 80  1  0
 82 81  1  0
 84 85  1  0
 85 88  1  0
 85 87  1  0
 86 84  2  0
 89 90  1  0
 89 64  1  0
 91 89  1  0
 92 53  1  0
 93 92  1  0
 93 95  1  0
 94 92  2  0
 96 93  1  0
M  ISO  4   8 101   9 101  54 100  62 100
M  END
>  <TORSDO>  (78) 
F 26

>  <SCORE>  (78) 
-11.734

>  <name>  (78) 
78

>  <ligand_id>  (78) 
78

>  <original_smiles>  (78) 
[H]c1c([H])c([H])c2c(c1[H])C([H])([H])C([H])([H])C([H])([H])C2([H])N([H])C(=O)C1([H])N(C(=O)C([H])(N([H])C(=O)C([H])(N([H])C([H])([H])[H])C([H])([H])[H])C(C([H])([H])[H])(C([H])([H])[H])C([H])([H])[H])C([H])([H])c2c([H])c(OC([H])([H])C([H])([H])C([H])([H])[N+]([H])([H])C([H])([H])C([H])([H])C([H])([H])C([H])([H])C([H])([H])C([H])(C(=O)N([H])[H])N([H])C(=O)N3C([H])([H])C([H])([H])C([H])([H])C([H])(n4nc(-c5c([H])c([H])c(Oc6c([H])c([H])c(F)c([H])c6F)c([H])c5[H])c(C(=O)N([H])[H])c4N([H])[H])C3([H])[H])c([H])c([H])c2C1([H])[H]

>  <smiles>  (78) 
[H]c1c([H])c([H])c2c(c1[H])C([H])([H])C([H])([H])C([H])([H])C2([H])N([H])C(=O)C1([H])N(C(=O)C([H])(N([H])C(=O)C([H])(N([H])C([H])([H])[H])C([H])([H])[H])C(C([H])([H])[H])(C([H])([H])[H])C([H])([H])[H])C([H])([H])c2c([H])c(OC([H])([H])C([H])([H])C([H])([H])[N+]([H])([H])C([H])([H])C([H])([H])C([H])([H])C([H])([H])C([H])([H])C([H])(C(=O)N([H])[H])N([H])C(=O)N3C([H])([H])C([H])([H])C([H])([H])C([H])(n4nc(-c5c([H])c([H])c(Oc6c([H])c([H])c(F)c([H])c6F)c([H])c5[H])c(C(=O)N([H])[H])c4N([H])[H])C3([H])[H])c([H])c([H])c2C1([H])[H]

$$$$
79:0:0
     RDKit          3D

 93101  0  0  1  0  0  0  0  0999 V2000
  -31.4310  -21.9680   19.3400 C   0  0  0  0  0  2  0  0  0  0  0  0
  -30.1930  -21.6090   18.5030 C   0  0  0  0  0  2  0  0  0  0  0  0
  -30.8640  -22.4460   20.6900 C   0  0  0  0  0  2  0  0  0  0  0  0
  -29.0100  -21.7050   19.4900 C   0  0  0  0  0  3  0  0  0  0  0  0
  -29.4390  -22.7960   20.4390 N   0  0  2  0  0  4  0  0  0  0  0  0
  -28.9360  -22.7020   21.3100 H   0  0  0  0  0  0  0  0  0  0  0  0
  -28.6560  -20.3200   20.1730 C   0  0  0  0  0  0  0  0  0  0  0  0
  -27.5700  -20.2300   20.7490 O   0  0  0  0  0  0  0  0  0  0  0  0
  -29.3760  -18.1060   20.5230 C   0  0  0  0  0  3  0  0  0  0  0  0
  -29.6090  -19.2870   20.0490 N   0  0  0  0  0  0  0  0  0  0  0  0
  -31.4630  -17.2240   21.6420 C   0  0  0  0  0  1  0  0  0  0  0  0
  -30.4500  -16.9820   20.5050 C   0  0  0  0  0  3  0  0  0  0  0  0
  -30.6090  -14.5070   19.9900 C   0  0  0  0  0  0  0  0  0  0  0  0
  -30.2960  -12.2740   18.9610 C   0  0  0  0  0  2  0  0  0  0  0  0
  -29.3050  -12.3920   17.7870 C   0  0  0  0  0  2  0  0  0  0  0  0
  -27.8590  -12.2270   18.2960 C   0  0  0  0  0  2  0  0  0  0  0  0
  -27.5550  -13.1190   19.5320 C   0  0  0  0  0  3  0  0  0  0  0  0
  -28.6650  -13.0050   20.5990 C   0  0  0  0  0  2  0  0  0  0  0  0
  -29.9460  -13.3130   19.9490 N   0  0  0  0  0  0  0  0  0  0  0  0
  -31.7040  -14.6530   19.4410 O   0  0  0  0  0  0  0  0  0  0  0  0
  -29.9560  -15.5730   20.5250 N   0  0  0  0  0  0  0  0  0  0  0  0
  -29.0470  -15.4010   20.9260 H   0  0  0  0  0  0  0  0  0  0  0  0
  -25.2040  -13.7050   20.3980 C   0  0  0  0  0  0  0  0  0  0  0  0
  -24.1670  -12.9200   20.8320 C   0  0  0  0  0  0  0  0  0  0  0  0
  -24.6320  -11.5730   20.7610 C   0  0  0  0  0  0  0  0  0  0  0  0
  -26.2350  -12.8310   20.0930 N   0  0  0  0  0  0  0  0  0  0  0  0
  -25.9000  -11.5430   20.3660 N   0  0  0  0  0  0  0  0  0  0  0  0
  -23.9270  -10.3050   20.9860 C   0  0  0  0  0  0  0  0  0  0  0  0
  -24.3950   -9.3540   21.9190 C   0  0  0  0  0  3  0  0  0  0  0  0
  -23.6840   -8.1530   22.1350 C   0  0  0  0  0  3  0  0  0  0  0  0
  -22.4940   -7.8930   21.4170 C   0  0  0  0  0  0  0  0  0  0  0  0
  -22.0450   -8.8340   20.4730 C   0  0  0  0  0  3  0  0  0  0  0  0
  -22.7570  -10.0260   20.2560 C   0  0  0  0  0  3  0  0  0  0  0  0
  -21.7540   -6.7420   21.5370 O   0  0  0  0  0  0  0  0  0  0  0  0
  -21.7260   -6.0240   22.7060 C   0  0  0  0  0  0  0  0  0  0  0  0
  -21.2890   -6.5950   23.9210 C   0  0  0  0  0  3  0  0  0  0  0  0
  -21.2100   -5.8020   25.0840 C   0  0  0  0  0  3  0  0  0  0  0  0
  -21.5590   -4.4390   25.0330 C   0  0  0  0  0  0  0  0  0  0  0  0
  -21.9930   -3.8680   23.8220 C   0  0  0  0  0  3  0  0  0  0  0  0
  -22.0730   -4.6590   22.6620 C   0  0  0  0  0  0  0  0  0  0  0  0
  -22.4690   -4.0980   21.4950 F   0  0  0  0  0  0  0  0  0  0  0  0
  -21.4770   -3.6740   26.1470 F   0  0  0  0  0  0  0  0  0  0  0  0
  -22.7880  -13.3920   21.1920 C   0  0  0  0  0  0  0  0  0  0  0  0
  -22.1170  -12.6850   22.0970 N   0  0  0  0  0  0  0  0  0  0  0  0
  -22.3150  -14.4200   20.7090 O   0  0  0  0  0  0  0  0  0  0  0  0
  -22.5130  -11.8550   22.5100 H   0  0  0  0  0  0  0  0  0  0  0  0
  -21.1950  -12.9850   22.3790 H   0  0  0  0  0  0  0  0  0  0  0  0
  -25.3470  -15.0770   20.2230 N   0  0  0  0  0  0  0  0  0  0  0  0
  -24.5730  -15.7140   20.3860 H   0  0  0  0  0  0  0  0  0  0  0  0
  -26.1590  -15.5340   19.8290 H   0  0  0  0  0  0  0  0  0  0  0  0
  -29.3320  -24.2380   19.9370 C   0  0  0  0  0  2  0  0  0  0  0  0
  -28.1130  -25.1320   20.3720 C   0  0  0  0  0  2  0  0  0  0  0  0
  -28.3060  -26.5550   20.0360 O   0  0  0  0  0  0  0  0  0  0  0  0
  -24.6690  -31.8610   23.2160 C   0  0  0  0  0  0  0  0  0  0  0  0
  -27.1870  -27.3850   20.0310 C   0  0  0  0  0  0  0  0  0  0  0  0
  -23.4340  -30.5390   21.5320 C   0  0  0  0  0  3  0  0  0  0  0  0
  -24.8520  -29.0110   20.0570 C   0  0  0  0  0  0  0  0  0  0  0  0
  -25.9720  -30.8280   21.3490 C   0  0  0  0  0  2  0  0  0  0  0  0
  -26.0260  -29.4720   20.6650 C   0  0  0  0  0  0  0  0  0  0  0  0
  -27.2010  -28.6700   20.6410 C   0  0  0  0  0  3  0  0  0  0  0  0
  -25.9990  -26.9730   19.3860 C   0  0  0  0  0  3  0  0  0  0  0  0
  -24.8400  -27.7680   19.4060 C   0  0  0  0  0  3  0  0  0  0  0  0
  -23.6350  -29.9080   20.1280 C   0  0  0  0  0  2  0  0  0  0  0  0
  -24.7100  -31.0900   22.0910 N   0  0  0  0  0  0  0  0  0  0  0  0
  -23.5920  -32.1420   23.7620 O   0  0  0  0  0  0  0  0  0  0  0  0
  -22.7570  -29.5050   22.4620 C   0  0  0  0  0  0  0  0  0  0  0  0
  -21.4260  -29.3680   22.3360 N   0  0  0  0  0  0  0  0  0  0  0  0
  -23.4240  -28.8340   23.2520 O   0  0  0  0  0  0  0  0  0  0  0  0
  -20.9510  -29.9570   21.6690 H   0  0  0  0  0  0  0  0  0  0  0  0
  -18.0150  -28.2710   22.8310 C   0  0  0  0  0  0  0  0  0  0  0  0
  -20.5840  -28.4280   23.0770 C   0  0  0  0  0  3  0  0  0  0  0  0
  -20.6290  -27.0210   22.4340 C   0  0  0  0  0  2  0  0  0  0  0  0
  -19.5010  -26.7830   21.4260 C   0  0  0  0  0  2  0  0  0  0  0  0
  -18.1340  -26.9480   22.0950 C   0  0  0  0  0  2  0  0  0  0  0  0
  -19.1650  -28.9740   23.2770 C   0  0  0  0  0  0  0  0  0  0  0  0
  -19.0000  -30.2140   23.9290 C   0  0  0  0  0  3  0  0  0  0  0  0
  -17.7170  -30.7550   24.1350 C   0  0  0  0  0  3  0  0  0  0  0  0
  -16.5810  -30.0490   23.7020 C   0  0  0  0  0  3  0  0  0  0  0  0
  -16.7300  -28.8090   23.0560 C   0  0  0  0  0  3  0  0  0  0  0  0
  -25.9670  -32.4410   23.8560 C   0  0  0  0  0  3  0  0  0  0  0  0
  -25.6860  -33.8310   24.2440 N   0  0  0  0  0  0  0  0  0  0  0  0
  -26.0320  -34.9070   23.5240 C   0  0  0  0  0  0  0  0  0  0  0  0
  -26.6910  -34.8320   22.4840 O   0  0  0  0  0  0  0  0  0  0  0  0
  -25.1060  -33.9640   25.0600 H   0  0  0  0  0  0  0  0  0  0  0  0
  -24.3280  -36.7360   23.2560 C   0  0  0  0  0  1  0  0  0  0  0  0
  -25.5730  -36.2840   24.0370 C   0  0  0  0  0  3  0  0  0  0  0  0
  -27.7300  -37.1020   24.8800 C   0  0  0  0  0  1  0  0  0  0  0  0
  -26.6230  -37.3230   23.9520 N   0  0  0  0  0  0  0  0  0  0  0  0
  -26.2330  -38.2440   24.1330 H   0  0  0  0  0  0  0  0  0  0  0  0
  -26.4710  -31.6090   25.0990 C   0  0  1  0  0  0  0  0  0  0  0  0
  -25.3760  -31.3560   26.1600 C   0  0  0  0  0  1  0  0  0  0  0  0
  -27.0240  -30.2340   24.6510 C   0  0  0  0  0  1  0  0  0  0  0  0
  -27.6370  -32.3560   25.7890 C   0  0  0  0  0  1  0  0  0  0  0  0
  1  3  1  0
  2  1  1  0
  2  4  1  0
  4  7  1  0
  4  5  1  0
  5  3  1  0
  5  6  1  1
  7  8  2  0
 10  7  1  0
 10  9  2  0
 12  9  1  0
 12 21  1  0
 12 11  1  0
 13 21  1  0
 14 19  1  0
 15 16  1  0
 15 14  1  0
 17 16  1  0
 17 26  1  0
 17 18  1  0
 19 13  1  0
 19 18  1  0
 20 13  2  0
 21 22  1  0
 23 24  2  0
 24 43  1  0
 25 24  1  0
 25 28  1  0
 26 27  1  0
 26 23  1  0
 27 25  2  0
 28 29  1  0
 29 30  2  0
 31 34  1  0
 31 30  1  0
 32 31  2  0
 33 32  1  0
 33 28  2  0
 34 35  1  0
 35 36  1  0
 36 37  2  0
 38 37  1  0
 38 42  1  0
 39 38  2  0
 40 35  2  0
 40 39  1  0
 41 40  1  0
 43 44  1  0
 44 47  1  0
 44 46  1  0
 45 43  2  0
 48 49  1  0
 48 23  1  0
 50 48  1  0
 51 52  1  0
 51  5  1  0
 53 52  1  0
 54 65  2  0
 55 53  1  0
 55 60  1  0
 56 64  1  0
 56 66  1  0
 57 63  1  0
 57 59  1  0
 58 64  1  0
 59 58  1  0
 60 59  2  0
 61 62  1  0
 61 55  2  0
 62 57  2  0
 63 56  1  0
 64 54  1  0
 66 68  2  0
 67 66  1  0
 69 67  1  0
 70 79  2  0
 70 75  1  0
 71 67  1  0
 71 75  1  0
 72 71  1  0
 73 74  1  0
 73 72  1  0
 74 70  1  0
 75 76  2  0
 76 77  1  0
 78 77  2  0
 79 78  1  0
 80 54  1  0
 80 81  1  0
 80 90  1  0
 81 84  1  0
 82 86  1  0
 82 81  1  0
 83 82  2  0
 86 85  1  0
 88 86  1  0
 88 89  1  0
 88 87  1  0
 90 93  1  1
 90 91  1  0
 92 90  1  0
M  ISO  4  13 100  21 100  52 101  53 101
M  END
>  <TORSDO>  (79) 
F 21

>  <SCORE>  (79) 
-12.932

>  <name>  (79) 
79

>  <ligand_id>  (79) 
79

>  <original_smiles>  (79) 
[H]C(=NC(=O)C1([H])C([H])([H])C([H])([H])C([H])([H])[N+]1([H])C([H])([H])C([H])([H])Oc1c([H])c([H])c2c(c1[H])C([H])([H])N(C(=O)C([H])(N([H])C(=O)C([H])(N([H])C([H])([H])[H])C([H])([H])[H])C(C([H])([H])[H])(C([H])([H])[H])C([H])([H])[H])C([H])(C(=O)N([H])C1([H])c3c([H])c([H])c([H])c([H])c3C([H])([H])C([H])([H])C1([H])[H])C2([H])[H])C([H])(N([H])C(=O)N1C([H])([H])C([H])([H])C([H])([H])C([H])(n2nc(-c3c([H])c([H])c(Oc4c([H])c([H])c(F)c([H])c4F)c([H])c3[H])c(C(=O)N([H])[H])c2N([H])[H])C1([H])[H])C([H])([H])[H]

>  <smiles>  (79) 
[H]C(=NC(=O)C1([H])C([H])([H])C([H])([H])C([H])([H])[N+]1([H])C([H])([H])C([H])([H])Oc1c([H])c([H])c2c(c1[H])C([H])([H])N(C(=O)C([H])(N([H])C(=O)C([H])(N([H])C([H])([H])[H])C([H])([H])[H])C(C([H])([H])[H])(C([H])([H])[H])C([H])([H])[H])C([H])(C(=O)N([H])C1([H])c3c([H])c([H])c([H])c([H])c3C([H])([H])C([H])([H])C1([H])[H])C2([H])[H])C([H])(N([H])C(=O)N1C([H])([H])C([H])([H])C([H])([H])C([H])(n2nc(-c3c([H])c([H])c(Oc4c([H])c([H])c(F)c([H])c4F)c([H])c3[H])c(C(=O)N([H])[H])c2N([H])[H])C1([H])[H])C([H])([H])[H]

$$$$
80:0:0
     RDKit          3D

 92 99  0  0  1  0  0  0  0  0999 V2000
  -28.8610  -22.7000   19.8590 C   0  0  0  0  0  3  0  0  0  0  0  0
  -29.1630  -19.7520   19.9550 C   0  0  0  0  0  0  0  0  0  0  0  0
  -29.0420  -21.1420   20.4850 N   0  0  0  0  0  0  0  0  0  0  0  0
  -28.7910  -19.6100   18.7910 O   0  0  0  0  0  0  0  0  0  0  0  0
  -29.2820  -21.1720   21.4680 H   0  0  0  0  0  0  0  0  0  0  0  0
  -31.3420  -18.5240   20.6540 C   0  0  0  0  0  1  0  0  0  0  0  0
  -29.8240  -18.2700   20.6470 C   0  0  0  0  0  3  0  0  0  0  0  0
  -30.4050  -15.3440   20.2570 C   0  0  0  0  0  0  0  0  0  0  0  0
  -30.3980  -12.8970   19.3580 C   0  0  0  0  0  2  0  0  0  0  0  0
  -29.4720  -12.6580   18.1390 C   0  0  0  0  0  2  0  0  0  0  0  0
  -28.0300  -12.3690   18.5950 C   0  0  0  0  0  2  0  0  0  0  0  0
  -27.5730  -13.3350   19.7160 C   0  0  0  0  0  3  0  0  0  0  0  0
  -28.6280  -13.5080   20.8290 C   0  0  0  0  0  2  0  0  0  0  0  0
  -29.8390  -14.0360   20.1750 N   0  0  0  0  0  0  0  0  0  0  0  0
  -31.6340  -15.3270   20.0930 O   0  0  0  0  0  0  0  0  0  0  0  0
  -29.6360  -16.6210   20.3360 N   0  0  0  0  0  0  0  0  0  0  0  0
  -28.6500  -16.4080   20.2890 H   0  0  0  0  0  0  0  0  0  0  0  0
  -25.2070  -13.8760   20.4880 C   0  0  0  0  0  0  0  0  0  0  0  0
  -24.1510  -13.0920   20.8590 C   0  0  0  0  0  0  0  0  0  0  0  0
  -24.6270  -11.7450   20.8230 C   0  0  0  0  0  0  0  0  0  0  0  0
  -26.2530  -13.0080   20.2370 N   0  0  0  0  0  0  0  0  0  0  0  0
  -25.9170  -11.7200   20.5080 N   0  0  0  0  0  0  0  0  0  0  0  0
  -23.9070  -10.4780   21.0110 C   0  0  0  0  0  0  0  0  0  0  0  0
  -24.3340   -9.5170   21.9540 C   0  0  0  0  0  3  0  0  0  0  0  0
  -23.6120   -8.3170   22.1320 C   0  0  0  0  0  3  0  0  0  0  0  0
  -22.4480   -8.0690   21.3670 C   0  0  0  0  0  0  0  0  0  0  0  0
  -22.0390   -9.0190   20.4130 C   0  0  0  0  0  3  0  0  0  0  0  0
  -22.7630  -10.2100   20.2340 C   0  0  0  0  0  3  0  0  0  0  0  0
  -21.6990   -6.9210   21.4520 O   0  0  0  0  0  0  0  0  0  0  0  0
  -21.6300   -6.1920   22.6120 C   0  0  0  0  0  0  0  0  0  0  0  0
  -21.1600   -6.7530   23.8190 C   0  0  0  0  0  3  0  0  0  0  0  0
  -21.0410   -5.9480   24.9700 C   0  0  0  0  0  3  0  0  0  0  0  0
  -21.3820   -4.5840   24.9150 C   0  0  0  0  0  0  0  0  0  0  0  0
  -21.8450   -4.0220   23.7110 C   0  0  0  0  0  3  0  0  0  0  0  0
  -21.9650   -4.8230   22.5630 C   0  0  0  0  0  0  0  0  0  0  0  0
  -22.3920   -4.2720   21.4010 F   0  0  0  0  0  0  0  0  0  0  0  0
  -21.2610   -3.8080   26.0180 F   0  0  0  0  0  0  0  0  0  0  0  0
  -22.7520  -13.5600   21.1280 C   0  0  0  0  0  0  0  0  0  0  0  0
  -22.0260  -12.8570   21.9900 N   0  0  0  0  0  0  0  0  0  0  0  0
  -22.3100  -14.5860   20.6120 O   0  0  0  0  0  0  0  0  0  0  0  0
  -22.3950  -12.0290   22.4320 H   0  0  0  0  0  0  0  0  0  0  0  0
  -21.0860  -13.1530   22.2130 H   0  0  0  0  0  0  0  0  0  0  0  0
  -25.3550  -15.2480   20.3110 N   0  0  0  0  0  0  0  0  0  0  0  0
  -24.5740  -15.8860   20.4130 H   0  0  0  0  0  0  0  0  0  0  0  0
  -26.1800  -15.6940   19.9340 H   0  0  0  0  0  0  0  0  0  0  0  0
  -30.2940  -23.0350   19.3440 C   0  0  0  0  0  2  0  0  0  0  0  0
  -31.5550  -23.2180   17.1640 C   0  0  0  0  0  1  0  0  0  0  0  0
  -29.2240  -24.0850   17.2070 C   0  0  0  0  0  1  0  0  0  0  0  0
  -31.0650  -25.2900   18.4330 C   0  0  0  0  0  1  0  0  0  0  0  0
  -30.4990  -23.9050   18.0580 C   0  0  1  0  0  0  0  0  0  0  0  0
  -28.1170  -24.2330   20.5110 C   0  0  0  0  0  2  0  0  0  0  0  0
  -28.2470  -25.8710   20.2360 O   0  0  0  0  0  0  0  0  0  0  0  0
  -24.6410  -31.8670   23.1910 C   0  0  0  0  0  0  0  0  0  0  0  0
  -27.2080  -26.9480   20.2350 C   0  0  0  0  0  0  0  0  0  0  0  0
  -23.4520  -30.4520   21.5660 C   0  0  0  0  0  3  0  0  0  0  0  0
  -24.9040  -28.8280   20.1670 C   0  0  0  0  0  0  0  0  0  0  0  0
  -26.0190  -30.6640   21.4190 C   0  0  0  0  0  2  0  0  0  0  0  0
  -26.0920  -29.2440   20.7810 C   0  0  0  0  0  0  0  0  0  0  0  0
  -27.2410  -28.3270   20.7820 C   0  0  0  0  0  3  0  0  0  0  0  0
  -25.9860  -26.6820   19.5820 C   0  0  0  0  0  3  0  0  0  0  0  0
  -24.8760  -27.5680   19.5470 C   0  0  0  0  0  3  0  0  0  0  0  0
  -23.6860  -29.7520   20.1980 C   0  0  0  0  0  2  0  0  0  0  0  0
  -24.7260  -31.0220   22.1120 N   0  0  0  0  0  0  0  0  0  0  0  0
  -23.5500  -32.1590   23.7080 O   0  0  0  0  0  0  0  0  0  0  0  0
  -22.7580  -29.4660   22.5420 C   0  0  0  0  0  0  0  0  0  0  0  0
  -21.4260  -29.3040   22.4230 N   0  0  0  0  0  0  0  0  0  0  0  0
  -23.4230  -28.8460   23.3750 O   0  0  0  0  0  0  0  0  0  0  0  0
  -20.9410  -29.8540   21.7280 H   0  0  0  0  0  0  0  0  0  0  0  0
  -18.0420  -28.1050   22.9540 C   0  0  0  0  0  0  0  0  0  0  0  0
  -20.6040  -28.3720   23.2040 C   0  0  0  0  0  3  0  0  0  0  0  0
  -20.7010  -26.9360   22.6390 C   0  0  0  0  0  2  0  0  0  0  0  0
  -19.5940  -26.6070   21.6320 C   0  0  0  0  0  2  0  0  0  0  0  0
  -18.2160  -26.7540   22.2810 C   0  0  0  0  0  2  0  0  0  0  0  0
  -19.1630  -28.8720   23.3730 C   0  0  0  0  0  0  0  0  0  0  0  0
  -18.9430  -30.1340   23.9660 C   0  0  0  0  0  3  0  0  0  0  0  0
  -17.6370  -30.6300   24.1420 C   0  0  0  0  0  3  0  0  0  0  0  0
  -16.5330  -29.8620   23.7370 C   0  0  0  0  0  3  0  0  0  0  0  0
  -16.7350  -28.6020   23.1490 C   0  0  0  0  0  3  0  0  0  0  0  0
  -25.9090  -32.5200   23.8200 C   0  0  0  0  0  3  0  0  0  0  0  0
  -25.5850  -33.9210   24.1450 N   0  0  0  0  0  0  0  0  0  0  0  0
  -25.9180  -34.9800   23.3950 C   0  0  0  0  0  0  0  0  0  0  0  0
  -26.5920  -34.8810   22.3660 O   0  0  0  0  0  0  0  0  0  0  0  0
  -24.9850  -34.0700   24.9420 H   0  0  0  0  0  0  0  0  0  0  0  0
  -24.1930  -36.7820   23.0450 C   0  0  0  0  0  1  0  0  0  0  0  0
  -25.4300  -36.3700   23.8580 C   0  0  0  0  0  3  0  0  0  0  0  0
  -27.5600  -37.2550   24.7030 C   0  0  0  0  0  1  0  0  0  0  0  0
  -26.4640  -37.4230   23.7530 N   0  0  0  0  0  0  0  0  0  0  0  0
  -26.0560  -38.3430   23.8980 H   0  0  0  0  0  0  0  0  0  0  0  0
  -26.4140  -31.7680   25.1130 C   0  0  1  0  0  0  0  0  0  0  0  0
  -25.3120  -31.5450   26.1770 C   0  0  0  0  0  1  0  0  0  0  0  0
  -27.0020  -30.3850   24.7550 C   0  0  0  0  0  1  0  0  0  0  0  0
  -27.5590  -32.5730   25.7740 C   0  0  0  0  0  1  0  0  0  0  0  0
  1 46  1  0
  1  3  1  0
  1 51  1  0
  2  3  1  0
  2  7  1  0
  3  5  1  0
  4  2  2  0
  7  6  1  0
  8 16  1  0
  9 14  1  0
 10 11  1  0
 10  9  1  0
 12 11  1  0
 12 21  1  0
 12 13  1  0
 14  8  1  0
 14 13  1  0
 15  8  2  0
 16  7  1  0
 17 16  1  0
 18 19  2  0
 19 38  1  0
 20 19  1  0
 20 23  1  0
 21 18  1  0
 21 22  1  0
 22 20  2  0
 23 24  1  0
 24 25  2  0
 26 29  1  0
 26 25  1  0
 27 26  2  0
 28 27  1  0
 28 23  2  0
 29 30  1  0
 30 31  1  0
 31 32  2  0
 33 32  1  0
 33 37  1  0
 34 33  2  0
 35 30  2  0
 35 34  1  0
 36 35  1  0
 38 39  1  0
 39 42  1  0
 39 41  1  0
 40 38  2  0
 43 44  1  0
 43 18  1  0
 45 43  1  0
 50 47  1  6
 48 50  1  0
 50 49  1  0
 50 46  1  0
 52 51  1  0
 53 64  2  0
 54 52  1  0
 54 59  1  0
 55 63  1  0
 55 65  1  0
 56 62  1  0
 56 58  1  0
 57 63  1  0
 58 59  2  0
 58 57  1  0
 60 54  2  0
 61 60  1  0
 61 56  2  0
 62 55  1  0
 63 53  1  0
 65 67  2  0
 66 65  1  0
 68 66  1  0
 69 78  2  0
 69 74  1  0
 70 66  1  0
 70 74  1  0
 71 70  1  0
 72 73  1  0
 72 71  1  0
 73 69  1  0
 74 75  2  0
 75 76  1  0
 77 76  2  0
 78 77  1  0
 79 53  1  0
 79 80  1  0
 79 89  1  0
 80 83  1  0
 81 85  1  0
 81 80  1  0
 82 81  2  0
 85 84  1  0
 87 85  1  0
 87 88  1  0
 87 86  1  0
 89 92  1  1
 89 90  1  0
 91 89  1  0
M  ISO  4   8 100  16 100  51 101  52 101
M  END
>  <TORSDO>  (80) 
F 21

>  <SCORE>  (80) 
-15.939

>  <name>  (80) 
80

>  <ligand_id>  (80) 
80

>  <original_smiles>  (80) 
[H]c1c([H])c([H])c2c(c1[H])C([H])([H])C([H])([H])C([H])([H])C2([H])N([H])C(=O)C1([H])N(C(=O)C([H])(N([H])C(=O)C([H])(N([H])C([H])([H])[H])C([H])([H])[H])C(C([H])([H])[H])(C([H])([H])[H])C([H])([H])[H])C([H])([H])c2c([H])c(OC([H])([H])C([H])(N([H])C(=O)C([H])(N([H])C(=O)N3C([H])([H])C([H])([H])C([H])([H])C([H])(n4nc(-c5c([H])c([H])c(Oc6c([H])c([H])c(F)c([H])c6F)c([H])c5[H])c(C(=O)N([H])[H])c4N([H])[H])C3([H])[H])C([H])([H])[H])C([H])([H])C(C([H])([H])[H])(C([H])([H])[H])C([H])([H])[H])c([H])c([H])c2C1([H])[H]

>  <smiles>  (80) 
[H]c1c([H])c([H])c2c(c1[H])C([H])([H])C([H])([H])C([H])([H])C2([H])N([H])C(=O)C1([H])N(C(=O)C([H])(N([H])C(=O)C([H])(N([H])C([H])([H])[H])C([H])([H])[H])C(C([H])([H])[H])(C([H])([H])[H])C([H])([H])[H])C([H])([H])c2c([H])c(OC([H])([H])C([H])(N([H])C(=O)C([H])(N([H])C(=O)N3C([H])([H])C([H])([H])C([H])([H])C([H])(n4nc(-c5c([H])c([H])c(Oc6c([H])c([H])c(F)c([H])c6F)c([H])c5[H])c(C(=O)N([H])[H])c4N([H])[H])C3([H])[H])C([H])([H])[H])C([H])([H])C(C([H])([H])[H])(C([H])([H])[H])C([H])([H])[H])c([H])c([H])c2C1([H])[H]

$$$$
81:0:0
     RDKit          3D

 86 93  0  0  1  0  0  0  0  0999 V2000
  -28.7250  -22.7500   20.5790 C   0  0  0  0  0  0  0  0  0  0  0  0
  -28.8410  -21.3510   20.0620 N   0  0  0  0  0  0  0  0  0  0  0  0
  -29.1550  -22.9050   21.7240 O   0  0  0  0  0  0  0  0  0  0  0  0
  -28.5310  -21.3120   19.0990 H   0  0  0  0  0  0  0  0  0  0  0  0
  -28.0220  -24.2200   19.8880 C   0  0  0  0  0  2  0  0  0  0  0  0
  -28.1810  -25.8160   20.3270 O   0  0  0  0  0  0  0  0  0  0  0  0
  -24.6460  -31.8650   23.1900 C   0  0  0  0  0  0  0  0  0  0  0  0
  -27.1910  -26.9380   20.2110 C   0  0  0  0  0  0  0  0  0  0  0  0
  -23.4510  -30.4600   21.5590 C   0  0  0  0  0  3  0  0  0  0  0  0
  -24.9000  -28.8410   20.1460 C   0  0  0  0  0  0  0  0  0  0  0  0
  -26.0200  -30.6560   21.4210 C   0  0  0  0  0  2  0  0  0  0  0  0
  -26.0860  -29.2400   20.7720 C   0  0  0  0  0  0  0  0  0  0  0  0
  -27.2230  -28.3080   20.7840 C   0  0  0  0  0  3  0  0  0  0  0  0
  -25.9790  -26.7040   19.5210 C   0  0  0  0  0  3  0  0  0  0  0  0
  -24.8730  -27.5950   19.4990 C   0  0  0  0  0  3  0  0  0  0  0  0
  -23.6830  -29.7660   20.1870 C   0  0  0  0  0  2  0  0  0  0  0  0
  -24.7280  -31.0220   22.1090 N   0  0  0  0  0  0  0  0  0  0  0  0
  -23.5560  -32.1610   23.7070 O   0  0  0  0  0  0  0  0  0  0  0  0
  -22.7510  -29.4750   22.5310 C   0  0  0  0  0  0  0  0  0  0  0  0
  -21.4200  -29.3200   22.4100 N   0  0  0  0  0  0  0  0  0  0  0  0
  -23.4130  -28.8500   23.3630 O   0  0  0  0  0  0  0  0  0  0  0  0
  -20.9380  -29.8750   21.7160 H   0  0  0  0  0  0  0  0  0  0  0  0
  -18.0300  -28.1280   22.9270 C   0  0  0  0  0  0  0  0  0  0  0  0
  -20.5920  -28.3910   23.1880 C   0  0  0  0  0  3  0  0  0  0  0  0
  -20.6890  -26.9540   22.6240 C   0  0  0  0  0  2  0  0  0  0  0  0
  -19.5860  -26.6270   21.6110 C   0  0  0  0  0  2  0  0  0  0  0  0
  -18.2040  -26.7760   22.2560 C   0  0  0  0  0  2  0  0  0  0  0  0
  -19.1510  -28.8920   23.3510 C   0  0  0  0  0  0  0  0  0  0  0  0
  -18.9320  -30.1550   23.9430 C   0  0  0  0  0  3  0  0  0  0  0  0
  -17.6260  -30.6550   24.1130 C   0  0  0  0  0  3  0  0  0  0  0  0
  -16.5220  -29.8880   23.7040 C   0  0  0  0  0  3  0  0  0  0  0  0
  -16.7240  -28.6260   23.1170 C   0  0  0  0  0  3  0  0  0  0  0  0
  -25.9170  -32.5090   23.8220 C   0  0  0  0  0  3  0  0  0  0  0  0
  -26.4230  -31.7460   25.1090 C   0  0  1  0  0  0  0  0  0  0  0  0
  -25.3230  -31.5200   26.1740 C   0  0  0  0  0  1  0  0  0  0  0  0
  -27.0050  -30.3630   24.7410 C   0  0  0  0  0  1  0  0  0  0  0  0
  -27.5730  -32.5420   25.7720 C   0  0  0  0  0  1  0  0  0  0  0  0
  -25.5980  -33.9090   24.1570 N   0  0  0  0  0  0  0  0  0  0  0  0
  -25.9300  -34.9720   23.4130 C   0  0  0  0  0  0  0  0  0  0  0  0
  -26.5990  -34.8790   22.3820 O   0  0  0  0  0  0  0  0  0  0  0  0
  -25.0020  -34.0540   24.9580 H   0  0  0  0  0  0  0  0  0  0  0  0
  -24.2010  -36.7750   23.0900 C   0  0  0  0  0  1  0  0  0  0  0  0
  -25.4470  -36.3590   23.8880 C   0  0  0  0  0  3  0  0  0  0  0  0
  -27.5870  -37.2400   24.7120 C   0  0  0  0  0  1  0  0  0  0  0  0
  -26.4790  -37.4140   23.7760 N   0  0  0  0  0  0  0  0  0  0  0  0
  -26.0740  -38.3320   23.9320 H   0  0  0  0  0  0  0  0  0  0  0  0
  -29.1200  -19.7980   20.6660 C   0  0  0  0  0  2  0  0  0  0  0  0
  -29.8280  -18.2610   19.9970 C   0  0  0  0  0  2  0  0  0  0  0  0
  -30.4160  -15.3400   20.2120 C   0  0  0  0  0  0  0  0  0  0  0  0
  -30.3850  -12.8860   19.3430 C   0  0  0  0  0  2  0  0  0  0  0  0
  -29.4590  -12.6810   18.1170 C   0  0  0  0  0  2  0  0  0  0  0  0
  -28.0130  -12.4050   18.5670 C   0  0  0  0  0  2  0  0  0  0  0  0
  -27.5720  -13.3620   19.7030 C   0  0  0  0  0  3  0  0  0  0  0  0
  -28.6280  -13.5140   20.8190 C   0  0  0  0  0  2  0  0  0  0  0  0
  -29.8530  -14.0280   20.1810 N   0  0  0  0  0  0  0  0  0  0  0  0
  -31.6220  -15.3370   19.9210 O   0  0  0  0  0  0  0  0  0  0  0  0
  -29.6630  -16.6220   20.3640 N   0  0  0  0  0  0  0  0  0  0  0  0
  -28.7150  -16.4170   20.6450 H   0  0  0  0  0  0  0  0  0  0  0  0
  -25.2070  -13.9120   20.4730 C   0  0  0  0  0  0  0  0  0  0  0  0
  -24.1500  -13.1320   20.8510 C   0  0  0  0  0  0  0  0  0  0  0  0
  -24.6210  -11.7830   20.8200 C   0  0  0  0  0  0  0  0  0  0  0  0
  -26.2500  -13.0390   20.2220 N   0  0  0  0  0  0  0  0  0  0  0  0
  -25.9100  -11.7530   20.5000 N   0  0  0  0  0  0  0  0  0  0  0  0
  -23.8980  -10.5200   21.0170 C   0  0  0  0  0  0  0  0  0  0  0  0
  -24.3420   -9.5490   21.9430 C   0  0  0  0  0  3  0  0  0  0  0  0
  -23.6160   -8.3540   22.1300 C   0  0  0  0  0  3  0  0  0  0  0  0
  -22.4320   -8.1180   21.3930 C   0  0  0  0  0  0  0  0  0  0  0  0
  -22.0070   -9.0770   20.4550 C   0  0  0  0  0  3  0  0  0  0  0  0
  -22.7330  -10.2640   20.2660 C   0  0  0  0  0  3  0  0  0  0  0  0
  -21.6760   -6.9750   21.4890 O   0  0  0  0  0  0  0  0  0  0  0  0
  -21.6500   -6.2250   22.6370 C   0  0  0  0  0  0  0  0  0  0  0  0
  -21.2600   -6.7740   23.8780 C   0  0  0  0  0  3  0  0  0  0  0  0
  -21.1810   -5.9500   25.0190 C   0  0  0  0  0  3  0  0  0  0  0  0
  -21.4810   -4.5790   24.9200 C   0  0  0  0  0  0  0  0  0  0  0  0
  -21.8640   -4.0290   23.6840 C   0  0  0  0  0  3  0  0  0  0  0  0
  -21.9440   -4.8490   22.5460 C   0  0  0  0  0  0  0  0  0  0  0  0
  -22.2930   -4.3090   21.3530 F   0  0  0  0  0  0  0  0  0  0  0  0
  -21.3980   -3.7860   26.0150 F   0  0  0  0  0  0  0  0  0  0  0  0
  -22.7530  -13.6070   21.1260 C   0  0  0  0  0  0  0  0  0  0  0  0
  -22.0320  -12.9140   22.0000 N   0  0  0  0  0  0  0  0  0  0  0  0
  -22.3120  -14.6280   20.6000 O   0  0  0  0  0  0  0  0  0  0  0  0
  -22.4040  -12.0890   22.4460 H   0  0  0  0  0  0  0  0  0  0  0  0
  -21.0950  -13.2140   22.2270 H   0  0  0  0  0  0  0  0  0  0  0  0
  -25.3620  -15.2830   20.2890 N   0  0  0  0  0  0  0  0  0  0  0  0
  -24.5880  -15.9300   20.3980 H   0  0  0  0  0  0  0  0  0  0  0  0
  -26.1930  -15.7200   19.9130 H   0  0  0  0  0  0  0  0  0  0  0  0
  1  3  2  0
  2  1  1  0
  2 47  1  0
  4  2  1  0
  5  6  1  0
  5  1  1  0
  7 18  2  0
  8  6  1  0
  8 13  1  0
  9 17  1  0
  9 19  1  0
 10 16  1  0
 10 12  1  0
 11 17  1  0
 12 13  2  0
 12 11  1  0
 14  8  2  0
 15 14  1  0
 15 10  2  0
 16  9  1  0
 17  7  1  0
 19 21  2  0
 20 19  1  0
 22 20  1  0
 23 32  2  0
 23 28  1  0
 24 20  1  0
 24 28  1  0
 25 24  1  0
 26 27  1  0
 26 25  1  0
 27 23  1  0
 28 29  2  0
 29 30  1  0
 31 30  2  0
 32 31  1  0
 33  7  1  0
 33 38  1  0
 33 34  1  0
 34 37  1  1
 34 35  1  0
 36 34  1  0
 38 41  1  0
 39 43  1  0
 39 38  1  0
 40 39  2  0
 43 42  1  0
 45 43  1  0
 45 46  1  0
 45 44  1  0
 48 57  1  0
 48 47  1  0
 49 57  1  0
 50 55  1  0
 51 52  1  0
 51 50  1  0
 53 52  1  0
 53 62  1  0
 53 54  1  0
 55 49  1  0
 55 54  1  0
 56 49  2  0
 57 58  1  0
 59 60  2  0
 60 79  1  0
 61 60  1  0
 61 64  1  0
 62 59  1  0
 62 63  1  0
 63 61  2  0
 64 65  1  0
 65 66  2  0
 67 70  1  0
 67 66  1  0
 68 67  2  0
 69 68  1  0
 69 64  2  0
 70 71  1  0
 71 72  1  0
 72 73  2  0
 74 73  1  0
 74 78  1  0
 75 74  2  0
 76 71  2  0
 76 75  1  0
 77 76  1  0
 79 80  1  0
 80 83  1  0
 80 82  1  0
 81 79  2  0
 84 85  1  0
 84 59  1  0
 86 84  1  0
M  ISO  4   5 101   6 101  49 100  57 100
M  END
>  <TORSDO>  (81) 
F 19

>  <SCORE>  (81) 
-16.442

>  <name>  (81) 
81

>  <ligand_id>  (81) 
81

>  <original_smiles>  (81) 
[H]c1c([H])c([H])c2c(c1[H])C([H])([H])C([H])([H])C([H])([H])C2([H])N([H])C(=O)C1([H])N(C(=O)C([H])(N([H])C(=O)C([H])(N([H])C([H])([H])[H])C([H])([H])[H])C(C([H])([H])[H])(C([H])([H])[H])C([H])([H])[H])C([H])([H])c2c([H])c(OC([H])([H])C(=O)N([H])C([H])([H])C([H])([H])N([H])C(=O)N3C([H])([H])C([H])([H])C([H])([H])C([H])(n4nc(-c5c([H])c([H])c(Oc6c([H])c([H])c(F)c([H])c6F)c([H])c5[H])c(C(=O)N([H])[H])c4N([H])[H])C3([H])[H])c([H])c([H])c2C1([H])[H]

>  <smiles>  (81) 
[H]c1c([H])c([H])c2c(c1[H])C([H])([H])C([H])([H])C([H])([H])C2([H])N([H])C(=O)C1([H])N(C(=O)C([H])(N([H])C(=O)C([H])(N([H])C([H])([H])[H])C([H])([H])[H])C(C([H])([H])[H])(C([H])([H])[H])C([H])([H])[H])C([H])([H])c2c([H])c(OC([H])([H])C(=O)N([H])C([H])([H])C([H])([H])N([H])C(=O)N3C([H])([H])C([H])([H])C([H])([H])C([H])(n4nc(-c5c([H])c([H])c(Oc6c([H])c([H])c(F)c([H])c6F)c([H])c5[H])c(C(=O)N([H])[H])c4N([H])[H])C3([H])[H])c([H])c([H])c2C1([H])[H]

$$$$
82:0:0
     RDKit          3D

105112  0  0  1  0  0  0  0  0999 V2000
  -33.5380  -19.1940   21.8650 C   0  0  0  0  0  3  0  0  0  0  0  0
  -31.8040  -17.4450   21.3990 C   0  0  0  0  0  0  0  0  0  0  0  0
  -32.5060  -18.5350   21.0680 N   0  0  0  0  0  0  0  0  0  0  0  0
  -31.9050  -16.8670   22.4840 O   0  0  0  0  0  0  0  0  0  0  0  0
  -32.3270  -18.9220   20.1510 H   0  0  0  0  0  0  0  0  0  0  0  0
  -30.8360  -16.9340   20.3270 C   0  0  0  0  0  3  0  0  0  0  0  0
  -31.1280  -14.4890   20.3310 C   0  0  0  0  0  0  0  0  0  0  0  0
  -30.7420  -12.3300   19.2450 C   0  0  0  0  0  2  0  0  0  0  0  0
  -29.7900  -12.5700   18.0550 C   0  0  0  0  0  2  0  0  0  0  0  0
  -28.3210  -12.4750   18.5110 C   0  0  0  0  0  2  0  0  0  0  0  0
  -28.0240  -13.3200   19.7800 C   0  0  0  0  0  3  0  0  0  0  0  0
  -29.1000  -13.0900   20.8690 C   0  0  0  0  0  2  0  0  0  0  0  0
  -30.4210  -13.3310   20.2680 N   0  0  0  0  0  0  0  0  0  0  0  0
  -32.2730  -14.6100   19.8940 O   0  0  0  0  0  0  0  0  0  0  0  0
  -30.4040  -15.5700   20.6400 N   0  0  0  0  0  0  0  0  0  0  0  0
  -29.4700  -15.4380   20.9930 H   0  0  0  0  0  0  0  0  0  0  0  0
  -25.6530  -13.9810   20.5340 C   0  0  0  0  0  0  0  0  0  0  0  0
  -24.5780  -13.2300   20.9270 C   0  0  0  0  0  0  0  0  0  0  0  0
  -25.0110  -11.8690   20.8900 C   0  0  0  0  0  0  0  0  0  0  0  0
  -26.6760  -13.0770   20.2870 N   0  0  0  0  0  0  0  0  0  0  0  0
  -26.2930  -11.8030   20.5590 N   0  0  0  0  0  0  0  0  0  0  0  0
  -24.2640  -10.6230   21.1000 C   0  0  0  0  0  0  0  0  0  0  0  0
  -24.6560   -9.6840   22.0800 C   0  0  0  0  0  3  0  0  0  0  0  0
  -23.9120   -8.5000   22.2740 C   0  0  0  0  0  3  0  0  0  0  0  0
  -22.7610   -8.2480   21.4890 C   0  0  0  0  0  0  0  0  0  0  0  0
  -22.3900   -9.1750   20.4990 C   0  0  0  0  0  3  0  0  0  0  0  0
  -23.1350  -10.3500   20.3030 C   0  0  0  0  0  3  0  0  0  0  0  0
  -21.9920   -7.1140   21.5900 O   0  0  0  0  0  0  0  0  0  0  0  0
  -21.8390   -6.4530   22.7820 C   0  0  0  0  0  0  0  0  0  0  0  0
  -21.3410   -7.0990   23.9340 C   0  0  0  0  0  3  0  0  0  0  0  0
  -21.1330   -6.3640   25.1190 C   0  0  0  0  0  3  0  0  0  0  0  0
  -21.4110   -4.9850   25.1510 C   0  0  0  0  0  0  0  0  0  0  0  0
  -21.9010   -4.3380   24.0030 C   0  0  0  0  0  3  0  0  0  0  0  0
  -22.1110   -5.0700   22.8200 C   0  0  0  0  0  0  0  0  0  0  0  0
  -22.5620   -4.4370   21.7120 F   0  0  0  0  0  0  0  0  0  0  0  0
  -21.2050   -4.2780   26.2870 F   0  0  0  0  0  0  0  0  0  0  0  0
  -23.1950  -13.7360   21.2250 C   0  0  0  0  0  0  0  0  0  0  0  0
  -22.4870  -13.0810   22.1400 N   0  0  0  0  0  0  0  0  0  0  0  0
  -22.7520  -14.7470   20.6820 O   0  0  0  0  0  0  0  0  0  0  0  0
  -22.8600  -12.2660   22.6030 H   0  0  0  0  0  0  0  0  0  0  0  0
  -21.5610  -13.4030   22.3800 H   0  0  0  0  0  0  0  0  0  0  0  0
  -25.8400  -15.3470   20.3500 N   0  0  0  0  0  0  0  0  0  0  0  0
  -25.0860  -16.0120   20.4870 H   0  0  0  0  0  0  0  0  0  0  0  0
  -26.6970  -15.7780   20.0320 H   0  0  0  0  0  0  0  0  0  0  0  0
  -29.6010  -17.8540   20.2440 C   0  0  0  0  0  2  0  0  0  0  0  0
  -29.3130  -18.2820   18.7910 C   0  0  0  0  0  2  0  0  0  0  0  0
  -28.5270  -19.5950   18.6660 C   0  0  0  0  0  2  0  0  0  0  0  0
  -28.6050  -20.1690   17.2360 C   0  0  0  0  0  2  0  0  0  0  0  0
  -28.0410  -21.5240   17.1360 N   0  0  0  0  0  4  0  0  0  0  0  0
  -27.0740  -21.5320   17.4030 H   0  0  0  0  0  0  0  0  0  0  0  0
  -28.1080  -21.8460   16.1880 H   0  0  0  0  0  0  0  0  0  0  0  0
  -28.5490  -22.1650   17.7190 H   0  0  0  0  0  0  0  0  0  0  0  0
  -34.7500  -19.5610   20.9710 C   0  0  0  0  0  2  0  0  0  0  0  0
  -35.3830  -19.5800   18.5110 C   0  0  0  0  0  1  0  0  0  0  0  0
  -34.9450  -18.7000   19.6950 C   0  0  0  0  0  3  0  0  0  0  0  0
  -36.0910  -16.6130   18.7040 C   0  0  0  0  0  1  0  0  0  0  0  0
  -35.9310  -17.5340   19.9220 C   0  0  0  0  0  2  0  0  0  0  0  0
  -32.9580  -20.4440   22.5670 C   0  0  0  0  0  2  0  0  0  0  0  0
  -31.4200  -20.4520   22.6670 C   0  0  0  0  0  2  0  0  0  0  0  0
  -30.8550  -21.8000   23.1400 C   0  0  0  0  0  2  0  0  0  0  0  0
  -29.3910  -21.9900   22.7210 C   0  0  0  0  0  2  0  0  0  0  0  0
  -28.8450  -23.3920   23.0560 C   0  0  0  0  0  2  0  0  0  0  0  0
  -27.4600  -23.6620   22.4400 C   0  0  0  0  0  2  0  0  0  0  0  0
  -27.4770  -23.8890   20.9150 C   0  0  0  0  0  2  0  0  0  0  0  0
  -27.8800  -25.2310   20.6020 O   0  0  0  0  0  0  0  0  0  0  0  0
  -24.6890  -30.8610   23.5220 C   0  0  0  0  0  0  0  0  0  0  0  0
  -26.8570  -26.1450   20.5100 C   0  0  0  0  0  0  0  0  0  0  0  0
  -23.4350  -29.7340   21.7110 C   0  0  0  0  0  3  0  0  0  0  0  0
  -24.7530  -28.0210   20.3540 C   0  0  0  0  0  0  0  0  0  0  0  0
  -25.9930  -29.6750   21.7640 C   0  0  0  0  0  2  0  0  0  0  0  0
  -25.9160  -28.3310   21.0700 C   0  0  0  0  0  0  0  0  0  0  0  0
  -26.9750  -27.4000   21.1420 C   0  0  0  0  0  3  0  0  0  0  0  0
  -25.6860  -25.8520   19.7770 C   0  0  0  0  0  3  0  0  0  0  0  0
  -24.6310  -26.7810   19.7040 C   0  0  0  0  0  3  0  0  0  0  0  0
  -23.6670  -29.0720   20.3260 C   0  0  0  0  0  2  0  0  0  0  0  0
  -24.7200  -30.1000   22.3920 N   0  0  0  0  0  0  0  0  0  0  0  0
  -23.6190  -31.2940   23.9730 O   0  0  0  0  0  0  0  0  0  0  0  0
  -22.5350  -28.8070   22.5590 C   0  0  0  0  0  0  0  0  0  0  0  0
  -21.2160  -28.8620   22.3120 N   0  0  0  0  0  0  0  0  0  0  0  0
  -23.0250  -28.0430   23.3960 O   0  0  0  0  0  0  0  0  0  0  0  0
  -20.8920  -29.5180   21.6150 H   0  0  0  0  0  0  0  0  0  0  0  0
  -17.6520  -28.3040   22.5050 C   0  0  0  0  0  0  0  0  0  0  0  0
  -20.1830  -28.0530   22.9590 C   0  0  0  0  0  3  0  0  0  0  0  0
  -20.0610  -26.6650   22.2880 C   0  0  0  0  0  2  0  0  0  0  0  0
  -19.0000  -26.6180   21.1850 C   0  0  0  0  0  2  0  0  0  0  0  0
  -17.6250  -26.9870   21.7480 C   0  0  0  0  0  2  0  0  0  0  0  0
  -18.8570  -28.8130   23.0600 C   0  0  0  0  0  0  0  0  0  0  0  0
  -18.8320  -30.0570   23.7240 C   0  0  0  0  0  3  0  0  0  0  0  0
  -17.6340  -30.7900   23.8370 C   0  0  0  0  0  3  0  0  0  0  0  0
  -16.4430  -30.2730   23.3010 C   0  0  0  0  0  3  0  0  0  0  0  0
  -16.4520  -29.0310   22.6420 C   0  0  0  0  0  3  0  0  0  0  0  0
  -25.9940  -31.2460   24.2870 C   0  0  0  0  0  3  0  0  0  0  0  0
  -26.2590  -30.3470   25.5560 C   0  0  1  0  0  0  0  0  0  0  0  0
  -25.0460  -30.2410   26.5110 C   0  0  0  0  0  1  0  0  0  0  0  0
  -26.6560  -28.9100   25.1420 C   0  0  0  0  0  1  0  0  0  0  0  0
  -27.4520  -30.9150   26.3610 C   0  0  0  0  0  1  0  0  0  0  0  0
  -25.8810  -32.6610   24.6650 N   0  0  0  0  0  0  0  0  0  0  0  0
  -26.4700  -33.6700   24.0120 C   0  0  0  0  0  0  0  0  0  0  0  0
  -27.2330  -33.4950   23.0560 O   0  0  0  0  0  0  0  0  0  0  0  0
  -25.2130  -32.8840   25.3890 H   0  0  0  0  0  0  0  0  0  0  0  0
  -25.1180  -35.7490   23.5750 C   0  0  0  0  0  1  0  0  0  0  0  0
  -26.1670  -35.1020   24.4940 C   0  0  0  0  0  3  0  0  0  0  0  0
  -28.3040  -35.5740   25.6110 C   0  0  0  0  0  1  0  0  0  0  0  0
  -27.3650  -35.9660   24.5620 N   0  0  0  0  0  0  0  0  0  0  0  0
  -27.1010  -36.9350   24.7150 H   0  0  0  0  0  0  0  0  0  0  0  0
  1 53  1  0
  1 58  1  0
  2  4  2  0
  3  2  1  0
  3  1  1  0
  5  3  1  0
  6 45  1  0
  6 15  1  0
  6  2  1  0
  7 15  1  0
  8 13  1  0
  9 10  1  0
  9  8  1  0
 11 10  1  0
 11 20  1  0
 11 12  1  0
 13  7  1  0
 13 12  1  0
 14  7  2  0
 15 16  1  0
 17 18  2  0
 18 37  1  0
 19 18  1  0
 19 22  1  0
 20 17  1  0
 20 21  1  0
 21 19  2  0
 22 23  1  0
 23 24  2  0
 25 28  1  0
 25 24  1  0
 26 25  2  0
 27 26  1  0
 27 22  2  0
 28 29  1  0
 29 34  2  0
 29 30  1  0
 30 31  2  0
 31 32  1  0
 32 36  1  0
 33 32  2  0
 34 33  1  0
 35 34  1  0
 37 38  1  0
 38 41  1  0
 38 40  1  0
 39 37  2  0
 42 43  1  0
 42 17  1  0
 44 42  1  0
 46 45  1  0
 47 46  1  0
 48 47  1  0
 49 48  1  0
 49 50  1  0
 49 52  1  0
 51 49  1  0
 55 54  1  0
 55 57  1  0
 55 53  1  0
 56 57  1  0
 58 59  1  0
 59 60  1  0
 61 62  1  0
 61 60  1  0
 63 62  1  0
 64 63  1  0
 65 64  1  0
 66 77  2  0
 67 65  1  0
 67 72  1  0
 68 76  1  0
 68 78  1  0
 69 71  1  0
 70 76  1  0
 71 72  2  0
 71 70  1  0
 73 67  2  0
 74 73  1  0
 74 69  2  0
 75 69  1  0
 75 68  1  0
 76 66  1  0
 78 80  2  0
 79 78  1  0
 81 79  1  0
 82 91  2  0
 82 87  1  0
 83 79  1  0
 83 87  1  0
 84 83  1  0
 85 86  1  0
 85 84  1  0
 86 82  1  0
 87 88  2  0
 88 89  1  0
 90 89  2  0
 91 90  1  0
 92 66  1  0
 92 97  1  0
 92 93  1  0
 93 96  1  1
 93 94  1  0
 95 93  1  0
 97100  1  0
 98102  1  0
 98 97  1  0
 99 98  2  0
102101  1  0
102104  1  0
104105  1  0
104103  1  0
M  ISO  4   7 100  15 100  64 101  65 101
M  END
>  <TORSDO>  (82) 
F 33

>  <SCORE>  (82) 
-7.559

>  <name>  (82) 
82

>  <ligand_id>  (82) 
82

>  <original_smiles>  (82) 
[H]c1c([H])c([H])c2c(c1[H])C([H])([H])C([H])([H])C([H])([H])C2([H])N([H])C(=O)C1([H])N(C(=O)C([H])(N([H])C(=O)C([H])(N([H])C([H])([H])[H])C([H])([H])[H])C(C([H])([H])[H])(C([H])([H])[H])C([H])([H])[H])C([H])([H])c2c([H])c(OC([H])([H])C([H])([H])C([H])([H])C([H])([H])C([H])([H])C([H])([H])C([H])([H])C([H])(N([H])C(=O)C([H])(N([H])C(=O)N3C([H])([H])C([H])([H])C([H])([H])C([H])(n4nc(-c5c([H])c([H])c(Oc6c([H])c([H])c(F)c([H])c6F)c([H])c5[H])c(C(=O)N([H])[H])c4N([H])[H])C3([H])[H])C([H])([H])C([H])([H])C([H])([H])C([H])([H])[N+]([H])([H])[H])C([H])([H])C([H])(C([H])([H])[H])C([H])([H])C([H])([H])[H])c([H])c([H])c2C1([H])[H]

>  <smiles>  (82) 
[H]c1c([H])c([H])c2c(c1[H])C([H])([H])C([H])([H])C([H])([H])C2([H])N([H])C(=O)C1([H])N(C(=O)C([H])(N([H])C(=O)C([H])(N([H])C([H])([H])[H])C([H])([H])[H])C(C([H])([H])[H])(C([H])([H])[H])C([H])([H])[H])C([H])([H])c2c([H])c(OC([H])([H])C([H])([H])C([H])([H])C([H])([H])C([H])([H])C([H])([H])C([H])([H])C([H])(N([H])C(=O)C([H])(N([H])C(=O)N3C([H])([H])C([H])([H])C([H])([H])C([H])(n4nc(-c5c([H])c([H])c(Oc6c([H])c([H])c(F)c([H])c6F)c([H])c5[H])c(C(=O)N([H])[H])c4N([H])[H])C3([H])[H])C([H])([H])C([H])([H])C([H])([H])C([H])([H])[N+]([H])([H])[H])C([H])([H])C([H])(C([H])([H])[H])C([H])([H])C([H])([H])[H])c([H])c([H])c2C1([H])[H]

$$$$
83:0:0
     RDKit          3D

 94101  0  0  1  0  0  0  0  0999 V2000
  -29.3720  -19.9610   20.4240 C   0  0  0  0  0  0  0  0  0  0  0  0
  -28.8670  -19.7220   21.6440 N   0  0  0  0  0  4  0  0  0  0  0  0
  -29.2540  -21.3900   19.9550 N   0  0  0  0  0  0  0  0  0  0  0  0
  -28.9410  -18.7970   22.0480 H   0  0  0  0  0  0  0  0  0  0  0  0
  -28.4720  -20.4450   22.2230 H   0  0  0  0  0  0  0  0  0  0  0  0
  -29.6670  -21.5080   19.0390 H   0  0  0  0  0  0  0  0  0  0  0  0
  -30.1180  -18.5060   19.7860 C   0  0  0  0  0  0  0  0  0  0  0  0
  -30.6370  -15.6010   19.9550 C   0  0  0  0  0  0  0  0  0  0  0  0
  -30.5730  -13.1730   19.0290 C   0  0  0  0  0  2  0  0  0  0  0  0
  -29.6120  -13.0150   17.8230 C   0  0  0  0  0  2  0  0  0  0  0  0
  -28.1790  -12.7320   18.3080 C   0  0  0  0  0  2  0  0  0  0  0  0
  -27.7670  -13.6560   19.4790 C   0  0  0  0  0  3  0  0  0  0  0  0
  -28.8570  -13.7650   20.5670 C   0  0  0  0  0  2  0  0  0  0  0  0
  -30.0650  -14.2930   19.9090 N   0  0  0  0  0  0  0  0  0  0  0  0
  -31.8420  -15.5950   19.6730 O   0  0  0  0  0  0  0  0  0  0  0  0
  -29.8880  -16.8770   20.1080 N   0  0  0  0  0  4  0  0  0  0  0  0
  -28.9220  -16.7000   20.3380 H   0  0  0  0  0  0  0  0  0  0  0  0
  -25.4170  -14.1810   20.3150 C   0  0  0  0  0  0  0  0  0  0  0  0
  -24.3770  -13.3910   20.7150 C   0  0  0  0  0  0  0  0  0  0  0  0
  -24.8570  -12.0460   20.6610 C   0  0  0  0  0  0  0  0  0  0  0  0
  -26.4600  -13.3190   20.0280 N   0  0  0  0  0  0  0  0  0  0  0  0
  -26.1390  -12.0280   20.3060 N   0  0  0  0  0  0  0  0  0  0  0  0
  -24.1480  -10.7740   20.8660 C   0  0  0  0  0  0  0  0  0  0  0  0
  -24.5770   -9.8320   21.8250 C   0  0  0  0  0  3  0  0  0  0  0  0
  -23.8640   -8.6290   22.0180 C   0  0  0  0  0  3  0  0  0  0  0  0
  -22.7070   -8.3580   21.2510 C   0  0  0  0  0  0  0  0  0  0  0  0
  -22.2980   -9.2870   20.2790 C   0  0  0  0  0  3  0  0  0  0  0  0
  -23.0130  -10.4820   20.0850 C   0  0  0  0  0  3  0  0  0  0  0  0
  -21.9680   -7.2030   21.3510 O   0  0  0  0  0  0  0  0  0  0  0  0
  -21.8720   -6.5090   22.5310 C   0  0  0  0  0  0  0  0  0  0  0  0
  -21.3190   -7.0880   23.6920 C   0  0  0  0  0  3  0  0  0  0  0  0
  -21.1720   -6.3200   24.8640 C   0  0  0  0  0  3  0  0  0  0  0  0
  -21.5740   -4.9700   24.8750 C   0  0  0  0  0  0  0  0  0  0  0  0
  -22.1230   -4.3890   23.7190 C   0  0  0  0  0  3  0  0  0  0  0  0
  -22.2690   -5.1560   22.5490 C   0  0  0  0  0  0  0  0  0  0  0  0
  -22.7780   -4.5860   21.4310 F   0  0  0  0  0  0  0  0  0  0  0  0
  -21.4270   -4.2290   25.9980 F   0  0  0  0  0  0  0  0  0  0  0  0
  -22.9810  -13.8520   21.0240 C   0  0  0  0  0  0  0  0  0  0  0  0
  -22.2770  -13.1500   21.9030 N   0  0  0  0  0  0  0  0  0  0  0  0
  -22.5250  -14.8760   20.5180 O   0  0  0  0  0  0  0  0  0  0  0  0
  -22.6560  -12.3260   22.3440 H   0  0  0  0  0  0  0  0  0  0  0  0
  -21.3400  -13.4450   22.1400 H   0  0  0  0  0  0  0  0  0  0  0  0
  -25.5590  -15.5530   20.1380 N   0  0  0  0  0  0  0  0  0  0  0  0
  -24.7840  -16.1950   20.2760 H   0  0  0  0  0  0  0  0  0  0  0  0
  -26.3750  -15.9950   19.7360 H   0  0  0  0  0  0  0  0  0  0  0  0
  -29.5180  -17.7550   17.3570 C   0  0  0  0  0  1  0  0  0  0  0  0
  -30.2900  -18.7530   18.2540 C   0  0  0  0  0  3  0  0  0  0  0  0
  -32.0690  -19.3290   16.4230 C   0  0  0  0  0  1  0  0  0  0  0  0
  -31.7870  -18.8380   17.8570 C   0  0  0  0  0  2  0  0  0  0  0  0
  -28.8330  -22.9150   20.5860 C   0  0  0  0  0  3  0  0  0  0  0  0
  -29.5940  -24.0560   22.7530 C   0  0  0  0  0  1  0  0  0  0  0  0
  -30.0160  -23.3030   21.4860 C   0  0  0  0  0  2  0  0  0  0  0  0
  -28.2650  -24.4780   19.8330 C   0  0  0  0  0  2  0  0  0  0  0  0
  -28.2600  -26.0880   20.2810 O   0  0  0  0  0  0  0  0  0  0  0  0
  -24.5680  -31.9790   23.2660 C   0  0  0  0  0  0  0  0  0  0  0  0
  -27.2300  -27.1720   20.1860 C   0  0  0  0  0  0  0  0  0  0  0  0
  -23.4100  -30.5820   21.6000 C   0  0  0  0  0  3  0  0  0  0  0  0
  -24.8960  -29.0220   20.1610 C   0  0  0  0  0  0  0  0  0  0  0  0
  -25.9710  -30.8360   21.4780 C   0  0  0  0  0  2  0  0  0  0  0  0
  -26.0710  -29.4350   20.8000 C   0  0  0  0  0  0  0  0  0  0  0  0
  -27.2220  -28.5260   20.7970 C   0  0  0  0  0  3  0  0  0  0  0  0
  -26.0230  -26.9200   19.4960 C   0  0  0  0  0  3  0  0  0  0  0  0
  -24.8980  -27.7860   19.4910 C   0  0  0  0  0  3  0  0  0  0  0  0
  -23.6630  -29.9230   20.2150 C   0  0  0  0  0  2  0  0  0  0  0  0
  -24.6700  -31.1590   22.1690 N   0  0  0  0  0  0  0  0  0  0  0  0
  -23.4700  -32.2410   23.7850 O   0  0  0  0  0  0  0  0  0  0  0  0
  -22.7270  -29.5620   22.5480 C   0  0  0  0  0  0  0  0  0  0  0  0
  -21.3990  -29.3770   22.4190 N   0  0  0  0  0  0  0  0  0  0  0  0
  -23.3980  -28.9350   23.3720 O   0  0  0  0  0  0  0  0  0  0  0  0
  -20.9070  -29.9330   21.7320 H   0  0  0  0  0  0  0  0  0  0  0  0
  -18.0370  -28.0990   22.9030 C   0  0  0  0  0  0  0  0  0  0  0  0
  -20.5910  -28.4130   23.1740 C   0  0  0  0  0  3  0  0  0  0  0  0
  -20.7200  -26.9910   22.5810 C   0  0  0  0  0  2  0  0  0  0  0  0
  -19.6280  -26.6620   21.5590 C   0  0  0  0  0  2  0  0  0  0  0  0
  -18.2410  -26.7670   22.2020 C   0  0  0  0  0  2  0  0  0  0  0  0
  -19.1390  -28.8790   23.3460 C   0  0  0  0  0  0  0  0  0  0  0  0
  -18.8910  -30.1230   23.9640 C   0  0  0  0  0  3  0  0  0  0  0  0
  -17.5750  -30.5920   24.1380 C   0  0  0  0  0  3  0  0  0  0  0  0
  -16.4880  -29.8110   23.7090 C   0  0  0  0  0  3  0  0  0  0  0  0
  -16.7190  -28.5660   23.0980 C   0  0  0  0  0  3  0  0  0  0  0  0
  -25.8250  -32.6380   23.9140 C   0  0  0  0  0  3  0  0  0  0  0  0
  -25.4970  -34.0450   24.2150 N   0  0  0  0  0  0  0  0  0  0  0  0
  -25.8630  -35.0930   23.4680 C   0  0  0  0  0  0  0  0  0  0  0  0
  -26.5710  -34.9800   22.4640 O   0  0  0  0  0  0  0  0  0  0  0  0
  -24.8700  -34.2050   24.9890 H   0  0  0  0  0  0  0  0  0  0  0  0
  -24.1750  -36.9080   23.0210 C   0  0  0  0  0  1  0  0  0  0  0  0
  -25.3660  -36.4890   23.8990 C   0  0  0  0  0  3  0  0  0  0  0  0
  -27.4510  -37.3660   24.8560 C   0  0  0  0  0  1  0  0  0  0  0  0
  -26.4130  -37.5330   23.8410 N   0  0  0  0  0  0  0  0  0  0  0  0
  -26.0090  -38.4590   23.9480 H   0  0  0  0  0  0  0  0  0  0  0  0
  -26.2990  -31.9030   25.2270 C   0  0  1  0  0  0  0  0  0  0  0  0
  -25.1700  -31.6830   26.2620 C   0  0  0  0  0  1  0  0  0  0  0  0
  -26.9050  -30.5210   24.8980 C   0  0  0  0  0  1  0  0  0  0  0  0
  -27.4260  -32.7150   25.9070 C   0  0  0  0  0  1  0  0  0  0  0  0
  1  2  2  0
  2  4  1  0
  2  5  1  0
  3  1  1  0
  3 50  1  0
  6  3  1  0
  7 16  2  0
  7  1  1  0
  8 16  1  0
  9 14  1  0
 10 11  1  0
 10  9  1  0
 12 11  1  0
 12 21  1  0
 12 13  1  0
 14  8  1  0
 14 13  1  0
 15  8  2  0
 16 17  1  0
 18 19  2  0
 19 38  1  0
 20 19  1  0
 20 23  1  0
 21 22  1  0
 21 18  1  0
 22 20  2  0
 23 24  1  0
 24 25  2  0
 26 29  1  0
 26 25  1  0
 27 26  2  0
 28 27  1  0
 28 23  2  0
 29 30  1  0
 30 35  2  0
 30 31  1  0
 31 32  2  0
 32 33  1  0
 33 37  1  0
 34 33  2  0
 35 34  1  0
 36 35  1  0
 38 39  1  0
 39 42  1  0
 39 41  1  0
 40 38  2  0
 43 44  1  0
 43 18  1  0
 45 43  1  0
 47 46  1  0
 47  7  1  0
 48 49  1  0
 49 47  1  0
 50 53  1  0
 50 52  1  0
 52 51  1  0
 53 54  1  0
 55 66  2  0
 56 54  1  0
 56 61  1  0
 57 65  1  0
 57 67  1  0
 58 64  1  0
 58 60  1  0
 59 65  1  0
 60 59  1  0
 61 60  2  0
 62 56  2  0
 63 62  1  0
 63 58  2  0
 64 57  1  0
 65 55  1  0
 67 69  2  0
 68 67  1  0
 70 68  1  0
 71 80  2  0
 71 76  1  0
 72 68  1  0
 72 76  1  0
 73 72  1  0
 74 75  1  0
 74 73  1  0
 75 71  1  0
 76 77  2  0
 77 78  1  0
 79 78  2  0
 80 79  1  0
 81 55  1  0
 81 82  1  0
 81 91  1  0
 82 85  1  0
 83 87  1  0
 83 82  1  0
 84 83  2  0
 87 86  1  0
 89 87  1  0
 89 90  1  0
 89 88  1  0
 91 94  1  1
 91 92  1  0
 93 91  1  0
M  ISO  4   8 100  16 100  53 101  54 101
M  END
>  <TORSDO>  (83) 
F 22

>  <SCORE>  (83) 
-14.475

>  <name>  (83) 
83

>  <ligand_id>  (83) 
83

>  <original_smiles>  (83) 
[H]c1c([H])c([H])c2c(c1[H])C([H])([H])C([H])([H])C([H])([H])C2([H])N([H])C(=O)C1([H])N(C(=O)C([H])(N([H])C(=O)C([H])(N([H])C([H])([H])[H])C([H])([H])[H])C(C([H])([H])[H])(C([H])([H])[H])C([H])([H])[H])C([H])([H])c2c([H])c(OC([H])([H])C([H])([N+]([H])=C(N([H])[H])C([H])(N([H])C(=O)N3C([H])([H])C([H])([H])C([H])([H])C([H])(n4nc(-c5c([H])c([H])c(Oc6c([H])c([H])c(F)c([H])c6F)c([H])c5[H])c(C(=O)N([H])[H])c4N([H])[H])C3([H])[H])C([H])(C([H])([H])[H])C([H])([H])C([H])([H])[H])C([H])([H])C([H])([H])[H])c([H])c([H])c2C1([H])[H]

>  <smiles>  (83) 
[H]c1c([H])c([H])c2c(c1[H])C([H])([H])C([H])([H])C([H])([H])C2([H])N([H])C(=O)C1([H])N(C(=O)C([H])(N([H])C(=O)C([H])(N([H])C([H])([H])[H])C([H])([H])[H])C(C([H])([H])[H])(C([H])([H])[H])C([H])([H])[H])C([H])([H])c2c([H])c(OC([H])([H])C([H])([N+]([H])=C(N([H])[H])C([H])(N([H])C(=O)N3C([H])([H])C([H])([H])C([H])([H])C([H])(n4nc(-c5c([H])c([H])c(Oc6c([H])c([H])c(F)c([H])c6F)c([H])c5[H])c(C(=O)N([H])[H])c4N([H])[H])C3([H])[H])C([H])(C([H])([H])[H])C([H])([H])C([H])([H])[H])C([H])([H])C([H])([H])[H])c([H])c([H])c2C1([H])[H]

$$$$
84:0:0
     RDKit          3D

 92 99  0  0  1  0  0  0  0  0999 V2000
  -27.5060  -22.7330   19.3010 C   0  0  0  0  0  3  0  0  0  0  0  0
  -28.6580  -22.8000   20.0090 C   0  0  0  0  0  0  0  0  0  0  0  0
  -26.8120  -21.5200   18.8460 C   0  0  0  0  0  0  0  0  0  0  0  0
  -26.3190  -20.7130   19.6350 O   0  0  0  0  0  0  0  0  0  0  0  0
  -25.0070  -21.6360   17.1030 C   0  0  0  0  0  1  0  0  0  0  0  0
  -26.5030  -21.3550   17.3500 C   0  0  0  0  0  3  0  0  0  0  0  0
  -28.4030  -19.7280   16.7040 C   0  0  0  0  0  1  0  0  0  0  0  0
  -26.8890  -19.9540   16.8230 C   0  0  0  0  0  2  0  0  0  0  0  0
  -29.5930  -21.3520   20.3350 C   0  0  0  0  0  2  0  0  0  0  0  0
  -28.0630  -19.2280   20.8740 C   0  0  0  0  0  1  0  0  0  0  0  0
  -29.3370  -19.5770   20.0980 C   0  0  0  0  0  3  0  0  0  0  0  0
  -30.3850  -18.1390   20.3230 C   0  0  0  0  0  2  0  0  0  0  0  0
  -30.8180  -15.2340   20.2470 C   0  0  0  0  0  0  0  0  0  0  0  0
  -30.7690  -12.7840   19.4130 C   0  0  0  0  0  2  0  0  0  0  0  0
  -29.8520  -12.5670   18.1840 C   0  0  0  0  0  2  0  0  0  0  0  0
  -28.3960  -12.3230   18.6170 C   0  0  0  0  0  2  0  0  0  0  0  0
  -27.9490  -13.3140   19.7200 C   0  0  0  0  0  3  0  0  0  0  0  0
  -28.9900  -13.4700   20.8470 C   0  0  0  0  0  2  0  0  0  0  0  0
  -30.2320  -13.9410   20.2140 N   0  0  0  0  0  0  0  0  0  0  0  0
  -32.0370  -15.2240   20.0330 O   0  0  0  0  0  0  0  0  0  0  0  0
  -30.0640  -16.5040   20.3250 N   0  0  0  0  0  0  0  0  0  0  0  0
  -29.0780  -16.3160   20.4450 H   0  0  0  0  0  0  0  0  0  0  0  0
  -25.5950  -13.9150   20.4890 C   0  0  0  0  0  0  0  0  0  0  0  0
  -24.5150  -13.1580   20.8480 C   0  0  0  0  0  0  0  0  0  0  0  0
  -24.9500  -11.7970   20.7900 C   0  0  0  0  0  0  0  0  0  0  0  0
  -26.6160  -13.0200   20.2260 N   0  0  0  0  0  0  0  0  0  0  0  0
  -26.2400  -11.7370   20.4750 N   0  0  0  0  0  0  0  0  0  0  0  0
  -24.1920  -10.5500   20.9550 C   0  0  0  0  0  0  0  0  0  0  0  0
  -24.6040   -9.5500   21.8650 C   0  0  0  0  0  3  0  0  0  0  0  0
  -23.8450   -8.3700   22.0240 C   0  0  0  0  0  3  0  0  0  0  0  0
  -22.6610   -8.1810   21.2720 C   0  0  0  0  0  0  0  0  0  0  0  0
  -22.2680   -9.1690   20.3520 C   0  0  0  0  0  3  0  0  0  0  0  0
  -23.0260  -10.3400   20.1920 C   0  0  0  0  0  3  0  0  0  0  0  0
  -21.8760   -7.0560   21.3420 O   0  0  0  0  0  0  0  0  0  0  0  0
  -21.7730   -6.3180   22.4940 C   0  0  0  0  0  0  0  0  0  0  0  0
  -21.2670   -6.8720   23.6910 C   0  0  0  0  0  3  0  0  0  0  0  0
  -21.1160   -6.0610   24.8330 C   0  0  0  0  0  3  0  0  0  0  0  0
  -21.4570   -4.6960   24.7790 C   0  0  0  0  0  0  0  0  0  0  0  0
  -21.9550   -4.1420   23.5860 C   0  0  0  0  0  3  0  0  0  0  0  0
  -22.1100   -4.9500   22.4460 C   0  0  0  0  0  0  0  0  0  0  0  0
  -22.5710   -4.4060   21.2940 F   0  0  0  0  0  0  0  0  0  0  0  0
  -21.3030   -3.9150   25.8730 F   0  0  0  0  0  0  0  0  0  0  0  0
  -23.1300  -13.6640   21.1230 C   0  0  0  0  0  0  0  0  0  0  0  0
  -22.3880  -12.9800   21.9880 N   0  0  0  0  0  0  0  0  0  0  0  0
  -22.7130  -14.7000   20.6050 O   0  0  0  0  0  0  0  0  0  0  0  0
  -22.7390  -12.1440   22.4280 H   0  0  0  0  0  0  0  0  0  0  0  0
  -21.4570  -13.2990   22.2120 H   0  0  0  0  0  0  0  0  0  0  0  0
  -25.7920  -15.2850   20.3350 N   0  0  0  0  0  0  0  0  0  0  0  0
  -25.0440  -15.9590   20.4680 H   0  0  0  0  0  0  0  0  0  0  0  0
  -26.6270  -15.6980   19.9420 H   0  0  0  0  0  0  0  0  0  0  0  0
  -28.9470  -24.4270   20.5200 C   0  0  0  0  0  2  0  0  0  0  0  0
  -28.7550  -25.8930   19.8060 O   0  0  0  0  0  0  0  0  0  0  0  0
  -24.7280  -31.4760   22.9870 C   0  0  0  0  0  0  0  0  0  0  0  0
  -27.6460  -26.8770   19.8900 C   0  0  0  0  0  0  0  0  0  0  0  0
  -23.6610  -30.0670   21.2740 C   0  0  0  0  0  3  0  0  0  0  0  0
  -25.2360  -28.6010   19.8460 C   0  0  0  0  0  0  0  0  0  0  0  0
  -26.2100  -30.4440   21.1960 C   0  0  0  0  0  2  0  0  0  0  0  0
  -26.3840  -29.0630   20.5030 C   0  0  0  0  0  0  0  0  0  0  0  0
  -27.5880  -28.2270   20.4910 C   0  0  0  0  0  3  0  0  0  0  0  0
  -26.4540  -26.5530   19.2070 C   0  0  0  0  0  3  0  0  0  0  0  0
  -25.2940  -27.3670   19.1780 C   0  0  0  0  0  3  0  0  0  0  0  0
  -23.9640  -29.4470   19.8840 C   0  0  0  0  0  2  0  0  0  0  0  0
  -24.8850  -30.6890   21.8750 N   0  0  0  0  0  0  0  0  0  0  0  0
  -23.6100  -31.6800   23.4900 O   0  0  0  0  0  0  0  0  0  0  0  0
  -23.0100  -28.9960   22.1890 C   0  0  0  0  0  0  0  0  0  0  0  0
  -21.6920  -28.7650   22.0330 N   0  0  0  0  0  0  0  0  0  0  0  0
  -23.6960  -28.3740   23.0030 O   0  0  0  0  0  0  0  0  0  0  0  0
  -21.1930  -29.3200   21.3530 H   0  0  0  0  0  0  0  0  0  0  0  0
  -18.3660  -27.3820   22.4570 C   0  0  0  0  0  0  0  0  0  0  0  0
  -20.9080  -27.7560   22.7530 C   0  0  0  0  0  3  0  0  0  0  0  0
  -21.0820  -26.3590   22.1110 C   0  0  0  0  0  2  0  0  0  0  0  0
  -20.0010  -26.0330   21.0750 C   0  0  0  0  0  2  0  0  0  0  0  0
  -18.6110  -26.0770   21.7160 C   0  0  0  0  0  2  0  0  0  0  0  0
  -19.4450  -28.1780   22.9300 C   0  0  0  0  0  0  0  0  0  0  0  0
  -19.1590  -29.3930   23.5880 C   0  0  0  0  0  3  0  0  0  0  0  0
  -17.8310  -29.8180   23.7760 C   0  0  0  0  0  3  0  0  0  0  0  0
  -16.7670  -29.0190   23.3180 C   0  0  0  0  0  3  0  0  0  0  0  0
  -17.0360  -27.8020   22.6650 C   0  0  0  0  0  3  0  0  0  0  0  0
  -25.9390  -32.1730   23.6750 C   0  0  0  0  0  3  0  0  0  0  0  0
  -25.5300  -33.5410   24.0410 N   0  0  0  0  0  0  0  0  0  0  0  0
  -25.8350  -34.6450   23.3450 C   0  0  0  0  0  0  0  0  0  0  0  0
  -26.5520  -34.6220   22.3410 O   0  0  0  0  0  0  0  0  0  0  0  0
  -24.8940  -33.6280   24.8190 H   0  0  0  0  0  0  0  0  0  0  0  0
  -24.0340  -36.3690   22.9850 C   0  0  0  0  0  1  0  0  0  0  0  0
  -25.2540  -35.9870   23.8390 C   0  0  0  0  0  3  0  0  0  0  0  0
  -27.2870  -36.9480   24.8270 C   0  0  0  0  0  1  0  0  0  0  0  0
  -26.2350  -37.0950   23.8250 N   0  0  0  0  0  0  0  0  0  0  0  0
  -25.7730  -37.9870   23.9790 H   0  0  0  0  0  0  0  0  0  0  0  0
  -26.4560  -31.4010   24.9540 C   0  0  1  0  0  0  0  0  0  0  0  0
  -25.3420  -31.0840   25.9810 C   0  0  0  0  0  1  0  0  0  0  0  0
  -27.1220  -30.0630   24.5600 C   0  0  0  0  0  1  0  0  0  0  0  0
  -27.5480  -32.2370   25.6640 C   0  0  0  0  0  1  0  0  0  0  0  0
  1  2  2  0
  2  9  1  0
  2 51  1  0
  3  1  1  0
  3  4  2  0
  6  5  1  0
  6  3  1  0
  7  8  1  0
  8  6  1  0
 11 12  1  0
 11  9  1  0
 11 10  1  0
 12 21  1  0
 13 21  1  0
 14 19  1  0
 15 16  1  0
 15 14  1  0
 17 16  1  0
 17 26  1  0
 17 18  1  0
 19 13  1  0
 19 18  1  0
 20 13  2  0
 21 22  1  0
 23 24  2  0
 24 43  1  0
 25 24  1  0
 25 28  1  0
 26 27  1  0
 26 23  1  0
 27 25  2  0
 28 29  1  0
 29 30  2  0
 31 34  1  0
 31 30  1  0
 32 31  2  0
 33 32  1  0
 33 28  2  0
 34 35  1  0
 35 36  1  0
 36 37  2  0
 38 37  1  0
 38 42  1  0
 39 38  2  0
 40 35  2  0
 40 39  1  0
 41 40  1  0
 43 44  1  0
 44 47  1  0
 44 46  1  0
 45 43  2  0
 48 49  1  0
 48 23  1  0
 50 48  1  0
 52 54  1  0
 52 51  1  0
 53 64  2  0
 54 59  1  0
 55 63  1  0
 55 65  1  0
 56 62  1  0
 56 58  1  0
 57 63  1  0
 58 57  1  0
 59 58  2  0
 60 54  2  0
 61 60  1  0
 61 56  2  0
 62 55  1  0
 63 53  1  0
 65 67  2  0
 66 65  1  0
 68 66  1  0
 69 78  2  0
 69 74  1  0
 70 66  1  0
 70 74  1  0
 71 70  1  0
 72 73  1  0
 72 71  1  0
 73 69  1  0
 74 75  2  0
 75 76  1  0
 77 76  2  0
 78 77  1  0
 79 53  1  0
 79 80  1  0
 79 89  1  0
 80 83  1  0
 81 85  1  0
 81 80  1  0
 82 81  2  0
 85 84  1  0
 87 85  1  0
 87 88  1  0
 87 86  1  0
 89 92  1  1
 89 90  1  0
 91 89  1  0
M  ISO  4  13 100  21 100  51 101  52 101
M  END
>  <TORSDO>  (84) 
F 23

>  <SCORE>  (84) 
-12.163

>  <name>  (84) 
84

>  <ligand_id>  (84) 
84

>  <original_smiles>  (84) 
[H]C(C(=O)C([H])(C([H])([H])[H])C([H])([H])C([H])([H])[H])=C(C([H])([H])Oc1c([H])c([H])c2c(c1[H])C([H])([H])N(C(=O)C([H])(N([H])C(=O)C([H])(N([H])C([H])([H])[H])C([H])([H])[H])C(C([H])([H])[H])(C([H])([H])[H])C([H])([H])[H])C([H])(C(=O)N([H])C1([H])c3c([H])c([H])c([H])c([H])c3C([H])([H])C([H])([H])C1([H])[H])C2([H])[H])C([H])([H])C([H])(C([H])([H])[H])C([H])([H])N([H])C(=O)N1C([H])([H])C([H])([H])C([H])([H])C([H])(n2nc(-c3c([H])c([H])c(Oc4c([H])c([H])c(F)c([H])c4F)c([H])c3[H])c(C(=O)N([H])[H])c2N([H])[H])C1([H])[H]

>  <smiles>  (84) 
[H]C(C(=O)C([H])(C([H])([H])[H])C([H])([H])C([H])([H])[H])=C(C([H])([H])Oc1c([H])c([H])c2c(c1[H])C([H])([H])N(C(=O)C([H])(N([H])C(=O)C([H])(N([H])C([H])([H])[H])C([H])([H])[H])C(C([H])([H])[H])(C([H])([H])[H])C([H])([H])[H])C([H])(C(=O)N([H])C1([H])c3c([H])c([H])c([H])c([H])c3C([H])([H])C([H])([H])C1([H])[H])C2([H])[H])C([H])([H])C([H])(C([H])([H])[H])C([H])([H])N([H])C(=O)N1C([H])([H])C([H])([H])C([H])([H])C([H])(n2nc(-c3c([H])c([H])c(Oc4c([H])c([H])c(F)c([H])c4F)c([H])c3[H])c(C(=O)N([H])[H])c2N([H])[H])C1([H])[H]

$$$$
85:0:0
     RDKit          3D

100108  0  0  1  0  0  0  0  0999 V2000
  -31.0610  -23.0830   19.9500 C   0  0  0  0  0  3  0  0  0  0  0  0
  -31.4350  -22.1570   16.3580 C   0  0  0  0  0  2  0  0  0  0  0  0
  -32.4860  -21.3020   17.0640 C   0  0  0  0  0  2  0  0  0  0  0  0
  -30.8220  -23.0330   17.4580 C   0  0  0  0  0  2  0  0  0  0  0  0
  -32.0490  -21.2370   18.5370 C   0  0  0  0  0  3  0  0  0  0  0  0
  -31.2750  -22.4800   18.7460 N   0  0  0  0  0  0  0  0  0  0  0  0
  -31.4780  -22.5060   21.0950 N   0  0  0  0  0  0  0  0  0  0  0  0
  -31.3780  -22.9800   21.9830 H   0  0  0  0  0  0  0  0  0  0  0  0
  -31.9270  -21.6030   21.1170 H   0  0  0  0  0  0  0  0  0  0  0  0
  -29.8680  -19.8360   18.4100 C   0  0  0  0  0  1  0  0  0  0  0  0
  -31.3060  -19.9340   18.9640 C   0  0  0  0  0  3  0  0  0  0  0  0
  -32.1320  -18.6680   18.5850 C   0  0  0  0  0  3  0  0  0  0  0  0
  -32.2670  -17.4560   19.5620 C   0  0  0  0  0  3  0  0  0  0  0  0
  -31.6830  -16.8370   20.8850 C   0  0  0  0  0  3  0  0  0  0  0  0
  -31.7250  -14.4050   20.1460 C   0  0  0  0  0  0  0  0  0  0  0  0
  -31.1840  -12.3200   18.9490 C   0  0  0  0  0  2  0  0  0  0  0  0
  -30.2520  -12.6520   17.7680 C   0  0  0  0  0  2  0  0  0  0  0  0
  -28.7780  -12.6550   18.2180 C   0  0  0  0  0  2  0  0  0  0  0  0
  -28.5430  -13.4970   19.5020 C   0  0  0  0  0  3  0  0  0  0  0  0
  -29.5880  -13.1370   20.5820 C   0  0  0  0  0  2  0  0  0  0  0  0
  -30.9250  -13.3140   19.9980 N   0  0  0  0  0  0  0  0  0  0  0  0
  -32.8710  -14.4570   19.6900 O   0  0  0  0  0  0  0  0  0  0  0  0
  -31.1270  -15.4780   20.6900 N   0  0  0  0  0  0  0  0  0  0  0  0
  -30.1730  -15.3390   20.9880 H   0  0  0  0  0  0  0  0  0  0  0  0
  -26.2130  -14.3200   20.2390 C   0  0  0  0  0  0  0  0  0  0  0  0
  -25.0820  -13.6490   20.6190 C   0  0  0  0  0  0  0  0  0  0  0  0
  -25.4150  -12.2620   20.5730 C   0  0  0  0  0  0  0  0  0  0  0  0
  -27.1740  -13.3490   19.9960 N   0  0  0  0  0  0  0  0  0  0  0  0
  -26.6930  -12.1040   20.2490 N   0  0  0  0  0  0  0  0  0  0  0  0
  -24.5740  -11.0720   20.7610 C   0  0  0  0  0  0  0  0  0  0  0  0
  -24.9200  -10.0590   21.6800 C   0  0  0  0  0  3  0  0  0  0  0  0
  -24.0840   -8.9360   21.8550 C   0  0  0  0  0  3  0  0  0  0  0  0
  -22.8880   -8.8170   21.1100 C   0  0  0  0  0  0  0  0  0  0  0  0
  -22.5610   -9.8170   20.1780 C   0  0  0  0  0  3  0  0  0  0  0  0
  -23.3960  -10.9320   20.0000 C   0  0  0  0  0  3  0  0  0  0  0  0
  -22.0300   -7.7470   21.1910 O   0  0  0  0  0  0  0  0  0  0  0  0
  -21.9010   -7.0180   22.3460 C   0  0  0  0  0  0  0  0  0  0  0  0
  -21.5560   -7.6230   23.5740 C   0  0  0  0  0  3  0  0  0  0  0  0
  -21.3660   -6.8270   24.7210 C   0  0  0  0  0  3  0  0  0  0  0  0
  -21.5110   -5.4290   24.6410 C   0  0  0  0  0  0  0  0  0  0  0  0
  -21.8460   -4.8250   23.4160 C   0  0  0  0  0  3  0  0  0  0  0  0
  -22.0380   -5.6180   22.2720 C   0  0  0  0  0  0  0  0  0  0  0  0
  -22.3420   -5.0290   21.0900 F   0  0  0  0  0  0  0  0  0  0  0  0
  -21.3190   -4.6640   25.7400 F   0  0  0  0  0  0  0  0  0  0  0  0
  -23.7390  -14.2570   20.9120 C   0  0  0  0  0  0  0  0  0  0  0  0
  -22.9730  -13.6460   21.8070 N   0  0  0  0  0  0  0  0  0  0  0  0
  -23.3870  -15.3110   20.3860 O   0  0  0  0  0  0  0  0  0  0  0  0
  -23.2760  -12.7970   22.2590 H   0  0  0  0  0  0  0  0  0  0  0  0
  -22.0710  -14.0330   22.0480 H   0  0  0  0  0  0  0  0  0  0  0  0
  -26.4880  -15.6710   20.0510 N   0  0  0  0  0  0  0  0  0  0  0  0
  -25.7670  -16.3750   20.1560 H   0  0  0  0  0  0  0  0  0  0  0  0
  -27.3480  -16.0380   19.6670 H   0  0  0  0  0  0  0  0  0  0  0  0
  -29.2740  -17.2740   21.7670 C   0  0  0  0  0  1  0  0  0  0  0  0
  -30.7370  -17.7520   21.7320 C   0  0  0  0  0  3  0  0  0  0  0  0
  -30.7600  -19.2810   23.8200 C   0  0  0  0  0  1  0  0  0  0  0  0
  -31.2920  -18.0000   23.1510 C   0  0  0  0  0  2  0  0  0  0  0  0
  -30.3890  -24.4390   20.0530 C   0  0  0  0  0  2  0  0  0  0  0  0
  -29.1970  -24.4400   21.0310 C   0  0  0  0  0  2  0  0  0  0  0  0
  -28.6420  -25.8570   21.2860 C   0  0  0  0  0  2  0  0  0  0  0  0
  -28.1860  -26.4070   20.0550 O   0  0  0  0  0  0  0  0  0  0  0  0
  -24.5450  -31.6940   23.1920 C   0  0  0  0  0  0  0  0  0  0  0  0
  -27.0560  -27.1800   20.1300 C   0  0  0  0  0  0  0  0  0  0  0  0
  -23.2900  -30.3120   21.5680 C   0  0  0  0  0  3  0  0  0  0  0  0
  -24.6960  -28.7200   20.1570 C   0  0  0  0  0  0  0  0  0  0  0  0
  -25.8220  -30.6030   21.3550 C   0  0  0  0  0  2  0  0  0  0  0  0
  -25.8680  -29.2220   20.7400 C   0  0  0  0  0  0  0  0  0  0  0  0
  -27.0510  -28.4530   20.7390 C   0  0  0  0  0  3  0  0  0  0  0  0
  -25.8770  -26.6840   19.5430 C   0  0  0  0  0  3  0  0  0  0  0  0
  -24.6910  -27.4440   19.5650 C   0  0  0  0  0  3  0  0  0  0  0  0
  -23.4740  -29.6100   20.1970 C   0  0  0  0  0  2  0  0  0  0  0  0
  -24.5700  -30.8850   22.0970 N   0  0  0  0  0  0  0  0  0  0  0  0
  -23.4750  -32.0000   23.7380 O   0  0  0  0  0  0  0  0  0  0  0  0
  -22.6200  -29.3170   22.5420 C   0  0  0  0  0  0  0  0  0  0  0  0
  -21.2900  -29.1730   22.4280 N   0  0  0  0  0  0  0  0  0  0  0  0
  -23.2930  -28.6750   23.3540 O   0  0  0  0  0  0  0  0  0  0  0  0
  -20.8090  -29.7400   21.7450 H   0  0  0  0  0  0  0  0  0  0  0  0
  -17.8880  -28.0830   22.9620 C   0  0  0  0  0  0  0  0  0  0  0  0
  -20.4530  -28.2650   23.2130 C   0  0  0  0  0  3  0  0  0  0  0  0
  -20.5100  -26.8280   22.6470 C   0  0  0  0  0  2  0  0  0  0  0  0
  -19.3920  -26.5310   21.6430 C   0  0  0  0  0  2  0  0  0  0  0  0
  -18.0190  -26.7240   22.2960 C   0  0  0  0  0  2  0  0  0  0  0  0
  -19.0320  -28.8140   23.3790 C   0  0  0  0  0  0  0  0  0  0  0  0
  -18.8570  -30.0880   23.9610 C   0  0  0  0  0  3  0  0  0  0  0  0
  -17.5700  -30.6290   24.1320 C   0  0  0  0  0  3  0  0  0  0  0  0
  -16.4400  -29.8960   23.7340 C   0  0  0  0  0  3  0  0  0  0  0  0
  -16.6000  -28.6240   23.1530 C   0  0  0  0  0  3  0  0  0  0  0  0
  -25.8530  -32.2950   23.7980 C   0  0  0  0  0  3  0  0  0  0  0  0
  -26.3810  -31.4980   25.0560 C   0  0  1  0  0  0  0  0  0  0  0  0
  -25.3060  -31.2700   26.1420 C   0  0  0  0  0  1  0  0  0  0  0  0
  -26.9320  -30.1150   24.6340 C   0  0  0  0  0  1  0  0  0  0  0  0
  -27.5600  -32.2640   25.7030 C   0  0  0  0  0  1  0  0  0  0  0  0
  -25.5760  -33.6930   24.1490 N   0  0  0  0  0  0  0  0  0  0  0  0
  -25.9110  -34.7470   23.3900 C   0  0  0  0  0  0  0  0  0  0  0  0
  -26.5580  -34.6420   22.3450 O   0  0  0  0  0  0  0  0  0  0  0  0
  -24.9980  -33.8510   24.9610 H   0  0  0  0  0  0  0  0  0  0  0  0
  -24.2000  -36.5660   23.0940 C   0  0  0  0  0  1  0  0  0  0  0  0
  -25.4550  -36.1390   23.8690 C   0  0  0  0  0  3  0  0  0  0  0  0
  -27.6270  -36.9840   24.6440 C   0  0  0  0  0  1  0  0  0  0  0  0
  -26.4990  -37.1780   23.7350 N   0  0  0  0  0  0  0  0  0  0  0  0
  -26.1110  -38.1020   23.9040 H   0  0  0  0  0  0  0  0  0  0  0  0
  1 57  1  0
  1  7  1  0
  2  3  1  0
  2  4  1  0
  3  5  1  0
  4  6  1  0
  5  6  1  0
  5 11  1  0
  6  1  1  0
  7  9  1  0
  7  8  1  0
 11 10  1  0
 12 11  1  0
 12 13  2  0
 14 13  1  0
 14 54  1  0
 15 23  1  0
 16 21  1  0
 17 18  1  0
 17 16  1  0
 19 18  1  0
 19 28  1  0
 19 20  1  0
 21 15  1  0
 21 20  1  0
 22 15  2  0
 23 14  1  0
 23 24  1  0
 25 26  2  0
 26 45  1  0
 27 26  1  0
 27 30  1  0
 28 25  1  0
 28 29  1  0
 29 27  2  0
 30 31  1  0
 31 32  2  0
 33 36  1  0
 33 32  1  0
 34 33  2  0
 35 34  1  0
 35 30  2  0
 36 37  1  0
 37 38  1  0
 38 39  2  0
 40 39  1  0
 40 44  1  0
 41 40  2  0
 42 37  2  0
 42 41  1  0
 43 42  1  0
 45 46  1  0
 46 49  1  0
 46 48  1  0
 47 45  2  0
 50 51  1  0
 50 25  1  0
 52 50  1  0
 54 53  1  0
 54 56  1  0
 56 55  1  0
 57 58  1  0
 58 59  1  0
 60 62  1  0
 60 59  1  0
 61 72  2  0
 62 67  1  0
 63 71  1  0
 63 73  1  0
 64 70  1  0
 64 66  1  0
 65 71  1  0
 66 65  1  0
 67 66  2  0
 68 69  1  0
 68 62  2  0
 69 64  2  0
 70 63  1  0
 71 61  1  0
 73 75  2  0
 74 73  1  0
 76 74  1  0
 77 86  2  0
 77 82  1  0
 78 74  1  0
 78 82  1  0
 79 78  1  0
 80 81  1  0
 80 79  1  0
 81 77  1  0
 82 83  2  0
 83 84  1  0
 85 84  2  0
 86 85  1  0
 87 61  1  0
 87 92  1  0
 87 88  1  0
 88 91  1  1
 88 89  1  0
 90 88  1  0
 92 95  1  0
 93 97  1  0
 93 92  1  0
 94 93  2  0
 97 96  1  0
 99 97  1  0
 99100  1  0
 99 98  1  0
M  ISO  4  15 100  23 100  59 101  60 101
M  END
>  <TORSDO>  (85) 
F 25

>  <SCORE>  (85) 
-10.415

>  <name>  (85) 
85

>  <ligand_id>  (85) 
85

>  <original_smiles>  (85) 
[H]c1c([H])c([H])c2c(c1[H])C([H])([H])C([H])([H])C([H])([H])C2([H])N([H])C(=O)C1([H])N(C(=O)C([H])(N([H])C(=O)C([H])(N([H])C([H])([H])[H])C([H])([H])[H])C(C([H])([H])[H])(C([H])([H])[H])C([H])([H])[H])C([H])([H])c2c([H])c(OC([H])([H])C([H])([H])C([H])([H])C(N3C([H])([H])C([H])([H])C([H])([H])C3([H])C([H])(C([H])([H])[H])C([H])([H])C([H])([H])C([H])(N([H])C(=O)N3C([H])([H])C([H])([H])C([H])([H])C([H])(n4nc(-c5c([H])c([H])c(Oc6c([H])c([H])c(F)c([H])c6F)c([H])c5[H])c(C(=O)N([H])[H])c4N([H])[H])C3([H])[H])C([H])(C([H])([H])[H])C([H])([H])C([H])([H])[H])=[N+]([H])[H])c([H])c([H])c2C1([H])[H]

>  <smiles>  (85) 
[H]c1c([H])c([H])c2c(c1[H])C([H])([H])C([H])([H])C([H])([H])C2([H])N([H])C(=O)C1([H])N(C(=O)C([H])(N([H])C(=O)C([H])(N([H])C([H])([H])[H])C([H])([H])[H])C(C([H])([H])[H])(C([H])([H])[H])C([H])([H])[H])C([H])([H])c2c([H])c(OC([H])([H])C([H])([H])C([H])([H])C(N3C([H])([H])C([H])([H])C([H])([H])C3([H])C([H])(C([H])([H])[H])C([H])([H])C([H])([H])C([H])(N([H])C(=O)N3C([H])([H])C([H])([H])C([H])([H])C([H])(n4nc(-c5c([H])c([H])c(Oc6c([H])c([H])c(F)c([H])c6F)c([H])c5[H])c(C(=O)N([H])[H])c4N([H])[H])C3([H])[H])C([H])(C([H])([H])[H])C([H])([H])C([H])([H])[H])=[N+]([H])[H])c([H])c([H])c2C1([H])[H]

$$$$
86:0:0
     RDKit          3D

 99106  0  0  1  0  0  0  0  0999 V2000
  -29.9640  -19.1520   19.4130 C   0  0  0  0  0  3  0  0  0  0  0  0
  -31.2990  -18.8410   18.8880 N   0  0  0  0  0  4  0  0  0  0  0  0
  -31.9710  -18.8600   19.6360 H   0  0  0  0  0  0  0  0  0  0  0  0
  -31.5670  -19.5300   18.2100 H   0  0  0  0  0  0  0  0  0  0  0  0
  -31.3180  -17.9320   18.4600 H   0  0  0  0  0  0  0  0  0  0  0  0
  -30.0340  -20.7420   19.9520 C   0  0  0  0  0  0  0  0  0  0  0  0
  -29.3090  -21.8840   19.4870 N   0  0  0  0  0  0  0  0  0  0  0  0
  -30.8870  -20.9550   20.8150 O   0  0  0  0  0  0  0  0  0  0  0  0
  -28.6020  -21.6870   18.7940 H   0  0  0  0  0  0  0  0  0  0  0  0
  -29.4590  -23.4340   19.8310 C   0  0  0  0  0  3  0  0  0  0  0  0
  -28.3780  -24.6840   19.4370 C   0  0  0  0  0  3  0  0  0  0  0  0
  -28.5140  -26.2100   19.7630 O   0  0  0  0  0  0  0  0  0  0  0  0
  -24.6490  -31.5820   23.0080 C   0  0  0  0  0  0  0  0  0  0  0  0
  -27.4080  -27.1410   19.7330 C   0  0  0  0  0  0  0  0  0  0  0  0
  -23.4940  -30.2280   21.3010 C   0  0  0  0  0  3  0  0  0  0  0  0
  -24.9980  -28.7850   19.7900 C   0  0  0  0  0  0  0  0  0  0  0  0
  -26.0340  -30.6010   21.1410 C   0  0  0  0  0  2  0  0  0  0  0  0
  -26.1600  -29.2490   20.4180 C   0  0  0  0  0  0  0  0  0  0  0  0
  -27.3620  -28.4480   20.3720 C   0  0  0  0  0  3  0  0  0  0  0  0
  -26.2150  -26.7790   19.0680 C   0  0  0  0  0  3  0  0  0  0  0  0
  -25.0400  -27.5650   19.0980 C   0  0  0  0  0  3  0  0  0  0  0  0
  -23.7300  -29.6280   19.8870 C   0  0  0  0  0  2  0  0  0  0  0  0
  -24.7460  -30.8200   21.8740 N   0  0  0  0  0  0  0  0  0  0  0  0
  -23.5550  -31.7950   23.5550 O   0  0  0  0  0  0  0  0  0  0  0  0
  -22.8580  -29.1470   22.2100 C   0  0  0  0  0  0  0  0  0  0  0  0
  -21.5320  -28.9610   22.1040 N   0  0  0  0  0  0  0  0  0  0  0  0
  -23.5620  -28.4790   22.9720 O   0  0  0  0  0  0  0  0  0  0  0  0
  -21.0190  -29.5540   21.4670 H   0  0  0  0  0  0  0  0  0  0  0  0
  -18.1860  -27.6820   22.6390 C   0  0  0  0  0  0  0  0  0  0  0  0
  -20.7500  -27.9590   22.8320 C   0  0  0  0  0  3  0  0  0  0  0  0
  -20.8440  -26.5720   22.1540 C   0  0  0  0  0  2  0  0  0  0  0  0
  -19.7090  -26.3090   21.1580 C   0  0  0  0  0  2  0  0  0  0  0  0
  -18.3510  -26.3890   21.8580 C   0  0  0  0  0  2  0  0  0  0  0  0
  -19.3110  -28.4270   23.0820 C   0  0  0  0  0  0  0  0  0  0  0  0
  -19.0990  -29.6390   23.7760 C   0  0  0  0  0  3  0  0  0  0  0  0
  -17.7960  -30.1070   24.0260 C   0  0  0  0  0  3  0  0  0  0  0  0
  -16.6860  -29.3590   23.5960 C   0  0  0  0  0  3  0  0  0  0  0  0
  -16.8820  -28.1490   22.9070 C   0  0  0  0  0  3  0  0  0  0  0  0
  -25.9050  -32.2320   23.6610 C   0  0  0  0  0  3  0  0  0  0  0  0
  -26.4290  -31.4390   24.9210 C   0  0  1  0  0  0  0  0  0  0  0  0
  -25.3350  -31.1580   25.9770 C   0  0  0  0  0  1  0  0  0  0  0  0
  -27.0400  -30.0800   24.5060 C   0  0  0  0  0  1  0  0  0  0  0  0
  -27.5610  -32.2360   25.6110 C   0  0  0  0  0  1  0  0  0  0  0  0
  -25.5510  -33.6110   24.0360 N   0  0  0  0  0  0  0  0  0  0  0  0
  -25.8480  -34.7000   23.3160 C   0  0  0  0  0  0  0  0  0  0  0  0
  -26.5170  -34.6540   22.2810 O   0  0  0  0  0  0  0  0  0  0  0  0
  -24.9510  -33.7160   24.8410 H   0  0  0  0  0  0  0  0  0  0  0  0
  -24.0660  -36.4580   23.0310 C   0  0  0  0  0  1  0  0  0  0  0  0
  -25.3190  -36.0580   23.8250 C   0  0  0  0  0  3  0  0  0  0  0  0
  -27.4270  -36.9820   24.6860 C   0  0  0  0  0  1  0  0  0  0  0  0
  -26.3200  -37.1460   23.7470 N   0  0  0  0  0  0  0  0  0  0  0  0
  -25.8870  -38.0490   23.9220 H   0  0  0  0  0  0  0  0  0  0  0  0
  -29.5050  -17.7950   20.3390 C   0  0  0  0  0  3  0  0  0  0  0  0
  -30.3460  -15.1200   19.8310 C   0  0  0  0  0  0  0  0  0  0  0  0
  -30.2860  -12.7380   18.9470 C   0  0  0  0  0  2  0  0  0  0  0  0
  -29.2860  -12.6040   17.7730 C   0  0  0  0  0  2  0  0  0  0  0  0
  -27.8560  -12.3600   18.2930 C   0  0  0  0  0  2  0  0  0  0  0  0
  -27.4760  -13.3050   19.4610 C   0  0  0  0  0  3  0  0  0  0  0  0
  -28.5890  -13.3950   20.5250 C   0  0  0  0  0  2  0  0  0  0  0  0
  -29.8000  -13.8370   19.8240 N   0  0  0  0  0  0  0  0  0  0  0  0
  -31.5520  -15.2270   19.5880 O   0  0  0  0  0  0  0  0  0  0  0  0
  -29.4810  -16.2590   19.8790 N   0  0  0  0  0  0  0  0  0  0  0  0
  -28.5290  -15.9350   19.8280 H   0  0  0  0  0  0  0  0  0  0  0  0
  -25.1370  -13.8470   20.3350 C   0  0  0  0  0  0  0  0  0  0  0  0
  -24.1010  -13.0640   20.7530 C   0  0  0  0  0  0  0  0  0  0  0  0
  -24.5720  -11.7160   20.6770 C   0  0  0  0  0  0  0  0  0  0  0  0
  -26.1740  -12.9830   20.0310 N   0  0  0  0  0  0  0  0  0  0  0  0
  -25.8450  -11.6940   20.2990 N   0  0  0  0  0  0  0  0  0  0  0  0
  -23.8610  -10.4490   20.8800 C   0  0  0  0  0  0  0  0  0  0  0  0
  -24.3200   -9.4910   21.8110 C   0  0  0  0  0  3  0  0  0  0  0  0
  -23.6080   -8.2890   22.0100 C   0  0  0  0  0  3  0  0  0  0  0  0
  -22.4230   -8.0370   21.2770 C   0  0  0  0  0  0  0  0  0  0  0  0
  -21.9810   -8.9850   20.3370 C   0  0  0  0  0  3  0  0  0  0  0  0
  -22.6950  -10.1790   20.1370 C   0  0  0  0  0  3  0  0  0  0  0  0
  -21.6830   -6.8860   21.3790 O   0  0  0  0  0  0  0  0  0  0  0  0
  -21.6000   -6.1860   22.5570 C   0  0  0  0  0  0  0  0  0  0  0  0
  -21.1040   -6.7760   23.7380 C   0  0  0  0  0  3  0  0  0  0  0  0
  -20.9700   -6.0030   24.9090 C   0  0  0  0  0  3  0  0  0  0  0  0
  -21.3240   -4.6410   24.9000 C   0  0  0  0  0  0  0  0  0  0  0  0
  -21.8180   -4.0490   23.7210 C   0  0  0  0  0  3  0  0  0  0  0  0
  -21.9500   -4.8210   22.5530 C   0  0  0  0  0  0  0  0  0  0  0  0
  -22.4040   -4.2410   21.4160 F   0  0  0  0  0  0  0  0  0  0  0  0
  -21.1900   -3.8950   26.0210 F   0  0  0  0  0  0  0  0  0  0  0  0
  -22.7160  -13.5280   21.1030 C   0  0  0  0  0  0  0  0  0  0  0  0
  -22.0480  -12.8300   22.0140 N   0  0  0  0  0  0  0  0  0  0  0  0
  -22.2400  -14.5490   20.6080 O   0  0  0  0  0  0  0  0  0  0  0  0
  -22.4470  -12.0000   22.4300 H   0  0  0  0  0  0  0  0  0  0  0  0
  -21.1230  -13.1250   22.2940 H   0  0  0  0  0  0  0  0  0  0  0  0
  -25.2680  -15.2160   20.1450 N   0  0  0  0  0  0  0  0  0  0  0  0
  -24.4840  -15.8420   20.2910 H   0  0  0  0  0  0  0  0  0  0  0  0
  -26.0600  -15.6530   19.6950 H   0  0  0  0  0  0  0  0  0  0  0  0
  -28.1120  -18.0490   21.0150 C   0  0  0  0  0  2  0  0  0  0  0  0
  -27.1010  -19.0430   20.3740 C   0  0  0  0  0  2  0  0  0  0  0  0
  -26.7370  -18.8630   18.8840 C   0  0  0  0  0  2  0  0  0  0  0  0
  -26.3480  -20.2030   18.2150 C   0  0  0  0  0  2  0  0  0  0  0  0
  -26.0620  -20.0650   16.7750 N   0  0  0  0  0  4  0  0  0  0  0  0
  -26.8670  -19.7350   16.2730 H   0  0  0  0  0  0  0  0  0  0  0  0
  -25.8060  -20.9580   16.3890 H   0  0  0  0  0  0  0  0  0  0  0  0
  -25.2980  -19.4350   16.6100 H   0  0  0  0  0  0  0  0  0  0  0  0
  1  6  1  0
  1 53  1  0
  2  1  1  0
  2  3  1  0
  4  2  1  0
  5  2  1  0
  6  8  2  0
  7 10  1  0
  7  6  1  0
  9  7  1  0
 11 12  1  0
 11 10  2  0
 13 24  2  0
 14 12  1  0
 14 19  1  0
 15 23  1  0
 15 25  1  0
 16 22  1  0
 16 18  1  0
 17 23  1  0
 18 17  1  0
 19 18  2  0
 20 21  1  0
 20 14  2  0
 21 16  2  0
 22 15  1  0
 23 13  1  0
 25 27  2  0
 26 25  1  0
 28 26  1  0
 29 38  2  0
 29 34  1  0
 30 26  1  0
 30 34  1  0
 31 30  1  0
 32 33  1  0
 32 31  1  0
 33 29  1  0
 34 35  2  0
 35 36  1  0
 37 36  2  0
 38 37  1  0
 39 13  1  0
 39 44  1  0
 39 40  1  0
 40 43  1  1
 40 41  1  0
 42 40  1  0
 44 47  1  0
 45 49  1  0
 45 44  1  0
 46 45  2  0
 49 48  1  0
 51 49  1  0
 51 52  1  0
 51 50  1  0
 53 92  1  0
 54 62  1  0
 55 60  1  0
 56 57  1  0
 56 55  1  0
 58 57  1  0
 58 67  1  0
 58 59  1  0
 60 54  1  0
 60 59  1  0
 61 54  2  0
 62 53  1  0
 63 62  1  0
 64 65  2  0
 65 84  1  0
 66 65  1  0
 66 69  1  0
 67 68  1  0
 67 64  1  0
 68 66  2  0
 69 70  1  0
 70 71  2  0
 72 75  1  0
 72 71  1  0
 73 72  2  0
 74 73  1  0
 74 69  2  0
 75 76  1  0
 76 77  1  0
 77 78  2  0
 79 78  1  0
 79 83  1  0
 80 79  2  0
 81 76  2  0
 81 80  1  0
 82 81  1  0
 84 85  1  0
 85 88  1  0
 85 87  1  0
 86 84  2  0
 89 90  1  0
 89 64  1  0
 91 89  1  0
 93 92  1  0
 94 93  1  0
 95 94  1  0
 96 95  1  0
 97 96  1  0
 98 96  1  0
 99 96  1  0
M  ISO  4  11 101  12 101  54 100  62 100
M  END
>  <TORSDO>  (86) 
F 26

>  <SCORE>  (86) 
-11.018

>  <name>  (86) 
86

>  <ligand_id>  (86) 
86

>  <original_smiles>  (86) 
[H]c1c([H])c([H])c2c(c1[H])C([H])([H])C([H])([H])C([H])([H])C2([H])N([H])C(=O)C1([H])N(C(=O)C([H])(N([H])C(=O)C([H])(N([H])C([H])([H])[H])C([H])([H])[H])C(C([H])([H])[H])(C([H])([H])[H])C([H])([H])[H])C([H])([H])c2c([H])c(OC([H])([H])C([H])([H])N([H])C(=O)C([H])(C([H])(N([H])C(=O)N3C([H])([H])C([H])([H])C([H])([H])C([H])(n4nc(-c5c([H])c([H])c(Oc6c([H])c([H])c(F)c([H])c6F)c([H])c5[H])c(C(=O)N([H])[H])c4N([H])[H])C3([H])[H])C([H])([H])C([H])([H])C([H])([H])C([H])([H])[N+]([H])([H])[H])[N+]([H])([H])[H])c([H])c([H])c2C1([H])[H]

>  <smiles>  (86) 
[H]c1c([H])c([H])c2c(c1[H])C([H])([H])C([H])([H])C([H])([H])C2([H])N([H])C(=O)C1([H])N(C(=O)C([H])(N([H])C(=O)C([H])(N([H])C([H])([H])[H])C([H])([H])[H])C(C([H])([H])[H])(C([H])([H])[H])C([H])([H])[H])C([H])([H])c2c([H])c(OC([H])([H])C([H])([H])N([H])C(=O)C([H])(C([H])(N([H])C(=O)N3C([H])([H])C([H])([H])C([H])([H])C([H])(n4nc(-c5c([H])c([H])c(Oc6c([H])c([H])c(F)c([H])c6F)c([H])c5[H])c(C(=O)N([H])[H])c4N([H])[H])C3([H])[H])C([H])([H])C([H])([H])C([H])([H])C([H])([H])[N+]([H])([H])[H])[N+]([H])([H])[H])c([H])c([H])c2C1([H])[H]

$$$$
87:0:0
     RDKit          3D

 97104  0  0  1  0  0  0  0  0999 V2000
  -29.9190  -18.7650   16.2190 C   0  0  0  0  0  2  0  0  0  0  0  0
  -30.7970  -17.5380   16.5250 C   0  0  0  0  0  2  0  0  0  0  0  0
  -30.1740  -16.8500   18.8360 C   0  0  0  0  0  0  0  0  0  0  0  0
  -31.0350  -17.3710   17.9570 N   0  0  0  0  0  0  0  0  0  0  0  0
  -29.0550  -16.4540   18.5050 O   0  0  0  0  0  0  0  0  0  0  0  0
  -31.9510  -17.6310   18.3000 H   0  0  0  0  0  0  0  0  0  0  0  0
  -30.6740  -16.6840   20.2920 C   0  0  0  0  0  3  0  0  0  0  0  0
  -31.1250  -14.2670   20.1740 C   0  0  0  0  0  0  0  0  0  0  0  0
  -30.7090  -12.1640   18.9810 C   0  0  0  0  0  2  0  0  0  0  0  0
  -29.7660  -12.4660   17.7980 C   0  0  0  0  0  2  0  0  0  0  0  0
  -28.2920  -12.3940   18.2430 C   0  0  0  0  0  2  0  0  0  0  0  0
  -28.0150  -13.2100   19.5330 C   0  0  0  0  0  3  0  0  0  0  0  0
  -29.0660  -12.8920   20.6220 C   0  0  0  0  0  2  0  0  0  0  0  0
  -30.4030  -13.1260   20.0480 N   0  0  0  0  0  0  0  0  0  0  0  0
  -32.2400  -14.4290   19.6700 O   0  0  0  0  0  0  0  0  0  0  0  0
  -30.4470  -15.2960   20.6990 N   0  0  0  0  0  0  0  0  0  0  0  0
  -29.5330  -15.0870   21.0660 H   0  0  0  0  0  0  0  0  0  0  0  0
  -25.6460  -13.9270   20.2420 C   0  0  0  0  0  0  0  0  0  0  0  0
  -24.5510  -13.2040   20.6290 C   0  0  0  0  0  0  0  0  0  0  0  0
  -24.9570  -11.8340   20.6060 C   0  0  0  0  0  0  0  0  0  0  0  0
  -26.6540  -13.0020   20.0170 N   0  0  0  0  0  0  0  0  0  0  0  0
  -26.2410  -11.7380   20.2880 N   0  0  0  0  0  0  0  0  0  0  0  0
  -24.1820  -10.6030   20.8100 C   0  0  0  0  0  0  0  0  0  0  0  0
  -24.5740   -9.6330   21.7590 C   0  0  0  0  0  3  0  0  0  0  0  0
  -23.8040   -8.4650   21.9490 C   0  0  0  0  0  3  0  0  0  0  0  0
  -22.6280   -8.2610   21.1910 C   0  0  0  0  0  0  0  0  0  0  0  0
  -22.2540   -9.2190   20.2310 C   0  0  0  0  0  3  0  0  0  0  0  0
  -23.0250  -10.3780   20.0400 C   0  0  0  0  0  3  0  0  0  0  0  0
  -21.8300   -7.1460   21.2890 O   0  0  0  0  0  0  0  0  0  0  0  0
  -21.7280   -6.4370   22.4600 C   0  0  0  0  0  0  0  0  0  0  0  0
  -21.3000   -7.0410   23.6620 C   0  0  0  0  0  3  0  0  0  0  0  0
  -21.1410   -6.2610   24.8250 C   0  0  0  0  0  3  0  0  0  0  0  0
  -21.4000   -4.8780   24.7860 C   0  0  0  0  0  0  0  0  0  0  0  0
  -21.8210   -4.2740   23.5880 C   0  0  0  0  0  3  0  0  0  0  0  0
  -21.9810   -5.0510   22.4270 C   0  0  0  0  0  0  0  0  0  0  0  0
  -22.3670   -4.4600   21.2710 F   0  0  0  0  0  0  0  0  0  0  0  0
  -21.2400   -4.1260   25.9000 F   0  0  0  0  0  0  0  0  0  0  0  0
  -23.1770  -13.7380   20.9110 C   0  0  0  0  0  0  0  0  0  0  0  0
  -22.4330  -13.0820   21.7960 N   0  0  0  0  0  0  0  0  0  0  0  0
  -22.7710  -14.7720   20.3830 O   0  0  0  0  0  0  0  0  0  0  0  0
  -22.7730  -12.2450   22.2450 H   0  0  0  0  0  0  0  0  0  0  0  0
  -21.5110  -13.4230   22.0280 H   0  0  0  0  0  0  0  0  0  0  0  0
  -25.8660  -15.2870   20.0440 N   0  0  0  0  0  0  0  0  0  0  0  0
  -25.1280  -15.9740   20.1440 H   0  0  0  0  0  0  0  0  0  0  0  0
  -26.7200  -15.6720   19.6590 H   0  0  0  0  0  0  0  0  0  0  0  0
  -28.4820  -17.3970   21.5270 C   0  0  0  0  0  1  0  0  0  0  0  0
  -29.9850  -17.6660   21.2910 C   0  0  0  0  0  3  0  0  0  0  0  0
  -32.0780  -18.4150   22.6230 C   0  0  0  0  0  1  0  0  0  0  0  0
  -30.7100  -17.7180   22.6560 C   0  0  0  0  0  2  0  0  0  0  0  0
  -30.4610  -20.0570   16.8500 C   0  0  0  0  0  2  0  0  0  0  0  0
  -29.6070  -21.2940   16.5490 C   0  0  0  0  0  2  0  0  0  0  0  0
  -30.0370  -22.4690   17.4360 C   0  0  0  0  0  2  0  0  0  0  0  0
  -29.2860  -23.7710   17.1440 C   0  0  0  0  0  2  0  0  0  0  0  0
  -29.5910  -24.8240   18.2140 C   0  0  0  0  0  2  0  0  0  0  0  0
  -29.0190  -26.2100   17.8860 C   0  0  0  0  0  2  0  0  0  0  0  0
  -29.1600  -27.1730   19.0710 C   0  0  0  0  0  2  0  0  0  0  0  0
  -28.2830  -26.7560   20.1130 O   0  0  0  0  0  0  0  0  0  0  0  0
  -24.5010  -31.9080   23.2110 C   0  0  0  0  0  0  0  0  0  0  0  0
  -27.1100  -27.4590   20.1590 C   0  0  0  0  0  0  0  0  0  0  0  0
  -23.2730  -30.4900   21.5960 C   0  0  0  0  0  3  0  0  0  0  0  0
  -24.7090  -28.9260   20.1850 C   0  0  0  0  0  0  0  0  0  0  0  0
  -25.7910  -30.8490   21.3660 C   0  0  0  0  0  2  0  0  0  0  0  0
  -25.8680  -29.4700   20.7530 C   0  0  0  0  0  0  0  0  0  0  0  0
  -27.0730  -28.7390   20.7460 C   0  0  0  0  0  3  0  0  0  0  0  0
  -25.9370  -26.9060   19.6100 C   0  0  0  0  0  3  0  0  0  0  0  0
  -24.7330  -27.6380   19.6160 C   0  0  0  0  0  3  0  0  0  0  0  0
  -23.4670  -29.7870   20.2250 C   0  0  0  0  0  2  0  0  0  0  0  0
  -24.5390  -31.0970   22.1170 N   0  0  0  0  0  0  0  0  0  0  0  0
  -23.4270  -32.1910   23.7590 O   0  0  0  0  0  0  0  0  0  0  0  0
  -22.6290  -29.4840   22.5760 C   0  0  0  0  0  0  0  0  0  0  0  0
  -21.3000  -29.3180   22.4710 N   0  0  0  0  0  0  0  0  0  0  0  0
  -23.3180  -28.8570   23.3850 O   0  0  0  0  0  0  0  0  0  0  0  0
  -20.8060  -29.8780   21.7900 H   0  0  0  0  0  0  0  0  0  0  0  0
  -17.9190  -28.1810   23.0330 C   0  0  0  0  0  0  0  0  0  0  0  0
  -20.4830  -28.3970   23.2610 C   0  0  0  0  0  3  0  0  0  0  0  0
  -20.5530  -26.9620   22.6900 C   0  0  0  0  0  2  0  0  0  0  0  0
  -19.4280  -26.6530   21.6960 C   0  0  0  0  0  2  0  0  0  0  0  0
  -18.0610  -26.8250   22.3630 C   0  0  0  0  0  2  0  0  0  0  0  0
  -19.0560  -28.9260   23.4410 C   0  0  0  0  0  0  0  0  0  0  0  0
  -18.8720  -30.1970   24.0270 C   0  0  0  0  0  3  0  0  0  0  0  0
  -17.5800  -30.7230   24.2110 C   0  0  0  0  0  3  0  0  0  0  0  0
  -16.4550  -29.9750   23.8200 C   0  0  0  0  0  3  0  0  0  0  0  0
  -16.6250  -28.7060   23.2390 C   0  0  0  0  0  3  0  0  0  0  0  0
  -25.7970  -32.5380   23.8110 C   0  0  0  0  0  3  0  0  0  0  0  0
  -26.3440  -31.7570   25.0670 C   0  0  1  0  0  0  0  0  0  0  0  0
  -25.2740  -31.5050   26.1550 C   0  0  0  0  0  1  0  0  0  0  0  0
  -26.9220  -30.3870   24.6460 C   0  0  0  0  0  1  0  0  0  0  0  0
  -27.5050  -32.5500   25.7140 C   0  0  0  0  0  1  0  0  0  0  0  0
  -25.4920  -33.9330   24.1540 N   0  0  0  0  0  0  0  0  0  0  0  0
  -25.8120  -34.9900   23.3940 C   0  0  0  0  0  0  0  0  0  0  0  0
  -26.4660  -34.8920   22.3520 O   0  0  0  0  0  0  0  0  0  0  0  0
  -24.9070  -34.0830   24.9630 H   0  0  0  0  0  0  0  0  0  0  0  0
  -24.0740  -36.7760   23.0740 C   0  0  0  0  0  1  0  0  0  0  0  0
  -25.3280  -36.3740   23.8650 C   0  0  0  0  0  3  0  0  0  0  0  0
  -27.4750  -37.2580   24.6630 C   0  0  0  0  0  1  0  0  0  0  0  0
  -26.3570  -37.4300   23.7400 N   0  0  0  0  0  0  0  0  0  0  0  0
  -25.9510  -38.3480   23.9010 H   0  0  0  0  0  0  0  0  0  0  0  0
  1  2  1  0
  1 50  1  0
  2  4  1  0
  4  6  1  0
  4  3  1  0
  5  3  2  0
  7  3  1  0
  7 16  1  0
  7 47  1  0
  8 16  1  0
  9 14  1  0
 10 11  1  0
 10  9  1  0
 12 11  1  0
 12 21  1  0
 12 13  1  0
 14  8  1  0
 14 13  1  0
 15  8  2  0
 16 17  1  0
 18 19  2  0
 19 38  1  0
 20 19  1  0
 20 23  1  0
 21 18  1  0
 21 22  1  0
 22 20  2  0
 23 24  1  0
 24 25  2  0
 26 29  1  0
 26 25  1  0
 27 26  2  0
 28 27  1  0
 28 23  2  0
 29 30  1  0
 30 31  1  0
 31 32  2  0
 33 32  1  0
 33 37  1  0
 34 33  2  0
 35 30  2  0
 35 34  1  0
 36 35  1  0
 38 39  1  0
 39 42  1  0
 39 41  1  0
 40 38  2  0
 43 44  1  0
 43 18  1  0
 45 43  1  0
 47 46  1  0
 47 49  1  0
 48 49  1  0
 51 50  1  0
 51 52  1  0
 53 52  1  0
 53 54  1  0
 55 54  1  0
 55 56  1  0
 56 57  1  0
 57 59  1  0
 58 69  2  0
 59 64  1  0
 60 68  1  0
 60 70  1  0
 61 67  1  0
 61 63  1  0
 62 68  1  0
 63 62  1  0
 64 63  2  0
 65 66  1  0
 65 59  2  0
 66 61  2  0
 67 60  1  0
 68 58  1  0
 70 72  2  0
 71 70  1  0
 73 71  1  0
 74 83  2  0
 74 79  1  0
 75 71  1  0
 75 79  1  0
 76 75  1  0
 77 78  1  0
 77 76  1  0
 78 74  1  0
 79 80  2  0
 80 81  1  0
 82 81  2  0
 83 82  1  0
 84 58  1  0
 84 89  1  0
 84 85  1  0
 85 88  1  1
 85 86  1  0
 87 85  1  0
 89 92  1  0
 90 94  1  0
 90 89  1  0
 91 90  2  0
 94 93  1  0
 96 94  1  0
 96 97  1  0
 96 95  1  0
M  ISO  4   8 100  16 100  56 101  57 101
M  END
>  <TORSDO>  (87) 
F 28

>  <SCORE>  (87) 
-9.197

>  <name>  (87) 
87

>  <ligand_id>  (87) 
87

>  <original_smiles>  (87) 
[H]c1c([H])c([H])c2c(c1[H])C([H])([H])C([H])([H])C([H])([H])C2([H])N([H])C(=O)C1([H])N(C(=O)C([H])(N([H])C(=O)C([H])(N([H])C([H])([H])[H])C([H])([H])[H])C(C([H])([H])[H])(C([H])([H])[H])C([H])([H])[H])C([H])([H])c2c([H])c(OC([H])([H])C([H])([H])C([H])([H])C([H])([H])C([H])([H])C([H])([H])C([H])([H])C([H])([H])C([H])([H])N([H])C(=O)C([H])(N([H])C(=O)N3C([H])([H])C([H])([H])C([H])([H])C([H])(n4nc(-c5c([H])c([H])c(Oc6c([H])c([H])c(F)c([H])c6F)c([H])c5[H])c(C(=O)N([H])[H])c4N([H])[H])C3([H])[H])C([H])(C([H])([H])[H])C([H])([H])C([H])([H])[H])c([H])c([H])c2C1([H])[H]

>  <smiles>  (87) 
[H]c1c([H])c([H])c2c(c1[H])C([H])([H])C([H])([H])C([H])([H])C2([H])N([H])C(=O)C1([H])N(C(=O)C([H])(N([H])C(=O)C([H])(N([H])C([H])([H])[H])C([H])([H])[H])C(C([H])([H])[H])(C([H])([H])[H])C([H])([H])[H])C([H])([H])c2c([H])c(OC([H])([H])C([H])([H])C([H])([H])C([H])([H])C([H])([H])C([H])([H])C([H])([H])C([H])([H])C([H])([H])N([H])C(=O)C([H])(N([H])C(=O)N3C([H])([H])C([H])([H])C([H])([H])C([H])(n4nc(-c5c([H])c([H])c(Oc6c([H])c([H])c(F)c([H])c6F)c([H])c5[H])c(C(=O)N([H])[H])c4N([H])[H])C3([H])[H])C([H])(C([H])([H])[H])C([H])([H])C([H])([H])[H])c([H])c([H])c2C1([H])[H]

$$$$
88:0:0
     RDKit          3D

 90 97  0  0  1  0  0  0  0  0999 V2000
  -28.9770  -22.1560   20.1490 C   0  0  0  0  0  3  0  0  0  0  0  0
  -28.7060  -20.3040   20.2480 C   0  0  0  0  0  0  0  0  0  0  0  0
  -27.5160  -20.0170   20.4060 O   0  0  0  0  0  0  0  0  0  0  0  0
  -29.7580  -18.7690   20.1540 C   0  0  0  0  0  2  0  0  0  0  0  0
  -30.2830  -15.6520   20.0880 C   0  0  0  0  0  0  0  0  0  0  0  0
  -30.3600  -13.1310   19.2280 C   0  0  0  0  0  2  0  0  0  0  0  0
  -29.4220  -12.7560   18.0450 C   0  0  0  0  0  2  0  0  0  0  0  0
  -28.0200  -12.3850   18.5470 C   0  0  0  0  0  2  0  0  0  0  0  0
  -27.5460  -13.3630   19.6470 C   0  0  0  0  0  3  0  0  0  0  0  0
  -28.6180  -13.6540   20.7260 C   0  0  0  0  0  2  0  0  0  0  0  0
  -29.7620  -14.2880   20.0330 N   0  0  0  0  0  0  0  0  0  0  0  0
  -31.5080  -15.6070   19.8660 O   0  0  0  0  0  0  0  0  0  0  0  0
  -29.5290  -17.0070   20.1950 N   0  0  0  0  0  0  0  0  0  0  0  0
  -28.5470  -16.8110   20.3310 H   0  0  0  0  0  0  0  0  0  0  0  0
  -25.2190  -13.8670   20.5310 C   0  0  0  0  0  0  0  0  0  0  0  0
  -24.1800  -13.0730   20.9220 C   0  0  0  0  0  0  0  0  0  0  0  0
  -24.6510  -11.7270   20.8310 C   0  0  0  0  0  0  0  0  0  0  0  0
  -26.2520  -13.0080   20.2120 N   0  0  0  0  0  0  0  0  0  0  0  0
  -25.9310  -11.7110   20.4630 N   0  0  0  0  0  0  0  0  0  0  0  0
  -23.9360  -10.4580   21.0100 C   0  0  0  0  0  0  0  0  0  0  0  0
  -24.3690   -9.4910   21.9420 C   0  0  0  0  0  3  0  0  0  0  0  0
  -23.6520   -8.2870   22.1120 C   0  0  0  0  0  3  0  0  0  0  0  0
  -22.4840   -8.0430   21.3500 C   0  0  0  0  0  0  0  0  0  0  0  0
  -22.0700   -9.0000   20.4070 C   0  0  0  0  0  3  0  0  0  0  0  0
  -22.7890  -10.1940   20.2330 C   0  0  0  0  0  3  0  0  0  0  0  0
  -21.7310   -6.8960   21.4360 O   0  0  0  0  0  0  0  0  0  0  0  0
  -21.6340   -6.1830   22.6050 C   0  0  0  0  0  0  0  0  0  0  0  0
  -21.0880   -6.7460   23.7790 C   0  0  0  0  0  3  0  0  0  0  0  0
  -20.9400   -5.9550   24.9360 C   0  0  0  0  0  3  0  0  0  0  0  0
  -21.3290   -4.6020   24.9200 C   0  0  0  0  0  0  0  0  0  0  0  0
  -21.8670   -4.0380   23.7490 C   0  0  0  0  0  3  0  0  0  0  0  0
  -22.0170   -4.8270   22.5950 C   0  0  0  0  0  0  0  0  0  0  0  0
  -22.5150   -4.2710   21.4640 F   0  0  0  0  0  0  0  0  0  0  0  0
  -21.1800   -3.8390   26.0280 F   0  0  0  0  0  0  0  0  0  0  0  0
  -22.7920  -13.5380   21.2540 C   0  0  0  0  0  0  0  0  0  0  0  0
  -22.0960  -12.8210   22.1290 N   0  0  0  0  0  0  0  0  0  0  0  0
  -22.3340  -14.5740   20.7740 O   0  0  0  0  0  0  0  0  0  0  0  0
  -22.4830  -11.9880   22.5460 H   0  0  0  0  0  0  0  0  0  0  0  0
  -21.1640  -13.1120   22.3880 H   0  0  0  0  0  0  0  0  0  0  0  0
  -25.3640  -15.2450   20.3830 N   0  0  0  0  0  0  0  0  0  0  0  0
  -24.5950  -15.8880   20.5480 H   0  0  0  0  0  0  0  0  0  0  0  0
  -26.1720  -15.6920   19.9690 H   0  0  0  0  0  0  0  0  0  0  0  0
  -30.2780  -22.4240   20.9400 C   0  0  0  0  0  2  0  0  0  0  0  0
  -31.5550  -22.1930   20.0990 C   0  0  0  0  0  2  0  0  0  0  0  0
  -32.7890  -22.2440   20.9060 N   0  0  0  0  0  4  0  0  0  0  0  0
  -32.8860  -23.1280   21.3730 H   0  0  0  0  0  0  0  0  0  0  0  0
  -33.5910  -22.1240   20.3120 H   0  0  0  0  0  0  0  0  0  0  0  0
  -32.8080  -21.5110   21.5930 H   0  0  0  0  0  0  0  0  0  0  0  0
  -27.9620  -23.8110   20.2660 C   0  0  0  0  0  2  0  0  0  0  0  0
  -28.1620  -25.5590   20.2830 O   0  0  0  0  0  0  0  0  0  0  0  0
  -24.6740  -31.8320   23.2410 C   0  0  0  0  0  0  0  0  0  0  0  0
  -27.1870  -26.7650   20.2470 C   0  0  0  0  0  0  0  0  0  0  0  0
  -23.4860  -30.4440   21.6010 C   0  0  0  0  0  3  0  0  0  0  0  0
  -24.9260  -28.7940   20.1920 C   0  0  0  0  0  0  0  0  0  0  0  0
  -26.0640  -30.5820   21.4810 C   0  0  0  0  0  2  0  0  0  0  0  0
  -26.1220  -29.1500   20.8260 C   0  0  0  0  0  0  0  0  0  0  0  0
  -27.2390  -28.1630   20.8200 C   0  0  0  0  0  3  0  0  0  0  0  0
  -25.9570  -26.6160   19.5570 C   0  0  0  0  0  3  0  0  0  0  0  0
  -24.8810  -27.5530   19.5340 C   0  0  0  0  0  3  0  0  0  0  0  0
  -23.7240  -29.7490   20.2300 C   0  0  0  0  0  2  0  0  0  0  0  0
  -24.7650  -30.9840   22.1620 N   0  0  0  0  0  0  0  0  0  0  0  0
  -23.5800  -32.1350   23.7510 O   0  0  0  0  0  0  0  0  0  0  0  0
  -22.7620  -29.4680   22.5670 C   0  0  0  0  0  0  0  0  0  0  0  0
  -21.4290  -29.3160   22.4300 N   0  0  0  0  0  0  0  0  0  0  0  0
  -23.4100  -28.8430   23.4080 O   0  0  0  0  0  0  0  0  0  0  0  0
  -20.9570  -29.8700   21.7290 H   0  0  0  0  0  0  0  0  0  0  0  0
  -18.0340  -28.1180   22.9280 C   0  0  0  0  0  0  0  0  0  0  0  0
  -20.5950  -28.3800   23.1960 C   0  0  0  0  0  3  0  0  0  0  0  0
  -20.6940  -26.9490   22.6200 C   0  0  0  0  0  2  0  0  0  0  0  0
  -19.5930  -26.6330   21.6020 C   0  0  0  0  0  2  0  0  0  0  0  0
  -18.2090  -26.7750   22.2420 C   0  0  0  0  0  2  0  0  0  0  0  0
  -19.1530  -28.8790   23.3620 C   0  0  0  0  0  0  0  0  0  0  0  0
  -18.9320  -30.1330   23.9690 C   0  0  0  0  0  3  0  0  0  0  0  0
  -17.6260  -30.6300   24.1430 C   0  0  0  0  0  3  0  0  0  0  0  0
  -16.5220  -29.8690   23.7230 C   0  0  0  0  0  3  0  0  0  0  0  0
  -16.7270  -28.6160   23.1200 C   0  0  0  0  0  3  0  0  0  0  0  0
  -25.9380  -32.4740   23.8890 C   0  0  0  0  0  3  0  0  0  0  0  0
  -26.4270  -31.7040   25.1780 C   0  0  1  0  0  0  0  0  0  0  0  0
  -25.3150  -31.4780   26.2300 C   0  0  0  0  0  1  0  0  0  0  0  0
  -27.0070  -30.3190   24.8110 C   0  0  0  0  0  1  0  0  0  0  0  0
  -27.5740  -32.4890   25.8550 C   0  0  0  0  0  1  0  0  0  0  0  0
  -25.6220  -33.8750   24.2320 N   0  0  0  0  0  0  0  0  0  0  0  0
  -25.9170  -34.9390   23.4740 C   0  0  0  0  0  0  0  0  0  0  0  0
  -26.5440  -34.8460   22.4160 O   0  0  0  0  0  0  0  0  0  0  0  0
  -25.0600  -34.0230   25.0580 H   0  0  0  0  0  0  0  0  0  0  0  0
  -24.1520  -36.7210   23.2380 C   0  0  0  0  0  1  0  0  0  0  0  0
  -25.4480  -36.3270   23.9640 C   0  0  0  0  0  3  0  0  0  0  0  0
  -27.6160  -37.2500   24.6580 C   0  0  0  0  0  1  0  0  0  0  0  0
  -26.4590  -37.3920   23.7780 N   0  0  0  0  0  0  0  0  0  0  0  0
  -26.0510  -38.3090   23.9360 H   0  0  0  0  0  0  0  0  0  0  0  0
  1  2  1  0
  1 49  1  0
  1 43  1  0
  2  3  2  0
  4 13  1  0
  4  2  1  0
  5 13  1  0
  6 11  1  0
  7  8  1  0
  7  6  1  0
  9  8  1  0
  9 18  1  0
  9 10  1  0
 11  5  1  0
 11 10  1  0
 12  5  2  0
 13 14  1  0
 15 16  2  0
 16 35  1  0
 17 16  1  0
 17 20  1  0
 18 19  1  0
 18 15  1  0
 19 17  2  0
 20 21  1  0
 21 22  2  0
 23 26  1  0
 23 22  1  0
 24 23  2  0
 25 24  1  0
 25 20  2  0
 26 27  1  0
 27 28  1  0
 28 29  2  0
 30 29  1  0
 30 34  1  0
 31 30  2  0
 32 27  2  0
 32 31  1  0
 33 32  1  0
 35 36  1  0
 36 39  1  0
 36 38  1  0
 37 35  2  0
 40 15  1  0
 40 41  1  0
 42 40  1  0
 44 45  1  0
 44 43  1  0
 45 46  1  0
 45 48  1  0
 47 45  1  0
 49 50  1  0
 51 62  2  0
 52 50  1  0
 52 57  1  0
 53 61  1  0
 53 63  1  0
 54 60  1  0
 54 56  1  0
 55 61  1  0
 56 55  1  0
 57 56  2  0
 58 52  2  0
 59 58  1  0
 59 54  2  0
 60 53  1  0
 61 51  1  0
 63 65  2  0
 64 63  1  0
 66 64  1  0
 67 76  2  0
 67 72  1  0
 68 64  1  0
 68 72  1  0
 69 68  1  0
 70 71  1  0
 70 69  1  0
 71 67  1  0
 72 73  2  0
 73 74  1  0
 75 74  2  0
 76 75  1  0
 77 51  1  0
 77 82  1  0
 77 78  1  0
 78 81  1  1
 78 79  1  0
 80 78  1  0
 82 85  1  0
 83 87  1  0
 83 82  1  0
 84 83  2  0
 87 86  1  0
 89 90  1  0
 89 87  1  0
 89 88  1  0
M  ISO  4   5 100  13 100  49 101  50 101
M  END
>  <TORSDO>  (88) 
F 22

>  <SCORE>  (88) 
-15.394

>  <name>  (88) 
88

>  <ligand_id>  (88) 
88

>  <original_smiles>  (88) 
[H]c1c([H])c([H])c2c(c1[H])C([H])([H])C([H])([H])C([H])([H])C2([H])N([H])C(=O)C1([H])N(C(=O)C([H])(N([H])C(=O)C([H])(N([H])C([H])([H])[H])C([H])([H])[H])C(C([H])([H])[H])(C([H])([H])[H])C([H])([H])[H])C([H])([H])c2c([H])c(OC([H])([H])C([H])(C(=O)C([H])([H])N([H])C(=O)N3C([H])([H])C([H])([H])C([H])([H])C([H])(n4nc(-c5c([H])c([H])c(Oc6c([H])c([H])c(F)c([H])c6F)c([H])c5[H])c(C(=O)N([H])[H])c4N([H])[H])C3([H])[H])C([H])([H])C([H])([H])[N+]([H])([H])[H])c([H])c([H])c2C1([H])[H]

>  <smiles>  (88) 
[H]c1c([H])c([H])c2c(c1[H])C([H])([H])C([H])([H])C([H])([H])C2([H])N([H])C(=O)C1([H])N(C(=O)C([H])(N([H])C(=O)C([H])(N([H])C([H])([H])[H])C([H])([H])[H])C(C([H])([H])[H])(C([H])([H])[H])C([H])([H])[H])C([H])([H])c2c([H])c(OC([H])([H])C([H])(C(=O)C([H])([H])N([H])C(=O)N3C([H])([H])C([H])([H])C([H])([H])C([H])(n4nc(-c5c([H])c([H])c(Oc6c([H])c([H])c(F)c([H])c6F)c([H])c5[H])c(C(=O)N([H])[H])c4N([H])[H])C3([H])[H])C([H])([H])C([H])([H])[N+]([H])([H])[H])c([H])c([H])c2C1([H])[H]

$$$$
89:0:0
     RDKit          3D

 97104  0  0  1  0  0  0  0  0999 V2000
  -28.5490  -21.5660   22.8980 C   0  0  0  0  0  1  0  0  0  0  0  0
  -29.3260  -21.2270   21.6130 C   0  0  0  0  0  3  0  0  0  0  0  0
  -29.8180  -19.0090   20.5560 C   0  0  0  0  0  0  0  0  0  0  0  0
  -29.0080  -19.8540   21.2130 N   0  0  0  0  0  0  0  0  0  0  0  0
  -30.9330  -19.3410   20.1490 O   0  0  0  0  0  0  0  0  0  0  0  0
  -28.1040  -19.4990   21.5010 H   0  0  0  0  0  0  0  0  0  0  0  0
  -29.2970  -17.5750   20.3230 C   0  0  0  0  0  2  0  0  0  0  0  0
  -30.3660  -16.4460   20.4220 C   0  0  0  0  0  3  0  0  0  0  0  0
  -30.1900  -14.3410   19.0100 C   0  0  0  0  0  0  0  0  0  0  0  0
  -29.6300  -12.2580   17.7990 C   0  0  0  0  0  2  0  0  0  0  0  0
  -28.4300  -12.4930   16.8580 C   0  0  0  0  0  2  0  0  0  0  0  0
  -27.0990  -12.3140   17.6100 C   0  0  0  0  0  2  0  0  0  0  0  0
  -27.0590  -13.1050   18.9420 C   0  0  0  0  0  3  0  0  0  0  0  0
  -28.3300  -12.8230   19.7710 C   0  0  0  0  0  2  0  0  0  0  0  0
  -29.4970  -13.1750   18.9410 N   0  0  0  0  0  0  0  0  0  0  0  0
  -31.0890  -14.6440   18.2180 O   0  0  0  0  0  0  0  0  0  0  0  0
  -29.7910  -15.1590   20.0010 N   0  0  0  0  0  0  0  0  0  0  0  0
  -29.0400  -14.7960   20.5690 H   0  0  0  0  0  0  0  0  0  0  0  0
  -24.8840  -13.6830   20.1940 C   0  0  0  0  0  0  0  0  0  0  0  0
  -23.9230  -12.8950   20.7690 C   0  0  0  0  0  0  0  0  0  0  0  0
  -24.3560  -11.5470   20.5850 C   0  0  0  0  0  0  0  0  0  0  0  0
  -25.8440  -12.8130   19.7020 N   0  0  0  0  0  0  0  0  0  0  0  0
  -25.5390  -11.5210   19.9840 N   0  0  0  0  0  0  0  0  0  0  0  0
  -23.6880  -10.2770   20.8930 C   0  0  0  0  0  0  0  0  0  0  0  0
  -24.2290   -9.3670   21.8280 C   0  0  0  0  0  3  0  0  0  0  0  0
  -23.5600   -8.1590   22.1190 C   0  0  0  0  0  3  0  0  0  0  0  0
  -22.3370   -7.8520   21.4780 C   0  0  0  0  0  0  0  0  0  0  0  0
  -21.8140   -8.7510   20.5310 C   0  0  0  0  0  3  0  0  0  0  0  0
  -22.4840   -9.9520   20.2390 C   0  0  0  0  0  3  0  0  0  0  0  0
  -21.6300   -6.6900   21.6780 O   0  0  0  0  0  0  0  0  0  0  0  0
  -21.6470   -6.0390   22.8840 C   0  0  0  0  0  0  0  0  0  0  0  0
  -21.1830   -6.6520   24.0690 C   0  0  0  0  0  3  0  0  0  0  0  0
  -21.1510   -5.9220   25.2730 C   0  0  0  0  0  3  0  0  0  0  0  0
  -21.5740   -4.5800   25.2950 C   0  0  0  0  0  0  0  0  0  0  0  0
  -22.0330   -3.9660   24.1160 C   0  0  0  0  0  3  0  0  0  0  0  0
  -22.0670   -4.6930   22.9140 C   0  0  0  0  0  0  0  0  0  0  0  0
  -22.4900   -4.0930   21.7760 F   0  0  0  0  0  0  0  0  0  0  0  0
  -21.5360   -3.8750   26.4500 F   0  0  0  0  0  0  0  0  0  0  0  0
  -22.6280  -13.3590   21.3720 C   0  0  0  0  0  0  0  0  0  0  0  0
  -22.1390  -12.6610   22.3910 N   0  0  0  0  0  0  0  0  0  0  0  0
  -22.0660  -14.3790   20.9750 O   0  0  0  0  0  0  0  0  0  0  0  0
  -22.6100  -11.8370   22.7370 H   0  0  0  0  0  0  0  0  0  0  0  0
  -21.2850  -12.9580   22.8400 H   0  0  0  0  0  0  0  0  0  0  0  0
  -25.0090  -15.0610   20.0370 N   0  0  0  0  0  0  0  0  0  0  0  0
  -24.2910  -15.7030   20.3540 H   0  0  0  0  0  0  0  0  0  0  0  0
  -25.7570  -15.5200   19.5300 H   0  0  0  0  0  0  0  0  0  0  0  0
  -30.9360  -16.3000   21.8590 C   0  0  0  0  0  2  0  0  0  0  0  0
  -32.0580  -14.0730   21.2820 C   0  0  0  0  0  1  0  0  0  0  0  0
  -31.9850  -14.8730   23.6730 C   0  0  0  0  0  1  0  0  0  0  0  0
  -31.2490  -14.8590   22.3250 C   0  0  0  0  0  3  0  0  0  0  0  0
  -29.0050  -22.2200   20.4730 C   0  0  0  0  0  2  0  0  0  0  0  0
  -29.6730  -23.5950   20.6750 C   0  0  0  0  0  2  0  0  0  0  0  0
  -29.4050  -24.6490   19.5780 C   0  0  0  0  0  3  0  0  0  0  0  0
  -31.3470  -23.9260   18.0440 C   0  0  0  0  0  1  0  0  0  0  0  0
  -29.8430  -24.2090   18.1630 C   0  0  0  0  0  2  0  0  0  0  0  0
  -27.9480  -25.1660   19.5820 C   0  0  0  0  0  2  0  0  0  0  0  0
  -27.9710  -26.5480   19.2280 O   0  0  0  0  0  0  0  0  0  0  0  0
  -24.4680  -31.4960   22.9330 C   0  0  0  0  0  0  0  0  0  0  0  0
  -26.7960  -27.2440   19.3840 C   0  0  0  0  0  0  0  0  0  0  0  0
  -23.1150  -30.2230   21.2980 C   0  0  0  0  0  3  0  0  0  0  0  0
  -24.4310  -28.7580   19.6760 C   0  0  0  0  0  0  0  0  0  0  0  0
  -25.6230  -30.5640   20.9310 C   0  0  0  0  0  2  0  0  0  0  0  0
  -25.6360  -29.2360   20.2020 C   0  0  0  0  0  0  0  0  0  0  0  0
  -26.8230  -28.4880   20.0500 C   0  0  0  0  0  3  0  0  0  0  0  0
  -25.5720  -26.7680   18.8640 C   0  0  0  0  0  3  0  0  0  0  0  0
  -24.3900  -27.5200   19.0090 C   0  0  0  0  0  3  0  0  0  0  0  0
  -23.2090  -29.6280   19.8670 C   0  0  0  0  0  2  0  0  0  0  0  0
  -24.4250  -30.7710   21.7790 N   0  0  0  0  0  0  0  0  0  0  0  0
  -23.4350  -31.7480   23.5680 O   0  0  0  0  0  0  0  0  0  0  0  0
  -22.5160  -29.1510   22.2360 C   0  0  0  0  0  0  0  0  0  0  0  0
  -21.1890  -28.9630   22.1570 N   0  0  0  0  0  0  0  0  0  0  0  0
  -23.2400  -28.4940   22.9880 O   0  0  0  0  0  0  0  0  0  0  0  0
  -20.6650  -29.5490   21.5220 H   0  0  0  0  0  0  0  0  0  0  0  0
  -17.8560  -27.6810   22.6930 C   0  0  0  0  0  0  0  0  0  0  0  0
  -20.4130  -27.9820   22.9140 C   0  0  0  0  0  3  0  0  0  0  0  0
  -20.5310  -26.5730   22.2870 C   0  0  0  0  0  2  0  0  0  0  0  0
  -19.4120  -26.2620   21.2890 C   0  0  0  0  0  2  0  0  0  0  0  0
  -18.0440  -26.3570   21.9700 C   0  0  0  0  0  2  0  0  0  0  0  0
  -18.9680  -28.4510   23.1220 C   0  0  0  0  0  0  0  0  0  0  0  0
  -18.7390  -29.6910   23.7570 C   0  0  0  0  0  3  0  0  0  0  0  0
  -17.4290  -30.1600   23.9690 C   0  0  0  0  0  3  0  0  0  0  0  0
  -16.3310  -29.3860   23.5570 C   0  0  0  0  0  3  0  0  0  0  0  0
  -16.5450  -28.1480   22.9250 C   0  0  0  0  0  3  0  0  0  0  0  0
  -25.8090  -32.0630   23.4940 C   0  0  0  0  0  3  0  0  0  0  0  0
  -26.4190  -31.1840   24.6540 C   0  0  1  0  0  0  0  0  0  0  0  0
  -25.4100  -30.8480   25.7760 C   0  0  0  0  0  1  0  0  0  0  0  0
  -26.9660  -29.8490   24.0950 C   0  0  0  0  0  1  0  0  0  0  0  0
  -27.6190  -31.9190   25.2950 C   0  0  0  0  0  1  0  0  0  0  0  0
  -25.5500  -33.4310   23.9610 N   0  0  0  0  0  0  0  0  0  0  0  0
  -25.8330  -34.5390   23.2610 C   0  0  0  0  0  0  0  0  0  0  0  0
  -26.4140  -34.5130   22.1730 O   0  0  0  0  0  0  0  0  0  0  0  0
  -25.0250  -33.5260   24.8190 H   0  0  0  0  0  0  0  0  0  0  0  0
  -24.1020  -36.3610   23.2010 C   0  0  0  0  0  1  0  0  0  0  0  0
  -25.4050  -35.8890   23.8660 C   0  0  0  0  0  3  0  0  0  0  0  0
  -27.6120  -36.6960   24.5730 C   0  0  0  0  0  1  0  0  0  0  0  0
  -26.4350  -36.9430   23.7440 N   0  0  0  0  0  0  0  0  0  0  0  0
  -26.0540  -37.8500   23.9980 H   0  0  0  0  0  0  0  0  0  0  0  0
  2  1  1  0
  3  4  1  0
  4  6  1  0
  4  2  1  0
  5  3  2  0
  7  3  1  0
  8  7  1  0
  8 47  1  0
  9 17  1  0
 10 15  1  0
 11 12  1  0
 11 10  1  0
 13 12  1  0
 13 22  1  0
 13 14  1  0
 15  9  1  0
 15 14  1  0
 16  9  2  0
 17  8  1  0
 17 18  1  0
 19 20  2  0
 20 39  1  0
 21 20  1  0
 21 24  1  0
 22 23  1  0
 22 19  1  0
 23 21  2  0
 24 25  1  0
 25 26  2  0
 27 30  1  0
 27 26  1  0
 28 27  2  0
 29 28  1  0
 29 24  2  0
 30 31  1  0
 31 36  2  0
 31 32  1  0
 32 33  2  0
 33 34  1  0
 34 38  1  0
 35 34  2  0
 36 35  1  0
 37 36  1  0
 39 40  1  0
 40 42  1  0
 40 43  1  0
 41 39  2  0
 44 19  1  0
 44 45  1  0
 46 44  1  0
 47 50  1  0
 48 50  1  0
 50 49  1  0
 51 52  1  0
 51  2  1  0
 53 55  1  0
 53 56  1  0
 53 52  1  0
 54 55  1  0
 57 59  1  0
 57 56  1  0
 58 69  2  0
 59 64  1  0
 60 68  1  0
 60 70  1  0
 61 67  1  0
 61 63  1  0
 62 68  1  0
 63 62  1  0
 64 63  2  0
 65 66  1  0
 65 59  2  0
 66 61  2  0
 67 60  1  0
 68 58  1  0
 70 72  2  0
 71 70  1  0
 73 71  1  0
 74 83  2  0
 74 79  1  0
 75 71  1  0
 75 79  1  0
 76 75  1  0
 77 78  1  0
 77 76  1  0
 78 74  1  0
 79 80  2  0
 80 81  1  0
 82 81  2  0
 83 82  1  0
 84 58  1  0
 84 89  1  0
 84 85  1  0
 85 88  1  1
 85 86  1  0
 87 85  1  0
 89 92  1  0
 90 94  1  0
 90 89  1  0
 91 90  2  0
 94 93  1  0
 96 94  1  0
 96 97  1  0
 96 95  1  0
M  ISO  4   9 100  17 100  56 101  57 101
M  END
>  <TORSDO>  (89) 
F 26

>  <SCORE>  (89) 
-4.091

>  <name>  (89) 
89

>  <ligand_id>  (89) 
89

>  <original_smiles>  (89) 
[H]c1c([H])c([H])c2c(c1[H])C([H])([H])C([H])([H])C([H])([H])C2([H])N([H])C(=O)C1([H])N(C(=O)C([H])(N([H])C(=O)C([H])(N([H])C([H])([H])[H])C([H])([H])[H])C(C([H])([H])[H])(C([H])([H])[H])C([H])([H])[H])C([H])([H])c2c([H])c(OC([H])([H])C([H])(C([H])([H])C([H])([H])[H])C([H])([H])C([H])([H])C([H])(N([H])C(=O)C([H])([H])C([H])(N([H])C(=O)N3C([H])([H])C([H])([H])C([H])([H])C([H])(n4nc(-c5c([H])c([H])c(Oc6c([H])c([H])c(F)c([H])c6F)c([H])c5[H])c(C(=O)N([H])[H])c4N([H])[H])C3([H])[H])C([H])([H])C([H])(C([H])([H])[H])C([H])([H])[H])C([H])([H])[H])c([H])c([H])c2C1([H])[H]

>  <smiles>  (89) 
[H]c1c([H])c([H])c2c(c1[H])C([H])([H])C([H])([H])C([H])([H])C2([H])N([H])C(=O)C1([H])N(C(=O)C([H])(N([H])C(=O)C([H])(N([H])C([H])([H])[H])C([H])([H])[H])C(C([H])([H])[H])(C([H])([H])[H])C([H])([H])[H])C([H])([H])c2c([H])c(OC([H])([H])C([H])(C([H])([H])C([H])([H])[H])C([H])([H])C([H])([H])C([H])(N([H])C(=O)C([H])([H])C([H])(N([H])C(=O)N3C([H])([H])C([H])([H])C([H])([H])C([H])(n4nc(-c5c([H])c([H])c(Oc6c([H])c([H])c(F)c([H])c6F)c([H])c5[H])c(C(=O)N([H])[H])c4N([H])[H])C3([H])[H])C([H])([H])C([H])(C([H])([H])[H])C([H])([H])[H])C([H])([H])[H])c([H])c([H])c2C1([H])[H]

$$$$
90:0:0
     RDKit          3D

 98105  0  0  1  0  0  0  0  0999 V2000
  -29.1950  -18.4670   20.4070 C   0  0  0  0  0  0  0  0  0  0  0  0
  -29.4370  -19.8010   20.1420 N   0  0  0  0  0  0  0  0  0  0  0  0
  -28.1710  -18.1170   20.9950 O   0  0  0  0  0  0  0  0  0  0  0  0
  -30.2880  -20.0000   19.6390 H   0  0  0  0  0  0  0  0  0  0  0  0
  -28.6160  -21.0100   20.5490 C   0  0  0  0  0  3  0  0  0  0  0  0
  -28.9460  -22.4550   19.9020 C   0  0  0  0  0  3  0  0  0  0  0  0
  -28.7580  -24.0200   21.9090 C   0  0  0  0  0  1  0  0  0  0  0  0
  -26.7200  -23.5930   20.5150 C   0  0  0  0  0  1  0  0  0  0  0  0
  -28.2470  -23.8050   20.4740 C   0  0  2  0  0  0  0  0  0  0  0  0
  -28.5360  -25.1560   19.6330 C   0  0  0  0  0  2  0  0  0  0  0  0
  -28.4120  -26.5220   20.2220 O   0  0  0  0  0  0  0  0  0  0  0  0
  -24.5760  -31.8860   23.1640 C   0  0  0  0  0  0  0  0  0  0  0  0
  -27.2740  -27.3400   20.1290 C   0  0  0  0  0  0  0  0  0  0  0  0
  -23.4140  -30.4850   21.4980 C   0  0  0  0  0  3  0  0  0  0  0  0
  -24.9000  -28.9480   20.0870 C   0  0  0  0  0  0  0  0  0  0  0  0
  -25.9560  -30.8110   21.3700 C   0  0  0  0  0  2  0  0  0  0  0  0
  -26.0520  -29.4350   20.7160 C   0  0  0  0  0  0  0  0  0  0  0  0
  -27.2370  -28.6400   20.7330 C   0  0  0  0  0  3  0  0  0  0  0  0
  -26.1000  -26.9090   19.4740 C   0  0  0  0  0  3  0  0  0  0  0  0
  -24.9260  -27.6900   19.4620 C   0  0  0  0  0  3  0  0  0  0  0  0
  -23.6570  -29.8160   20.1190 C   0  0  0  0  0  2  0  0  0  0  0  0
  -24.6660  -31.0790   22.0660 N   0  0  0  0  0  0  0  0  0  0  0  0
  -23.4810  -32.1570   23.6770 O   0  0  0  0  0  0  0  0  0  0  0  0
  -22.7410  -29.4600   22.4420 C   0  0  0  0  0  0  0  0  0  0  0  0
  -21.4150  -29.2960   22.3060 N   0  0  0  0  0  0  0  0  0  0  0  0
  -23.4120  -28.8140   23.2510 O   0  0  0  0  0  0  0  0  0  0  0  0
  -20.9350  -29.8680   21.6280 H   0  0  0  0  0  0  0  0  0  0  0  0
  -18.0170  -28.1810   22.8330 C   0  0  0  0  0  0  0  0  0  0  0  0
  -20.5850  -28.3570   23.0620 C   0  0  0  0  0  3  0  0  0  0  0  0
  -20.6340  -26.9450   22.4340 C   0  0  0  0  0  2  0  0  0  0  0  0
  -19.5040  -26.6900   21.4300 C   0  0  0  0  0  2  0  0  0  0  0  0
  -18.1400  -26.8520   22.1080 C   0  0  0  0  0  2  0  0  0  0  0  0
  -19.1650  -28.8950   23.2660 C   0  0  0  0  0  0  0  0  0  0  0  0
  -18.9930  -30.1420   23.9060 C   0  0  0  0  0  3  0  0  0  0  0  0
  -17.7060  -30.6730   24.1170 C   0  0  0  0  0  3  0  0  0  0  0  0
  -16.5740  -29.9550   23.6970 C   0  0  0  0  0  3  0  0  0  0  0  0
  -16.7290  -28.7090   23.0620 C   0  0  0  0  0  3  0  0  0  0  0  0
  -25.8430  -32.5250   23.8120 C   0  0  0  0  0  3  0  0  0  0  0  0
  -26.3370  -31.7540   25.0990 C   0  0  1  0  0  0  0  0  0  0  0  0
  -25.2220  -31.5040   26.1410 C   0  0  0  0  0  1  0  0  0  0  0  0
  -26.9410  -30.3820   24.7190 C   0  0  0  0  0  1  0  0  0  0  0  0
  -27.4680  -32.5550   25.7870 C   0  0  0  0  0  1  0  0  0  0  0  0
  -25.5220  -33.9200   24.1390 N   0  0  0  0  0  0  0  0  0  0  0  0
  -25.8710  -34.9770   23.3920 C   0  0  0  0  0  0  0  0  0  0  0  0
  -26.5640  -34.8780   22.3770 O   0  0  0  0  0  0  0  0  0  0  0  0
  -24.9100  -34.0710   24.9270 H   0  0  0  0  0  0  0  0  0  0  0  0
  -24.1550  -36.7730   22.9890 C   0  0  0  0  0  1  0  0  0  0  0  0
  -25.3670  -36.3620   23.8420 C   0  0  0  0  0  3  0  0  0  0  0  0
  -27.4640  -37.2440   24.7660 C   0  0  0  0  0  1  0  0  0  0  0  0
  -26.4030  -37.4170   23.7770 N   0  0  0  0  0  0  0  0  0  0  0  0
  -25.9920  -38.3370   23.9090 H   0  0  0  0  0  0  0  0  0  0  0  0
  -30.2200  -17.3280   19.9770 C   0  0  0  0  0  3  0  0  0  0  0  0
  -30.6410  -14.7520   20.2570 C   0  0  0  0  0  0  0  0  0  0  0  0
  -30.4230  -12.4840   19.2730 C   0  0  0  0  0  2  0  0  0  0  0  0
  -29.4720  -12.5770   18.0600 C   0  0  0  0  0  2  0  0  0  0  0  0
  -28.0050  -12.4120   18.5060 C   0  0  0  0  0  2  0  0  0  0  0  0
  -27.6460  -13.3050   19.7260 C   0  0  0  0  0  3  0  0  0  0  0  0
  -28.7160  -13.2030   20.8350 C   0  0  0  0  0  2  0  0  0  0  0  0
  -30.0090  -13.5340   20.2240 N   0  0  0  0  0  0  0  0  0  0  0  0
  -31.8420  -14.8310   20.0020 O   0  0  0  0  0  0  0  0  0  0  0  0
  -29.8510  -15.8820   20.2900 N   0  0  0  0  0  0  0  0  0  0  0  0
  -28.8730  -15.7340   20.4870 H   0  0  0  0  0  0  0  0  0  0  0  0
  -25.2730  -13.9060   20.4910 C   0  0  0  0  0  0  0  0  0  0  0  0
  -24.2060  -13.1330   20.8630 C   0  0  0  0  0  0  0  0  0  0  0  0
  -24.6620  -11.7810   20.8150 C   0  0  0  0  0  0  0  0  0  0  0  0
  -26.3090  -13.0220   20.2330 N   0  0  0  0  0  0  0  0  0  0  0  0
  -25.9490  -11.7380   20.4920 N   0  0  0  0  0  0  0  0  0  0  0  0
  -23.9330  -10.5190   20.9970 C   0  0  0  0  0  0  0  0  0  0  0  0
  -24.3530   -9.5500   21.9330 C   0  0  0  0  0  3  0  0  0  0  0  0
  -23.6220   -8.3540   22.1040 C   0  0  0  0  0  3  0  0  0  0  0  0
  -22.4540   -8.1190   21.3400 C   0  0  0  0  0  0  0  0  0  0  0  0
  -22.0540   -9.0770   20.3920 C   0  0  0  0  0  3  0  0  0  0  0  0
  -22.7860  -10.2640   20.2190 C   0  0  0  0  0  3  0  0  0  0  0  0
  -21.6970   -6.9760   21.4200 O   0  0  0  0  0  0  0  0  0  0  0  0
  -21.6200   -6.2440   22.5790 C   0  0  0  0  0  0  0  0  0  0  0  0
  -21.1350   -6.8020   23.7820 C   0  0  0  0  0  3  0  0  0  0  0  0
  -21.0080   -5.9950   24.9300 C   0  0  0  0  0  3  0  0  0  0  0  0
  -21.3530   -4.6320   24.8750 C   0  0  0  0  0  0  0  0  0  0  0  0
  -21.8280   -4.0730   23.6760 C   0  0  0  0  0  3  0  0  0  0  0  0
  -21.9580   -4.8770   22.5300 C   0  0  0  0  0  0  0  0  0  0  0  0
  -22.3970   -4.3290   21.3710 F   0  0  0  0  0  0  0  0  0  0  0  0
  -21.2220   -3.8530   25.9750 F   0  0  0  0  0  0  0  0  0  0  0  0
  -22.8130  -13.6160   21.1500 C   0  0  0  0  0  0  0  0  0  0  0  0
  -22.0850  -12.9050   22.0060 N   0  0  0  0  0  0  0  0  0  0  0  0
  -22.3790  -14.6540   20.6530 O   0  0  0  0  0  0  0  0  0  0  0  0
  -22.4440  -12.0630   22.4320 H   0  0  0  0  0  0  0  0  0  0  0  0
  -21.1510  -13.2050   22.2430 H   0  0  0  0  0  0  0  0  0  0  0  0
  -25.4400  -15.2760   20.3250 N   0  0  0  0  0  0  0  0  0  0  0  0
  -24.6780  -15.9320   20.4600 H   0  0  0  0  0  0  0  0  0  0  0  0
  -26.2910  -15.7250   20.0140 H   0  0  0  0  0  0  0  0  0  0  0  0
  -30.6480  -17.4780   18.4850 C   0  0  0  0  0  2  0  0  0  0  0  0
  -32.1630  -17.7030   18.2700 C   0  0  0  0  0  2  0  0  0  0  0  0
  -32.7180  -19.0530   18.7600 C   0  0  0  0  0  2  0  0  0  0  0  0
  -32.3800  -20.2510   17.8470 C   0  0  0  0  0  2  0  0  0  0  0  0
  -32.9130  -21.5200   18.3750 N   0  0  0  0  0  4  0  0  0  0  0  0
  -32.5380  -21.7410   19.2800 H   0  0  0  0  0  0  0  0  0  0  0  0
  -32.6820  -22.2700   17.7480 H   0  0  0  0  0  0  0  0  0  0  0  0
  -33.9130  -21.4780   18.4450 H   0  0  0  0  0  0  0  0  0  0  0  0
  1  3  2  0
  2  1  1  0
  2  5  1  0
  4  2  1  0
  6  9  1  0
  6  5  2  0
  9  8  1  1
  9  7  1  0
 10 11  1  0
 10  9  1  0
 12 23  2  0
 13 11  1  0
 13 18  1  0
 14 22  1  0
 14 24  1  0
 15 21  1  0
 15 17  1  0
 16 22  1  0
 17 18  2  0
 17 16  1  0
 19 13  2  0
 20 19  1  0
 20 15  2  0
 21 14  1  0
 22 12  1  0
 24 26  2  0
 25 24  1  0
 27 25  1  0
 28 37  2  0
 28 33  1  0
 29 25  1  0
 29 33  1  0
 30 29  1  0
 31 32  1  0
 31 30  1  0
 32 28  1  0
 33 34  2  0
 34 35  1  0
 36 35  2  0
 37 36  1  0
 38 12  1  0
 38 43  1  0
 38 39  1  0
 39 42  1  1
 39 40  1  0
 41 39  1  0
 43 46  1  0
 44 48  1  0
 44 43  1  0
 45 44  2  0
 48 47  1  0
 50 48  1  0
 50 51  1  0
 50 49  1  0
 52 91  1  0
 52 61  1  0
 52  1  1  0
 53 61  1  0
 54 59  1  0
 55 56  1  0
 55 54  1  0
 57 56  1  0
 57 66  1  0
 57 58  1  0
 59 53  1  0
 59 58  1  0
 60 53  2  0
 61 62  1  0
 63 64  2  0
 64 83  1  0
 65 64  1  0
 65 68  1  0
 66 63  1  0
 66 67  1  0
 67 65  2  0
 68 69  1  0
 69 70  2  0
 71 74  1  0
 71 70  1  0
 72 71  2  0
 73 72  1  0
 73 68  2  0
 74 75  1  0
 75 76  1  0
 76 77  2  0
 78 77  1  0
 78 82  1  0
 79 78  2  0
 80 75  2  0
 80 79  1  0
 81 80  1  0
 83 84  1  0
 84 87  1  0
 84 86  1  0
 85 83  2  0
 88 89  1  0
 88 63  1  0
 90 88  1  0
 92 91  1  0
 92 93  1  0
 94 95  1  0
 94 93  1  0
 95 98  1  0
 95 96  1  0
 97 95  1  0
M  ISO  4  10 101  11 101  53 100  61 100
M  END
>  <TORSDO>  (90) 
F 26

>  <SCORE>  (90) 
-12.163

>  <name>  (90) 
90

>  <ligand_id>  (90) 
90

>  <original_smiles>  (90) 
[H]c1c([H])c([H])c2c(c1[H])C([H])([H])C([H])([H])C([H])([H])C2([H])N([H])C(=O)C1([H])N(C(=O)C([H])(N([H])C(=O)C([H])(N([H])C([H])([H])[H])C([H])([H])[H])C(C([H])([H])[H])(C([H])([H])[H])C([H])([H])[H])C([H])([H])c2c([H])c(OC([H])([H])C(C([H])([H])[H])(C([H])([H])[H])C([H])([H])C([H])([H])N([H])C(=O)C([H])(N([H])C(=O)N3C([H])([H])C([H])([H])C([H])([H])C([H])(n4nc(-c5c([H])c([H])c(Oc6c([H])c([H])c(F)c([H])c6F)c([H])c5[H])c(C(=O)N([H])[H])c4N([H])[H])C3([H])[H])C([H])([H])C([H])([H])C([H])([H])C([H])([H])[N+]([H])([H])[H])c([H])c([H])c2C1([H])[H]

>  <smiles>  (90) 
[H]c1c([H])c([H])c2c(c1[H])C([H])([H])C([H])([H])C([H])([H])C2([H])N([H])C(=O)C1([H])N(C(=O)C([H])(N([H])C(=O)C([H])(N([H])C([H])([H])[H])C([H])([H])[H])C(C([H])([H])[H])(C([H])([H])[H])C([H])([H])[H])C([H])([H])c2c([H])c(OC([H])([H])C(C([H])([H])[H])(C([H])([H])[H])C([H])([H])C([H])([H])N([H])C(=O)C([H])(N([H])C(=O)N3C([H])([H])C([H])([H])C([H])([H])C([H])(n4nc(-c5c([H])c([H])c(Oc6c([H])c([H])c(F)c([H])c6F)c([H])c5[H])c(C(=O)N([H])[H])c4N([H])[H])C3([H])[H])C([H])([H])C([H])([H])C([H])([H])C([H])([H])[N+]([H])([H])[H])c([H])c([H])c2C1([H])[H]

$$$$
91:0:0
     RDKit          3D

103110  0  0  1  0  0  0  0  0999 V2000
  -28.8110  -22.1930   21.1140 C   0  0  0  0  0  3  0  0  0  0  0  0
  -29.5180  -20.7890   21.0480 C   0  0  0  0  0  0  0  0  0  0  0  0
  -28.8780  -19.7280   20.5030 N   0  0  0  0  0  0  0  0  0  0  0  0
  -30.6180  -20.6510   21.5820 O   0  0  0  0  0  0  0  0  0  0  0  0
  -28.0250  -19.9610   20.0080 H   0  0  0  0  0  0  0  0  0  0  0  0
  -28.9730  -18.3110   20.9240 C   0  0  0  0  0  2  0  0  0  0  0  0
  -30.0840  -17.4280   20.2790 C   0  0  0  0  0  2  0  0  0  0  0  0
  -30.7080  -14.9820   20.2060 C   0  0  0  0  0  0  0  0  0  0  0  0
  -30.5760  -12.6690   19.3370 C   0  0  0  0  0  2  0  0  0  0  0  0
  -29.6330  -12.6670   18.1130 C   0  0  0  0  0  2  0  0  0  0  0  0
  -28.1700  -12.4820   18.5650 C   0  0  0  0  0  2  0  0  0  0  0  0
  -27.7720  -13.4400   19.7230 C   0  0  0  0  0  3  0  0  0  0  0  0
  -28.8340  -13.4120   20.8450 C   0  0  0  0  0  2  0  0  0  0  0  0
  -30.1370  -13.7460   20.2420 N   0  0  0  0  0  0  0  0  0  0  0  0
  -31.8040  -15.1950   19.6830 O   0  0  0  0  0  0  0  0  0  0  0  0
  -29.9210  -15.9950   20.6160 N   0  0  0  0  0  0  0  0  0  0  0  0
  -29.0450  -15.7230   21.0410 H   0  0  0  0  0  0  0  0  0  0  0  0
  -25.3890  -13.9980   20.5230 C   0  0  0  0  0  0  0  0  0  0  0  0
  -24.3440  -13.2000   20.9040 C   0  0  0  0  0  0  0  0  0  0  0  0
  -24.8190  -11.8550   20.8150 C   0  0  0  0  0  0  0  0  0  0  0  0
  -26.4360  -13.1350   20.2340 N   0  0  0  0  0  0  0  0  0  0  0  0
  -26.0990  -11.8400   20.4640 N   0  0  0  0  0  0  0  0  0  0  0  0
  -24.1130  -10.5790   20.9940 C   0  0  0  0  0  0  0  0  0  0  0  0
  -24.5610   -9.6120   21.9230 C   0  0  0  0  0  3  0  0  0  0  0  0
  -23.8560   -8.4000   22.0900 C   0  0  0  0  0  3  0  0  0  0  0  0
  -22.6900   -8.1470   21.3280 C   0  0  0  0  0  0  0  0  0  0  0  0
  -22.2630   -9.1030   20.3900 C   0  0  0  0  0  3  0  0  0  0  0  0
  -22.9680  -10.3060   20.2200 C   0  0  0  0  0  3  0  0  0  0  0  0
  -21.9570   -6.9870   21.4010 O   0  0  0  0  0  0  0  0  0  0  0  0
  -21.8740   -6.2630   22.5640 C   0  0  0  0  0  0  0  0  0  0  0  0
  -21.3640   -6.8220   23.7570 C   0  0  0  0  0  3  0  0  0  0  0  0
  -21.2330   -6.0230   24.9100 C   0  0  0  0  0  3  0  0  0  0  0  0
  -21.6040   -4.6650   24.8720 C   0  0  0  0  0  0  0  0  0  0  0  0
  -22.1080   -4.1050   23.6840 C   0  0  0  0  0  3  0  0  0  0  0  0
  -22.2410   -4.9030   22.5330 C   0  0  0  0  0  0  0  0  0  0  0  0
  -22.7080   -4.3530   21.3870 F   0  0  0  0  0  0  0  0  0  0  0  0
  -21.4690   -3.8940   25.9760 F   0  0  0  0  0  0  0  0  0  0  0  0
  -22.9490  -13.6510   21.2380 C   0  0  0  0  0  0  0  0  0  0  0  0
  -22.2750  -12.9330   22.1280 N   0  0  0  0  0  0  0  0  0  0  0  0
  -22.4700  -14.6710   20.7410 O   0  0  0  0  0  0  0  0  0  0  0  0
  -22.6750  -12.1030   22.5390 H   0  0  0  0  0  0  0  0  0  0  0  0
  -21.3470  -13.2120   22.4070 H   0  0  0  0  0  0  0  0  0  0  0  0
  -25.5410  -15.3750   20.3780 N   0  0  0  0  0  0  0  0  0  0  0  0
  -24.7660  -16.0200   20.4880 H   0  0  0  0  0  0  0  0  0  0  0  0
  -26.3640  -15.8020   19.9660 H   0  0  0  0  0  0  0  0  0  0  0  0
  -29.4340  -23.2460   20.2290 N   0  0  0  0  0  4  0  0  0  0  0  0
  -29.7470  -22.7900   19.3840 H   0  0  0  0  0  0  0  0  0  0  0  0
  -30.2820  -23.4940   20.7200 H   0  0  0  0  0  0  0  0  0  0  0  0
  -28.6920  -24.5220   19.8610 C   0  0  0  0  0  3  0  0  0  0  0  0
  -28.1740  -24.3640   18.4050 C   0  0  0  0  0  2  0  0  0  0  0  0
  -29.0140  -24.9830   17.2760 C   0  0  0  0  0  2  0  0  0  0  0  0
  -29.0630  -25.4670   14.7560 C   0  0  0  0  0  1  0  0  0  0  0  0
  -28.2220  -25.0070   15.9540 C   0  0  0  0  0  2  0  0  0  0  0  0
  -29.4950  -25.8560   20.2230 C   0  0  0  0  0  2  0  0  0  0  0  0
  -29.1450  -27.2560   19.9270 O   0  0  0  0  0  0  0  0  0  0  0  0
  -24.8140  -31.9020   23.4180 C   0  0  0  0  0  0  0  0  0  0  0  0
  -27.9100  -27.8730   20.1070 C   0  0  0  0  0  0  0  0  0  0  0  0
  -23.8080  -30.6050   21.5810 C   0  0  0  0  0  3  0  0  0  0  0  0
  -25.4320  -29.2930   20.1250 C   0  0  0  0  0  0  0  0  0  0  0  0
  -26.3250  -31.0990   21.5890 C   0  0  0  0  0  2  0  0  0  0  0  0
  -26.5280  -29.7940   20.8390 C   0  0  0  0  0  0  0  0  0  0  0  0
  -27.7690  -29.0940   20.8270 C   0  0  0  0  0  3  0  0  0  0  0  0
  -26.7980  -27.4370   19.3540 C   0  0  0  0  0  3  0  0  0  0  0  0
  -25.5670  -28.1120   19.3830 C   0  0  0  0  0  3  0  0  0  0  0  0
  -24.1440  -30.0860   20.1620 C   0  0  0  0  0  2  0  0  0  0  0  0
  -24.9980  -31.2170   22.2550 N   0  0  0  0  0  0  0  0  0  0  0  0
  -23.6830  -32.0620   23.9010 O   0  0  0  0  0  0  0  0  0  0  0  0
  -23.1600  -29.4580   22.3860 C   0  0  0  0  0  0  0  0  0  0  0  0
  -21.8580  -29.2230   22.1520 N   0  0  0  0  0  0  0  0  0  0  0  0
  -23.8290  -28.7880   23.1770 O   0  0  0  0  0  0  0  0  0  0  0  0
  -21.3880  -29.8130   21.4810 H   0  0  0  0  0  0  0  0  0  0  0  0
  -18.5120  -27.8840   22.3970 C   0  0  0  0  0  0  0  0  0  0  0  0
  -21.0500  -28.1740   22.7750 C   0  0  0  0  0  3  0  0  0  0  0  0
  -21.2070  -26.8310   22.0310 C   0  0  0  0  0  2  0  0  0  0  0  0
  -20.1520  -26.6180   20.9390 C   0  0  0  0  0  2  0  0  0  0  0  0
  -18.7420  -26.6550   21.5370 C   0  0  0  0  0  2  0  0  0  0  0  0
  -19.5940  -28.6130   22.9600 C   0  0  0  0  0  0  0  0  0  0  0  0
  -19.3230  -29.7730   23.7150 C   0  0  0  0  0  3  0  0  0  0  0  0
  -17.9960  -30.2080   23.9150 C   0  0  0  0  0  3  0  0  0  0  0  0
  -16.9310  -29.4750   23.3700 C   0  0  0  0  0  3  0  0  0  0  0  0
  -17.1860  -28.3160   22.6180 C   0  0  0  0  0  3  0  0  0  0  0  0
  -26.0120  -32.5450   24.1820 C   0  0  0  0  0  3  0  0  0  0  0  0
  -25.6820  -33.9560   24.4180 N   0  0  0  0  0  0  0  0  0  0  0  0
  -26.0800  -34.9710   23.6380 C   0  0  0  0  0  0  0  0  0  0  0  0
  -26.8320  -34.8160   22.6690 O   0  0  0  0  0  0  0  0  0  0  0  0
  -25.0230  -34.1510   25.1580 H   0  0  0  0  0  0  0  0  0  0  0  0
  -24.3800  -36.7340   23.0680 C   0  0  0  0  0  1  0  0  0  0  0  0
  -25.5610  -36.3780   23.9860 C   0  0  0  0  0  3  0  0  0  0  0  0
  -27.6370  -37.3100   24.9140 C   0  0  0  0  0  1  0  0  0  0  0  0
  -26.6020  -37.4260   23.8880 N   0  0  0  0  0  0  0  0  0  0  0  0
  -26.1900  -38.3540   23.9540 H   0  0  0  0  0  0  0  0  0  0  0  0
  -26.3370  -31.8140   25.5430 C   0  0  1  0  0  0  0  0  0  0  0  0
  -25.0920  -31.5360   26.4180 C   0  0  0  0  0  1  0  0  0  0  0  0
  -27.0350  -30.4590   25.2790 C   0  0  0  0  0  1  0  0  0  0  0  0
  -27.3280  -32.6680   26.3680 C   0  0  0  0  0  1  0  0  0  0  0  0
  -27.2430  -22.1030   21.1630 C   0  0  0  0  0  2  0  0  0  0  0  0
  -26.5240  -23.4600   21.3130 C   0  0  0  0  0  2  0  0  0  0  0  0
  -25.0020  -23.3310   21.1050 C   0  0  0  0  0  2  0  0  0  0  0  0
  -24.2250  -24.6620   21.1860 C   0  0  0  0  0  2  0  0  0  0  0  0
  -24.5720  -25.5900   20.0960 N   0  0  0  0  0  4  0  0  0  0  0  0
  -25.4770  -26.0010   20.2300 H   0  0  0  0  0  0  0  0  0  0  0  0
  -23.8940  -26.3310   20.0630 H   0  0  0  0  0  0  0  0  0  0  0  0
  -24.5560  -25.1080   19.2160 H   0  0  0  0  0  0  0  0  0  0  0  0
  1 96  1  0
  2  1  1  0
  2  4  2  0
  3  6  1  0
  3  2  1  0
  5  3  1  0
  7 16  1  0
  7  6  1  0
  8 14  1  0
  8 16  1  0
  9 14  1  0
 10 11  1  0
 10  9  1  0
 12 11  1  0
 12 21  1  0
 12 13  1  0
 14 13  1  0
 15  8  2  0
 16 17  1  0
 18 19  2  0
 19 38  1  0
 20 19  1  0
 20 23  1  0
 21 22  1  0
 21 18  1  0
 22 20  2  0
 23 24  1  0
 24 25  2  0
 26 29  1  0
 26 25  1  0
 27 26  2  0
 28 27  1  0
 28 23  2  0
 29 30  1  0
 30 31  1  0
 31 32  2  0
 33 32  1  0
 33 37  1  0
 34 33  2  0
 35 30  2  0
 35 34  1  0
 36 35  1  0
 38 39  1  0
 39 42  1  0
 39 41  1  0
 40 38  2  0
 43 44  1  0
 43 18  1  0
 45 43  1  0
 46 48  1  0
 46  1  1  0
 47 46  1  0
 49 50  1  0
 49 54  1  0
 49 46  1  0
 51 50  1  0
 52 53  1  0
 53 51  1  0
 55 57  1  0
 55 54  1  0
 56 67  2  0
 57 62  1  0
 58 66  1  0
 58 68  1  0
 59 65  1  0
 59 61  1  0
 60 66  1  0
 61 60  1  0
 62 61  2  0
 63 64  1  0
 63 57  2  0
 64 59  2  0
 65 58  1  0
 66 56  1  0
 68 70  2  0
 69 68  1  0
 71 69  1  0
 72 81  2  0
 72 77  1  0
 73 69  1  0
 73 77  1  0
 74 73  1  0
 75 76  1  0
 75 74  1  0
 76 72  1  0
 77 78  2  0
 78 79  1  0
 80 79  2  0
 81 80  1  0
 82 56  1  0
 82 83  1  0
 82 92  1  0
 83 86  1  0
 84 88  1  0
 84 83  1  0
 85 84  2  0
 88 87  1  0
 90 91  1  0
 90 88  1  0
 90 89  1  0
 92 95  1  1
 92 93  1  0
 94 92  1  0
 96 97  1  0
 98 99  1  0
 98 97  1  0
100101  1  0
100 99  1  0
102100  1  0
103100  1  0
M  ISO  4   8 100  16 100  54 101  55 101
M  END
>  <TORSDO>  (91) 
F 30

>  <SCORE>  (91) 
-10.409

>  <name>  (91) 
91

>  <ligand_id>  (91) 
91

>  <original_smiles>  (91) 
[H]c1c([H])c([H])c2c(c1[H])C([H])([H])C([H])([H])C([H])([H])C2([H])N([H])C(=O)C1([H])N(C(=O)C([H])(N([H])C(=O)C([H])(N([H])C([H])([H])[H])C([H])([H])[H])C(C([H])([H])[H])(C([H])([H])[H])C([H])([H])[H])C([H])([H])c2c([H])c(OC([H])([H])C([H])(C([H])([H])C([H])([H])C([H])([H])C([H])([H])[H])[N+]([H])([H])C([H])(C(=O)N([H])C([H])([H])C([H])([H])N([H])C(=O)N3C([H])([H])C([H])([H])C([H])([H])C([H])(n4nc(-c5c([H])c([H])c(Oc6c([H])c([H])c(F)c([H])c6F)c([H])c5[H])c(C(=O)N([H])[H])c4N([H])[H])C3([H])[H])C([H])([H])C([H])([H])C([H])([H])C([H])([H])[N+]([H])([H])[H])c([H])c([H])c2C1([H])[H]

>  <smiles>  (91) 
[H]c1c([H])c([H])c2c(c1[H])C([H])([H])C([H])([H])C([H])([H])C2([H])N([H])C(=O)C1([H])N(C(=O)C([H])(N([H])C(=O)C([H])(N([H])C([H])([H])[H])C([H])([H])[H])C(C([H])([H])[H])(C([H])([H])[H])C([H])([H])[H])C([H])([H])c2c([H])c(OC([H])([H])C([H])(C([H])([H])C([H])([H])C([H])([H])C([H])([H])[H])[N+]([H])([H])C([H])(C(=O)N([H])C([H])([H])C([H])([H])N([H])C(=O)N3C([H])([H])C([H])([H])C([H])([H])C([H])(n4nc(-c5c([H])c([H])c(Oc6c([H])c([H])c(F)c([H])c6F)c([H])c5[H])c(C(=O)N([H])[H])c4N([H])[H])C3([H])[H])C([H])([H])C([H])([H])C([H])([H])C([H])([H])[N+]([H])([H])[H])c([H])c([H])c2C1([H])[H]

$$$$
92:0:0
     RDKit          3D

100108  0  0  1  0  0  0  0  0999 V2000
  -30.2240  -22.2060   23.5920 C   0  0  0  0  0  3  0  0  0  0  0  0
  -30.5650  -22.3820   25.0880 C   0  0  0  0  0  0  0  0  0  0  0  0
  -31.7490  -21.9800   25.5360 N   0  0  0  0  0  0  0  0  0  0  0  0
  -29.7520  -22.9010   25.8520 O   0  0  0  0  0  0  0  0  0  0  0  0
  -32.4140  -21.5580   24.9010 H   0  0  0  0  0  0  0  0  0  0  0  0
  -31.9940  -22.0890   26.5090 H   0  0  0  0  0  0  0  0  0  0  0  0
  -31.1010  -21.1680   22.8470 C   0  0  0  0  0  2  0  0  0  0  0  0
  -30.7150  -19.7080   23.1460 C   0  0  0  0  0  2  0  0  0  0  0  0
  -31.5940  -18.6880   22.3970 C   0  0  0  0  0  2  0  0  0  0  0  0
  -30.9030  -17.3270   22.1830 C   0  0  0  0  0  2  0  0  0  0  0  0
  -30.5770  -16.9580   20.7130 C   0  0  0  0  0  3  0  0  0  0  0  0
  -30.8080  -14.5730   19.9880 C   0  0  0  0  0  0  0  0  0  0  0  0
  -30.4650  -12.3830   18.9200 C   0  0  0  0  0  2  0  0  0  0  0  0
  -29.4620  -12.5320   17.7590 C   0  0  0  0  0  2  0  0  0  0  0  0
  -28.0140  -12.3930   18.2650 C   0  0  0  0  0  2  0  0  0  0  0  0
  -27.7260  -13.2800   19.5050 C   0  0  0  0  0  3  0  0  0  0  0  0
  -28.8340  -13.1110   20.5680 C   0  0  0  0  0  2  0  0  0  0  0  0
  -30.1330  -13.3960   19.9300 N   0  0  0  0  0  0  0  0  0  0  0  0
  -31.8540  -14.7840   19.3670 O   0  0  0  0  0  0  0  0  0  0  0  0
  -30.2030  -15.5410   20.6910 N   0  0  0  0  0  0  0  0  0  0  0  0
  -29.3520  -15.2820   21.1670 H   0  0  0  0  0  0  0  0  0  0  0  0
  -25.3630  -13.8940   20.3290 C   0  0  0  0  0  0  0  0  0  0  0  0
  -24.3180  -13.1250   20.7640 C   0  0  0  0  0  0  0  0  0  0  0  0
  -24.7790  -11.7730   20.7200 C   0  0  0  0  0  0  0  0  0  0  0  0
  -26.3980  -13.0120   20.0550 N   0  0  0  0  0  0  0  0  0  0  0  0
  -26.0500  -11.7320   20.3430 N   0  0  0  0  0  0  0  0  0  0  0  0
  -24.0670  -10.5120   20.9630 C   0  0  0  0  0  0  0  0  0  0  0  0
  -24.5030   -9.5960   21.9460 C   0  0  0  0  0  3  0  0  0  0  0  0
  -23.7900   -8.3980   22.1730 C   0  0  0  0  0  3  0  0  0  0  0  0
  -22.6300   -8.1080   21.4170 C   0  0  0  0  0  0  0  0  0  0  0  0
  -22.2150   -9.0120   20.4240 C   0  0  0  0  0  3  0  0  0  0  0  0
  -22.9270  -10.2010   20.1960 C   0  0  0  0  0  3  0  0  0  0  0  0
  -21.8910   -6.9570   21.5520 O   0  0  0  0  0  0  0  0  0  0  0  0
  -21.7700   -6.3160   22.7590 C   0  0  0  0  0  0  0  0  0  0  0  0
  -21.2320   -6.9600   23.8940 C   0  0  0  0  0  3  0  0  0  0  0  0
  -21.0600   -6.2430   25.0940 C   0  0  0  0  0  3  0  0  0  0  0  0
  -21.4160   -4.8830   25.1610 C   0  0  0  0  0  0  0  0  0  0  0  0
  -21.9470   -4.2380   24.0290 C   0  0  0  0  0  3  0  0  0  0  0  0
  -22.1200   -4.9530   22.8310 C   0  0  0  0  0  0  0  0  0  0  0  0
  -22.6130   -4.3210   21.7380 F   0  0  0  0  0  0  0  0  0  0  0  0
  -21.2440   -4.1910   26.3120 F   0  0  0  0  0  0  0  0  0  0  0  0
  -22.9370  -13.6020   21.1100 C   0  0  0  0  0  0  0  0  0  0  0  0
  -22.2620  -12.9150   22.0260 N   0  0  0  0  0  0  0  0  0  0  0  0
  -22.4660  -14.6190   20.6030 O   0  0  0  0  0  0  0  0  0  0  0  0
  -22.6560  -12.0920   22.4560 H   0  0  0  0  0  0  0  0  0  0  0  0
  -21.3400  -13.2180   22.3020 H   0  0  0  0  0  0  0  0  0  0  0  0
  -25.5160  -15.2630   20.1280 N   0  0  0  0  0  0  0  0  0  0  0  0
  -24.7570  -15.9200   20.2760 H   0  0  0  0  0  0  0  0  0  0  0  0
  -26.3520  -15.7000   19.7640 H   0  0  0  0  0  0  0  0  0  0  0  0
  -28.7890  -19.6520   18.5850 C   0  0  0  0  0  2  0  0  0  0  0  0
  -28.2120  -18.3650   17.9880 C   0  0  0  0  0  2  0  0  0  0  0  0
  -29.8630  -19.2070   19.5800 C   0  0  0  0  0  2  0  0  0  0  0  0
  -28.8810  -17.2110   18.7440 C   0  0  0  0  0  2  0  0  0  0  0  0
  -29.4480  -17.8040   20.0470 C   0  0  0  0  0  3  0  0  0  0  0  0
  -30.1970  -23.5730   22.8610 C   0  0  0  0  0  2  0  0  0  0  0  0
  -29.1110  -23.6600   21.7660 C   0  0  0  0  0  2  0  0  0  0  0  0
  -30.4000  -24.8730   19.9220 C   0  0  0  0  0  1  0  0  0  0  0  0
  -29.2100  -24.9360   20.8970 C   0  0  0  0  0  3  0  0  0  0  0  0
  -27.8920  -25.2150   20.1470 C   0  0  0  0  0  2  0  0  0  0  0  0
  -27.9150  -26.5520   19.6440 O   0  0  0  0  0  0  0  0  0  0  0  0
  -24.4380  -31.6800   23.1000 C   0  0  0  0  0  0  0  0  0  0  0  0
  -26.7450  -27.2700   19.7390 C   0  0  0  0  0  0  0  0  0  0  0  0
  -23.0820  -30.3520   21.5130 C   0  0  0  0  0  3  0  0  0  0  0  0
  -24.3890  -28.8130   19.9560 C   0  0  0  0  0  0  0  0  0  0  0  0
  -25.5940  -30.6560   21.1450 C   0  0  0  0  0  2  0  0  0  0  0  0
  -25.5960  -29.3010   20.4690 C   0  0  0  0  0  0  0  0  0  0  0  0
  -26.7770  -28.5390   20.3530 C   0  0  0  0  0  3  0  0  0  0  0  0
  -25.5230  -26.7880   19.2190 C   0  0  0  0  0  3  0  0  0  0  0  0
  -24.3440  -27.5520   19.3310 C   0  0  0  0  0  3  0  0  0  0  0  0
  -23.1740  -29.7010   20.1070 C   0  0  0  0  0  2  0  0  0  0  0  0
  -24.3940  -30.9080   21.9770 N   0  0  0  0  0  0  0  0  0  0  0  0
  -23.4060  -31.9680   23.7210 O   0  0  0  0  0  0  0  0  0  0  0  0
  -22.4680  -29.3260   22.4920 C   0  0  0  0  0  0  0  0  0  0  0  0
  -21.1440  -29.1230   22.3920 N   0  0  0  0  0  0  0  0  0  0  0  0
  -23.1780  -28.7150   23.2940 O   0  0  0  0  0  0  0  0  0  0  0  0
  -20.6320  -29.6690   21.7120 H   0  0  0  0  0  0  0  0  0  0  0  0
  -17.8160  -27.8110   22.8890 C   0  0  0  0  0  0  0  0  0  0  0  0
  -20.3570  -28.1770   23.1810 C   0  0  0  0  0  3  0  0  0  0  0  0
  -20.5250  -26.7350   22.6510 C   0  0  0  0  0  2  0  0  0  0  0  0
  -19.4490  -26.3380   21.6340 C   0  0  0  0  0  2  0  0  0  0  0  0
  -18.0550  -26.4490   22.2580 C   0  0  0  0  0  2  0  0  0  0  0  0
  -18.8990  -28.6290   23.3060 C   0  0  0  0  0  0  0  0  0  0  0  0
  -18.6260  -29.9020   23.8540 C   0  0  0  0  0  3  0  0  0  0  0  0
  -17.3020  -30.3590   23.9890 C   0  0  0  0  0  3  0  0  0  0  0  0
  -16.2320  -29.5380   23.5910 C   0  0  0  0  0  3  0  0  0  0  0  0
  -16.4900  -28.2670   23.0450 C   0  0  0  0  0  3  0  0  0  0  0  0
  -25.7830  -32.2560   23.6420 C   0  0  0  0  0  3  0  0  0  0  0  0
  -25.5300  -33.6380   24.0700 N   0  0  0  0  0  0  0  0  0  0  0  0
  -25.8630  -34.7260   23.3630 C   0  0  0  0  0  0  0  0  0  0  0  0
  -26.4880  -34.6690   22.2980 O   0  0  0  0  0  0  0  0  0  0  0  0
  -24.9780  -33.7570   24.9060 H   0  0  0  0  0  0  0  0  0  0  0  0
  -24.1820  -36.5860   23.1810 C   0  0  0  0  0  1  0  0  0  0  0  0
  -25.4350  -36.0950   23.9240 C   0  0  0  0  0  3  0  0  0  0  0  0
  -27.6210  -36.8630   24.7360 C   0  0  0  0  0  1  0  0  0  0  0  0
  -26.4960  -37.1220   23.8410 N   0  0  0  0  0  0  0  0  0  0  0  0
  -26.1250  -38.0420   24.0620 H   0  0  0  0  0  0  0  0  0  0  0  0
  -26.3930  -31.4070   24.8230 C   0  0  1  0  0  0  0  0  0  0  0  0
  -25.3890  -31.1250   25.9660 C   0  0  0  0  0  1  0  0  0  0  0  0
  -26.9160  -30.0480   24.3020 C   0  0  0  0  0  1  0  0  0  0  0  0
  -27.6110  -32.1460   25.4250 C   0  0  0  0  0  1  0  0  0  0  0  0
  1  7  1  0
  1  2  1  0
  2  3  1  0
  2  4  2  0
  3  6  1  0
  5  3  1  0
  7  8  1  0
  9  8  1  0
 10  9  1  0
 11 10  1  0
 12 20  1  0
 13 18  1  0
 14 15  1  0
 14 13  1  0
 16 15  1  0
 16 25  1  0
 16 17  1  0
 18 12  1  0
 18 17  1  0
 19 12  2  0
 20 11  1  0
 20 21  1  0
 22 23  2  0
 23 42  1  0
 24 23  1  0
 24 27  1  0
 25 22  1  0
 25 26  1  0
 26 24  2  0
 27 28  1  0
 28 29  2  0
 30 33  1  0
 30 29  1  0
 31 30  2  0
 32 31  1  0
 32 27  2  0
 33 34  1  0
 34 39  2  0
 34 35  1  0
 35 36  2  0
 36 37  1  0
 37 41  1  0
 38 37  2  0
 39 38  1  0
 40 39  1  0
 42 43  1  0
 43 46  1  0
 43 45  1  0
 44 42  2  0
 47 48  1  0
 47 22  1  0
 49 47  1  0
 50 52  1  0
 51 50  1  0
 51 53  1  0
 52 54  1  0
 53 54  1  0
 54 11  1  0
 55  1  1  0
 56 55  1  0
 58 57  1  0
 58 56  1  0
 59 58  1  0
 60 62  1  0
 60 59  1  0
 61 72  2  0
 62 67  1  0
 63 71  1  0
 63 73  1  0
 64 70  1  0
 64 66  1  0
 65 71  1  0
 66 65  1  0
 67 66  2  0
 68 69  1  0
 68 62  2  0
 69 64  2  0
 70 63  1  0
 71 61  1  0
 73 75  2  0
 74 73  1  0
 76 74  1  0
 77 86  2  0
 77 82  1  0
 78 74  1  0
 78 82  1  0
 79 78  1  0
 80 81  1  0
 80 79  1  0
 81 77  1  0
 82 83  2  0
 83 84  1  0
 85 84  2  0
 86 85  1  0
 87 61  1  0
 87 88  1  0
 87 97  1  0
 88 91  1  0
 89 93  1  0
 89 88  1  0
 90 89  2  0
 93 92  1  0
 95 93  1  0
 95 96  1  0
 95 94  1  0
 97100  1  1
 97 98  1  0
 99 97  1  0
M  ISO  4  12 100  20 100  59 101  60 101
M  END
>  <TORSDO>  (92) 
F 27

>  <SCORE>  (92) 
-9.906

>  <name>  (92) 
92

>  <ligand_id>  (92) 
92

>  <original_smiles>  (92) 
[H]c1c([H])c([H])c2c(c1[H])C([H])([H])C([H])([H])C([H])([H])C2([H])N([H])C(=O)C1([H])N(C(=O)C([H])(N([H])C(=O)C([H])(N([H])C([H])([H])[H])C([H])([H])[H])C(C([H])([H])[H])(C([H])([H])[H])C([H])([H])[H])C([H])([H])c2c([H])c(OC([H])([H])C([H])(C([H])([H])[H])C([H])([H])C([H])([H])C([H])(C(=O)N([H])[H])C([H])([H])C([H])([H])C([H])([H])C([H])([H])C([H])(N([H])C(=O)N3C([H])([H])C([H])([H])C([H])([H])C([H])(n4nc(-c5c([H])c([H])c(Oc6c([H])c([H])c(F)c([H])c6F)c([H])c5[H])c(C(=O)N([H])[H])c4N([H])[H])C3([H])[H])C3([H])C([H])([H])C([H])([H])C([H])([H])C3([H])[H])c([H])c([H])c2C1([H])[H]

>  <smiles>  (92) 
[H]c1c([H])c([H])c2c(c1[H])C([H])([H])C([H])([H])C([H])([H])C2([H])N([H])C(=O)C1([H])N(C(=O)C([H])(N([H])C(=O)C([H])(N([H])C([H])([H])[H])C([H])([H])[H])C(C([H])([H])[H])(C([H])([H])[H])C([H])([H])[H])C([H])([H])c2c([H])c(OC([H])([H])C([H])(C([H])([H])[H])C([H])([H])C([H])([H])C([H])(C(=O)N([H])[H])C([H])([H])C([H])([H])C([H])([H])C([H])([H])C([H])(N([H])C(=O)N3C([H])([H])C([H])([H])C([H])([H])C([H])(n4nc(-c5c([H])c([H])c(Oc6c([H])c([H])c(F)c([H])c6F)c([H])c5[H])c(C(=O)N([H])[H])c4N([H])[H])C3([H])[H])C3([H])C([H])([H])C([H])([H])C([H])([H])C3([H])[H])c([H])c([H])c2C1([H])[H]

$$$$
93:0:0
     RDKit          3D

 85 89  0  0  1  0  0  0  0  0999 V2000
  -28.7350  -21.3800   20.5270 C   0  0  0  0  0 15  0  0  0  0  0  0
  -28.2190  -23.3630   20.0060 C   0  0  0  0  0 15  0  0  0  0  0  0
  -28.1100  -25.2150   20.4170 O   0  0  0  0  0  1  0  0  0  0  0  0
  -24.6490  -31.8670   23.2020 C   0  0  0  0  0  0  0  0  0  0  0  0
  -27.1760  -26.5440   20.2930 C   0  0  0  0  0  0  0  0  0  0  0  0
  -23.4750  -30.4440   21.5810 C   0  0  0  0  0  3  0  0  0  0  0  0
  -24.9300  -28.7340   20.1990 C   0  0  0  0  0  0  0  0  0  0  0  0
  -26.0640  -30.5140   21.4940 C   0  0  0  0  0  2  0  0  0  0  0  0
  -26.1260  -29.0480   20.8530 C   0  0  0  0  0  0  0  0  0  0  0  0
  -27.2150  -27.9880   20.8650 C   0  0  0  0  0  3  0  0  0  0  0  0
  -25.9460  -26.5090   19.5650 C   0  0  0  0  0  3  0  0  0  0  0  0
  -24.8940  -27.4940   19.5300 C   0  0  0  0  0  3  0  0  0  0  0  0
  -23.7300  -29.7130   20.2260 C   0  0  0  0  0  2  0  0  0  0  0  0
  -24.7560  -30.9820   22.1440 N   0  0  0  0  0  0  0  0  0  0  0  0
  -23.5500  -32.1830   23.6920 O   0  0  0  0  0  0  0  0  0  0  0  0
  -22.7350  -29.5000   22.5680 C   0  0  0  0  0  0  0  0  0  0  0  0
  -21.4000  -29.3550   22.4420 N   0  0  0  0  0  0  0  0  0  0  0  0
  -23.3780  -28.8890   23.4250 O   0  0  0  0  0  0  0  0  0  0  0  0
  -20.9260  -29.8980   21.7330 H   0  0  0  0  0  0  0  0  0  0  0  0
  -18.0070  -28.1450   22.9670 C   0  0  0  0  0  0  0  0  0  0  0  0
  -20.5680  -28.4310   23.2270 C   0  0  0  0  0  3  0  0  0  0  0  0
  -20.6730  -26.9890   22.6750 C   0  0  0  0  0  2  0  0  0  0  0  0
  -19.5760  -26.6500   21.6610 C   0  0  0  0  0  2  0  0  0  0  0  0
  -18.1920  -26.7920   22.3000 C   0  0  0  0  0  2  0  0  0  0  0  0
  -19.1210  -28.9220   23.3870 C   0  0  0  0  0  0  0  0  0  0  0  0
  -18.8900  -30.1820   23.9780 C   0  0  0  0  0  3  0  0  0  0  0  0
  -17.5800  -30.6700   24.1480 C   0  0  0  0  0  3  0  0  0  0  0  0
  -16.4820  -29.8930   23.7400 C   0  0  0  0  0  3  0  0  0  0  0  0
  -16.6970  -28.6320   23.1570 C   0  0  0  0  0  3  0  0  0  0  0  0
  -25.8990  -32.5390   23.8480 C   0  0  0  0  0  3  0  0  0  0  0  0
  -26.3810  -31.8080   25.1640 C   0  0  1  0  0  0  0  0  0  0  0  0
  -25.2620  -31.6060   26.2140 C   0  0  0  0  0  1  0  0  0  0  0  0
  -26.9700  -30.4170   24.8450 C   0  0  0  0  0  1  0  0  0  0  0  0
  -27.5190  -32.6190   25.8280 C   0  0  0  0  0  1  0  0  0  0  0  0
  -25.5670  -33.9460   24.1640 N   0  0  0  0  0  0  0  0  0  0  0  0
  -25.9070  -35.0110   23.4220 C   0  0  0  0  0  0  0  0  0  0  0  0
  -26.5840  -34.9120   22.3980 O   0  0  0  0  0  0  0  0  0  0  0  0
  -24.9640  -34.0950   24.9590 H   0  0  0  0  0  0  0  0  0  0  0  0
  -24.1850  -36.8230   23.0820 C   0  0  0  0  0  1  0  0  0  0  0  0
  -25.4250  -36.4030   23.8880 C   0  0  0  0  0  3  0  0  0  0  0  0
  -27.5610  -37.2900   24.7240 C   0  0  0  0  0  1  0  0  0  0  0  0
  -26.4600  -37.4570   23.7780 N   0  0  0  0  0  0  0  0  0  0  0  0
  -26.0550  -38.3780   23.9220 H   0  0  0  0  0  0  0  0  0  0  0  0
  -29.3220  -19.4540   19.8940 C   0  0  0  0  0  2  0  0  0  0  0  0
  -30.1290  -16.1130   20.1660 C   0  0  0  0  0  0  0  0  0  0  0  0
  -30.3160  -13.4710   19.3990 C   0  0  0  0  0  2  0  0  0  0  0  0
  -29.4520  -12.9180   18.2170 C   0  0  0  0  0  2  0  0  0  0  0  0
  -28.0620  -12.4840   18.6960 C   0  0  0  0  0  2  0  0  0  0  0  0
  -27.5170  -13.4940   19.7250 C   0  0  0  0  0  3  0  0  0  0  0  0
  -28.5360  -13.9440   20.8100 C   0  0  0  0  0  2  0  0  0  0  0  0
  -29.6480  -14.6800   20.1300 N   0  0  0  0  0  0  0  0  0  0  0  0
  -31.3530  -15.9880   19.9230 O   0  0  0  0  0  0  0  0  0  0  0  0
  -29.3920  -17.5820   20.2960 N   0  0  0  0  0  0  0  0  0  0  0  0
  -28.4640  -17.3470   20.6200 H   0  0  0  0  0  0  0  0  0  0  0  0
  -25.1730  -13.9800   20.5370 C   0  0  0  0  0  0  0  0  0  0  0  0
  -24.1240  -13.1910   20.9110 C   0  0  0  0  0  0  0  0  0  0  0  0
  -24.6000  -11.8440   20.8540 C   0  0  0  0  0  0  0  0  0  0  0  0
  -26.2180  -13.1210   20.2680 N   0  0  0  0  0  0  0  0  0  0  0  0
  -25.8900  -11.8240   20.5210 N   0  0  0  0  0  0  0  0  0  0  0  0
  -23.8760  -10.5780   21.0410 C   0  0  0  0  0  0  0  0  0  0  0  0
  -24.3120   -9.6020   21.9650 C   0  0  0  0  0  3  0  0  0  0  0  0
  -23.5810   -8.4070   22.1460 C   0  0  0  0  0  3  0  0  0  0  0  0
  -22.3990   -8.1780   21.4020 C   0  0  0  0  0  0  0  0  0  0  0  0
  -21.9810   -9.1400   20.4660 C   0  0  0  0  0  3  0  0  0  0  0  0
  -22.7120  -10.3270   20.2850 C   0  0  0  0  0  3  0  0  0  0  0  0
  -21.6410   -7.0350   21.4900 O   0  0  0  0  0  0  0  0  0  0  0  0
  -21.5940   -6.2890   22.6400 C   0  0  0  0  0  0  0  0  0  0  0  0
  -21.1590   -6.8370   23.8660 C   0  0  0  0  0  3  0  0  0  0  0  0
  -21.0610   -6.0180   25.0080 C   0  0  0  0  0  3  0  0  0  0  0  0
  -21.3860   -4.6510   24.9260 C   0  0  0  0  0  0  0  0  0  0  0  0
  -21.8140   -4.1020   23.7040 C   0  0  0  0  0  3  0  0  0  0  0  0
  -21.9140   -4.9180   22.5640 C   0  0  0  0  0  0  0  0  0  0  0  0
  -22.3070   -4.3790   21.3850 F   0  0  0  0  0  0  0  0  0  0  0  0
  -21.2850   -3.8620   26.0210 F   0  0  0  0  0  0  0  0  0  0  0  0
  -22.7290  -13.6610   21.1990 C   0  0  0  0  0  0  0  0  0  0  0  0
  -22.0120  -12.9550   22.0640 N   0  0  0  0  0  0  0  0  0  0  0  0
  -22.2880  -14.6940   20.6950 O   0  0  0  0  0  0  0  0  0  0  0  0
  -22.3830  -12.1200   22.4920 H   0  0  0  0  0  0  0  0  0  0  0  0
  -21.0760  -13.2530   22.3030 H   0  0  0  0  0  0  0  0  0  0  0  0
  -25.3220  -15.3540   20.3700 N   0  0  0  0  0  0  0  0  0  0  0  0
  -24.5500  -16.0000   20.4910 H   0  0  0  0  0  0  0  0  0  0  0  0
  -26.1550  -15.7960   20.0060 H   0  0  0  0  0  0  0  0  0  0  0  0
  -28.7280  -18.1730   17.6560 C   0  0  0  0  0  1  0  0  0  0  0  0
  -29.6920  -20.4880   17.5740 C   0  0  0  0  0  1  0  0  0  0  0  0
  -28.8400  -19.5150   18.4100 C   0  0  0  0  0  3  0  0  0  0  0  0
  4 15  2  0
  5  3  1  0
  5 10  1  0
  6 14  1  0
  6 16  1  0
  7 13  1  0
  7  9  1  0
  8 14  1  0
  9 10  2  0
  9  8  1  0
 11  5  2  0
 12 11  1  0
 12  7  2  0
 13  6  1  0
 14  4  1  0
 16 18  2  0
 17 16  1  0
 19 17  1  0
 20 29  2  0
 20 25  1  0
 21 17  1  0
 21 25  1  0
 22 21  1  0
 23 24  1  0
 23 22  1  0
 24 20  1  0
 25 26  2  0
 26 27  1  0
 28 27  2  0
 29 28  1  0
 30  4  1  0
 30 35  1  0
 30 31  1  0
 31 34  1  1
 31 32  1  0
 33 31  1  0
 35 38  1  0
 36 40  1  0
 36 35  1  0
 37 36  2  0
 40 39  1  0
 42 40  1  0
 42 43  1  0
 42 41  1  0
 44 53  1  0
 45 53  1  0
 46 51  1  0
 47 48  1  0
 47 46  1  0
 49 48  1  0
 49 58  1  0
 49 50  1  0
 51 45  1  0
 51 50  1  0
 52 45  2  0
 53 54  1  0
 55 56  2  0
 56 75  1  0
 57 56  1  0
 57 60  1  0
 58 59  1  0
 58 55  1  0
 59 57  2  0
 60 61  1  0
 61 62  2  0
 63 66  1  0
 63 62  1  0
 64 63  2  0
 65 64  1  0
 65 60  2  0
 66 67  1  0
 67 68  1  0
 68 69  2  0
 70 69  1  0
 70 74  1  0
 71 70  2  0
 72 67  2  0
 72 71  1  0
 73 72  1  0
 75 76  1  0
 76 79  1  0
 76 78  1  0
 77 75  2  0
 80 81  1  0
 80 55  1  0
 82 80  1  0
 83 85  1  0
 84 85  1  0
 85 44  1  0
M  ISO  4   2 101   3 101  45 100  53 100
M  END
>  <TORSDO>  (93) 
F 19

>  <SCORE>  (93) 
-16.065

>  <name>  (93) 
93

>  <ligand_id>  (93) 
93

>  <original_smiles>  (93) 
[H]c1c([H])c([H])c2c(c1[H])C([H])([H])C([H])([H])C([H])([H])C2([H])N([H])C(=O)C1([H])N(C(=O)C([H])(N([H])C(=O)C([H])(N([H])C([H])([H])[H])C([H])([H])[H])C(C([H])([H])[H])(C([H])([H])[H])C([H])([H])[H])C([H])([H])c2c([H])c(OC([H])([H])C([H])([H])C([H])(N([H])C(=O)N3C([H])([H])C([H])([H])C([H])([H])C([H])(n4nc(-c5c([H])c([H])c(Oc6c([H])c([H])c(F)c([H])c6F)c([H])c5[H])c(C(=O)N([H])[H])c4N([H])[H])C3([H])[H])C([H])(C([H])([H])[H])C([H])([H])[H])c([H])c([H])c2C1([H])[H]

>  <smiles>  (93) 
[H]c1c([H])c([H])c2c(c1[H])C([H])([H])C([H])([H])C([H])([H])C2([H])N([H])C(=O)C1([H])N(C(=O)C([H])(N([H])C(=O)C([H])(N([H])C([H])([H])[H])C([H])([H])[H])C(C([H])([H])[H])(C([H])([H])[H])C([H])([H])[H])C([H])([H])c2c([H])c(OC([H])([H])C([H])([H])C([H])(N([H])C(=O)N3C([H])([H])C([H])([H])C([H])([H])C([H])(n4nc(-c5c([H])c([H])c(Oc6c([H])c([H])c(F)c([H])c6F)c([H])c5[H])c(C(=O)N([H])[H])c4N([H])[H])C3([H])[H])C([H])(C([H])([H])[H])C([H])([H])[H])c([H])c([H])c2C1([H])[H]

$$$$
94:0:0
     RDKit          3D

 90 97  0  0  1  0  0  0  0  0999 V2000
  -28.9690  -21.5430   19.7060 N   0  0  0  0  0  4  0  0  0  0  0  0
  -29.5890  -21.6440   20.4930 H   0  0  0  0  0  0  0  0  0  0  0  0
  -29.5450  -21.7720   18.9100 H   0  0  0  0  0  0  0  0  0  0  0  0
  -27.8950  -22.8200   19.8860 C   0  0  0  0  0  2  0  0  0  0  0  0
  -27.9680  -24.5530   19.3710 C   0  0  0  0  0  2  0  0  0  0  0  0
  -27.8500  -26.0810   20.0120 O   0  0  0  0  0  0  0  0  0  0  0  0
  -24.6720  -32.0180   23.3550 C   0  0  0  0  0  0  0  0  0  0  0  0
  -26.8530  -27.1940   19.9760 C   0  0  0  0  0  0  0  0  0  0  0  0
  -23.3260  -30.7480   21.7260 C   0  0  0  0  0  3  0  0  0  0  0  0
  -24.6210  -29.1520   20.1460 C   0  0  0  0  0  0  0  0  0  0  0  0
  -25.8810  -30.8660   21.4370 C   0  0  0  0  0  2  0  0  0  0  0  0
  -25.8550  -29.4870   20.7170 C   0  0  0  0  0  0  0  0  0  0  0  0
  -26.9570  -28.5260   20.6160 C   0  0  0  0  0  3  0  0  0  0  0  0
  -25.5970  -27.0150   19.3530 C   0  0  0  0  0  3  0  0  0  0  0  0
  -24.5160  -27.9370   19.4450 C   0  0  0  0  0  3  0  0  0  0  0  0
  -23.4440  -30.1170   20.3100 C   0  0  0  0  0  2  0  0  0  0  0  0
  -24.6510  -31.2370   22.2250 N   0  0  0  0  0  0  0  0  0  0  0  0
  -23.6270  -32.3230   23.9570 O   0  0  0  0  0  0  0  0  0  0  0  0
  -22.6540  -29.7360   22.6900 C   0  0  0  0  0  0  0  0  0  0  0  0
  -21.3270  -29.5420   22.5630 N   0  0  0  0  0  0  0  0  0  0  0  0
  -23.3310  -29.1250   23.5220 O   0  0  0  0  0  0  0  0  0  0  0  0
  -20.8300  -30.0820   21.8670 H   0  0  0  0  0  0  0  0  0  0  0  0
  -17.9920  -28.1890   22.9920 C   0  0  0  0  0  0  0  0  0  0  0  0
  -20.5270  -28.5840   23.3310 C   0  0  0  0  0  3  0  0  0  0  0  0
  -20.7160  -27.1470   22.7920 C   0  0  0  0  0  2  0  0  0  0  0  0
  -19.6630  -26.7500   21.7510 C   0  0  0  0  0  2  0  0  0  0  0  0
  -18.2550  -26.8390   22.3480 C   0  0  0  0  0  2  0  0  0  0  0  0
  -19.0580  -29.0130   23.4400 C   0  0  0  0  0  0  0  0  0  0  0  0
  -18.7560  -30.2730   24.0030 C   0  0  0  0  0  3  0  0  0  0  0  0
  -17.4210  -30.7090   24.1230 C   0  0  0  0  0  3  0  0  0  0  0  0
  -16.3700  -29.8820   23.6900 C   0  0  0  0  0  3  0  0  0  0  0  0
  -16.6570  -28.6240   23.1320 C   0  0  0  0  0  3  0  0  0  0  0  0
  -26.0010  -32.5820   23.9380 C   0  0  0  0  0  3  0  0  0  0  0  0
  -25.7620  -33.9760   24.3510 N   0  0  0  0  0  0  0  0  0  0  0  0
  -26.1400  -35.0590   23.6570 C   0  0  0  0  0  0  0  0  0  0  0  0
  -26.7900  -34.9850   22.6120 O   0  0  0  0  0  0  0  0  0  0  0  0
  -25.1870  -34.1080   25.1690 H   0  0  0  0  0  0  0  0  0  0  0  0
  -24.5380  -36.9870   23.4140 C   0  0  0  0  0  1  0  0  0  0  0  0
  -25.7360  -36.4410   24.2090 C   0  0  0  0  0  3  0  0  0  0  0  0
  -27.8990  -37.1410   25.1460 C   0  0  0  0  0  1  0  0  0  0  0  0
  -26.8340  -37.4320   24.1870 N   0  0  0  0  0  0  0  0  0  0  0  0
  -26.4800  -38.3650   24.3780 H   0  0  0  0  0  0  0  0  0  0  0  0
  -26.5470  -31.7440   25.1600 C   0  0  1  0  0  0  0  0  0  0  0  0
  -25.4910  -31.4850   26.2600 C   0  0  0  0  0  1  0  0  0  0  0  0
  -27.0800  -30.3710   24.6930 C   0  0  0  0  0  1  0  0  0  0  0  0
  -27.7400  -32.4790   25.8140 C   0  0  0  0  0  1  0  0  0  0  0  0
  -28.7380  -19.8860   19.5820 C   0  0  0  0  0  2  0  0  0  0  0  0
  -29.8190  -18.5080   20.0470 C   0  0  0  0  0  3  0  0  0  0  0  0
  -30.4640  -15.6180   19.8240 C   0  0  0  0  0  0  0  0  0  0  0  0
  -30.5380  -13.1420   19.0410 C   0  0  0  0  0  2  0  0  0  0  0  0
  -29.5800  -12.8270   17.8630 C   0  0  0  0  0  2  0  0  0  0  0  0
  -28.1670  -12.5110   18.3820 C   0  0  0  0  0  2  0  0  0  0  0  0
  -27.7130  -13.5040   19.4820 C   0  0  0  0  0  3  0  0  0  0  0  0
  -28.7960  -13.7540   20.5500 C   0  0  0  0  0  2  0  0  0  0  0  0
  -29.9640  -14.2870   19.8360 N   0  0  0  0  0  0  0  0  0  0  0  0
  -31.6740  -15.6700   19.5720 O   0  0  0  0  0  0  0  0  0  0  0  0
  -29.6300  -16.8440   19.9120 N   0  0  0  0  0  0  0  0  0  0  0  0
  -28.6580  -16.5840   19.9750 H   0  0  0  0  0  0  0  0  0  0  0  0
  -25.3910  -13.9860   20.4110 C   0  0  0  0  0  0  0  0  0  0  0  0
  -24.3710  -13.1750   20.8170 C   0  0  0  0  0  0  0  0  0  0  0  0
  -24.8600  -11.8370   20.7070 C   0  0  0  0  0  0  0  0  0  0  0  0
  -26.4310  -13.1410   20.0650 N   0  0  0  0  0  0  0  0  0  0  0  0
  -26.1290  -11.8400   20.3140 N   0  0  0  0  0  0  0  0  0  0  0  0
  -24.1710  -10.5520   20.8950 C   0  0  0  0  0  0  0  0  0  0  0  0
  -24.5080   -9.6830   21.9550 C   0  0  0  0  0  3  0  0  0  0  0  0
  -23.8160   -8.4650   22.1270 C   0  0  0  0  0  3  0  0  0  0  0  0
  -22.7760   -8.1060   21.2370 C   0  0  0  0  0  0  0  0  0  0  0  0
  -22.4590   -8.9670   20.1720 C   0  0  0  0  0  3  0  0  0  0  0  0
  -23.1510  -10.1760   19.9990 C   0  0  0  0  0  3  0  0  0  0  0  0
  -22.0660   -6.9320   21.3120 O   0  0  0  0  0  0  0  0  0  0  0  0
  -21.7160   -6.3790   22.5160 C   0  0  0  0  0  0  0  0  0  0  0  0
  -20.8490   -7.0360   23.4150 C   0  0  0  0  0  3  0  0  0  0  0  0
  -20.4600   -6.4000   24.6120 C   0  0  0  0  0  3  0  0  0  0  0  0
  -20.9300   -5.1060   24.9060 C   0  0  0  0  0  0  0  0  0  0  0  0
  -21.7900   -4.4490   24.0100 C   0  0  0  0  0  3  0  0  0  0  0  0
  -22.1800   -5.0820   22.8170 C   0  0  0  0  0  0  0  0  0  0  0  0
  -22.9920   -4.4350   21.9470 F   0  0  0  0  0  0  0  0  0  0  0  0
  -20.5500   -4.4920   26.0510 F   0  0  0  0  0  0  0  0  0  0  0  0
  -22.9850  -13.6130   21.1880 C   0  0  0  0  0  0  0  0  0  0  0  0
  -22.3210  -12.8610   22.0590 N   0  0  0  0  0  0  0  0  0  0  0  0
  -22.5050  -14.6540   20.7440 O   0  0  0  0  0  0  0  0  0  0  0  0
  -22.7280  -12.0180   22.4370 H   0  0  0  0  0  0  0  0  0  0  0  0
  -21.3940  -13.1330   22.3510 H   0  0  0  0  0  0  0  0  0  0  0  0
  -25.5160  -15.3640   20.2710 N   0  0  0  0  0  0  0  0  0  0  0  0
  -24.7350  -15.9910   20.4320 H   0  0  0  0  0  0  0  0  0  0  0  0
  -26.3090  -15.8230   19.8410 H   0  0  0  0  0  0  0  0  0  0  0  0
  -30.0240  -18.7720   21.5680 C   0  0  0  0  0  2  0  0  0  0  0  0
  -32.5770  -19.0790   21.6380 C   0  0  0  0  0  1  0  0  0  0  0  0
  -31.2840  -18.6580   23.7580 C   0  0  0  0  0  1  0  0  0  0  0  0
  -31.3570  -18.3760   22.2490 C   0  0  0  0  0  3  0  0  0  0  0  0
  1  4  1  0
  1  2  1  0
  3  1  1  0
  5  4  1  0
  5  6  1  0
  7 18  2  0
  8  6  1  0
  8 13  1  0
  9 17  1  0
  9 19  1  0
 10 16  1  0
 10 12  1  0
 11 17  1  0
 12 11  1  0
 13 12  2  0
 14 15  1  0
 14  8  2  0
 15 10  2  0
 16  9  1  0
 17  7  1  0
 19 21  2  0
 20 19  1  0
 22 20  1  0
 23 32  2  0
 23 28  1  0
 24 20  1  0
 24 28  1  0
 25 24  1  0
 26 27  1  0
 26 25  1  0
 27 23  1  0
 28 29  2  0
 29 30  1  0
 31 30  2  0
 32 31  1  0
 33  7  1  0
 33 34  1  0
 33 43  1  0
 34 37  1  0
 35 39  1  0
 35 34  1  0
 36 35  2  0
 39 38  1  0
 41 39  1  0
 41 42  1  0
 41 40  1  0
 43 46  1  1
 43 44  1  0
 45 43  1  0
 47  1  1  0
 48 47  1  0
 48 87  1  0
 49 55  1  0
 49 57  1  0
 50 55  1  0
 51 52  1  0
 51 50  1  0
 53 52  1  0
 53 62  1  0
 53 54  1  0
 55 54  1  0
 56 49  2  0
 57 58  1  0
 57 48  1  0
 59 60  2  0
 60 79  1  0
 61 60  1  0
 61 64  1  0
 62 63  1  0
 62 59  1  0
 63 61  2  0
 64 65  1  0
 65 66  2  0
 67 70  1  0
 67 66  1  0
 68 67  2  0
 69 68  1  0
 69 64  2  0
 70 71  1  0
 71 76  2  0
 71 72  1  0
 72 73  2  0
 73 74  1  0
 74 78  1  0
 75 74  2  0
 76 75  1  0
 77 76  1  0
 79 80  1  0
 80 83  1  0
 80 82  1  0
 81 79  2  0
 84 59  1  0
 84 85  1  0
 86 84  1  0
 87 90  1  0
 88 90  1  0
 90 89  1  0
M  ISO  4   5 101   6 101  49 100  57 100
M  END
>  <TORSDO>  (94) 
F 22

>  <SCORE>  (94) 
-13.647

>  <name>  (94) 
94

>  <ligand_id>  (94) 
94

>  <original_smiles>  (94) 
[H]c1c([H])c([H])c2c(c1[H])C([H])([H])C([H])([H])C([H])([H])C2([H])N([H])C(=O)C1([H])N(C(=O)C([H])(N([H])C(=O)C([H])(N([H])C([H])([H])[H])C([H])([H])[H])C(C([H])([H])[H])(C([H])([H])[H])C([H])([H])[H])C([H])([H])c2c([H])c(OC([H])([H])C([H])([H])[N+]([H])([H])C([H])([H])C([H])(N([H])C(=O)N3C([H])([H])C([H])([H])C([H])([H])C([H])(n4nc(-c5c([H])c([H])c(Oc6c([H])c([H])c(F)c([H])c6F)c([H])c5[H])c(C(=O)N([H])[H])c4N([H])[H])C3([H])[H])C([H])([H])C([H])(C([H])([H])[H])C([H])([H])[H])c([H])c([H])c2C1([H])[H]

>  <smiles>  (94) 
[H]c1c([H])c([H])c2c(c1[H])C([H])([H])C([H])([H])C([H])([H])C2([H])N([H])C(=O)C1([H])N(C(=O)C([H])(N([H])C(=O)C([H])(N([H])C([H])([H])[H])C([H])([H])[H])C(C([H])([H])[H])(C([H])([H])[H])C([H])([H])[H])C([H])([H])c2c([H])c(OC([H])([H])C([H])([H])[N+]([H])([H])C([H])([H])C([H])(N([H])C(=O)N3C([H])([H])C([H])([H])C([H])([H])C([H])(n4nc(-c5c([H])c([H])c(Oc6c([H])c([H])c(F)c([H])c6F)c([H])c5[H])c(C(=O)N([H])[H])c4N([H])[H])C3([H])[H])C([H])([H])C([H])(C([H])([H])[H])C([H])([H])[H])c([H])c([H])c2C1([H])[H]

$$$$
95:0:0
     RDKit          3D

 94102  0  0  1  0  0  0  0  0999 V2000
  -28.1790  -22.4210   21.2130 C   0  0  0  0  0  2  0  0  0  0  0  0
  -30.0860  -22.9900   19.7800 C   0  0  0  0  0  2  0  0  0  0  0  0
  -28.8480  -20.9970   21.5480 C   0  0  0  0  0  2  0  0  0  0  0  0
  -30.7330  -21.5690   20.1440 C   0  0  0  0  0  2  0  0  0  0  0  0
  -29.0870  -23.6630   20.8040 C   0  0  0  0  0  3  0  0  0  0  0  0
  -29.7310  -20.4870   20.4500 N   0  0  1  0  0  4  0  0  0  0  0  0
  -29.1190  -20.6060   19.6560 H   0  0  0  0  0  0  0  0  0  0  0  0
  -28.2430  -24.9930   20.2690 C   0  0  0  0  0  2  0  0  0  0  0  0
  -28.5210  -26.4900   20.4310 O   0  0  0  0  0  0  0  0  0  0  0  0
  -24.6650  -31.9760   23.3850 C   0  0  0  0  0  0  0  0  0  0  0  0
  -27.4300  -27.4150   20.3480 C   0  0  0  0  0  0  0  0  0  0  0  0
  -23.5320  -30.5710   21.7050 C   0  0  0  0  0  3  0  0  0  0  0  0
  -25.0470  -29.0610   20.2940 C   0  0  0  0  0  0  0  0  0  0  0  0
  -26.0780  -30.9160   21.5930 C   0  0  0  0  0  2  0  0  0  0  0  0
  -26.2010  -29.5400   20.9280 C   0  0  0  0  0  0  0  0  0  0  0  0
  -27.3930  -28.7330   20.9430 C   0  0  0  0  0  3  0  0  0  0  0  0
  -26.2470  -27.0270   19.6750 C   0  0  0  0  0  3  0  0  0  0  0  0
  -25.0800  -27.8150   19.6540 C   0  0  0  0  0  3  0  0  0  0  0  0
  -23.7950  -29.9180   20.3240 C   0  0  0  0  0  2  0  0  0  0  0  0
  -24.7770  -31.1740   22.2830 N   0  0  0  0  0  0  0  0  0  0  0  0
  -23.5630  -32.2280   23.8930 O   0  0  0  0  0  0  0  0  0  0  0  0
  -22.8620  -29.5330   22.6400 C   0  0  0  0  0  0  0  0  0  0  0  0
  -21.5420  -29.3330   22.4840 N   0  0  0  0  0  0  0  0  0  0  0  0
  -23.5330  -28.9110   23.4680 O   0  0  0  0  0  0  0  0  0  0  0  0
  -21.0580  -29.8870   21.7920 H   0  0  0  0  0  0  0  0  0  0  0  0
  -18.1750  -28.0710   22.9180 C   0  0  0  0  0  0  0  0  0  0  0  0
  -20.7260  -28.3700   23.2280 C   0  0  0  0  0  3  0  0  0  0  0  0
  -20.8590  -26.9490   22.6330 C   0  0  0  0  0  2  0  0  0  0  0  0
  -19.7780  -26.6240   21.5980 C   0  0  0  0  0  2  0  0  0  0  0  0
  -18.3840  -26.7360   22.2230 C   0  0  0  0  0  2  0  0  0  0  0  0
  -19.2750  -28.8460   23.3760 C   0  0  0  0  0  0  0  0  0  0  0  0
  -19.0250  -30.0950   23.9850 C   0  0  0  0  0  3  0  0  0  0  0  0
  -17.7090  -30.5700   24.1420 C   0  0  0  0  0  3  0  0  0  0  0  0
  -16.6240  -29.7920   23.6990 C   0  0  0  0  0  3  0  0  0  0  0  0
  -16.8590  -28.5450   23.0930 C   0  0  0  0  0  3  0  0  0  0  0  0
  -25.9160  -32.6340   24.0430 C   0  0  0  0  0  3  0  0  0  0  0  0
  -25.5830  -34.0370   24.3300 N   0  0  0  0  0  0  0  0  0  0  0  0
  -25.9770  -35.0810   23.5890 C   0  0  0  0  0  0  0  0  0  0  0  0
  -26.7230  -34.9660   22.6140 O   0  0  0  0  0  0  0  0  0  0  0  0
  -24.9290  -34.2020   25.0810 H   0  0  0  0  0  0  0  0  0  0  0  0
  -24.2940  -36.8820   23.0790 C   0  0  0  0  0  1  0  0  0  0  0  0
  -25.4610  -36.4770   23.9940 C   0  0  0  0  0  3  0  0  0  0  0  0
  -27.5240  -37.3580   24.9920 C   0  0  0  0  0  1  0  0  0  0  0  0
  -26.5050  -37.5240   23.9590 N   0  0  0  0  0  0  0  0  0  0  0  0
  -26.0940  -38.4480   24.0640 H   0  0  0  0  0  0  0  0  0  0  0  0
  -26.3820  -31.8960   25.3590 C   0  0  1  0  0  0  0  0  0  0  0  0
  -25.2450  -31.6710   26.3820 C   0  0  0  0  0  1  0  0  0  0  0  0
  -26.9970  -30.5170   25.0280 C   0  0  0  0  0  1  0  0  0  0  0  0
  -27.4940  -32.7190   26.0520 C   0  0  0  0  0  1  0  0  0  0  0  0
  -30.0340  -18.9640   20.1490 C   0  0  0  0  0  3  0  0  0  0  0  0
  -27.7170  -18.1640   19.4330 C   0  0  0  0  0  1  0  0  0  0  0  0
  -28.9450  -19.7220   17.9230 C   0  0  0  0  0  1  0  0  0  0  0  0
  -29.1220  -18.5470   18.9270 C   0  0  1  0  0  0  0  0  0  0  0  0
  -31.1670  -17.3990   17.7170 C   0  0  0  0  0  1  0  0  0  0  0  0
  -29.6750  -17.3560   18.0870 C   0  0  0  0  0  2  0  0  0  0  0  0
  -30.2380  -17.7990   21.3150 C   0  0  0  0  0  2  0  0  0  0  0  0
  -30.8520  -15.1330   20.9400 C   0  0  0  0  0  0  0  0  0  0  0  0
  -30.7620  -12.8480   19.8850 C   0  0  0  0  0  2  0  0  0  0  0  0
  -29.9160  -12.9010   18.5930 C   0  0  0  0  0  2  0  0  0  0  0  0
  -28.4190  -12.7030   18.9100 C   0  0  0  0  0  2  0  0  0  0  0  0
  -27.9440  -13.5780   20.0990 C   0  0  0  0  0  3  0  0  0  0  0  0
  -28.9180  -13.5050   21.2940 C   0  0  0  0  0  2  0  0  0  0  0  0
  -30.2450  -13.8960   20.7990 N   0  0  0  0  0  0  0  0  0  0  0  0
  -32.0670  -15.2330   20.7550 O   0  0  0  0  0  0  0  0  0  0  0  0
  -30.0370  -16.2630   21.0920 N   0  0  0  0  0  0  0  0  0  0  0  0
  -29.0680  -15.9960   21.1570 H   0  0  0  0  0  0  0  0  0  0  0  0
  -25.4980  -14.1610   20.5970 C   0  0  0  0  0  0  0  0  0  0  0  0
  -24.4100  -13.3900   20.8930 C   0  0  0  0  0  0  0  0  0  0  0  0
  -24.8860  -12.0440   20.9440 C   0  0  0  0  0  0  0  0  0  0  0  0
  -26.5660  -13.2870   20.4810 N   0  0  0  0  0  0  0  0  0  0  0  0
  -26.1990  -12.0100   20.7540 N   0  0  0  0  0  0  0  0  0  0  0  0
  -24.1550  -10.7820   21.1030 C   0  0  0  0  0  0  0  0  0  0  0  0
  -24.5220   -9.8350   22.0820 C   0  0  0  0  0  3  0  0  0  0  0  0
  -23.7900   -8.6360   22.2290 C   0  0  0  0  0  3  0  0  0  0  0  0
  -22.6780   -8.3780   21.3940 C   0  0  0  0  0  0  0  0  0  0  0  0
  -22.3300   -9.3150   20.4040 C   0  0  0  0  0  3  0  0  0  0  0  0
  -23.0630  -10.5030   20.2560 C   0  0  0  0  0  3  0  0  0  0  0  0
  -21.9240   -7.2300   21.4480 O   0  0  0  0  0  0  0  0  0  0  0  0
  -21.7840   -6.5150   22.6100 C   0  0  0  0  0  0  0  0  0  0  0  0
  -21.2350   -7.0900   23.7770 C   0  0  0  0  0  3  0  0  0  0  0  0
  -21.0450   -6.3010   24.9290 C   0  0  0  0  0  3  0  0  0  0  0  0
  -21.3950   -4.9370   24.9130 C   0  0  0  0  0  0  0  0  0  0  0  0
  -21.9370   -4.3620   23.7510 C   0  0  0  0  0  3  0  0  0  0  0  0
  -22.1290   -5.1480   22.6010 C   0  0  0  0  0  0  0  0  0  0  0  0
  -22.6320   -4.5850   21.4770 F   0  0  0  0  0  0  0  0  0  0  0  0
  -21.2050   -4.1750   26.0160 F   0  0  0  0  0  0  0  0  0  0  0  0
  -22.9920  -13.8630   21.0190 C   0  0  0  0  0  0  0  0  0  0  0  0
  -22.2010  -13.2090   21.8630 N   0  0  0  0  0  0  0  0  0  0  0  0
  -22.5890  -14.8500   20.4050 O   0  0  0  0  0  0  0  0  0  0  0  0
  -22.5390  -12.4120   22.3830 H   0  0  0  0  0  0  0  0  0  0  0  0
  -21.2450  -13.5090   21.9920 H   0  0  0  0  0  0  0  0  0  0  0  0
  -25.6590  -15.5260   20.3880 N   0  0  0  0  0  0  0  0  0  0  0  0
  -24.8630  -16.1540   20.3900 H   0  0  0  0  0  0  0  0  0  0  0  0
  -26.5010  -15.9550   20.0330 H   0  0  0  0  0  0  0  0  0  0  0  0
  1  3  1  0
  2  4  1  0
  2  5  1  0
  4  6  1  0
  5  8  1  0
  5  1  1  0
  6  3  1  0
  6  7  1  6
  8  9  1  0
 10 21  2  0
 11  9  1  0
 11 16  1  0
 12 20  1  0
 12 22  1  0
 13 19  1  0
 13 15  1  0
 14 20  1  0
 15 16  2  0
 15 14  1  0
 17 11  2  0
 18 17  1  0
 18 13  2  0
 19 12  1  0
 20 10  1  0
 22 24  2  0
 23 22  1  0
 25 23  1  0
 26 35  2  0
 26 31  1  0
 27 23  1  0
 27 31  1  0
 28 27  1  0
 29 30  1  0
 29 28  1  0
 30 26  1  0
 31 32  2  0
 32 33  1  0
 34 33  2  0
 35 34  1  0
 36 10  1  0
 36 37  1  0
 36 46  1  0
 37 40  1  0
 38 42  1  0
 38 37  1  0
 39 38  2  0
 42 41  1  0
 44 42  1  0
 44 45  1  0
 44 43  1  0
 46 49  1  1
 46 47  1  0
 48 46  1  0
 50  6  1  0
 50 56  1  0
 53 52  1  6
 53 51  1  0
 53 50  1  0
 54 55  1  0
 55 53  1  0
 57 65  1  0
 58 63  1  0
 59 60  1  0
 59 58  1  0
 61 60  1  0
 61 70  1  0
 61 62  1  0
 63 57  1  0
 63 62  1  0
 64 57  2  0
 65 66  1  0
 65 56  1  0
 67 68  2  0
 68 69  1  0
 68 87  1  0
 69 72  1  0
 70 67  1  0
 70 71  1  0
 71 69  2  0
 72 73  1  0
 73 74  2  0
 75 78  1  0
 75 74  1  0
 76 75  2  0
 77 76  1  0
 77 72  2  0
 78 79  1  0
 79 80  1  0
 80 81  2  0
 82 81  1  0
 82 86  1  0
 83 82  2  0
 84 79  2  0
 84 83  1  0
 85 84  1  0
 87 88  1  0
 88 91  1  0
 88 90  1  0
 89 87  2  0
 92 93  1  0
 92 67  1  0
 94 92  1  0
M  ISO  4   8 101   9 101  57 100  65 100
M  END
>  <TORSDO>  (95) 
F 21

>  <SCORE>  (95) 
-13.167

>  <name>  (95) 
95

>  <ligand_id>  (95) 
95

>  <original_smiles>  (95) 
[H]c1c([H])c([H])c2c(c1[H])C([H])([H])C([H])([H])C([H])([H])C2([H])N([H])C(=O)C1([H])N(C(=O)C([H])(N([H])C(=O)C([H])(N([H])C([H])([H])[H])C([H])([H])[H])C(C([H])([H])[H])(C([H])([H])[H])C([H])([H])[H])C([H])([H])c2c([H])c(OC([H])([H])C3([H])C([H])([H])C([H])([H])[N+]([H])(C([H])(C([H])([H])N([H])C(=O)N4C([H])([H])C([H])([H])C([H])([H])C([H])(n5nc(-c6c([H])c([H])c(Oc7c([H])c([H])c(F)c([H])c7F)c([H])c6[H])c(C(=O)N([H])[H])c5N([H])[H])C4([H])[H])C(C([H])([H])[H])(C([H])([H])[H])C([H])([H])C([H])([H])[H])C([H])([H])C3([H])[H])c([H])c([H])c2C1([H])[H]

>  <smiles>  (95) 
[H]c1c([H])c([H])c2c(c1[H])C([H])([H])C([H])([H])C([H])([H])C2([H])N([H])C(=O)C1([H])N(C(=O)C([H])(N([H])C(=O)C([H])(N([H])C([H])([H])[H])C([H])([H])[H])C(C([H])([H])[H])(C([H])([H])[H])C([H])([H])[H])C([H])([H])c2c([H])c(OC([H])([H])C3([H])C([H])([H])C([H])([H])[N+]([H])(C([H])(C([H])([H])N([H])C(=O)N4C([H])([H])C([H])([H])C([H])([H])C([H])(n5nc(-c6c([H])c([H])c(Oc7c([H])c([H])c(F)c([H])c7F)c([H])c6[H])c(C(=O)N([H])[H])c5N([H])[H])C4([H])[H])C(C([H])([H])[H])(C([H])([H])[H])C([H])([H])C([H])([H])[H])C([H])([H])C3([H])[H])c([H])c([H])c2C1([H])[H]

$$$$
96:0:0
     RDKit          3D

 95103  0  0  1  0  0  0  0  0999 V2000
  -28.8880  -20.5270   23.0340 C   0  0  0  0  0  1  0  0  0  0  0  0
  -29.1210  -20.2240   21.5400 C   0  0  0  0  0  3  0  0  0  0  0  0
  -29.9410  -21.3570   20.8500 C   0  0  0  0  0  2  0  0  0  0  0  0
  -29.3130  -22.7640   20.9970 C   0  0  0  0  0  2  0  0  0  0  0  0
  -29.8540  -23.8440   20.0390 C   0  0  0  0  0  2  0  0  0  0  0  0
  -29.1590  -25.2030   20.2850 C   0  0  0  0  0  2  0  0  0  0  0  0
  -29.6680  -26.3630   19.4040 C   0  0  0  0  0  2  0  0  0  0  0  0
  -29.3530  -27.6460   19.9570 O   0  0  0  0  0  0  0  0  0  0  0  0
  -24.7060  -31.8290   23.3430 C   0  0  0  0  0  0  0  0  0  0  0  0
  -28.0550  -28.1160   19.9810 C   0  0  0  0  0  0  0  0  0  0  0  0
  -23.7520  -30.3940   21.5690 C   0  0  0  0  0  3  0  0  0  0  0  0
  -25.4460  -29.2130   20.0680 C   0  0  0  0  0  0  0  0  0  0  0  0
  -26.1910  -31.1520   21.4580 C   0  0  0  0  0  2  0  0  0  0  0  0
  -26.4980  -29.8650   20.7220 C   0  0  0  0  0  0  0  0  0  0  0  0
  -27.7990  -29.3170   20.6830 C   0  0  0  0  0  3  0  0  0  0  0  0
  -26.9780  -27.4700   19.3300 C   0  0  0  0  0  3  0  0  0  0  0  0
  -25.6810  -28.0150   19.3720 C   0  0  0  0  0  3  0  0  0  0  0  0
  -24.0810  -29.8620   20.1490 C   0  0  0  0  0  2  0  0  0  0  0  0
  -24.9000  -31.1350   22.1860 N   0  0  0  0  0  0  0  0  0  0  0  0
  -23.5890  -31.8870   23.8760 O   0  0  0  0  0  0  0  0  0  0  0  0
  -23.2540  -29.2120   22.4310 C   0  0  0  0  0  0  0  0  0  0  0  0
  -22.0130  -28.7680   22.1770 N   0  0  0  0  0  0  0  0  0  0  0  0
  -23.9870  -28.6980   23.2820 O   0  0  0  0  0  0  0  0  0  0  0  0
  -21.4760  -29.2440   21.4650 H   0  0  0  0  0  0  0  0  0  0  0  0
  -18.9720  -26.8220   22.2640 C   0  0  0  0  0  0  0  0  0  0  0  0
  -21.3540  -27.6420   22.8370 C   0  0  0  0  0  3  0  0  0  0  0  0
  -21.8480  -26.2940   22.2630 C   0  0  0  0  0  2  0  0  0  0  0  0
  -20.9700  -25.7690   21.1220 C   0  0  0  0  0  2  0  0  0  0  0  0
  -19.5290  -25.5740   21.5990 C   0  0  0  0  0  2  0  0  0  0  0  0
  -19.8300  -27.8010   22.8310 C   0  0  0  0  0  0  0  0  0  0  0  0
  -19.2630  -28.9600   23.4030 C   0  0  0  0  0  3  0  0  0  0  0  0
  -17.8690  -29.1500   23.4140 C   0  0  0  0  0  3  0  0  0  0  0  0
  -17.0230  -28.1700   22.8650 C   0  0  0  0  0  3  0  0  0  0  0  0
  -17.5740  -27.0080   22.2970 C   0  0  0  0  0  3  0  0  0  0  0  0
  -25.8720  -32.5970   24.0430 C   0  0  0  0  0  3  0  0  0  0  0  0
  -26.3930  -31.8830   25.3490 C   0  0  1  0  0  0  0  0  0  0  0  0
  -25.2640  -31.4710   26.3220 C   0  0  0  0  0  1  0  0  0  0  0  0
  -27.1960  -30.6120   24.9900 C   0  0  0  0  0  1  0  0  0  0  0  0
  -27.3620  -32.8200   26.1090 C   0  0  0  0  0  1  0  0  0  0  0  0
  -25.3900  -33.9510   24.3470 N   0  0  0  0  0  0  0  0  0  0  0  0
  -25.6580  -35.0380   23.6100 C   0  0  0  0  0  0  0  0  0  0  0  0
  -26.4070  -35.0130   22.6300 O   0  0  0  0  0  0  0  0  0  0  0  0
  -24.7310  -34.0370   25.1070 H   0  0  0  0  0  0  0  0  0  0  0  0
  -23.7770  -36.6330   23.1200 C   0  0  0  0  0  1  0  0  0  0  0  0
  -24.9880  -36.3620   24.0260 C   0  0  0  0  0  3  0  0  0  0  0  0
  -26.9530  -37.4620   25.0060 C   0  0  0  0  0  1  0  0  0  0  0  0
  -25.9050  -37.5220   23.9900 N   0  0  0  0  0  0  0  0  0  0  0  0
  -25.3940  -38.3910   24.1130 H   0  0  0  0  0  0  0  0  0  0  0  0
  -29.7900  -18.8250   21.4320 C   0  0  0  0  0  2  0  0  0  0  0  0
  -29.6620  -18.1040   20.0500 C   0  0  0  0  0  3  0  0  0  0  0  0
  -31.6250  -14.9860   19.3930 C   0  0  0  0  0  0  0  0  0  0  0  0
  -31.1700  -12.7080   18.5490 C   0  0  0  0  0  2  0  0  0  0  0  0
  -30.1400  -12.7440   17.4040 C   0  0  0  0  0  2  0  0  0  0  0  0
  -28.7090  -12.7060   17.9710 C   0  0  0  0  0  2  0  0  0  0  0  0
  -28.4860  -13.7370   19.1070 C   0  0  0  0  0  3  0  0  0  0  0  0
  -29.6200  -13.6620   20.1540 C   0  0  0  0  0  2  0  0  0  0  0  0
  -30.8990  -13.8390   19.4530 N   0  0  0  0  0  0  0  0  0  0  0  0
  -32.6070  -15.1060   18.6510 O   0  0  0  0  0  0  0  0  0  0  0  0
  -32.8800  -17.6040   20.9270 C   0  0  0  0  0  2  0  0  0  0  0  0
  -32.2700  -18.0770   19.6060 C   0  0  0  0  0  2  0  0  0  0  0  0
  -32.0740  -16.3500   21.3100 C   0  0  0  0  0  2  0  0  0  0  0  0
  -30.9300  -17.3210   19.5200 C   0  0  0  0  0  3  0  0  0  0  0  0
  -31.2010  -16.0190   20.1730 N   0  0  0  0  0  0  0  0  0  0  0  0
  -26.2600  -14.5300   20.1150 C   0  0  0  0  0  0  0  0  0  0  0  0
  -25.1780  -13.8410   20.5980 C   0  0  0  0  0  0  0  0  0  0  0  0
  -25.4970  -12.4560   20.4620 C   0  0  0  0  0  0  0  0  0  0  0  0
  -27.1750  -13.5670   19.7290 N   0  0  0  0  0  0  0  0  0  0  0  0
  -26.7290  -12.3130   19.9920 N   0  0  0  0  0  0  0  0  0  0  0  0
  -24.6820  -11.2560   20.6950 C   0  0  0  0  0  0  0  0  0  0  0  0
  -25.0660  -10.2770   21.6360 C   0  0  0  0  0  3  0  0  0  0  0  0
  -24.2590   -9.1400   21.8570 C   0  0  0  0  0  3  0  0  0  0  0  0
  -23.0540   -8.9740   21.1330 C   0  0  0  0  0  0  0  0  0  0  0  0
  -22.6890   -9.9410   20.1800 C   0  0  0  0  0  3  0  0  0  0  0  0
  -23.4960  -11.0700   19.9590 C   0  0  0  0  0  3  0  0  0  0  0  0
  -22.2210   -7.8890   21.2590 O   0  0  0  0  0  0  0  0  0  0  0  0
  -22.0420   -7.2560   22.4630 C   0  0  0  0  0  0  0  0  0  0  0  0
  -21.5720   -7.9430   23.6030 C   0  0  0  0  0  3  0  0  0  0  0  0
  -21.3360   -7.2390   24.8010 C   0  0  0  0  0  3  0  0  0  0  0  0
  -21.5590   -5.8500   24.8580 C   0  0  0  0  0  0  0  0  0  0  0  0
  -22.0230   -5.1630   23.7210 C   0  0  0  0  0  3  0  0  0  0  0  0
  -22.2600   -5.8660   22.5260 C   0  0  0  0  0  0  0  0  0  0  0  0
  -22.6860   -5.1960   21.4290 F   0  0  0  0  0  0  0  0  0  0  0  0
  -21.3250   -5.1720   26.0060 F   0  0  0  0  0  0  0  0  0  0  0  0
  -23.8750  -14.4300   21.0530 C   0  0  0  0  0  0  0  0  0  0  0  0
  -23.2070  -13.7790   21.9990 N   0  0  0  0  0  0  0  0  0  0  0  0
  -23.4700  -15.5010   20.6060 O   0  0  0  0  0  0  0  0  0  0  0  0
  -23.5560  -12.9120   22.3790 H   0  0  0  0  0  0  0  0  0  0  0  0
  -22.3380  -14.1570   22.3490 H   0  0  0  0  0  0  0  0  0  0  0  0
  -26.5420  -15.8830   19.9390 N   0  0  0  0  0  0  0  0  0  0  0  0
  -25.7040  -16.4280   20.1240 H   0  0  0  0  0  0  0  0  0  0  0  0
  -26.8120  -16.0430   18.9730 H   0  0  0  0  0  0  0  0  0  0  0  0
  -28.4340  -17.2800   20.0600 N   0  0  0  0  0  4  0  0  0  0  0  0
  -27.9870  -17.1880   19.1550 H   0  0  0  0  0  0  0  0  0  0  0  0
  -27.7450  -17.7140   20.6520 H   0  0  0  0  0  0  0  0  0  0  0  0
  -28.6220  -16.3660   20.4310 H   0  0  0  0  0  0  0  0  0  0  0  0
  2  1  1  0
  3  4  1  0
  3  2  1  0
  5  6  1  0
  5  4  1  0
  7  8  1  0
  7  6  1  0
  8 10  1  0
  9 20  2  0
 10 15  1  0
 11 19  1  0
 11 21  1  0
 12 18  1  0
 12 14  1  0
 13 19  1  0
 14 13  1  0
 15 14  2  0
 16 17  1  0
 16 10  2  0
 17 12  2  0
 18 11  1  0
 19  9  1  0
 21 23  2  0
 22 21  1  0
 24 22  1  0
 25 34  2  0
 25 30  1  0
 26 22  1  0
 27 26  1  0
 28 29  1  0
 28 27  1  0
 29 25  1  0
 30 26  1  0
 30 31  2  0
 31 32  1  0
 33 32  2  0
 34 33  1  0
 35  9  1  0
 35 40  1  0
 35 36  1  0
 36 39  1  1
 36 37  1  0
 38 36  1  0
 40 43  1  0
 41 45  1  0
 41 40  1  0
 42 41  2  0
 45 44  1  0
 47 45  1  0
 47 48  1  0
 47 46  1  0
 49  2  1  0
 50 92  1  0
 50 49  1  0
 51 57  1  0
 51 63  1  0
 52 57  1  0
 53 54  1  0
 53 52  1  0
 55 54  1  0
 55 67  1  0
 55 56  1  0
 57 56  1  0
 58 51  2  0
 59 61  1  0
 60 59  1  0
 62 60  1  0
 62 50  1  0
 62 63  1  0
 63 61  1  0
 64 65  2  0
 65 84  1  0
 66 65  1  0
 66 69  1  0
 67 68  1  0
 67 64  1  0
 68 66  2  0
 69 70  1  0
 70 71  2  0
 72 75  1  0
 72 71  1  0
 73 72  2  0
 74 73  1  0
 74 69  2  0
 75 76  1  0
 76 81  2  0
 76 77  1  0
 77 78  2  0
 78 79  1  0
 79 83  1  0
 80 79  2  0
 81 80  1  0
 82 81  1  0
 84 85  1  0
 85 88  1  0
 85 87  1  0
 86 84  2  0
 89 64  1  0
 89 90  1  0
 91 89  1  0
 92 95  1  0
 92 94  1  0
 93 92  1  0
M  ISO  4   7 101   8 101  51 100  63 100
M  END
>  <TORSDO>  (96) 
F 24

>  <SCORE>  (96) 
-5.867

>  <name>  (96) 
96

>  <ligand_id>  (96) 
96

>  <original_smiles>  (96) 
[H]c1c([H])c([H])c2c(c1[H])C([H])([H])C([H])([H])C([H])([H])C2([H])N([H])C(=O)C1([H])N(C(=O)C([H])(N([H])C(=O)C([H])(N([H])C([H])([H])[H])C([H])([H])[H])C(C([H])([H])[H])(C([H])([H])[H])C([H])([H])[H])C([H])([H])c2c([H])c(OC([H])([H])C([H])([H])C([H])([H])C([H])([H])C([H])([H])C([H])(C([H])([H])[H])C([H])([H])C([H])(C3([H])N(C(=O)N4C([H])([H])C([H])([H])C([H])([H])C([H])(n5nc(-c6c([H])c([H])c(Oc7c([H])c([H])c(F)c([H])c7F)c([H])c6[H])c(C(=O)N([H])[H])c5N([H])[H])C4([H])[H])C([H])([H])C([H])([H])C3([H])[H])[N+]([H])([H])[H])c([H])c([H])c2C1([H])[H]

>  <smiles>  (96) 
[H]c1c([H])c([H])c2c(c1[H])C([H])([H])C([H])([H])C([H])([H])C2([H])N([H])C(=O)C1([H])N(C(=O)C([H])(N([H])C(=O)C([H])(N([H])C([H])([H])[H])C([H])([H])[H])C(C([H])([H])[H])(C([H])([H])[H])C([H])([H])[H])C([H])([H])c2c([H])c(OC([H])([H])C([H])([H])C([H])([H])C([H])([H])C([H])([H])C([H])(C([H])([H])[H])C([H])([H])C([H])(C3([H])N(C(=O)N4C([H])([H])C([H])([H])C([H])([H])C([H])(n5nc(-c6c([H])c([H])c(Oc7c([H])c([H])c(F)c([H])c7F)c([H])c6[H])c(C(=O)N([H])[H])c5N([H])[H])C4([H])[H])C([H])([H])C([H])([H])C3([H])[H])[N+]([H])([H])[H])c([H])c([H])c2C1([H])[H]

$$$$
97:0:0
     RDKit          3D

 87 95  0  0  1  0  0  0  0  0999 V2000
  -28.9200  -22.3090   20.3390 C   0  0  0  0  0  0  0  0  0  0  0  0
  -30.0510  -22.5750   20.7560 O   0  0  0  0  0  0  0  0  0  0  0  0
  -29.5380  -19.6700   17.9060 C   0  0  0  0  0  2  0  0  0  0  0  0
  -28.3190  -20.2750   18.6390 C   0  0  0  0  0  2  0  0  0  0  0  0
  -30.5330  -19.1080   18.9380 C   0  0  0  0  0  2  0  0  0  0  0  0
  -28.6980  -20.4580   20.1140 C   0  0  0  0  0  3  0  0  0  0  0  0
  -29.7430  -18.8370   20.2200 C   0  0  0  0  0  3  0  0  0  0  0  0
  -30.2780  -15.7020   20.1850 C   0  0  0  0  0  0  0  0  0  0  0  0
  -30.3640  -13.1720   19.3430 C   0  0  0  0  0  2  0  0  0  0  0  0
  -29.4550  -12.7750   18.1440 C   0  0  0  0  0  2  0  0  0  0  0  0
  -28.0360  -12.4220   18.6190 C   0  0  0  0  0  2  0  0  0  0  0  0
  -27.5410  -13.4080   19.7000 C   0  0  0  0  0  3  0  0  0  0  0  0
  -28.5890  -13.7150   20.7940 C   0  0  0  0  0  2  0  0  0  0  0  0
  -29.7480  -14.3420   20.1170 N   0  0  0  0  0  0  0  0  0  0  0  0
  -31.5100  -15.6370   20.0070 O   0  0  0  0  0  0  0  0  0  0  0  0
  -29.5270  -17.0660   20.2580 N   0  0  0  0  0  0  0  0  0  0  0  0
  -28.5420  -16.8600   20.3520 H   0  0  0  0  0  0  0  0  0  0  0  0
  -25.1880  -13.9110   20.5090 C   0  0  0  0  0  0  0  0  0  0  0  0
  -24.1410  -13.1160   20.8820 C   0  0  0  0  0  0  0  0  0  0  0  0
  -24.6250  -11.7730   20.8320 C   0  0  0  0  0  0  0  0  0  0  0  0
  -26.2360  -13.0530   20.2400 N   0  0  0  0  0  0  0  0  0  0  0  0
  -25.9130  -11.7590   20.5010 N   0  0  0  0  0  0  0  0  0  0  0  0
  -23.9120  -10.5000   21.0190 C   0  0  0  0  0  0  0  0  0  0  0  0
  -24.3490   -9.5350   21.9530 C   0  0  0  0  0  3  0  0  0  0  0  0
  -23.6310   -8.3330   22.1290 C   0  0  0  0  0  3  0  0  0  0  0  0
  -22.4620   -8.0860   21.3710 C   0  0  0  0  0  0  0  0  0  0  0  0
  -22.0450   -9.0380   20.4250 C   0  0  0  0  0  3  0  0  0  0  0  0
  -22.7630  -10.2320   20.2470 C   0  0  0  0  0  3  0  0  0  0  0  0
  -21.7150   -6.9350   21.4560 O   0  0  0  0  0  0  0  0  0  0  0  0
  -21.6510   -6.2020   22.6150 C   0  0  0  0  0  0  0  0  0  0  0  0
  -21.1620   -6.7540   23.8190 C   0  0  0  0  0  3  0  0  0  0  0  0
  -21.0490   -5.9480   24.9690 C   0  0  0  0  0  3  0  0  0  0  0  0
  -21.4140   -4.5890   24.9150 C   0  0  0  0  0  0  0  0  0  0  0  0
  -21.8960   -4.0350   23.7160 C   0  0  0  0  0  3  0  0  0  0  0  0
  -22.0120   -4.8410   22.5680 C   0  0  0  0  0  0  0  0  0  0  0  0
  -22.4570   -4.2970   21.4100 F   0  0  0  0  0  0  0  0  0  0  0  0
  -21.2990   -3.8110   26.0170 F   0  0  0  0  0  0  0  0  0  0  0  0
  -22.7420  -13.5760   21.1680 C   0  0  0  0  0  0  0  0  0  0  0  0
  -22.0320  -12.8700   22.0400 N   0  0  0  0  0  0  0  0  0  0  0  0
  -22.2890  -14.5970   20.6530 O   0  0  0  0  0  0  0  0  0  0  0  0
  -22.4160  -12.0450   22.4790 H   0  0  0  0  0  0  0  0  0  0  0  0
  -21.0920  -13.1550   22.2730 H   0  0  0  0  0  0  0  0  0  0  0  0
  -25.3300  -15.2850   20.3430 N   0  0  0  0  0  0  0  0  0  0  0  0
  -24.5510  -15.9250   20.4640 H   0  0  0  0  0  0  0  0  0  0  0  0
  -26.1590  -15.7380   19.9830 H   0  0  0  0  0  0  0  0  0  0  0  0
  -27.8900  -23.8500   20.1090 C   0  0  0  0  0  2  0  0  0  0  0  0
  -28.1320  -25.5790   20.3290 O   0  0  0  0  0  0  0  0  0  0  0  0
  -24.6600  -31.8950   23.2280 C   0  0  0  0  0  0  0  0  0  0  0  0
  -27.1720  -26.7980   20.2630 C   0  0  0  0  0  0  0  0  0  0  0  0
  -23.4680  -30.4950   21.5970 C   0  0  0  0  0  3  0  0  0  0  0  0
  -24.9100  -28.8350   20.1940 C   0  0  0  0  0  0  0  0  0  0  0  0
  -26.0480  -30.6260   21.4790 C   0  0  0  0  0  2  0  0  0  0  0  0
  -26.1060  -29.1910   20.8270 C   0  0  0  0  0  0  0  0  0  0  0  0
  -27.2220  -28.2010   20.8290 C   0  0  0  0  0  3  0  0  0  0  0  0
  -25.9410  -26.6490   19.5750 C   0  0  0  0  0  3  0  0  0  0  0  0
  -24.8660  -27.5880   19.5450 C   0  0  0  0  0  3  0  0  0  0  0  0
  -23.7050  -29.7890   20.2320 C   0  0  0  0  0  2  0  0  0  0  0  0
  -24.7490  -31.0380   22.1530 N   0  0  0  0  0  0  0  0  0  0  0  0
  -23.5670  -32.2020   23.7340 O   0  0  0  0  0  0  0  0  0  0  0  0
  -22.7430  -29.5270   22.5710 C   0  0  0  0  0  0  0  0  0  0  0  0
  -21.4110  -29.3750   22.4420 N   0  0  0  0  0  0  0  0  0  0  0  0
  -23.3940  -28.9080   23.4170 O   0  0  0  0  0  0  0  0  0  0  0  0
  -20.9360  -29.9240   21.7390 H   0  0  0  0  0  0  0  0  0  0  0  0
  -18.0190  -28.1780   22.9470 C   0  0  0  0  0  0  0  0  0  0  0  0
  -20.5780  -28.4490   23.2180 C   0  0  0  0  0  3  0  0  0  0  0  0
  -20.6800  -27.0100   22.6590 C   0  0  0  0  0  2  0  0  0  0  0  0
  -19.5840  -26.6800   21.6410 C   0  0  0  0  0  2  0  0  0  0  0  0
  -18.1990  -26.8270   22.2770 C   0  0  0  0  0  2  0  0  0  0  0  0
  -19.1340  -28.9470   23.3740 C   0  0  0  0  0  0  0  0  0  0  0  0
  -18.9090  -30.2090   23.9650 C   0  0  0  0  0  3  0  0  0  0  0  0
  -17.6020  -30.7040   24.1300 C   0  0  0  0  0  3  0  0  0  0  0  0
  -16.5000  -29.9340   23.7170 C   0  0  0  0  0  3  0  0  0  0  0  0
  -16.7100  -28.6730   23.1320 C   0  0  0  0  0  3  0  0  0  0  0  0
  -25.9260  -32.5410   23.8690 C   0  0  0  0  0  3  0  0  0  0  0  0
  -25.6110  -33.9480   24.1900 N   0  0  0  0  0  0  0  0  0  0  0  0
  -25.9290  -35.0030   23.4280 C   0  0  0  0  0  0  0  0  0  0  0  0
  -26.5780  -34.8960   22.3840 O   0  0  0  0  0  0  0  0  0  0  0  0
  -25.0320  -34.1030   25.0020 H   0  0  0  0  0  0  0  0  0  0  0  0
  -24.1890  -36.8010   23.1350 C   0  0  0  0  0  1  0  0  0  0  0  0
  -25.4610  -36.3980   23.8970 C   0  0  0  0  0  3  0  0  0  0  0  0
  -27.6220  -37.3010   24.6430 C   0  0  0  0  0  1  0  0  0  0  0  0
  -26.4870  -37.4530   23.7360 N   0  0  0  0  0  0  0  0  0  0  0  0
  -26.0830  -38.3740   23.8860 H   0  0  0  0  0  0  0  0  0  0  0  0
  -26.4090  -31.7920   25.1720 C   0  0  1  0  0  0  0  0  0  0  0  0
  -25.2950  -31.5880   26.2270 C   0  0  0  0  0  1  0  0  0  0  0  0
  -26.9860  -30.3990   24.8320 C   0  0  0  0  0  1  0  0  0  0  0  0
  -27.5550  -32.5900   25.8390 C   0  0  0  0  0  1  0  0  0  0  0  0
  1  2  2  0
  3  4  1  0
  3  5  1  0
  4  6  1  0
  5  7  1  0
  6  7  1  0
  6  1  1  0
  7 16  1  0
  8 16  1  0
  9 14  1  0
 10 11  1  0
 10  9  1  0
 12 11  1  0
 12 21  1  0
 12 13  1  0
 14  8  1  0
 14 13  1  0
 15  8  2  0
 16 17  1  0
 18 19  2  0
 19 38  1  0
 20 19  1  0
 20 23  1  0
 21 22  1  0
 21 18  1  0
 22 20  2  0
 23 24  1  0
 24 25  2  0
 26 29  1  0
 26 25  1  0
 27 26  2  0
 28 27  1  0
 28 23  2  0
 29 30  1  0
 30 31  1  0
 31 32  2  0
 33 32  1  0
 33 37  1  0
 34 33  2  0
 35 30  2  0
 35 34  1  0
 36 35  1  0
 38 39  1  0
 39 42  1  0
 39 41  1  0
 40 38  2  0
 43 44  1  0
 43 18  1  0
 45 43  1  0
 46 47  1  0
 46  1  1  0
 48 59  2  0
 49 47  1  0
 49 54  1  0
 50 58  1  0
 50 60  1  0
 51 57  1  0
 51 53  1  0
 52 58  1  0
 53 54  2  0
 53 52  1  0
 55 49  2  0
 56 55  1  0
 56 51  2  0
 57 50  1  0
 58 48  1  0
 60 62  2  0
 61 60  1  0
 63 61  1  0
 64 73  2  0
 64 69  1  0
 65 61  1  0
 65 69  1  0
 66 65  1  0
 67 68  1  0
 67 66  1  0
 68 64  1  0
 69 70  2  0
 70 71  1  0
 72 71  2  0
 73 72  1  0
 74 48  1  0
 74 75  1  0
 74 84  1  0
 75 78  1  0
 76 80  1  0
 76 75  1  0
 77 76  2  0
 80 79  1  0
 82 83  1  0
 82 80  1  0
 82 81  1  0
 84 87  1  1
 84 85  1  0
 86 84  1  0
M  ISO  4   8 100  16 100  46 101  47 101
M  END
>  <TORSDO>  (97) 
F 18

>  <SCORE>  (97) 
-16.604

>  <name>  (97) 
97

>  <ligand_id>  (97) 
97

>  <original_smiles>  (97) 
[H]c1c([H])c([H])c2c(c1[H])C([H])([H])C([H])([H])C([H])([H])C2([H])N([H])C(=O)C1([H])N(C(=O)C([H])(N([H])C(=O)C([H])(N([H])C([H])([H])[H])C([H])([H])[H])C(C([H])([H])[H])(C([H])([H])[H])C([H])([H])[H])C([H])([H])c2c([H])c(OC([H])([H])C(=O)C3([H])C([H])([H])C([H])([H])C([H])([H])C3([H])N([H])C(=O)N3C([H])([H])C([H])([H])C([H])([H])C([H])(n4nc(-c5c([H])c([H])c(Oc6c([H])c([H])c(F)c([H])c6F)c([H])c5[H])c(C(=O)N([H])[H])c4N([H])[H])C3([H])[H])c([H])c([H])c2C1([H])[H]

>  <smiles>  (97) 
[H]c1c([H])c([H])c2c(c1[H])C([H])([H])C([H])([H])C([H])([H])C2([H])N([H])C(=O)C1([H])N(C(=O)C([H])(N([H])C(=O)C([H])(N([H])C([H])([H])[H])C([H])([H])[H])C(C([H])([H])[H])(C([H])([H])[H])C([H])([H])[H])C([H])([H])c2c([H])c(OC([H])([H])C(=O)C3([H])C([H])([H])C([H])([H])C([H])([H])C3([H])N([H])C(=O)N3C([H])([H])C([H])([H])C([H])([H])C([H])(n4nc(-c5c([H])c([H])c(Oc6c([H])c([H])c(F)c([H])c6F)c([H])c5[H])c(C(=O)N([H])[H])c4N([H])[H])C3([H])[H])c([H])c([H])c2C1([H])[H]

$$$$
98:0:0
     RDKit          3D

 93101  0  0  1  0  0  0  0  0999 V2000
  -29.6570  -20.2980   19.8250 C   0  0  0  0  0  3  0  0  0  0  0  0
  -26.5140  -19.4590   16.6850 C   0  0  0  0  0  2  0  0  0  0  0  0
  -27.9180  -18.8590   16.5310 C   0  0  0  0  0  2  0  0  0  0  0  0
  -26.5690  -20.8350   17.3650 C   0  0  0  0  0  2  0  0  0  0  0  0
  -28.6560  -18.8130   17.8820 C   0  0  0  0  0  2  0  0  0  0  0  0
  -27.3300  -20.7900   18.7030 C   0  0  0  0  0  2  0  0  0  0  0  0
  -28.7580  -20.2090   18.5370 C   0  0  0  0  0  3  0  0  0  0  0  0
  -29.4940  -21.6810   20.5570 C   0  0  0  0  0  3  0  0  0  0  0  0
  -29.4910  -22.9570   19.6620 C   0  0  0  0  0  3  0  0  0  0  0  0
  -29.4330  -24.3210   20.4160 C   0  0  0  0  0  2  0  0  0  0  0  0
  -28.4940  -25.3340   19.7090 C   0  0  0  0  0  2  0  0  0  0  0  0
  -28.5670  -26.7110   20.1460 O   0  0  0  0  0  0  0  0  0  0  0  0
  -24.6240  -31.8160   23.2110 C   0  0  0  0  0  0  0  0  0  0  0  0
  -27.3920  -27.4570   20.0900 C   0  0  0  0  0  0  0  0  0  0  0  0
  -23.4700  -30.4290   21.5220 C   0  0  0  0  0  3  0  0  0  0  0  0
  -24.9730  -28.9510   20.0880 C   0  0  0  0  0  0  0  0  0  0  0  0
  -25.9940  -30.8310   21.3720 C   0  0  0  0  0  2  0  0  0  0  0  0
  -26.1160  -29.4720   20.7080 C   0  0  0  0  0  0  0  0  0  0  0  0
  -27.3250  -28.7310   20.7100 C   0  0  0  0  0  3  0  0  0  0  0  0
  -26.2270  -26.9750   19.4430 C   0  0  0  0  0  3  0  0  0  0  0  0
  -25.0270  -27.7020   19.4510 C   0  0  0  0  0  3  0  0  0  0  0  0
  -23.7130  -29.7850   20.1330 C   0  0  0  0  0  2  0  0  0  0  0  0
  -24.7130  -31.0390   22.0950 N   0  0  0  0  0  0  0  0  0  0  0  0
  -23.5290  -32.0590   23.7390 O   0  0  0  0  0  0  0  0  0  0  0  0
  -22.8190  -29.3750   22.4500 C   0  0  0  0  0  0  0  0  0  0  0  0
  -21.4950  -29.1940   22.3150 N   0  0  0  0  0  0  0  0  0  0  0  0
  -23.5020  -28.7280   23.2480 O   0  0  0  0  0  0  0  0  0  0  0  0
  -21.0030  -29.7670   21.6430 H   0  0  0  0  0  0  0  0  0  0  0  0
  -18.1190  -28.0040   22.7980 C   0  0  0  0  0  0  0  0  0  0  0  0
  -20.6800  -28.2330   23.0570 C   0  0  0  0  0  3  0  0  0  0  0  0
  -20.7670  -26.8240   22.4260 C   0  0  0  0  0  2  0  0  0  0  0  0
  -19.6570  -26.5530   21.4050 C   0  0  0  0  0  2  0  0  0  0  0  0
  -18.2780  -26.6850   22.0620 C   0  0  0  0  0  2  0  0  0  0  0  0
  -19.2460  -28.7390   23.2490 C   0  0  0  0  0  0  0  0  0  0  0  0
  -19.0420  -29.9790   23.8940 C   0  0  0  0  0  3  0  0  0  0  0  0
  -17.7440  -30.4820   24.0910 C   0  0  0  0  0  3  0  0  0  0  0  0
  -16.6300  -29.7420   23.6590 C   0  0  0  0  0  3  0  0  0  0  0  0
  -16.8180  -28.5040   23.0180 C   0  0  0  0  0  3  0  0  0  0  0  0
  -25.8900  -32.4560   23.8630 C   0  0  0  0  0  3  0  0  0  0  0  0
  -25.5650  -33.8520   24.1800 N   0  0  0  0  0  0  0  0  0  0  0  0
  -25.9280  -34.9060   23.4360 C   0  0  0  0  0  0  0  0  0  0  0  0
  -26.6420  -34.8040   22.4350 O   0  0  0  0  0  0  0  0  0  0  0  0
  -24.9380  -34.0050   24.9580 H   0  0  0  0  0  0  0  0  0  0  0  0
  -24.2100  -36.6910   23.0080 C   0  0  0  0  0  1  0  0  0  0  0  0
  -25.4170  -36.2930   23.8710 C   0  0  0  0  0  3  0  0  0  0  0  0
  -27.5070  -37.1910   24.7950 C   0  0  0  0  0  1  0  0  0  0  0  0
  -26.4510  -37.3480   23.7990 N   0  0  0  0  0  0  0  0  0  0  0  0
  -26.0360  -38.2680   23.9200 H   0  0  0  0  0  0  0  0  0  0  0  0
  -26.3820  -31.6880   25.1520 C   0  0  1  0  0  0  0  0  0  0  0  0
  -25.2610  -31.4300   26.1850 C   0  0  0  0  0  1  0  0  0  0  0  0
  -26.9930  -30.3190   24.7710 C   0  0  0  0  0  1  0  0  0  0  0  0
  -27.5050  -32.4930   25.8460 C   0  0  0  0  0  1  0  0  0  0  0  0
  -29.4780  -19.1170   20.8410 C   0  0  0  0  0  2  0  0  0  0  0  0
  -30.1320  -17.7410   20.4930 C   0  0  0  0  0  2  0  0  0  0  0  0
  -30.2350  -16.7630   21.6940 C   0  0  0  0  0  2  0  0  0  0  0  0
  -30.4380  -14.5300   20.5170 C   0  0  0  0  0  0  0  0  0  0  0  0
  -30.1610  -12.4130   19.2630 C   0  0  0  0  0  2  0  0  0  0  0  0
  -29.1890  -12.6320   18.0860 C   0  0  0  0  0  2  0  0  0  0  0  0
  -27.7290  -12.4360   18.5390 C   0  0  0  0  0  2  0  0  0  0  0  0
  -27.3980  -13.2200   19.8360 C   0  0  0  0  0  3  0  0  0  0  0  0
  -28.4810  -12.9790   20.9120 C   0  0  0  0  0  2  0  0  0  0  0  0
  -29.7910  -13.3450   20.3390 N   0  0  0  0  0  0  0  0  0  0  0  0
  -31.4720  -14.8340   19.9120 O   0  0  0  0  0  0  0  0  0  0  0  0
  -29.8500  -15.3810   21.3710 N   0  0  0  0  0  0  0  0  0  0  0  0
  -29.0530  -15.0070   21.8660 H   0  0  0  0  0  0  0  0  0  0  0  0
  -24.9900  -13.7340   20.5850 C   0  0  0  0  0  0  0  0  0  0  0  0
  -23.9540  -12.9210   20.9570 C   0  0  0  0  0  0  0  0  0  0  0  0
  -24.4610  -11.5860   20.9020 C   0  0  0  0  0  0  0  0  0  0  0  0
  -26.0610  -12.8940   20.3280 N   0  0  0  0  0  0  0  0  0  0  0  0
  -25.7460  -11.5960   20.5720 N   0  0  0  0  0  0  0  0  0  0  0  0
  -23.7840  -10.2960   21.0870 C   0  0  0  0  0  0  0  0  0  0  0  0
  -24.2670   -9.3350   22.0030 C   0  0  0  0  0  3  0  0  0  0  0  0
  -23.5860   -8.1100   22.1790 C   0  0  0  0  0  3  0  0  0  0  0  0
  -22.4110   -7.8390   21.4390 C   0  0  0  0  0  0  0  0  0  0  0  0
  -21.9480   -8.7910   20.5140 C   0  0  0  0  0  3  0  0  0  0  0  0
  -22.6280  -10.0060   20.3370 C   0  0  0  0  0  3  0  0  0  0  0  0
  -21.7000   -6.6670   21.5230 O   0  0  0  0  0  0  0  0  0  0  0  0
  -21.6950   -5.9090   22.6670 C   0  0  0  0  0  0  0  0  0  0  0  0
  -21.2680   -6.4340   23.9060 C   0  0  0  0  0  3  0  0  0  0  0  0
  -21.2130   -5.6010   25.0420 C   0  0  0  0  0  3  0  0  0  0  0  0
  -21.5740   -4.2450   24.9380 C   0  0  0  0  0  0  0  0  0  0  0  0
  -21.9940   -3.7190   23.7030 C   0  0  0  0  0  3  0  0  0  0  0  0
  -22.0510   -4.5500   22.5700 C   0  0  0  0  0  0  0  0  0  0  0  0
  -22.4350   -4.0340   21.3770 F   0  0  0  0  0  0  0  0  0  0  0  0
  -21.5130   -3.4410   26.0250 F   0  0  0  0  0  0  0  0  0  0  0  0
  -22.5460  -13.3460   21.2620 C   0  0  0  0  0  0  0  0  0  0  0  0
  -21.8640  -12.6130   22.1340 N   0  0  0  0  0  0  0  0  0  0  0  0
  -22.0610  -14.3610   20.7640 O   0  0  0  0  0  0  0  0  0  0  0  0
  -22.2680  -11.7840   22.5440 H   0  0  0  0  0  0  0  0  0  0  0  0
  -20.9200  -12.8730   22.3830 H   0  0  0  0  0  0  0  0  0  0  0  0
  -25.1060  -15.1110   20.4270 N   0  0  0  0  0  0  0  0  0  0  0  0
  -24.3190  -15.7380   20.5570 H   0  0  0  0  0  0  0  0  0  0  0  0
  -25.9470  -15.5890   20.1300 H   0  0  0  0  0  0  0  0  0  0  0  0
  1  8  1  0
  1 53  1  0
  2  4  1  0
  3  2  1  0
  3  5  1  0
  4  6  1  0
  5  7  1  0
  7  6  1  0
  7  1  1  0
  9 10  1  0
  9  8  2  0
 11 12  1  0
 11 10  1  0
 13 24  2  0
 14 12  1  0
 14 19  1  0
 15 23  1  0
 15 25  1  0
 16 22  1  0
 16 18  1  0
 17 23  1  0
 18 19  2  0
 18 17  1  0
 20 21  1  0
 20 14  2  0
 21 16  2  0
 22 15  1  0
 23 13  1  0
 25 27  2  0
 26 25  1  0
 28 26  1  0
 29 38  2  0
 29 34  1  0
 30 26  1  0
 30 34  1  0
 31 30  1  0
 32 33  1  0
 32 31  1  0
 33 29  1  0
 34 35  2  0
 35 36  1  0
 37 36  2  0
 38 37  1  0
 39 13  1  0
 39 40  1  0
 39 49  1  0
 40 43  1  0
 41 45  1  0
 41 40  1  0
 42 41  2  0
 45 44  1  0
 47 45  1  0
 47 48  1  0
 47 46  1  0
 49 52  1  1
 49 50  1  0
 51 49  1  0
 54 53  1  0
 54 55  1  0
 56 64  1  0
 57 62  1  0
 58 59  1  0
 58 57  1  0
 60 59  1  0
 60 69  1  0
 60 61  1  0
 62 56  1  0
 62 61  1  0
 63 56  2  0
 64 55  1  0
 64 65  1  0
 66 67  2  0
 67 86  1  0
 68 67  1  0
 68 71  1  0
 69 70  1  0
 69 66  1  0
 70 68  2  0
 71 72  1  0
 72 73  2  0
 74 77  1  0
 74 73  1  0
 75 74  2  0
 76 75  1  0
 76 71  2  0
 77 78  1  0
 78 79  1  0
 79 80  2  0
 81 80  1  0
 81 85  1  0
 82 81  2  0
 83 78  2  0
 83 82  1  0
 84 83  1  0
 86 87  1  0
 87 90  1  0
 87 89  1  0
 88 86  2  0
 91 92  1  0
 91 66  1  0
 93 91  1  0
M  ISO  4  11 101  12 101  56 100  64 100
M  END
>  <TORSDO>  (98) 
F 24

>  <SCORE>  (98) 
-12.174

>  <name>  (98) 
98

>  <ligand_id>  (98) 
98

>  <original_smiles>  (98) 
[H]c1c([H])c([H])c2c(c1[H])C([H])([H])C([H])([H])C([H])([H])C2([H])N([H])C(=O)C1([H])N(C(=O)C([H])(N([H])C(=O)C([H])(N([H])C([H])([H])[H])C([H])([H])[H])C(C([H])([H])[H])(C([H])([H])[H])C([H])([H])[H])C([H])([H])c2c([H])c(OC([H])([H])C([H])([H])C([H])([H])C([H])([H])C([H])(C([H])([H])C([H])([H])C([H])([H])N([H])C(=O)N3C([H])([H])C([H])([H])C([H])([H])C([H])(n4nc(-c5c([H])c([H])c(Oc6c([H])c([H])c(F)c([H])c6F)c([H])c5[H])c(C(=O)N([H])[H])c4N([H])[H])C3([H])[H])C3([H])C([H])([H])C([H])([H])C([H])([H])C([H])([H])C3([H])[H])c([H])c([H])c2C1([H])[H]

>  <smiles>  (98) 
[H]c1c([H])c([H])c2c(c1[H])C([H])([H])C([H])([H])C([H])([H])C2([H])N([H])C(=O)C1([H])N(C(=O)C([H])(N([H])C(=O)C([H])(N([H])C([H])([H])[H])C([H])([H])[H])C(C([H])([H])[H])(C([H])([H])[H])C([H])([H])[H])C([H])([H])c2c([H])c(OC([H])([H])C([H])([H])C([H])([H])C([H])([H])C([H])(C([H])([H])C([H])([H])C([H])([H])N([H])C(=O)N3C([H])([H])C([H])([H])C([H])([H])C([H])(n4nc(-c5c([H])c([H])c(Oc6c([H])c([H])c(F)c([H])c6F)c([H])c5[H])c(C(=O)N([H])[H])c4N([H])[H])C3([H])[H])C3([H])C([H])([H])C([H])([H])C([H])([H])C([H])([H])C3([H])[H])c([H])c([H])c2C1([H])[H]

$$$$
99:0:0
     RDKit          3D

 98106  0  0  1  0  0  0  0  0999 V2000
  -31.8440  -19.9570   21.9600 C   0  0  0  0  0  2  0  0  0  0  0  0
  -31.6450  -20.5240   20.5510 C   0  0  0  0  0  2  0  0  0  0  0  0
  -30.8410  -18.8000   22.1220 C   0  0  0  0  0  2  0  0  0  0  0  0
  -30.1790  -20.2350   20.2040 C   0  0  0  0  0  3  0  0  0  0  0  0
  -29.9860  -18.7490   20.8400 C   0  0  0  0  0  3  0  0  0  0  0  0
  -29.2720  -21.4560   20.7000 C   0  0  0  0  0  0  0  0  0  0  0  0
  -29.4080  -22.7220   20.1660 N   0  0  0  0  0  0  0  0  0  0  0  0
  -28.4410  -21.2530   21.5850 O   0  0  0  0  0  0  0  0  0  0  0  0
  -30.0980  -22.8200   19.4320 H   0  0  0  0  0  0  0  0  0  0  0  0
  -28.7630  -24.0230   20.6240 C   0  0  0  0  0  2  0  0  0  0  0  0
  -28.7970  -25.2890   19.6310 C   0  0  0  0  0  2  0  0  0  0  0  0
  -28.6400  -26.6830   20.1350 O   0  0  0  0  0  0  0  0  0  0  0  0
  -24.6240  -31.8310   23.1770 C   0  0  0  0  0  0  0  0  0  0  0  0
  -27.4580  -27.4440   20.0580 C   0  0  0  0  0  0  0  0  0  0  0  0
  -23.4930  -30.4260   21.4880 C   0  0  0  0  0  3  0  0  0  0  0  0
  -25.0190  -28.9630   20.0440 C   0  0  0  0  0  0  0  0  0  0  0  0
  -26.0190  -30.8490   21.3380 C   0  0  0  0  0  2  0  0  0  0  0  0
  -26.1600  -29.4890   20.6640 C   0  0  0  0  0  0  0  0  0  0  0  0
  -27.3700  -28.7410   20.6610 C   0  0  0  0  0  3  0  0  0  0  0  0
  -26.2890  -26.9680   19.4210 C   0  0  0  0  0  3  0  0  0  0  0  0
  -25.0890  -27.7090   19.4180 C   0  0  0  0  0  3  0  0  0  0  0  0
  -23.7480  -29.7850   20.0950 C   0  0  0  0  0  2  0  0  0  0  0  0
  -24.7300  -31.0530   22.0600 N   0  0  0  0  0  0  0  0  0  0  0  0
  -23.5230  -32.0510   23.7060 O   0  0  0  0  0  0  0  0  0  0  0  0
  -22.8630  -29.3630   22.4190 C   0  0  0  0  0  0  0  0  0  0  0  0
  -21.5460  -29.1310   22.2720 N   0  0  0  0  0  0  0  0  0  0  0  0
  -23.5600  -28.7500   23.2310 O   0  0  0  0  0  0  0  0  0  0  0  0
  -21.0380  -29.6780   21.5910 H   0  0  0  0  0  0  0  0  0  0  0  0
  -18.2220  -27.7840   22.6990 C   0  0  0  0  0  0  0  0  0  0  0  0
  -20.7620  -28.1400   23.0110 C   0  0  0  0  0  3  0  0  0  0  0  0
  -20.9320  -26.7270   22.4050 C   0  0  0  0  0  2  0  0  0  0  0  0
  -19.8590  -26.3820   21.3700 C   0  0  0  0  0  2  0  0  0  0  0  0
  -18.4640  -26.4590   21.9950 C   0  0  0  0  0  2  0  0  0  0  0  0
  -19.3020  -28.5810   23.1610 C   0  0  0  0  0  0  0  0  0  0  0  0
  -19.0240  -29.8210   23.7750 C   0  0  0  0  0  3  0  0  0  0  0  0
  -17.6980  -30.2640   23.9380 C   0  0  0  0  0  3  0  0  0  0  0  0
  -16.6320  -29.4630   23.4920 C   0  0  0  0  0  3  0  0  0  0  0  0
  -16.8940  -28.2260   22.8770 C   0  0  0  0  0  3  0  0  0  0  0  0
  -25.8750  -32.5020   23.8230 C   0  0  0  0  0  3  0  0  0  0  0  0
  -26.3800  -31.7490   25.1170 C   0  0  1  0  0  0  0  0  0  0  0  0
  -25.2590  -31.4580   26.1410 C   0  0  0  0  0  1  0  0  0  0  0  0
  -27.0440  -30.4030   24.7390 C   0  0  0  0  0  1  0  0  0  0  0  0
  -27.4610  -32.5960   25.8270 C   0  0  0  0  0  1  0  0  0  0  0  0
  -25.5200  -33.8930   24.1440 N   0  0  0  0  0  0  0  0  0  0  0  0
  -25.8440  -34.9530   23.3950 C   0  0  0  0  0  0  0  0  0  0  0  0
  -26.5460  -34.8700   22.3830 O   0  0  0  0  0  0  0  0  0  0  0  0
  -24.9020  -34.0330   24.9310 H   0  0  0  0  0  0  0  0  0  0  0  0
  -24.0890  -36.7050   22.9900 C   0  0  0  0  0  1  0  0  0  0  0  0
  -25.3100  -36.3260   23.8430 C   0  0  0  0  0  3  0  0  0  0  0  0
  -27.3920  -37.2620   24.7480 C   0  0  0  0  0  1  0  0  0  0  0  0
  -26.3170  -37.4050   23.7690 N   0  0  0  0  0  0  0  0  0  0  0  0
  -25.8810  -38.3110   23.9080 H   0  0  0  0  0  0  0  0  0  0  0  0
  -30.4080  -17.4550   19.9610 C   0  0  0  0  0  3  0  0  0  0  0  0
  -31.1040  -14.9400   20.2980 C   0  0  0  0  0  0  0  0  0  0  0  0
  -30.8580  -12.6910   19.2470 C   0  0  0  0  0  2  0  0  0  0  0  0
  -29.9270  -12.8230   18.0210 C   0  0  0  0  0  2  0  0  0  0  0  0
  -28.4460  -12.7070   18.4350 C   0  0  0  0  0  2  0  0  0  0  0  0
  -28.0990  -13.5630   19.6840 C   0  0  0  0  0  3  0  0  0  0  0  0
  -29.1500  -13.4000   20.8050 C   0  0  0  0  0  2  0  0  0  0  0  0
  -30.4640  -13.7240   20.2350 N   0  0  0  0  0  0  0  0  0  0  0  0
  -32.2670  -15.0540   19.9020 O   0  0  0  0  0  0  0  0  0  0  0  0
  -30.3350  -16.0550   20.5720 N   0  0  0  0  0  0  0  0  0  0  0  0
  -29.4460  -15.8340   20.9950 H   0  0  0  0  0  0  0  0  0  0  0  0
  -25.7150  -14.1930   20.3960 C   0  0  0  0  0  0  0  0  0  0  0  0
  -24.6340  -13.4350   20.7530 C   0  0  0  0  0  0  0  0  0  0  0  0
  -25.0740  -12.0770   20.7160 C   0  0  0  0  0  0  0  0  0  0  0  0
  -26.7460  -13.2960   20.1630 N   0  0  0  0  0  0  0  0  0  0  0  0
  -26.3650  -12.0180   20.4180 N   0  0  0  0  0  0  0  0  0  0  0  0
  -24.3250  -10.8260   20.8920 C   0  0  0  0  0  0  0  0  0  0  0  0
  -24.6850   -9.8860   21.8820 C   0  0  0  0  0  3  0  0  0  0  0  0
  -23.9370   -8.7000   22.0460 C   0  0  0  0  0  3  0  0  0  0  0  0
  -22.8160   -8.4470   21.2190 C   0  0  0  0  0  0  0  0  0  0  0  0
  -22.4780   -9.3760   20.2210 C   0  0  0  0  0  3  0  0  0  0  0  0
  -23.2260  -10.5540   20.0560 C   0  0  0  0  0  3  0  0  0  0  0  0
  -22.0490   -7.3110   21.2860 O   0  0  0  0  0  0  0  0  0  0  0  0
  -21.8380   -6.6510   22.4710 C   0  0  0  0  0  0  0  0  0  0  0  0
  -21.2680   -7.2970   23.5910 C   0  0  0  0  0  3  0  0  0  0  0  0
  -21.0080   -6.5640   24.7660 C   0  0  0  0  0  3  0  0  0  0  0  0
  -21.3060   -5.1890   24.8220 C   0  0  0  0  0  0  0  0  0  0  0  0
  -21.8700   -4.5470   23.7050 C   0  0  0  0  0  3  0  0  0  0  0  0
  -22.1310   -5.2750   22.5320 C   0  0  0  0  0  0  0  0  0  0  0  0
  -22.6540   -4.6440   21.4530 F   0  0  0  0  0  0  0  0  0  0  0  0
  -21.0500   -4.4860   25.9480 F   0  0  0  0  0  0  0  0  0  0  0  0
  -23.2440  -13.9360   21.0190 C   0  0  0  0  0  0  0  0  0  0  0  0
  -22.5130  -13.2640   21.9010 N   0  0  0  0  0  0  0  0  0  0  0  0
  -22.8170  -14.9570   20.4820 O   0  0  0  0  0  0  0  0  0  0  0  0
  -22.8730  -12.4390   22.3570 H   0  0  0  0  0  0  0  0  0  0  0  0
  -21.5810  -13.5820   22.1280 H   0  0  0  0  0  0  0  0  0  0  0  0
  -25.8990  -15.5630   20.2320 N   0  0  0  0  0  0  0  0  0  0  0  0
  -25.1320  -16.2160   20.3550 H   0  0  0  0  0  0  0  0  0  0  0  0
  -26.7550  -16.0080   19.9310 H   0  0  0  0  0  0  0  0  0  0  0  0
  -29.5480  -17.4180   18.6740 C   0  0  0  0  0  2  0  0  0  0  0  0
  -30.3530  -17.4310   17.3600 C   0  0  0  0  0  2  0  0  0  0  0  0
  -30.3340  -18.7890   16.6290 C   0  0  0  0  0  2  0  0  0  0  0  0
  -28.9630  -19.2650   16.3640 N   0  0  0  0  0  4  0  0  0  0  0  0
  -28.4320  -18.5710   15.8680 H   0  0  0  0  0  0  0  0  0  0  0  0
  -29.0000  -20.0940   15.7970 H   0  0  0  0  0  0  0  0  0  0  0  0
  -28.4830  -19.4930   17.2160 H   0  0  0  0  0  0  0  0  0  0  0  0
  1  3  1  0
  2  1  1  0
  4  2  1  0
  4  6  1  0
  4  5  1  0
  5 53  1  0
  5  3  1  0
  6  8  2  0
  7 10  1  0
  7  6  1  0
  9  7  1  0
 11 12  1  0
 11 10  1  0
 13 24  2  0
 14 12  1  0
 14 19  1  0
 15 23  1  0
 15 25  1  0
 16 22  1  0
 16 18  1  0
 17 23  1  0
 18 17  1  0
 19 18  2  0
 20 14  2  0
 21 20  1  0
 21 16  2  0
 22 15  1  0
 23 13  1  0
 25 27  2  0
 26 25  1  0
 28 26  1  0
 29 38  2  0
 29 34  1  0
 30 26  1  0
 30 34  1  0
 31 30  1  0
 32 33  1  0
 32 31  1  0
 33 29  1  0
 34 35  2  0
 35 36  1  0
 37 36  2  0
 38 37  1  0
 39 13  1  0
 39 44  1  0
 39 40  1  0
 40 43  1  1
 40 41  1  0
 42 40  1  0
 44 47  1  0
 45 49  1  0
 45 44  1  0
 46 45  2  0
 49 48  1  0
 51 49  1  0
 51 52  1  0
 51 50  1  0
 53 92  1  0
 53 62  1  0
 54 62  1  0
 55 60  1  0
 56 57  1  0
 56 55  1  0
 58 57  1  0
 58 67  1  0
 58 59  1  0
 60 54  1  0
 60 59  1  0
 61 54  2  0
 62 63  1  0
 64 65  2  0
 65 84  1  0
 66 65  1  0
 66 69  1  0
 67 64  1  0
 67 68  1  0
 68 66  2  0
 69 70  1  0
 70 71  2  0
 72 75  1  0
 72 71  1  0
 73 72  2  0
 74 73  1  0
 74 69  2  0
 75 76  1  0
 76 81  2  0
 76 77  1  0
 77 78  2  0
 78 79  1  0
 79 83  1  0
 80 79  2  0
 81 80  1  0
 82 81  1  0
 84 85  1  0
 85 88  1  0
 85 87  1  0
 86 84  2  0
 89 90  1  0
 89 64  1  0
 91 89  1  0
 93 92  1  0
 94 93  1  0
 95 94  1  0
 95 98  1  0
 96 95  1  0
 97 95  1  0
M  ISO  4  11 101  12 101  54 100  62 100
M  END
>  <TORSDO>  (99) 
F 24

>  <SCORE>  (99) 
-12.061

>  <name>  (99) 
99

>  <ligand_id>  (99) 
99

>  <original_smiles>  (99) 
[H]c1c([H])c([H])c2c(c1[H])C([H])([H])C([H])([H])C([H])([H])C2([H])N([H])C(=O)C1([H])N(C(=O)C([H])(N([H])C(=O)C([H])(N([H])C([H])([H])[H])C([H])([H])[H])C(C([H])([H])[H])(C([H])([H])[H])C([H])([H])[H])C([H])([H])c2c([H])c(OC([H])([H])C([H])([H])N([H])C(=O)C3([H])C([H])([H])C([H])([H])C([H])([H])C3([H])C([H])(N([H])C(=O)N3C([H])([H])C([H])([H])C([H])([H])C([H])(n4nc(-c5c([H])c([H])c(Oc6c([H])c([H])c(F)c([H])c6F)c([H])c5[H])c(C(=O)N([H])[H])c4N([H])[H])C3([H])[H])C([H])([H])C([H])([H])C([H])([H])[N+]([H])([H])[H])c([H])c([H])c2C1([H])[H]

>  <smiles>  (99) 
[H]c1c([H])c([H])c2c(c1[H])C([H])([H])C([H])([H])C([H])([H])C2([H])N([H])C(=O)C1([H])N(C(=O)C([H])(N([H])C(=O)C([H])(N([H])C([H])([H])[H])C([H])([H])[H])C(C([H])([H])[H])(C([H])([H])[H])C([H])([H])[H])C([H])([H])c2c([H])c(OC([H])([H])C([H])([H])N([H])C(=O)C3([H])C([H])([H])C([H])([H])C([H])([H])C3([H])C([H])(N([H])C(=O)N3C([H])([H])C([H])([H])C([H])([H])C([H])(n4nc(-c5c([H])c([H])c(Oc6c([H])c([H])c(F)c([H])c6F)c([H])c5[H])c(C(=O)N([H])[H])c4N([H])[H])C3([H])[H])C([H])([H])C([H])([H])C([H])([H])[N+]([H])([H])[H])c([H])c([H])c2C1([H])[H]

$$$$
