0:0:0
     RDKit          3D

100108  0  0  1  0  0  0  0  0999 V2000
  -31.3560  -23.6770   18.8990 C   0  0  0  0  0  3  0  0  0  0  0  0
  -33.7960  -24.3120   18.5140 C   0  0  0  0  0  1  0  0  0  0  0  0
  -31.9970  -25.5650   17.2610 C   0  0  0  0  0  1  0  0  0  0  0  0
  -32.3420  -25.9130   19.7090 C   0  0  0  0  0  1  0  0  0  0  0  0
  -32.3500  -24.8480   18.5860 C   0  0  1  0  0  0  0  0  0  0  0  0
  -29.9990  -24.2320   19.1080 N   0  0  0  0  0  4  0  0  0  0  0  0
  -29.9720  -25.1370   18.6610 H   0  0  0  0  0  0  0  0  0  0  0  0
  -29.3400  -23.6390   18.6280 H   0  0  0  0  0  0  0  0  0  0  0  0
  -29.5430  -24.4070   20.5080 C   0  0  0  0  0  2  0  0  0  0  0  0
  -28.2230  -25.1890   20.5410 C   0  0  0  0  0  2  0  0  0  0  0  0
  -28.4360  -26.5720   20.2040 O   0  0  0  0  0  0  0  0  0  0  0  0
  -24.6090  -31.7860   23.1810 C   0  0  0  0  0  0  0  0  0  0  0  0
  -27.2860  -27.3350   20.1500 C   0  0  0  0  0  0  0  0  0  0  0  0
  -23.4300  -30.3950   21.5090 C   0  0  0  0  0  3  0  0  0  0  0  0
  -24.9080  -28.8630   20.1020 C   0  0  0  0  0  0  0  0  0  0  0  0
  -25.9650  -30.7410   21.3700 C   0  0  0  0  0  2  0  0  0  0  0  0
  -26.0570  -29.3740   20.7220 C   0  0  0  0  0  0  0  0  0  0  0  0
  -27.2500  -28.6180   20.7420 C   0  0  0  0  0  3  0  0  0  0  0  0
  -26.1270  -26.8490   19.5060 C   0  0  0  0  0  3  0  0  0  0  0  0
  -24.9410  -27.6000   19.4880 C   0  0  0  0  0  3  0  0  0  0  0  0
  -23.6680  -29.7210   20.1290 C   0  0  0  0  0  2  0  0  0  0  0  0
  -24.6850  -30.9880   22.0760 N   0  0  0  0  0  0  0  0  0  0  0  0
  -23.5190  -32.0600   23.6980 O   0  0  0  0  0  0  0  0  0  0  0  0
  -22.7570  -29.3710   22.4510 C   0  0  0  0  0  0  0  0  0  0  0  0
  -21.4280  -29.2270   22.3250 N   0  0  0  0  0  0  0  0  0  0  0  0
  -23.4280  -28.7120   23.2490 O   0  0  0  0  0  0  0  0  0  0  0  0
  -20.9490  -29.8100   21.6530 H   0  0  0  0  0  0  0  0  0  0  0  0
  -18.0190  -28.1470   22.8440 C   0  0  0  0  0  0  0  0  0  0  0  0
  -20.5890  -28.2940   23.0780 C   0  0  0  0  0  3  0  0  0  0  0  0
  -20.6250  -26.8800   22.4500 C   0  0  0  0  0  2  0  0  0  0  0  0
  -19.4920  -26.6370   21.4470 C   0  0  0  0  0  2  0  0  0  0  0  0
  -18.1280  -26.8150   22.1210 C   0  0  0  0  0  2  0  0  0  0  0  0
  -19.1740  -28.8470   23.2790 C   0  0  0  0  0  0  0  0  0  0  0  0
  -19.0170  -30.0990   23.9160 C   0  0  0  0  0  3  0  0  0  0  0  0
  -17.7360  -30.6470   24.1190 C   0  0  0  0  0  3  0  0  0  0  0  0
  -16.5960  -29.9410   23.7010 C   0  0  0  0  0  3  0  0  0  0  0  0
  -16.7370  -28.6920   23.0700 C   0  0  0  0  0  3  0  0  0  0  0  0
  -25.8850  -32.4080   23.8280 C   0  0  0  0  0  3  0  0  0  0  0  0
  -26.3820  -31.6250   25.1050 C   0  0  1  0  0  0  0  0  0  0  0  0
  -25.2720  -31.3770   26.1530 C   0  0  0  0  0  1  0  0  0  0  0  0
  -26.9710  -30.2510   24.7090 C   0  0  0  0  0  1  0  0  0  0  0  0
  -27.5220  -32.4140   25.7910 C   0  0  0  0  0  1  0  0  0  0  0  0
  -25.5750  -33.8040   24.1640 N   0  0  0  0  0  0  0  0  0  0  0  0
  -25.9120  -34.8600   23.4100 C   0  0  0  0  0  0  0  0  0  0  0  0
  -26.5850  -34.7590   22.3800 O   0  0  0  0  0  0  0  0  0  0  0  0
  -24.9860  -33.9560   24.9680 H   0  0  0  0  0  0  0  0  0  0  0  0
  -24.1870  -36.6510   23.0460 C   0  0  0  0  0  1  0  0  0  0  0  0
  -25.4200  -36.2450   23.8680 C   0  0  0  0  0  3  0  0  0  0  0  0
  -27.5450  -37.1270   24.7270 C   0  0  0  0  0  1  0  0  0  0  0  0
  -26.4530  -37.2980   23.7710 N   0  0  0  0  0  0  0  0  0  0  0  0
  -26.0460  -38.2190   23.9160 H   0  0  0  0  0  0  0  0  0  0  0  0
  -31.2880  -22.5840   17.7840 C   0  0  0  0  0  2  0  0  0  0  0  0
  -31.3420  -21.1040   18.2480 C   0  0  0  0  0  2  0  0  0  0  0  0
  -32.7790  -20.5400   18.3950 C   0  0  0  0  0  2  0  0  0  0  0  0
  -32.9200  -19.0020   18.2490 C   0  0  0  0  0  2  0  0  0  0  0  0
  -31.0480  -17.5090   19.0160 C   0  0  0  0  0  0  0  0  0  0  0  0
  -32.1490  -18.2420   19.2320 N   0  0  0  0  0  0  0  0  0  0  0  0
  -30.5710  -17.3390   17.8930 O   0  0  0  0  0  0  0  0  0  0  0  0
  -32.4870  -18.2460   20.1860 H   0  0  0  0  0  0  0  0  0  0  0  0
  -31.3120  -14.5670   19.8530 C   0  0  0  0  0  0  0  0  0  0  0  0
  -30.8260  -12.4670   18.6430 C   0  0  0  0  0  2  0  0  0  0  0  0
  -29.8030  -12.7330   17.5200 C   0  0  0  0  0  2  0  0  0  0  0  0
  -28.3550  -12.6710   18.0530 C   0  0  0  0  0  2  0  0  0  0  0  0
  -28.1500  -13.4610   19.3740 C   0  0  0  0  0  3  0  0  0  0  0  0
  -29.2790  -13.1430   20.3760 C   0  0  0  0  0  2  0  0  0  0  0  0
  -30.5740  -13.4280   19.7290 N   0  0  0  0  0  0  0  0  0  0  0  0
  -32.3360  -14.7720   19.1990 O   0  0  0  0  0  0  0  0  0  0  0  0
  -30.4830  -16.7810   22.6730 C   0  0  0  0  0  2  0  0  0  0  0  0
  -30.4320  -17.7620   21.5130 C   0  0  0  0  0  2  0  0  0  0  0  0
  -31.0620  -15.4850   22.0990 C   0  0  0  0  0  2  0  0  0  0  0  0
  -30.3670  -16.8770   20.2540 C   0  0  0  0  0  3  0  0  0  0  0  0
  -30.8060  -15.5220   20.6600 N   0  0  0  0  0  0  0  0  0  0  0  0
  -25.8490  -14.1340   20.3200 C   0  0  0  0  0  0  0  0  0  0  0  0
  -24.7770  -13.3920   20.7440 C   0  0  0  0  0  0  0  0  0  0  0  0
  -25.1660  -12.0250   20.6000 C   0  0  0  0  0  0  0  0  0  0  0  0
  -26.8250  -13.2200   19.9490 N   0  0  0  0  0  0  0  0  0  0  0  0
  -26.4210  -11.9430   20.1730 N   0  0  0  0  0  0  0  0  0  0  0  0
  -24.3920  -10.7900   20.7890 C   0  0  0  0  0  0  0  0  0  0  0  0
  -24.7930   -9.8080   21.7220 C   0  0  0  0  0  3  0  0  0  0  0  0
  -24.0290   -8.6330   21.8990 C   0  0  0  0  0  3  0  0  0  0  0  0
  -22.8490   -8.4330   21.1430 C   0  0  0  0  0  0  0  0  0  0  0  0
  -22.4660   -9.4010   20.1990 C   0  0  0  0  0  3  0  0  0  0  0  0
  -23.2300  -10.5690   20.0190 C   0  0  0  0  0  3  0  0  0  0  0  0
  -22.0600   -7.3100   21.2270 O   0  0  0  0  0  0  0  0  0  0  0  0
  -21.8990   -6.6290   22.4070 C   0  0  0  0  0  0  0  0  0  0  0  0
  -21.4110   -7.2600   23.5720 C   0  0  0  0  0  3  0  0  0  0  0  0
  -21.1960   -6.5050   24.7420 C   0  0  0  0  0  3  0  0  0  0  0  0
  -21.4540   -5.1200   24.7470 C   0  0  0  0  0  0  0  0  0  0  0  0
  -21.9340   -4.4900   23.5840 C   0  0  0  0  0  3  0  0  0  0  0  0
  -22.1540   -5.2420   22.4160 C   0  0  0  0  0  0  0  0  0  0  0  0
  -22.5930   -4.6260   21.2920 F   0  0  0  0  0  0  0  0  0  0  0  0
  -21.2470   -4.3920   25.8670 F   0  0  0  0  0  0  0  0  0  0  0  0
  -23.4350  -13.9170   21.1660 C   0  0  0  0  0  0  0  0  0  0  0  0
  -22.7580  -13.2300   22.0770 N   0  0  0  0  0  0  0  0  0  0  0  0
  -22.9950  -14.9730   20.7130 O   0  0  0  0  0  0  0  0  0  0  0  0
  -23.1240  -12.3750   22.4690 H   0  0  0  0  0  0  0  0  0  0  0  0
  -21.8550  -13.5640   22.3820 H   0  0  0  0  0  0  0  0  0  0  0  0
  -26.0760  -15.5040   20.2070 N   0  0  0  0  0  0  0  0  0  0  0  0
  -25.3620  -16.1930   20.4140 H   0  0  0  0  0  0  0  0  0  0  0  0
  -26.9300  -15.9160   19.8490 H   0  0  0  0  0  0  0  0  0  0  0  0
  1 52  1  0
  1  6  1  0
  5  2  1  6
  3  5  1  0
  5  1  1  0
  5  4  1  0
  6  9  1  0
  7  6  1  0
  8  6  1  0
  9 10  1  0
 11 10  1  0
 12 23  2  0
 13 11  1  0
 13 18  1  0
 14 22  1  0
 14 24  1  0
 15 21  1  0
 15 17  1  0
 16 22  1  0
 17 18  2  0
 17 16  1  0
 19 13  2  0
 20 19  1  0
 20 15  2  0
 21 14  1  0
 22 12  1  0
 24 26  2  0
 25 24  1  0
 27 25  1  0
 28 37  2  0
 28 33  1  0
 29 25  1  0
 29 33  1  0
 30 29  1  0
 31 32  1  0
 31 30  1  0
 32 28  1  0
 33 34  2  0
 34 35  1  0
 36 35  2  0
 37 36  1  0
 38 12  1  0
 38 43  1  0
 38 39  1  0
 39 42  1  1
 39 40  1  0
 41 39  1  0
 43 46  1  0
 44 48  1  0
 44 43  1  0
 45 44  2  0
 48 47  1  0
 50 48  1  0
 50 51  1  0
 50 49  1  0
 52 53  1  0
 53 54  1  0
 55 54  1  0
 55 57  1  0
 56 57  1  0
 57 59  1  0
 58 56  2  0
 60 72  1  0
 61 66  1  0
 62 63  1  0
 62 61  1  0
 64 63  1  0
 64 76  1  0
 64 65  1  0
 66 60  1  0
 66 65  1  0
 67 60  2  0
 69 68  1  0
 70 68  1  0
 71 56  1  0
 71 72  1  0
 71 69  1  0
 72 70  1  0
 73 74  2  0
 74 93  1  0
 75 74  1  0
 75 78  1  0
 76 77  1  0
 76 73  1  0
 77 75  2  0
 78 79  1  0
 79 80  2  0
 81 84  1  0
 81 80  1  0
 82 81  2  0
 83 82  1  0
 83 78  2  0
 84 85  1  0
 85 90  2  0
 85 86  1  0
 86 87  2  0
 87 88  1  0
 88 92  1  0
 89 88  2  0
 90 89  1  0
 91 90  1  0
 93 94  1  0
 94 97  1  0
 94 96  1  0
 95 93  2  0
 98 73  1  0
 98 99  1  0
100 98  1  0
M  ISO  4  10 101  11 101  60 100  72 100
M  END
>  <TORSDO>  (1) 
F 25

>  <SCORE>  (1) 
-11.139

>  <name>  (1) 
0

>  <ligand_id>  (1) 
0

>  <original_smiles>  (1) 
[H]c1c([H])c([H])c2c(c1[H])C([H])([H])C([H])([H])C([H])([H])C2([H])N([H])C(=O)C1([H])N(C(=O)C([H])(N([H])C(=O)C([H])(N([H])C([H])([H])[H])C([H])([H])[H])C(C([H])([H])[H])(C([H])([H])[H])C([H])([H])[H])C([H])([H])c2c([H])c(OC([H])([H])C([H])([H])[N+]([H])([H])C([H])(C([H])([H])C([H])([H])C([H])([H])C([H])([H])N([H])C(=O)C3([H])N(C(=O)N4C([H])([H])C([H])([H])C([H])([H])C([H])(n5nc(-c6c([H])c([H])c(Oc7c([H])c([H])c(F)c([H])c7F)c([H])c6[H])c(C(=O)N([H])[H])c5N([H])[H])C4([H])[H])C([H])([H])C([H])([H])C3([H])[H])C(C([H])([H])[H])(C([H])([H])[H])C([H])([H])[H])c([H])c([H])c2C1([H])[H]

>  <smiles>  (1) 
[H]c1c([H])c([H])c2c(c1[H])C([H])([H])C([H])([H])C([H])([H])C2([H])N([H])C(=O)C1([H])N(C(=O)C([H])(N([H])C(=O)C([H])(N([H])C([H])([H])[H])C([H])([H])[H])C(C([H])([H])[H])(C([H])([H])[H])C([H])([H])[H])C([H])([H])c2c([H])c(OC([H])([H])C([H])([H])[N+]([H])([H])C([H])(C([H])([H])C([H])([H])C([H])([H])C([H])([H])N([H])C(=O)C3([H])N(C(=O)N4C([H])([H])C([H])([H])C([H])([H])C([H])(n5nc(-c6c([H])c([H])c(Oc7c([H])c([H])c(F)c([H])c7F)c([H])c6[H])c(C(=O)N([H])[H])c5N([H])[H])C4([H])[H])C([H])([H])C([H])([H])C3([H])[H])C(C([H])([H])[H])(C([H])([H])[H])C([H])([H])[H])c([H])c([H])c2C1([H])[H]

$$$$
1:0:0
     RDKit          3D

 94102  0  0  1  0  0  0  0  0999 V2000
  -28.9730  -20.7190   20.2230 C   0  0  0  0  0  0  0  0  0  0  0  0
  -31.2440  -23.6490   19.4760 C   0  0  0  0  0  2  0  0  0  0  0  0
  -29.9910  -24.0820   18.7440 C   0  0  0  0  0  2  0  0  0  0  0  0
  -30.9650  -22.1820   19.8240 C   0  0  0  0  0  2  0  0  0  0  0  0
  -28.8630  -23.4640   19.5870 C   0  0  0  0  0  3  0  0  0  0  0  0
  -29.5050  -22.0310   19.9680 N   0  0  0  0  0  0  0  0  0  0  0  0
  -27.8600  -20.6990   20.7550 O   0  0  0  0  0  0  0  0  0  0  0  0
  -28.2910  -24.6960   20.6140 C   0  0  0  0  0  0  0  0  0  0  0  0
  -27.7510  -24.3860   21.6780 O   0  0  0  0  0  0  0  0  0  0  0  0
  -28.3390  -26.2020   20.1780 O   0  0  0  0  0  0  0  0  0  0  0  0
  -24.6060  -31.8990   23.2280 C   0  0  0  0  0  0  0  0  0  0  0  0
  -27.2660  -27.1720   20.2520 C   0  0  0  0  0  0  0  0  0  0  0  0
  -23.4410  -30.4870   21.5770 C   0  0  0  0  0  3  0  0  0  0  0  0
  -24.9210  -28.9100   20.1880 C   0  0  0  0  0  0  0  0  0  0  0  0
  -25.9960  -30.7640   21.4500 C   0  0  0  0  0  2  0  0  0  0  0  0
  -26.0910  -29.3640   20.8120 C   0  0  0  0  0  0  0  0  0  0  0  0
  -27.2650  -28.5120   20.8250 C   0  0  0  0  0  3  0  0  0  0  0  0
  -26.0620  -26.8190   19.6060 C   0  0  0  0  0  3  0  0  0  0  0  0
  -24.9190  -27.6480   19.5720 C   0  0  0  0  0  3  0  0  0  0  0  0
  -23.6890  -29.8030   20.2070 C   0  0  0  0  0  2  0  0  0  0  0  0
  -24.7010  -31.0730   22.1410 N   0  0  0  0  0  0  0  0  0  0  0  0
  -23.5100  -32.1770   23.7380 O   0  0  0  0  0  0  0  0  0  0  0  0
  -22.7530  -29.4820   22.5350 C   0  0  0  0  0  0  0  0  0  0  0  0
  -21.4250  -29.3140   22.4000 N   0  0  0  0  0  0  0  0  0  0  0  0
  -23.4180  -28.8520   23.3630 O   0  0  0  0  0  0  0  0  0  0  0  0
  -20.9440  -29.8720   21.7090 H   0  0  0  0  0  0  0  0  0  0  0  0
  -18.0360  -28.1330   22.8980 C   0  0  0  0  0  0  0  0  0  0  0  0
  -20.5970  -28.3770   23.1650 C   0  0  0  0  0  3  0  0  0  0  0  0
  -20.6890  -26.9480   22.5780 C   0  0  0  0  0  2  0  0  0  0  0  0
  -19.5830  -26.6420   21.5630 C   0  0  0  0  0  2  0  0  0  0  0  0
  -18.2030  -26.7890   22.2090 C   0  0  0  0  0  2  0  0  0  0  0  0
  -19.1600  -28.8850   23.3320 C   0  0  0  0  0  0  0  0  0  0  0  0
  -18.9470  -30.1440   23.9370 C   0  0  0  0  0  3  0  0  0  0  0  0
  -17.6460  -30.6490   24.1120 C   0  0  0  0  0  3  0  0  0  0  0  0
  -16.5370  -29.8940   23.6920 C   0  0  0  0  0  3  0  0  0  0  0  0
  -16.7330  -28.6380   23.0900 C   0  0  0  0  0  3  0  0  0  0  0  0
  -25.8690  -32.5460   23.8730 C   0  0  0  0  0  3  0  0  0  0  0  0
  -26.3550  -31.7930   25.1730 C   0  0  1  0  0  0  0  0  0  0  0  0
  -25.2390  -31.5710   26.2200 C   0  0  0  0  0  1  0  0  0  0  0  0
  -26.9500  -30.4110   24.8200 C   0  0  0  0  0  1  0  0  0  0  0  0
  -27.4870  -32.6000   25.8520 C   0  0  0  0  0  1  0  0  0  0  0  0
  -25.5450  -33.9470   24.1840 N   0  0  0  0  0  0  0  0  0  0  0  0
  -25.8920  -34.9980   23.4290 C   0  0  0  0  0  0  0  0  0  0  0  0
  -26.5850  -34.8900   22.4140 O   0  0  0  0  0  0  0  0  0  0  0  0
  -24.9310  -34.1030   24.9700 H   0  0  0  0  0  0  0  0  0  0  0  0
  -24.1800  -36.7980   23.0220 C   0  0  0  0  0  1  0  0  0  0  0  0
  -25.3960  -36.3910   23.8690 C   0  0  0  0  0  3  0  0  0  0  0  0
  -27.5040  -37.2800   24.7630 C   0  0  0  0  0  1  0  0  0  0  0  0
  -26.4350  -37.4410   23.7810 N   0  0  0  0  0  0  0  0  0  0  0  0
  -26.0260  -38.3630   23.9050 H   0  0  0  0  0  0  0  0  0  0  0  0
  -29.5260  -19.1890   19.7170 C   0  0  0  0  0  3  0  0  0  0  0  0
  -30.2530  -19.2550   18.4350 N   0  0  0  0  0  4  0  0  0  0  0  0
  -31.1720  -19.6420   18.5420 H   0  0  0  0  0  0  0  0  0  0  0  0
  -29.7390  -19.8140   17.7760 H   0  0  0  0  0  0  0  0  0  0  0  0
  -30.3410  -18.3340   18.0470 H   0  0  0  0  0  0  0  0  0  0  0  0
  -30.0740  -17.8390   20.6150 C   0  0  0  0  0  2  0  0  0  0  0  0
  -30.5620  -15.0790   20.2530 C   0  0  0  0  0  0  0  0  0  0  0  0
  -30.4420  -12.7180   19.3010 C   0  0  0  0  0  2  0  0  0  0  0  0
  -29.4930  -12.6470   18.0830 C   0  0  0  0  0  2  0  0  0  0  0  0
  -28.0410  -12.4070   18.5400 C   0  0  0  0  0  2  0  0  0  0  0  0
  -27.6320  -13.3370   19.7120 C   0  0  0  0  0  3  0  0  0  0  0  0
  -28.7050  -13.3840   20.8200 C   0  0  0  0  0  2  0  0  0  0  0  0
  -29.9570  -13.8180   20.1850 N   0  0  0  0  0  0  0  0  0  0  0  0
  -31.7770  -15.1250   20.0410 O   0  0  0  0  0  0  0  0  0  0  0  0
  -29.7880  -16.2830   20.3380 N   0  0  0  0  0  0  0  0  0  0  0  0
  -28.8030  -16.0700   20.3770 H   0  0  0  0  0  0  0  0  0  0  0  0
  -25.2560  -13.8890   20.4880 C   0  0  0  0  0  0  0  0  0  0  0  0
  -24.2020  -13.1050   20.8650 C   0  0  0  0  0  0  0  0  0  0  0  0
  -24.6780  -11.7590   20.8230 C   0  0  0  0  0  0  0  0  0  0  0  0
  -26.3050  -13.0220   20.2320 N   0  0  0  0  0  0  0  0  0  0  0  0
  -25.9680  -11.7350   20.5020 N   0  0  0  0  0  0  0  0  0  0  0  0
  -23.9620  -10.4880   21.0110 C   0  0  0  0  0  0  0  0  0  0  0  0
  -24.3970   -9.5260   21.9480 C   0  0  0  0  0  3  0  0  0  0  0  0
  -23.6800   -8.3240   22.1250 C   0  0  0  0  0  3  0  0  0  0  0  0
  -22.5140   -8.0730   21.3640 C   0  0  0  0  0  0  0  0  0  0  0  0
  -22.0970   -9.0250   20.4170 C   0  0  0  0  0  3  0  0  0  0  0  0
  -22.8140  -10.2200   20.2380 C   0  0  0  0  0  3  0  0  0  0  0  0
  -21.7670   -6.9250   21.4530 O   0  0  0  0  0  0  0  0  0  0  0  0
  -21.7090   -6.1890   22.6100 C   0  0  0  0  0  0  0  0  0  0  0  0
  -21.2390   -6.7430   23.8210 C   0  0  0  0  0  3  0  0  0  0  0  0
  -21.1300   -5.9340   24.9690 C   0  0  0  0  0  3  0  0  0  0  0  0
  -21.4800   -4.5720   24.9080 C   0  0  0  0  0  0  0  0  0  0  0  0
  -21.9440   -4.0170   23.7020 C   0  0  0  0  0  3  0  0  0  0  0  0
  -22.0540   -4.8240   22.5550 C   0  0  0  0  0  0  0  0  0  0  0  0
  -22.4820   -4.2800   21.3900 F   0  0  0  0  0  0  0  0  0  0  0  0
  -21.3670   -3.7920   26.0090 F   0  0  0  0  0  0  0  0  0  0  0  0
  -22.8030  -13.5710   21.1450 C   0  0  0  0  0  0  0  0  0  0  0  0
  -22.0800  -12.8640   22.0060 N   0  0  0  0  0  0  0  0  0  0  0  0
  -22.3580  -14.5980   20.6330 O   0  0  0  0  0  0  0  0  0  0  0  0
  -22.4520  -12.0370   22.4470 H   0  0  0  0  0  0  0  0  0  0  0  0
  -21.1400  -13.1600   22.2310 H   0  0  0  0  0  0  0  0  0  0  0  0
  -25.4030  -15.2630   20.3090 N   0  0  0  0  0  0  0  0  0  0  0  0
  -24.6190  -15.8990   20.3990 H   0  0  0  0  0  0  0  0  0  0  0  0
  -26.2210  -15.7000   19.9070 H   0  0  0  0  0  0  0  0  0  0  0  0
  1  7  2  0
  2  4  1  0
  3  2  1  0
  3  5  1  0
  4  6  1  0
  5  6  1  0
  5  8  1  0
  6  1  1  0
  8  9  2  0
 10 12  1  0
 10  8  1  0
 11 22  2  0
 12 17  1  0
 13 21  1  0
 13 23  1  0
 14 20  1  0
 14 16  1  0
 15 21  1  0
 16 17  2  0
 16 15  1  0
 18 12  2  0
 19 18  1  0
 19 14  2  0
 20 13  1  0
 21 11  1  0
 23 25  2  0
 24 23  1  0
 26 24  1  0
 27 36  2  0
 27 32  1  0
 28 24  1  0
 28 32  1  0
 29 28  1  0
 30 31  1  0
 30 29  1  0
 31 27  1  0
 32 33  2  0
 33 34  1  0
 35 34  2  0
 36 35  1  0
 37 11  1  0
 37 42  1  0
 37 38  1  0
 38 41  1  1
 38 39  1  0
 40 38  1  0
 42 45  1  0
 43 47  1  0
 43 42  1  0
 44 43  2  0
 47 46  1  0
 49 47  1  0
 49 50  1  0
 49 48  1  0
 51  1  1  0
 51 56  1  0
 52 53  1  0
 52 51  1  0
 54 52  1  0
 55 52  1  0
 57 65  1  0
 58 63  1  0
 59 60  1  0
 59 58  1  0
 61 60  1  0
 61 70  1  0
 61 62  1  0
 63 57  1  0
 63 62  1  0
 64 57  2  0
 65 66  1  0
 65 56  1  0
 67 68  2  0
 68 87  1  0
 69 68  1  0
 69 72  1  0
 70 67  1  0
 70 71  1  0
 71 69  2  0
 72 73  1  0
 73 74  2  0
 75 78  1  0
 75 74  1  0
 76 75  2  0
 77 76  1  0
 77 72  2  0
 78 79  1  0
 79 80  1  0
 80 81  2  0
 82 81  1  0
 82 86  1  0
 83 82  2  0
 84 79  2  0
 84 83  1  0
 85 84  1  0
 87 88  1  0
 88 91  1  0
 88 90  1  0
 89 87  2  0
 92 93  1  0
 92 67  1  0
 94 92  1  0
M  ISO  4   8 101  10 101  57 100  65 100
M  END
>  <TORSDO>  (2) 
F 20

>  <SCORE>  (2) 
-15.795

>  <name>  (2) 
1

>  <ligand_id>  (2) 
1

>  <original_smiles>  (2) 
[H]c1c([H])c([H])c2c(c1[H])C([H])([H])C([H])([H])C([H])([H])C2([H])N([H])C(=O)C1([H])N(C(=O)C([H])(N([H])C(=O)C([H])(N([H])C([H])([H])[H])C([H])([H])[H])C(C([H])([H])[H])(C([H])([H])[H])C([H])([H])[H])C([H])([H])c2c([H])c(OC(=O)C3([H])N(C(=O)C([H])(C([H])([H])N([H])C(=O)N4C([H])([H])C([H])([H])C([H])([H])C([H])(n5nc(-c6c([H])c([H])c(Oc7c([H])c([H])c(F)c([H])c7F)c([H])c6[H])c(C(=O)N([H])[H])c5N([H])[H])C4([H])[H])[N+]([H])([H])[H])C([H])([H])C([H])([H])C3([H])[H])c([H])c([H])c2C1([H])[H]

>  <smiles>  (2) 
[H]c1c([H])c([H])c2c(c1[H])C([H])([H])C([H])([H])C([H])([H])C2([H])N([H])C(=O)C1([H])N(C(=O)C([H])(N([H])C(=O)C([H])(N([H])C([H])([H])[H])C([H])([H])[H])C(C([H])([H])[H])(C([H])([H])[H])C([H])([H])[H])C([H])([H])c2c([H])c(OC(=O)C3([H])N(C(=O)C([H])(C([H])([H])N([H])C(=O)N4C([H])([H])C([H])([H])C([H])([H])C([H])(n5nc(-c6c([H])c([H])c(Oc7c([H])c([H])c(F)c([H])c7F)c([H])c6[H])c(C(=O)N([H])[H])c5N([H])[H])C4([H])[H])[N+]([H])([H])[H])C([H])([H])C([H])([H])C3([H])[H])c([H])c([H])c2C1([H])[H]

$$$$
2:0:0
     RDKit          3D

101108  0  0  1  0  0  0  0  0999 V2000
  -28.6440  -17.7780   19.5980 C   0  0  0  0  0  3  0  0  0  0  0  0
  -30.2060  -15.8330   19.6900 C   0  0  0  0  0  0  0  0  0  0  0  0
  -29.6080  -16.8900   20.2560 N   0  0  0  0  0  0  0  0  0  0  0  0
  -29.8440  -15.3840   18.6010 O   0  0  0  0  0  0  0  0  0  0  0  0
  -29.9680  -17.1930   21.1510 H   0  0  0  0  0  0  0  0  0  0  0  0
  -31.4820  -15.2820   20.3610 C   0  0  0  0  0  0  0  0  0  0  0  0
  -32.6690  -13.2610   19.0910 C   0  0  0  0  0  0  0  0  0  0  0  0
  -32.2370  -10.8540   18.8140 C   0  0  0  0  0  2  0  0  0  0  0  0
  -31.0730  -10.5810   17.8410 C   0  0  0  0  0  2  0  0  0  0  0  0
  -29.7410  -10.5410   18.6120 C   0  0  0  0  0  2  0  0  0  0  0  0
  -29.5620  -11.7850   19.5080 C   0  0  0  0  0  3  0  0  0  0  0  0
  -30.8180  -12.0540   20.3580 C   0  0  0  0  0  2  0  0  0  0  0  0
  -31.9890  -12.1470   19.4810 N   0  0  0  0  0  0  0  0  0  0  0  0
  -33.5930  -13.2000   18.2770 O   0  0  0  0  0  0  0  0  0  0  0  0
  -32.3000  -14.5090   19.4140 N   0  0  0  0  0  4  0  0  0  0  0  0
  -32.8000  -15.1440   18.8130 H   0  0  0  0  0  0  0  0  0  0  0  0
  -27.8200  -12.6200   21.2030 C   0  0  0  0  0  0  0  0  0  0  0  0
  -26.6670  -12.0650   21.6830 C   0  0  0  0  0  0  0  0  0  0  0  0
  -26.5650  -10.7870   21.0580 C   0  0  0  0  0  0  0  0  0  0  0  0
  -28.3690  -11.6860   20.3420 N   0  0  0  0  0  0  0  0  0  0  0  0
  -27.6310  -10.5500   20.3030 N   0  0  0  0  0  0  0  0  0  0  0  0
  -25.4850   -9.7980   21.0890 C   0  0  0  0  0  0  0  0  0  0  0  0
  -25.5660   -8.6440   21.8970 C   0  0  0  0  0  3  0  0  0  0  0  0
  -24.5070   -7.7140   21.9200 C   0  0  0  0  0  3  0  0  0  0  0  0
  -23.3520   -7.9350   21.1340 C   0  0  0  0  0  0  0  0  0  0  0  0
  -23.2860   -9.0740   20.3140 C   0  0  0  0  0  3  0  0  0  0  0  0
  -24.3450   -9.9980   20.2870 C   0  0  0  0  0  3  0  0  0  0  0  0
  -22.2830   -7.0740   21.0730 O   0  0  0  0  0  0  0  0  0  0  0  0
  -21.7600   -6.4990   22.2020 C   0  0  0  0  0  0  0  0  0  0  0  0
  -21.2110   -7.2740   23.2470 C   0  0  0  0  0  3  0  0  0  0  0  0
  -20.6230   -6.6410   24.3590 C   0  0  0  0  0  3  0  0  0  0  0  0
  -20.5760   -5.2350   24.4250 C   0  0  0  0  0  0  0  0  0  0  0  0
  -21.1190   -4.4620   23.3820 C   0  0  0  0  0  3  0  0  0  0  0  0
  -21.7060   -5.0930   22.2730 C   0  0  0  0  0  0  0  0  0  0  0  0
  -22.2080   -4.3450   21.2600 F   0  0  0  0  0  0  0  0  0  0  0  0
  -20.0020   -4.6240   25.4870 F   0  0  0  0  0  0  0  0  0  0  0  0
  -25.6690  -12.7210   22.5900 C   0  0  0  0  0  0  0  0  0  0  0  0
  -25.0670  -11.9510   23.4900 N   0  0  0  0  0  0  0  0  0  0  0  0
  -25.4570  -13.9320   22.5440 O   0  0  0  0  0  0  0  0  0  0  0  0
  -25.2610  -10.9610   23.5360 H   0  0  0  0  0  0  0  0  0  0  0  0
  -24.3920  -12.3440   24.1290 H   0  0  0  0  0  0  0  0  0  0  0  0
  -28.4220  -13.8480   21.4080 N   0  0  0  0  0  0  0  0  0  0  0  0
  -28.0140  -14.5550   22.0040 H   0  0  0  0  0  0  0  0  0  0  0  0
  -29.3430  -14.1030   21.0490 H   0  0  0  0  0  0  0  0  0  0  0  0
  -30.5620  -14.0900   22.5770 C   0  0  0  0  0  1  0  0  0  0  0  0
  -33.0330  -14.7090   22.4120 C   0  0  0  0  0  1  0  0  0  0  0  0
  -31.6050  -15.0210   21.9130 C   0  0  0  0  0  3  0  0  0  0  0  0
  -27.2120  -17.6080   20.1580 C   0  0  0  0  0  2  0  0  0  0  0  0
  -27.0370  -16.4510   21.1580 C   0  0  0  0  0  2  0  0  0  0  0  0
  -25.5600  -16.1090   21.3620 C   0  0  0  0  0  0  0  0  0  0  0  0
  -24.9220  -15.4700   20.3930 N   0  0  0  0  0  0  0  0  0  0  0  0
  -24.9840  -16.4170   22.4010 O   0  0  0  0  0  0  0  0  0  0  0  0
  -25.3810  -15.2450   19.5210 H   0  0  0  0  0  0  0  0  0  0  0  0
  -23.9510  -15.2120   20.5060 H   0  0  0  0  0  0  0  0  0  0  0  0
  -29.1810  -19.2250   19.7000 C   0  0  0  0  0  2  0  0  0  0  0  0
  -28.6780  -20.2090   18.6270 C   0  0  0  0  0  2  0  0  0  0  0  0
  -29.7520  -20.6290   17.6160 C   0  0  0  0  0  2  0  0  0  0  0  0
  -30.7130  -21.6600   18.2240 C   0  0  0  0  0  2  0  0  0  0  0  0
  -30.9890  -22.8550   17.2960 C   0  0  0  0  0  2  0  0  0  0  0  0
  -31.4720  -24.0960   18.0900 C   0  0  0  0  0  2  0  0  0  0  0  0
  -31.2570  -25.5150   18.0070 O   0  0  0  0  0  0  0  0  0  0  0  0
  -26.2970  -28.0450   22.3990 C   0  0  0  0  0  0  0  0  0  0  0  0
  -29.9940  -26.0720   18.1130 C   0  0  0  0  0  0  0  0  0  0  0  0
  -25.6220  -27.8870   20.0230 C   0  0  0  0  0  3  0  0  0  0  0  0
  -27.5000  -27.3630   18.3790 C   0  0  0  0  0  0  0  0  0  0  0  0
  -28.0760  -28.1880   20.6710 C   0  0  0  0  0  2  0  0  0  0  0  0
  -28.4370  -27.4240   19.4180 C   0  0  0  0  0  0  0  0  0  0  0  0
  -29.6840  -26.7820   19.2870 C   0  0  0  0  0  3  0  0  0  0  0  0
  -29.0430  -26.0160   17.0710 C   0  0  0  0  0  3  0  0  0  0  0  0
  -27.7950  -26.6540   17.2010 C   0  0  0  0  0  3  0  0  0  0  0  0
  -26.1940  -28.0970   18.5940 C   0  0  0  0  0  2  0  0  0  0  0  0
  -26.6660  -28.0170   21.0880 N   0  0  0  0  0  0  0  0  0  0  0  0
  -25.1030  -28.0100   22.7280 O   0  0  0  0  0  0  0  0  0  0  0  0
  -24.8840  -26.5290   20.0550 C   0  0  0  0  0  0  0  0  0  0  0  0
  -23.6620  -26.5030   19.5000 N   0  0  0  0  0  0  0  0  0  0  0  0
  -25.4170  -25.5300   20.5420 O   0  0  0  0  0  0  0  0  0  0  0  0
  -23.2970  -27.3630   19.1120 H   0  0  0  0  0  0  0  0  0  0  0  0
  -20.4300  -25.3820   18.3600 C   0  0  0  0  0  0  0  0  0  0  0  0
  -22.7960  -25.3310   19.3970 C   0  0  0  0  0  3  0  0  0  0  0  0
  -23.1950  -24.4530   18.1940 C   0  0  0  0  0  2  0  0  0  0  0  0
  -22.4240  -24.7990   16.9140 C   0  0  0  0  0  2  0  0  0  0  0  0
  -20.9180  -24.6340   17.1310 C   0  0  0  0  0  2  0  0  0  0  0  0
  -21.3130  -25.7260   19.4190 C   0  0  0  0  0  0  0  0  0  0  0  0
  -20.8140  -26.4600   20.5150 C   0  0  0  0  0  3  0  0  0  0  0  0
  -19.4610  -26.8410   20.5710 C   0  0  0  0  0  3  0  0  0  0  0  0
  -18.5860  -26.4850   19.5290 C   0  0  0  0  0  3  0  0  0  0  0  0
  -19.0720  -25.7530   18.4300 C   0  0  0  0  0  3  0  0  0  0  0  0
  -27.3520  -28.1500   23.5460 C   0  0  0  0  0  3  0  0  0  0  0  0
  -26.7870  -29.0210   24.5850 N   0  0  0  0  0  0  0  0  0  0  0  0
  -27.1970  -30.2710   24.8310 C   0  0  0  0  0  0  0  0  0  0  0  0
  -28.1490  -30.7940   24.2460 O   0  0  0  0  0  0  0  0  0  0  0  0
  -25.9600  -28.6870   25.0590 H   0  0  0  0  0  0  0  0  0  0  0  0
  -25.5090  -32.0960   25.2050 C   0  0  0  0  0  1  0  0  0  0  0  0
  -26.4240  -31.0720   25.8950 C   0  0  0  0  0  3  0  0  0  0  0  0
  -28.0100  -30.8460   27.7540 C   0  0  0  0  0  1  0  0  0  0  0  0
  -27.3030  -31.7620   26.8630 N   0  0  0  0  0  0  0  0  0  0  0  0
  -26.7690  -32.4110   27.4360 H   0  0  0  0  0  0  0  0  0  0  0  0
  -27.7610  -26.7500   24.1470 C   0  0  1  0  0  0  0  0  0  0  0  0
  -26.5500  -25.8800   24.5550 C   0  0  0  0  0  1  0  0  0  0  0  0
  -28.6040  -25.9390   23.1350 C   0  0  0  0  0  1  0  0  0  0  0  0
  -28.6500  -26.9550   25.3950 C   0  0  0  0  0  1  0  0  0  0  0  0
  1 55  1  0
  1 48  1  0
  1  3  1  0
  2  3  1  0
  2  6  1  0
  3  5  1  0
  4  2  2  0
  6 47  1  0
  7 15  1  0
  7 13  1  0
  8 13  1  0
  9 10  1  0
  9  8  1  0
 11 10  1  0
 11 20  1  0
 11 12  1  0
 13 12  1  0
 14  7  2  0
 15  6  2  0
 16 15  1  0
 17 42  1  0
 17 18  2  0
 18 37  1  0
 19 22  1  0
 19 18  1  0
 20 17  1  0
 21 20  1  0
 21 19  2  0
 22 23  1  0
 23 24  2  0
 25 24  1  0
 26 25  2  0
 27 26  1  0
 27 22  2  0
 28 25  1  0
 28 29  1  0
 29 34  2  0
 29 30  1  0
 30 31  2  0
 31 32  1  0
 32 36  1  0
 33 32  2  0
 34 33  1  0
 35 34  1  0
 37 38  1  0
 38 40  1  0
 38 41  1  0
 39 37  2  0
 42 43  1  0
 44 42  1  0
 47 46  1  0
 47 45  1  0
 48 49  1  0
 49 50  1  0
 50 52  2  0
 51 54  1  0
 51 50  1  0
 53 51  1  0
 56 55  1  0
 57 58  1  0
 57 56  1  0
 59 60  1  0
 59 58  1  0
 61 60  1  0
 61 63  1  0
 62 73  2  0
 63 68  1  0
 64 74  1  0
 64 72  1  0
 65 71  1  0
 65 67  1  0
 66 72  1  0
 67 66  1  0
 68 67  2  0
 69 70  1  0
 69 63  2  0
 70 65  2  0
 71 64  1  0
 72 62  1  0
 74 76  2  0
 75 74  1  0
 77 75  1  0
 78 87  2  0
 78 83  1  0
 79 83  1  0
 79 75  1  0
 80 79  1  0
 81 82  1  0
 81 80  1  0
 82 78  1  0
 83 84  2  0
 84 85  1  0
 86 85  2  0
 87 86  1  0
 88 62  1  0
 88 98  1  0
 88 89  1  0
 89 90  1  0
 89 92  1  0
 90 94  1  0
 91 90  2  0
 94 93  1  0
 94 96  1  0
 96 97  1  0
 96 95  1  0
 98 99  1  1
 98101  1  0
100 98  1  0
M  ISO  4   7 100  15 100  60 101  61 101
M  END
>  <TORSDO>  (3) 
F 28

>  <SCORE>  (3) 
9.706

>  <name>  (3) 
2

>  <ligand_id>  (3) 
2

>  <original_smiles>  (3) 
[H]c1c([H])c([H])c2c(c1[H])C([H])([H])C([H])([H])C([H])([H])C2([H])N([H])C(=O)C1([H])N(C(=O)C([H])(N([H])C(=O)C([H])(N([H])C([H])([H])[H])C([H])([H])[H])C(C([H])([H])[H])(C([H])([H])[H])C([H])([H])[H])C([H])([H])c2c([H])c(OC([H])([H])C([H])([H])C([H])([H])C([H])([H])C([H])([H])C([H])([H])C([H])(N([H])C(=O)C([H])(N([H])C(=O)N3C([H])([H])C([H])([H])C([H])([H])C([H])(n4nc(-c5c([H])c([H])c(Oc6c([H])c([H])c(F)c([H])c6F)c([H])c5[H])c(C(=O)N([H])[H])c4N([H])[H])C3([H])[H])C([H])(C([H])([H])[H])C([H])([H])[H])C([H])([H])C([H])([H])C(=O)N([H])[H])c([H])c([H])c2C1([H])[H]

>  <smiles>  (3) 
[H]c1c([H])c([H])c2c(c1[H])C([H])([H])C([H])([H])C([H])([H])C2([H])N([H])C(=O)C1([H])N(C(=O)C([H])(N([H])C(=O)C([H])(N([H])C([H])([H])[H])C([H])([H])[H])C(C([H])([H])[H])(C([H])([H])[H])C([H])([H])[H])C([H])([H])c2c([H])c(OC([H])([H])C([H])([H])C([H])([H])C([H])([H])C([H])([H])C([H])([H])C([H])(N([H])C(=O)C([H])(N([H])C(=O)N3C([H])([H])C([H])([H])C([H])([H])C([H])(n4nc(-c5c([H])c([H])c(Oc6c([H])c([H])c(F)c([H])c6F)c([H])c5[H])c(C(=O)N([H])[H])c4N([H])[H])C3([H])[H])C([H])(C([H])([H])[H])C([H])([H])[H])C([H])([H])C([H])([H])C(=O)N([H])[H])c([H])c([H])c2C1([H])[H]

$$$$
3:0:0
     RDKit          3D

 94102  0  0  1  0  0  0  0  0999 V2000
  -29.0170  -18.8020   19.6870 C   0  0  0  0  0  0  0  0  0  0  0  0
  -29.7040  -22.7460   20.2290 C   0  0  0  0  0  2  0  0  0  0  0  0
  -30.0430  -21.2790   19.6420 C   0  0  0  0  0  2  0  0  0  0  0  0
  -27.7000  -20.9500   19.2720 C   0  0  0  0  0  2  0  0  0  0  0  0
  -28.4270  -23.5420   19.7200 C   0  0  0  0  0  3  0  0  0  0  0  0
  -27.3540  -22.3930   19.8750 C   0  0  0  0  0  3  0  0  0  0  0  0
  -25.9970  -22.8370   19.3040 C   0  0  0  0  0  1  0  0  0  0  0  0
  -28.9680  -20.2320   19.6560 N   0  0  0  0  0  0  0  0  0  0  0  0
  -27.9540  -18.1850   19.5610 O   0  0  0  0  0  0  0  0  0  0  0  0
  -28.0610  -24.9960   20.4680 C   0  0  0  0  0  2  0  0  0  0  0  0
  -28.2670  -26.4360   19.9800 O   0  0  0  0  0  0  0  0  0  0  0  0
  -24.6000  -31.9200   23.1990 C   0  0  0  0  0  0  0  0  0  0  0  0
  -27.1830  -27.3650   20.0100 C   0  0  0  0  0  0  0  0  0  0  0  0
  -23.3830  -30.5460   21.5520 C   0  0  0  0  0  3  0  0  0  0  0  0
  -24.8220  -29.0310   20.0640 C   0  0  0  0  0  0  0  0  0  0  0  0
  -25.9230  -30.8690   21.3350 C   0  0  0  0  0  2  0  0  0  0  0  0
  -26.0050  -29.4960   20.6540 C   0  0  0  0  0  0  0  0  0  0  0  0
  -27.1900  -28.6800   20.6090 C   0  0  0  0  0  3  0  0  0  0  0  0
  -25.9770  -26.9870   19.3860 C   0  0  0  0  0  3  0  0  0  0  0  0
  -24.8170  -27.7870   19.4150 C   0  0  0  0  0  3  0  0  0  0  0  0
  -23.5810  -29.9030   20.1540 C   0  0  0  0  0  2  0  0  0  0  0  0
  -24.6550  -31.1310   22.0850 N   0  0  0  0  0  0  0  0  0  0  0  0
  -23.5220  -32.1760   23.7590 O   0  0  0  0  0  0  0  0  0  0  0  0
  -22.7420  -29.5050   22.5030 C   0  0  0  0  0  0  0  0  0  0  0  0
  -21.4270  -29.2660   22.3500 N   0  0  0  0  0  0  0  0  0  0  0  0
  -23.4290  -28.9150   23.3410 O   0  0  0  0  0  0  0  0  0  0  0  0
  -20.9280  -29.7970   21.6500 H   0  0  0  0  0  0  0  0  0  0  0  0
  -18.1110  -27.8690   22.7530 C   0  0  0  0  0  0  0  0  0  0  0  0
  -20.6380  -28.2910   23.1060 C   0  0  0  0  0  3  0  0  0  0  0  0
  -20.8480  -26.8600   22.5590 C   0  0  0  0  0  2  0  0  0  0  0  0
  -19.8040  -26.4550   21.5110 C   0  0  0  0  0  2  0  0  0  0  0  0
  -18.3940  -26.5240   22.1050 C   0  0  0  0  0  2  0  0  0  0  0  0
  -19.1650  -28.7050   23.2090 C   0  0  0  0  0  0  0  0  0  0  0  0
  -18.8470  -29.9580   23.7740 C   0  0  0  0  0  3  0  0  0  0  0  0
  -17.5090  -30.3790   23.8870 C   0  0  0  0  0  3  0  0  0  0  0  0
  -16.4690  -29.5410   23.4480 C   0  0  0  0  0  3  0  0  0  0  0  0
  -16.7710  -28.2880   22.8870 C   0  0  0  0  0  3  0  0  0  0  0  0
  -25.8850  -32.5560   23.8140 C   0  0  0  0  0  3  0  0  0  0  0  0
  -26.4110  -31.7830   25.0860 C   0  0  1  0  0  0  0  0  0  0  0  0
  -25.3250  -31.5360   26.1590 C   0  0  0  0  0  1  0  0  0  0  0  0
  -27.0000  -30.4100   24.6890 C   0  0  0  0  0  1  0  0  0  0  0  0
  -27.5610  -32.5820   25.7440 C   0  0  0  0  0  1  0  0  0  0  0  0
  -25.5730  -33.9520   24.1540 N   0  0  0  0  0  0  0  0  0  0  0  0
  -25.9010  -35.0130   23.4050 C   0  0  0  0  0  0  0  0  0  0  0  0
  -26.5660  -34.9180   22.3690 O   0  0  0  0  0  0  0  0  0  0  0  0
  -24.9830  -34.1000   24.9600 H   0  0  0  0  0  0  0  0  0  0  0  0
  -24.1730  -36.8130   23.0730 C   0  0  0  0  0  1  0  0  0  0  0  0
  -25.4160  -36.3980   23.8770 C   0  0  0  0  0  3  0  0  0  0  0  0
  -27.5500  -37.2800   24.7150 C   0  0  0  0  0  1  0  0  0  0  0  0
  -26.4500  -37.4520   23.7700 N   0  0  0  0  0  0  0  0  0  0  0  0
  -26.0440  -38.3710   23.9210 H   0  0  0  0  0  0  0  0  0  0  0  0
  -30.2780  -17.7810   19.8680 C   0  0  0  0  0  3  0  0  0  0  0  0
  -30.8160  -15.0960   19.7170 C   0  0  0  0  0  0  0  0  0  0  0  0
  -30.6800  -12.6940   18.9690 C   0  0  0  0  0  2  0  0  0  0  0  0
  -29.7010  -12.5630   17.7790 C   0  0  0  0  0  2  0  0  0  0  0  0
  -28.2550  -12.3900   18.2780 C   0  0  0  0  0  2  0  0  0  0  0  0
  -27.8830  -13.4110   19.3870 C   0  0  0  0  0  3  0  0  0  0  0  0
  -28.9750  -13.5010   20.4740 C   0  0  0  0  0  2  0  0  0  0  0  0
  -30.2290  -13.8440   19.7920 N   0  0  0  0  0  0  0  0  0  0  0  0
  -32.0030  -15.1740   19.3870 O   0  0  0  0  0  0  0  0  0  0  0  0
  -30.0120  -16.2400   19.8280 N   0  0  0  0  0  0  0  0  0  0  0  0
  -29.0340  -16.0270   19.9540 H   0  0  0  0  0  0  0  0  0  0  0  0
  -25.5620  -14.0530   20.2600 C   0  0  0  0  0  0  0  0  0  0  0  0
  -24.4960  -13.3020   20.6760 C   0  0  0  0  0  0  0  0  0  0  0  0
  -24.9180  -11.9390   20.5990 C   0  0  0  0  0  0  0  0  0  0  0  0
  -26.5640  -13.1480   19.9510 N   0  0  0  0  0  0  0  0  0  0  0  0
  -26.1890  -11.8710   20.2210 N   0  0  0  0  0  0  0  0  0  0  0  0
  -24.1650  -10.6960   20.8090 C   0  0  0  0  0  0  0  0  0  0  0  0
  -24.5780   -9.7320   21.7560 C   0  0  0  0  0  3  0  0  0  0  0  0
  -23.8270   -8.5540   21.9530 C   0  0  0  0  0  3  0  0  0  0  0  0
  -22.6480   -8.3300   21.2030 C   0  0  0  0  0  0  0  0  0  0  0  0
  -22.2540   -9.2810   20.2450 C   0  0  0  0  0  3  0  0  0  0  0  0
  -23.0060  -10.4510   20.0470 C   0  0  0  0  0  3  0  0  0  0  0  0
  -21.8680   -7.2030   21.3080 O   0  0  0  0  0  0  0  0  0  0  0  0
  -21.7520   -6.5160   22.4890 C   0  0  0  0  0  0  0  0  0  0  0  0
  -21.2490   -7.1250   23.6590 C   0  0  0  0  0  3  0  0  0  0  0  0
  -21.0810   -6.3630   24.8340 C   0  0  0  0  0  3  0  0  0  0  0  0
  -21.4070   -4.9940   24.8380 C   0  0  0  0  0  0  0  0  0  0  0  0
  -21.9050   -4.3850   23.6730 C   0  0  0  0  0  3  0  0  0  0  0  0
  -22.0740   -5.1440   22.5000 C   0  0  0  0  0  0  0  0  0  0  0  0
  -22.5330   -4.5460   21.3740 F   0  0  0  0  0  0  0  0  0  0  0  0
  -21.2400   -4.2600   25.9630 F   0  0  0  0  0  0  0  0  0  0  0  0
  -23.1300  -13.8150   21.0270 C   0  0  0  0  0  0  0  0  0  0  0  0
  -22.4320  -13.1320   21.9280 N   0  0  0  0  0  0  0  0  0  0  0  0
  -22.6920  -14.8550   20.5380 O   0  0  0  0  0  0  0  0  0  0  0  0
  -22.8000  -12.2890   22.3440 H   0  0  0  0  0  0  0  0  0  0  0  0
  -21.5180  -13.4570   22.2060 H   0  0  0  0  0  0  0  0  0  0  0  0
  -25.7530  -15.4220   20.0930 N   0  0  0  0  0  0  0  0  0  0  0  0
  -25.0040  -16.0870   20.2530 H   0  0  0  0  0  0  0  0  0  0  0  0
  -26.5770  -15.8520   19.6950 H   0  0  0  0  0  0  0  0  0  0  0  0
  -30.8350  -17.0540   22.2700 C   0  0  0  0  0  1  0  0  0  0  0  0
  -31.0970  -18.0920   21.1600 C   0  0  0  0  0  3  0  0  0  0  0  0
  -33.0050  -19.4260   20.0260 C   0  0  0  0  0  1  0  0  0  0  0  0
  -32.6180  -18.2560   20.9410 C   0  0  0  0  0  2  0  0  0  0  0  0
  3  8  1  0
  3  2  1  0
  4  8  1  0
  4  6  1  0
  5  6  1  0
  5  2  1  0
  5 10  1  0
  6  7  1  0
  8  1  1  0
  9  1  2  0
 11 13  1  0
 11 10  1  0
 12 23  2  0
 13 18  1  0
 14 22  1  0
 14 24  1  0
 15 21  1  0
 15 17  1  0
 16 22  1  0
 17 16  1  0
 18 17  2  0
 19 20  1  0
 19 13  2  0
 20 15  2  0
 21 14  1  0
 22 12  1  0
 24 26  2  0
 25 24  1  0
 27 25  1  0
 28 37  2  0
 28 33  1  0
 29 25  1  0
 29 33  1  0
 30 29  1  0
 31 32  1  0
 31 30  1  0
 32 28  1  0
 33 34  2  0
 34 35  1  0
 36 35  2  0
 37 36  1  0
 38 12  1  0
 38 43  1  0
 38 39  1  0
 39 42  1  1
 39 40  1  0
 41 39  1  0
 43 46  1  0
 44 48  1  0
 44 43  1  0
 45 44  2  0
 48 47  1  0
 50 48  1  0
 50 51  1  0
 50 49  1  0
 52  1  1  0
 52 92  1  0
 53 59  1  0
 53 61  1  0
 54 59  1  0
 55 56  1  0
 55 54  1  0
 57 56  1  0
 57 66  1  0
 57 58  1  0
 59 58  1  0
 60 53  2  0
 61 52  1  0
 61 62  1  0
 63 64  2  0
 64 83  1  0
 65 64  1  0
 65 68  1  0
 66 67  1  0
 66 63  1  0
 67 65  2  0
 68 69  1  0
 69 70  2  0
 71 74  1  0
 71 70  1  0
 72 71  2  0
 73 72  1  0
 73 68  2  0
 74 75  1  0
 75 80  2  0
 75 76  1  0
 76 77  2  0
 77 78  1  0
 78 82  1  0
 79 78  2  0
 80 79  1  0
 81 80  1  0
 83 84  1  0
 84 87  1  0
 84 86  1  0
 85 83  2  0
 88 89  1  0
 88 63  1  0
 90 88  1  0
 92 91  1  0
 93 94  1  0
 94 92  1  0
M  ISO  4  10 101  11 101  53 100  61 100
M  END
>  <TORSDO>  (4) 
F 20

>  <SCORE>  (4) 
-13.904

>  <name>  (4) 
3

>  <ligand_id>  (4) 
3

>  <original_smiles>  (4) 
[H]c1c([H])c([H])c2c(c1[H])C([H])([H])C([H])([H])C([H])([H])C2([H])N([H])C(=O)C1([H])N(C(=O)C([H])(N([H])C(=O)C([H])(N([H])C([H])([H])[H])C([H])([H])[H])C(C([H])([H])[H])(C([H])([H])[H])C([H])([H])[H])C([H])([H])c2c([H])c(OC([H])([H])C3([H])C([H])([H])C([H])([H])N(C(=O)C([H])(N([H])C(=O)N4C([H])([H])C([H])([H])C([H])([H])C([H])(n5nc(-c6c([H])c([H])c(Oc7c([H])c([H])c(F)c([H])c7F)c([H])c6[H])c(C(=O)N([H])[H])c5N([H])[H])C4([H])[H])C([H])(C([H])([H])[H])C([H])([H])C([H])([H])[H])C([H])([H])C3([H])C([H])([H])[H])c([H])c([H])c2C1([H])[H]

>  <smiles>  (4) 
[H]c1c([H])c([H])c2c(c1[H])C([H])([H])C([H])([H])C([H])([H])C2([H])N([H])C(=O)C1([H])N(C(=O)C([H])(N([H])C(=O)C([H])(N([H])C([H])([H])[H])C([H])([H])[H])C(C([H])([H])[H])(C([H])([H])[H])C([H])([H])[H])C([H])([H])c2c([H])c(OC([H])([H])C3([H])C([H])([H])C([H])([H])N(C(=O)C([H])(N([H])C(=O)N4C([H])([H])C([H])([H])C([H])([H])C([H])(n5nc(-c6c([H])c([H])c(Oc7c([H])c([H])c(F)c([H])c7F)c([H])c6[H])c(C(=O)N([H])[H])c5N([H])[H])C4([H])[H])C([H])(C([H])([H])[H])C([H])([H])C([H])([H])[H])C([H])([H])C3([H])C([H])([H])[H])c([H])c([H])c2C1([H])[H]

$$$$
4:0:0
     RDKit          3D

103111  0  0  1  0  0  0  0  0999 V2000
  -28.0530  -21.0030   22.0390 C   0  0  0  0  0  1  0  0  0  0  0  0
  -26.1490  -22.4100   21.1760 C   0  0  0  0  0  1  0  0  0  0  0  0
  -27.5900  -21.9330   20.8910 C   0  0  1  0  0  0  0  0  0  0  0  0
  -28.5160  -23.1750   20.6690 C   0  0  0  0  0  0  0  0  0  0  0  0
  -29.6490  -24.9150   23.6700 C   0  0  0  0  0  2  0  0  0  0  0  0
  -29.9800  -25.9020   22.5630 C   0  0  0  0  0  2  0  0  0  0  0  0
  -28.6240  -23.9470   23.0770 C   0  0  0  0  0  2  0  0  0  0  0  0
  -29.0200  -25.5460   21.4300 C   0  0  0  0  0  3  0  0  0  0  0  0
  -28.6960  -24.1230   21.6260 N   0  0  0  0  0  0  0  0  0  0  0  0
  -28.9630  -23.3400   19.5350 O   0  0  0  0  0  0  0  0  0  0  0  0
  -29.5060  -26.0290   20.0460 C   0  0  0  0  0  2  0  0  0  0  0  0
  -29.2680  -27.4220   19.9570 O   0  0  0  0  0  0  0  0  0  0  0  0
  -24.5990  -31.7370   23.0790 C   0  0  0  0  0  0  0  0  0  0  0  0
  -27.9640  -27.8630   19.9690 C   0  0  0  0  0  0  0  0  0  0  0  0
  -23.6460  -30.2240   21.3590 C   0  0  0  0  0  3  0  0  0  0  0  0
  -25.3550  -28.9480   19.9600 C   0  0  0  0  0  0  0  0  0  0  0  0
  -26.0920  -30.9570   21.2490 C   0  0  0  0  0  2  0  0  0  0  0  0
  -26.3960  -29.6240   20.6040 C   0  0  0  0  0  0  0  0  0  0  0  0
  -27.6940  -29.0790   20.6240 C   0  0  0  0  0  3  0  0  0  0  0  0
  -26.9070  -27.1950   19.3080 C   0  0  0  0  0  3  0  0  0  0  0  0
  -25.6010  -27.7220   19.3170 C   0  0  0  0  0  3  0  0  0  0  0  0
  -24.0000  -29.6140   19.9740 C   0  0  0  0  0  2  0  0  0  0  0  0
  -24.7930  -30.9890   21.9570 N   0  0  0  0  0  0  0  0  0  0  0  0
  -23.4790  -31.8360   23.5960 O   0  0  0  0  0  0  0  0  0  0  0  0
  -23.1210  -29.0950   22.2720 C   0  0  0  0  0  0  0  0  0  0  0  0
  -21.8300  -28.7500   22.1270 N   0  0  0  0  0  0  0  0  0  0  0  0
  -23.8720  -28.5320   23.0720 O   0  0  0  0  0  0  0  0  0  0  0  0
  -21.2630  -29.2740   21.4760 H   0  0  0  0  0  0  0  0  0  0  0  0
  -18.6370  -27.1330   22.5380 C   0  0  0  0  0  0  0  0  0  0  0  0
  -21.1390  -27.6870   22.8560 C   0  0  0  0  0  3  0  0  0  0  0  0
  -21.4160  -26.3000   22.2290 C   0  0  0  0  0  2  0  0  0  0  0  0
  -20.3750  -25.8890   21.1850 C   0  0  0  0  0  2  0  0  0  0  0  0
  -18.9820  -25.8430   21.8150 C   0  0  0  0  0  2  0  0  0  0  0  0
  -19.6480  -28.0060   23.0170 C   0  0  0  0  0  0  0  0  0  0  0  0
  -19.2690  -29.2130   23.6460 C   0  0  0  0  0  3  0  0  0  0  0  0
  -17.9100  -29.5480   23.8020 C   0  0  0  0  0  3  0  0  0  0  0  0
  -16.9140  -28.6680   23.3420 C   0  0  0  0  0  3  0  0  0  0  0  0
  -17.2780  -27.4620   22.7180 C   0  0  0  0  0  3  0  0  0  0  0  0
  -25.7700  -32.5210   23.7530 C   0  0  0  0  0  3  0  0  0  0  0  0
  -25.3010  -33.8860   24.0240 N   0  0  0  0  0  0  0  0  0  0  0  0
  -25.5530  -34.9430   23.2390 C   0  0  0  0  0  0  0  0  0  0  0  0
  -26.2820  -34.8840   22.2450 O   0  0  0  0  0  0  0  0  0  0  0  0
  -24.6630  -34.0030   24.7980 H   0  0  0  0  0  0  0  0  0  0  0  0
  -23.6520  -36.5100   22.7420 C   0  0  0  0  0  1  0  0  0  0  0  0
  -24.8920  -36.2780   23.6210 C   0  0  0  0  0  3  0  0  0  0  0  0
  -26.8710  -37.4290   24.5060 C   0  0  0  0  0  1  0  0  0  0  0  0
  -25.8000  -37.4390   23.5130 N   0  0  0  0  0  0  0  0  0  0  0  0
  -25.2840  -38.3090   23.6110 H   0  0  0  0  0  0  0  0  0  0  0  0
  -26.3060  -31.8380   25.0710 C   0  0  1  0  0  0  0  0  0  0  0  0
  -25.1940  -31.5080   26.0920 C   0  0  0  0  0  1  0  0  0  0  0  0
  -27.0500  -30.5230   24.7360 C   0  0  0  0  0  1  0  0  0  0  0  0
  -27.3330  -32.7630   25.7680 C   0  0  0  0  0  1  0  0  0  0  0  0
  -27.5260  -21.2580   19.5590 N   0  0  0  0  0  4  0  0  0  0  0  0
  -26.5610  -21.1020   19.3270 H   0  0  0  0  0  0  0  0  0  0  0  0
  -27.8540  -22.0100   18.9610 H   0  0  0  0  0  0  0  0  0  0  0  0
  -29.7640  -20.4550   18.6860 C   0  0  0  0  0  1  0  0  0  0  0  0
  -28.3410  -20.0800   19.1270 C   0  0  0  0  0  3  0  0  0  0  0  0
  -28.1720  -18.7520   19.9330 C   0  0  0  0  0  2  0  0  0  0  0  0
  -29.4010  -18.1870   20.7210 C   0  0  0  0  0  2  0  0  0  0  0  0
  -29.9340  -16.8430   20.1550 C   0  0  0  0  0  3  0  0  0  0  0  0
  -31.4440  -14.9550   20.7810 C   0  0  0  0  0  0  0  0  0  0  0  0
  -31.1660  -12.7100   19.7940 C   0  0  0  0  0  2  0  0  0  0  0  0
  -30.3560  -12.7790   18.4840 C   0  0  0  0  0  2  0  0  0  0  0  0
  -28.8500  -12.6560   18.7940 C   0  0  0  0  0  2  0  0  0  0  0  0
  -28.4010  -13.6660   19.8720 C   0  0  0  0  0  3  0  0  0  0  0  0
  -29.3290  -13.6220   21.1090 C   0  0  0  0  0  2  0  0  0  0  0  0
  -30.7120  -13.8160   20.6500 N   0  0  0  0  0  0  0  0  0  0  0  0
  -32.6480  -15.0030   20.5350 O   0  0  0  0  0  0  0  0  0  0  0  0
  -30.7820  -16.0860   21.1020 N   0  0  0  0  0  0  0  0  0  0  0  0
  -31.4150  -16.7200   21.5620 H   0  0  0  0  0  0  0  0  0  0  0  0
  -26.0010  -14.4630   20.3720 C   0  0  0  0  0  0  0  0  0  0  0  0
  -24.8570  -13.7710   20.6420 C   0  0  0  0  0  0  0  0  0  0  0  0
  -25.2340  -12.3920   20.6750 C   0  0  0  0  0  0  0  0  0  0  0  0
  -27.0020  -13.5100   20.2440 N   0  0  0  0  0  0  0  0  0  0  0  0
  -26.5390  -12.2650   20.4930 N   0  0  0  0  0  0  0  0  0  0  0  0
  -24.4240  -11.1790   20.8010 C   0  0  0  0  0  0  0  0  0  0  0  0
  -24.7440  -10.1720   21.7390 C   0  0  0  0  0  3  0  0  0  0  0  0
  -23.9370   -9.0200   21.8500 C   0  0  0  0  0  3  0  0  0  0  0  0
  -22.8000   -8.8670   21.0210 C   0  0  0  0  0  0  0  0  0  0  0  0
  -22.5030   -9.8600   20.0710 C   0  0  0  0  0  3  0  0  0  0  0  0
  -23.3110  -11.0050   19.9580 C   0  0  0  0  0  3  0  0  0  0  0  0
  -21.9780   -7.7670   21.0390 O   0  0  0  0  0  0  0  0  0  0  0  0
  -21.8080   -7.0170   22.1740 C   0  0  0  0  0  0  0  0  0  0  0  0
  -21.3490   -7.5850   23.3820 C   0  0  0  0  0  3  0  0  0  0  0  0
  -21.1210   -6.7640   24.5060 C   0  0  0  0  0  3  0  0  0  0  0  0
  -21.3490   -5.3780   24.4210 C   0  0  0  0  0  0  0  0  0  0  0  0
  -21.8060   -4.8100   23.2190 C   0  0  0  0  0  3  0  0  0  0  0  0
  -22.0320   -5.6270   22.0980 C   0  0  0  0  0  0  0  0  0  0  0  0
  -22.4500   -5.0750   20.9340 F   0  0  0  0  0  0  0  0  0  0  0  0
  -21.1260   -4.5870   25.4960 F   0  0  0  0  0  0  0  0  0  0  0  0
  -23.4710  -14.3370   20.7750 C   0  0  0  0  0  0  0  0  0  0  0  0
  -22.6300  -13.7040   21.5840 N   0  0  0  0  0  0  0  0  0  0  0  0
  -23.1450  -15.3710   20.1940 O   0  0  0  0  0  0  0  0  0  0  0  0
  -22.9080  -12.8650   22.0740 H   0  0  0  0  0  0  0  0  0  0  0  0
  -21.6950  -14.0620   21.7170 H   0  0  0  0  0  0  0  0  0  0  0  0
  -26.2710  -15.8190   20.2010 N   0  0  0  0  0  0  0  0  0  0  0  0
  -25.5370  -16.5150   20.2510 H   0  0  0  0  0  0  0  0  0  0  0  0
  -27.1870  -16.2090   20.0490 H   0  0  0  0  0  0  0  0  0  0  0  0
  -30.5340  -16.9710   18.7370 C   0  0  0  0  0  0  0  0  0  0  0  0
  -29.7580  -16.6920   17.6990 N   0  0  0  0  0  0  0  0  0  0  0  0
  -31.6960  -17.3390   18.5820 O   0  0  0  0  0  0  0  0  0  0  0  0
  -28.7910  -16.4410   17.8140 H   0  0  0  0  0  0  0  0  0  0  0  0
  -30.1220  -16.7580   16.7590 H   0  0  0  0  0  0  0  0  0  0  0  0
  3  2  1  1
  3  1  1  0
  4  3  1  0
  4  9  1  0
  6  5  1  0
  7  5  1  0
  8 11  1  0
  8  9  1  0
  8  6  1  0
  9  7  1  0
 10  4  2  0
 12 14  1  0
 12 11  1  0
 13 24  2  0
 14 19  1  0
 15 23  1  0
 15 25  1  0
 16 22  1  0
 16 18  1  0
 17 23  1  0
 18 19  2  0
 18 17  1  0
 20 21  1  0
 20 14  2  0
 21 16  2  0
 22 15  1  0
 23 13  1  0
 25 27  2  0
 26 25  1  0
 28 26  1  0
 29 38  2  0
 29 34  1  0
 30 26  1  0
 30 34  1  0
 31 30  1  0
 32 33  1  0
 32 31  1  0
 33 29  1  0
 34 35  2  0
 35 36  1  0
 37 36  2  0
 38 37  1  0
 39 13  1  0
 39 40  1  0
 39 49  1  0
 40 43  1  0
 41 45  1  0
 41 40  1  0
 42 41  2  0
 45 44  1  0
 47 48  1  0
 47 45  1  0
 47 46  1  0
 49 52  1  1
 49 50  1  0
 51 49  1  0
 53  3  1  0
 54 53  1  0
 55 53  1  0
 57 56  1  0
 57 53  1  0
 57 58  1  0
 58 59  1  0
 60 59  1  0
 60 69  1  0
 61 69  1  0
 62 67  1  0
 63 64  1  0
 63 62  1  0
 65 64  1  0
 65 74  1  0
 65 66  1  0
 67 61  1  0
 67 66  1  0
 68 61  2  0
 69 70  1  0
 71 72  2  0
 72 73  1  0
 72 91  1  0
 73 76  1  0
 74 71  1  0
 74 75  1  0
 75 73  2  0
 76 77  1  0
 77 78  2  0
 79 82  1  0
 79 78  1  0
 80 79  2  0
 81 80  1  0
 81 76  2  0
 82 83  1  0
 83 84  1  0
 84 85  2  0
 86 85  1  0
 86 90  1  0
 87 86  2  0
 88 83  2  0
 88 87  1  0
 89 88  1  0
 91 92  1  0
 92 95  1  0
 92 94  1  0
 93 91  2  0
 96 97  1  0
 96 71  1  0
 98 96  1  0
 99 60  1  0
100102  1  0
100 99  1  0
101 99  2  0
103100  1  0
M  ISO  4  11 101  12 101  61 100  69 100
M  END
>  <TORSDO>  (5) 
F 24

>  <SCORE>  (5) 
-8.050

>  <name>  (5) 
4

>  <ligand_id>  (5) 
4

>  <original_smiles>  (5) 
[H]c1c([H])c([H])c2c(c1[H])C([H])([H])C([H])([H])C([H])([H])C2([H])N([H])C(=O)C1([H])N(C(=O)C([H])(N([H])C(=O)C([H])(N([H])C([H])([H])[H])C([H])([H])[H])C(C([H])([H])[H])(C([H])([H])[H])C([H])([H])[H])C([H])([H])c2c([H])c(OC([H])([H])C3([H])N(C(=O)C(C([H])([H])[H])(C([H])([H])[H])[N+]([H])([H])C([H])(C([H])([H])[H])C([H])([H])C([H])([H])C([H])(C(=O)N([H])[H])N([H])C(=O)N4C([H])([H])C([H])([H])C([H])([H])C([H])(n5nc(-c6c([H])c([H])c(Oc7c([H])c([H])c(F)c([H])c7F)c([H])c6[H])c(C(=O)N([H])[H])c5N([H])[H])C4([H])[H])C([H])([H])C([H])([H])C3([H])[H])c([H])c([H])c2C1([H])[H]

>  <smiles>  (5) 
[H]c1c([H])c([H])c2c(c1[H])C([H])([H])C([H])([H])C([H])([H])C2([H])N([H])C(=O)C1([H])N(C(=O)C([H])(N([H])C(=O)C([H])(N([H])C([H])([H])[H])C([H])([H])[H])C(C([H])([H])[H])(C([H])([H])[H])C([H])([H])[H])C([H])([H])c2c([H])c(OC([H])([H])C3([H])N(C(=O)C(C([H])([H])[H])(C([H])([H])[H])[N+]([H])([H])C([H])(C([H])([H])[H])C([H])([H])C([H])([H])C([H])(C(=O)N([H])[H])N([H])C(=O)N4C([H])([H])C([H])([H])C([H])([H])C([H])(n5nc(-c6c([H])c([H])c(Oc7c([H])c([H])c(F)c([H])c7F)c([H])c6[H])c(C(=O)N([H])[H])c5N([H])[H])C4([H])[H])C([H])([H])C([H])([H])C3([H])[H])c([H])c([H])c2C1([H])[H]

$$$$
5:0:0
     RDKit          3D

107114  0  0  1  0  0  0  0  0999 V2000
  -29.5170  -18.8570   20.0970 C   0  0  0  0  0  3  0  0  0  0  0  0
  -29.5710  -17.3720   19.9150 N   0  0  0  0  0  4  0  0  0  0  0  0
  -28.6230  -17.0440   19.8670 H   0  0  0  0  0  0  0  0  0  0  0  0
  -30.0100  -17.1660   19.0300 H   0  0  0  0  0  0  0  0  0  0  0  0
  -30.2310  -16.5810   20.9930 C   0  0  0  0  0  2  0  0  0  0  0  0
  -29.6960  -15.1270   21.1030 C   0  0  0  0  0  2  0  0  0  0  0  0
  -30.3100  -14.0930   20.1270 C   0  0  0  0  0  0  0  0  0  0  0  0
  -30.1720  -11.9500   18.8960 C   0  0  0  0  0  2  0  0  0  0  0  0
  -29.2550  -12.0820   17.6630 C   0  0  0  0  0  2  0  0  0  0  0  0
  -27.7740  -11.8750   18.0440 C   0  0  0  0  0  2  0  0  0  0  0  0
  -27.3570  -12.7060   19.2850 C   0  0  0  0  0  3  0  0  0  0  0  0
  -28.3750  -12.4960   20.4260 C   0  0  0  0  0  2  0  0  0  0  0  0
  -29.6990  -12.8960   19.9190 N   0  0  0  0  0  0  0  0  0  0  0  0
  -31.3590  -14.3970   19.5510 O   0  0  0  0  0  0  0  0  0  0  0  0
  -24.8570  -13.1770   19.6720 C   0  0  0  0  0  0  0  0  0  0  0  0
  -23.8330  -12.3940   20.1270 C   0  0  0  0  0  0  0  0  0  0  0  0
  -24.4110  -11.1170   20.3960 C   0  0  0  0  0  0  0  0  0  0  0  0
  -25.9950  -12.3890   19.7110 N   0  0  0  0  0  0  0  0  0  0  0  0
  -25.7230  -11.1520   20.1960 N   0  0  0  0  0  0  0  0  0  0  0  0
  -23.7850   -9.8470   20.7770 C   0  0  0  0  0  0  0  0  0  0  0  0
  -24.2660   -9.0870   21.8660 C   0  0  0  0  0  3  0  0  0  0  0  0
  -23.6370   -7.8750   22.2250 C   0  0  0  0  0  3  0  0  0  0  0  0
  -22.5170   -7.4130   21.4960 C   0  0  0  0  0  0  0  0  0  0  0  0
  -22.0590   -8.1590   20.3950 C   0  0  0  0  0  3  0  0  0  0  0  0
  -22.6890   -9.3620   20.0350 C   0  0  0  0  0  3  0  0  0  0  0  0
  -21.8600   -6.2360   21.7590 O   0  0  0  0  0  0  0  0  0  0  0  0
  -21.8290   -5.6970   23.0220 C   0  0  0  0  0  0  0  0  0  0  0  0
  -21.3000   -6.4060   24.1230 C   0  0  0  0  0  3  0  0  0  0  0  0
  -21.2240   -5.7900   25.3860 C   0  0  0  0  0  3  0  0  0  0  0  0
  -21.6680   -4.4630   25.5520 C   0  0  0  0  0  0  0  0  0  0  0  0
  -22.1930   -3.7550   24.4560 C   0  0  0  0  0  3  0  0  0  0  0  0
  -22.2710   -4.3710   23.1940 C   0  0  0  0  0  0  0  0  0  0  0  0
  -22.7590   -3.6760   22.1370 F   0  0  0  0  0  0  0  0  0  0  0  0
  -21.5890   -3.8670   26.7650 F   0  0  0  0  0  0  0  0  0  0  0  0
  -22.3800  -12.7690   20.1940 C   0  0  0  0  0  0  0  0  0  0  0  0
  -21.6480  -12.2110   21.1510 N   0  0  0  0  0  0  0  0  0  0  0  0
  -21.9020  -13.6010   19.4240 O   0  0  0  0  0  0  0  0  0  0  0  0
  -22.0490  -11.5410   21.7880 H   0  0  0  0  0  0  0  0  0  0  0  0
  -20.6720  -12.4540   21.2410 H   0  0  0  0  0  0  0  0  0  0  0  0
  -24.9060  -14.4690   19.1660 N   0  0  0  0  0  0  0  0  0  0  0  0
  -24.0070  -14.5160   18.6950 H   0  0  0  0  0  0  0  0  0  0  0  0
  -25.6510  -14.4740   18.4800 H   0  0  0  0  0  0  0  0  0  0  0  0
  -29.1920  -19.7720   17.7090 C   0  0  0  0  0  1  0  0  0  0  0  0
  -28.0270  -20.9230   19.5680 C   0  0  0  0  0  1  0  0  0  0  0  0
  -28.4930  -19.5280   19.0730 C   0  0  2  0  0  0  0  0  0  0  0  0
  -27.2270  -18.6150   18.8380 C   0  0  0  0  0  3  0  0  0  0  0  0
  -26.3070  -19.1720   17.7640 C   0  0  0  0  0  0  0  0  0  0  0  0
  -26.3690  -18.6770   16.5250 N   0  0  0  0  0  4  0  0  0  0  0  0
  -25.4010  -20.1280   18.0260 N   0  0  0  0  0  0  0  0  0  0  0  0
  -27.0310  -17.9260   16.2950 H   0  0  0  0  0  0  0  0  0  0  0  0
  -25.7550  -18.9650   15.7760 H   0  0  0  0  0  0  0  0  0  0  0  0
  -25.3110  -20.5140   18.9530 H   0  0  0  0  0  0  0  0  0  0  0  0
  -24.7800  -20.4990   17.3230 H   0  0  0  0  0  0  0  0  0  0  0  0
  -26.3690  -18.2860   20.0850 C   0  0  0  0  0  2  0  0  0  0  0  0
  -25.4770  -17.0480   19.8810 C   0  0  0  0  0  2  0  0  0  0  0  0
  -24.0990  -15.2250   21.0180 C   0  0  0  0  0  1  0  0  0  0  0  0
  -24.8460  -16.5530   21.1920 C   0  0  0  0  0  2  0  0  0  0  0  0
  -30.9600  -19.4570   20.0640 C   0  0  0  0  0  2  0  0  0  0  0  0
  -31.1760  -20.7300   20.9270 C   0  0  0  0  0  2  0  0  0  0  0  0
  -32.3380  -21.6080   20.4110 C   0  0  0  0  0  2  0  0  0  0  0  0
  -32.3410  -23.0690   20.9200 C   0  0  0  0  0  2  0  0  0  0  0  0
  -31.1540  -23.8340   20.4620 N   0  0  0  0  0  4  0  0  0  0  0  0
  -30.3990  -23.6940   21.1160 H   0  0  0  0  0  0  0  0  0  0  0  0
  -30.8670  -23.4550   19.5730 H   0  0  0  0  0  0  0  0  0  0  0  0
  -31.3870  -25.2910   20.2830 C   0  0  0  0  0  2  0  0  0  0  0  0
  -30.0950  -26.0660   19.9610 C   0  0  0  0  0  2  0  0  0  0  0  0
  -29.4730  -26.5370   21.1610 O   0  0  0  0  0  0  0  0  0  0  0  0
  -24.9330  -31.5570   23.4000 C   0  0  0  0  0  0  0  0  0  0  0  0
  -28.2490  -27.1450   20.9950 C   0  0  0  0  0  0  0  0  0  0  0  0
  -24.0430  -29.9610   21.7330 C   0  0  0  0  0  3  0  0  0  0  0  0
  -25.7650  -28.4440   20.6240 C   0  0  0  0  0  0  0  0  0  0  0  0
  -26.5430  -30.4940   21.8250 C   0  0  0  0  0  2  0  0  0  0  0  0
  -26.7990  -29.0930   21.3120 C   0  0  0  0  0  0  0  0  0  0  0  0
  -28.0380  -28.4440   21.5090 C   0  0  0  0  0  3  0  0  0  0  0  0
  -27.1870  -26.4940   20.3260 C   0  0  0  0  0  3  0  0  0  0  0  0
  -25.9510  -27.1390   20.1390 C   0  0  0  0  0  3  0  0  0  0  0  0
  -24.4740  -29.2080   20.4470 C   0  0  0  0  0  2  0  0  0  0  0  0
  -25.1820  -30.6900   22.3790 N   0  0  0  0  0  0  0  0  0  0  0  0
  -23.7760  -31.7840   23.7790 O   0  0  0  0  0  0  0  0  0  0  0  0
  -23.3410  -28.9600   22.6800 C   0  0  0  0  0  0  0  0  0  0  0  0
  -22.0720  -28.6440   22.3810 N   0  0  0  0  0  0  0  0  0  0  0  0
  -23.9440  -28.4680   23.6370 O   0  0  0  0  0  0  0  0  0  0  0  0
  -21.6460  -29.0990   21.5850 H   0  0  0  0  0  0  0  0  0  0  0  0
  -18.7580  -27.2120   22.5190 C   0  0  0  0  0  0  0  0  0  0  0  0
  -21.2270  -27.6970   23.1070 C   0  0  0  0  0  3  0  0  0  0  0  0
  -21.5130  -26.2430   22.6640 C   0  0  0  0  0  2  0  0  0  0  0  0
  -20.5870  -25.7620   21.5410 C   0  0  0  0  0  2  0  0  0  0  0  0
  -19.1230  -25.8390   21.9820 C   0  0  0  0  0  2  0  0  0  0  0  0
  -19.7480  -28.0910   23.0330 C   0  0  0  0  0  0  0  0  0  0  0  0
  -19.3610  -29.3710   23.4860 C   0  0  0  0  0  3  0  0  0  0  0  0
  -18.0130  -29.7730   23.4360 C   0  0  0  0  0  3  0  0  0  0  0  0
  -17.0350  -28.8940   22.9420 C   0  0  0  0  0  3  0  0  0  0  0  0
  -17.4070  -27.6160   22.4890 C   0  0  0  0  0  3  0  0  0  0  0  0
  -26.0860  -32.3200   24.1250 C   0  0  0  0  0  3  0  0  0  0  0  0
  -25.6330  -33.7000   24.3420 N   0  0  0  0  0  0  0  0  0  0  0  0
  -25.9630  -34.7390   23.5620 C   0  0  0  0  0  0  0  0  0  0  0  0
  -26.7470  -34.6430   22.6140 O   0  0  0  0  0  0  0  0  0  0  0  0
  -24.9440  -33.8440   25.0670 H   0  0  0  0  0  0  0  0  0  0  0  0
  -24.1360  -36.3480   22.9320 C   0  0  0  0  0  1  0  0  0  0  0  0
  -25.3180  -36.0990   23.8840 C   0  0  0  0  0  3  0  0  0  0  0  0
  -27.2760  -37.2100   24.8640 C   0  0  0  0  0  1  0  0  0  0  0  0
  -26.2650  -37.2330   23.8100 N   0  0  0  0  0  0  0  0  0  0  0  0
  -25.7710  -38.1200   23.8640 H   0  0  0  0  0  0  0  0  0  0  0  0
  -26.5140  -31.6520   25.4890 C   0  0  1  0  0  0  0  0  0  0  0  0
  -25.3250  -31.3250   26.4220 C   0  0  0  0  0  1  0  0  0  0  0  0
  -27.2870  -30.3370   25.2320 C   0  0  0  0  0  1  0  0  0  0  0  0
  -27.4780  -32.5900   26.2540 C   0  0  0  0  0  1  0  0  0  0  0  0
  1 58  1  0
  2  1  1  0
  2  5  1  0
  3  2  1  0
  4  2  1  0
  5  6  1  0
  7  6  1  0
  8 13  1  0
  9 10  1  0
  9  8  1  0
 11 10  1  0
 11 18  1  0
 11 12  1  0
 13  7  1  0
 13 12  1  0
 14  7  2  0
 15 18  1  0
 15 16  2  0
 16 35  1  0
 16 17  1  0
 17 20  1  0
 18 19  1  0
 19 17  2  0
 20 21  1  0
 21 22  2  0
 23 26  1  0
 23 22  1  0
 24 23  2  0
 25 24  1  0
 25 20  2  0
 26 27  1  0
 27 32  2  0
 27 28  1  0
 28 29  2  0
 29 30  1  0
 30 34  1  0
 31 30  2  0
 32 31  1  0
 33 32  1  0
 35 36  1  0
 36 39  1  0
 36 38  1  0
 37 35  2  0
 40 15  1  0
 41 40  1  0
 42 40  1  0
 45 43  1  6
 45 44  1  0
 45  1  1  0
 46 45  1  0
 46 54  1  0
 47 49  1  0
 47 46  1  0
 48 47  2  0
 49 52  1  0
 50 48  1  0
 51 48  1  0
 53 49  1  0
 55 54  1  0
 55 57  1  0
 56 57  1  0
 58 59  1  0
 60 61  1  0
 60 59  1  0
 62 61  1  0
 62 63  1  0
 64 62  1  0
 65 62  1  0
 66 65  1  0
 66 67  1  0
 68 79  2  0
 69 67  1  0
 69 74  1  0
 70 78  1  0
 70 80  1  0
 71 73  1  0
 72 78  1  0
 73 74  2  0
 73 72  1  0
 75 69  2  0
 76 75  1  0
 76 71  2  0
 77 71  1  0
 77 70  1  0
 78 68  1  0
 80 82  2  0
 81 80  1  0
 83 81  1  0
 84 89  1  0
 85 81  1  0
 86 85  1  0
 87 88  1  0
 87 86  1  0
 88 84  1  0
 89 85  1  0
 89 90  2  0
 91 90  1  0
 92 91  2  0
 93 84  2  0
 93 92  1  0
 94 68  1  0
 94 95  1  0
 94104  1  0
 95 98  1  0
 96100  1  0
 96 95  1  0
 97 96  2  0
100 99  1  0
102103  1  0
102100  1  0
102101  1  0
104107  1  1
104105  1  0
106104  1  0
M  ISO  4   6 100   7 100  66 101  67 101
M  END
>  <TORSDO>  (6) 
F 32

>  <SCORE>  (6) 
-2.883

>  <name>  (6) 
5

>  <ligand_id>  (6) 
5

>  <original_smiles>  (6) 
[H]c1c([H])c([H])c2c(c1[H])C([H])([H])C([H])([H])C([H])([H])C2([H])N([H])C(=O)C1([H])N(C(=O)C([H])(N([H])C(=O)C([H])(N([H])C([H])([H])[H])C([H])([H])[H])C(C([H])([H])[H])(C([H])([H])[H])C([H])([H])[H])C([H])([H])c2c([H])c(OC([H])([H])C([H])([H])[N+]([H])([H])C([H])([H])C([H])([H])C([H])([H])C([H])([H])C([H])(C(C([H])([H])[H])(C([H])([H])[H])C([H])(C(N([H])[H])=[N+]([H])[H])C([H])([H])C([H])([H])C([H])([H])C([H])([H])[H])[N+]([H])([H])C([H])([H])C([H])([H])C(=O)N3C([H])([H])C([H])([H])C([H])([H])C([H])(n4nc(-c5c([H])c([H])c(Oc6c([H])c([H])c(F)c([H])c6F)c([H])c5[H])c(C(=O)N([H])[H])c4N([H])[H])C3([H])[H])c([H])c([H])c2C1([H])[H]

>  <smiles>  (6) 
[H]c1c([H])c([H])c2c(c1[H])C([H])([H])C([H])([H])C([H])([H])C2([H])N([H])C(=O)C1([H])N(C(=O)C([H])(N([H])C(=O)C([H])(N([H])C([H])([H])[H])C([H])([H])[H])C(C([H])([H])[H])(C([H])([H])[H])C([H])([H])[H])C([H])([H])c2c([H])c(OC([H])([H])C([H])([H])[N+]([H])([H])C([H])([H])C([H])([H])C([H])([H])C([H])([H])C([H])(C(C([H])([H])[H])(C([H])([H])[H])C([H])(C(N([H])[H])=[N+]([H])[H])C([H])([H])C([H])([H])C([H])([H])C([H])([H])[H])[N+]([H])([H])C([H])([H])C([H])([H])C(=O)N3C([H])([H])C([H])([H])C([H])([H])C([H])(n4nc(-c5c([H])c([H])c(Oc6c([H])c([H])c(F)c([H])c6F)c([H])c5[H])c(C(=O)N([H])[H])c4N([H])[H])C3([H])[H])c([H])c([H])c2C1([H])[H]

$$$$
6:0:0
     RDKit          3D

108116  0  0  1  0  0  0  0  0999 V2000
  -28.9490  -21.5360   17.8710 C   0  0  0  0  0  3  0  0  0  0  0  0
  -30.1200  -21.1030   17.2160 C   0  0  0  0  0  3  0  0  0  0  0  0
  -31.3420  -21.3920   19.3000 C   0  0  0  0  0  3  0  0  0  0  0  0
  -28.9480  -21.8830   19.2440 C   0  0  0  0  0  0  0  0  0  0  0  0
  -31.3410  -21.0260   17.9150 C   0  0  0  0  0  0  0  0  0  0  0  0
  -30.1600  -21.8140   19.9990 C   0  0  0  0  0  0  0  0  0  0  0  0
  -27.6520  -22.2770   19.8110 C   0  0  0  0  0  0  0  0  0  0  0  0
  -26.9510  -23.2580   19.2470 N   0  0  0  0  0  4  0  0  0  0  0  0
  -27.1250  -21.6350   20.8490 N   0  0  0  0  0  0  0  0  0  0  0  0
  -27.3590  -23.7680   18.4780 H   0  0  0  0  0  0  0  0  0  0  0  0
  -26.0290  -23.5230   19.5500 H   0  0  0  0  0  0  0  0  0  0  0  0
  -27.5620  -20.7850   21.1700 H   0  0  0  0  0  0  0  0  0  0  0  0
  -26.2540  -21.9180   21.2750 H   0  0  0  0  0  0  0  0  0  0  0  0
  -32.6450  -20.6590   17.1550 C   0  0  0  0  0  2  0  0  0  0  0  0
  -33.6260  -19.3610   15.1430 C   0  0  0  0  0  0  0  0  0  0  0  0
  -34.8880  -19.7390   15.4030 N   0  0  0  0  0  4  0  0  0  0  0  0
  -32.5790  -19.8660   15.8780 N   0  0  0  0  0  0  0  0  0  0  0  0
  -35.6460  -19.3080   14.8900 H   0  0  0  0  0  0  0  0  0  0  0  0
  -35.1440  -20.4330   16.0880 H   0  0  0  0  0  0  0  0  0  0  0  0
  -31.6430  -19.5830   15.6020 H   0  0  0  0  0  0  0  0  0  0  0  0
  -33.4580  -18.3110   14.0250 C   0  0  0  0  0  3  0  0  0  0  0  0
  -34.5290  -19.7090   12.1720 C   0  0  0  0  0  0  0  0  0  0  0  0
  -35.5080  -20.6060   10.0740 C   0  0  0  0  0  2  0  0  0  0  0  0
  -34.9530  -19.8220    8.8660 C   0  0  0  0  0  2  0  0  0  0  0  0
  -35.7900  -18.5540    8.6050 C   0  0  0  0  0  2  0  0  0  0  0  0
  -36.0380  -17.7260    9.8940 C   0  0  0  0  0  3  0  0  0  0  0  0
  -36.5170  -18.6280   11.0530 C   0  0  0  0  0  2  0  0  0  0  0  0
  -35.5160  -19.6910   11.2290 N   0  0  0  0  0  0  0  0  0  0  0  0
  -33.7930  -20.6860   12.3340 O   0  0  0  0  0  0  0  0  0  0  0  0
  -34.2980  -18.5390   12.8200 N   0  0  0  0  0  0  0  0  0  0  0  0
  -34.8700  -17.7610   12.5380 H   0  0  0  0  0  0  0  0  0  0  0  0
  -37.8930  -16.0560   10.5080 C   0  0  0  0  0  0  0  0  0  0  0  0
  -38.4360  -15.0010    9.8260 C   0  0  0  0  0  0  0  0  0  0  0  0
  -37.7830  -14.9720    8.5550 C   0  0  0  0  0  0  0  0  0  0  0  0
  -36.9560  -16.6170    9.6540 N   0  0  0  0  0  0  0  0  0  0  0  0
  -36.9370  -15.9900    8.4500 N   0  0  0  0  0  0  0  0  0  0  0  0
  -37.8710  -14.0010    7.4570 C   0  0  0  0  0  0  0  0  0  0  0  0
  -38.8420  -12.9770    7.4530 C   0  0  0  0  0  3  0  0  0  0  0  0
  -38.8940  -12.0450    6.3950 C   0  0  0  0  0  3  0  0  0  0  0  0
  -37.9690  -12.1290    5.3280 C   0  0  0  0  0  0  0  0  0  0  0  0
  -37.0180  -13.1640    5.3250 C   0  0  0  0  0  3  0  0  0  0  0  0
  -36.9710  -14.0950    6.3770 C   0  0  0  0  0  3  0  0  0  0  0  0
  -37.9600  -11.2830    4.2460 O   0  0  0  0  0  0  0  0  0  0  0  0
  -36.8240  -10.6180    3.8610 C   0  0  0  0  0  0  0  0  0  0  0  0
  -35.8550  -11.2170    3.0280 C   0  0  0  0  0  3  0  0  0  0  0  0
  -34.7360  -10.4750    2.6000 C   0  0  0  0  0  3  0  0  0  0  0  0
  -34.5880   -9.1320    2.9970 C   0  0  0  0  0  0  0  0  0  0  0  0
  -35.5550   -8.5310    3.8220 C   0  0  0  0  0  3  0  0  0  0  0  0
  -36.6700   -9.2720    4.2510 C   0  0  0  0  0  0  0  0  0  0  0  0
  -37.6100   -8.6810    5.0300 F   0  0  0  0  0  0  0  0  0  0  0  0
  -33.5190   -8.4150    2.5800 F   0  0  0  0  0  0  0  0  0  0  0  0
  -39.4360  -14.0140   10.3550 C   0  0  0  0  0  0  0  0  0  0  0  0
  -40.4490  -13.6820    9.5640 N   0  0  0  0  0  0  0  0  0  0  0  0
  -39.3490  -13.5670   11.4990 O   0  0  0  0  0  0  0  0  0  0  0  0
  -40.5300  -14.0640    8.6330 H   0  0  0  0  0  0  0  0  0  0  0  0
  -41.1530  -13.0360    9.8910 H   0  0  0  0  0  0  0  0  0  0  0  0
  -38.0970  -16.5690   11.7850 N   0  0  0  0  0  0  0  0  0  0  0  0
  -38.7240  -16.1240   12.4470 H   0  0  0  0  0  0  0  0  0  0  0  0
  -37.5530  -17.3170   12.1970 H   0  0  0  0  0  0  0  0  0  0  0  0
  -31.9800  -18.1820   13.6010 C   0  0  0  0  0  2  0  0  0  0  0  0
  -31.2100  -19.5190   13.6000 C   0  0  0  0  0  2  0  0  0  0  0  0
  -30.7970  -19.9610   12.1910 C   0  0  0  0  0  2  0  0  0  0  0  0
  -30.0300  -18.5820   10.4380 C   0  0  0  0  0  0  0  0  0  0  0  0
  -29.0870  -17.5590    9.8460 C   0  0  0  0  0  1  0  0  0  0  0  0
  -31.1250  -19.0450    9.4910 C   0  0  0  0  0  1  0  0  0  0  0  0
  -29.8710  -18.9880   11.6360 N   0  0  0  0  0  0  0  0  0  0  0  0
  -30.2020  -22.0610   21.5450 C   0  0  0  0  0  2  0  0  0  0  0  0
  -31.4540  -22.4300   22.1800 O   0  0  0  0  0  0  0  0  0  0  0  0
  -36.9460  -21.2610   17.6810 C   0  0  0  0  0  0  0  0  0  0  0  0
  -32.5900  -21.7210   21.8360 C   0  0  0  0  0  0  0  0  0  0  0  0
  -36.4980  -19.5150   19.3700 C   0  0  0  0  0  3  0  0  0  0  0  0
  -34.8810  -20.1600   21.2370 C   0  0  0  0  0  0  0  0  0  0  0  0
  -35.9010  -21.9600   19.8400 C   0  0  0  0  0  2  0  0  0  0  0  0
  -34.7700  -21.4580   20.7230 C   0  0  0  0  0  0  0  0  0  0  0  0
  -33.6280  -22.2470   21.0190 C   0  0  0  0  0  3  0  0  0  0  0  0
  -32.7450  -20.4280   22.3730 C   0  0  0  0  0  3  0  0  0  0  0  0
  -33.8690  -19.6400   22.0640 C   0  0  0  0  0  3  0  0  0  0  0  0
  -36.1150  -19.3650   20.8650 C   0  0  0  0  0  2  0  0  0  0  0  0
  -36.4430  -20.9380   18.9070 N   0  0  0  0  0  0  0  0  0  0  0  0
  -37.4770  -20.4050   16.9570 O   0  0  0  0  0  0  0  0  0  0  0  0
  -35.6070  -18.5650   18.5330 C   0  0  0  0  0  0  0  0  0  0  0  0
  -35.4240  -17.3270   19.0240 N   0  0  0  0  0  0  0  0  0  0  0  0
  -35.0750  -18.9540   17.4900 O   0  0  0  0  0  0  0  0  0  0  0  0
  -35.8970  -17.0840   19.8830 H   0  0  0  0  0  0  0  0  0  0  0  0
  -33.9790  -14.0650   19.6100 C   0  0  0  0  0  0  0  0  0  0  0  0
  -34.5950  -16.2800   18.4280 C   0  0  0  0  0  3  0  0  0  0  0  0
  -33.0930  -16.6340   18.5300 C   0  0  0  0  0  2  0  0  0  0  0  0
  -32.4190  -16.0510   19.7760 C   0  0  0  0  0  2  0  0  0  0  0  0
  -32.5410  -14.5240   19.7900 C   0  0  0  0  0  2  0  0  0  0  0  0
  -34.9470  -14.8950   18.9840 C   0  0  0  0  0  0  0  0  0  0  0  0
  -36.2760  -14.4340   18.8710 C   0  0  0  0  0  3  0  0  0  0  0  0
  -36.6440  -13.1700   19.3670 C   0  0  0  0  0  3  0  0  0  0  0  0
  -35.6790  -12.3440   19.9720 C   0  0  0  0  0  3  0  0  0  0  0  0
  -34.3500  -12.7890   20.0870 C   0  0  0  0  0  3  0  0  0  0  0  0
  -36.8980  -22.7240   17.1380 C   0  0  0  0  0  3  0  0  0  0  0  0
  -36.7050  -22.8000   15.5750 C   0  0  1  0  0  0  0  0  0  0  0  0
  -37.5910  -21.8060   14.7880 C   0  0  0  0  0  1  0  0  0  0  0  0
  -35.2320  -22.5240   15.1910 C   0  0  0  0  0  1  0  0  0  0  0  0
  -37.0300  -24.2280   15.0760 C   0  0  0  0  0  1  0  0  0  0  0  0
  -38.1460  -23.3860   17.5400 N   0  0  0  0  0  0  0  0  0  0  0  0
  -38.3340  -24.0100   18.7100 C   0  0  0  0  0  0  0  0  0  0  0  0
  -37.4370  -24.1500   19.5470 O   0  0  0  0  0  0  0  0  0  0  0  0
  -38.9380  -23.2620   16.9270 H   0  0  0  0  0  0  0  0  0  0  0  0
  -40.5410  -23.5500   19.8260 C   0  0  0  0  0  1  0  0  0  0  0  0
  -39.7410  -24.5690   19.0000 C   0  0  0  0  0  3  0  0  0  0  0  0
  -39.3490  -26.9870   18.8340 C   0  0  0  0  0  1  0  0  0  0  0  0
  -39.7220  -25.8720   19.7000 N   0  0  0  0  0  0  0  0  0  0  0  0
  -40.6320  -26.0760   20.1050 H   0  0  0  0  0  0  0  0  0  0  0  0
  1  4  1  0
  2  1  2  0
  2  5  1  0
  3  6  1  0
  4  7  1  0
  4  6  2  0
  5  3  2  0
  6 67  1  0
  7  9  1  0
  8 11  1  0
  8  7  2  0
  9 12  1  0
  9 13  1  0
 10  8  1  0
 14  5  1  0
 15 16  2  0
 15 17  1  0
 16 19  1  0
 17 14  1  0
 18 16  1  0
 20 17  1  0
 21 60  1  0
 21 15  1  0
 22 29  2  0
 22 30  1  0
 23 28  1  0
 24 23  1  0
 25 24  1  0
 26 25  1  0
 26 27  1  0
 27 28  1  0
 28 22  1  0
 30 21  1  0
 31 30  1  0
 32 57  1  0
 33 52  1  0
 33 32  2  0
 34 33  1  0
 35 26  1  0
 35 32  1  0
 36 34  2  0
 36 35  1  0
 37 34  1  0
 38 37  1  0
 39 38  2  0
 40 39  1  0
 41 40  2  0
 41 42  1  0
 42 37  2  0
 43 40  1  0
 44 43  1  0
 44 49  1  0
 45 44  2  0
 46 47  2  0
 46 45  1  0
 47 48  1  0
 48 49  2  0
 49 50  1  0
 51 47  1  0
 52 54  2  0
 53 56  1  0
 53 52  1  0
 55 53  1  0
 57 59  1  0
 57 58  1  0
 61 60  1  0
 62 61  1  0
 63 66  2  0
 64 63  1  0
 65 63  1  0
 66 62  1  0
 67 68  1  0
 69 79  1  0
 70 68  1  0
 70 76  1  0
 71 81  1  0
 71 78  1  0
 72 77  1  0
 73 74  1  0
 74 75  1  0
 74 72  2  0
 75 70  2  0
 77 76  2  0
 78 72  1  0
 79 71  1  0
 79 73  1  0
 80 69  2  0
 81 82  1  0
 82 84  1  0
 83 81  2  0
 85 89  1  0
 85 94  1  0
 86 87  1  0
 86 90  1  0
 86 82  1  0
 87 88  1  0
 88 89  1  0
 90 85  2  0
 91 90  1  0
 91 92  2  0
 92 93  1  0
 93 94  2  0
 95100  1  0
 95 69  1  0
 96 95  1  0
 96 97  1  6
 98 96  1  0
 99 96  1  0
100101  1  0
101105  1  0
101102  2  0
103100  1  0
105107  1  0
105104  1  0
106107  1  0
107108  1  0
M  ISO  4  22 100  30 100  67 101  68 101
M  END
>  <TORSDO>  (7) 
F 25

>  <SCORE>  (7) 
-1.218

>  <name>  (7) 
6

>  <ligand_id>  (7) 
6

>  <original_smiles>  (7) 
[H]c1c([H])c([H])c2c(c1[H])C([H])([H])C([H])([H])C([H])([H])C2([H])N([H])C(=O)C1([H])N(C(=O)C([H])(N([H])C(=O)C([H])(N([H])C([H])([H])[H])C([H])([H])[H])C(C([H])([H])[H])(C([H])([H])[H])C([H])([H])[H])C([H])([H])c2c([H])c(OC([H])([H])c3c([H])c(C([H])([H])[N+]([H])=C(N([H])[H])C([H])(N([H])C(=O)N4C([H])([H])C([H])([H])C([H])([H])C([H])(n5nc(-c6c([H])c([H])c(Oc7c([H])c([H])c(F)c([H])c7F)c([H])c6[H])c(C(=O)N([H])[H])c5N([H])[H])C4([H])[H])C([H])([H])C([H])([H])C([H])([H])N=C(C([H])([H])[H])C([H])([H])[H])c([H])c([H])c3C(N([H])[H])=[N+]([H])[H])c([H])c([H])c2C1([H])[H]

>  <smiles>  (7) 
[H]c1c([H])c([H])c2c(c1[H])C([H])([H])C([H])([H])C([H])([H])C2([H])N([H])C(=O)C1([H])N(C(=O)C([H])(N([H])C(=O)C([H])(N([H])C([H])([H])[H])C([H])([H])[H])C(C([H])([H])[H])(C([H])([H])[H])C([H])([H])[H])C([H])([H])c2c([H])c(OC([H])([H])c3c([H])c(C([H])([H])[N+]([H])=C(N([H])[H])C([H])(N([H])C(=O)N4C([H])([H])C([H])([H])C([H])([H])C([H])(n5nc(-c6c([H])c([H])c(Oc7c([H])c([H])c(F)c([H])c7F)c([H])c6[H])c(C(=O)N([H])[H])c5N([H])[H])C4([H])[H])C([H])([H])C([H])([H])C([H])([H])N=C(C([H])([H])[H])C([H])([H])[H])c([H])c([H])c3C(N([H])[H])=[N+]([H])[H])c([H])c([H])c2C1([H])[H]

$$$$
7:0:0
     RDKit          3D

108115  0  0  1  0  0  0  0  0999 V2000
  -28.3610  -21.3130   19.7510 C   0  0  0  0  0  3  0  0  0  0  0  0
  -29.3810  -22.3130   19.3700 N   0  0  0  0  0  4  0  0  0  0  0  0
  -30.3090  -21.9440   19.4810 H   0  0  0  0  0  0  0  0  0  0  0  0
  -29.2980  -23.1430   19.9290 H   0  0  0  0  0  0  0  0  0  0  0  0
  -29.2570  -22.5860   18.4110 H   0  0  0  0  0  0  0  0  0  0  0  0
  -28.3800  -20.1160   18.7570 C   0  0  0  0  0  3  0  0  0  0  0  0
  -29.5250  -18.3460   20.0760 C   0  0  0  0  0  0  0  0  0  0  0  0
  -29.5010  -19.2180   19.0590 N   0  0  0  0  0  0  0  0  0  0  0  0
  -28.5170  -18.0420   20.7170 O   0  0  0  0  0  0  0  0  0  0  0  0
  -30.3530  -19.3300   18.5280 H   0  0  0  0  0  0  0  0  0  0  0  0
  -30.9010  -17.8110   20.4790 C   0  0  0  0  0  2  0  0  0  0  0  0
  -30.9310  -17.0150   21.8060 C   0  0  0  0  0  2  0  0  0  0  0  0
  -30.9400  -14.7120   20.8840 C   0  0  0  0  0  0  0  0  0  0  0  0
  -30.7220  -12.4100   20.0450 C   0  0  0  0  0  2  0  0  0  0  0  0
  -29.9300  -12.3620   18.7270 C   0  0  0  0  0  2  0  0  0  0  0  0
  -28.4180  -12.2750   19.0040 C   0  0  0  0  0  2  0  0  0  0  0  0
  -27.9360  -13.3470   20.0150 C   0  0  0  0  0  3  0  0  0  0  0  0
  -28.8410  -13.3670   21.2650 C   0  0  0  0  0  2  0  0  0  0  0  0
  -30.2410  -13.5520   20.8330 N   0  0  0  0  0  0  0  0  0  0  0  0
  -32.0040  -14.8970   20.2850 O   0  0  0  0  0  0  0  0  0  0  0  0
  -30.4120  -15.6560   21.6650 N   0  0  0  0  0  0  0  0  0  0  0  0
  -29.5630  -15.4240   22.1590 H   0  0  0  0  0  0  0  0  0  0  0  0
  -25.5110  -14.0740   20.4960 C   0  0  0  0  0  0  0  0  0  0  0  0
  -24.3780  -13.3550   20.7720 C   0  0  0  0  0  0  0  0  0  0  0  0
  -24.7770  -11.9850   20.7940 C   0  0  0  0  0  0  0  0  0  0  0  0
  -26.5310  -13.1440   20.3700 N   0  0  0  0  0  0  0  0  0  0  0  0
  -26.0860  -11.8830   20.6020 N   0  0  0  0  0  0  0  0  0  0  0  0
  -23.9810  -10.7590   20.9330 C   0  0  0  0  0  0  0  0  0  0  0  0
  -24.2510   -9.8130   21.9460 C   0  0  0  0  0  3  0  0  0  0  0  0
  -23.4590   -8.6510   22.0700 C   0  0  0  0  0  3  0  0  0  0  0  0
  -22.3830   -8.4270   21.1780 C   0  0  0  0  0  0  0  0  0  0  0  0
  -22.1330   -9.3610   20.1580 C   0  0  0  0  0  3  0  0  0  0  0  0
  -22.9240  -10.5140   20.0330 C   0  0  0  0  0  3  0  0  0  0  0  0
  -21.5780   -7.3140   21.2060 O   0  0  0  0  0  0  0  0  0  0  0  0
  -21.3250   -6.6370   22.3720 C   0  0  0  0  0  0  0  0  0  0  0  0
  -20.7290   -7.2680   23.4850 C   0  0  0  0  0  3  0  0  0  0  0  0
  -20.4230   -6.5180   24.6390 C   0  0  0  0  0  3  0  0  0  0  0  0
  -20.7030   -5.1380   24.6780 C   0  0  0  0  0  0  0  0  0  0  0  0
  -21.2920   -4.5080   23.5670 C   0  0  0  0  0  3  0  0  0  0  0  0
  -21.5990   -5.2550   22.4170 C   0  0  0  0  0  0  0  0  0  0  0  0
  -22.1470   -4.6380   21.3420 F   0  0  0  0  0  0  0  0  0  0  0  0
  -20.4030   -4.4170   25.7830 F   0  0  0  0  0  0  0  0  0  0  0  0
  -22.9870  -13.8990   20.9190 C   0  0  0  0  0  0  0  0  0  0  0  0
  -22.1640  -13.2630   21.7450 N   0  0  0  0  0  0  0  0  0  0  0  0
  -22.6350  -14.9250   20.3370 O   0  0  0  0  0  0  0  0  0  0  0  0
  -22.4590  -12.4330   22.2390 H   0  0  0  0  0  0  0  0  0  0  0  0
  -21.2260  -13.6090   21.8870 H   0  0  0  0  0  0  0  0  0  0  0  0
  -25.7560  -15.4340   20.3320 N   0  0  0  0  0  0  0  0  0  0  0  0
  -25.0230  -16.1280   20.4270 H   0  0  0  0  0  0  0  0  0  0  0  0
  -26.6770  -15.8380   20.2330 H   0  0  0  0  0  0  0  0  0  0  0  0
  -28.4210  -20.5810   17.2830 C   0  0  0  0  0  2  0  0  0  0  0  0
  -28.2600  -19.4510   16.2500 C   0  0  0  0  0  2  0  0  0  0  0  0
  -28.2960  -19.9850   14.8060 C   0  0  0  0  0  2  0  0  0  0  0  0
  -27.9250  -18.9360   13.7400 C   0  0  0  0  0  2  0  0  0  0  0  0
  -28.9920  -17.9410   13.5280 N   0  0  0  0  0  4  0  0  0  0  0  0
  -29.8380  -18.3910   13.2250 H   0  0  0  0  0  0  0  0  0  0  0  0
  -28.7150  -17.2950   12.8090 H   0  0  0  0  0  0  0  0  0  0  0  0
  -29.1840  -17.4210   14.3640 H   0  0  0  0  0  0  0  0  0  0  0  0
  -28.5590  -20.8620   21.2240 C   0  0  0  0  0  2  0  0  0  0  0  0
  -28.8120  -22.0080   22.2130 C   0  0  0  0  0  2  0  0  0  0  0  0
  -29.1640  -21.5240   23.6320 C   0  0  0  0  0  2  0  0  0  0  0  0
  -29.8470  -22.5970   24.5030 C   0  0  0  0  0  2  0  0  0  0  0  0
  -29.0610  -23.8480   24.5770 N   0  0  0  0  0  4  0  0  0  0  0  0
  -29.0050  -24.0860   25.5550 H   0  0  0  0  0  0  0  0  0  0  0  0
  -28.1140  -23.6740   24.2800 H   0  0  0  0  0  0  0  0  0  0  0  0
  -29.6280  -25.0250   23.8650 C   0  0  0  0  0  2  0  0  0  0  0  0
  -29.8580  -24.7950   22.3510 C   0  0  0  0  0  2  0  0  0  0  0  0
  -30.0590  -26.0100   21.6320 O   0  0  0  0  0  0  0  0  0  0  0  0
  -25.6850  -31.1760   23.6530 C   0  0  0  0  0  0  0  0  0  0  0  0
  -28.8980  -26.6770   21.3560 C   0  0  0  0  0  0  0  0  0  0  0  0
  -24.7890  -29.6260   21.9440 C   0  0  0  0  0  3  0  0  0  0  0  0
  -26.4900  -28.0510   20.8800 C   0  0  0  0  0  0  0  0  0  0  0  0
  -27.2980  -30.0740   22.1130 C   0  0  0  0  0  2  0  0  0  0  0  0
  -27.5210  -28.6710   21.5960 C   0  0  0  0  0  0  0  0  0  0  0  0
  -28.7330  -27.9930   21.8270 C   0  0  0  0  0  3  0  0  0  0  0  0
  -27.8600  -26.0550   20.6300 C   0  0  0  0  0  3  0  0  0  0  0  0
  -26.6530  -26.7420   20.3900 C   0  0  0  0  0  3  0  0  0  0  0  0
  -25.2310  -28.8590   20.6680 C   0  0  0  0  0  2  0  0  0  0  0  0
  -25.9320  -30.3100   22.6310 N   0  0  0  0  0  0  0  0  0  0  0  0
  -24.5250  -31.4460   23.9960 O   0  0  0  0  0  0  0  0  0  0  0  0
  -24.0190  -28.6510   22.8600 C   0  0  0  0  0  0  0  0  0  0  0  0
  -22.7520  -28.3760   22.5060 N   0  0  0  0  0  0  0  0  0  0  0  0
  -24.5640  -28.1380   23.8410 O   0  0  0  0  0  0  0  0  0  0  0  0
  -22.3780  -28.8410   21.6910 H   0  0  0  0  0  0  0  0  0  0  0  0
  -19.4140  -26.9960   22.4500 C   0  0  0  0  0  0  0  0  0  0  0  0
  -21.8460  -27.4590   23.1950 C   0  0  0  0  0  3  0  0  0  0  0  0
  -22.1380  -25.9930   22.8040 C   0  0  0  0  0  2  0  0  0  0  0  0
  -21.2820  -25.4990   21.6320 C   0  0  0  0  0  2  0  0  0  0  0  0
  -19.7930  -25.6050   21.9700 C   0  0  0  0  0  2  0  0  0  0  0  0
  -20.3820  -27.8720   23.0110 C   0  0  0  0  0  0  0  0  0  0  0  0
  -19.9840  -29.1670   23.4100 C   0  0  0  0  0  3  0  0  0  0  0  0
  -18.6510  -29.5890   23.2570 C   0  0  0  0  0  3  0  0  0  0  0  0
  -17.6940  -28.7140   22.7140 C   0  0  0  0  0  3  0  0  0  0  0  0
  -18.0750  -27.4190   22.3180 C   0  0  0  0  0  3  0  0  0  0  0  0
  -26.8420  -31.8860   24.4240 C   0  0  0  0  0  3  0  0  0  0  0  0
  -26.5470  -33.3250   24.4310 N   0  0  0  0  0  0  0  0  0  0  0  0
  -27.0750  -34.2110   23.5770 C   0  0  0  0  0  0  0  0  0  0  0  0
  -27.9250  -33.9090   22.7360 O   0  0  0  0  0  0  0  0  0  0  0  0
  -25.8160  -33.6330   25.0540 H   0  0  0  0  0  0  0  0  0  0  0  0
  -25.5220  -35.9220   22.5850 C   0  0  0  0  0  1  0  0  0  0  0  0
  -26.5800  -35.6670   23.6710 C   0  0  0  0  0  3  0  0  0  0  0  0
  -28.5790  -36.6590   24.6940 C   0  0  0  0  0  1  0  0  0  0  0  0
  -27.6650  -36.6660   23.5550 N   0  0  0  0  0  0  0  0  0  0  0  0
  -27.2820  -37.6030   23.4610 H   0  0  0  0  0  0  0  0  0  0  0  0
  -27.0360  -31.3450   25.8930 C   0  0  1  0  0  0  0  0  0  0  0  0
  -25.7320  -31.3260   26.7240 C   0  0  0  0  0  1  0  0  0  0  0  0
  -27.6050  -29.9060   25.8720 C   0  0  0  0  0  1  0  0  0  0  0  0
  -28.0700  -32.2190   26.6420 C   0  0  0  0  0  1  0  0  0  0  0  0
  1 59  1  0
  2  3  1  0
  2  1  1  0
  2  4  1  0
  5  2  1  0
  6 51  1  0
  6  8  1  0
  6  1  1  0
  7 11  1  0
  7  9  2  0
  8  7  1  0
 10  8  1  0
 11 12  1  0
 13 21  1  0
 14 19  1  0
 15 16  1  0
 15 14  1  0
 17 16  1  0
 17 26  1  0
 17 18  1  0
 19 13  1  0
 19 18  1  0
 20 13  2  0
 21 12  1  0
 21 22  1  0
 23 24  2  0
 24 25  1  0
 24 43  1  0
 25 28  1  0
 26 23  1  0
 26 27  1  0
 27 25  2  0
 28 29  1  0
 29 30  2  0
 31 34  1  0
 31 30  1  0
 32 31  2  0
 33 32  1  0
 33 28  2  0
 34 35  1  0
 35 40  2  0
 35 36  1  0
 36 37  2  0
 37 38  1  0
 38 42  1  0
 39 38  2  0
 40 39  1  0
 41 40  1  0
 43 44  1  0
 44 47  1  0
 44 46  1  0
 45 43  2  0
 48 49  1  0
 48 23  1  0
 50 48  1  0
 52 51  1  0
 53 52  1  0
 54 53  1  0
 55 54  1  0
 55 58  1  0
 56 55  1  0
 57 55  1  0
 59 60  1  0
 60 61  1  0
 61 62  1  0
 62 63  1  0
 63 64  1  0
 65 63  1  0
 66 63  1  0
 67 66  1  0
 68 67  1  0
 69 80  2  0
 70 68  1  0
 70 75  1  0
 71 79  1  0
 71 81  1  0
 72 74  1  0
 73 79  1  0
 74 75  2  0
 74 73  1  0
 76 70  2  0
 77 76  1  0
 77 72  2  0
 78 72  1  0
 78 71  1  0
 79 69  1  0
 81 83  2  0
 82 81  1  0
 84 82  1  0
 85 90  1  0
 86 82  1  0
 87 86  1  0
 88 89  1  0
 88 87  1  0
 89 85  1  0
 90 86  1  0
 90 91  2  0
 92 91  1  0
 93 92  2  0
 94 85  2  0
 94 93  1  0
 95 69  1  0
 95 96  1  0
 95105  1  0
 96 99  1  0
 97101  1  0
 97 96  1  0
 98 97  2  0
101100  1  0
103101  1  0
103102  1  0
104103  1  0
105108  1  1
105106  1  0
107105  1  0
M  ISO  4  13 100  21 100  67 101  68 101
M  END
>  <TORSDO>  (8) 
F 33

>  <SCORE>  (8) 
-4.691

>  <name>  (8) 
7

>  <ligand_id>  (8) 
7

>  <original_smiles>  (8) 
[H]c1c([H])c([H])c2c(c1[H])C([H])([H])C([H])([H])C([H])([H])C2([H])N([H])C(=O)C1([H])N(C(=O)C([H])(N([H])C(=O)C([H])(N([H])C([H])([H])[H])C([H])([H])[H])C(C([H])([H])[H])(C([H])([H])[H])C([H])([H])[H])C([H])([H])c2c([H])c(OC([H])([H])C([H])([H])[N+]([H])([H])C([H])([H])C([H])([H])C([H])([H])C([H])([H])C([H])(C([H])(N([H])C(=O)C([H])([H])C([H])([H])N([H])C(=O)N3C([H])([H])C([H])([H])C([H])([H])C([H])(n4nc(-c5c([H])c([H])c(Oc6c([H])c([H])c(F)c([H])c6F)c([H])c5[H])c(C(=O)N([H])[H])c4N([H])[H])C3([H])[H])C([H])([H])C([H])([H])C([H])([H])C([H])([H])[N+]([H])([H])[H])[N+]([H])([H])[H])c([H])c([H])c2C1([H])[H]

>  <smiles>  (8) 
[H]c1c([H])c([H])c2c(c1[H])C([H])([H])C([H])([H])C([H])([H])C2([H])N([H])C(=O)C1([H])N(C(=O)C([H])(N([H])C(=O)C([H])(N([H])C([H])([H])[H])C([H])([H])[H])C(C([H])([H])[H])(C([H])([H])[H])C([H])([H])[H])C([H])([H])c2c([H])c(OC([H])([H])C([H])([H])[N+]([H])([H])C([H])([H])C([H])([H])C([H])([H])C([H])([H])C([H])(C([H])(N([H])C(=O)C([H])([H])C([H])([H])N([H])C(=O)N3C([H])([H])C([H])([H])C([H])([H])C([H])(n4nc(-c5c([H])c([H])c(Oc6c([H])c([H])c(F)c([H])c6F)c([H])c5[H])c(C(=O)N([H])[H])c4N([H])[H])C3([H])[H])C([H])([H])C([H])([H])C([H])([H])C([H])([H])[N+]([H])([H])[H])[N+]([H])([H])[H])c([H])c([H])c2C1([H])[H]

$$$$
8:0:0
     RDKit          3D

101100  0  0  1  0  0  0  0  0999 V2000
  -29.4940  -25.6830   21.1800 C   0  0  0  0  0  1  0  0  0  0  0  0
  -29.9930  -22.5590   20.8130 C   0  0  0  0  0  0  0  0  0  0  0  0
  -29.5750  -23.9090   21.4930 N   0  0  0  0  0  0  0  0  0  0  0  0
  -30.5510  -22.8330   19.7460 O   0  0  0  0  0  0  0  0  0  0  0  0
  -29.1340  -23.7170   22.3830 H   0  0  0  0  0  0  0  0  0  0  0  0
  -32.1250  -18.8740   20.7700 C   0  0  0  0  0  2  0  0  0  0  0  0
  -32.7240  -20.2110   21.2930 C   0  0  0  0  0  2  0  0  0  0  0  0
  -30.5990  -20.7680   22.5580 C   0  0  0  0  0  2  0  0  0  0  0  0
  -29.9400  -20.6640   21.1430 C   0  0  0  0  0  2  0  0  0  0  0  0
  -30.5780  -18.7870   20.7610 C   0  0  0  0  0  2  0  0  0  0  0  0
  -32.0850  -20.7300   22.5330 N   0  0  0  0  0  4  0  0  0  0  0  0
  -32.4370  -21.6630   22.6780 H   0  0  0  0  0  0  0  0  0  0  0  0
  -32.3970  -20.1990   23.3230 H   0  0  0  0  0  0  0  0  0  0  0  0
  -30.7240  -15.5520   20.3070 C   0  0  0  0  0  0  0  0  0  0  0  0
  -30.6580  -12.9880   19.4440 C   0  0  0  0  0  2  0  0  0  0  0  0
  -29.7380  -12.4980   18.2780 C   0  0  0  0  0  2  0  0  0  0  0  0
  -28.3400  -12.1220   18.7850 C   0  0  0  0  0  2  0  0  0  0  0  0
  -27.8410  -13.1660   19.8030 C   0  0  0  0  0  3  0  0  0  0  0  0
  -28.9020  -13.5790   20.8690 C   0  0  0  0  0  2  0  0  0  0  0  0
  -30.0780  -14.2140   20.1850 N   0  0  0  0  0  0  0  0  0  0  0  0
  -31.9400  -15.3620   20.1270 O   0  0  0  0  0  0  0  0  0  0  0  0
  -30.1540  -17.0370   20.4400 N   0  0  0  0  0  0  0  0  0  0  0  0
  -29.1490  -16.9570   20.4030 H   0  0  0  0  0  0  0  0  0  0  0  0
  -25.5040  -13.7050   20.6430 C   0  0  0  0  0  0  0  0  0  0  0  0
  -24.4410  -12.9320   21.0380 C   0  0  0  0  0  0  0  0  0  0  0  0
  -24.8960  -11.5830   20.9790 C   0  0  0  0  0  0  0  0  0  0  0  0
  -26.5330  -12.8260   20.3650 N   0  0  0  0  0  0  0  0  0  0  0  0
  -26.1800  -11.5390   20.6240 N   0  0  0  0  0  0  0  0  0  0  0  0
  -24.1520  -10.3240   21.1810 C   0  0  0  0  0  0  0  0  0  0  0  0
  -24.5680   -9.3580   22.1230 C   0  0  0  0  0  3  0  0  0  0  0  0
  -23.8190   -8.1770   22.3180 C   0  0  0  0  0  3  0  0  0  0  0  0
  -22.6410   -7.9510   21.5720 C   0  0  0  0  0  0  0  0  0  0  0  0
  -22.2380   -8.9050   20.6220 C   0  0  0  0  0  3  0  0  0  0  0  0
  -22.9880  -10.0780   20.4240 C   0  0  0  0  0  3  0  0  0  0  0  0
  -21.8650   -6.8210   21.6790 O   0  0  0  0  0  0  0  0  0  0  0  0
  -21.7910   -6.1010   22.8430 C   0  0  0  0  0  0  0  0  0  0  0  0
  -21.3440   -6.6810   24.0500 C   0  0  0  0  0  3  0  0  0  0  0  0
  -21.2210   -5.8890   25.2090 C   0  0  0  0  0  3  0  0  0  0  0  0
  -21.5320   -4.5170   25.1620 C   0  0  0  0  0  0  0  0  0  0  0  0
  -21.9760   -3.9360   23.9610 C   0  0  0  0  0  3  0  0  0  0  0  0
  -22.1020   -4.7260   22.8040 C   0  0  0  0  0  0  0  0  0  0  0  0
  -22.5080   -4.1570   21.6430 F   0  0  0  0  0  0  0  0  0  0  0  0
  -21.4070   -3.7540   26.2720 F   0  0  0  0  0  0  0  0  0  0  0  0
  -23.0620  -13.4320   21.3460 C   0  0  0  0  0  0  0  0  0  0  0  0
  -22.3600  -12.7590   22.2570 N   0  0  0  0  0  0  0  0  0  0  0  0
  -22.6160  -14.4480   20.8210 O   0  0  0  0  0  0  0  0  0  0  0  0
  -22.7330  -11.9380   22.7060 H   0  0  0  0  0  0  0  0  0  0  0  0
  -21.4320  -13.0730   22.5060 H   0  0  0  0  0  0  0  0  0  0  0  0
  -25.6750  -15.0720   20.4710 N   0  0  0  0  0  0  0  0  0  0  0  0
  -24.9210  -15.7420   20.5990 H   0  0  0  0  0  0  0  0  0  0  0  0
  -26.5260  -15.5000   20.1220 H   0  0  0  0  0  0  0  0  0  0  0  0
  -29.2820  -27.4310   22.0770 C   0  0  0  0  0 15  0  0  0  0  0  0
  -28.5210  -29.2810   21.9960 C   0  0  0  0  0 15  0  0  0  0  0  0
  -27.0670  -30.6590   22.1750 C   0  0  0  0  0 15  0  0  0  0  0  0
  -25.1400  -31.1780   22.3890 C   0  0  0  0  0 15  0  0  0  0  0  0
  -23.4650  -31.2010   23.5140 C   0  0  0  0  0 15  0  0  0  0  0  0
  -22.4770  -29.9770   24.8040 C   0  0  0  0  0 15  0  0  0  0  0  0
  -22.9950  -28.0910   25.4140 C   0  0  0  0  0 15  0  0  0  0  0  0
  -24.1240  -26.6470   24.6290 C   0  0  0  0  0  1  0  0  0  0  0  0
  -24.4240  -25.4290   23.1350 C   0  0  0  0  0  2  0  0  0  0  0  0
  -25.4760  -25.0670   21.8120 O   0  0  0  0  0  0  0  0  0  0  0  0
  -25.6200  -28.9910   24.4060 C   0  0  0  0  0  0  0  0  0  0  0  0
  -25.5810  -25.5100   20.4550 C   0  0  0  0  0  3  0  0  0  0  0  0
  -23.5850  -28.8220   22.1200 C   0  0  0  0  0  3  0  0  0  0  0  0
  -24.4930  -27.8760   20.0980 C   0  0  0  0  0  3  0  0  0  0  0  0
  -25.7370  -27.7200   22.2730 C   0  0  0  0  0  2  0  0  0  0  0  0
  -25.6900  -27.6800   20.7700 C   0  0  0  0  0  3  0  0  0  0  0  0
  -26.3540  -26.6240   20.2120 C   0  0  0  0  0  2  0  0  0  0  0  0
  -24.5280  -25.5280   19.5210 C   0  0  0  0  0  2  0  0  0  0  0  0
  -23.9570  -26.8120   19.3150 C   0  0  0  0  0  2  0  0  0  0  0  0
  -23.6960  -28.9700   20.6140 C   0  0  0  0  0  2  0  0  0  0  0  0
  -25.0020  -28.5520   23.0590 N   0  0  0  0  0  0  0  0  0  0  0  0
  -25.0600  -29.4870   25.4030 O   0  0  0  0  0  0  0  0  0  0  0  0
  -22.2910  -27.9650   22.2950 C   0  0  0  0  0  0  0  0  0  0  0  0
  -21.0640  -28.4920   22.3920 N   0  0  0  0  0  0  0  0  0  0  0  0
  -22.4220  -26.8220   22.6100 O   0  0  0  0  0  0  0  0  0  0  0  0
  -20.9670  -29.4760   22.2080 H   0  0  0  0  0  0  0  0  0  0  0  0
  -17.5190  -28.2440   22.4900 C   0  0  0  0  0  0  0  0  0  0  0  0
  -19.9670  -27.7700   23.0830 C   0  0  0  0  0  3  0  0  0  0  0  0
  -19.7010  -26.3700   22.4850 C   0  0  0  0  0  2  0  0  0  0  0  0
  -18.8170  -26.4620   21.2540 C   0  0  0  0  0  2  0  0  0  0  0  0
  -17.4430  -26.9750   21.6660 C   0  0  0  0  0  2  0  0  0  0  0  0
  -18.7050  -28.6250   23.1630 C   0  0  0  0  0  0  0  0  0  0  0  0
  -18.7300  -29.8450   23.8710 C   0  0  0  0  0  3  0  0  0  0  0  0
  -17.6010  -30.6810   23.9000 C   0  0  0  0  0  3  0  0  0  0  0  0
  -16.4190  -30.2850   23.2550 C   0  0  0  0  0  3  0  0  0  0  0  0
  -16.3780  -29.0690   22.5580 C   0  0  0  0  0  3  0  0  0  0  0  0
  -27.0040  -29.1690   25.0240 C   0  0  0  0  0  3  0  0  0  0  0  0
  -27.1480  -30.5540   25.6840 N   0  0  0  0  0  0  0  0  0  0  0  0
  -27.7970  -31.6450   25.2800 C   0  0  0  0  0  0  0  0  0  0  0  0
  -28.5800  -31.5970   24.3410 O   0  0  0  0  0  0  0  0  0  0  0  0
  -26.3960  -30.7100   26.3380 H   0  0  0  0  0  0  0  0  0  0  0  0
  -26.9820  -34.0780   25.1780 C   0  0  0  0  0  1  0  0  0  0  0  0
  -27.6170  -32.9840   26.0530 C   0  0  0  0  0  3  0  0  0  0  0  0
  -29.4570  -32.6370   27.6460 C   0  0  0  0  0  1  0  0  0  0  0  0
  -28.8820  -33.5030   26.6150 N   0  0  0  0  0  0  0  0  0  0  0  0
  -28.7360  -34.4230   27.0190 H   0  0  0  0  0  0  0  0  0  0  0  0
  -27.0070  -28.0840   26.1790 C   0  0  1  0  0  0  0  0  0  0  0  0
  -25.8650  -28.0610   27.2800 C   0  0  0  0  0  1  0  0  0  0  0  0
  -27.1440  -26.6780   25.5320 C   0  0  0  0  0  1  0  0  0  0  0  0
  -28.2840  -28.3080   26.9850 C   0  0  0  0  0  1  0  0  0  0  0  0
  1  3  1  0
  2  9  1  0
  2  3  1  0
  3  5  1  0
  4  2  2  0
  6  7  1  0
  7 11  1  0
  9  8  1  0
 10  6  1  0
 11  8  1  0
 11 12  1  0
 11 13  1  0
 14 22  1  0
 15 20  1  0
 16 17  1  0
 16 15  1  0
 18 17  1  0
 18 27  1  0
 18 19  1  0
 20 14  1  0
 20 19  1  0
 21 14  2  0
 22 10  1  0
 23 22  1  0
 24 25  2  0
 25 44  1  0
 26 25  1  0
 26 29  1  0
 27 28  1  0
 27 24  1  0
 28 26  2  0
 29 30  1  0
 30 31  2  0
 32 35  1  0
 32 31  1  0
 33 32  2  0
 34 33  1  0
 34 29  2  0
 35 36  1  0
 36 37  1  0
 37 38  2  0
 39 38  1  0
 39 43  1  0
 40 39  2  0
 41 36  2  0
 41 40  1  0
 42 41  1  0
 44 45  1  0
 45 48  1  0
 45 47  1  0
 46 44  2  0
 49 50  1  0
 49 24  1  0
 51 49  1  0
 60 59  1  0
 61 60  1  0
 62 73  2  0
 63 61  1  0
 64 74  1  0
 64 72  1  0
 65 70  1  0
 65 71  1  0
 65 67  1  0
 66 72  1  0
 67 68  1  0
 67 66  1  0
 68 63  1  0
 69 63  1  0
 70 69  1  0
 71 64  1  0
 72 62  1  0
 74 75  1  0
 74 76  2  0
 77 75  1  0
 78 87  2  0
 78 83  1  0
 79 75  1  0
 79 83  1  0
 80 79  1  0
 81 82  1  0
 81 80  1  0
 82 78  1  0
 83 84  2  0
 84 85  1  0
 86 85  2  0
 87 86  1  0
 88 62  1  0
 88 89  1  0
 88 98  1  0
 89 92  1  0
 90 89  1  0
 90 94  1  0
 91 90  2  0
 94 93  1  0
 94 96  1  0
 96 97  1  0
 96 95  1  0
 98101  1  1
 98 99  1  0
100 98  1  0
M  ISO  4  14 100  22 100  60 101  61 101
M  END
>  <TORSDO>  (9) 
F 27

>  <SCORE>  (9) 
-13.808

>  <name>  (9) 
8

>  <ligand_id>  (9) 
8

>  <original_smiles>  (9) 
[H]c1c([H])c([H])c2c(c1[H])C([H])([H])C([H])([H])C([H])([H])C2([H])N([H])C(=O)C1([H])N(C(=O)C([H])(N([H])C(=O)C([H])(N([H])C([H])([H])[H])C([H])([H])[H])C(C([H])([H])[H])(C([H])([H])[H])C([H])([H])[H])C([H])([H])c2c([H])c(OC([H])([H])C([H])([H])C([H])([H])C([H])([H])C([H])([H])C([H])([H])C([H])([H])C([H])([H])C([H])([H])C([H])([H])N([H])C(=O)C3([H])C([H])(N([H])C(=O)N4C([H])([H])C([H])([H])C([H])([H])C([H])(n5nc(-c6c([H])c([H])c(Oc7c([H])c([H])c(F)c([H])c7F)c([H])c6[H])c(C(=O)N([H])[H])c5N([H])[H])C4([H])[H])C([H])([H])C([H])([H])[N+]([H])([H])C3([H])[H])c([H])c([H])c2C1([H])[H]

>  <smiles>  (9) 
[H]c1c([H])c([H])c2c(c1[H])C([H])([H])C([H])([H])C([H])([H])C2([H])N([H])C(=O)C1([H])N(C(=O)C([H])(N([H])C(=O)C([H])(N([H])C([H])([H])[H])C([H])([H])[H])C(C([H])([H])[H])(C([H])([H])[H])C([H])([H])[H])C([H])([H])c2c([H])c(OC([H])([H])C([H])([H])C([H])([H])C([H])([H])C([H])([H])C([H])([H])C([H])([H])C([H])([H])C([H])([H])C([H])([H])N([H])C(=O)C3([H])C([H])(N([H])C(=O)N4C([H])([H])C([H])([H])C([H])([H])C([H])(n5nc(-c6c([H])c([H])c(Oc7c([H])c([H])c(F)c([H])c7F)c([H])c6[H])c(C(=O)N([H])[H])c5N([H])[H])C4([H])[H])C([H])([H])C([H])([H])[N+]([H])([H])C3([H])[H])c([H])c([H])c2C1([H])[H]

$$$$
9:0:0
     RDKit          3D

102110  0  0  1  0  0  0  0  0999 V2000
  -28.6460  -20.3310   19.8060 C   0  0  0  0  0  2  0  0  0  0  0  0
  -30.7710  -19.4370   18.8270 C   0  0  0  0  0  2  0  0  0  0  0  0
  -28.6890  -21.5150   18.8210 C   0  0  0  0  0  2  0  0  0  0  0  0
  -30.8070  -20.6060   17.8240 C   0  0  0  0  0  2  0  0  0  0  0  0
  -29.3310  -19.0710   19.2380 C   0  0  0  0  0  3  0  0  0  0  0  0
  -30.1260  -21.8860   18.3740 C   0  0  0  0  0  3  0  0  0  0  0  0
  -29.2650  -17.8880   20.2410 C   0  0  0  0  0  2  0  0  0  0  0  0
  -30.4030  -16.8340   20.0800 C   0  0  0  0  0  3  0  0  0  0  0  0
  -30.4180  -14.4650   19.3360 C   0  0  0  0  0  0  0  0  0  0  0  0
  -30.2210  -12.1050   18.6520 C   0  0  0  0  0  2  0  0  0  0  0  0
  -29.1610  -11.9600   17.5440 C   0  0  0  0  0  2  0  0  0  0  0  0
  -27.7590  -11.7750   18.1580 C   0  0  0  0  0  2  0  0  0  0  0  0
  -27.4370  -12.8340   19.2460 C   0  0  0  0  0  3  0  0  0  0  0  0
  -28.6050  -12.9620   20.2520 C   0  0  0  0  0  2  0  0  0  0  0  0
  -29.8380  -13.2470   19.4950 N   0  0  0  0  0  0  0  0  0  0  0  0
  -31.4000  -14.6480   18.6080 O   0  0  0  0  0  0  0  0  0  0  0  0
  -29.8400  -15.4830   19.9810 N   0  0  0  0  0  0  0  0  0  0  0  0
  -29.0770  -15.2620   20.6030 H   0  0  0  0  0  0  0  0  0  0  0  0
  -25.1980  -13.4100   20.3770 C   0  0  0  0  0  0  0  0  0  0  0  0
  -24.1880  -12.6260   20.8670 C   0  0  0  0  0  0  0  0  0  0  0  0
  -24.6120  -11.2730   20.6740 C   0  0  0  0  0  0  0  0  0  0  0  0
  -26.1740  -12.5390   19.9210 N   0  0  0  0  0  0  0  0  0  0  0  0
  -25.8310  -11.2430   20.1520 N   0  0  0  0  0  0  0  0  0  0  0  0
  -23.9010  -10.0090   20.9040 C   0  0  0  0  0  0  0  0  0  0  0  0
  -24.2930   -9.1190   21.9300 C   0  0  0  0  0  3  0  0  0  0  0  0
  -23.5880   -7.9160   22.1430 C   0  0  0  0  0  3  0  0  0  0  0  0
  -22.4740   -7.5930   21.3330 C   0  0  0  0  0  0  0  0  0  0  0  0
  -22.1020   -8.4700   20.2980 C   0  0  0  0  0  3  0  0  0  0  0  0
  -22.8100   -9.6640   20.0830 C   0  0  0  0  0  3  0  0  0  0  0  0
  -21.7440   -6.4340   21.4510 O   0  0  0  0  0  0  0  0  0  0  0  0
  -21.4380   -5.8970   22.6760 C   0  0  0  0  0  0  0  0  0  0  0  0
  -20.6340   -6.5860   23.6100 C   0  0  0  0  0  3  0  0  0  0  0  0
  -20.2860   -5.9680   24.8280 C   0  0  0  0  0  3  0  0  0  0  0  0
  -20.7300   -4.6630   25.1100 C   0  0  0  0  0  0  0  0  0  0  0  0
  -21.5240   -3.9720   24.1770 C   0  0  0  0  0  3  0  0  0  0  0  0
  -21.8770   -4.5880   22.9630 C   0  0  0  0  0  0  0  0  0  0  0  0
  -22.6260   -3.9120   22.0590 F   0  0  0  0  0  0  0  0  0  0  0  0
  -20.3880   -4.0670   26.2750 F   0  0  0  0  0  0  0  0  0  0  0  0
  -22.8640  -13.0960   21.3960 C   0  0  0  0  0  0  0  0  0  0  0  0
  -22.2800  -12.3560   22.3320 N   0  0  0  0  0  0  0  0  0  0  0  0
  -22.3600  -14.1510   21.0140 O   0  0  0  0  0  0  0  0  0  0  0  0
  -22.7030  -11.5010   22.6640 H   0  0  0  0  0  0  0  0  0  0  0  0
  -21.3960  -12.6490   22.7250 H   0  0  0  0  0  0  0  0  0  0  0  0
  -25.3600  -14.7880   20.2660 N   0  0  0  0  0  0  0  0  0  0  0  0
  -24.6380  -15.4450   20.5410 H   0  0  0  0  0  0  0  0  0  0  0  0
  -26.1640  -15.2350   19.8430 H   0  0  0  0  0  0  0  0  0  0  0  0
  -31.3020  -16.8280   21.3290 C   0  0  0  0  0  0  0  0  0  0  0  0
  -32.4280  -17.5270   21.2840 N   0  0  0  0  0  0  0  0  0  0  0  0
  -30.9900  -16.1850   22.3290 O   0  0  0  0  0  0  0  0  0  0  0  0
  -32.6830  -18.0280   20.4470 H   0  0  0  0  0  0  0  0  0  0  0  0
  -33.0510  -17.5430   22.0780 H   0  0  0  0  0  0  0  0  0  0  0  0
  -30.0940  -23.1050   17.3900 C   0  0  0  0  0  3  0  0  0  0  0  0
  -29.4340  -24.2510   18.0730 N   0  0  0  0  0  4  0  0  0  0  0  0
  -28.7660  -23.8360   18.7020 H   0  0  0  0  0  0  0  0  0  0  0  0
  -30.1040  -24.7440   18.6430 H   0  0  0  0  0  0  0  0  0  0  0  0
  -28.6790  -25.2140   17.2260 C   0  0  0  0  0  2  0  0  0  0  0  0
  -27.3510  -25.6490   17.8740 C   0  0  0  0  0  2  0  0  0  0  0  0
  -27.5270  -26.6480   18.8870 O   0  0  0  0  0  0  0  0  0  0  0  0
  -24.7900  -31.5670   23.2700 C   0  0  0  0  0  0  0  0  0  0  0  0
  -26.4300  -27.4320   19.2020 C   0  0  0  0  0  0  0  0  0  0  0  0
  -23.2030  -30.5600   21.6610 C   0  0  0  0  0  3  0  0  0  0  0  0
  -24.2460  -29.1260   19.8300 C   0  0  0  0  0  0  0  0  0  0  0  0
  -25.6990  -30.6970   21.1190 C   0  0  0  0  0  2  0  0  0  0  0  0
  -25.5280  -29.4370   20.2950 C   0  0  0  0  0  0  0  0  0  0  0  0
  -26.6200  -28.5920   19.9890 C   0  0  0  0  0  3  0  0  0  0  0  0
  -25.1180  -27.1260   18.7610 C   0  0  0  0  0  3  0  0  0  0  0  0
  -24.0330  -27.9650   19.0700 C   0  0  0  0  0  3  0  0  0  0  0  0
  -23.1310  -30.0820   20.1870 C   0  0  0  0  0  2  0  0  0  0  0  0
  -24.5920  -30.9460   22.0720 N   0  0  0  0  0  0  0  0  0  0  0  0
  -23.8380  -31.8570   24.0060 O   0  0  0  0  0  0  0  0  0  0  0  0
  -22.5780  -29.4720   22.5620 C   0  0  0  0  0  0  0  0  0  0  0  0
  -21.2500  -29.3010   22.4570 N   0  0  0  0  0  0  0  0  0  0  0  0
  -23.2820  -28.7870   23.3090 O   0  0  0  0  0  0  0  0  0  0  0  0
  -20.7440  -29.9070   21.8260 H   0  0  0  0  0  0  0  0  0  0  0  0
  -17.9190  -27.9430   22.8040 C   0  0  0  0  0  0  0  0  0  0  0  0
  -20.4500  -28.3100   23.1780 C   0  0  0  0  0  3  0  0  0  0  0  0
  -20.6400  -26.8980   22.5760 C   0  0  0  0  0  2  0  0  0  0  0  0
  -19.5920  -26.5480   21.5150 C   0  0  0  0  0  2  0  0  0  0  0  0
  -18.1820  -26.6170   22.1090 C   0  0  0  0  0  2  0  0  0  0  0  0
  -18.9850  -28.7460   23.2900 C   0  0  0  0  0  0  0  0  0  0  0  0
  -18.6880  -29.9870   23.8950 C   0  0  0  0  0  3  0  0  0  0  0  0
  -17.3580  -30.4260   24.0210 C   0  0  0  0  0  3  0  0  0  0  0  0
  -16.3050  -29.6190   23.5530 C   0  0  0  0  0  3  0  0  0  0  0  0
  -16.5870  -28.3810   22.9500 C   0  0  0  0  0  3  0  0  0  0  0  0
  -26.2190  -31.9660   23.7570 C   0  0  0  0  0  3  0  0  0  0  0  0
  -26.7980  -30.9870   24.8510 C   0  0  1  0  0  0  0  0  0  0  0  0
  -25.8370  -30.7410   26.0380 C   0  0  0  0  0  1  0  0  0  0  0  0
  -27.1400  -29.6140   24.2270 C   0  0  0  0  0  1  0  0  0  0  0  0
  -28.1180  -31.5580   25.4200 C   0  0  0  0  0  1  0  0  0  0  0  0
  -26.1430  -33.3370   24.2760 N   0  0  0  0  0  0  0  0  0  0  0  0
  -26.4900  -34.4330   23.5870 C   0  0  0  0  0  0  0  0  0  0  0  0
  -26.9820  -34.3840   22.4560 O   0  0  0  0  0  0  0  0  0  0  0  0
  -25.7000  -33.4550   25.1760 H   0  0  0  0  0  0  0  0  0  0  0  0
  -24.9630  -36.4270   23.7060 C   0  0  0  0  0  1  0  0  0  0  0  0
  -26.2530  -35.7990   24.2580 C   0  0  0  0  0  3  0  0  0  0  0  0
  -28.5730  -36.3560   24.8370 C   0  0  0  0  0  1  0  0  0  0  0  0
  -27.3790  -36.7420   24.0890 N   0  0  0  0  0  0  0  0  0  0  0  0
  -27.1110  -37.6780   24.3800 H   0  0  0  0  0  0  0  0  0  0  0  0
  -32.3080  -24.3980   17.7380 C   0  0  0  0  0  1  0  0  0  0  0  0
  -31.4850  -23.5050   16.7920 C   0  0  0  0  0  3  0  0  0  0  0  0
  -30.7650  -23.2550   14.3050 C   0  0  0  0  0  1  0  0  0  0  0  0
  -31.4650  -24.1160   15.3700 C   0  0  0  0  0  2  0  0  0  0  0  0
  2  5  1  0
  3  1  1  0
  4  6  1  0
  4  2  1  0
  5  1  1  0
  5  7  1  0
  6 52  1  0
  6  3  1  0
  8  7  1  0
  8 47  1  0
  9 15  1  0
  9 17  1  0
 10 15  1  0
 11 12  1  0
 11 10  1  0
 13 12  1  0
 13 22  1  0
 13 14  1  0
 15 14  1  0
 16  9  2  0
 17  8  1  0
 17 18  1  0
 19 20  2  0
 20 39  1  0
 21 20  1  0
 21 24  1  0
 22 23  1  0
 22 19  1  0
 23 21  2  0
 24 25  1  0
 25 26  2  0
 27 30  1  0
 27 26  1  0
 28 27  2  0
 29 28  1  0
 29 24  2  0
 30 31  1  0
 31 36  2  0
 31 32  1  0
 32 33  2  0
 33 34  1  0
 34 38  1  0
 35 34  2  0
 36 35  1  0
 37 36  1  0
 39 40  1  0
 40 42  1  0
 40 43  1  0
 41 39  2  0
 44 19  1  0
 44 45  1  0
 46 44  1  0
 47 49  2  0
 48 47  1  0
 48 51  1  0
 50 48  1  0
 52 53  1  0
 53 55  1  0
 53 54  1  0
 56 57  1  0
 56 53  1  0
 57 58  1  0
 58 60  1  0
 59 70  2  0
 60 65  1  0
 61 69  1  0
 61 71  1  0
 62 68  1  0
 62 64  1  0
 63 69  1  0
 64 63  1  0
 65 64  2  0
 66 67  1  0
 66 60  2  0
 67 62  2  0
 68 61  1  0
 69 59  1  0
 71 73  2  0
 72 71  1  0
 74 72  1  0
 75 84  2  0
 75 80  1  0
 76 72  1  0
 76 80  1  0
 77 76  1  0
 78 79  1  0
 78 77  1  0
 79 75  1  0
 80 81  2  0
 81 82  1  0
 83 82  2  0
 84 83  1  0
 85 59  1  0
 85 90  1  0
 85 86  1  0
 86 89  1  1
 86 87  1  0
 88 86  1  0
 90 93  1  0
 91 95  1  0
 91 90  1  0
 92 91  2  0
 95 94  1  0
 97 95  1  0
 97 98  1  0
 97 96  1  0
100 52  1  0
100 99  1  0
101102  1  0
102100  1  0
M  ISO  4   9 100  17 100  57 101  58 101
M  END
>  <TORSDO>  (10) 
F 25

>  <SCORE>  (10) 
-9.505

>  <name>  (10) 
9

>  <ligand_id>  (10) 
9

>  <original_smiles>  (10) 
[H]c1c([H])c([H])c2c(c1[H])C([H])([H])C([H])([H])C([H])([H])C2([H])N([H])C(=O)C1([H])N(C(=O)C([H])(N([H])C(=O)C([H])(N([H])C([H])([H])[H])C([H])([H])[H])C(C([H])([H])[H])(C([H])([H])[H])C([H])([H])[H])C([H])([H])c2c([H])c(OC([H])([H])C([H])([H])[N+]([H])([H])C([H])(C([H])(C([H])([H])[H])C([H])([H])C([H])([H])[H])C3([H])C([H])([H])C([H])([H])C([H])(C([H])([H])C([H])(C(=O)N([H])[H])N([H])C(=O)N4C([H])([H])C([H])([H])C([H])([H])C([H])(n5nc(-c6c([H])c([H])c(Oc7c([H])c([H])c(F)c([H])c7F)c([H])c6[H])c(C(=O)N([H])[H])c5N([H])[H])C4([H])[H])C([H])([H])C3([H])[H])c([H])c([H])c2C1([H])[H]

>  <smiles>  (10) 
[H]c1c([H])c([H])c2c(c1[H])C([H])([H])C([H])([H])C([H])([H])C2([H])N([H])C(=O)C1([H])N(C(=O)C([H])(N([H])C(=O)C([H])(N([H])C([H])([H])[H])C([H])([H])[H])C(C([H])([H])[H])(C([H])([H])[H])C([H])([H])[H])C([H])([H])c2c([H])c(OC([H])([H])C([H])([H])[N+]([H])([H])C([H])(C([H])(C([H])([H])[H])C([H])([H])C([H])([H])[H])C3([H])C([H])([H])C([H])([H])C([H])(C([H])([H])C([H])(C(=O)N([H])[H])N([H])C(=O)N4C([H])([H])C([H])([H])C([H])([H])C([H])(n5nc(-c6c([H])c([H])c(Oc7c([H])c([H])c(F)c([H])c7F)c([H])c6[H])c(C(=O)N([H])[H])c5N([H])[H])C4([H])[H])C([H])([H])C3([H])[H])c([H])c([H])c2C1([H])[H]

$$$$
10:0:0
     RDKit          3D

103111  0  0  1  0  0  0  0  0999 V2000
  -26.4660  -22.3550   20.4770 N   0  0  0  0  0  4  0  0  0  0  0  0
  -25.6690  -22.2670   19.8650 H   0  0  0  0  0  0  0  0  0  0  0  0
  -27.1090  -22.9840   20.0260 H   0  0  0  0  0  0  0  0  0  0  0  0
  -27.1270  -21.0340   20.5970 C   0  0  0  0  0  2  0  0  0  0  0  0
  -27.7240  -20.5890   19.2470 C   0  0  0  0  0  2  0  0  0  0  0  0
  -27.5640  -19.0900   18.9210 C   0  0  0  0  0  2  0  0  0  0  0  0
  -28.3510  -18.1090   19.8250 C   0  0  0  0  0  2  0  0  0  0  0  0
  -29.5060  -17.3760   19.0950 C   0  0  0  0  0  3  0  0  0  0  0  0
  -30.7540  -15.2640   19.5440 C   0  0  0  0  0  0  0  0  0  0  0  0
  -30.6630  -12.8800   18.9550 C   0  0  0  0  0  2  0  0  0  0  0  0
  -29.6900  -12.7360   17.7660 C   0  0  0  0  0  2  0  0  0  0  0  0
  -28.2350  -12.5860   18.2590 C   0  0  0  0  0  2  0  0  0  0  0  0
  -27.8470  -13.6530   19.3160 C   0  0  0  0  0  3  0  0  0  0  0  0
  -28.9330  -13.7580   20.4130 C   0  0  0  0  0  2  0  0  0  0  0  0
  -30.2260  -14.0310   19.7600 N   0  0  0  0  0  0  0  0  0  0  0  0
  -31.7910  -15.4500   18.9030 O   0  0  0  0  0  0  0  0  0  0  0  0
  -29.9670  -16.2720   19.9470 N   0  0  0  0  0  0  0  0  0  0  0  0
  -29.2840  -15.9810   20.6300 H   0  0  0  0  0  0  0  0  0  0  0  0
  -25.5080  -14.2710   20.2060 C   0  0  0  0  0  0  0  0  0  0  0  0
  -24.4670  -13.5030   20.6460 C   0  0  0  0  0  0  0  0  0  0  0  0
  -24.9080  -12.1480   20.5530 C   0  0  0  0  0  0  0  0  0  0  0  0
  -26.5280  -13.3860   19.8840 N   0  0  0  0  0  0  0  0  0  0  0  0
  -26.1690  -12.1030   20.1410 N   0  0  0  0  0  0  0  0  0  0  0  0
  -24.1840  -10.8900   20.7750 C   0  0  0  0  0  0  0  0  0  0  0  0
  -24.6730   -9.9050   21.6610 C   0  0  0  0  0  3  0  0  0  0  0  0
  -23.9530   -8.7100   21.8730 C   0  0  0  0  0  3  0  0  0  0  0  0
  -22.7290   -8.4900   21.1950 C   0  0  0  0  0  0  0  0  0  0  0  0
  -22.2590   -9.4630   20.2950 C   0  0  0  0  0  3  0  0  0  0  0  0
  -22.9810  -10.6500   20.0820 C   0  0  0  0  0  3  0  0  0  0  0  0
  -21.9730   -7.3500   21.3180 O   0  0  0  0  0  0  0  0  0  0  0  0
  -21.8650   -6.6820   22.5120 C   0  0  0  0  0  0  0  0  0  0  0  0
  -21.3480   -7.3040   23.6690 C   0  0  0  0  0  3  0  0  0  0  0  0
  -21.1900   -6.5610   24.8560 C   0  0  0  0  0  3  0  0  0  0  0  0
  -21.5380   -5.1970   24.8850 C   0  0  0  0  0  0  0  0  0  0  0  0
  -22.0480   -4.5750   23.7330 C   0  0  0  0  0  3  0  0  0  0  0  0
  -22.2080   -5.3150   22.5490 C   0  0  0  0  0  0  0  0  0  0  0  0
  -22.6790   -4.7040   21.4340 F   0  0  0  0  0  0  0  0  0  0  0  0
  -21.3770   -4.4820   26.0230 F   0  0  0  0  0  0  0  0  0  0  0  0
  -23.1010  -13.9870   21.0410 C   0  0  0  0  0  0  0  0  0  0  0  0
  -22.4540  -13.3020   21.9790 N   0  0  0  0  0  0  0  0  0  0  0  0
  -22.6200  -15.0090   20.5530 O   0  0  0  0  0  0  0  0  0  0  0  0
  -22.8570  -12.4750   22.3920 H   0  0  0  0  0  0  0  0  0  0  0  0
  -21.5410  -13.6090   22.2850 H   0  0  0  0  0  0  0  0  0  0  0  0
  -25.6640  -15.6410   20.0300 N   0  0  0  0  0  0  0  0  0  0  0  0
  -24.8970  -16.2870   20.1840 H   0  0  0  0  0  0  0  0  0  0  0  0
  -26.4680  -16.0720   19.5970 H   0  0  0  0  0  0  0  0  0  0  0  0
  -33.2160  -19.5440   17.8560 C   0  0  0  0  0  2  0  0  0  0  0  0
  -32.5780  -19.8500   19.2260 C   0  0  0  0  0  2  0  0  0  0  0  0
  -32.1570  -19.1740   16.8020 C   0  0  0  0  0  2  0  0  0  0  0  0
  -31.6720  -18.6990   19.7000 C   0  0  0  0  0  2  0  0  0  0  0  0
  -31.2610  -18.0270   17.2950 C   0  0  0  0  0  2  0  0  0  0  0  0
  -30.5990  -18.3840   18.6410 C   0  0  0  0  0  3  0  0  0  0  0  0
  -26.0510  -22.9770   21.7610 C   0  0  0  0  0  2  0  0  0  0  0  0
  -23.8520  -24.2780   21.5220 C   0  0  0  0  0  1  0  0  0  0  0  0
  -25.3810  -24.3880   21.6650 C   0  0  0  0  0  3  0  0  0  0  0  0
  -25.9280  -25.3100   20.5590 C   0  0  0  0  0  0  0  0  0  0  0  0
  -26.8690  -26.2050   20.8840 N   0  0  0  0  0  0  0  0  0  0  0  0
  -25.4930  -25.2070   19.4110 O   0  0  0  0  0  0  0  0  0  0  0  0
  -27.1630  -26.2630   21.8520 H   0  0  0  0  0  0  0  0  0  0  0  0
  -27.4790  -27.1400   19.9380 C   0  0  0  0  0  2  0  0  0  0  0  0
  -28.2770  -26.3970   18.8430 C   0  0  0  0  0  2  0  0  0  0  0  0
  -28.6320  -27.2300   17.5960 C   0  0  0  0  0  2  0  0  0  0  0  0
  -27.4700  -27.5220   16.8130 O   0  0  0  0  0  0  0  0  0  0  0  0
  -24.6230  -30.3150   22.7120 C   0  0  0  0  0  0  0  0  0  0  0  0
  -26.3660  -28.0120   17.4680 C   0  0  0  0  0  0  0  0  0  0  0  0
  -23.0150  -29.5450   20.9960 C   0  0  0  0  0  3  0  0  0  0  0  0
  -24.0210  -28.9640   18.7250 C   0  0  0  0  0  0  0  0  0  0  0  0
  -25.3460  -30.3490   20.3310 C   0  0  0  0  0  2  0  0  0  0  0  0
  -25.2800  -29.3830   19.1720 C   0  0  0  0  0  0  0  0  0  0  0  0
  -26.4530  -28.9140   18.5530 C   0  0  0  0  0  3  0  0  0  0  0  0
  -25.0930  -27.6060   17.0140 C   0  0  0  0  0  3  0  0  0  0  0  0
  -23.9200  -28.0710   17.6410 C   0  0  0  0  0  3  0  0  0  0  0  0
  -22.8200  -29.5250   19.4550 C   0  0  0  0  0  2  0  0  0  0  0  0
  -24.3640  -30.0590   21.3990 N   0  0  0  0  0  0  0  0  0  0  0  0
  -23.7490  -30.1710   23.5760 O   0  0  0  0  0  0  0  0  0  0  0  0
  -22.7070  -28.1340   21.5440 C   0  0  0  0  0  0  0  0  0  0  0  0
  -21.4290  -27.7320   21.4680 N   0  0  0  0  0  0  0  0  0  0  0  0
  -23.6070  -27.4200   21.9930 O   0  0  0  0  0  0  0  0  0  0  0  0
  -20.7480  -28.3810   21.0990 H   0  0  0  0  0  0  0  0  0  0  0  0
  -18.4810  -25.6470   21.4800 C   0  0  0  0  0  0  0  0  0  0  0  0
  -20.9110  -26.4300   21.8840 C   0  0  0  0  0  3  0  0  0  0  0  0
  -21.3270  -25.3220   20.8900 C   0  0  0  0  0  2  0  0  0  0  0  0
  -20.2820  -25.0630   19.7990 C   0  0  0  0  0  2  0  0  0  0  0  0
  -18.9440  -24.6590   20.4230 C   0  0  0  0  0  2  0  0  0  0  0  0
  -19.4040  -26.4910   22.1540 C   0  0  0  0  0  0  0  0  0  0  0  0
  -18.9170  -27.4180   23.1010 C   0  0  0  0  0  3  0  0  0  0  0  0
  -17.5420  -27.5050   23.3830 C   0  0  0  0  0  3  0  0  0  0  0  0
  -16.6330  -26.6590   22.7220 C   0  0  0  0  0  3  0  0  0  0  0  0
  -17.1050  -25.7310   21.7760 C   0  0  0  0  0  3  0  0  0  0  0  0
  -26.0220  -30.8190   23.1860 C   0  0  0  0  0  3  0  0  0  0  0  0
  -25.8220  -32.1090   23.8590 N   0  0  0  0  0  0  0  0  0  0  0  0
  -26.1770  -33.2950   23.3480 C   0  0  0  0  0  0  0  0  0  0  0  0
  -26.7820  -33.4110   22.2800 O   0  0  0  0  0  0  0  0  0  0  0  0
  -25.2880  -32.0930   24.7160 H   0  0  0  0  0  0  0  0  0  0  0  0
  -24.6440  -35.2850   23.4480 C   0  0  0  0  0  1  0  0  0  0  0  0
  -25.8010  -34.5550   24.1510 C   0  0  0  0  0  3  0  0  0  0  0  0
  -27.9580  -34.9680   25.2490 C   0  0  0  0  0  1  0  0  0  0  0  0
  -26.9320  -35.4880   24.3470 N   0  0  0  0  0  0  0  0  0  0  0  0
  -26.6070  -36.3780   24.7150 H   0  0  0  0  0  0  0  0  0  0  0  0
  -26.7600  -29.7990   24.1360 C   0  0  1  0  0  0  0  0  0  0  0  0
  -25.9010  -29.3320   25.3350 C   0  0  0  0  0  1  0  0  0  0  0  0
  -27.1960  -28.5410   23.3490 C   0  0  0  0  0  1  0  0  0  0  0  0
  -28.0520  -30.4420   24.6950 C   0  0  0  0  0  1  0  0  0  0  0  0
  1  4  1  0
  1 53  1  0
  2  1  1  0
  3  1  1  0
  5  4  1  0
  6  5  1  0
  6  7  1  0
  8  7  1  0
  8 17  1  0
  9 15  1  0
  9 17  1  0
 10 15  1  0
 11 12  1  0
 11 10  1  0
 13 12  1  0
 13 22  1  0
 13 14  1  0
 15 14  1  0
 16  9  2  0
 17 18  1  0
 19 20  2  0
 20 39  1  0
 21 20  1  0
 21 24  1  0
 22 23  1  0
 22 19  1  0
 23 21  2  0
 24 25  1  0
 25 26  2  0
 27 30  1  0
 27 26  1  0
 28 27  2  0
 29 28  1  0
 29 24  2  0
 30 31  1  0
 31 36  2  0
 31 32  1  0
 32 33  2  0
 33 34  1  0
 34 38  1  0
 35 34  2  0
 36 35  1  0
 37 36  1  0
 39 40  1  0
 40 43  1  0
 40 42  1  0
 41 39  2  0
 44 45  1  0
 44 19  1  0
 46 44  1  0
 47 48  1  0
 48 50  1  0
 49 51  1  0
 49 47  1  0
 51 52  1  0
 52  8  1  0
 52 50  1  0
 55 54  1  0
 55 53  1  0
 56 57  1  0
 56 55  1  0
 57 59  1  0
 58 56  2  0
 60 57  1  0
 61 60  1  0
 62 61  1  0
 63 65  1  0
 63 62  1  0
 64 75  2  0
 65 70  1  0
 66 74  1  0
 66 76  1  0
 67 69  1  0
 67 73  1  0
 68 74  1  0
 69 68  1  0
 70 69  2  0
 71 65  2  0
 71 72  1  0
 72 67  2  0
 73 66  1  0
 74 64  1  0
 76 78  2  0
 77 76  1  0
 79 77  1  0
 80 89  2  0
 80 85  1  0
 81 77  1  0
 81 85  1  0
 82 81  1  0
 83 84  1  0
 83 82  1  0
 84 80  1  0
 85 86  2  0
 86 87  1  0
 88 87  2  0
 89 88  1  0
 90 64  1  0
 90 91  1  0
 90100  1  0
 91 94  1  0
 92 91  1  0
 92 96  1  0
 93 92  2  0
 96 95  1  0
 96 98  1  0
 98 99  1  0
 98 97  1  0
100103  1  1
100101  1  0
102100  1  0
M  ISO  4   9 100  17 100  62 101  63 101
M  END
>  <TORSDO>  (11) 
F 28

>  <SCORE>  (11) 
-7.989

>  <name>  (11) 
10

>  <ligand_id>  (11) 
10

>  <original_smiles>  (11) 
[H]c1c([H])c([H])c2c(c1[H])C([H])([H])C([H])([H])C([H])([H])C2([H])N([H])C(=O)C1([H])N(C(=O)C([H])(N([H])C(=O)C([H])(N([H])C([H])([H])[H])C([H])([H])[H])C(C([H])([H])[H])(C([H])([H])[H])C([H])([H])[H])C([H])([H])c2c([H])c(OC([H])([H])C([H])([H])C([H])([H])N([H])C(=O)C([H])(C([H])([H])[H])C([H])([H])[N+]([H])([H])C([H])([H])C([H])([H])C([H])([H])C([H])([H])C([H])(N([H])C(=O)N3C([H])([H])C([H])([H])C([H])([H])C([H])(n4nc(-c5c([H])c([H])c(Oc6c([H])c([H])c(F)c([H])c6F)c([H])c5[H])c(C(=O)N([H])[H])c4N([H])[H])C3([H])[H])C3([H])C([H])([H])C([H])([H])C([H])([H])C([H])([H])C3([H])[H])c([H])c([H])c2C1([H])[H]

>  <smiles>  (11) 
[H]c1c([H])c([H])c2c(c1[H])C([H])([H])C([H])([H])C([H])([H])C2([H])N([H])C(=O)C1([H])N(C(=O)C([H])(N([H])C(=O)C([H])(N([H])C([H])([H])[H])C([H])([H])[H])C(C([H])([H])[H])(C([H])([H])[H])C([H])([H])[H])C([H])([H])c2c([H])c(OC([H])([H])C([H])([H])C([H])([H])N([H])C(=O)C([H])(C([H])([H])[H])C([H])([H])[N+]([H])([H])C([H])([H])C([H])([H])C([H])([H])C([H])([H])C([H])(N([H])C(=O)N3C([H])([H])C([H])([H])C([H])([H])C([H])(n4nc(-c5c([H])c([H])c(Oc6c([H])c([H])c(F)c([H])c6F)c([H])c5[H])c(C(=O)N([H])[H])c4N([H])[H])C3([H])[H])C3([H])C([H])([H])C([H])([H])C([H])([H])C([H])([H])C3([H])[H])c([H])c([H])c2C1([H])[H]

$$$$
11:0:0
     RDKit          3D

105112  0  0  1  0  0  0  0  0999 V2000
  -26.4930  -13.5680   17.3860 C   0  0  0  0  0  2  0  0  0  0  0  0
  -27.1680  -12.3060   16.6440 C   0  0  0  0  0  2  0  0  0  0  0  0
  -27.4050  -10.9600   17.2900 N   0  0  0  0  0  4  0  0  0  0  0  0
  -27.7270  -10.3030   16.6030 H   0  0  0  0  0  0  0  0  0  0  0  0
  -26.5380  -10.5690   17.6180 H   0  0  0  0  0  0  0  0  0  0  0  0
  -28.3940  -11.0060   18.3780 C   0  0  0  0  0  2  0  0  0  0  0  0
  -29.3910   -9.9480   19.0440 C   0  0  0  0  0  2  0  0  0  0  0  0
  -30.7200  -10.4830   19.8350 C   0  0  0  0  0  3  0  0  0  0  0  0
  -30.8140  -10.9820   21.3840 C   0  0  0  0  0  3  0  0  0  0  0  0
  -32.0320  -11.8960   21.9840 C   0  0  0  0  0  0  0  0  0  0  0  0
  -31.3110  -14.5080   22.0640 C   0  0  0  0  0  0  0  0  0  0  0  0
  -30.8640  -13.9120   20.0640 C   0  0  0  0  0  2  0  0  0  0  0  0
  -29.9330  -13.4820   19.0320 C   0  0  0  0  0  2  0  0  0  0  0  0
  -28.6290  -12.9720   19.5920 C   0  0  0  0  0  2  0  0  0  0  0  0
  -27.9900  -13.8230   20.6490 C   0  0  0  0  0  3  0  0  0  0  0  0
  -28.9090  -13.9130   21.8540 C   0  0  0  0  0  2  0  0  0  0  0  0
  -30.2750  -14.1870   21.3670 N   0  0  0  0  0  0  0  0  0  0  0  0
  -31.9220  -15.5790   21.8830 O   0  0  0  0  0  0  0  0  0  0  0  0
  -31.8480  -13.3270   22.5530 N   0  0  0  0  0  4  0  0  0  0  0  0
  -32.6320  -13.5160   23.1570 H   0  0  0  0  0  0  0  0  0  0  0  0
  -25.4860  -14.0070   20.9530 C   0  0  0  0  0  0  0  0  0  0  0  0
  -24.4890  -13.0880   21.1090 C   0  0  0  0  0  0  0  0  0  0  0  0
  -25.1240  -11.8130   21.1860 C   0  0  0  0  0  0  0  0  0  0  0  0
  -26.6610  -13.2960   20.9300 N   0  0  0  0  0  0  0  0  0  0  0  0
  -26.4440  -11.9570   21.1010 N   0  0  0  0  0  0  0  0  0  0  0  0
  -24.5310  -10.4670   21.2930 C   0  0  0  0  0  0  0  0  0  0  0  0
  -24.7970   -9.6350   22.4040 C   0  0  0  0  0  3  0  0  0  0  0  0
  -24.1770   -8.3720   22.5240 C   0  0  0  0  0  3  0  0  0  0  0  0
  -23.2990   -7.9170   21.5110 C   0  0  0  0  0  0  0  0  0  0  0  0
  -23.0650   -8.7310   20.3870 C   0  0  0  0  0  3  0  0  0  0  0  0
  -23.6680   -9.9970   20.2800 C   0  0  0  0  0  3  0  0  0  0  0  0
  -22.6840   -6.6880   21.5170 O   0  0  0  0  0  0  0  0  0  0  0  0
  -22.1580   -6.1490   22.6600 C   0  0  0  0  0  0  0  0  0  0  0  0
  -21.2250   -6.8520   23.4570 C   0  0  0  0  0  3  0  0  0  0  0  0
  -20.6670   -6.2360   24.5960 C   0  0  0  0  0  3  0  0  0  0  0  0
  -21.0250   -4.9110   24.9210 C   0  0  0  0  0  0  0  0  0  0  0  0
  -21.9460   -4.2090   24.1230 C   0  0  0  0  0  3  0  0  0  0  0  0
  -22.5140   -4.8270   22.9970 C   0  0  0  0  0  0  0  0  0  0  0  0
  -23.3850   -4.1360   22.2170 F   0  0  0  0  0  0  0  0  0  0  0  0
  -20.4820   -4.3120   26.0050 F   0  0  0  0  0  0  0  0  0  0  0  0
  -23.0290  -13.3980   21.1300 C   0  0  0  0  0  0  0  0  0  0  0  0
  -22.2810  -12.6500   21.9330 N   0  0  0  0  0  0  0  0  0  0  0  0
  -22.5480  -14.3360   20.5000 O   0  0  0  0  0  0  0  0  0  0  0  0
  -22.6820  -11.8710   22.4290 H   0  0  0  0  0  0  0  0  0  0  0  0
  -21.2950  -12.8430   22.0150 H   0  0  0  0  0  0  0  0  0  0  0  0
  -25.4780  -15.3870   20.8420 N   0  0  0  0  0  0  0  0  0  0  0  0
  -24.6340  -15.9460   20.9150 H   0  0  0  0  0  0  0  0  0  0  0  0
  -26.3210  -15.9380   20.7550 H   0  0  0  0  0  0  0  0  0  0  0  0
  -33.3800  -11.8080   21.2150 C   0  0  0  0  0  0  0  0  0  0  0  0
  -33.8250  -10.6480   20.7410 N   0  0  0  0  0  0  0  0  0  0  0  0
  -34.0370  -12.8280   21.0190 O   0  0  0  0  0  0  0  0  0  0  0  0
  -33.3530   -9.7620   20.8660 H   0  0  0  0  0  0  0  0  0  0  0  0
  -34.6400  -10.6570   20.1410 H   0  0  0  0  0  0  0  0  0  0  0  0
  -27.4380  -14.8110   17.8030 C   0  0  0  0  0  2  0  0  0  0  0  0
  -27.0210  -15.7410   19.0380 C   0  0  0  0  0  2  0  0  0  0  0  0
  -27.4700  -17.2900   19.1570 C   0  0  0  0  0  2  0  0  0  0  0  0
  -28.5340  -17.8780   20.2230 C   0  0  0  0  0  2  0  0  0  0  0  0
  -28.3870  -19.3550   20.6190 N   0  0  0  0  0  4  0  0  0  0  0  0
  -27.7040  -19.3890   21.3590 H   0  0  0  0  0  0  0  0  0  0  0  0
  -27.9860  -19.8420   19.8340 H   0  0  0  0  0  0  0  0  0  0  0  0
  -29.6080  -20.1700   21.0670 C   0  0  0  0  0  2  0  0  0  0  0  0
  -29.3780  -21.6490   21.6710 C   0  0  0  0  0  3  0  0  0  0  0  0
  -30.5560  -22.7480   21.6120 C   0  0  0  0  0  3  0  0  0  0  0  0
  -30.4880  -24.0390   22.5560 C   0  0  0  0  0  2  0  0  0  0  0  0
  -30.8840  -25.4020   22.0800 O   0  0  0  0  0  0  0  0  0  0  0  0
  -25.8910  -30.5280   23.2880 C   0  0  0  0  0  0  0  0  0  0  0  0
  -29.8350  -26.2030   21.6210 C   0  0  0  0  0  0  0  0  0  0  0  0
  -25.4920  -28.9290   21.4580 C   0  0  0  0  0  3  0  0  0  0  0  0
  -27.4970  -27.5400   20.7180 C   0  0  0  0  0  0  0  0  0  0  0  0
  -27.8910  -29.5500   22.1400 C   0  0  0  0  0  2  0  0  0  0  0  0
  -28.3340  -28.1760   21.6480 C   0  0  0  0  0  0  0  0  0  0  0  0
  -29.5170  -27.5140   22.1020 C   0  0  0  0  0  3  0  0  0  0  0  0
  -29.0020  -25.6480   20.6350 C   0  0  0  0  0  3  0  0  0  0  0  0
  -27.8320  -26.2840   20.2060 C   0  0  0  0  0  3  0  0  0  0  0  0
  -26.2400  -28.2550   20.2830 C   0  0  0  0  0  2  0  0  0  0  0  0
  -26.4200  -29.6910   22.3500 N   0  0  0  0  0  0  0  0  0  0  0  0
  -24.6650  -30.6830   23.3930 O   0  0  0  0  0  0  0  0  0  0  0  0
  -24.6600  -27.8600   22.2100 C   0  0  0  0  0  0  0  0  0  0  0  0
  -23.5870  -27.3650   21.5700 N   0  0  0  0  0  0  0  0  0  0  0  0
  -24.9960  -27.4780   23.3350 O   0  0  0  0  0  0  0  0  0  0  0  0
  -23.3660  -27.7420   20.6570 H   0  0  0  0  0  0  0  0  0  0  0  0
  -20.6560  -25.4040   20.7640 C   0  0  0  0  0  0  0  0  0  0  0  0
  -22.6810  -26.3330   22.0760 C   0  0  0  0  0  3  0  0  0  0  0  0
  -23.2960  -24.9220   21.9200 C   0  0  0  0  0  2  0  0  0  0  0  0
  -22.8900  -24.2270   20.6160 C   0  0  0  0  0  2  0  0  0  0  0  0
  -21.3690  -24.0820   20.5360 C   0  0  0  0  0  2  0  0  0  0  0  0
  -21.2770  -26.4660   21.4730 C   0  0  0  0  0  0  0  0  0  0  0  0
  -20.5830  -27.6850   21.6230 C   0  0  0  0  0  3  0  0  0  0  0  0
  -19.2920  -27.8510   21.0880 C   0  0  0  0  0  3  0  0  0  0  0  0
  -18.6750  -26.7910   20.4010 C   0  0  0  0  0  3  0  0  0  0  0  0
  -19.3570  -25.5700   20.2420 C   0  0  0  0  0  3  0  0  0  0  0  0
  -26.7990  -31.3500   24.2520 C   0  0  0  0  0  3  0  0  0  0  0  0
  -26.2400  -32.7060   24.3370 N   0  0  0  0  0  0  0  0  0  0  0  0
  -26.6940  -33.7630   23.6510 C   0  0  0  0  0  0  0  0  0  0  0  0
  -27.6890  -33.7100   22.9220 O   0  0  0  0  0  0  0  0  0  0  0  0
  -25.3940  -32.8130   24.8760 H   0  0  0  0  0  0  0  0  0  0  0  0
  -25.0170  -35.2980   22.5720 C   0  0  0  0  0  1  0  0  0  0  0  0
  -25.9230  -35.0910   23.7950 C   0  0  0  0  0  3  0  0  0  0  0  0
  -27.5050  -36.2820   25.2490 C   0  0  0  0  0  1  0  0  0  0  0  0
  -26.8040  -36.2670   23.9690 N   0  0  0  0  0  0  0  0  0  0  0  0
  -26.2730  -37.1280   23.8860 H   0  0  0  0  0  0  0  0  0  0  0  0
  -26.9140  -30.7090   25.6900 C   0  0  1  0  0  0  0  0  0  0  0  0
  -25.5500  -30.3470   26.3210 C   0  0  0  0  0  1  0  0  0  0  0  0
  -27.7700  -29.4210   25.6540 C   0  0  0  0  0  1  0  0  0  0  0  0
  -27.6360  -31.6900   26.6430 C   0  0  0  0  0  1  0  0  0  0  0  0
  1 54  1  0
  2  3  1  0
  2  1  1  0
  3  5  1  0
  3  6  1  0
  4  3  1  0
  6  7  1  0
  7  8  1  0
  8  9  2  0
  9 10  1  0
 10 19  2  3
 11 19  1  0
 12 17  1  0
 13 14  1  0
 13 12  1  0
 15 14  1  0
 15 24  1  0
 15 16  1  0
 17 16  1  0
 17 11  1  0
 18 11  2  0
 19 20  1  0
 21 22  2  0
 22 41  1  0
 22 23  1  0
 23 26  1  0
 24 21  1  0
 24 25  1  0
 25 23  2  0
 26 27  1  0
 27 28  2  0
 29 32  1  0
 29 28  1  0
 30 29  2  0
 31 30  1  0
 31 26  2  0
 32 33  1  0
 33 38  2  0
 33 34  1  0
 34 35  2  0
 35 36  1  0
 36 40  1  0
 37 36  2  0
 38 37  1  0
 39 38  1  0
 41 42  1  0
 42 45  1  0
 42 44  1  0
 43 41  2  0
 46 47  1  0
 46 21  1  0
 48 46  1  0
 49 10  1  0
 50 52  1  0
 50 49  1  0
 51 49  2  0
 53 50  1  0
 54 55  1  0
 55 56  1  0
 56 57  1  0
 57 58  1  0
 58 61  1  0
 58 59  1  0
 60 58  1  0
 61 62  1  0
 63 62  2  0
 63 64  1  0
 65 64  1  0
 66 77  2  0
 67 65  1  0
 67 72  1  0
 68 78  1  0
 68 76  1  0
 69 71  1  0
 70 76  1  0
 71 72  2  0
 71 70  1  0
 73 67  2  0
 74 73  1  0
 74 69  2  0
 75 69  1  0
 75 68  1  0
 76 66  1  0
 78 80  2  0
 79 78  1  0
 81 79  1  0
 82 87  1  0
 83 79  1  0
 84 83  1  0
 85 84  1  0
 86 85  1  0
 86 82  1  0
 87 88  2  0
 87 83  1  0
 89 88  1  0
 90 89  2  0
 91 90  1  0
 91 82  2  0
 92 66  1  0
 92 93  1  0
 92102  1  0
 93 96  1  0
 94 98  1  0
 94 93  1  0
 95 94  2  0
 98 97  1  0
 98100  1  0
100 99  1  0
101100  1  0
102103  1  1
102105  1  0
104102  1  0
M  ISO  4  11 100  19 100  64 101  65 101
M  END
>  <TORSDO>  (12) 
F 33

>  <SCORE>  (12) 
-0.110

>  <name>  (12) 
11

>  <ligand_id>  (12) 
11

>  <original_smiles>  (12) 
[H]c1c([H])c([H])c2c(c1[H])C([H])([H])C([H])([H])C([H])([H])C2([H])N([H])C(=O)C1([H])N(C(=O)C([H])(N([H])C(=O)C([H])(N([H])C([H])([H])[H])C([H])([H])[H])C(C([H])([H])[H])(C([H])([H])[H])C([H])([H])[H])C([H])([H])c2c([H])c(OC([H])([H])C([H])([H])C([H])([H])C([H])([H])[N+]([H])([H])C([H])([H])C([H])([H])C([H])([H])C([H])([H])C([H])([H])C([H])([H])[N+]([H])([H])C([H])([H])C([H])([H])C([H])([H])C([H])([H])C([H])(C(=O)N([H])[H])N([H])C(=O)N3C([H])([H])C([H])([H])C([H])([H])C([H])(n4nc(-c5c([H])c([H])c(Oc6c([H])c([H])c(F)c([H])c6F)c([H])c5[H])c(C(=O)N([H])[H])c4N([H])[H])C3([H])[H])c([H])c([H])c2C1([H])[H]

>  <smiles>  (12) 
[H]c1c([H])c([H])c2c(c1[H])C([H])([H])C([H])([H])C([H])([H])C2([H])N([H])C(=O)C1([H])N(C(=O)C([H])(N([H])C(=O)C([H])(N([H])C([H])([H])[H])C([H])([H])[H])C(C([H])([H])[H])(C([H])([H])[H])C([H])([H])[H])C([H])([H])c2c([H])c(OC([H])([H])C([H])([H])C([H])([H])C([H])([H])[N+]([H])([H])C([H])([H])C([H])([H])C([H])([H])C([H])([H])C([H])([H])C([H])([H])[N+]([H])([H])C([H])([H])C([H])([H])C([H])([H])C([H])([H])C([H])(C(=O)N([H])[H])N([H])C(=O)N3C([H])([H])C([H])([H])C([H])([H])C([H])(n4nc(-c5c([H])c([H])c(Oc6c([H])c([H])c(F)c([H])c6F)c([H])c5[H])c(C(=O)N([H])[H])c4N([H])[H])C3([H])[H])c([H])c([H])c2C1([H])[H]

$$$$
12:0:0
     RDKit          3D

100107  0  0  1  0  0  0  0  0999 V2000
  -26.8730  -22.2310   21.1600 C   0  0  0  0  0  1  0  0  0  0  0  0
  -29.2290  -22.2710   21.9380 C   0  0  0  0  0  1  0  0  0  0  0  0
  -28.3240  -21.8860   20.7380 C   0  0  2  0  0  0  0  0  0  0  0  0
  -28.7530  -22.7450   19.5070 C   0  0  0  0  0  2  0  0  0  0  0  0
  -28.4870  -24.2650   19.6380 C   0  0  0  0  0  2  0  0  0  0  0  0
  -29.3500  -25.1700   18.7290 C   0  0  0  0  0  3  0  0  0  0  0  0
  -29.4300  -24.6440   17.3420 N   0  0  0  0  0  4  0  0  0  0  0  0
  -28.5230  -24.5740   16.9110 H   0  0  0  0  0  0  0  0  0  0  0  0
  -29.8540  -23.7330   17.3180 H   0  0  0  0  0  0  0  0  0  0  0  0
  -29.9960  -25.2440   16.7660 H   0  0  0  0  0  0  0  0  0  0  0  0
  -28.8570  -26.6410   18.7230 C   0  0  0  0  0  2  0  0  0  0  0  0
  -28.5010  -27.1170   20.0330 O   0  0  0  0  0  0  0  0  0  0  0  0
  -24.6220  -31.9700   23.5540 C   0  0  0  0  0  0  0  0  0  0  0  0
  -27.2900  -27.7650   20.1580 C   0  0  0  0  0  0  0  0  0  0  0  0
  -23.4040  -30.6240   21.8750 C   0  0  0  0  0  3  0  0  0  0  0  0
  -24.8520  -29.1870   20.3510 C   0  0  0  0  0  0  0  0  0  0  0  0
  -25.9170  -31.0470   21.6340 C   0  0  0  0  0  2  0  0  0  0  0  0
  -26.0140  -29.7100   20.9300 C   0  0  0  0  0  0  0  0  0  0  0  0
  -27.2320  -28.9990   20.8450 C   0  0  0  0  0  3  0  0  0  0  0  0
  -26.0940  -27.2310   19.6200 C   0  0  0  0  0  3  0  0  0  0  0  0
  -24.8810  -27.9380   19.7090 C   0  0  0  0  0  3  0  0  0  0  0  0
  -23.5950  -30.0180   20.4600 C   0  0  0  0  0  2  0  0  0  0  0  0
  -24.6680  -31.2270   22.4110 N   0  0  0  0  0  0  0  0  0  0  0  0
  -23.5490  -32.1900   24.1320 O   0  0  0  0  0  0  0  0  0  0  0  0
  -22.8000  -29.5420   22.7980 C   0  0  0  0  0  0  0  0  0  0  0  0
  -21.5090  -29.2360   22.5920 N   0  0  0  0  0  0  0  0  0  0  0  0
  -23.4900  -28.9800   23.6520 O   0  0  0  0  0  0  0  0  0  0  0  0
  -21.0080  -29.7480   21.8800 H   0  0  0  0  0  0  0  0  0  0  0  0
  -18.2850  -27.6120   22.7780 C   0  0  0  0  0  0  0  0  0  0  0  0
  -20.7390  -28.2240   23.3160 C   0  0  0  0  0  3  0  0  0  0  0  0
  -21.0920  -26.8000   22.8280 C   0  0  0  0  0  2  0  0  0  0  0  0
  -20.1680  -26.2940   21.7170 C   0  0  0  0  0  2  0  0  0  0  0  0
  -18.7140  -26.2760   22.1960 C   0  0  0  0  0  2  0  0  0  0  0  0
  -19.2370  -28.5330   23.2890 C   0  0  0  0  0  0  0  0  0  0  0  0
  -18.7890  -29.7760   23.7850 C   0  0  0  0  0  3  0  0  0  0  0  0
  -17.4190  -30.1020   23.7800 C   0  0  0  0  0  3  0  0  0  0  0  0
  -16.4790  -29.1790   23.2900 C   0  0  0  0  0  3  0  0  0  0  0  0
  -16.9120  -27.9370   22.7920 C   0  0  0  0  0  3  0  0  0  0  0  0
  -25.9090  -32.5970   24.1730 C   0  0  0  0  0  3  0  0  0  0  0  0
  -26.4120  -31.8400   25.4630 C   0  0  1  0  0  0  0  0  0  0  0  0
  -25.3050  -31.6000   26.5150 C   0  0  0  0  0  1  0  0  0  0  0  0
  -27.0080  -30.4640   25.0870 C   0  0  0  0  0  1  0  0  0  0  0  0
  -27.5470  -32.6470   26.1370 C   0  0  0  0  0  1  0  0  0  0  0  0
  -25.6130  -34.0030   24.4770 N   0  0  0  0  0  0  0  0  0  0  0  0
  -25.9610  -35.0380   23.6990 C   0  0  0  0  0  0  0  0  0  0  0  0
  -26.6380  -34.9110   22.6760 O   0  0  0  0  0  0  0  0  0  0  0  0
  -25.0160  -34.1780   25.2710 H   0  0  0  0  0  0  0  0  0  0  0  0
  -24.2510  -36.8400   23.2980 C   0  0  0  0  0  1  0  0  0  0  0  0
  -25.4810  -36.4380   24.1290 C   0  0  0  0  0  3  0  0  0  0  0  0
  -27.6180  -37.3170   24.9590 C   0  0  0  0  0  1  0  0  0  0  0  0
  -26.5230  -37.4810   24.0060 N   0  0  0  0  0  0  0  0  0  0  0  0
  -26.1230  -38.4060   24.1390 H   0  0  0  0  0  0  0  0  0  0  0  0
  -28.4550  -20.3370   20.4590 C   0  0  0  0  0  3  0  0  0  0  0  0
  -29.9010  -19.7930   20.6430 C   0  0  0  0  0  2  0  0  0  0  0  0
  -29.9750  -18.3260   21.1290 C   0  0  0  0  0  2  0  0  0  0  0  0
  -31.4190  -17.7980   21.1620 C   0  0  0  0  0  2  0  0  0  0  0  0
  -31.6160  -16.5170   21.9990 C   0  0  0  0  0  2  0  0  0  0  0  0
  -31.2760  -14.5310   20.5320 C   0  0  0  0  0  0  0  0  0  0  0  0
  -30.8740  -12.3910   19.3670 C   0  0  0  0  0  2  0  0  0  0  0  0
  -29.9590  -12.5690   18.1420 C   0  0  0  0  0  2  0  0  0  0  0  0
  -28.4780  -12.4860   18.5520 C   0  0  0  0  0  2  0  0  0  0  0  0
  -28.1430  -13.3990   19.7620 C   0  0  0  0  0  3  0  0  0  0  0  0
  -29.1650  -13.1940   20.9030 C   0  0  0  0  0  2  0  0  0  0  0  0
  -30.5200  -13.4140   20.3630 N   0  0  0  0  0  0  0  0  0  0  0  0
  -32.3080  -14.7510   19.8910 O   0  0  0  0  0  0  0  0  0  0  0  0
  -30.8640  -15.3660   21.4950 N   0  0  0  0  0  0  0  0  0  0  0  0
  -30.0240  -15.1030   21.9940 H   0  0  0  0  0  0  0  0  0  0  0  0
  -25.7750  -14.1190   20.4690 C   0  0  0  0  0  0  0  0  0  0  0  0
  -24.6630  -13.3980   20.8130 C   0  0  0  0  0  0  0  0  0  0  0  0
  -25.0490  -12.0250   20.7530 C   0  0  0  0  0  0  0  0  0  0  0  0
  -26.7720  -13.1890   20.2240 N   0  0  0  0  0  0  0  0  0  0  0  0
  -26.3370  -11.9220   20.4500 N   0  0  0  0  0  0  0  0  0  0  0  0
  -24.2540  -10.8010   20.9080 C   0  0  0  0  0  0  0  0  0  0  0  0
  -24.6100   -9.8020   21.8400 C   0  0  0  0  0  3  0  0  0  0  0  0
  -23.8190   -8.6420   21.9840 C   0  0  0  0  0  3  0  0  0  0  0  0
  -22.6570   -8.4730   21.1950 C   0  0  0  0  0  0  0  0  0  0  0  0
  -22.3200   -9.4580   20.2520 C   0  0  0  0  0  3  0  0  0  0  0  0
  -23.1100  -10.6100   20.1050 C   0  0  0  0  0  3  0  0  0  0  0  0
  -21.8430   -7.3670   21.2470 O   0  0  0  0  0  0  0  0  0  0  0  0
  -21.6920   -6.6380   22.4000 C   0  0  0  0  0  0  0  0  0  0  0  0
  -21.2330   -7.2270   23.5990 C   0  0  0  0  0  3  0  0  0  0  0  0
  -21.0260   -6.4280   24.7420 C   0  0  0  0  0  3  0  0  0  0  0  0
  -21.2680   -5.0420   24.6850 C   0  0  0  0  0  0  0  0  0  0  0  0
  -21.7190   -4.4530   23.4910 C   0  0  0  0  0  3  0  0  0  0  0  0
  -21.9280   -5.2500   22.3500 C   0  0  0  0  0  0  0  0  0  0  0  0
  -22.3420   -4.6750   21.1960 F   0  0  0  0  0  0  0  0  0  0  0  0
  -21.0620   -4.2720   25.7780 F   0  0  0  0  0  0  0  0  0  0  0  0
  -23.2920  -13.9450   21.0930 C   0  0  0  0  0  0  0  0  0  0  0  0
  -22.5270  -13.2770   21.9490 N   0  0  0  0  0  0  0  0  0  0  0  0
  -22.9110  -15.0000   20.5870 O   0  0  0  0  0  0  0  0  0  0  0  0
  -22.8480  -12.4230   22.3790 H   0  0  0  0  0  0  0  0  0  0  0  0
  -21.6070  -13.6250   22.1760 H   0  0  0  0  0  0  0  0  0  0  0  0
  -26.0130  -15.4830   20.3190 N   0  0  0  0  0  0  0  0  0  0  0  0
  -25.2610  -16.1580   20.3780 H   0  0  0  0  0  0  0  0  0  0  0  0
  -26.8780  -15.8680   19.9640 H   0  0  0  0  0  0  0  0  0  0  0  0
  -27.8880  -19.8590   19.0840 C   0  0  0  0  0  2  0  0  0  0  0  0
  -26.4540  -19.5260   19.1250 N   0  0  0  0  0  4  0  0  0  0  0  0
  -26.2740  -18.7910   19.7850 H   0  0  0  0  0  0  0  0  0  0  0  0
  -26.1460  -19.2170   18.2190 H   0  0  0  0  0  0  0  0  0  0  0  0
  -25.9140  -20.3340   19.3810 H   0  0  0  0  0  0  0  0  0  0  0  0
  3  1  1  1
  3  2  1  0
  4  5  1  0
  4  3  1  0
  6 11  1  0
  6  5  1  0
  7  6  1  0
  8  7  1  0
  9  7  1  0
 10  7  1  0
 11 12  1  0
 12 14  1  0
 13 24  2  0
 14 19  1  0
 15 23  1  0
 15 25  1  0
 16 22  1  0
 16 18  1  0
 17 23  1  0
 18 17  1  0
 19 18  2  0
 20 21  1  0
 20 14  2  0
 21 16  2  0
 22 15  1  0
 23 13  1  0
 25 27  2  0
 26 25  1  0
 28 26  1  0
 29 38  2  0
 29 34  1  0
 30 26  1  0
 31 30  1  0
 32 33  1  0
 32 31  1  0
 33 29  1  0
 34 30  1  0
 34 35  2  0
 36 35  1  0
 37 36  2  0
 38 37  1  0
 39 13  1  0
 39 44  1  0
 39 40  1  0
 40 43  1  1
 40 41  1  0
 42 40  1  0
 44 47  1  0
 45 49  1  0
 45 44  1  0
 46 45  2  0
 49 48  1  0
 51 49  1  0
 51 52  1  0
 51 50  1  0
 53 96  1  0
 53 54  1  0
 53  3  1  0
 54 55  1  0
 55 56  1  0
 56 57  1  0
 58 66  1  0
 59 64  1  0
 60 61  1  0
 60 59  1  0
 62 61  1  0
 62 71  1  0
 62 63  1  0
 64 58  1  0
 64 63  1  0
 65 58  2  0
 66 67  1  0
 66 57  1  0
 68 69  2  0
 69 88  1  0
 70 69  1  0
 70 73  1  0
 71 72  1  0
 71 68  1  0
 72 70  2  0
 73 74  1  0
 74 75  2  0
 76 79  1  0
 76 75  1  0
 77 76  2  0
 78 77  1  0
 78 73  2  0
 79 80  1  0
 80 81  1  0
 81 82  2  0
 83 82  1  0
 83 87  1  0
 84 83  2  0
 85 80  2  0
 85 84  1  0
 86 85  1  0
 88 89  1  0
 89 92  1  0
 89 91  1  0
 90 88  2  0
 93 94  1  0
 93 68  1  0
 95 93  1  0
 96 97  1  0
 97100  1  0
 97 98  1  0
 99 97  1  0
M  ISO  4  11 101  12 101  58 100  66 100
M  END
>  <TORSDO>  (13) 
F 28

>  <SCORE>  (13) 
-10.552

>  <name>  (13) 
12

>  <ligand_id>  (13) 
12

>  <original_smiles>  (13) 
[H]c1c([H])c([H])c2c(c1[H])C([H])([H])C([H])([H])C([H])([H])C2([H])N([H])C(=O)C1([H])N(C(=O)C([H])(N([H])C(=O)C([H])(N([H])C([H])([H])[H])C([H])([H])[H])C(C([H])([H])[H])(C([H])([H])[H])C([H])([H])[H])C([H])([H])c2c([H])c(OC([H])([H])C([H])(C([H])([H])C([H])([H])C(C([H])([H])[H])(C([H])([H])[H])C([H])(C([H])([H])C([H])([H])C([H])([H])C([H])([H])N([H])C(=O)N3C([H])([H])C([H])([H])C([H])([H])C([H])(n4nc(-c5c([H])c([H])c(Oc6c([H])c([H])c(F)c([H])c6F)c([H])c5[H])c(C(=O)N([H])[H])c4N([H])[H])C3([H])[H])C([H])([H])[N+]([H])([H])[H])[N+]([H])([H])[H])c([H])c([H])c2C1([H])[H]

>  <smiles>  (13) 
[H]c1c([H])c([H])c2c(c1[H])C([H])([H])C([H])([H])C([H])([H])C2([H])N([H])C(=O)C1([H])N(C(=O)C([H])(N([H])C(=O)C([H])(N([H])C([H])([H])[H])C([H])([H])[H])C(C([H])([H])[H])(C([H])([H])[H])C([H])([H])[H])C([H])([H])c2c([H])c(OC([H])([H])C([H])(C([H])([H])C([H])([H])C(C([H])([H])[H])(C([H])([H])[H])C([H])(C([H])([H])C([H])([H])C([H])([H])C([H])([H])N([H])C(=O)N3C([H])([H])C([H])([H])C([H])([H])C([H])(n4nc(-c5c([H])c([H])c(Oc6c([H])c([H])c(F)c([H])c6F)c([H])c5[H])c(C(=O)N([H])[H])c4N([H])[H])C3([H])[H])C([H])([H])[N+]([H])([H])[H])[N+]([H])([H])[H])c([H])c([H])c2C1([H])[H]

$$$$
13:0:0
     RDKit          3D

 97104  0  0  1  0  0  0  0  0999 V2000
  -28.0780  -19.6570   21.0290 C   0  0  0  0  0  2  0  0  0  0  0  0
  -29.6110  -19.4230   21.0990 C   0  0  0  0  0  2  0  0  0  0  0  0
  -29.9740  -17.9430   21.4050 C   0  0  0  0  0  2  0  0  0  0  0  0
  -30.3200  -17.0240   20.1900 C   0  0  0  0  0  3  0  0  0  0  0  0
  -30.9010  -14.6070   20.1870 C   0  0  0  0  0  0  0  0  0  0  0  0
  -30.5400  -12.4960   18.9870 C   0  0  0  0  0  2  0  0  0  0  0  0
  -29.5660  -12.7850   17.8230 C   0  0  0  0  0  2  0  0  0  0  0  0
  -28.1070  -12.6370   18.2950 C   0  0  0  0  0  2  0  0  0  0  0  0
  -27.8310  -13.4160   19.6030 C   0  0  0  0  0  3  0  0  0  0  0  0
  -28.9140  -13.1270   20.6670 C   0  0  0  0  0  2  0  0  0  0  0  0
  -30.2230  -13.4370   20.0660 N   0  0  0  0  0  0  0  0  0  0  0  0
  -32.0240  -14.8000   19.7060 O   0  0  0  0  0  0  0  0  0  0  0  0
  -30.1650  -15.6290   20.6370 N   0  0  0  0  0  0  0  0  0  0  0  0
  -29.2490  -15.3900   20.9890 H   0  0  0  0  0  0  0  0  0  0  0  0
  -25.4400  -14.0410   20.3270 C   0  0  0  0  0  0  0  0  0  0  0  0
  -24.3770  -13.2740   20.7200 C   0  0  0  0  0  0  0  0  0  0  0  0
  -24.8380  -11.9210   20.7050 C   0  0  0  0  0  0  0  0  0  0  0  0
  -26.4840  -13.1570   20.1000 N   0  0  0  0  0  0  0  0  0  0  0  0
  -26.1220  -11.8760   20.3700 N   0  0  0  0  0  0  0  0  0  0  0  0
  -24.1180  -10.6610   20.9230 C   0  0  0  0  0  0  0  0  0  0  0  0
  -24.5460   -9.7240   21.8920 C   0  0  0  0  0  3  0  0  0  0  0  0
  -23.8320   -8.5210   22.0810 C   0  0  0  0  0  3  0  0  0  0  0  0
  -22.6760   -8.2490   21.3130 C   0  0  0  0  0  0  0  0  0  0  0  0
  -22.2700   -9.1750   20.3370 C   0  0  0  0  0  3  0  0  0  0  0  0
  -22.9820  -10.3690   20.1420 C   0  0  0  0  0  3  0  0  0  0  0  0
  -21.9340   -7.0990   21.4180 O   0  0  0  0  0  0  0  0  0  0  0  0
  -21.8430   -6.4080   22.6010 C   0  0  0  0  0  0  0  0  0  0  0  0
  -21.3600   -7.0140   23.7810 C   0  0  0  0  0  3  0  0  0  0  0  0
  -21.2100   -6.2500   24.9550 C   0  0  0  0  0  3  0  0  0  0  0  0
  -21.5440   -4.8830   24.9550 C   0  0  0  0  0  0  0  0  0  0  0  0
  -22.0220   -4.2770   23.7780 C   0  0  0  0  0  3  0  0  0  0  0  0
  -22.1690   -5.0380   22.6050 C   0  0  0  0  0  0  0  0  0  0  0  0
  -22.6060   -4.4440   21.4710 F   0  0  0  0  0  0  0  0  0  0  0  0
  -21.3940   -4.1470   26.0800 F   0  0  0  0  0  0  0  0  0  0  0  0
  -22.9820  -13.7540   20.9920 C   0  0  0  0  0  0  0  0  0  0  0  0
  -22.2590  -13.0890   21.8790 N   0  0  0  0  0  0  0  0  0  0  0  0
  -22.5360  -14.7600   20.4390 O   0  0  0  0  0  0  0  0  0  0  0  0
  -22.6400  -12.3080   22.3910 H   0  0  0  0  0  0  0  0  0  0  0  0
  -21.3200  -13.4000   22.0830 H   0  0  0  0  0  0  0  0  0  0  0  0
  -25.5910  -15.4120   20.1230 N   0  0  0  0  0  0  0  0  0  0  0  0
  -26.4310  -15.8360   19.7390 H   0  0  0  0  0  0  0  0  0  0  0  0
  -24.8140  -16.0570   20.2010 H   0  0  0  0  0  0  0  0  0  0  0  0
  -29.3300  -17.2460   19.0100 C   0  0  0  0  0  0  0  0  0  0  0  0
  -28.1910  -16.7680   19.0210 O   0  0  0  0  0  0  0  0  0  0  0  0
  -29.7890  -18.1170   17.8210 C   0  0  0  0  0  2  0  0  0  0  0  0
  -28.6650  -18.2890   16.8720 N   0  0  0  0  0  4  0  0  0  0  0  0
  -28.8060  -19.0920   16.2830 H   0  0  0  0  0  0  0  0  0  0  0  0
  -27.8120  -18.3890   17.4040 H   0  0  0  0  0  0  0  0  0  0  0  0
  -28.5600  -17.4800   16.2840 H   0  0  0  0  0  0  0  0  0  0  0  0
  -27.5930  -20.7990   20.0960 C   0  0  0  0  0  2  0  0  0  0  0  0
  -27.5790  -22.1150   20.7350 N   0  0  0  0  0  4  0  0  0  0  0  0
  -27.9470  -22.0530   21.6720 H   0  0  0  0  0  0  0  0  0  0  0  0
  -26.6160  -22.3930   20.8650 H   0  0  0  0  0  0  0  0  0  0  0  0
  -28.2880  -23.1110   19.9320 C   0  0  0  0  0  2  0  0  0  0  0  0
  -28.0590  -24.5370   20.4710 C   0  0  0  0  0  2  0  0  0  0  0  0
  -28.7180  -25.6230   19.5970 C   0  0  0  0  0  2  0  0  0  0  0  0
  -28.5700  -26.9180   20.1740 O   0  0  0  0  0  0  0  0  0  0  0  0
  -24.5970  -31.9130   23.2650 C   0  0  0  0  0  0  0  0  0  0  0  0
  -27.3510  -27.5690   20.1460 C   0  0  0  0  0  0  0  0  0  0  0  0
  -23.4240  -30.5120   21.5970 C   0  0  0  0  0  3  0  0  0  0  0  0
  -24.9150  -29.0090   20.1700 C   0  0  0  0  0  0  0  0  0  0  0  0
  -25.9450  -30.9090   21.4290 C   0  0  0  0  0  2  0  0  0  0  0  0
  -26.0560  -29.5480   20.7770 C   0  0  0  0  0  0  0  0  0  0  0  0
  -27.2730  -28.8310   20.7690 C   0  0  0  0  0  3  0  0  0  0  0  0
  -26.1920  -27.0470   19.5210 C   0  0  0  0  0  3  0  0  0  0  0  0
  -24.9780  -27.7550   19.5380 C   0  0  0  0  0  3  0  0  0  0  0  0
  -23.6500  -29.8330   20.2160 C   0  0  0  0  0  2  0  0  0  0  0  0
  -24.6720  -31.1270   22.1540 N   0  0  0  0  0  0  0  0  0  0  0  0
  -23.5070  -32.1650   23.7970 O   0  0  0  0  0  0  0  0  0  0  0  0
  -22.7780  -29.4770   22.5450 C   0  0  0  0  0  0  0  0  0  0  0  0
  -21.4600  -29.2680   22.3940 N   0  0  0  0  0  0  0  0  0  0  0  0
  -23.4630  -28.8590   23.3640 O   0  0  0  0  0  0  0  0  0  0  0  0
  -20.9680  -29.8250   21.7090 H   0  0  0  0  0  0  0  0  0  0  0  0
  -18.1010  -28.0120   22.8280 C   0  0  0  0  0  0  0  0  0  0  0  0
  -20.6480  -28.3080   23.1410 C   0  0  0  0  0  3  0  0  0  0  0  0
  -20.7820  -26.8840   22.5510 C   0  0  0  0  0  2  0  0  0  0  0  0
  -19.7000  -26.5540   21.5180 C   0  0  0  0  0  2  0  0  0  0  0  0
  -18.3080  -26.6720   22.1440 C   0  0  0  0  0  2  0  0  0  0  0  0
  -19.2000  -28.7900   23.2790 C   0  0  0  0  0  0  0  0  0  0  0  0
  -18.9540  -30.0480   23.8700 C   0  0  0  0  0  3  0  0  0  0  0  0
  -17.6380  -30.5290   24.0170 C   0  0  0  0  0  3  0  0  0  0  0  0
  -16.5540  -29.7470   23.5860 C   0  0  0  0  0  3  0  0  0  0  0  0
  -16.7850  -28.4880   22.9980 C   0  0  0  0  0  3  0  0  0  0  0  0
  -25.8700  -32.5560   23.9010 C   0  0  0  0  0  3  0  0  0  0  0  0
  -25.5530  -33.9590   24.2030 N   0  0  0  0  0  0  0  0  0  0  0  0
  -25.8990  -35.0030   23.4380 C   0  0  0  0  0  0  0  0  0  0  0  0
  -26.5900  -34.8850   22.4240 O   0  0  0  0  0  0  0  0  0  0  0  0
  -24.9580  -34.1210   25.0010 H   0  0  0  0  0  0  0  0  0  0  0  0
  -24.1810  -36.7860   23.0090 C   0  0  0  0  0  1  0  0  0  0  0  0
  -25.3980  -36.3980   23.8640 C   0  0  0  0  0  3  0  0  0  0  0  0
  -27.5080  -37.2910   24.7480 C   0  0  0  0  0  1  0  0  0  0  0  0
  -26.4350  -37.4480   23.7690 N   0  0  0  0  0  0  0  0  0  0  0  0
  -26.0250  -38.3680   23.8930 H   0  0  0  0  0  0  0  0  0  0  0  0
  -26.3660  -31.8060   25.1970 C   0  0  1  0  0  0  0  0  0  0  0  0
  -25.2550  -31.5800   26.2480 C   0  0  0  0  0  1  0  0  0  0  0  0
  -26.9660  -30.4260   24.8390 C   0  0  0  0  0  1  0  0  0  0  0  0
  -27.5000  -32.6170   25.8720 C   0  0  0  0  0  1  0  0  0  0  0  0
  1  2  1  0
  2  3  1  0
  4 13  1  0
  4  3  1  0
  5 13  1  0
  6 11  1  0
  7  8  1  0
  7  6  1  0
  9  8  1  0
  9 18  1  0
  9 10  1  0
 11  5  1  0
 11 10  1  0
 12  5  2  0
 13 14  1  0
 15 16  2  0
 16 35  1  0
 17 16  1  0
 17 20  1  0
 18 15  1  0
 18 19  1  0
 19 17  2  0
 20 21  1  0
 21 22  2  0
 23 26  1  0
 23 22  1  0
 24 23  2  0
 25 24  1  0
 25 20  2  0
 26 27  1  0
 27 32  2  0
 27 28  1  0
 28 29  2  0
 30 29  1  0
 30 34  1  0
 31 30  2  0
 32 31  1  0
 33 32  1  0
 35 36  1  0
 36 39  1  0
 36 38  1  0
 37 35  2  0
 40 42  1  0
 40 15  1  0
 41 40  1  0
 43 44  2  0
 43  4  1  0
 45 43  1  0
 46 48  1  0
 46 45  1  0
 47 46  1  0
 49 46  1  0
 50 51  1  0
 50  1  1  0
 51 53  1  0
 51 52  1  0
 54 55  1  0
 54 51  1  0
 56 57  1  0
 56 55  1  0
 58 69  2  0
 59 57  1  0
 59 64  1  0
 60 68  1  0
 60 70  1  0
 61 67  1  0
 61 63  1  0
 62 68  1  0
 63 62  1  0
 64 63  2  0
 65 66  1  0
 65 59  2  0
 66 61  2  0
 67 60  1  0
 68 58  1  0
 70 72  2  0
 71 70  1  0
 73 71  1  0
 74 83  2  0
 74 79  1  0
 75 71  1  0
 75 79  1  0
 76 75  1  0
 77 78  1  0
 77 76  1  0
 78 74  1  0
 79 80  2  0
 80 81  1  0
 82 81  2  0
 83 82  1  0
 84 58  1  0
 84 85  1  0
 84 94  1  0
 85 88  1  0
 86 90  1  0
 86 85  1  0
 87 86  2  0
 90 89  1  0
 92 90  1  0
 92 93  1  0
 92 91  1  0
 94 97  1  1
 94 95  1  0
 96 94  1  0
M  ISO  4   5 100  13 100  56 101  57 101
M  END
>  <TORSDO>  (14) 
F 27

>  <SCORE>  (14) 
-11.081

>  <name>  (14) 
13

>  <ligand_id>  (14) 
13

>  <original_smiles>  (14) 
[H]c1c([H])c([H])c2c(c1[H])C([H])([H])C([H])([H])C([H])([H])C2([H])N([H])C(=O)C1([H])N(C(=O)C([H])(N([H])C(=O)C([H])(N([H])C([H])([H])[H])C([H])([H])[H])C(C([H])([H])[H])(C([H])([H])[H])C([H])([H])[H])C([H])([H])c2c([H])c(OC([H])([H])C([H])([H])C([H])([H])[N+]([H])([H])C([H])([H])C([H])([H])C([H])([H])C([H])([H])C([H])(C(=O)C([H])([H])[N+]([H])([H])[H])N([H])C(=O)N3C([H])([H])C([H])([H])C([H])([H])C([H])(n4nc(-c5c([H])c([H])c(Oc6c([H])c([H])c(F)c([H])c6F)c([H])c5[H])c(C(=O)N([H])[H])c4N([H])[H])C3([H])[H])c([H])c([H])c2C1([H])[H]

>  <smiles>  (14) 
[H]c1c([H])c([H])c2c(c1[H])C([H])([H])C([H])([H])C([H])([H])C2([H])N([H])C(=O)C1([H])N(C(=O)C([H])(N([H])C(=O)C([H])(N([H])C([H])([H])[H])C([H])([H])[H])C(C([H])([H])[H])(C([H])([H])[H])C([H])([H])[H])C([H])([H])c2c([H])c(OC([H])([H])C([H])([H])C([H])([H])[N+]([H])([H])C([H])([H])C([H])([H])C([H])([H])C([H])([H])C([H])(C(=O)C([H])([H])[N+]([H])([H])[H])N([H])C(=O)N3C([H])([H])C([H])([H])C([H])([H])C([H])(n4nc(-c5c([H])c([H])c(Oc6c([H])c([H])c(F)c([H])c6F)c([H])c5[H])c(C(=O)N([H])[H])c4N([H])[H])C3([H])[H])c([H])c([H])c2C1([H])[H]

$$$$
14:0:0
     RDKit          3D

101109  0  0  1  0  0  0  0  0999 V2000
  -28.1460  -23.2340   24.4600 C   0  0  0  0  0  3  0  0  0  0  0  0
  -28.0270  -26.3710   22.3970 C   0  0  0  0  0  2  0  0  0  0  0  0
  -29.4560  -26.4330   21.8280 C   0  0  0  0  0  2  0  0  0  0  0  0
  -27.6120  -24.9290   22.7370 C   0  0  0  0  0  2  0  0  0  0  0  0
  -29.8890  -24.9120   23.8110 C   0  0  0  0  0  2  0  0  0  0  0  0
  -30.3890  -25.3430   22.4150 C   0  0  0  0  0  3  0  0  0  0  0  0
  -28.5340  -24.3090   23.7190 N   0  0  0  0  0  0  0  0  0  0  0  0
  -26.9230  -22.6840   24.3040 N   0  0  0  0  0  0  0  0  0  0  0  0
  -26.6680  -21.8490   24.8180 H   0  0  0  0  0  0  0  0  0  0  0  0
  -26.2390  -23.0540   23.6600 H   0  0  0  0  0  0  0  0  0  0  0  0
  -29.0550  -22.5870   25.4710 C   0  0  0  0  0  2  0  0  0  0  0  0
  -30.5350  -22.8580   25.1350 C   0  0  0  0  0  2  0  0  0  0  0  0
  -31.3890  -21.6020   24.8870 C   0  0  0  0  0  3  0  0  0  0  0  0
  -32.2750  -21.4150   25.9780 O   0  0  0  0  0  0  0  0  0  0  0  0
  -32.9160  -22.1200   25.9660 H   0  0  0  0  0  0  0  0  0  0  0  0
  -32.1930  -21.7340   23.5810 C   0  0  0  0  0  2  0  0  0  0  0  0
  -32.6340  -20.3990   22.9570 C   0  0  0  0  0  2  0  0  0  0  0  0
  -33.2620  -20.6060   21.5670 C   0  0  0  0  0  2  0  0  0  0  0  0
  -34.1250  -19.4300   21.0880 C   0  0  0  0  0  2  0  0  0  0  0  0
  -33.6750  -17.4160   19.6880 C   0  0  0  0  0  0  0  0  0  0  0  0
  -33.5830  -15.0090   19.1740 C   0  0  0  0  0  2  0  0  0  0  0  0
  -32.7650  -14.6580   17.9230 C   0  0  0  0  0  2  0  0  0  0  0  0
  -31.2760  -14.5010   18.2760 C   0  0  0  0  0  2  0  0  0  0  0  0
  -30.7330  -15.7070   19.0850 C   0  0  0  0  0  3  0  0  0  0  0  0
  -31.6560  -16.0360   20.2770 C   0  0  0  0  0  2  0  0  0  0  0  0
  -33.0320  -16.2290   19.7770 N   0  0  0  0  0  0  0  0  0  0  0  0
  -34.6360  -17.6230   18.9380 O   0  0  0  0  0  0  0  0  0  0  0  0
  -33.3350  -18.2820   20.6500 N   0  0  0  0  0  0  0  0  0  0  0  0
  -32.5690  -18.0000   21.2460 H   0  0  0  0  0  0  0  0  0  0  0  0
  -28.3310  -16.3850   19.7250 C   0  0  0  0  0  0  0  0  0  0  0  0
  -27.2290  -15.6440   20.0570 C   0  0  0  0  0  0  0  0  0  0  0  0
  -27.6490  -14.2790   20.0300 C   0  0  0  0  0  0  0  0  0  0  0  0
  -29.3550  -15.4740   19.5200 N   0  0  0  0  0  0  0  0  0  0  0  0
  -28.9450  -14.2020   19.7590 N   0  0  0  0  0  0  0  0  0  0  0  0
  -26.8800  -13.0390   20.1910 C   0  0  0  0  0  0  0  0  0  0  0  0
  -27.0050  -12.2370   21.3480 C   0  0  0  0  0  3  0  0  0  0  0  0
  -26.2410  -11.0580   21.4870 C   0  0  0  0  0  3  0  0  0  0  0  0
  -25.3400  -10.6710   20.4680 C   0  0  0  0  0  0  0  0  0  0  0  0
  -25.2370  -11.4600   19.3090 C   0  0  0  0  0  3  0  0  0  0  0  0
  -26.0010  -12.6300   19.1680 C   0  0  0  0  0  3  0  0  0  0  0  0
  -24.5770   -9.5290   20.5040 O   0  0  0  0  0  0  0  0  0  0  0  0
  -23.8730   -9.1690   21.6260 C   0  0  0  0  0  0  0  0  0  0  0  0
  -22.8590   -9.9910   22.1640 C   0  0  0  0  0  3  0  0  0  0  0  0
  -22.1140   -9.5510   23.2770 C   0  0  0  0  0  3  0  0  0  0  0  0
  -22.3730   -8.2900   23.8460 C   0  0  0  0  0  0  0  0  0  0  0  0
  -23.3790   -7.4680   23.3070 C   0  0  0  0  0  3  0  0  0  0  0  0
  -24.1250   -7.9060   22.1980 C   0  0  0  0  0  0  0  0  0  0  0  0
  -25.0790   -7.1020   21.6700 F   0  0  0  0  0  0  0  0  0  0  0  0
  -21.6530   -7.8640   24.9090 F   0  0  0  0  0  0  0  0  0  0  0  0
  -25.8400  -16.1610   20.2940 C   0  0  0  0  0  0  0  0  0  0  0  0
  -25.0770  -15.5000   21.1580 N   0  0  0  0  0  0  0  0  0  0  0  0
  -25.4380  -17.1880   19.7460 O   0  0  0  0  0  0  0  0  0  0  0  0
  -25.4130  -14.6690   21.6210 H   0  0  0  0  0  0  0  0  0  0  0  0
  -24.1440  -15.8290   21.3580 H   0  0  0  0  0  0  0  0  0  0  0  0
  -28.5430  -17.7510   19.5600 N   0  0  0  0  0  0  0  0  0  0  0  0
  -27.7960  -18.4310   19.6490 H   0  0  0  0  0  0  0  0  0  0  0  0
  -29.4240  -18.1620   19.2760 H   0  0  0  0  0  0  0  0  0  0  0  0
  -31.8670  -25.7880   22.4410 C   0  0  0  0  0  2  0  0  0  0  0  0
  -32.4910  -25.8830   21.0340 C   0  0  0  0  0  2  0  0  0  0  0  0
  -33.4670  -27.0620   20.8110 C   0  0  0  0  0  2  0  0  0  0  0  0
  -33.2820  -28.2190   21.6310 O   0  0  0  0  0  0  0  0  0  0  0  0
  -28.9180  -31.8750   25.8580 C   0  0  0  0  0  0  0  0  0  0  0  0
  -32.0660  -28.8660   21.7010 C   0  0  0  0  0  0  0  0  0  0  0  0
  -27.9490  -31.1440   23.7030 C   0  0  0  0  0  3  0  0  0  0  0  0
  -29.6050  -30.2320   21.9950 C   0  0  0  0  0  0  0  0  0  0  0  0
  -30.4610  -31.5630   23.9300 C   0  0  0  0  0  2  0  0  0  0  0  0
  -30.6690  -30.5120   22.8610 C   0  0  0  0  0  0  0  0  0  0  0  0
  -31.8930  -29.8230   22.7260 C   0  0  0  0  0  3  0  0  0  0  0  0
  -30.9870  -28.6140   20.8230 C   0  0  0  0  0  3  0  0  0  0  0  0
  -29.7560  -29.2760   20.9790 C   0  0  0  0  0  3  0  0  0  0  0  0
  -28.3250  -31.0070   22.2050 C   0  0  0  0  0  2  0  0  0  0  0  0
  -29.1200  -31.5210   24.5580 N   0  0  0  0  0  0  0  0  0  0  0  0
  -27.7770  -31.9310   26.3360 O   0  0  0  0  0  0  0  0  0  0  0  0
  -27.2540  -29.8410   24.1600 C   0  0  0  0  0  0  0  0  0  0  0  0
  -26.0350  -29.6040   23.6470 N   0  0  0  0  0  0  0  0  0  0  0  0
  -27.8160  -29.0620   24.9330 O   0  0  0  0  0  0  0  0  0  0  0  0
  -25.6400  -30.2960   23.0270 H   0  0  0  0  0  0  0  0  0  0  0  0
  -22.9200  -27.9930   22.7880 C   0  0  0  0  0  0  0  0  0  0  0  0
  -25.2090  -28.4260   23.9080 C   0  0  0  0  0  3  0  0  0  0  0  0
  -25.7170  -27.2030   23.1080 C   0  0  0  0  0  2  0  0  0  0  0  0
  -25.0230  -27.0380   21.7530 C   0  0  0  0  0  2  0  0  0  0  0  0
  -23.5110  -26.8800   21.9400 C   0  0  0  0  0  2  0  0  0  0  0  0
  -23.7200  -28.7290   23.7010 C   0  0  0  0  0  0  0  0  0  0  0  0
  -23.1290  -29.7770   24.4400 C   0  0  0  0  0  3  0  0  0  0  0  0
  -21.7660  -30.0900   24.2800 C   0  0  0  0  0  3  0  0  0  0  0  0
  -20.9750  -29.3480   23.3890 C   0  0  0  0  0  3  0  0  0  0  0  0
  -21.5500  -28.2990   22.6490 C   0  0  0  0  0  3  0  0  0  0  0  0
  -30.1070  -32.2510   26.7980 C   0  0  0  0  0  3  0  0  0  0  0  0
  -30.2710  -31.2630   28.0170 C   0  0  1  0  0  0  0  0  0  0  0  0
  -28.9520  -30.9860   28.7740 C   0  0  0  0  0  1  0  0  0  0  0  0
  -30.8410  -29.9040   27.5460 C   0  0  0  0  0  1  0  0  0  0  0  0
  -31.2900  -31.8430   29.0280 C   0  0  0  0  0  1  0  0  0  0  0  0
  -29.8820  -33.6240   27.2680 N   0  0  0  0  0  0  0  0  0  0  0  0
  -30.4530  -34.7120   26.7350 C   0  0  0  0  0  0  0  0  0  0  0  0
  -31.2930  -34.6540   25.8310 O   0  0  0  0  0  0  0  0  0  0  0  0
  -29.1670  -33.7510   27.9690 H   0  0  0  0  0  0  0  0  0  0  0  0
  -29.0160  -36.7360   26.3360 C   0  0  0  0  0  1  0  0  0  0  0  0
  -30.0260  -36.0820   27.2930 C   0  0  0  0  0  3  0  0  0  0  0  0
  -32.0460  -36.5690   28.6010 C   0  0  0  0  0  1  0  0  0  0  0  0
  -31.1600  -37.0030   27.5240 N   0  0  0  0  0  0  0  0  0  0  0  0
  -30.8270  -37.9370   27.7450 H   0  0  0  0  0  0  0  0  0  0  0  0
  1 11  1  0
  2  4  1  0
  3  2  1  0
  3  6  1  0
  4  7  1  0
  6 58  1  0
  6  5  1  0
  7  5  1  0
  7  1  1  0
  8  1  1  0
  8  9  1  0
 10  8  1  0
 12 11  1  0
 13 16  1  0
 13 12  1  0
 13 14  1  0
 15 14  1  0
 17 16  1  0
 18 17  1  0
 19 18  1  0
 20 26  1  0
 20 28  1  0
 21 26  1  0
 22 23  1  0
 22 21  1  0
 24 23  1  0
 24 33  1  0
 24 25  1  0
 26 25  1  0
 27 20  2  0
 28 19  1  0
 28 29  1  0
 30 31  2  0
 31 50  1  0
 32 31  1  0
 32 35  1  0
 33 30  1  0
 33 34  1  0
 34 32  2  0
 35 36  1  0
 36 37  2  0
 38 41  1  0
 38 37  1  0
 39 38  2  0
 40 39  1  0
 40 35  2  0
 41 42  1  0
 42 43  2  0
 42 47  1  0
 43 44  1  0
 44 45  2  0
 45 49  1  0
 46 45  1  0
 47 46  2  0
 48 47  1  0
 50 51  1  0
 51 54  1  0
 51 53  1  0
 52 50  2  0
 55 56  1  0
 55 30  1  0
 57 55  1  0
 59 58  1  0
 60 59  1  0
 60 61  1  0
 61 63  1  0
 62 73  2  0
 63 68  1  0
 64 74  1  0
 64 72  1  0
 65 71  1  0
 65 67  1  0
 66 72  1  0
 67 66  1  0
 68 67  2  0
 69 70  1  0
 69 63  2  0
 70 65  2  0
 71 64  1  0
 72 62  1  0
 74 76  2  0
 75 74  1  0
 77 75  1  0
 78 83  1  0
 79 75  1  0
 80 79  1  0
 81 82  1  0
 81 80  1  0
 82 78  1  0
 83 79  1  0
 83 84  2  0
 85 84  1  0
 86 85  2  0
 87 78  2  0
 87 86  1  0
 88 62  1  0
 88 93  1  0
 88 89  1  0
 89 90  1  1
 89 92  1  0
 91 89  1  0
 93 96  1  0
 94 93  1  0
 94 98  1  0
 95 94  2  0
 98 97  1  0
 98100  1  0
100101  1  0
100 99  1  0
M  ISO  4  20 100  28 100  60 101  61 101
M  END
>  <TORSDO>  (15) 
F 27

>  <SCORE>  (15) 
12.795

>  <name>  (15) 
14

>  <ligand_id>  (15) 
14

>  <original_smiles>  (15) 
[H]OC([H])(C([H])([H])C([H])([H])C(N1C([H])([H])C([H])([H])C([H])([H])C([H])(C([H])([H])C([H])([H])C([H])([H])Oc2c([H])c([H])c3c(c2[H])C([H])([H])N(C(=O)C([H])(N([H])C(=O)C([H])(N([H])C([H])([H])[H])C([H])([H])[H])C(C([H])([H])[H])(C([H])([H])[H])C([H])([H])[H])C([H])(C(=O)N([H])C2([H])c4c([H])c([H])c([H])c([H])c4C([H])([H])C([H])([H])C2([H])[H])C3([H])[H])C1([H])[H])=[N+]([H])[H])C([H])([H])C([H])([H])C([H])([H])C([H])([H])N([H])C(=O)N1C([H])([H])C([H])([H])C([H])([H])C([H])(n2nc(-c3c([H])c([H])c(Oc4c([H])c([H])c(F)c([H])c4F)c([H])c3[H])c(C(=O)N([H])[H])c2N([H])[H])C1([H])[H]

>  <smiles>  (15) 
[H]OC([H])(C([H])([H])C([H])([H])C(N1C([H])([H])C([H])([H])C([H])([H])C([H])(C([H])([H])C([H])([H])C([H])([H])Oc2c([H])c([H])c3c(c2[H])C([H])([H])N(C(=O)C([H])(N([H])C(=O)C([H])(N([H])C([H])([H])[H])C([H])([H])[H])C(C([H])([H])[H])(C([H])([H])[H])C([H])([H])[H])C([H])(C(=O)N([H])C2([H])c4c([H])c([H])c([H])c([H])c4C([H])([H])C([H])([H])C2([H])[H])C3([H])[H])C1([H])[H])=[N+]([H])[H])C([H])([H])C([H])([H])C([H])([H])C([H])([H])N([H])C(=O)N1C([H])([H])C([H])([H])C([H])([H])C([H])(n2nc(-c3c([H])c([H])c(Oc4c([H])c([H])c(F)c([H])c4F)c([H])c3[H])c(C(=O)N([H])[H])c2N([H])[H])C1([H])[H]

$$$$
15:0:0
     RDKit          3D

106113  0  0  1  0  0  0  0  0999 V2000
  -31.2000  -19.0410   23.4900 C   0  0  0  0  0  3  0  0  0  0  0  0
  -30.2610  -18.6530   24.6530 C   0  0  0  0  0  0  0  0  0  0  0  0
  -30.8020  -18.5370   25.8590 N   0  0  0  0  0  0  0  0  0  0  0  0
  -29.0580  -18.4670   24.4760 O   0  0  0  0  0  0  0  0  0  0  0  0
  -31.7930  -18.6900   25.9950 H   0  0  0  0  0  0  0  0  0  0  0  0
  -30.2300  -18.2810   26.6510 H   0  0  0  0  0  0  0  0  0  0  0  0
  -30.8650  -16.9930   22.0710 C   0  0  0  0  0  0  0  0  0  0  0  0
  -30.9040  -18.3160   22.2580 N   0  0  0  0  0  0  0  0  0  0  0  0
  -31.2060  -16.1890   22.9420 O   0  0  0  0  0  0  0  0  0  0  0  0
  -30.5830  -18.8790   21.4890 H   0  0  0  0  0  0  0  0  0  0  0  0
  -30.3770  -16.5130   20.6860 C   0  0  0  0  0  3  0  0  0  0  0  0
  -30.8320  -14.1350   20.0190 C   0  0  0  0  0  0  0  0  0  0  0  0
  -30.4550  -11.9690   18.9100 C   0  0  0  0  0  2  0  0  0  0  0  0
  -29.4470  -12.1770   17.7580 C   0  0  0  0  0  2  0  0  0  0  0  0
  -27.9910  -12.0980   18.2620 C   0  0  0  0  0  2  0  0  0  0  0  0
  -27.7490  -12.9670   19.5240 C   0  0  0  0  0  3  0  0  0  0  0  0
  -28.8460  -12.6920   20.5770 C   0  0  0  0  0  2  0  0  0  0  0  0
  -30.1570  -12.9590   19.9500 N   0  0  0  0  0  0  0  0  0  0  0  0
  -31.8710  -14.3710   19.3940 O   0  0  0  0  0  0  0  0  0  0  0  0
  -30.1770  -15.0690   20.7160 N   0  0  0  0  0  0  0  0  0  0  0  0
  -29.3710  -14.7460   21.2270 H   0  0  0  0  0  0  0  0  0  0  0  0
  -25.4250  -13.6930   20.3650 C   0  0  0  0  0  0  0  0  0  0  0  0
  -24.3410  -12.9700   20.7900 C   0  0  0  0  0  0  0  0  0  0  0  0
  -24.7270  -11.5970   20.7080 C   0  0  0  0  0  0  0  0  0  0  0  0
  -26.4090  -12.7610   20.0670 N   0  0  0  0  0  0  0  0  0  0  0  0
  -25.9920  -11.4950   20.3220 N   0  0  0  0  0  0  0  0  0  0  0  0
  -23.9520  -10.3690   20.9250 C   0  0  0  0  0  0  0  0  0  0  0  0
  -24.3790   -9.3760   21.8330 C   0  0  0  0  0  3  0  0  0  0  0  0
  -23.6070   -8.2120   22.0350 C   0  0  0  0  0  3  0  0  0  0  0  0
  -22.3950   -8.0320   21.3290 C   0  0  0  0  0  0  0  0  0  0  0  0
  -21.9860   -9.0140   20.4100 C   0  0  0  0  0  3  0  0  0  0  0  0
  -22.7580  -10.1700   20.2060 C   0  0  0  0  0  3  0  0  0  0  0  0
  -21.5920   -6.9230   21.4440 O   0  0  0  0  0  0  0  0  0  0  0  0
  -21.5240   -6.2010   22.6080 C   0  0  0  0  0  0  0  0  0  0  0  0
  -21.1490   -6.7940   23.8340 C   0  0  0  0  0  3  0  0  0  0  0  0
  -21.0250   -6.0000   24.9900 C   0  0  0  0  0  3  0  0  0  0  0  0
  -21.2680   -4.6160   24.9240 C   0  0  0  0  0  0  0  0  0  0  0  0
  -21.6390   -4.0230   23.7040 C   0  0  0  0  0  3  0  0  0  0  0  0
  -21.7650   -4.8140   22.5490 C   0  0  0  0  0  0  0  0  0  0  0  0
  -22.1000   -4.2340   21.3720 F   0  0  0  0  0  0  0  0  0  0  0  0
  -21.1430   -3.8510   26.0340 F   0  0  0  0  0  0  0  0  0  0  0  0
  -22.9890  -13.5120   21.1560 C   0  0  0  0  0  0  0  0  0  0  0  0
  -22.3030  -12.8610   22.0910 N   0  0  0  0  0  0  0  0  0  0  0  0
  -22.5550  -14.5440   20.6500 O   0  0  0  0  0  0  0  0  0  0  0  0
  -22.6710  -12.0230   22.5170 H   0  0  0  0  0  0  0  0  0  0  0  0
  -21.4000  -13.2050   22.3820 H   0  0  0  0  0  0  0  0  0  0  0  0
  -25.6520  -15.0530   20.1940 N   0  0  0  0  0  0  0  0  0  0  0  0
  -24.9390  -15.7530   20.3730 H   0  0  0  0  0  0  0  0  0  0  0  0
  -26.5020  -15.4450   19.8110 H   0  0  0  0  0  0  0  0  0  0  0  0
  -28.9900  -17.1360   20.3440 C   0  0  0  0  0  2  0  0  0  0  0  0
  -29.0430  -18.3500   19.3890 C   0  0  0  0  0  2  0  0  0  0  0  0
  -27.6560  -18.8050   18.9190 C   0  0  0  0  0  0  0  0  0  0  0  0
  -27.5990  -19.6110   17.8660 N   0  0  0  0  0  0  0  0  0  0  0  0
  -26.6330  -18.4430   19.4950 O   0  0  0  0  0  0  0  0  0  0  0  0
  -28.4410  -19.9040   17.3910 H   0  0  0  0  0  0  0  0  0  0  0  0
  -26.7050  -19.9240   17.5170 H   0  0  0  0  0  0  0  0  0  0  0  0
  -31.1510  -20.5590   23.1800 C   0  0  0  0  0  2  0  0  0  0  0  0
  -29.7350  -21.1810   23.0930 C   0  0  0  0  0  2  0  0  0  0  0  0
  -29.7260  -22.7210   23.0310 C   0  0  0  0  0  2  0  0  0  0  0  0
  -29.6760  -23.3010   21.5970 C   0  0  0  0  0  2  0  0  0  0  0  0
  -29.4490  -24.7460   21.6300 N   0  0  0  0  0  4  0  0  0  0  0  0
  -30.2780  -25.2130   21.9690 H   0  0  0  0  0  0  0  0  0  0  0  0
  -28.7380  -24.9610   22.3140 H   0  0  0  0  0  0  0  0  0  0  0  0
  -29.0580  -25.2750   20.3200 C   0  0  0  0  0  2  0  0  0  0  0  0
  -28.7800  -26.7940   20.4150 C   0  0  0  0  0  2  0  0  0  0  0  0
  -28.1710  -27.2600   19.2080 O   0  0  0  0  0  0  0  0  0  0  0  0
  -24.4970  -31.8940   23.1860 C   0  0  0  0  0  0  0  0  0  0  0  0
  -27.0100  -27.9670   19.4040 C   0  0  0  0  0  0  0  0  0  0  0  0
  -23.1990  -30.6370   21.4950 C   0  0  0  0  0  3  0  0  0  0  0  0
  -24.5740  -29.3390   19.7830 C   0  0  0  0  0  0  0  0  0  0  0  0
  -25.6830  -31.1280   21.1360 C   0  0  0  0  0  2  0  0  0  0  0  0
  -25.7580  -29.8450   20.3380 C   0  0  0  0  0  0  0  0  0  0  0  0
  -26.9790  -29.1620   20.1570 C   0  0  0  0  0  3  0  0  0  0  0  0
  -25.8180  -27.4750   18.8340 C   0  0  0  0  0  3  0  0  0  0  0  0
  -24.5970  -28.1490   19.0320 C   0  0  0  0  0  3  0  0  0  0  0  0
  -23.3110  -30.1280   20.0330 C   0  0  0  0  0  2  0  0  0  0  0  0
  -24.4810  -31.2300   21.9960 N   0  0  0  0  0  0  0  0  0  0  0  0
  -23.4580  -32.0580   23.8400 O   0  0  0  0  0  0  0  0  0  0  0  0
  -22.6690  -29.4850   22.3790 C   0  0  0  0  0  0  0  0  0  0  0  0
  -21.3560  -29.2180   22.2860 N   0  0  0  0  0  0  0  0  0  0  0  0
  -23.4310  -28.8370   23.1000 O   0  0  0  0  0  0  0  0  0  0  0  0
  -20.7970  -29.8000   21.6810 H   0  0  0  0  0  0  0  0  0  0  0  0
  -18.1300  -27.6370   22.6630 C   0  0  0  0  0  0  0  0  0  0  0  0
  -20.6410  -28.1550   22.9890 C   0  0  0  0  0  3  0  0  0  0  0  0
  -20.9060  -26.7780   22.3380 C   0  0  0  0  0  2  0  0  0  0  0  0
  -19.8550  -26.3950   21.2900 C   0  0  0  0  0  2  0  0  0  0  0  0
  -18.4590  -26.3530   21.9200 C   0  0  0  0  0  2  0  0  0  0  0  0
  -19.1540  -28.4910   23.1500 C   0  0  0  0  0  0  0  0  0  0  0  0
  -18.7940  -29.6910   23.8000 C   0  0  0  0  0  3  0  0  0  0  0  0
  -17.4410  -30.0400   23.9720 C   0  0  0  0  0  3  0  0  0  0  0  0
  -16.4310  -29.1800   23.5050 C   0  0  0  0  0  3  0  0  0  0  0  0
  -16.7760  -27.9820   22.8550 C   0  0  0  0  0  3  0  0  0  0  0  0
  -25.8100  -32.5030   23.7700 C   0  0  0  0  0  3  0  0  0  0  0  0
  -25.5320  -33.8990   24.1310 N   0  0  0  0  0  0  0  0  0  0  0  0
  -25.8830  -34.9580   23.3920 C   0  0  0  0  0  0  0  0  0  0  0  0
  -26.5490  -34.8640   22.3560 O   0  0  0  0  0  0  0  0  0  0  0  0
  -24.9440  -34.0500   24.9380 H   0  0  0  0  0  0  0  0  0  0  0  0
  -24.1860  -36.7840   23.0820 C   0  0  0  0  0  1  0  0  0  0  0  0
  -25.4250  -36.3460   23.8800 C   0  0  0  0  0  3  0  0  0  0  0  0
  -27.5810  -37.1720   24.7140 C   0  0  0  0  0  1  0  0  0  0  0  0
  -26.4770  -37.3820   23.7800 N   0  0  0  0  0  0  0  0  0  0  0  0
  -26.0900  -38.3070   23.9480 H   0  0  0  0  0  0  0  0  0  0  0  0
  -26.3670  -31.7040   25.0110 C   0  0  1  0  0  0  0  0  0  0  0  0
  -25.3170  -31.4700   26.1220 C   0  0  0  0  0  1  0  0  0  0  0  0
  -26.9100  -30.3240   24.5690 C   0  0  0  0  0  1  0  0  0  0  0  0
  -27.5620  -32.4660   25.6320 C   0  0  0  0  0  1  0  0  0  0  0  0
  1 57  1  0
  1  2  1  0
  2  3  1  0
  3  5  1  0
  3  6  1  0
  4  2  2  0
  7  8  1  0
  7  9  2  0
  8  1  1  0
 10  8  1  0
 11 50  1  0
 11 20  1  0
 11  7  1  0
 12 20  1  0
 13 18  1  0
 14 15  1  0
 14 13  1  0
 16 15  1  0
 16 25  1  0
 16 17  1  0
 18 12  1  0
 18 17  1  0
 19 12  2  0
 20 21  1  0
 22 23  2  0
 23 42  1  0
 24 23  1  0
 24 27  1  0
 25 26  1  0
 25 22  1  0
 26 24  2  0
 27 28  1  0
 28 29  2  0
 30 33  1  0
 30 29  1  0
 31 30  2  0
 32 31  1  0
 32 27  2  0
 33 34  1  0
 34 35  1  0
 35 36  2  0
 37 36  1  0
 37 41  1  0
 38 37  2  0
 39 34  2  0
 39 38  1  0
 40 39  1  0
 42 43  1  0
 43 46  1  0
 43 45  1  0
 44 42  2  0
 47 22  1  0
 47 48  1  0
 49 47  1  0
 51 50  1  0
 52 51  1  0
 52 54  2  0
 53 52  1  0
 55 53  1  0
 56 53  1  0
 58 57  1  0
 59 58  1  0
 60 61  1  0
 60 59  1  0
 61 62  1  0
 61 63  1  0
 64 65  1  0
 64 61  1  0
 66 68  1  0
 66 65  1  0
 67 78  2  0
 68 73  1  0
 69 77  1  0
 69 79  1  0
 70 76  1  0
 70 72  1  0
 71 77  1  0
 72 71  1  0
 73 72  2  0
 74 75  1  0
 74 68  2  0
 75 70  2  0
 76 69  1  0
 77 67  1  0
 79 81  2  0
 80 79  1  0
 82 80  1  0
 83 92  2  0
 83 88  1  0
 84 80  1  0
 84 88  1  0
 85 84  1  0
 86 87  1  0
 86 85  1  0
 87 83  1  0
 88 89  2  0
 89 90  1  0
 91 90  2  0
 92 91  1  0
 93 67  1  0
 93 94  1  0
 93103  1  0
 94 97  1  0
 95 99  1  0
 95 94  1  0
 96 95  2  0
 99 98  1  0
101 99  1  0
101102  1  0
101100  1  0
103106  1  1
103104  1  0
105103  1  0
M  ISO  4  12 100  20 100  65 101  66 101
M  END
>  <TORSDO>  (16) 
F 29

>  <SCORE>  (16) 
-5.234

>  <name>  (16) 
15

>  <ligand_id>  (16) 
15

>  <original_smiles>  (16) 
[H]c1c([H])c([H])c2c(c1[H])C([H])([H])C([H])([H])C([H])([H])C2([H])N([H])C(=O)C1([H])N(C(=O)C([H])(N([H])C(=O)C([H])(N([H])C([H])([H])[H])C([H])([H])[H])C(C([H])([H])[H])(C([H])([H])[H])C([H])([H])[H])C([H])([H])c2c([H])c(OC([H])([H])C([H])([H])[N+]([H])([H])C([H])([H])C([H])([H])C([H])([H])C([H])([H])C([H])(C(=O)N([H])[H])N([H])C(=O)C([H])(N([H])C(=O)N3C([H])([H])C([H])([H])C([H])([H])C([H])(n4nc(-c5c([H])c([H])c(Oc6c([H])c([H])c(F)c([H])c6F)c([H])c5[H])c(C(=O)N([H])[H])c4N([H])[H])C3([H])[H])C([H])([H])C([H])([H])C(=O)N([H])[H])c([H])c([H])c2C1([H])[H]

>  <smiles>  (16) 
[H]c1c([H])c([H])c2c(c1[H])C([H])([H])C([H])([H])C([H])([H])C2([H])N([H])C(=O)C1([H])N(C(=O)C([H])(N([H])C(=O)C([H])(N([H])C([H])([H])[H])C([H])([H])[H])C(C([H])([H])[H])(C([H])([H])[H])C([H])([H])[H])C([H])([H])c2c([H])c(OC([H])([H])C([H])([H])[N+]([H])([H])C([H])([H])C([H])([H])C([H])([H])C([H])([H])C([H])(C(=O)N([H])[H])N([H])C(=O)C([H])(N([H])C(=O)N3C([H])([H])C([H])([H])C([H])([H])C([H])(n4nc(-c5c([H])c([H])c(Oc6c([H])c([H])c(F)c([H])c6F)c([H])c5[H])c(C(=O)N([H])[H])c4N([H])[H])C3([H])[H])C([H])([H])C([H])([H])C(=O)N([H])[H])c([H])c([H])c2C1([H])[H]

$$$$
16:0:0
     RDKit          3D

 99106  0  0  1  0  0  0  0  0999 V2000
  -30.2830  -20.8600   21.1440 C   0  0  0  0  0  0  0  0  0  0  0  0
  -29.6040  -22.0230   20.9610 N   0  0  0  0  0  0  0  0  0  0  0  0
  -31.3550  -20.8360   21.7520 O   0  0  0  0  0  0  0  0  0  0  0  0
  -28.7170  -21.9780   20.4770 H   0  0  0  0  0  0  0  0  0  0  0  0
  -29.7120  -19.5360   20.5660 C   0  0  0  0  0  2  0  0  0  0  0  0
  -30.2890  -17.9670   22.4980 C   0  0  0  0  0  1  0  0  0  0  0  0
  -30.4390  -18.1850   20.9780 C   0  0  0  0  0  3  0  0  0  0  0  0
  -29.9440  -16.9110   20.1850 C   0  0  0  0  0  3  0  0  0  0  0  0
  -31.0060  -14.5730   20.4620 C   0  0  0  0  0  0  0  0  0  0  0  0
  -30.7690  -12.3590   19.3950 C   0  0  0  0  0  2  0  0  0  0  0  0
  -29.8520  -12.5330   18.1630 C   0  0  0  0  0  2  0  0  0  0  0  0
  -28.3680  -12.4140   18.5650 C   0  0  0  0  0  2  0  0  0  0  0  0
  -28.0090  -13.2840   19.7990 C   0  0  0  0  0  3  0  0  0  0  0  0
  -29.0360  -13.0750   20.9360 C   0  0  0  0  0  2  0  0  0  0  0  0
  -30.3750  -13.3670   20.3960 N   0  0  0  0  0  0  0  0  0  0  0  0
  -32.1460  -14.7510   20.0220 O   0  0  0  0  0  0  0  0  0  0  0  0
  -30.2200  -15.6050   20.8640 N   0  0  0  0  0  0  0  0  0  0  0  0
  -29.4160  -15.2670   21.3720 H   0  0  0  0  0  0  0  0  0  0  0  0
  -25.6060  -13.9310   20.4550 C   0  0  0  0  0  0  0  0  0  0  0  0
  -24.5190  -13.1770   20.8070 C   0  0  0  0  0  0  0  0  0  0  0  0
  -24.9620  -11.8200   20.7950 C   0  0  0  0  0  0  0  0  0  0  0  0
  -26.6420  -13.0350   20.2500 N   0  0  0  0  0  0  0  0  0  0  0  0
  -26.2570  -11.7590   20.5120 N   0  0  0  0  0  0  0  0  0  0  0  0
  -24.2130  -10.5700   20.9810 C   0  0  0  0  0  0  0  0  0  0  0  0
  -24.5890   -9.6230   21.9580 C   0  0  0  0  0  3  0  0  0  0  0  0
  -23.8450   -8.4360   22.1290 C   0  0  0  0  0  3  0  0  0  0  0  0
  -22.7080   -8.1910   21.3230 C   0  0  0  0  0  0  0  0  0  0  0  0
  -22.3510   -9.1270   20.3370 C   0  0  0  0  0  3  0  0  0  0  0  0
  -23.0960  -10.3040   20.1630 C   0  0  0  0  0  3  0  0  0  0  0  0
  -21.9420   -7.0550   21.4010 O   0  0  0  0  0  0  0  0  0  0  0  0
  -21.7880   -6.3670   22.5800 C   0  0  0  0  0  0  0  0  0  0  0  0
  -21.2470   -6.9780   23.7330 C   0  0  0  0  0  3  0  0  0  0  0  0
  -21.0410   -6.2170   24.9000 C   0  0  0  0  0  3  0  0  0  0  0  0
  -21.3690   -4.8480   24.9180 C   0  0  0  0  0  0  0  0  0  0  0  0
  -21.9040   -4.2390   23.7690 C   0  0  0  0  0  3  0  0  0  0  0  0
  -22.1100   -4.9960   22.6040 C   0  0  0  0  0  0  0  0  0  0  0  0
  -22.6060   -4.3980   21.4940 F   0  0  0  0  0  0  0  0  0  0  0  0
  -21.1640   -4.1170   26.0380 F   0  0  0  0  0  0  0  0  0  0  0  0
  -23.1250  -13.6790   21.0500 C   0  0  0  0  0  0  0  0  0  0  0  0
  -22.3740  -13.0090   21.9150 N   0  0  0  0  0  0  0  0  0  0  0  0
  -22.7090  -14.7020   20.5070 O   0  0  0  0  0  0  0  0  0  0  0  0
  -22.7210  -12.1830   22.3800 H   0  0  0  0  0  0  0  0  0  0  0  0
  -21.4350  -13.3270   22.1140 H   0  0  0  0  0  0  0  0  0  0  0  0
  -25.7940  -15.2990   20.2710 N   0  0  0  0  0  0  0  0  0  0  0  0
  -25.0330  -15.9620   20.3740 H   0  0  0  0  0  0  0  0  0  0  0  0
  -26.6590  -15.7290   19.9760 H   0  0  0  0  0  0  0  0  0  0  0  0
  -30.3700  -16.9030   18.6990 C   0  0  0  0  0  0  0  0  0  0  0  0
  -29.5290  -16.3260   17.8490 N   0  0  0  0  0  0  0  0  0  0  0  0
  -31.4450  -17.3660   18.3290 O   0  0  0  0  0  0  0  0  0  0  0  0
  -28.6410  -15.9730   18.1690 H   0  0  0  0  0  0  0  0  0  0  0  0
  -29.7550  -16.2560   16.8690 H   0  0  0  0  0  0  0  0  0  0  0  0
  -30.0500  -23.3360   21.4910 C   0  0  0  0  0  2  0  0  0  0  0  0
  -29.7960  -24.6390   20.6380 C   0  0  0  0  0  3  0  0  0  0  0  0
  -30.6920  -25.7110   21.1280 N   0  0  0  0  0  4  0  0  0  0  0  0
  -30.5730  -25.8850   22.1110 H   0  0  0  0  0  0  0  0  0  0  0  0
  -30.4450  -26.5580   20.6410 H   0  0  0  0  0  0  0  0  0  0  0  0
  -31.6600  -25.5090   20.9450 H   0  0  0  0  0  0  0  0  0  0  0  0
  -28.3590  -25.2500   20.6010 C   0  0  0  0  0  2  0  0  0  0  0  0
  -28.4400  -26.6500   20.1970 O   0  0  0  0  0  0  0  0  0  0  0  0
  -24.6000  -31.8820   23.1860 C   0  0  0  0  0  0  0  0  0  0  0  0
  -27.2710  -27.3900   20.1810 C   0  0  0  0  0  0  0  0  0  0  0  0
  -23.4130  -30.4690   21.5410 C   0  0  0  0  0  3  0  0  0  0  0  0
  -24.8810  -28.9210   20.1420 C   0  0  0  0  0  0  0  0  0  0  0  0
  -25.9420  -30.8230   21.3690 C   0  0  0  0  0  2  0  0  0  0  0  0
  -26.0350  -29.4460   20.7370 C   0  0  0  0  0  0  0  0  0  0  0  0
  -27.2350  -28.6920   20.7430 C   0  0  0  0  0  3  0  0  0  0  0  0
  -26.0970  -26.8880   19.5780 C   0  0  0  0  0  3  0  0  0  0  0  0
  -24.9090  -27.6440   19.5560 C   0  0  0  0  0  3  0  0  0  0  0  0
  -23.6400  -29.7830   20.1680 C   0  0  0  0  0  2  0  0  0  0  0  0
  -24.6700  -31.0750   22.0880 N   0  0  0  0  0  0  0  0  0  0  0  0
  -23.5120  -32.1530   23.7150 O   0  0  0  0  0  0  0  0  0  0  0  0
  -22.7530  -29.4520   22.5000 C   0  0  0  0  0  0  0  0  0  0  0  0
  -21.4310  -29.2640   22.3590 N   0  0  0  0  0  0  0  0  0  0  0  0
  -23.4290  -28.8350   23.3270 O   0  0  0  0  0  0  0  0  0  0  0  0
  -20.9450  -29.8150   21.6640 H   0  0  0  0  0  0  0  0  0  0  0  0
  -18.0540  -28.0670   22.8340 C   0  0  0  0  0  0  0  0  0  0  0  0
  -20.6080  -28.3270   23.1260 C   0  0  0  0  0  3  0  0  0  0  0  0
  -20.7170  -26.8940   22.5560 C   0  0  0  0  0  2  0  0  0  0  0  0
  -19.6240  -26.5670   21.5340 C   0  0  0  0  0  2  0  0  0  0  0  0
  -18.2370  -26.7150   22.1650 C   0  0  0  0  0  2  0  0  0  0  0  0
  -19.1680  -28.8310   23.2710 C   0  0  0  0  0  0  0  0  0  0  0  0
  -18.9430  -30.0970   23.8570 C   0  0  0  0  0  3  0  0  0  0  0  0
  -17.6360  -30.5970   24.0080 C   0  0  0  0  0  3  0  0  0  0  0  0
  -16.5370  -29.8300   23.5870 C   0  0  0  0  0  3  0  0  0  0  0  0
  -16.7460  -28.5660   23.0060 C   0  0  0  0  0  3  0  0  0  0  0  0
  -25.8780  -32.5180   23.8160 C   0  0  0  0  0  3  0  0  0  0  0  0
  -26.4030  -31.7400   25.0860 C   0  0  1  0  0  0  0  0  0  0  0  0
  -25.3110  -31.4780   26.1480 C   0  0  0  0  0  1  0  0  0  0  0  0
  -27.0050  -30.3740   24.6820 C   0  0  0  0  0  1  0  0  0  0  0  0
  -27.5420  -32.5420   25.7570 C   0  0  0  0  0  1  0  0  0  0  0  0
  -25.5570  -33.9090   24.1560 N   0  0  0  0  0  0  0  0  0  0  0  0
  -25.8900  -34.9730   23.4100 C   0  0  0  0  0  0  0  0  0  0  0  0
  -26.5670  -34.8810   22.3830 O   0  0  0  0  0  0  0  0  0  0  0  0
  -24.9550  -34.0540   24.9530 H   0  0  0  0  0  0  0  0  0  0  0  0
  -24.1520  -36.7560   23.0520 C   0  0  0  0  0  1  0  0  0  0  0  0
  -25.3870  -36.3520   23.8750 C   0  0  0  0  0  3  0  0  0  0  0  0
  -27.5020  -37.2440   24.7430 C   0  0  0  0  0  1  0  0  0  0  0  0
  -26.4140  -37.4120   23.7860 N   0  0  0  0  0  0  0  0  0  0  0  0
  -25.9990  -38.3290   23.9340 H   0  0  0  0  0  0  0  0  0  0  0  0
  1  3  2  0
  2  1  1  0
  2 52  1  0
  4  2  1  0
  5  7  1  0
  5  1  1  0
  7  6  1  0
  8 47  1  0
  8 17  1  0
  8  7  1  0
  9 17  1  0
 10 15  1  0
 11 12  1  0
 11 10  1  0
 13 12  1  0
 13 22  1  0
 13 14  1  0
 15  9  1  0
 15 14  1  0
 16  9  2  0
 17 18  1  0
 19 20  2  0
 20 39  1  0
 21 20  1  0
 21 24  1  0
 22 19  1  0
 22 23  1  0
 23 21  2  0
 24 25  1  0
 25 26  2  0
 27 30  1  0
 27 26  1  0
 28 27  2  0
 29 28  1  0
 29 24  2  0
 30 31  1  0
 31 36  2  0
 31 32  1  0
 32 33  2  0
 33 34  1  0
 34 38  1  0
 35 34  2  0
 36 35  1  0
 37 36  1  0
 39 40  1  0
 40 43  1  0
 40 42  1  0
 41 39  2  0
 44 45  1  0
 44 19  1  0
 46 44  1  0
 48 50  1  0
 48 47  1  0
 49 47  2  0
 51 48  1  0
 53 58  1  0
 53 54  1  0
 53 52  1  0
 54 55  1  0
 56 54  1  0
 57 54  1  0
 59 58  1  0
 60 71  2  0
 61 59  1  0
 61 66  1  0
 62 70  1  0
 62 72  1  0
 63 69  1  0
 63 65  1  0
 64 70  1  0
 65 66  2  0
 65 64  1  0
 67 61  2  0
 68 67  1  0
 68 63  2  0
 69 62  1  0
 70 60  1  0
 72 74  2  0
 73 72  1  0
 75 73  1  0
 76 85  2  0
 76 81  1  0
 77 73  1  0
 77 81  1  0
 78 77  1  0
 79 80  1  0
 79 78  1  0
 80 76  1  0
 81 82  2  0
 82 83  1  0
 84 83  2  0
 85 84  1  0
 86 60  1  0
 86 91  1  0
 86 87  1  0
 87 90  1  1
 87 88  1  0
 89 87  1  0
 91 94  1  0
 92 96  1  0
 92 91  1  0
 93 92  2  0
 96 95  1  0
 98 96  1  0
 98 99  1  0
 98 97  1  0
M  ISO  4   9 100  17 100  58 101  59 101
M  END
>  <TORSDO>  (17) 
F 24

>  <SCORE>  (17) 
-11.734

>  <name>  (17) 
16

>  <ligand_id>  (17) 
16

>  <original_smiles>  (17) 
[H]c1c([H])c([H])c2c(c1[H])C([H])([H])C([H])([H])C([H])([H])C2([H])N([H])C(=O)C1([H])N(C(=O)C([H])(N([H])C(=O)C([H])(N([H])C([H])([H])[H])C([H])([H])[H])C(C([H])([H])[H])(C([H])([H])[H])C([H])([H])[H])C([H])([H])c2c([H])c(OC([H])([H])C([H])(C([H])([H])N([H])C(=O)C([H])([H])C([H])(C([H])([H])[H])C([H])(C(=O)N([H])[H])N([H])C(=O)N3C([H])([H])C([H])([H])C([H])([H])C([H])(n4nc(-c5c([H])c([H])c(Oc6c([H])c([H])c(F)c([H])c6F)c([H])c5[H])c(C(=O)N([H])[H])c4N([H])[H])C3([H])[H])[N+]([H])([H])[H])c([H])c([H])c2C1([H])[H]

>  <smiles>  (17) 
[H]c1c([H])c([H])c2c(c1[H])C([H])([H])C([H])([H])C([H])([H])C2([H])N([H])C(=O)C1([H])N(C(=O)C([H])(N([H])C(=O)C([H])(N([H])C([H])([H])[H])C([H])([H])[H])C(C([H])([H])[H])(C([H])([H])[H])C([H])([H])[H])C([H])([H])c2c([H])c(OC([H])([H])C([H])(C([H])([H])N([H])C(=O)C([H])([H])C([H])(C([H])([H])[H])C([H])(C(=O)N([H])[H])N([H])C(=O)N3C([H])([H])C([H])([H])C([H])([H])C([H])(n4nc(-c5c([H])c([H])c(Oc6c([H])c([H])c(F)c([H])c6F)c([H])c5[H])c(C(=O)N([H])[H])c4N([H])[H])C3([H])[H])[N+]([H])([H])[H])c([H])c([H])c2C1([H])[H]

$$$$
17:0:0
     RDKit          3D

 97104  0  0  1  0  0  0  0  0999 V2000
  -25.6250  -23.3390   21.0010 C   0  0  0  0  0  2  0  0  0  0  0  0
  -23.7570  -24.9000   21.3500 C   0  0  0  0  0  1  0  0  0  0  0  0
  -25.0400  -24.6630   20.6410 N   0  0  2  0  0  4  0  0  0  0  0  0
  -25.6690  -25.3590   21.0100 H   0  0  0  0  0  0  0  0  0  0  0  0
  -24.8970  -24.8930   19.1690 C   0  0  0  0  0  2  0  0  0  0  0  0
  -26.0570  -25.6680   18.4930 C   0  0  0  0  0  2  0  0  0  0  0  0
  -26.0220  -27.2040   18.6580 C   0  0  0  0  0  2  0  0  0  0  0  0
  -26.8650  -27.7220   19.8360 C   0  0  0  0  0  2  0  0  0  0  0  0
  -26.6270  -29.1060   20.0850 O   0  0  0  0  0  0  0  0  0  0  0  0
  -27.6380  -32.5230   26.2180 C   0  0  0  0  0  0  0  0  0  0  0  0
  -26.1170  -29.3960   21.3280 C   0  0  0  0  0  0  0  0  0  0  0  0
  -25.7810  -30.8950   26.1930 C   0  0  0  0  0  3  0  0  0  0  0  0
  -25.1240  -30.0010   23.9000 C   0  0  0  0  0  0  0  0  0  0  0  0
  -26.4930  -32.0870   24.0470 C   0  0  0  0  0  2  0  0  0  0  0  0
  -26.0500  -30.8540   23.2860 C   0  0  0  0  0  0  0  0  0  0  0  0
  -26.5480  -30.5570   22.0000 C   0  0  0  0  0  3  0  0  0  0  0  0
  -25.1750  -28.5500   21.9580 C   0  0  0  0  0  3  0  0  0  0  0  0
  -24.6820  -28.8420   23.2410 C   0  0  0  0  0  3  0  0  0  0  0  0
  -24.6340  -30.3930   25.2750 C   0  0  0  0  0  2  0  0  0  0  0  0
  -26.7020  -31.8500   25.4950 N   0  0  0  0  0  0  0  0  0  0  0  0
  -27.7180  -32.3890   27.4470 O   0  0  0  0  0  0  0  0  0  0  0  0
  -26.5050  -29.6640   26.7840 C   0  0  0  0  0  0  0  0  0  0  0  0
  -26.0200  -29.1870   27.9430 N   0  0  0  0  0  0  0  0  0  0  0  0
  -27.4560  -29.1440   26.1930 O   0  0  0  0  0  0  0  0  0  0  0  0
  -25.2480  -29.6780   28.3710 H   0  0  0  0  0  0  0  0  0  0  0  0
  -25.6020  -27.2380   30.9540 C   0  0  0  0  0  0  0  0  0  0  0  0
  -26.5180  -28.0190   28.6690 C   0  0  0  0  0  3  0  0  0  0  0  0
  -25.9220  -26.7100   28.0960 C   0  0  0  0  0  2  0  0  0  0  0  0
  -24.6510  -26.2560   28.8230 C   0  0  0  0  0  2  0  0  0  0  0  0
  -24.9390  -26.0320   30.3100 C   0  0  0  0  0  2  0  0  0  0  0  0
  -26.3330  -28.1790   30.1800 C   0  0  0  0  0  0  0  0  0  0  0  0
  -26.9070  -29.2950   30.8270 C   0  0  0  0  0  3  0  0  0  0  0  0
  -26.7580  -29.4800   32.2130 C   0  0  0  0  0  3  0  0  0  0  0  0
  -26.0480  -28.5370   32.9760 C   0  0  0  0  0  3  0  0  0  0  0  0
  -25.4740  -27.4180   32.3470 C   0  0  0  0  0  3  0  0  0  0  0  0
  -28.6380  -33.5100   25.5400 C   0  0  0  0  0  3  0  0  0  0  0  0
  -28.0000  -34.8320   25.5040 N   0  0  0  0  0  0  0  0  0  0  0  0
  -27.6240  -35.4630   24.3850 C   0  0  0  0  0  0  0  0  0  0  0  0
  -27.8430  -35.0160   23.2560 O   0  0  0  0  0  0  0  0  0  0  0  0
  -27.7380  -35.2350   26.3920 H   0  0  0  0  0  0  0  0  0  0  0  0
  -25.3980  -36.6150   24.1990 C   0  0  0  0  0  1  0  0  0  0  0  0
  -26.8870  -36.8070   24.5360 C   0  0  0  0  0  3  0  0  0  0  0  0
  -28.7740  -38.3310   24.1570 C   0  0  0  0  0  1  0  0  0  0  0  0
  -27.4560  -37.8890   23.7050 N   0  0  0  0  0  0  0  0  0  0  0  0
  -26.8400  -38.6990   23.6940 H   0  0  0  0  0  0  0  0  0  0  0  0
  -30.0370  -33.5820   26.2700 C   0  0  1  0  0  0  0  0  0  0  0  0
  -29.9930  -34.2790   27.6500 C   0  0  0  0  0  1  0  0  0  0  0  0
  -30.6120  -32.1620   26.4730 C   0  0  0  0  0  1  0  0  0  0  0  0
  -31.0570  -34.3370   25.3870 C   0  0  0  0  0  1  0  0  0  0  0  0
  -27.1190  -23.4280   21.3800 C   0  0  0  0  0  2  0  0  0  0  0  0
  -27.9770  -22.3680   20.6540 C   0  0  0  0  0  2  0  0  0  0  0  0
  -29.4510  -22.7870   20.4830 C   0  0  0  0  0  2  0  0  0  0  0  0
  -29.6720  -24.2890   20.1560 C   0  0  0  0  0  2  0  0  0  0  0  0
  -29.9910  -24.5850   18.6920 C   0  0  0  0  0  0  0  0  0  0  0  0
  -31.0650  -25.3450   18.4430 N   0  0  0  0  0  0  0  0  0  0  0  0
  -29.2600  -24.1500   17.8030 O   0  0  0  0  0  0  0  0  0  0  0  0
  -31.6090  -25.6760   19.2310 H   0  0  0  0  0  0  0  0  0  0  0  0
  -31.5030  -25.7260   17.1060 C   0  0  0  0  0  2  0  0  0  0  0  0
  -32.4070  -26.9730   17.1260 C   0  0  0  0  0  2  0  0  0  0  0  0
  -32.6140  -28.8930   15.5200 C   0  0  0  0  0  0  0  0  0  0  0  0
  -32.2850  -30.6460   13.8060 C   0  0  0  0  0  2  0  0  0  0  0  0
  -31.0470  -31.5140   14.1030 C   0  0  0  0  0  2  0  0  0  0  0  0
  -29.7650  -30.8550   13.5610 C   0  0  0  0  0  2  0  0  0  0  0  0
  -29.6360  -29.3760   13.9980 C   0  0  0  0  0  3  0  0  0  0  0  0
  -30.9380  -28.6210   13.6690 C   0  0  0  0  0  2  0  0  0  0  0  0
  -32.0560  -29.3020   14.3520 N   0  0  0  0  0  0  0  0  0  0  0  0
  -33.3760  -29.5800   16.2050 O   0  0  0  0  0  0  0  0  0  0  0  0
  -32.2560  -27.6500   15.8530 N   0  0  0  0  0  0  0  0  0  0  0  0
  -31.6940  -27.1680   15.1680 H   0  0  0  0  0  0  0  0  0  0  0  0
  -27.4170  -28.0610   13.9710 C   0  0  0  0  0  0  0  0  0  0  0  0
  -26.5710  -27.7240   12.9510 C   0  0  0  0  0  0  0  0  0  0  0  0
  -27.1690  -28.2290   11.7560 C   0  0  0  0  0  0  0  0  0  0  0  0
  -28.4780  -28.7370   13.3810 N   0  0  0  0  0  0  0  0  0  0  0  0
  -28.3430  -28.7840   12.0310 N   0  0  0  0  0  0  0  0  0  0  0  0
  -26.6740  -28.2620   10.3780 C   0  0  0  0  0  0  0  0  0  0  0  0
  -27.3740  -27.6320    9.3250 C   0  0  0  0  0  3  0  0  0  0  0  0
  -26.8660  -27.6680    8.0080 C   0  0  0  0  0  3  0  0  0  0  0  0
  -25.6460  -28.3320    7.7360 C   0  0  0  0  0  0  0  0  0  0  0  0
  -24.9650  -28.9750    8.7840 C   0  0  0  0  0  3  0  0  0  0  0  0
  -25.4730  -28.9440   10.0930 C   0  0  0  0  0  3  0  0  0  0  0  0
  -25.0920  -28.4380    6.4830 O   0  0  0  0  0  0  0  0  0  0  0  0
  -25.2890  -27.4760    5.5240 C   0  0  0  0  0  0  0  0  0  0  0  0
  -24.8640  -26.1430    5.7090 C   0  0  0  0  0  3  0  0  0  0  0  0
  -25.0230  -25.2050    4.6710 C   0  0  0  0  0  3  0  0  0  0  0  0
  -25.5950  -25.5970    3.4470 C   0  0  0  0  0  0  0  0  0  0  0  0
  -26.0160  -26.9260    3.2610 C   0  0  0  0  0  3  0  0  0  0  0  0
  -25.8590  -27.8640    4.2950 C   0  0  0  0  0  0  0  0  0  0  0  0
  -26.2450  -29.1480    4.1020 F   0  0  0  0  0  0  0  0  0  0  0  0
  -25.7440  -24.6970    2.4460 F   0  0  0  0  0  0  0  0  0  0  0  0
  -25.2340  -27.0510   13.0810 C   0  0  0  0  0  0  0  0  0  0  0  0
  -24.9030  -26.1680   12.1460 N   0  0  0  0  0  0  0  0  0  0  0  0
  -24.4980  -27.2710   14.0410 O   0  0  0  0  0  0  0  0  0  0  0  0
  -25.5180  -25.9740   11.3690 H   0  0  0  0  0  0  0  0  0  0  0  0
  -24.0220  -25.6770   12.2070 H   0  0  0  0  0  0  0  0  0  0  0  0
  -27.3670  -27.8660   15.3490 N   0  0  0  0  0  0  0  0  0  0  0  0
  -26.5870  -27.4000   15.7990 H   0  0  0  0  0  0  0  0  0  0  0  0
  -28.0750  -28.1810   16.0010 H   0  0  0  0  0  0  0  0  0  0  0  0
  1 50  1  0
  3  1  1  0
  3  4  1  1
  3  2  1  0
  5  3  1  0
  6  7  1  0
  6  5  1  0
  7  8  1  0
  8  9  1  0
  9 11  1  0
 10 21  2  0
 11 17  2  0
 11 16  1  0
 12 22  1  0
 13 19  1  0
 14 20  1  0
 15 13  1  0
 15 14  1  0
 16 15  2  0
 17 18  1  0
 18 13  2  0
 19 12  1  0
 20 12  1  0
 20 10  1  0
 22 23  1  0
 23 25  1  0
 24 22  2  0
 26 35  1  0
 27 23  1  0
 27 31  1  0
 28 27  1  0
 28 29  1  0
 29 30  1  0
 30 26  1  0
 31 32  1  0
 31 26  2  0
 32 33  2  0
 33 34  1  0
 35 34  2  0
 36 10  1  0
 36 46  1  0
 37 36  1  0
 37 40  1  0
 38 42  1  0
 38 37  1  0
 39 38  2  0
 42 41  1  0
 44 43  1  0
 44 42  1  0
 45 44  1  0
 46 48  1  1
 46 47  1  0
 49 46  1  0
 51 50  1  0
 52 51  1  0
 53 52  1  0
 54 53  1  0
 55 54  1  0
 55 57  1  0
 56 54  2  0
 58 59  1  0
 58 55  1  0
 60 68  1  0
 60 67  2  0
 61 62  1  0
 61 66  1  0
 63 64  1  0
 63 62  1  0
 64 73  1  0
 65 64  1  0
 65 66  1  0
 66 60  1  0
 68 59  1  0
 69 68  1  0
 70 95  1  0
 71 90  1  0
 71 70  2  0
 72 74  2  0
 72 71  1  0
 73 70  1  0
 74 73  1  0
 75 72  1  0
 76 75  2  0
 77 76  1  0
 78 77  2  0
 78 79  1  0
 79 80  2  0
 80 75  1  0
 81 78  1  0
 82 83  1  0
 82 81  1  0
 84 83  2  0
 85 84  1  0
 86 85  2  0
 86 87  1  0
 87 82  2  0
 88 87  1  0
 89 85  1  0
 90 92  2  0
 91 94  1  0
 91 90  1  0
 93 91  1  0
 95 96  1  0
 95 97  1  0
M  ISO  4   8 101   9 101  60 100  68 100
M  END
>  <TORSDO>  (18) 
F 28

>  <SCORE>  (18) 
-5.489

>  <name>  (18) 
17

>  <ligand_id>  (18) 
17

>  <original_smiles>  (18) 
[H]c1c([H])c([H])c2c(c1[H])C([H])([H])C([H])([H])C([H])([H])C2([H])N([H])C(=O)C1([H])N(C(=O)C([H])(N([H])C(=O)C([H])(N([H])C([H])([H])[H])C([H])([H])[H])C(C([H])([H])[H])(C([H])([H])[H])C([H])([H])[H])C([H])([H])c2c([H])c(OC([H])([H])C([H])([H])C([H])([H])C([H])([H])[N+]([H])(C([H])([H])[H])C([H])([H])C([H])([H])C([H])([H])C([H])([H])C([H])([H])C(=O)N([H])C([H])([H])C([H])([H])N([H])C(=O)N3C([H])([H])C([H])([H])C([H])([H])C([H])(n4nc(-c5c([H])c([H])c(Oc6c([H])c([H])c(F)c([H])c6F)c([H])c5[H])c(C(=O)N([H])[H])c4N([H])[H])C3([H])[H])c([H])c([H])c2C1([H])[H]

>  <smiles>  (18) 
[H]c1c([H])c([H])c2c(c1[H])C([H])([H])C([H])([H])C([H])([H])C2([H])N([H])C(=O)C1([H])N(C(=O)C([H])(N([H])C(=O)C([H])(N([H])C([H])([H])[H])C([H])([H])[H])C(C([H])([H])[H])(C([H])([H])[H])C([H])([H])[H])C([H])([H])c2c([H])c(OC([H])([H])C([H])([H])C([H])([H])C([H])([H])[N+]([H])(C([H])([H])[H])C([H])([H])C([H])([H])C([H])([H])C([H])([H])C([H])([H])C(=O)N([H])C([H])([H])C([H])([H])N([H])C(=O)N3C([H])([H])C([H])([H])C([H])([H])C([H])(n4nc(-c5c([H])c([H])c(Oc6c([H])c([H])c(F)c([H])c6F)c([H])c5[H])c(C(=O)N([H])[H])c4N([H])[H])C3([H])[H])c([H])c([H])c2C1([H])[H]

$$$$
18:0:0
     RDKit          3D

101108  0  0  1  0  0  0  0  0999 V2000
  -29.3330  -21.1900   21.0190 C   0  0  0  0  0  3  0  0  0  0  0  0
  -29.4270  -22.6910   21.3360 C   0  0  0  0  0  0  0  0  0  0  0  0
  -28.4060  -23.4500   20.9340 N   0  0  0  0  0  0  0  0  0  0  0  0
  -30.4010  -23.1400   21.9480 O   0  0  0  0  0  0  0  0  0  0  0  0
  -27.6430  -22.9720   20.4750 H   0  0  0  0  0  0  0  0  0  0  0  0
  -28.1870  -24.8700   21.2010 C   0  0  0  0  0  3  0  0  0  0  0  0
  -26.5880  -24.6100   23.1730 C   0  0  0  0  0  1  0  0  0  0  0  0
  -25.6930  -24.2420   20.8440 C   0  0  0  0  0  1  0  0  0  0  0  0
  -26.7200  -25.0240   21.6970 C   0  0  0  0  0  3  0  0  0  0  0  0
  -28.6130  -25.6990   19.9500 C   0  0  0  0  0  2  0  0  0  0  0  0
  -28.6290  -27.1200   20.1460 O   0  0  0  0  0  0  0  0  0  0  0  0
  -24.6430  -32.0290   23.3610 C   0  0  0  0  0  0  0  0  0  0  0  0
  -27.4320  -27.8030   20.1170 C   0  0  0  0  0  0  0  0  0  0  0  0
  -23.4880  -30.6470   21.6680 C   0  0  0  0  0  3  0  0  0  0  0  0
  -24.9910  -29.2220   20.1860 C   0  0  0  0  0  0  0  0  0  0  0  0
  -26.0000  -31.0940   21.4950 C   0  0  0  0  0  2  0  0  0  0  0  0
  -26.1270  -29.7550   20.8030 C   0  0  0  0  0  0  0  0  0  0  0  0
  -27.3500  -29.0490   20.7740 C   0  0  0  0  0  3  0  0  0  0  0  0
  -26.2840  -27.3010   19.4630 C   0  0  0  0  0  3  0  0  0  0  0  0
  -25.0620  -27.9910   19.5180 C   0  0  0  0  0  3  0  0  0  0  0  0
  -23.7210  -30.0330   20.2640 C   0  0  0  0  0  2  0  0  0  0  0  0
  -24.7270  -31.2710   22.2330 N   0  0  0  0  0  0  0  0  0  0  0  0
  -23.5520  -32.2460   23.9070 O   0  0  0  0  0  0  0  0  0  0  0  0
  -22.8720  -29.5660   22.5870 C   0  0  0  0  0  0  0  0  0  0  0  0
  -21.5690  -29.2960   22.4010 N   0  0  0  0  0  0  0  0  0  0  0  0
  -23.5610  -28.9780   23.4250 O   0  0  0  0  0  0  0  0  0  0  0  0
  -21.0730  -29.8290   21.7000 H   0  0  0  0  0  0  0  0  0  0  0  0
  -18.2780  -27.8370   22.7010 C   0  0  0  0  0  0  0  0  0  0  0  0
  -20.7860  -28.2970   23.1260 C   0  0  0  0  0  3  0  0  0  0  0  0
  -21.0390  -26.8810   22.5630 C   0  0  0  0  0  2  0  0  0  0  0  0
  -20.0280  -26.4700   21.4870 C   0  0  0  0  0  2  0  0  0  0  0  0
  -18.6020  -26.5050   22.0470 C   0  0  0  0  0  2  0  0  0  0  0  0
  -19.3060  -28.6850   23.1930 C   0  0  0  0  0  0  0  0  0  0  0  0
  -18.9540  -29.9280   23.7640 C   0  0  0  0  0  3  0  0  0  0  0  0
  -17.6060  -30.3220   23.8560 C   0  0  0  0  0  3  0  0  0  0  0  0
  -16.5920  -29.4730   23.3810 C   0  0  0  0  0  3  0  0  0  0  0  0
  -16.9290  -28.2340   22.8080 C   0  0  0  0  0  3  0  0  0  0  0  0
  -25.9070  -32.6770   24.0070 C   0  0  0  0  0  3  0  0  0  0  0  0
  -25.5900  -34.0830   24.2830 N   0  0  0  0  0  0  0  0  0  0  0  0
  -25.9350  -35.1100   23.4950 C   0  0  0  0  0  0  0  0  0  0  0  0
  -26.6290  -34.9740   22.4830 O   0  0  0  0  0  0  0  0  0  0  0  0
  -24.9820  -34.2640   25.0700 H   0  0  0  0  0  0  0  0  0  0  0  0
  -24.1950  -36.8710   23.0520 C   0  0  0  0  0  1  0  0  0  0  0  0
  -25.4300  -36.5100   23.8930 C   0  0  0  0  0  3  0  0  0  0  0  0
  -27.5470  -37.4390   24.7150 C   0  0  0  0  0  1  0  0  0  0  0  0
  -26.4550  -37.5660   23.7530 N   0  0  0  0  0  0  0  0  0  0  0  0
  -26.0410  -38.4870   23.8680 H   0  0  0  0  0  0  0  0  0  0  0  0
  -26.3840  -31.9430   25.3190 C   0  0  1  0  0  0  0  0  0  0  0  0
  -25.2520  -31.7130   26.3470 C   0  0  0  0  0  1  0  0  0  0  0  0
  -27.0000  -30.5630   24.9800 C   0  0  0  0  0  1  0  0  0  0  0  0
  -27.4990  -32.7670   26.0040 C   0  0  0  0  0  1  0  0  0  0  0  0
  -29.9410  -19.1760   22.3460 C   0  0  0  0  0  0  0  0  0  0  0  0
  -30.1200  -20.4490   21.9920 N   0  0  0  0  0  0  0  0  0  0  0  0
  -29.0340  -18.4760   21.8960 O   0  0  0  0  0  0  0  0  0  0  0  0
  -30.8830  -20.9650   22.4080 H   0  0  0  0  0  0  0  0  0  0  0  0
  -30.9400  -18.6060   23.3520 C   0  0  0  0  0  2  0  0  0  0  0  0
  -32.0690  -17.8270   22.6510 C   0  0  0  0  0  2  0  0  0  0  0  0
  -31.6260  -16.4920   22.0170 C   0  0  0  0  0  2  0  0  0  0  0  0
  -32.2460  -16.2730   20.6280 C   0  0  0  0  0  2  0  0  0  0  0  0
  -32.4920  -14.7970   20.2810 C   0  0  0  0  0  2  0  0  0  0  0  0
  -31.0060  -13.4740   18.7820 C   0  0  0  0  0  0  0  0  0  0  0  0
  -30.2720  -11.2620   18.0010 C   0  0  0  0  0  2  0  0  0  0  0  0
  -29.0860  -11.2740   17.0290 C   0  0  0  0  0  2  0  0  0  0  0  0
  -27.7600  -11.2620   17.8060 C   0  0  0  0  0  2  0  0  0  0  0  0
  -27.7050  -12.3740   18.8850 C   0  0  0  0  0  3  0  0  0  0  0  0
  -28.9750  -12.3670   19.7650 C   0  0  0  0  0  2  0  0  0  0  0  0
  -30.1690  -12.4180   18.8990 N   0  0  0  0  0  0  0  0  0  0  0  0
  -31.6840  -13.7050   17.7750 O   0  0  0  0  0  0  0  0  0  0  0  0
  -31.2670  -14.0660   19.9530 N   0  0  0  0  0  0  0  0  0  0  0  0
  -30.6970  -13.7660   20.7310 H   0  0  0  0  0  0  0  0  0  0  0  0
  -25.6980  -13.2710   20.2290 C   0  0  0  0  0  0  0  0  0  0  0  0
  -24.6420  -12.6380   20.8300 C   0  0  0  0  0  0  0  0  0  0  0  0
  -24.8440  -11.2410   20.6130 C   0  0  0  0  0  0  0  0  0  0  0  0
  -26.4880  -12.2650   19.6910 N   0  0  0  0  0  0  0  0  0  0  0  0
  -25.9880  -11.0340   19.9730 N   0  0  0  0  0  0  0  0  0  0  0  0
  -23.9850  -10.0900   20.9270 C   0  0  0  0  0  0  0  0  0  0  0  0
  -24.4360   -9.0360   21.7510 C   0  0  0  0  0  3  0  0  0  0  0  0
  -23.5860   -7.9500   22.0510 C   0  0  0  0  0  3  0  0  0  0  0  0
  -22.2700   -7.9140   21.5310 C   0  0  0  0  0  0  0  0  0  0  0  0
  -21.8350   -8.9550   20.6920 C   0  0  0  0  0  3  0  0  0  0  0  0
  -22.6850  -10.0320   20.3890 C   0  0  0  0  0  3  0  0  0  0  0  0
  -21.3830   -6.8860   21.7500 O   0  0  0  0  0  0  0  0  0  0  0  0
  -21.3830   -6.1720   22.9210 C   0  0  0  0  0  0  0  0  0  0  0  0
  -21.2070   -6.7970   24.1750 C   0  0  0  0  0  3  0  0  0  0  0  0
  -21.1430   -6.0170   25.3470 C   0  0  0  0  0  3  0  0  0  0  0  0
  -21.2470   -4.6160   25.2670 C   0  0  0  0  0  0  0  0  0  0  0  0
  -21.4180   -3.9920   24.0190 C   0  0  0  0  0  3  0  0  0  0  0  0
  -21.4830   -4.7680   22.8490 C   0  0  0  0  0  0  0  0  0  0  0  0
  -21.6270   -4.1600   21.6470 F   0  0  0  0  0  0  0  0  0  0  0  0
  -21.1770   -3.8660   26.3930 F   0  0  0  0  0  0  0  0  0  0  0  0
  -23.4630  -13.2940   21.4870 C   0  0  0  0  0  0  0  0  0  0  0  0
  -22.8940  -12.6550   22.5040 N   0  0  0  0  0  0  0  0  0  0  0  0
  -23.0680  -14.4040   21.1320 O   0  0  0  0  0  0  0  0  0  0  0  0
  -23.2300  -11.7550   22.8100 H   0  0  0  0  0  0  0  0  0  0  0  0
  -22.1100  -13.0740   22.9850 H   0  0  0  0  0  0  0  0  0  0  0  0
  -26.0400  -14.6110   20.0790 N   0  0  0  0  0  0  0  0  0  0  0  0
  -25.4540  -15.3640   20.4190 H   0  0  0  0  0  0  0  0  0  0  0  0
  -26.8590  -14.9400   19.5810 H   0  0  0  0  0  0  0  0  0  0  0  0
  -29.7240  -20.7640   19.5830 C   0  0  0  0  0  2  0  0  0  0  0  0
  -31.1120  -20.9320   19.3100 O   0  0  0  0  0  0  0  0  0  0  0  0
  -31.3360  -21.8430   19.4770 H   0  0  0  0  0  0  0  0  0  0  0  0
  1 99  1  0
  1  2  1  0
  1 53  1  0
  2  4  2  0
  3  6  1  0
  3  2  1  0
  5  3  1  0
  6 10  1  0
  6  9  1  0
  8  9  1  0
  9  7  1  0
 10 11  1  0
 12 23  2  0
 13 11  1  0
 13 18  1  0
 14 22  1  0
 14 24  1  0
 15 21  1  0
 15 17  1  0
 16 22  1  0
 17 16  1  0
 18 17  2  0
 19 20  1  0
 19 13  2  0
 20 15  2  0
 21 14  1  0
 22 12  1  0
 24 26  2  0
 25 24  1  0
 27 25  1  0
 28 37  2  0
 28 33  1  0
 29 25  1  0
 29 33  1  0
 30 29  1  0
 31 32  1  0
 31 30  1  0
 32 28  1  0
 33 34  2  0
 34 35  1  0
 36 35  2  0
 37 36  1  0
 38 12  1  0
 38 39  1  0
 38 48  1  0
 39 42  1  0
 40 44  1  0
 40 39  1  0
 41 40  2  0
 44 43  1  0
 46 47  1  0
 46 44  1  0
 46 45  1  0
 48 51  1  1
 48 49  1  0
 50 48  1  0
 52 56  1  0
 53 52  1  0
 53 55  1  0
 54 52  2  0
 57 56  1  0
 58 57  1  0
 59 58  1  0
 60 59  1  0
 61 67  1  0
 61 69  1  0
 62 67  1  0
 63 64  1  0
 63 62  1  0
 65 64  1  0
 65 74  1  0
 65 66  1  0
 67 66  1  0
 68 61  2  0
 69 60  1  0
 69 70  1  0
 71 72  2  0
 72 91  1  0
 73 72  1  0
 73 76  1  0
 74 75  1  0
 74 71  1  0
 75 73  2  0
 76 77  1  0
 77 78  2  0
 79 82  1  0
 79 78  1  0
 80 79  2  0
 81 80  1  0
 81 76  2  0
 82 83  1  0
 83 84  1  0
 84 85  2  0
 86 85  1  0
 86 90  1  0
 87 86  2  0
 88 83  2  0
 88 87  1  0
 89 88  1  0
 91 92  1  0
 92 94  1  0
 92 95  1  0
 93 91  2  0
 96 71  1  0
 96 97  1  0
 98 96  1  0
100101  1  0
100 99  1  0
M  ISO  4  10 101  11 101  61 100  69 100
M  END
>  <TORSDO>  (19) 
F 28

>  <SCORE>  (19) 
-5.062

>  <name>  (19) 
18

>  <ligand_id>  (19) 
18

>  <original_smiles>  (19) 
[H]OC([H])([H])C([H])(C(=O)N([H])C([H])(C([H])([H])Oc1c([H])c([H])c2c(c1[H])C([H])([H])N(C(=O)C([H])(N([H])C(=O)C([H])(N([H])C([H])([H])[H])C([H])([H])[H])C(C([H])([H])[H])(C([H])([H])[H])C([H])([H])[H])C([H])(C(=O)N([H])C1([H])c3c([H])c([H])c([H])c([H])c3C([H])([H])C([H])([H])C1([H])[H])C2([H])[H])C([H])(C([H])([H])[H])C([H])([H])[H])N([H])C(=O)C([H])([H])C([H])([H])C([H])([H])C([H])([H])C([H])([H])N([H])C(=O)N1C([H])([H])C([H])([H])C([H])([H])C([H])(n2nc(-c3c([H])c([H])c(Oc4c([H])c([H])c(F)c([H])c4F)c([H])c3[H])c(C(=O)N([H])[H])c2N([H])[H])C1([H])[H]

>  <smiles>  (19) 
[H]OC([H])([H])C([H])(C(=O)N([H])C([H])(C([H])([H])Oc1c([H])c([H])c2c(c1[H])C([H])([H])N(C(=O)C([H])(N([H])C(=O)C([H])(N([H])C([H])([H])[H])C([H])([H])[H])C(C([H])([H])[H])(C([H])([H])[H])C([H])([H])[H])C([H])(C(=O)N([H])C1([H])c3c([H])c([H])c([H])c([H])c3C([H])([H])C([H])([H])C1([H])[H])C2([H])[H])C([H])(C([H])([H])[H])C([H])([H])[H])N([H])C(=O)C([H])([H])C([H])([H])C([H])([H])C([H])([H])C([H])([H])N([H])C(=O)N1C([H])([H])C([H])([H])C([H])([H])C([H])(n2nc(-c3c([H])c([H])c(Oc4c([H])c([H])c(F)c([H])c4F)c([H])c3[H])c(C(=O)N([H])[H])c2N([H])[H])C1([H])[H]

$$$$
19:0:0
     RDKit          3D

 95102  0  0  1  0  0  0  0  0999 V2000
  -28.7000  -23.0490   21.0310 C   0  0  0  0  0  2  0  0  0  0  0  0
  -27.6020  -21.7510   19.0910 C   0  0  0  0  0  1  0  0  0  0  0  0
  -27.4200  -20.9070   21.4290 C   0  0  0  0  0  1  0  0  0  0  0  0
  -28.3660  -21.6190   20.4250 C   0  0  2  0  0  0  0  0  0  0  0  0
  -29.6190  -20.7130   20.1560 C   0  0  0  0  0  0  0  0  0  0  0  0
  -29.5710  -19.4120   20.5380 N   0  0  0  0  0  0  0  0  0  0  0  0
  -30.5820  -21.1890   19.5530 O   0  0  0  0  0  0  0  0  0  0  0  0
  -28.7330  -19.1530   21.0400 H   0  0  0  0  0  0  0  0  0  0  0  0
  -30.4480  -18.2860   20.1380 C   0  0  0  0  0  2  0  0  0  0  0  0
  -30.7780  -17.2930   21.3020 C   0  0  0  0  0  2  0  0  0  0  0  0
  -31.1380  -14.8500   20.6190 C   0  0  0  0  0  0  0  0  0  0  0  0
  -30.8970  -12.6510   19.5080 C   0  0  0  0  0  2  0  0  0  0  0  0
  -29.9990  -12.8170   18.2620 C   0  0  0  0  0  2  0  0  0  0  0  0
  -28.5080  -12.6980   18.6380 C   0  0  0  0  0  2  0  0  0  0  0  0
  -28.1280  -13.5690   19.8650 C   0  0  0  0  0  3  0  0  0  0  0  0
  -29.1370  -13.3660   21.0170 C   0  0  0  0  0  2  0  0  0  0  0  0
  -30.4800  -13.6630   20.4920 N   0  0  0  0  0  0  0  0  0  0  0  0
  -32.2950  -15.0160   20.2240 O   0  0  0  0  0  0  0  0  0  0  0  0
  -30.3890  -15.8820   21.0710 N   0  0  0  0  0  0  0  0  0  0  0  0
  -29.4430  -15.6400   21.3280 H   0  0  0  0  0  0  0  0  0  0  0  0
  -25.7310  -14.2330   20.5200 C   0  0  0  0  0  0  0  0  0  0  0  0
  -24.6270  -13.4850   20.8340 C   0  0  0  0  0  0  0  0  0  0  0  0
  -25.0470  -12.1200   20.7770 C   0  0  0  0  0  0  0  0  0  0  0  0
  -26.7540  -13.3240   20.2950 N   0  0  0  0  0  0  0  0  0  0  0  0
  -26.3440  -12.0470   20.5070 N   0  0  0  0  0  0  0  0  0  0  0  0
  -24.2760  -10.8780   20.9070 C   0  0  0  0  0  0  0  0  0  0  0  0
  -24.6310   -9.8830   21.8440 C   0  0  0  0  0  3  0  0  0  0  0  0
  -23.8640   -8.7050   21.9640 C   0  0  0  0  0  3  0  0  0  0  0  0
  -22.7260   -8.5130   21.1430 C   0  0  0  0  0  0  0  0  0  0  0  0
  -22.3890   -9.4960   20.1970 C   0  0  0  0  0  3  0  0  0  0  0  0
  -23.1580  -10.6660   20.0760 C   0  0  0  0  0  3  0  0  0  0  0  0
  -21.9360   -7.3890   21.1710 O   0  0  0  0  0  0  0  0  0  0  0  0
  -21.7820   -6.6450   22.3130 C   0  0  0  0  0  0  0  0  0  0  0  0
  -21.2620   -7.2030   23.5020 C   0  0  0  0  0  3  0  0  0  0  0  0
  -21.0560   -6.3860   24.6310 C   0  0  0  0  0  3  0  0  0  0  0  0
  -21.3600   -5.0120   24.5730 C   0  0  0  0  0  0  0  0  0  0  0  0
  -21.8730   -4.4540   23.3880 C   0  0  0  0  0  3  0  0  0  0  0  0
  -22.0800   -5.2680   22.2610 C   0  0  0  0  0  0  0  0  0  0  0  0
  -22.5540   -4.7210   21.1160 F   0  0  0  0  0  0  0  0  0  0  0  0
  -21.1550   -4.2260   25.6550 F   0  0  0  0  0  0  0  0  0  0  0  0
  -23.2380  -13.9990   21.0780 C   0  0  0  0  0  0  0  0  0  0  0  0
  -22.4640  -13.3040   21.9040 N   0  0  0  0  0  0  0  0  0  0  0  0
  -22.8480  -15.0510   20.5720 O   0  0  0  0  0  0  0  0  0  0  0  0
  -22.7920  -12.4530   22.3350 H   0  0  0  0  0  0  0  0  0  0  0  0
  -21.5300  -13.6280   22.1100 H   0  0  0  0  0  0  0  0  0  0  0  0
  -25.9440  -15.6010   20.3870 N   0  0  0  0  0  0  0  0  0  0  0  0
  -25.1900  -16.2730   20.4850 H   0  0  0  0  0  0  0  0  0  0  0  0
  -26.8110  -16.0220   20.0790 H   0  0  0  0  0  0  0  0  0  0  0  0
  -28.7970  -24.3400   20.1280 C   0  0  0  0  0  3  0  0  0  0  0  0
  -30.0810  -24.3600   19.3950 N   0  0  0  0  0  4  0  0  0  0  0  0
  -30.8580  -24.4940   20.0180 H   0  0  0  0  0  0  0  0  0  0  0  0
  -30.0930  -25.1140   18.7260 H   0  0  0  0  0  0  0  0  0  0  0  0
  -30.2280  -23.4930   18.9030 H   0  0  0  0  0  0  0  0  0  0  0  0
  -28.6110  -25.6620   20.9590 C   0  0  0  0  0  2  0  0  0  0  0  0
  -28.6290  -26.9060   20.2130 O   0  0  0  0  0  0  0  0  0  0  0  0
  -24.6380  -31.9890   23.3150 C   0  0  0  0  0  0  0  0  0  0  0  0
  -27.4570  -27.6430   20.2260 C   0  0  0  0  0  0  0  0  0  0  0  0
  -23.5050  -30.5880   21.6210 C   0  0  0  0  0  3  0  0  0  0  0  0
  -25.0300  -29.1080   20.2040 C   0  0  0  0  0  0  0  0  0  0  0  0
  -26.0270  -31.0070   21.4880 C   0  0  0  0  0  2  0  0  0  0  0  0
  -26.1640  -29.6470   20.8260 C   0  0  0  0  0  0  0  0  0  0  0  0
  -27.3840  -28.9240   20.8300 C   0  0  0  0  0  3  0  0  0  0  0  0
  -26.3070  -27.1230   19.5980 C   0  0  0  0  0  3  0  0  0  0  0  0
  -25.0980  -27.8470   19.5850 C   0  0  0  0  0  3  0  0  0  0  0  0
  -23.7640  -29.9370   20.2360 C   0  0  0  0  0  2  0  0  0  0  0  0
  -24.7410  -31.2090   22.2000 N   0  0  0  0  0  0  0  0  0  0  0  0
  -23.5380  -32.2250   23.8350 O   0  0  0  0  0  0  0  0  0  0  0  0
  -22.8570  -29.5350   22.5490 C   0  0  0  0  0  0  0  0  0  0  0  0
  -21.5370  -29.3310   22.3960 N   0  0  0  0  0  0  0  0  0  0  0  0
  -23.5380  -28.9050   23.3610 O   0  0  0  0  0  0  0  0  0  0  0  0
  -21.0490  -29.8940   21.7130 H   0  0  0  0  0  0  0  0  0  0  0  0
  -18.1720  -28.0890   22.8360 C   0  0  0  0  0  0  0  0  0  0  0  0
  -20.7270  -28.3610   23.1300 C   0  0  0  0  0  3  0  0  0  0  0  0
  -20.8460  -26.9510   22.5060 C   0  0  0  0  0  2  0  0  0  0  0  0
  -19.7510  -26.6520   21.4750 C   0  0  0  0  0  2  0  0  0  0  0  0
  -18.3650  -26.7640   22.1170 C   0  0  0  0  0  2  0  0  0  0  0  0
  -19.2810  -28.8460   23.2980 C   0  0  0  0  0  0  0  0  0  0  0  0
  -19.0490  -30.0860   23.9290 C   0  0  0  0  0  3  0  0  0  0  0  0
  -17.7390  -30.5710   24.1040 C   0  0  0  0  0  3  0  0  0  0  0  0
  -16.6440  -29.8110   23.6600 C   0  0  0  0  0  3  0  0  0  0  0  0
  -16.8610  -28.5710   23.0320 C   0  0  0  0  0  3  0  0  0  0  0  0
  -25.8930  -32.6400   23.9770 C   0  0  0  0  0  3  0  0  0  0  0  0
  -26.3750  -31.8820   25.2750 C   0  0  1  0  0  0  0  0  0  0  0  0
  -25.2450  -31.6210   26.2980 C   0  0  0  0  0  1  0  0  0  0  0  0
  -27.0050  -30.5180   24.9090 C   0  0  0  0  0  1  0  0  0  0  0  0
  -27.4790  -32.7030   25.9820 C   0  0  0  0  0  1  0  0  0  0  0  0
  -25.5580  -34.0360   24.2850 N   0  0  0  0  0  0  0  0  0  0  0  0
  -25.9030  -35.0860   23.5280 C   0  0  0  0  0  0  0  0  0  0  0  0
  -26.6090  -34.9820   22.5200 O   0  0  0  0  0  0  0  0  0  0  0  0
  -24.9340  -34.1900   25.0640 H   0  0  0  0  0  0  0  0  0  0  0  0
  -24.1640  -36.8530   23.1030 C   0  0  0  0  0  1  0  0  0  0  0  0
  -25.3840  -36.4720   23.9560 C   0  0  0  0  0  3  0  0  0  0  0  0
  -27.4770  -37.3950   24.8500 C   0  0  0  0  0  1  0  0  0  0  0  0
  -26.4060  -37.5370   23.8670 N   0  0  0  0  0  0  0  0  0  0  0  0
  -25.9840  -38.4540   23.9880 H   0  0  0  0  0  0  0  0  0  0  0  0
  4  2  1  6
  4  1  1  0
  4  3  1  0
  5  4  1  0
  5  6  1  0
  6  8  1  0
  7  5  2  0
  9  6  1  0
  9 10  1  0
 11 19  1  0
 12 17  1  0
 13 14  1  0
 13 12  1  0
 15 14  1  0
 15 24  1  0
 15 16  1  0
 17 11  1  0
 17 16  1  0
 18 11  2  0
 19 10  1  0
 19 20  1  0
 21 22  2  0
 22 41  1  0
 23 22  1  0
 23 26  1  0
 24 25  1  0
 24 21  1  0
 25 23  2  0
 26 27  1  0
 27 28  2  0
 29 32  1  0
 29 28  1  0
 30 29  2  0
 31 30  1  0
 31 26  2  0
 32 33  1  0
 33 34  1  0
 34 35  2  0
 36 35  1  0
 36 40  1  0
 37 36  2  0
 38 33  2  0
 38 37  1  0
 39 38  1  0
 41 42  1  0
 42 45  1  0
 42 44  1  0
 43 41  2  0
 46 47  1  0
 46 21  1  0
 48 46  1  0
 49 54  1  0
 49  1  1  0
 50 51  1  0
 50 49  1  0
 52 50  1  0
 53 50  1  0
 55 57  1  0
 55 54  1  0
 56 67  2  0
 57 62  1  0
 58 66  1  0
 58 68  1  0
 59 65  1  0
 59 61  1  0
 60 66  1  0
 61 62  2  0
 61 60  1  0
 63 57  2  0
 64 63  1  0
 64 59  2  0
 65 58  1  0
 66 56  1  0
 68 70  2  0
 69 68  1  0
 71 69  1  0
 72 81  2  0
 72 77  1  0
 73 69  1  0
 73 77  1  0
 74 73  1  0
 75 76  1  0
 75 74  1  0
 76 72  1  0
 77 78  2  0
 78 79  1  0
 80 79  2  0
 81 80  1  0
 82 56  1  0
 82 87  1  0
 82 83  1  0
 83 86  1  1
 83 84  1  0
 85 83  1  0
 87 90  1  0
 88 92  1  0
 88 87  1  0
 89 88  2  0
 92 91  1  0
 94 92  1  0
 94 95  1  0
 94 93  1  0
M  ISO  4  11 100  19 100  54 101  55 101
M  END
>  <TORSDO>  (20) 
F 23

>  <SCORE>  (20) 
-11.427

>  <name>  (20) 
19

>  <ligand_id>  (20) 
19

>  <original_smiles>  (20) 
[H]c1c([H])c([H])c2c(c1[H])C([H])([H])C([H])([H])C([H])([H])C2([H])N([H])C(=O)C1([H])N(C(=O)C([H])(N([H])C(=O)C([H])(N([H])C([H])([H])[H])C([H])([H])[H])C(C([H])([H])[H])(C([H])([H])[H])C([H])([H])[H])C([H])([H])c2c([H])c(OC([H])([H])C([H])(C([H])([H])C(C(=O)N([H])C([H])([H])C([H])([H])N([H])C(=O)N3C([H])([H])C([H])([H])C([H])([H])C([H])(n4nc(-c5c([H])c([H])c(Oc6c([H])c([H])c(F)c([H])c6F)c([H])c5[H])c(C(=O)N([H])[H])c4N([H])[H])C3([H])[H])(C([H])([H])[H])C([H])([H])[H])[N+]([H])([H])[H])c([H])c([H])c2C1([H])[H]

>  <smiles>  (20) 
[H]c1c([H])c([H])c2c(c1[H])C([H])([H])C([H])([H])C([H])([H])C2([H])N([H])C(=O)C1([H])N(C(=O)C([H])(N([H])C(=O)C([H])(N([H])C([H])([H])[H])C([H])([H])[H])C(C([H])([H])[H])(C([H])([H])[H])C([H])([H])[H])C([H])([H])c2c([H])c(OC([H])([H])C([H])(C([H])([H])C(C(=O)N([H])C([H])([H])C([H])([H])N([H])C(=O)N3C([H])([H])C([H])([H])C([H])([H])C([H])(n4nc(-c5c([H])c([H])c(Oc6c([H])c([H])c(F)c([H])c6F)c([H])c5[H])c(C(=O)N([H])[H])c4N([H])[H])C3([H])[H])(C([H])([H])[H])C([H])([H])[H])[N+]([H])([H])[H])c([H])c([H])c2C1([H])[H]

$$$$
20:0:0
     RDKit          3D

101109  0  0  1  0  0  0  0  0999 V2000
  -31.4250  -18.7850   16.5570 C   0  0  0  0  0  0  0  0  0  0  0  0
  -32.5820  -21.4600   14.1850 C   0  0  0  0  0  2  0  0  0  0  0  0
  -32.7000  -20.1420   14.9600 C   0  0  0  0  0  2  0  0  0  0  0  0
  -32.5510  -22.6540   15.1390 C   0  0  0  0  0  2  0  0  0  0  0  0
  -31.2650  -21.2700   16.7130 C   0  0  0  0  0  2  0  0  0  0  0  0
  -31.7230  -20.0180   16.0600 N   0  0  0  0  0  0  0  0  0  0  0  0
  -31.3620  -22.5850   16.0190 N   0  0  1  0  0  4  0  0  0  0  0  0
  -31.8610  -17.7470   16.0500 O   0  0  0  0  0  0  0  0  0  0  0  0
  -30.5650  -22.6410   15.4000 H   0  0  0  0  0  0  0  0  0  0  0  0
  -31.2920  -23.7640   16.9420 C   0  0  0  0  0  2  0  0  0  0  0  0
  -29.9510  -23.9480   17.6990 C   0  0  0  0  0  2  0  0  0  0  0  0
  -29.9160  -25.2090   18.6080 C   0  0  0  0  0  2  0  0  0  0  0  0
  -28.4900  -25.5940   19.0600 C   0  0  0  0  0  2  0  0  0  0  0  0
  -28.4430  -26.7730   19.8860 O   0  0  0  0  0  0  0  0  0  0  0  0
  -24.6230  -31.8680   23.1810 C   0  0  0  0  0  0  0  0  0  0  0  0
  -27.2360  -27.4500   19.9850 C   0  0  0  0  0  0  0  0  0  0  0  0
  -23.3950  -30.4770   21.5480 C   0  0  0  0  0  3  0  0  0  0  0  0
  -24.8280  -28.9480   20.1010 C   0  0  0  0  0  0  0  0  0  0  0  0
  -25.9240  -30.8270   21.3260 C   0  0  0  0  0  2  0  0  0  0  0  0
  -25.9980  -29.4610   20.6720 C   0  0  0  0  0  0  0  0  0  0  0  0
  -27.2000  -28.7180   20.6170 C   0  0  0  0  0  3  0  0  0  0  0  0
  -26.0280  -26.9350   19.4560 C   0  0  0  0  0  3  0  0  0  0  0  0
  -24.8360  -27.6790   19.5020 C   0  0  0  0  0  3  0  0  0  0  0  0
  -23.5890  -29.8080   20.1630 C   0  0  0  0  0  2  0  0  0  0  0  0
  -24.6650  -31.0730   22.0750 N   0  0  0  0  0  0  0  0  0  0  0  0
  -23.5470  -32.1380   23.7360 O   0  0  0  0  0  0  0  0  0  0  0  0
  -22.7550  -29.4500   22.5090 C   0  0  0  0  0  0  0  0  0  0  0  0
  -21.4300  -29.2680   22.3960 N   0  0  0  0  0  0  0  0  0  0  0  0
  -23.4490  -28.8210   23.3130 O   0  0  0  0  0  0  0  0  0  0  0  0
  -20.9320  -29.8290   21.7180 H   0  0  0  0  0  0  0  0  0  0  0  0
  -18.0610  -28.0700   22.9330 C   0  0  0  0  0  0  0  0  0  0  0  0
  -20.6230  -28.3220   23.1690 C   0  0  0  0  0  3  0  0  0  0  0  0
  -20.7160  -26.8950   22.5800 C   0  0  0  0  0  2  0  0  0  0  0  0
  -19.5990  -26.5820   21.5800 C   0  0  0  0  0  2  0  0  0  0  0  0
  -18.2260  -26.7250   22.2450 C   0  0  0  0  0  2  0  0  0  0  0  0
  -19.1870  -28.8270   23.3530 C   0  0  0  0  0  0  0  0  0  0  0  0
  -18.9800  -30.0860   23.9560 C   0  0  0  0  0  3  0  0  0  0  0  0
  -17.6790  -30.5890   24.1460 C   0  0  0  0  0  3  0  0  0  0  0  0
  -16.5680  -29.8280   23.7420 C   0  0  0  0  0  3  0  0  0  0  0  0
  -16.7580  -28.5710   23.1420 C   0  0  0  0  0  3  0  0  0  0  0  0
  -25.9160  -32.4960   23.7880 C   0  0  0  0  0  3  0  0  0  0  0  0
  -26.4650  -31.7060   25.0380 C   0  0  1  0  0  0  0  0  0  0  0  0
  -25.3990  -31.4330   26.1250 C   0  0  0  0  0  1  0  0  0  0  0  0
  -27.0540  -30.3420   24.6090 C   0  0  0  0  0  1  0  0  0  0  0  0
  -27.6200  -32.4980   25.6920 C   0  0  0  0  0  1  0  0  0  0  0  0
  -25.6040  -33.8880   24.1480 N   0  0  0  0  0  0  0  0  0  0  0  0
  -25.9160  -34.9540   23.4000 C   0  0  0  0  0  0  0  0  0  0  0  0
  -26.5700  -34.8730   22.3570 O   0  0  0  0  0  0  0  0  0  0  0  0
  -25.0240  -34.0260   24.9630 H   0  0  0  0  0  0  0  0  0  0  0  0
  -24.1800  -36.7480   23.0940 C   0  0  0  0  0  1  0  0  0  0  0  0
  -25.4270  -36.3320   23.8900 C   0  0  0  0  0  3  0  0  0  0  0  0
  -27.5660  -37.2040   24.7240 C   0  0  0  0  0  1  0  0  0  0  0  0
  -26.4550  -37.3910   23.7940 N   0  0  0  0  0  0  0  0  0  0  0  0
  -26.0460  -38.3040   23.9740 H   0  0  0  0  0  0  0  0  0  0  0  0
  -30.5140  -18.6610   17.7880 C   0  0  0  0  0  2  0  0  0  0  0  0
  -30.8600  -17.5020   18.7490 C   0  0  0  0  0  2  0  0  0  0  0  0
  -28.6980  -17.4110   20.0640 C   0  0  0  0  0  1  0  0  0  0  0  0
  -30.2060  -17.7160   20.1310 C   0  0  0  0  0  3  0  0  0  0  0  0
  -30.9400  -16.9840   21.2950 C   0  0  0  0  0  3  0  0  0  0  0  0
  -31.3340  -14.5340   20.8480 C   0  0  0  0  0  0  0  0  0  0  0  0
  -31.0950  -12.2880   19.8600 C   0  0  0  0  0  2  0  0  0  0  0  0
  -30.2340  -12.3750   18.5850 C   0  0  0  0  0  2  0  0  0  0  0  0
  -28.7300  -12.3000   18.9220 C   0  0  0  0  0  2  0  0  0  0  0  0
  -28.3230  -13.2690   20.0610 C   0  0  0  0  0  3  0  0  0  0  0  0
  -29.2900  -13.1210   21.2600 C   0  0  0  0  0  2  0  0  0  0  0  0
  -30.6600  -13.3590   20.7680 N   0  0  0  0  0  0  0  0  0  0  0  0
  -32.4760  -14.6930   20.4130 O   0  0  0  0  0  0  0  0  0  0  0  0
  -30.6070  -15.5570   21.3190 N   0  0  0  0  0  0  0  0  0  0  0  0
  -29.6800  -15.3160   21.6360 H   0  0  0  0  0  0  0  0  0  0  0  0
  -25.9120  -14.0200   20.5760 C   0  0  0  0  0  0  0  0  0  0  0  0
  -24.7840  -13.3070   20.8770 C   0  0  0  0  0  0  0  0  0  0  0  0
  -25.1780  -11.9350   20.9080 C   0  0  0  0  0  0  0  0  0  0  0  0
  -26.9290  -13.0810   20.4470 N   0  0  0  0  0  0  0  0  0  0  0  0
  -26.4840  -11.8240   20.6980 N   0  0  0  0  0  0  0  0  0  0  0  0
  -24.3790  -10.7120   21.0680 C   0  0  0  0  0  0  0  0  0  0  0  0
  -24.7180   -9.7340   22.0290 C   0  0  0  0  0  3  0  0  0  0  0  0
  -23.9230   -8.5770   22.1780 C   0  0  0  0  0  3  0  0  0  0  0  0
  -22.7790   -8.3860   21.3650 C   0  0  0  0  0  0  0  0  0  0  0  0
  -22.4570   -9.3540   20.3970 C   0  0  0  0  0  3  0  0  0  0  0  0
  -23.2510  -10.5030   20.2460 C   0  0  0  0  0  3  0  0  0  0  0  0
  -21.9680   -7.2790   21.4200 O   0  0  0  0  0  0  0  0  0  0  0  0
  -21.8240   -6.5470   22.5740 C   0  0  0  0  0  0  0  0  0  0  0  0
  -21.3600   -7.1320   23.7700 C   0  0  0  0  0  3  0  0  0  0  0  0
  -21.1640   -6.3350   24.9140 C   0  0  0  0  0  3  0  0  0  0  0  0
  -21.4180   -4.9520   24.8600 C   0  0  0  0  0  0  0  0  0  0  0  0
  -21.8780   -4.3650   23.6670 C   0  0  0  0  0  3  0  0  0  0  0  0
  -22.0790   -5.1630   22.5270 C   0  0  0  0  0  0  0  0  0  0  0  0
  -22.5000   -4.5920   21.3720 F   0  0  0  0  0  0  0  0  0  0  0  0
  -21.2170   -4.1820   25.9560 F   0  0  0  0  0  0  0  0  0  0  0  0
  -23.3980  -13.8600   21.0420 C   0  0  0  0  0  0  0  0  0  0  0  0
  -22.5910  -13.2310   21.8910 N   0  0  0  0  0  0  0  0  0  0  0  0
  -23.0400  -14.8840   20.4600 O   0  0  0  0  0  0  0  0  0  0  0  0
  -22.8950  -12.4060   22.3840 H   0  0  0  0  0  0  0  0  0  0  0  0
  -21.6570  -13.5840   22.0410 H   0  0  0  0  0  0  0  0  0  0  0  0
  -26.1490  -15.3770   20.3740 N   0  0  0  0  0  0  0  0  0  0  0  0
  -25.3850  -16.0450   20.3510 H   0  0  0  0  0  0  0  0  0  0  0  0
  -27.0380  -15.7770   20.0960 H   0  0  0  0  0  0  0  0  0  0  0  0
  -30.6210  -17.5870   22.6910 C   0  0  0  0  0  2  0  0  0  0  0  0
  -30.5990  -19.5560   24.2930 C   0  0  0  0  0  1  0  0  0  0  0  0
  -32.1570  -19.6060   22.3050 C   0  0  0  0  0  1  0  0  0  0  0  0
  -30.7970  -19.1170   22.8340 C   0  0  0  0  0  3  0  0  0  0  0  0
  1 55  1  0
  2  3  1  0
  2  4  1  0
  3  6  1  0
  4  7  1  0
  6  1  1  0
  6  5  1  0
  7  5  1  0
  7 10  1  0
  8  1  2  0
  7  9  1  6
 10 11  1  0
 11 12  1  0
 12 13  1  0
 13 14  1  0
 14 16  1  0
 15 26  2  0
 16 21  1  0
 17 25  1  0
 17 27  1  0
 18 24  1  0
 18 20  1  0
 19 25  1  0
 20 19  1  0
 21 20  2  0
 22 23  1  0
 22 16  2  0
 23 18  2  0
 24 17  1  0
 25 15  1  0
 27 29  2  0
 28 27  1  0
 30 28  1  0
 31 40  2  0
 31 36  1  0
 32 28  1  0
 32 36  1  0
 33 32  1  0
 34 35  1  0
 34 33  1  0
 35 31  1  0
 36 37  2  0
 37 38  1  0
 39 38  2  0
 40 39  1  0
 41 15  1  0
 41 46  1  0
 41 42  1  0
 42 45  1  1
 42 43  1  0
 44 42  1  0
 46 49  1  0
 47 51  1  0
 47 46  1  0
 48 47  2  0
 51 50  1  0
 53 51  1  0
 53 54  1  0
 53 52  1  0
 55 56  1  0
 56 58  1  0
 58 57  1  0
 58 59  1  0
 59 68  1  0
 59 98  1  0
 60 68  1  0
 61 66  1  0
 62 63  1  0
 62 61  1  0
 64 63  1  0
 64 73  1  0
 64 65  1  0
 66 60  1  0
 66 65  1  0
 67 60  2  0
 68 69  1  0
 70 71  2  0
 71 72  1  0
 71 90  1  0
 72 75  1  0
 73 70  1  0
 73 74  1  0
 74 72  2  0
 75 76  1  0
 76 77  2  0
 78 81  1  0
 78 77  1  0
 79 78  2  0
 80 79  1  0
 80 75  2  0
 81 82  1  0
 82 83  1  0
 83 84  2  0
 85 84  1  0
 85 89  1  0
 86 85  2  0
 87 82  2  0
 87 86  1  0
 88 87  1  0
 90 91  1  0
 91 94  1  0
 91 93  1  0
 92 90  2  0
 95 70  1  0
 96 95  1  0
 97 95  1  0
 98101  1  0
100101  1  0
101 99  1  0
M  ISO  4  13 101  14 101  60 100  68 100
M  END
>  <TORSDO>  (21) 
F 26

>  <SCORE>  (21) 
-11.047

>  <name>  (21) 
20

>  <ligand_id>  (21) 
20

>  <original_smiles>  (21) 
[H]c1c([H])c([H])c2c(c1[H])C([H])([H])C([H])([H])C([H])([H])C2([H])N([H])C(=O)C1([H])N(C(=O)C([H])(N([H])C(=O)C([H])(N([H])C([H])([H])[H])C([H])([H])[H])C(C([H])([H])[H])(C([H])([H])[H])C([H])([H])[H])C([H])([H])c2c([H])c(OC([H])([H])C([H])([H])C([H])([H])C([H])([H])[N+]3([H])C([H])([H])N(C(=O)C([H])([H])C([H])([H])C([H])(C([H])([H])[H])C([H])(N([H])C(=O)N4C([H])([H])C([H])([H])C([H])([H])C([H])(n5nc(-c6c([H])c([H])c(Oc7c([H])c([H])c(F)c([H])c7F)c([H])c6[H])c(C(=O)N([H])[H])c5N([H])[H])C4([H])[H])C([H])([H])C([H])(C([H])([H])[H])C([H])([H])[H])C([H])([H])C([H])([H])C3([H])[H])c([H])c([H])c2C1([H])[H]

>  <smiles>  (21) 
[H]c1c([H])c([H])c2c(c1[H])C([H])([H])C([H])([H])C([H])([H])C2([H])N([H])C(=O)C1([H])N(C(=O)C([H])(N([H])C(=O)C([H])(N([H])C([H])([H])[H])C([H])([H])[H])C(C([H])([H])[H])(C([H])([H])[H])C([H])([H])[H])C([H])([H])c2c([H])c(OC([H])([H])C([H])([H])C([H])([H])C([H])([H])[N+]3([H])C([H])([H])N(C(=O)C([H])([H])C([H])([H])C([H])(C([H])([H])[H])C([H])(N([H])C(=O)N4C([H])([H])C([H])([H])C([H])([H])C([H])(n5nc(-c6c([H])c([H])c(Oc7c([H])c([H])c(F)c([H])c7F)c([H])c6[H])c(C(=O)N([H])[H])c5N([H])[H])C4([H])[H])C([H])([H])C([H])(C([H])([H])[H])C([H])([H])[H])C([H])([H])C([H])([H])C3([H])[H])c([H])c([H])c2C1([H])[H]

$$$$
21:0:0
     RDKit          3D

102109  0  0  1  0  0  0  0  0999 V2000
  -29.9330  -21.3710   19.9230 C   0  0  0  0  0  2  0  0  0  0  0  0
  -29.7140  -22.3940   21.0730 C   0  0  0  0  0  2  0  0  0  0  0  0
  -29.4590  -23.8490   20.5840 C   0  0  0  0  0  2  0  0  0  0  0  0
  -28.9960  -24.8090   21.7120 C   0  0  0  0  0  2  0  0  0  0  0  0
  -29.0270  -26.3440   21.4360 C   0  0  0  0  0  3  0  0  0  0  0  0
  -30.4460  -26.9400   21.4780 C   0  0  0  0  0  0  0  0  0  0  0  0
  -30.7380  -27.7610   22.4810 N   0  0  0  0  0  0  0  0  0  0  0  0
  -31.2760  -26.6910   20.6040 O   0  0  0  0  0  0  0  0  0  0  0  0
  -30.0510  -27.9590   23.1940 H   0  0  0  0  0  0  0  0  0  0  0  0
  -31.6540  -28.1820   22.5470 H   0  0  0  0  0  0  0  0  0  0  0  0
  -28.4250  -26.6730   20.1790 O   0  0  0  0  0  0  0  0  0  0  0  0
  -24.5700  -31.8720   23.2420 C   0  0  0  0  0  0  0  0  0  0  0  0
  -27.2870  -27.4490   20.2120 C   0  0  0  0  0  0  0  0  0  0  0  0
  -23.3970  -30.4660   21.5780 C   0  0  0  0  0  3  0  0  0  0  0  0
  -24.8830  -28.9360   20.1780 C   0  0  0  0  0  0  0  0  0  0  0  0
  -25.9220  -30.8390   21.4210 C   0  0  0  0  0  2  0  0  0  0  0  0
  -26.0260  -29.4660   20.7920 C   0  0  0  0  0  0  0  0  0  0  0  0
  -27.2320  -28.7290   20.8140 C   0  0  0  0  0  3  0  0  0  0  0  0
  -26.1360  -26.9390   19.5810 C   0  0  0  0  0  3  0  0  0  0  0  0
  -24.9320  -27.6680   19.5710 C   0  0  0  0  0  3  0  0  0  0  0  0
  -23.6330  -29.7870   20.2010 C   0  0  0  0  0  2  0  0  0  0  0  0
  -24.6470  -31.0740   22.1390 N   0  0  0  0  0  0  0  0  0  0  0  0
  -23.4790  -32.1390   23.7650 O   0  0  0  0  0  0  0  0  0  0  0  0
  -22.7350  -29.4420   22.5270 C   0  0  0  0  0  0  0  0  0  0  0  0
  -21.4120  -29.2620   22.3830 N   0  0  0  0  0  0  0  0  0  0  0  0
  -23.4080  -28.8120   23.3460 O   0  0  0  0  0  0  0  0  0  0  0  0
  -20.9310  -29.8220   21.6930 H   0  0  0  0  0  0  0  0  0  0  0  0
  -18.0260  -28.0920   22.8530 C   0  0  0  0  0  0  0  0  0  0  0  0
  -20.5840  -28.3230   23.1400 C   0  0  0  0  0  3  0  0  0  0  0  0
  -20.6770  -26.8980   22.5460 C   0  0  0  0  0  2  0  0  0  0  0  0
  -19.5770  -26.5970   21.5240 C   0  0  0  0  0  2  0  0  0  0  0  0
  -18.1940  -26.7470   22.1640 C   0  0  0  0  0  2  0  0  0  0  0  0
  -19.1490  -28.8380   23.2970 C   0  0  0  0  0  0  0  0  0  0  0  0
  -18.9400  -30.0960   23.9010 C   0  0  0  0  0  3  0  0  0  0  0  0
  -17.6390  -30.6080   24.0650 C   0  0  0  0  0  3  0  0  0  0  0  0
  -16.5300  -29.8590   23.6390 C   0  0  0  0  0  3  0  0  0  0  0  0
  -16.7240  -28.6010   23.0380 C   0  0  0  0  0  3  0  0  0  0  0  0
  -25.8440  -32.5060   23.8830 C   0  0  0  0  0  3  0  0  0  0  0  0
  -25.5300  -33.9060   24.1990 N   0  0  0  0  0  0  0  0  0  0  0  0
  -25.8800  -34.9540   23.4400 C   0  0  0  0  0  0  0  0  0  0  0  0
  -26.5730  -34.8420   22.4240 O   0  0  0  0  0  0  0  0  0  0  0  0
  -24.9190  -34.0660   24.9860 H   0  0  0  0  0  0  0  0  0  0  0  0
  -24.1680  -36.7470   23.0280 C   0  0  0  0  0  1  0  0  0  0  0  0
  -25.3840  -36.3440   23.8770 C   0  0  0  0  0  3  0  0  0  0  0  0
  -27.4940  -37.2280   24.7670 C   0  0  0  0  0  1  0  0  0  0  0  0
  -26.4220  -37.3940   23.7900 N   0  0  0  0  0  0  0  0  0  0  0  0
  -26.0150  -38.3160   23.9190 H   0  0  0  0  0  0  0  0  0  0  0  0
  -26.3400  -31.7400   25.1700 C   0  0  1  0  0  0  0  0  0  0  0  0
  -25.2290  -31.5030   26.2180 C   0  0  0  0  0  1  0  0  0  0  0  0
  -26.9340  -30.3620   24.7890 C   0  0  0  0  0  1  0  0  0  0  0  0
  -27.4790  -32.5370   25.8490 C   0  0  0  0  0  1  0  0  0  0  0  0
  -30.9910  -20.2410   20.1170 C   0  0  0  0  0  3  0  0  0  0  0  0
  -30.5930  -19.1920   21.0990 N   0  0  0  0  0  4  0  0  0  0  0  0
  -31.3400  -19.1120   21.7700 H   0  0  0  0  0  0  0  0  0  0  0  0
  -29.7790  -19.5010   21.6060 H   0  0  0  0  0  0  0  0  0  0  0  0
  -30.3380  -17.8290   20.5500 C   0  0  0  0  0  2  0  0  0  0  0  0
  -30.4850  -16.7190   21.6270 C   0  0  0  0  0  2  0  0  0  0  0  0
  -30.6680  -14.4720   20.4570 C   0  0  0  0  0  0  0  0  0  0  0  0
  -30.3470  -12.3740   19.1850 C   0  0  0  0  0  2  0  0  0  0  0  0
  -29.3770  -12.6120   18.0100 C   0  0  0  0  0  2  0  0  0  0  0  0
  -27.9110  -12.4600   18.4610 C   0  0  0  0  0  2  0  0  0  0  0  0
  -27.5990  -13.2580   19.7550 C   0  0  0  0  0  3  0  0  0  0  0  0
  -28.6680  -12.9780   20.8330 C   0  0  0  0  0  2  0  0  0  0  0  0
  -29.9870  -13.3100   20.2610 N   0  0  0  0  0  0  0  0  0  0  0  0
  -31.7540  -14.7210   19.9270 O   0  0  0  0  0  0  0  0  0  0  0  0
  -30.0270  -15.3830   21.2090 N   0  0  0  0  0  0  0  0  0  0  0  0
  -29.1340  -15.0830   21.5720 H   0  0  0  0  0  0  0  0  0  0  0  0
  -25.2040  -13.8580   20.4880 C   0  0  0  0  0  0  0  0  0  0  0  0
  -24.1420  -13.0820   20.8660 C   0  0  0  0  0  0  0  0  0  0  0  0
  -24.6070  -11.7310   20.8270 C   0  0  0  0  0  0  0  0  0  0  0  0
  -26.2490  -12.9800   20.2450 N   0  0  0  0  0  0  0  0  0  0  0  0
  -25.8930  -11.6970   20.5060 N   0  0  0  0  0  0  0  0  0  0  0  0
  -23.8860  -10.4670   21.0220 C   0  0  0  0  0  0  0  0  0  0  0  0
  -24.3280   -9.5020   21.9550 C   0  0  0  0  0  3  0  0  0  0  0  0
  -23.6100   -8.3000   22.1360 C   0  0  0  0  0  3  0  0  0  0  0  0
  -22.4340   -8.0560   21.3860 C   0  0  0  0  0  0  0  0  0  0  0  0
  -22.0130   -9.0100   20.4430 C   0  0  0  0  0  3  0  0  0  0  0  0
  -22.7320  -10.2030   20.2590 C   0  0  0  0  0  3  0  0  0  0  0  0
  -21.6870   -6.9080   21.4780 O   0  0  0  0  0  0  0  0  0  0  0  0
  -21.6450   -6.1660   22.6320 C   0  0  0  0  0  0  0  0  0  0  0  0
  -21.2070   -6.7160   23.8560 C   0  0  0  0  0  3  0  0  0  0  0  0
  -21.1130   -5.9000   25.0000 C   0  0  0  0  0  3  0  0  0  0  0  0
  -21.4470   -4.5340   24.9220 C   0  0  0  0  0  0  0  0  0  0  0  0
  -21.8780   -3.9840   23.7030 C   0  0  0  0  0  3  0  0  0  0  0  0
  -21.9730   -4.7980   22.5610 C   0  0  0  0  0  0  0  0  0  0  0  0
  -22.3690   -4.2570   21.3820 F   0  0  0  0  0  0  0  0  0  0  0  0
  -21.3500   -3.7480   26.0190 F   0  0  0  0  0  0  0  0  0  0  0  0
  -22.7450  -13.5540   21.1550 C   0  0  0  0  0  0  0  0  0  0  0  0
  -22.0270  -12.8530   22.0240 N   0  0  0  0  0  0  0  0  0  0  0  0
  -22.3000  -14.5800   20.6430 O   0  0  0  0  0  0  0  0  0  0  0  0
  -22.4010  -12.0220   22.4620 H   0  0  0  0  0  0  0  0  0  0  0  0
  -21.0910  -13.1490   22.2580 H   0  0  0  0  0  0  0  0  0  0  0  0
  -25.3640  -15.2300   20.3110 N   0  0  0  0  0  0  0  0  0  0  0  0
  -24.5970  -15.8830   20.4250 H   0  0  0  0  0  0  0  0  0  0  0  0
  -26.2090  -15.6680   19.9670 H   0  0  0  0  0  0  0  0  0  0  0  0
  -32.3880  -20.8120   20.4480 C   0  0  0  0  0  2  0  0  0  0  0  0
  -33.5450  -19.8250   20.1870 C   0  0  0  0  0  2  0  0  0  0  0  0
  -34.9140  -20.4670   20.4210 C   0  0  0  0  0  0  0  0  0  0  0  0
  -35.8560  -20.2560   19.5110 N   0  0  0  0  0  0  0  0  0  0  0  0
  -35.1300  -21.1510   21.4180 O   0  0  0  0  0  0  0  0  0  0  0  0
  -35.6660  -19.6900   18.6950 H   0  0  0  0  0  0  0  0  0  0  0  0
  -36.7750  -20.6620   19.6220 H   0  0  0  0  0  0  0  0  0  0  0  0
  1  2  1  0
  3  2  1  0
  3  4  1  0
  5  6  1  0
  5  4  1  0
  6  7  1  0
  7 10  1  0
  7  9  1  0
  8  6  2  0
 11 13  1  0
 11  5  1  0
 12 23  2  0
 13 18  1  0
 14 22  1  0
 14 24  1  0
 15 21  1  0
 15 17  1  0
 16 22  1  0
 17 18  2  0
 17 16  1  0
 19 13  2  0
 20 19  1  0
 20 15  2  0
 21 14  1  0
 22 12  1  0
 24 26  2  0
 25 24  1  0
 27 25  1  0
 28 37  2  0
 28 33  1  0
 29 25  1  0
 29 33  1  0
 30 29  1  0
 31 32  1  0
 31 30  1  0
 32 28  1  0
 33 34  2  0
 34 35  1  0
 36 35  2  0
 37 36  1  0
 38 12  1  0
 38 39  1  0
 38 48  1  0
 39 42  1  0
 40 44  1  0
 40 39  1  0
 41 40  2  0
 44 43  1  0
 46 44  1  0
 46 47  1  0
 46 45  1  0
 48 51  1  1
 48 49  1  0
 50 48  1  0
 52  1  1  0
 52 96  1  0
 52 53  1  0
 53 55  1  0
 53 54  1  0
 56 53  1  0
 56 57  1  0
 58 66  1  0
 59 64  1  0
 60 61  1  0
 60 59  1  0
 62 61  1  0
 62 71  1  0
 62 63  1  0
 64 58  1  0
 64 63  1  0
 65 58  2  0
 66 67  1  0
 66 57  1  0
 68 69  2  0
 69 88  1  0
 70 69  1  0
 70 73  1  0
 71 68  1  0
 71 72  1  0
 72 70  2  0
 73 74  1  0
 74 75  2  0
 76 79  1  0
 76 75  1  0
 77 76  2  0
 78 77  1  0
 78 73  2  0
 79 80  1  0
 80 81  1  0
 81 82  2  0
 83 82  1  0
 83 87  1  0
 84 83  2  0
 85 80  2  0
 85 84  1  0
 86 85  1  0
 88 89  1  0
 89 92  1  0
 89 91  1  0
 90 88  2  0
 93 94  1  0
 93 68  1  0
 95 93  1  0
 97 98  1  0
 97 96  1  0
 98100  2  0
 99102  1  0
 99 98  1  0
101 99  1  0
M  ISO  4   5 101  11 101  58 100  66 100
M  END
>  <TORSDO>  (22) 
F 28

>  <SCORE>  (22) 
-11.728

>  <name>  (22) 
21

>  <ligand_id>  (22) 
21

>  <original_smiles>  (22) 
[H]c1c([H])c([H])c2c(c1[H])C([H])([H])C([H])([H])C([H])([H])C2([H])N([H])C(=O)C1([H])N(C(=O)C([H])(N([H])C(=O)C([H])(N([H])C([H])([H])[H])C([H])([H])[H])C(C([H])([H])[H])(C([H])([H])[H])C([H])([H])[H])C([H])([H])c2c([H])c(OC([H])(C(=O)N([H])[H])C([H])([H])C([H])([H])C([H])([H])C([H])([H])C([H])(C([H])([H])C([H])([H])C(=O)N([H])[H])[N+]([H])([H])C([H])([H])C([H])([H])N([H])C(=O)N3C([H])([H])C([H])([H])C([H])([H])C([H])(n4nc(-c5c([H])c([H])c(Oc6c([H])c([H])c(F)c([H])c6F)c([H])c5[H])c(C(=O)N([H])[H])c4N([H])[H])C3([H])[H])c([H])c([H])c2C1([H])[H]

>  <smiles>  (22) 
[H]c1c([H])c([H])c2c(c1[H])C([H])([H])C([H])([H])C([H])([H])C2([H])N([H])C(=O)C1([H])N(C(=O)C([H])(N([H])C(=O)C([H])(N([H])C([H])([H])[H])C([H])([H])[H])C(C([H])([H])[H])(C([H])([H])[H])C([H])([H])[H])C([H])([H])c2c([H])c(OC([H])(C(=O)N([H])[H])C([H])([H])C([H])([H])C([H])([H])C([H])([H])C([H])(C([H])([H])C([H])([H])C(=O)N([H])[H])[N+]([H])([H])C([H])([H])C([H])([H])N([H])C(=O)N3C([H])([H])C([H])([H])C([H])([H])C([H])(n4nc(-c5c([H])c([H])c(Oc6c([H])c([H])c(F)c([H])c6F)c([H])c5[H])c(C(=O)N([H])[H])c4N([H])[H])C3([H])[H])c([H])c([H])c2C1([H])[H]

$$$$
22:0:0
     RDKit          3D

 99107  0  0  1  0  0  0  0  0999 V2000
  -27.2330  -20.6100   19.3550 C   0  0  0  0  0  2  0  0  0  0  0  0
  -27.5360  -22.0230   19.8650 C   0  0  0  0  0  2  0  0  0  0  0  0
  -28.3010  -19.6100   19.8190 C   0  0  0  0  0  2  0  0  0  0  0  0
  -30.0000  -21.4360   19.5900 C   0  0  0  0  0  2  0  0  0  0  0  0
  -28.8630  -22.5560   19.2790 C   0  0  0  0  0  3  0  0  0  0  0  0
  -29.6560  -19.9530   19.3080 N   0  0  1  0  0  4  0  0  0  0  0  0
  -29.5450  -19.9460   18.3050 H   0  0  0  0  0  0  0  0  0  0  0  0
  -29.0840  -24.1170   19.7190 C   0  0  0  0  0  3  0  0  0  0  0  0
  -30.4300  -24.6010   19.3700 N   0  0  0  0  0  4  0  0  0  0  0  0
  -30.5750  -24.5490   18.3770 H   0  0  0  0  0  0  0  0  0  0  0  0
  -31.1550  -24.0990   19.8470 H   0  0  0  0  0  0  0  0  0  0  0  0
  -30.4990  -25.5690   19.6310 H   0  0  0  0  0  0  0  0  0  0  0  0
  -28.1020  -25.2150   19.0680 C   0  0  0  0  0  0  0  0  0  0  0  0
  -27.4590  -24.9730   18.0440 O   0  0  0  0  0  0  0  0  0  0  0  0
  -28.0720  -26.5130   19.7110 O   0  0  0  0  0  0  0  0  0  0  0  0
  -24.5200  -31.7810   23.1290 C   0  0  0  0  0  0  0  0  0  0  0  0
  -26.9730  -27.4030   19.6760 C   0  0  0  0  0  0  0  0  0  0  0  0
  -23.2420  -30.5060   21.4460 C   0  0  0  0  0  3  0  0  0  0  0  0
  -24.6230  -29.0460   19.8630 C   0  0  0  0  0  0  0  0  0  0  0  0
  -25.7790  -30.8100   21.1910 C   0  0  0  0  0  2  0  0  0  0  0  0
  -25.8190  -29.4800   20.4460 C   0  0  0  0  0  0  0  0  0  0  0  0
  -26.9930  -28.6720   20.3430 C   0  0  0  0  0  3  0  0  0  0  0  0
  -25.7420  -27.0280   19.0820 C   0  0  0  0  0  3  0  0  0  0  0  0
  -24.5870  -27.8270   19.1720 C   0  0  0  0  0  3  0  0  0  0  0  0
  -23.3970  -29.9230   20.0170 C   0  0  0  0  0  2  0  0  0  0  0  0
  -24.5350  -31.0470   21.9780 N   0  0  0  0  0  0  0  0  0  0  0  0
  -23.4600  -32.0290   23.7200 O   0  0  0  0  0  0  0  0  0  0  0  0
  -22.6050  -29.4310   22.3600 C   0  0  0  0  0  0  0  0  0  0  0  0
  -21.2730  -29.2760   22.2730 N   0  0  0  0  0  0  0  0  0  0  0  0
  -23.3070  -28.7440   23.1070 O   0  0  0  0  0  0  0  0  0  0  0  0
  -20.7660  -29.8850   21.6460 H   0  0  0  0  0  0  0  0  0  0  0  0
  -17.9120  -28.0280   22.7670 C   0  0  0  0  0  0  0  0  0  0  0  0
  -20.4720  -28.2960   23.0110 C   0  0  0  0  0  3  0  0  0  0  0  0
  -20.5740  -26.8940   22.3690 C   0  0  0  0  0  2  0  0  0  0  0  0
  -19.4600  -26.6090   21.3570 C   0  0  0  0  0  2  0  0  0  0  0  0
  -18.0860  -26.7130   22.0270 C   0  0  0  0  0  2  0  0  0  0  0  0
  -19.0310  -28.7790   23.2160 C   0  0  0  0  0  0  0  0  0  0  0  0
  -18.8120  -30.0100   23.8690 C   0  0  0  0  0  3  0  0  0  0  0  0
  -17.5060  -30.4930   24.0780 C   0  0  0  0  0  3  0  0  0  0  0  0
  -16.4000  -29.7390   23.6440 C   0  0  0  0  0  3  0  0  0  0  0  0
  -16.6040  -28.5090   22.9960 C   0  0  0  0  0  3  0  0  0  0  0  0
  -25.8310  -32.3600   23.7440 C   0  0  0  0  0  3  0  0  0  0  0  0
  -25.5630  -33.7540   24.1260 N   0  0  0  0  0  0  0  0  0  0  0  0
  -25.9160  -34.8240   23.4020 C   0  0  0  0  0  0  0  0  0  0  0  0
  -26.5730  -34.7380   22.3600 O   0  0  0  0  0  0  0  0  0  0  0  0
  -24.9830  -33.8970   24.9390 H   0  0  0  0  0  0  0  0  0  0  0  0
  -24.2330  -36.6740   23.1310 C   0  0  0  0  0  1  0  0  0  0  0  0
  -25.4730  -36.2090   23.9120 C   0  0  0  0  0  3  0  0  0  0  0  0
  -27.6390  -37.0100   24.7480 C   0  0  0  0  0  1  0  0  0  0  0  0
  -26.5340  -37.2370   23.8210 N   0  0  0  0  0  0  0  0  0  0  0  0
  -26.1550  -38.1630   23.9970 H   0  0  0  0  0  0  0  0  0  0  0  0
  -26.3510  -31.5360   24.9850 C   0  0  1  0  0  0  0  0  0  0  0  0
  -25.2790  -31.3160   26.0800 C   0  0  0  0  0  1  0  0  0  0  0  0
  -26.8680  -30.1460   24.5450 C   0  0  0  0  0  1  0  0  0  0  0  0
  -27.5510  -32.2670   25.6320 C   0  0  0  0  0  1  0  0  0  0  0  0
  -30.6980  -18.8130   19.5290 C   0  0  0  0  0  3  0  0  0  0  0  0
  -30.6060  -17.9000   22.0130 C   0  0  0  0  0  1  0  0  0  0  0  0
  -32.8020  -18.0810   20.8180 C   0  0  0  0  0  1  0  0  0  0  0  0
  -31.7060  -20.1040   21.5900 C   0  0  0  0  0  1  0  0  0  0  0  0
  -31.3980  -18.7250   20.9620 C   0  0  1  0  0  0  0  0  0  0  0  0
  -30.2520  -17.3790   18.9020 C   0  0  0  0  0  2  0  0  0  0  0  0
  -31.1070  -14.9710   19.5350 C   0  0  0  0  0  0  0  0  0  0  0  0
  -30.9290  -12.5540   18.9790 C   0  0  0  0  0  2  0  0  0  0  0  0
  -29.9350  -12.3960   17.8070 C   0  0  0  0  0  2  0  0  0  0  0  0
  -28.4870  -12.2960   18.3240 C   0  0  0  0  0  2  0  0  0  0  0  0
  -28.1500  -13.3900   19.3700 C   0  0  0  0  0  3  0  0  0  0  0  0
  -29.2550  -13.5000   20.4460 C   0  0  0  0  0  2  0  0  0  0  0  0
  -30.5290  -13.7460   19.7560 N   0  0  0  0  0  0  0  0  0  0  0  0
  -32.2290  -15.0620   19.0300 O   0  0  0  0  0  0  0  0  0  0  0  0
  -30.3000  -16.0720   19.6780 N   0  0  0  0  0  0  0  0  0  0  0  0
  -29.4560  -15.8760   20.1960 H   0  0  0  0  0  0  0  0  0  0  0  0
  -25.8740  -14.1230   20.3070 C   0  0  0  0  0  0  0  0  0  0  0  0
  -24.7860  -13.4100   20.7390 C   0  0  0  0  0  0  0  0  0  0  0  0
  -25.1450  -12.0330   20.6200 C   0  0  0  0  0  0  0  0  0  0  0  0
  -26.8290  -13.1830   19.9570 N   0  0  0  0  0  0  0  0  0  0  0  0
  -26.3990  -11.9170   20.2030 N   0  0  0  0  0  0  0  0  0  0  0  0
  -24.3440  -10.8180   20.8250 C   0  0  0  0  0  0  0  0  0  0  0  0
  -24.7560   -9.8070   21.7210 C   0  0  0  0  0  3  0  0  0  0  0  0
  -23.9630   -8.6560   21.9150 C   0  0  0  0  0  3  0  0  0  0  0  0
  -22.7420   -8.5080   21.2150 C   0  0  0  0  0  0  0  0  0  0  0  0
  -22.3490   -9.5060   20.3060 C   0  0  0  0  0  3  0  0  0  0  0  0
  -23.1420  -10.6480   20.1090 C   0  0  0  0  0  3  0  0  0  0  0  0
  -21.9190   -7.4140   21.3240 O   0  0  0  0  0  0  0  0  0  0  0  0
  -21.8190   -6.6990   22.4910 C   0  0  0  0  0  0  0  0  0  0  0  0
  -21.4190   -7.3040   23.7020 C   0  0  0  0  0  3  0  0  0  0  0  0
  -21.2640   -6.5180   24.8620 C   0  0  0  0  0  3  0  0  0  0  0  0
  -21.4980   -5.1310   24.8110 C   0  0  0  0  0  0  0  0  0  0  0  0
  -21.8910   -4.5270   23.6030 C   0  0  0  0  0  3  0  0  0  0  0  0
  -22.0490   -5.3090   22.4460 C   0  0  0  0  0  0  0  0  0  0  0  0
  -22.4070   -4.7200   21.2810 F   0  0  0  0  0  0  0  0  0  0  0  0
  -21.3410   -4.3750   25.9220 F   0  0  0  0  0  0  0  0  0  0  0  0
  -23.4540  -13.9720   21.1440 C   0  0  0  0  0  0  0  0  0  0  0  0
  -22.7670  -13.3110   22.0700 N   0  0  0  0  0  0  0  0  0  0  0  0
  -23.0370  -15.0280   20.6730 O   0  0  0  0  0  0  0  0  0  0  0  0
  -23.1220  -12.4540   22.4720 H   0  0  0  0  0  0  0  0  0  0  0  0
  -21.8770  -13.6670   22.3840 H   0  0  0  0  0  0  0  0  0  0  0  0
  -26.1220  -15.4850   20.1620 N   0  0  0  0  0  0  0  0  0  0  0  0
  -25.4090  -16.1810   20.3490 H   0  0  0  0  0  0  0  0  0  0  0  0
  -26.9430  -15.8650   19.7100 H   0  0  0  0  0  0  0  0  0  0  0  0
  1  3  1  0
  1  2  1  0
  5  4  1  0
  5  8  1  0
  5  2  1  0
  6 56  1  0
  6  4  1  0
  6  3  1  0
  6  7  1  6
  8 13  1  0
  9 12  1  0
  9  8  1  0
  9 11  1  0
 10  9  1  0
 13 15  1  0
 14 13  2  0
 16 27  2  0
 17 15  1  0
 17 22  1  0
 18 26  1  0
 18 28  1  0
 19 25  1  0
 19 21  1  0
 20 26  1  0
 21 20  1  0
 22 21  2  0
 23 24  1  0
 23 17  2  0
 24 19  2  0
 25 18  1  0
 26 16  1  0
 28 30  2  0
 29 28  1  0
 31 29  1  0
 32 41  2  0
 32 37  1  0
 33 29  1  0
 33 37  1  0
 34 33  1  0
 35 36  1  0
 35 34  1  0
 36 32  1  0
 37 38  2  0
 38 39  1  0
 40 39  2  0
 41 40  1  0
 42 16  1  0
 42 43  1  0
 42 52  1  0
 43 46  1  0
 44 48  1  0
 44 43  1  0
 45 44  2  0
 48 47  1  0
 50 48  1  0
 50 51  1  0
 50 49  1  0
 52 55  1  1
 52 53  1  0
 54 52  1  0
 56 61  1  0
 56 60  1  0
 60 58  1  6
 60 59  1  0
 60 57  1  0
 61 70  1  0
 62 70  1  0
 62 68  1  0
 63 68  1  0
 64 65  1  0
 64 63  1  0
 66 65  1  0
 66 75  1  0
 66 67  1  0
 68 67  1  0
 69 62  2  0
 70 71  1  0
 72 73  2  0
 73 92  1  0
 74 73  1  0
 74 77  1  0
 75 76  1  0
 75 72  1  0
 76 74  2  0
 77 78  1  0
 78 79  2  0
 80 83  1  0
 80 79  1  0
 81 80  2  0
 82 81  1  0
 82 77  2  0
 83 84  1  0
 84 85  1  0
 85 86  2  0
 87 86  1  0
 87 91  1  0
 88 87  2  0
 89 84  2  0
 89 88  1  0
 90 89  1  0
 92 93  1  0
 93 96  1  0
 93 95  1  0
 94 92  2  0
 97 72  1  0
 97 98  1  0
 99 97  1  0
M  ISO  4  13 101  15 101  62 100  70 100
M  END
>  <TORSDO>  (23) 
F 22

>  <SCORE>  (23) 
-12.678

>  <name>  (23) 
22

>  <ligand_id>  (23) 
22

>  <original_smiles>  (23) 
[H]c1c([H])c([H])c2c(c1[H])C([H])([H])C([H])([H])C([H])([H])C2([H])N([H])C(=O)C1([H])N(C(=O)C([H])(N([H])C(=O)C([H])(N([H])C([H])([H])[H])C([H])([H])[H])C(C([H])([H])[H])(C([H])([H])[H])C([H])([H])[H])C([H])([H])c2c([H])c(OC(=O)C([H])(C3([H])C([H])([H])C([H])([H])C([H])([H])[N+]([H])(C([H])(C([H])([H])N([H])C(=O)N4C([H])([H])C([H])([H])C([H])([H])C([H])(n5nc(-c6c([H])c([H])c(Oc7c([H])c([H])c(F)c([H])c7F)c([H])c6[H])c(C(=O)N([H])[H])c5N([H])[H])C4([H])[H])C(C([H])([H])[H])(C([H])([H])[H])C([H])([H])[H])C3([H])[H])[N+]([H])([H])[H])c([H])c([H])c2C1([H])[H]

>  <smiles>  (23) 
[H]c1c([H])c([H])c2c(c1[H])C([H])([H])C([H])([H])C([H])([H])C2([H])N([H])C(=O)C1([H])N(C(=O)C([H])(N([H])C(=O)C([H])(N([H])C([H])([H])[H])C([H])([H])[H])C(C([H])([H])[H])(C([H])([H])[H])C([H])([H])[H])C([H])([H])c2c([H])c(OC(=O)C([H])(C3([H])C([H])([H])C([H])([H])C([H])([H])[N+]([H])(C([H])(C([H])([H])N([H])C(=O)N4C([H])([H])C([H])([H])C([H])([H])C([H])(n5nc(-c6c([H])c([H])c(Oc7c([H])c([H])c(F)c([H])c7F)c([H])c6[H])c(C(=O)N([H])[H])c5N([H])[H])C4([H])[H])C(C([H])([H])[H])(C([H])([H])[H])C([H])([H])[H])C3([H])[H])[N+]([H])([H])[H])c([H])c([H])c2C1([H])[H]

$$$$
23:0:0
     RDKit          3D

 93100  0  0  1  0  0  0  0  0999 V2000
  -29.8050  -19.2200   20.5360 C   0  0  0  0  0  0  0  0  0  0  0  0
  -29.0950  -20.4160   20.1850 N   0  0  0  0  0  4  0  0  0  0  0  0
  -30.7370  -19.3190   21.3340 O   0  0  0  0  0  0  0  0  0  0  0  0
  -28.2780  -20.2410   19.6170 H   0  0  0  0  0  0  0  0  0  0  0  0
  -30.4260  -22.2710   19.0750 C   0  0  0  0  0  1  0  0  0  0  0  0
  -29.4720  -21.9720   20.2440 C   0  0  0  0  0  0  0  0  0  0  0  0
  -28.4410  -23.3140   20.5500 C   0  0  0  0  0  0  0  0  0  0  0  0
  -27.6330  -23.2070   21.4770 O   0  0  0  0  0  0  0  0  0  0  0  0
  -28.3980  -24.7770   19.7280 C   0  0  0  0  0  2  0  0  0  0  0  0
  -28.2830  -26.2050   20.3780 O   0  0  0  0  0  0  0  0  0  0  0  0
  -24.6250  -31.9350   23.2270 C   0  0  0  0  0  0  0  0  0  0  0  0
  -27.2170  -27.1770   20.2390 C   0  0  0  0  0  0  0  0  0  0  0  0
  -23.4240  -30.5090   21.6140 C   0  0  0  0  0  3  0  0  0  0  0  0
  -24.8740  -28.9200   20.1950 C   0  0  0  0  0  0  0  0  0  0  0  0
  -25.9760  -30.7810   21.4330 C   0  0  0  0  0  2  0  0  0  0  0  0
  -26.0530  -29.3790   20.7970 C   0  0  0  0  0  0  0  0  0  0  0  0
  -27.2170  -28.5200   20.8060 C   0  0  0  0  0  3  0  0  0  0  0  0
  -26.0120  -26.8250   19.5920 C   0  0  0  0  0  3  0  0  0  0  0  0
  -24.8690  -27.6580   19.5780 C   0  0  0  0  0  3  0  0  0  0  0  0
  -23.6410  -29.8120   20.2420 C   0  0  0  0  0  2  0  0  0  0  0  0
  -24.6950  -31.0990   22.1460 N   0  0  0  0  0  0  0  0  0  0  0  0
  -23.5410  -32.2200   23.7580 O   0  0  0  0  0  0  0  0  0  0  0  0
  -22.7570  -29.5130   22.5960 C   0  0  0  0  0  0  0  0  0  0  0  0
  -21.4330  -29.3130   22.4630 N   0  0  0  0  0  0  0  0  0  0  0  0
  -23.4330  -28.9220   23.4410 O   0  0  0  0  0  0  0  0  0  0  0  0
  -20.9430  -29.8420   21.7550 H   0  0  0  0  0  0  0  0  0  0  0  0
  -18.0760  -28.0450   22.9580 C   0  0  0  0  0  0  0  0  0  0  0  0
  -20.6240  -28.3780   23.2500 C   0  0  0  0  0  3  0  0  0  0  0  0
  -20.7680  -26.9330   22.7180 C   0  0  0  0  0  2  0  0  0  0  0  0
  -19.6880  -26.5550   21.6990 C   0  0  0  0  0  2  0  0  0  0  0  0
  -18.2940  -26.6820   22.3200 C   0  0  0  0  0  2  0  0  0  0  0  0
  -19.1680  -28.8470   23.3790 C   0  0  0  0  0  0  0  0  0  0  0  0
  -18.9090  -30.1180   23.9360 C   0  0  0  0  0  3  0  0  0  0  0  0
  -17.5900  -30.5880   24.0750 C   0  0  0  0  0  3  0  0  0  0  0  0
  -16.5110  -29.7840   23.6680 C   0  0  0  0  0  3  0  0  0  0  0  0
  -16.7540  -28.5140   23.1160 C   0  0  0  0  0  3  0  0  0  0  0  0
  -25.9020  -32.5880   23.8380 C   0  0  0  0  0  3  0  0  0  0  0  0
  -25.5790  -33.9860   24.1660 N   0  0  0  0  0  0  0  0  0  0  0  0
  -25.9040  -35.0450   23.4110 C   0  0  0  0  0  0  0  0  0  0  0  0
  -26.5730  -34.9460   22.3790 O   0  0  0  0  0  0  0  0  0  0  0  0
  -24.9830  -34.1360   24.9660 H   0  0  0  0  0  0  0  0  0  0  0  0
  -24.1750  -36.8400   23.0530 C   0  0  0  0  0  1  0  0  0  0  0  0
  -25.4110  -36.4310   23.8720 C   0  0  0  0  0  3  0  0  0  0  0  0
  -27.5340  -37.3210   24.7280 C   0  0  0  0  0  1  0  0  0  0  0  0
  -26.4420  -37.4870   23.7730 N   0  0  0  0  0  0  0  0  0  0  0  0
  -26.0320  -38.4060   23.9160 H   0  0  0  0  0  0  0  0  0  0  0  0
  -26.4310  -31.8340   25.1210 C   0  0  1  0  0  0  0  0  0  0  0  0
  -25.3450  -31.5920   26.1940 C   0  0  0  0  0  1  0  0  0  0  0  0
  -27.0310  -30.4600   24.7430 C   0  0  0  0  0  1  0  0  0  0  0  0
  -27.5750  -32.6480   25.7720 C   0  0  0  0  0  1  0  0  0  0  0  0
  -29.5820  -17.6940   19.8800 C   0  0  0  0  0  0  0  0  0  0  0  0
  -30.5690  -15.0820   20.3200 C   0  0  0  0  0  0  0  0  0  0  0  0
  -30.4940  -12.7220   19.3820 C   0  0  0  0  0  2  0  0  0  0  0  0
  -29.5690  -12.6940   18.1410 C   0  0  0  0  0  2  0  0  0  0  0  0
  -28.1040  -12.4690   18.5590 C   0  0  0  0  0  2  0  0  0  0  0  0
  -27.6870  -13.3710   19.7500 C   0  0  0  0  0  3  0  0  0  0  0  0
  -28.7360  -13.3670   20.8850 C   0  0  0  0  0  2  0  0  0  0  0  0
  -30.0110  -13.8000   20.2990 N   0  0  0  0  0  0  0  0  0  0  0  0
  -31.7500  -15.1770   19.9650 O   0  0  0  0  0  0  0  0  0  0  0  0
  -29.7420  -16.2310   20.5130 N   0  0  0  0  0  4  0  0  0  0  0  0
  -28.8850  -15.9620   20.9750 H   0  0  0  0  0  0  0  0  0  0  0  0
  -25.2930  -13.9270   20.4570 C   0  0  0  0  0  0  0  0  0  0  0  0
  -24.2330  -13.1440   20.8230 C   0  0  0  0  0  0  0  0  0  0  0  0
  -24.7110  -11.7980   20.8050 C   0  0  0  0  0  0  0  0  0  0  0  0
  -26.3470  -13.0590   20.2330 N   0  0  0  0  0  0  0  0  0  0  0  0
  -26.0060  -11.7720   20.5080 N   0  0  0  0  0  0  0  0  0  0  0  0
  -23.9950  -10.5290   20.9950 C   0  0  0  0  0  0  0  0  0  0  0  0
  -24.4170   -9.5770   21.9480 C   0  0  0  0  0  3  0  0  0  0  0  0
  -23.6990   -8.3740   22.1270 C   0  0  0  0  0  3  0  0  0  0  0  0
  -22.5430   -8.1160   21.3520 C   0  0  0  0  0  0  0  0  0  0  0  0
  -22.1390   -9.0580   20.3900 C   0  0  0  0  0  3  0  0  0  0  0  0
  -22.8590  -10.2510   20.2090 C   0  0  0  0  0  3  0  0  0  0  0  0
  -21.7970   -6.9660   21.4390 O   0  0  0  0  0  0  0  0  0  0  0  0
  -21.7230   -6.2430   22.6030 C   0  0  0  0  0  0  0  0  0  0  0  0
  -21.2440   -6.8100   23.8030 C   0  0  0  0  0  3  0  0  0  0  0  0
  -21.1180   -6.0120   24.9580 C   0  0  0  0  0  3  0  0  0  0  0  0
  -21.4600   -4.6480   24.9130 C   0  0  0  0  0  0  0  0  0  0  0  0
  -21.9320   -4.0800   23.7160 C   0  0  0  0  0  3  0  0  0  0  0  0
  -22.0590   -4.8750   22.5640 C   0  0  0  0  0  0  0  0  0  0  0  0
  -22.4950   -4.3170   21.4090 F   0  0  0  0  0  0  0  0  0  0  0  0
  -21.3330   -3.8790   26.0190 F   0  0  0  0  0  0  0  0  0  0  0  0
  -22.8280  -13.6090   21.0750 C   0  0  0  0  0  0  0  0  0  0  0  0
  -22.0950  -12.9080   21.9320 N   0  0  0  0  0  0  0  0  0  0  0  0
  -22.3900  -14.6320   20.5480 O   0  0  0  0  0  0  0  0  0  0  0  0
  -22.4630  -12.0830   22.3810 H   0  0  0  0  0  0  0  0  0  0  0  0
  -21.1520  -13.2020   22.1440 H   0  0  0  0  0  0  0  0  0  0  0  0
  -25.4430  -15.2980   20.2710 N   0  0  0  0  0  0  0  0  0  0  0  0
  -24.6610  -15.9380   20.3590 H   0  0  0  0  0  0  0  0  0  0  0  0
  -26.2710  -15.7380   19.8930 H   0  0  0  0  0  0  0  0  0  0  0  0
  -30.0880  -17.6060   18.4110 C   0  0  0  0  0  2  0  0  0  0  0  0
  -28.2450  -18.8700   17.1510 C   0  0  0  0  0  1  0  0  0  0  0  0
  -30.5200  -18.5730   16.1130 C   0  0  0  0  0  1  0  0  0  0  0  0
  -29.7530  -18.7570   17.4320 C   0  0  0  0  0  3  0  0  0  0  0  0
  1  3  2  0
  2  6  2  3
  2  1  1  0
  4  2  1  0
  5  6  1  0
  6  7  1  0
  7  8  2  0
  9 10  1  0
  9  7  1  0
 11 22  2  0
 12 10  1  0
 12 17  1  0
 13 21  1  0
 13 23  1  0
 14 20  1  0
 14 16  1  0
 15 21  1  0
 16 17  2  0
 16 15  1  0
 18 12  2  0
 19 18  1  0
 19 14  2  0
 20 13  1  0
 21 11  1  0
 23 25  2  0
 24 23  1  0
 26 24  1  0
 27 36  2  0
 27 32  1  0
 28 24  1  0
 28 32  1  0
 29 28  1  0
 30 31  1  0
 30 29  1  0
 31 27  1  0
 32 33  2  0
 33 34  1  0
 35 34  2  0
 36 35  1  0
 37 11  1  0
 37 38  1  0
 37 47  1  0
 38 41  1  0
 39 43  1  0
 39 38  1  0
 40 39  2  0
 43 42  1  0
 45 43  1  0
 45 46  1  0
 45 44  1  0
 47 50  1  1
 47 48  1  0
 49 47  1  0
 51 60  2  0
 51  1  1  0
 52 60  1  0
 53 58  1  0
 54 55  1  0
 54 53  1  0
 56 55  1  0
 56 65  1  0
 56 57  1  0
 58 52  1  0
 58 57  1  0
 59 52  2  0
 60 61  1  0
 62 63  2  0
 63 82  1  0
 64 63  1  0
 64 67  1  0
 65 62  1  0
 65 66  1  0
 66 64  2  0
 67 68  1  0
 68 69  2  0
 70 73  1  0
 70 69  1  0
 71 70  2  0
 72 71  1  0
 72 67  2  0
 73 74  1  0
 74 75  1  0
 75 76  2  0
 77 76  1  0
 77 81  1  0
 78 77  2  0
 79 74  2  0
 79 78  1  0
 80 79  1  0
 82 83  1  0
 83 86  1  0
 83 85  1  0
 84 82  2  0
 87 88  1  0
 87 62  1  0
 89 87  1  0
 90 51  1  0
 91 93  1  0
 92 93  1  0
 93 90  1  0
M  ISO  4   9 101  10 101  52 100  60 100
M  END
>  <TORSDO>  (24) 
F 22

>  <SCORE>  (24) 
-13.710

>  <name>  (24) 
23

>  <ligand_id>  (24) 
23

>  <original_smiles>  (24) 
[H]c1c([H])c([H])c2c(c1[H])C([H])([H])C([H])([H])C([H])([H])C2([H])N([H])C(=O)C1([H])N(C(=O)C([H])(N([H])C(=O)C([H])(N([H])C([H])([H])[H])C([H])([H])[H])C(C([H])([H])[H])(C([H])([H])[H])C([H])([H])[H])C([H])([H])c2c([H])c(OC([H])([H])C(=O)C([H])(N([H])C(=O)C([H])(N([H])C(=O)N3C([H])([H])C([H])([H])C([H])([H])C([H])(n4nc(-c5c([H])c([H])c(Oc6c([H])c([H])c(F)c([H])c6F)c([H])c5[H])c(C(=O)N([H])[H])c4N([H])[H])C3([H])[H])C([H])([H])C([H])(C([H])([H])[H])C([H])([H])[H])C([H])([H])[H])c([H])c([H])c2C1([H])[H]

>  <smiles>  (24) 
[H]c1c([H])c([H])c2c(c1[H])C([H])([H])C([H])([H])C([H])([H])C2([H])N([H])C(=O)C1([H])N(C(=O)C([H])(N([H])C(=O)C([H])(N([H])C([H])([H])[H])C([H])([H])[H])C(C([H])([H])[H])(C([H])([H])[H])C([H])([H])[H])C([H])([H])c2c([H])c(OC([H])([H])C(=O)C([H])(N([H])C(=O)C([H])(N([H])C(=O)N3C([H])([H])C([H])([H])C([H])([H])C([H])(n4nc(-c5c([H])c([H])c(Oc6c([H])c([H])c(F)c([H])c6F)c([H])c5[H])c(C(=O)N([H])[H])c4N([H])[H])C3([H])[H])C([H])([H])C([H])(C([H])([H])[H])C([H])([H])[H])C([H])([H])[H])c([H])c([H])c2C1([H])[H]

$$$$
24:0:0
     RDKit          3D

103105  0  0  1  0  0  0  0  0999 V2000
  -27.3120  -23.4870   19.7890 C   0  0  0  0  0  0  0  0  0  0  0  0
  -26.0530  -22.9880   19.8030 N   0  0  0  0  0  0  0  0  0  0  0  0
  -28.3110  -22.8310   19.4940 O   0  0  0  0  0  0  0  0  0  0  0  0
  -25.3530  -23.6540   20.1100 H   0  0  0  0  0  0  0  0  0  0  0  0
  -29.7390  -27.8920   20.1420 C   0  0  0  0  0 15  0  0  0  0  0  0
  -28.6580  -26.4170   18.6850 C   0  0  0  0  0 15  0  0  0  0  0  0
  -29.1090  -27.1430   22.2920 C   0  0  0  0  0 15  0  0  0  0  0  0
  -27.4240  -24.9930   20.1620 C   0  0  0  0  0  1  0  0  0  0  0  0
  -27.9000  -25.5440   22.0390 N   0  0  0  0  0  2  0  0  0  0  0  0
  -28.6150  -25.6550   21.3320 H   0  0  0  0  0  0  0  0  0  0  0  0
  -28.6940  -24.4710   22.5340 C   0  0  0  0  0  2  0  0  0  0  0  0
  -29.7410  -24.7780   21.4730 C   0  0  0  0  0  2  0  0  0  0  0  0
  -29.1770  -25.8180   20.5010 O   0  0  0  0  0  1  0  0  0  0  0  0
  -24.6790  -31.7330   23.2420 C   0  0  0  0  0  0  0  0  0  0  0  0
  -27.4360  -27.1290   20.3610 C   0  0  0  0  0  3  0  0  0  0  0  0
  -23.4800  -30.3150   21.6250 C   0  0  0  0  0  3  0  0  0  0  0  0
  -24.9070  -28.7740   20.2620 C   0  0  0  0  0  0  0  0  0  0  0  0
  -26.0110  -30.6500   21.4460 C   0  0  0  0  0  2  0  0  0  0  0  0
  -26.0670  -29.2820   20.8160 C   0  0  0  0  0  0  0  0  0  0  0  0
  -27.2520  -28.5380   20.7660 C   0  0  0  0  0  3  0  0  0  0  0  0
  -26.1610  -26.8710   19.6400 C   0  0  0  0  0  3  0  0  0  0  0  0
  -24.9550  -27.5510   19.6390 C   0  0  0  0  0  3  0  0  0  0  0  0
  -23.6820  -29.6310   20.2610 C   0  0  0  0  0  2  0  0  0  0  0  0
  -24.7460  -30.9050   22.1660 N   0  0  0  0  0  0  0  0  0  0  0  0
  -23.5910  -32.0260   23.7560 O   0  0  0  0  0  0  0  0  0  0  0  0
  -22.8260  -29.2980   22.5820 C   0  0  0  0  0  0  0  0  0  0  0  0
  -21.5090  -29.0970   22.4140 N   0  0  0  0  0  0  0  0  0  0  0  0
  -23.4970  -28.6920   23.4230 O   0  0  0  0  0  0  0  0  0  0  0  0
  -21.0430  -29.6400   21.7050 H   0  0  0  0  0  0  0  0  0  0  0  0
  -18.1220  -27.9410   22.8330 C   0  0  0  0  0  0  0  0  0  0  0  0
  -20.6710  -28.1790   23.1770 C   0  0  0  0  0  3  0  0  0  0  0  0
  -20.7830  -26.7360   22.6350 C   0  0  0  0  0  2  0  0  0  0  0  0
  -19.7080  -26.4010   21.5970 C   0  0  0  0  0  2  0  0  0  0  0  0
  -18.3090  -26.5730   22.2010 C   0  0  0  0  0  2  0  0  0  0  0  0
  -19.2330  -28.7000   23.2800 C   0  0  0  0  0  0  0  0  0  0  0  0
  -19.0110  -29.9830   23.8270 C   0  0  0  0  0  3  0  0  0  0  0  0
  -17.7090  -30.5040   23.9340 C   0  0  0  0  0  3  0  0  0  0  0  0
  -16.6100  -29.7380   23.5070 C   0  0  0  0  0  3  0  0  0  0  0  0
  -16.8180  -28.4610   22.9590 C   0  0  0  0  0  3  0  0  0  0  0  0
  -25.9590  -32.3690   23.8630 C   0  0  0  0  0  3  0  0  0  0  0  0
  -26.4640  -31.6150   25.1520 C   0  0  1  0  0  0  0  0  0  0  0  0
  -25.3500  -31.3420   26.1890 C   0  0  0  0  0  1  0  0  0  0  0  0
  -27.0860  -30.2510   24.7760 C   0  0  0  0  0  1  0  0  0  0  0  0
  -27.5940  -32.4270   25.8240 C   0  0  0  0  0  1  0  0  0  0  0  0
  -25.6390  -33.7680   24.1690 N   0  0  0  0  0  0  0  0  0  0  0  0
  -25.9660  -34.8110   23.3950 C   0  0  0  0  0  0  0  0  0  0  0  0
  -26.6500  -34.6950   22.3750 O   0  0  0  0  0  0  0  0  0  0  0  0
  -25.0290  -33.9290   24.9590 H   0  0  0  0  0  0  0  0  0  0  0  0
  -24.2290  -36.5800   22.9880 C   0  0  0  0  0  1  0  0  0  0  0  0
  -25.4620  -36.2030   23.8230 C   0  0  0  0  0  3  0  0  0  0  0  0
  -27.5780  -37.1200   24.6640 C   0  0  0  0  0  1  0  0  0  0  0  0
  -26.4910  -37.2600   23.6990 N   0  0  0  0  0  0  0  0  0  0  0  0
  -26.0790  -38.1820   23.8200 H   0  0  0  0  0  0  0  0  0  0  0  0
  -25.4670  -21.6900   19.4630 C   0  0  0  0  0  2  0  0  0  0  0  0
  -26.2710  -20.7870   18.5320 C   0  0  0  0  0  0  0  0  0  0  0  0
  -26.5570  -19.5860   19.0250 N   0  0  0  0  0  0  0  0  0  0  0  0
  -26.5990  -21.1560   17.4020 O   0  0  0  0  0  0  0  0  0  0  0  0
  -26.2550  -19.4030   19.9740 H   0  0  0  0  0  0  0  0  0  0  0  0
  -27.5530  -18.6650   18.5020 C   0  0  0  0  0  2  0  0  0  0  0  0
  -28.8150  -18.7420   19.3700 C   0  0  0  0  0  0  0  0  0  0  0  0
  -29.8370  -17.9530   19.0320 N   0  0  0  0  0  0  0  0  0  0  0  0
  -28.8650  -19.4980   20.3460 O   0  0  0  0  0  0  0  0  0  0  0  0
  -29.7410  -17.3780   18.2060 H   0  0  0  0  0  0  0  0  0  0  0  0
  -31.1090  -17.9070   19.7470 C   0  0  0  0  0  2  0  0  0  0  0  0
  -30.9970  -17.1370   21.0810 C   0  0  0  0  0  2  0  0  0  0  0  0
  -31.0290  -14.8040   20.2270 C   0  0  0  0  0  0  0  0  0  0  0  0
  -30.7440  -12.5580   19.2620 C   0  0  0  0  0  2  0  0  0  0  0  0
  -29.8010  -12.6090   18.0470 C   0  0  0  0  0  2  0  0  0  0  0  0
  -28.3300  -12.4810   18.4900 C   0  0  0  0  0  2  0  0  0  0  0  0
  -27.9680  -13.4420   19.6540 C   0  0  0  0  0  3  0  0  0  0  0  0
  -29.0230  -13.3700   20.7800 C   0  0  0  0  0  2  0  0  0  0  0  0
  -30.3500  -13.6280   20.1880 N   0  0  0  0  0  0  0  0  0  0  0  0
  -32.0960  -14.9910   19.6370 O   0  0  0  0  0  0  0  0  0  0  0  0
  -30.4470  -15.7890   20.9190 N   0  0  0  0  0  0  0  0  0  0  0  0
  -29.5610  -15.5890   21.3590 H   0  0  0  0  0  0  0  0  0  0  0  0
  -25.5990  -14.0790   20.4400 C   0  0  0  0  0  0  0  0  0  0  0  0
  -24.5220  -13.3230   20.8130 C   0  0  0  0  0  0  0  0  0  0  0  0
  -24.9510  -11.9640   20.7290 C   0  0  0  0  0  0  0  0  0  0  0  0
  -26.6200  -13.1850   20.1590 N   0  0  0  0  0  0  0  0  0  0  0  0
  -26.2310  -11.9040   20.3850 N   0  0  0  0  0  0  0  0  0  0  0  0
  -24.1990  -10.7150   20.8980 C   0  0  0  0  0  0  0  0  0  0  0  0
  -24.6110   -9.7230   21.8150 C   0  0  0  0  0  3  0  0  0  0  0  0
  -23.8610   -8.5380   21.9740 C   0  0  0  0  0  3  0  0  0  0  0  0
  -22.6830   -8.3380   21.2140 C   0  0  0  0  0  0  0  0  0  0  0  0
  -22.2890   -9.3180   20.2870 C   0  0  0  0  0  3  0  0  0  0  0  0
  -23.0410  -10.4950   20.1260 C   0  0  0  0  0  3  0  0  0  0  0  0
  -21.9040   -7.2070   21.2840 O   0  0  0  0  0  0  0  0  0  0  0  0
  -21.7970   -6.4780   22.4410 C   0  0  0  0  0  0  0  0  0  0  0  0
  -21.3350   -7.0540   23.6450 C   0  0  0  0  0  3  0  0  0  0  0  0
  -21.1740   -6.2510   24.7920 C   0  0  0  0  0  3  0  0  0  0  0  0
  -21.4650   -4.8760   24.7350 C   0  0  0  0  0  0  0  0  0  0  0  0
  -21.9210   -4.3000   23.5360 C   0  0  0  0  0  3  0  0  0  0  0  0
  -22.0840   -5.0990   22.3910 C   0  0  0  0  0  0  0  0  0  0  0  0
  -22.5030   -4.5350   21.2330 F   0  0  0  0  0  0  0  0  0  0  0  0
  -21.3030   -4.1030   25.8350 F   0  0  0  0  0  0  0  0  0  0  0  0
  -23.1450  -13.8270   21.1360 C   0  0  0  0  0  0  0  0  0  0  0  0
  -22.4300  -13.1340   22.0160 N   0  0  0  0  0  0  0  0  0  0  0  0
  -22.7120  -14.8680   20.6440 O   0  0  0  0  0  0  0  0  0  0  0  0
  -22.7930  -12.2920   22.4360 H   0  0  0  0  0  0  0  0  0  0  0  0
  -21.5090  -13.4540   22.2760 H   0  0  0  0  0  0  0  0  0  0  0  0
  -25.7900  -15.4480   20.3000 N   0  0  0  0  0  0  0  0  0  0  0  0
  -25.0360  -16.1150   20.4300 H   0  0  0  0  0  0  0  0  0  0  0  0
  -26.6360  -15.8590   19.9360 H   0  0  0  0  0  0  0  0  0  0  0  0
  1  2  1  0
  1  8  1  0
  2  4  1  0
  3  1  2  0
  9 11  1  0
 10  9  1  0
 12 11  1  0
 13 12  1  0
 14 25  2  0
 15 20  1  0
 16 24  1  0
 16 26  1  0
 17 19  1  0
 18 24  1  0
 19 18  1  0
 20 19  2  0
 21 15  2  0
 22 21  1  0
 22 17  2  0
 23 17  1  0
 23 16  1  0
 24 14  1  0
 26 28  2  0
 27 26  1  0
 29 27  1  0
 30 39  2  0
 30 35  1  0
 31 27  1  0
 31 35  1  0
 32 31  1  0
 33 34  1  0
 33 32  1  0
 34 30  1  0
 35 36  2  0
 36 37  1  0
 38 37  2  0
 39 38  1  0
 40 14  1  0
 40 45  1  0
 40 41  1  0
 41 44  1  1
 41 42  1  0
 43 41  1  0
 45 48  1  0
 46 50  1  0
 46 45  1  0
 47 46  2  0
 50 49  1  0
 52 53  1  0
 52 50  1  0
 52 51  1  0
 54  2  1  0
 55 56  1  0
 55 54  1  0
 56 58  1  0
 57 55  2  0
 59 56  1  0
 59 60  1  0
 60 62  2  0
 61 60  1  0
 61 64  1  0
 63 61  1  0
 64 65  1  0
 66 74  1  0
 67 72  1  0
 68 69  1  0
 68 67  1  0
 70 69  1  0
 70 79  1  0
 70 71  1  0
 72 66  1  0
 72 71  1  0
 73 66  2  0
 74 65  1  0
 74 75  1  0
 76 77  2  0
 77 96  1  0
 78 77  1  0
 78 81  1  0
 79 80  1  0
 79 76  1  0
 80 78  2  0
 81 82  1  0
 82 83  2  0
 84 87  1  0
 84 83  1  0
 85 84  2  0
 86 85  1  0
 86 81  2  0
 87 88  1  0
 88 89  1  0
 89 90  2  0
 91 90  1  0
 91 95  1  0
 92 91  2  0
 93 88  2  0
 93 92  1  0
 94 93  1  0
 96 97  1  0
 97100  1  0
 97 99  1  0
 98 96  2  0
101102  1  0
101 76  1  0
103101  1  0
M  ISO  4  12 101  13 101  66 100  74 100
M  END
>  <TORSDO>  (25) 
F 25

>  <SCORE>  (25) 
-12.869

>  <name>  (25) 
24

>  <ligand_id>  (25) 
24

>  <original_smiles>  (25) 
[H]c1c([H])c([H])c2c(c1[H])C([H])([H])C([H])([H])C([H])([H])C2([H])N([H])C(=O)C1([H])N(C(=O)C([H])(N([H])C(=O)C([H])(N([H])C([H])([H])[H])C([H])([H])[H])C(C([H])([H])[H])(C([H])([H])[H])C([H])([H])[H])C([H])([H])c2c([H])c(OC([H])([H])C([H])([H])[N+]3([H])C([H])([H])C([H])([H])C([H])([H])C3([H])C(=O)N([H])C([H])([H])C(=O)N([H])C([H])([H])C(=O)N([H])C([H])([H])C([H])([H])N([H])C(=O)N3C([H])([H])C([H])([H])C([H])([H])C([H])(n4nc(-c5c([H])c([H])c(Oc6c([H])c([H])c(F)c([H])c6F)c([H])c5[H])c(C(=O)N([H])[H])c4N([H])[H])C3([H])[H])c([H])c([H])c2C1([H])[H]

>  <smiles>  (25) 
[H]c1c([H])c([H])c2c(c1[H])C([H])([H])C([H])([H])C([H])([H])C2([H])N([H])C(=O)C1([H])N(C(=O)C([H])(N([H])C(=O)C([H])(N([H])C([H])([H])[H])C([H])([H])[H])C(C([H])([H])[H])(C([H])([H])[H])C([H])([H])[H])C([H])([H])c2c([H])c(OC([H])([H])C([H])([H])[N+]3([H])C([H])([H])C([H])([H])C([H])([H])C3([H])C(=O)N([H])C([H])([H])C(=O)N([H])C([H])([H])C(=O)N([H])C([H])([H])C([H])([H])N([H])C(=O)N3C([H])([H])C([H])([H])C([H])([H])C([H])(n4nc(-c5c([H])c([H])c(Oc6c([H])c([H])c(F)c([H])c6F)c([H])c5[H])c(C(=O)N([H])[H])c4N([H])[H])C3([H])[H])c([H])c([H])c2C1([H])[H]

$$$$
25:0:0
     RDKit          3D

 89 96  0  0  1  0  0  0  0  0999 V2000
  -29.1500  -21.4320   20.0500 C   0  0  0  0  0  3  0  0  0  0  0  0
  -28.7100  -23.0140   20.6380 C   0  0  0  0  0  0  0  0  0  0  0  0
  -28.7660  -23.1350   21.8660 O   0  0  0  0  0  0  0  0  0  0  0  0
  -28.1930  -24.4380   19.7730 C   0  0  0  0  0  2  0  0  0  0  0  0
  -28.2670  -26.0180   20.2110 O   0  0  0  0  0  0  0  0  0  0  0  0
  -24.6030  -31.9060   23.1110 C   0  0  0  0  0  0  0  0  0  0  0  0
  -27.2340  -27.0840   20.0930 C   0  0  0  0  0  0  0  0  0  0  0  0
  -23.4260  -30.4850   21.4820 C   0  0  0  0  0  3  0  0  0  0  0  0
  -24.8950  -28.9050   20.0540 C   0  0  0  0  0  0  0  0  0  0  0  0
  -25.9860  -30.7430   21.3240 C   0  0  0  0  0  2  0  0  0  0  0  0
  -26.0760  -29.3370   20.6730 C   0  0  0  0  0  0  0  0  0  0  0  0
  -27.2350  -28.4420   20.6750 C   0  0  0  0  0  3  0  0  0  0  0  0
  -26.0250  -26.8020   19.4160 C   0  0  0  0  0  3  0  0  0  0  0  0
  -24.8950  -27.6600   19.4060 C   0  0  0  0  0  3  0  0  0  0  0  0
  -23.6600  -29.8040   20.1060 C   0  0  0  0  0  2  0  0  0  0  0  0
  -24.6930  -31.0730   22.0260 N   0  0  0  0  0  0  0  0  0  0  0  0
  -23.5120  -32.1800   23.6360 O   0  0  0  0  0  0  0  0  0  0  0  0
  -22.7530  -29.4800   22.4530 C   0  0  0  0  0  0  0  0  0  0  0  0
  -21.4230  -29.3080   22.3470 N   0  0  0  0  0  0  0  0  0  0  0  0
  -23.4350  -28.8590   23.2710 O   0  0  0  0  0  0  0  0  0  0  0  0
  -20.9250  -29.8620   21.6630 H   0  0  0  0  0  0  0  0  0  0  0  0
  -18.0530  -28.0900   22.9130 C   0  0  0  0  0  0  0  0  0  0  0  0
  -20.6170  -28.3620   23.1260 C   0  0  0  0  0  3  0  0  0  0  0  0
  -20.7110  -26.9340   22.5390 C   0  0  0  0  0  2  0  0  0  0  0  0
  -19.5890  -26.6160   21.5450 C   0  0  0  0  0  2  0  0  0  0  0  0
  -18.2200  -26.7490   22.2190 C   0  0  0  0  0  2  0  0  0  0  0  0
  -19.1770  -28.8540   23.3250 C   0  0  0  0  0  0  0  0  0  0  0  0
  -18.9640  -30.1070   23.9390 C   0  0  0  0  0  3  0  0  0  0  0  0
  -17.6590  -30.5970   24.1420 C   0  0  0  0  0  3  0  0  0  0  0  0
  -16.5510  -29.8310   23.7440 C   0  0  0  0  0  3  0  0  0  0  0  0
  -16.7490  -28.5780   23.1340 C   0  0  0  0  0  3  0  0  0  0  0  0
  -25.8670  -32.5720   23.7370 C   0  0  0  0  0  3  0  0  0  0  0  0
  -25.5210  -33.9600   24.0910 N   0  0  0  0  0  0  0  0  0  0  0  0
  -25.8580  -35.0430   23.3770 C   0  0  0  0  0  0  0  0  0  0  0  0
  -26.5590  -34.9790   22.3630 O   0  0  0  0  0  0  0  0  0  0  0  0
  -24.8990  -34.0800   24.8780 H   0  0  0  0  0  0  0  0  0  0  0  0
  -24.1450  -36.8520   23.0040 C   0  0  0  0  0  1  0  0  0  0  0  0
  -25.3420  -36.4120   23.8630 C   0  0  0  0  0  3  0  0  0  0  0  0
  -27.4240  -37.2760   24.8450 C   0  0  0  0  0  1  0  0  0  0  0  0
  -26.3750  -37.4730   23.8490 N   0  0  0  0  0  0  0  0  0  0  0  0
  -25.9560  -38.3860   24.0060 H   0  0  0  0  0  0  0  0  0  0  0  0
  -26.4040  -31.8060   25.0090 C   0  0  1  0  0  0  0  0  0  0  0  0
  -25.3220  -31.5460   26.0830 C   0  0  0  0  0  1  0  0  0  0  0  0
  -27.0120  -30.4390   24.6160 C   0  0  0  0  0  1  0  0  0  0  0  0
  -27.5420  -32.6200   25.6690 C   0  0  0  0  0  1  0  0  0  0  0  0
  -29.2770  -19.7880   20.7830 C   0  0  0  0  0  3  0  0  0  0  0  0
  -30.0560  -18.2490   20.2410 C   0  0  0  0  0  3  0  0  0  0  0  0
  -30.6840  -15.4320   20.8070 C   0  0  0  0  0  0  0  0  0  0  0  0
  -30.7360  -12.9760   19.9970 C   0  0  0  0  0  2  0  0  0  0  0  0
  -29.9220  -12.7630   18.6960 C   0  0  0  0  0  2  0  0  0  0  0  0
  -28.4400  -12.5010   19.0150 C   0  0  0  0  0  2  0  0  0  0  0  0
  -27.8960  -13.4720   20.0940 C   0  0  0  0  0  3  0  0  0  0  0  0
  -28.8500  -13.6320   21.2990 C   0  0  0  0  0  2  0  0  0  0  0  0
  -30.1300  -14.1240   20.7650 N   0  0  0  0  0  0  0  0  0  0  0  0
  -31.9090  -15.4460   20.6310 O   0  0  0  0  0  0  0  0  0  0  0  0
  -29.9010  -16.6900   20.8160 N   0  0  0  0  0  0  0  0  0  0  0  0
  -28.9390  -16.4920   21.0500 H   0  0  0  0  0  0  0  0  0  0  0  0
  -25.4630  -14.0120   20.6360 C   0  0  0  0  0  0  0  0  0  0  0  0
  -24.3840  -13.2290   20.9320 C   0  0  0  0  0  0  0  0  0  0  0  0
  -24.8680  -11.8850   20.9680 C   0  0  0  0  0  0  0  0  0  0  0  0
  -26.5340  -13.1470   20.4980 N   0  0  0  0  0  0  0  0  0  0  0  0
  -26.1820  -11.8620   20.7670 N   0  0  0  0  0  0  0  0  0  0  0  0
  -24.1410  -10.6170   21.1250 C   0  0  0  0  0  0  0  0  0  0  0  0
  -24.5030   -9.6730   22.1110 C   0  0  0  0  0  3  0  0  0  0  0  0
  -23.7750   -8.4720   22.2550 C   0  0  0  0  0  3  0  0  0  0  0  0
  -22.6700   -8.2070   21.4110 C   0  0  0  0  0  0  0  0  0  0  0  0
  -22.3280   -9.1390   20.4160 C   0  0  0  0  0  3  0  0  0  0  0  0
  -23.0560  -10.3310   20.2710 C   0  0  0  0  0  3  0  0  0  0  0  0
  -21.9210   -7.0560   21.4620 O   0  0  0  0  0  0  0  0  0  0  0  0
  -21.7780   -6.3400   22.6220 C   0  0  0  0  0  0  0  0  0  0  0  0
  -21.2210   -6.9110   23.7870 C   0  0  0  0  0  3  0  0  0  0  0  0
  -21.0290   -6.1200   24.9370 C   0  0  0  0  0  3  0  0  0  0  0  0
  -21.3820   -4.7580   24.9220 C   0  0  0  0  0  0  0  0  0  0  0  0
  -21.9300   -4.1850   23.7610 C   0  0  0  0  0  3  0  0  0  0  0  0
  -22.1250   -4.9740   22.6140 C   0  0  0  0  0  0  0  0  0  0  0  0
  -22.6340   -4.4110   21.4910 F   0  0  0  0  0  0  0  0  0  0  0  0
  -21.1900   -3.9950   26.0240 F   0  0  0  0  0  0  0  0  0  0  0  0
  -22.9630  -13.6940   21.0680 C   0  0  0  0  0  0  0  0  0  0  0  0
  -22.1740  -13.0130   21.8900 N   0  0  0  0  0  0  0  0  0  0  0  0
  -22.5620  -14.6980   20.4820 O   0  0  0  0  0  0  0  0  0  0  0  0
  -22.5130  -12.2060   22.3910 H   0  0  0  0  0  0  0  0  0  0  0  0
  -21.2170  -13.3060   22.0240 H   0  0  0  0  0  0  0  0  0  0  0  0
  -25.6200  -15.3820   20.4440 N   0  0  0  0  0  0  0  0  0  0  0  0
  -24.8310  -16.0180   20.4690 H   0  0  0  0  0  0  0  0  0  0  0  0
  -26.4750  -15.8260   20.1390 H   0  0  0  0  0  0  0  0  0  0  0  0
  -30.6830  -19.2900   17.9580 C   0  0  0  0  0  1  0  0  0  0  0  0
  -28.4010  -18.2570   18.2880 C   0  0  0  0  0  1  0  0  0  0  0  0
  -30.4240  -16.8530   18.0390 C   0  0  0  0  0  1  0  0  0  0  0  0
  -29.8930  -18.1660   18.6670 C   0  0  2  0  0  0  0  0  0  0  0  0
  1  2  1  0
  1 46  2  0
  2  3  2  0
  4  5  1  0
  4  2  1  0
  6 17  2  0
  7  5  1  0
  7 12  1  0
  8 16  1  0
  8 18  1  0
  9 15  1  0
  9 11  1  0
 10 16  1  0
 11 12  2  0
 11 10  1  0
 13  7  2  0
 14 13  1  0
 14  9  2  0
 15  8  1  0
 16  6  1  0
 18 20  2  0
 19 18  1  0
 21 19  1  0
 22 31  2  0
 22 27  1  0
 23 19  1  0
 23 27  1  0
 24 23  1  0
 25 26  1  0
 25 24  1  0
 26 22  1  0
 27 28  2  0
 28 29  1  0
 30 29  2  0
 31 30  1  0
 32  6  1  0
 32 33  1  0
 32 42  1  0
 33 36  1  0
 34 38  1  0
 34 33  1  0
 35 34  2  0
 38 37  1  0
 40 38  1  0
 40 41  1  0
 40 39  1  0
 42 45  1  1
 42 43  1  0
 44 42  1  0
 47 46  1  0
 47 56  1  0
 48 56  1  0
 49 54  1  0
 50 51  1  0
 50 49  1  0
 52 51  1  0
 52 61  1  0
 52 53  1  0
 54 48  1  0
 54 53  1  0
 55 48  2  0
 56 57  1  0
 58 59  2  0
 59 60  1  0
 59 78  1  0
 60 63  1  0
 61 58  1  0
 61 62  1  0
 62 60  2  0
 63 64  1  0
 64 65  2  0
 66 69  1  0
 66 65  1  0
 67 66  2  0
 68 67  1  0
 68 63  2  0
 69 70  1  0
 70 71  1  0
 71 72  2  0
 73 72  1  0
 73 77  1  0
 74 73  2  0
 75 70  2  0
 75 74  1  0
 76 75  1  0
 78 79  1  0
 79 82  1  0
 79 81  1  0
 80 78  2  0
 83 84  1  0
 83 58  1  0
 85 83  1  0
 89 86  1  6
 87 89  1  0
 88 89  1  0
 89 47  1  0
M  ISO  4   4 101   5 101  48 100  56 100
M  END
>  <TORSDO>  (26) 
F 21

>  <SCORE>  (26) 
-14.783

>  <name>  (26) 
25

>  <ligand_id>  (26) 
25

>  <original_smiles>  (26) 
[H]c1c([H])c([H])c2c(c1[H])C([H])([H])C([H])([H])C([H])([H])C2([H])N([H])C(=O)C1([H])N(C(=O)C([H])(N([H])C(=O)C([H])(N([H])C([H])([H])[H])C([H])([H])[H])C(C([H])([H])[H])(C([H])([H])[H])C([H])([H])[H])C([H])([H])c2c([H])c(OC([H])([H])C(=O)C([H])([H])C([H])([H])C([H])(N([H])C(=O)N3C([H])([H])C([H])([H])C([H])([H])C([H])(n4nc(-c5c([H])c([H])c(Oc6c([H])c([H])c(F)c([H])c6F)c([H])c5[H])c(C(=O)N([H])[H])c4N([H])[H])C3([H])[H])C(C([H])([H])[H])(C([H])([H])[H])C([H])([H])[H])c([H])c([H])c2C1([H])[H]

>  <smiles>  (26) 
[H]c1c([H])c([H])c2c(c1[H])C([H])([H])C([H])([H])C([H])([H])C2([H])N([H])C(=O)C1([H])N(C(=O)C([H])(N([H])C(=O)C([H])(N([H])C([H])([H])[H])C([H])([H])[H])C(C([H])([H])[H])(C([H])([H])[H])C([H])([H])[H])C([H])([H])c2c([H])c(OC([H])([H])C(=O)C([H])([H])C([H])([H])C([H])(N([H])C(=O)N3C([H])([H])C([H])([H])C([H])([H])C([H])(n4nc(-c5c([H])c([H])c(Oc6c([H])c([H])c(F)c([H])c6F)c([H])c5[H])c(C(=O)N([H])[H])c4N([H])[H])C3([H])[H])C(C([H])([H])[H])(C([H])([H])[H])C([H])([H])[H])c([H])c([H])c2C1([H])[H]

$$$$
26:0:0
     RDKit          3D

 88 95  0  0  1  0  0  0  0  0999 V2000
  -28.8290  -22.3710   20.7440 C   0  0  0  0  0  3  0  0  0  0  0  0
  -28.7290  -23.7820   19.9670 C   0  0  0  0  0  3  0  0  0  0  0  0
  -28.1700  -25.0770   20.7390 C   0  0  0  0  0  3  0  0  0  0  0  0
  -28.3310  -26.4530   20.1850 O   0  0  0  0  0  0  0  0  0  0  0  0
  -24.6210  -31.8780   23.2300 C   0  0  0  0  0  0  0  0  0  0  0  0
  -27.2180  -27.3080   20.1820 C   0  0  0  0  0  0  0  0  0  0  0  0
  -23.4090  -30.4750   21.5980 C   0  0  0  0  0  3  0  0  0  0  0  0
  -24.8530  -28.9180   20.1690 C   0  0  0  0  0  0  0  0  0  0  0  0
  -25.9470  -30.7950   21.3980 C   0  0  0  0  0  2  0  0  0  0  0  0
  -26.0260  -29.4130   20.7570 C   0  0  0  0  0  0  0  0  0  0  0  0
  -27.2140  -28.6210   20.7470 C   0  0  0  0  0  3  0  0  0  0  0  0
  -26.0260  -26.8640   19.5710 C   0  0  0  0  0  3  0  0  0  0  0  0
  -24.8560  -27.6500   19.5650 C   0  0  0  0  0  3  0  0  0  0  0  0
  -23.6160  -29.7930   20.2200 C   0  0  0  0  0  2  0  0  0  0  0  0
  -24.6790  -31.0670   22.1330 N   0  0  0  0  0  0  0  0  0  0  0  0
  -23.5400  -32.1560   23.7700 O   0  0  0  0  0  0  0  0  0  0  0  0
  -22.7520  -29.4620   22.5650 C   0  0  0  0  0  0  0  0  0  0  0  0
  -21.4250  -29.2840   22.4460 N   0  0  0  0  0  0  0  0  0  0  0  0
  -23.4350  -28.8380   23.3820 O   0  0  0  0  0  0  0  0  0  0  0  0
  -20.9330  -29.8380   21.7610 H   0  0  0  0  0  0  0  0  0  0  0  0
  -18.0540  -28.0760   22.9570 C   0  0  0  0  0  0  0  0  0  0  0  0
  -20.6110  -28.3470   23.2240 C   0  0  0  0  0  3  0  0  0  0  0  0
  -20.7190  -26.9120   22.6570 C   0  0  0  0  0  2  0  0  0  0  0  0
  -19.6170  -26.5790   21.6450 C   0  0  0  0  0  2  0  0  0  0  0  0
  -18.2350  -26.7230   22.2890 C   0  0  0  0  0  2  0  0  0  0  0  0
  -19.1700  -28.8460   23.3810 C   0  0  0  0  0  0  0  0  0  0  0  0
  -18.9470  -30.1110   23.9650 C   0  0  0  0  0  3  0  0  0  0  0  0
  -17.6400  -30.6080   24.1290 C   0  0  0  0  0  3  0  0  0  0  0  0
  -16.5380  -29.8360   23.7220 C   0  0  0  0  0  3  0  0  0  0  0  0
  -16.7450  -28.5720   23.1410 C   0  0  0  0  0  3  0  0  0  0  0  0
  -25.9060  -32.5140   23.8440 C   0  0  0  0  0  3  0  0  0  0  0  0
  -25.5950  -33.9100   24.1810 N   0  0  0  0  0  0  0  0  0  0  0  0
  -25.9190  -34.9680   23.4240 C   0  0  0  0  0  0  0  0  0  0  0  0
  -26.5810  -34.8700   22.3870 O   0  0  0  0  0  0  0  0  0  0  0  0
  -25.0080  -34.0610   24.9880 H   0  0  0  0  0  0  0  0  0  0  0  0
  -24.1820  -36.7560   23.0940 C   0  0  0  0  0  1  0  0  0  0  0  0
  -25.4330  -36.3530   23.8920 C   0  0  0  0  0  3  0  0  0  0  0  0
  -27.5760  -37.2380   24.7000 C   0  0  0  0  0  1  0  0  0  0  0  0
  -26.4610  -37.4100   23.7720 N   0  0  0  0  0  0  0  0  0  0  0  0
  -26.0540  -38.3280   23.9320 H   0  0  0  0  0  0  0  0  0  0  0  0
  -26.4350  -31.7410   25.1150 C   0  0  1  0  0  0  0  0  0  0  0  0
  -25.3510  -31.5020   26.1910 C   0  0  0  0  0  1  0  0  0  0  0  0
  -27.0160  -30.3650   24.7160 C   0  0  0  0  0  1  0  0  0  0  0  0
  -27.5910  -32.5350   25.7670 C   0  0  0  0  0  1  0  0  0  0  0  0
  -29.2370  -21.0370   19.9270 C   0  0  0  0  0  3  0  0  0  0  0  0
  -29.4720  -18.4630   20.3200 C   0  0  0  0  0  0  0  0  0  0  0  0
  -30.8170  -20.0870   21.6150 C   0  0  0  0  0  1  0  0  0  0  0  0
  -29.7550  -19.7890   20.6480 N   0  0  0  0  0  0  0  0  0  0  0  0
  -28.5910  -18.1860   19.5030 O   0  0  0  0  0  0  0  0  0  0  0  0
  -30.2830  -17.2400   20.9430 C   0  0  0  0  0  2  0  0  0  0  0  0
  -30.5800  -14.6960   20.4150 C   0  0  0  0  0  0  0  0  0  0  0  0
  -30.3610  -12.4460   19.3600 C   0  0  0  0  0  2  0  0  0  0  0  0
  -29.4200  -12.5430   18.1400 C   0  0  0  0  0  2  0  0  0  0  0  0
  -27.9490  -12.3770   18.5720 C   0  0  0  0  0  2  0  0  0  0  0  0
  -27.5830  -13.2560   19.7970 C   0  0  0  0  0  3  0  0  0  0  0  0
  -28.6420  -13.1400   20.9150 C   0  0  0  0  0  2  0  0  0  0  0  0
  -29.9410  -13.4850   20.3240 N   0  0  0  0  0  0  0  0  0  0  0  0
  -31.7590  -14.8100   20.0670 O   0  0  0  0  0  0  0  0  0  0  0  0
  -29.8300  -15.8030   20.7400 N   0  0  0  0  0  0  0  0  0  0  0  0
  -28.8510  -15.6350   20.9120 H   0  0  0  0  0  0  0  0  0  0  0  0
  -25.1940  -13.8550   20.5160 C   0  0  0  0  0  0  0  0  0  0  0  0
  -24.1270  -13.0830   20.8880 C   0  0  0  0  0  0  0  0  0  0  0  0
  -24.5900  -11.7310   20.8650 C   0  0  0  0  0  0  0  0  0  0  0  0
  -26.2380  -12.9740   20.2860 N   0  0  0  0  0  0  0  0  0  0  0  0
  -25.8810  -11.6930   20.5580 N   0  0  0  0  0  0  0  0  0  0  0  0
  -23.8630  -10.4700   21.0600 C   0  0  0  0  0  0  0  0  0  0  0  0
  -24.3080   -9.4960   21.9800 C   0  0  0  0  0  3  0  0  0  0  0  0
  -23.5810   -8.2990   22.1630 C   0  0  0  0  0  3  0  0  0  0  0  0
  -22.3970   -8.0690   21.4240 C   0  0  0  0  0  0  0  0  0  0  0  0
  -21.9710   -9.0310   20.4930 C   0  0  0  0  0  3  0  0  0  0  0  0
  -22.6990  -10.2190   20.3070 C   0  0  0  0  0  3  0  0  0  0  0  0
  -21.6400   -6.9250   21.5180 O   0  0  0  0  0  0  0  0  0  0  0  0
  -21.6240   -6.1650   22.6590 C   0  0  0  0  0  0  0  0  0  0  0  0
  -21.2520   -6.7060   23.9090 C   0  0  0  0  0  3  0  0  0  0  0  0
  -21.1810   -5.8720   25.0430 C   0  0  0  0  0  3  0  0  0  0  0  0
  -21.4700   -4.5000   24.9290 C   0  0  0  0  0  0  0  0  0  0  0  0
  -21.8340   -3.9580   23.6840 C   0  0  0  0  0  3  0  0  0  0  0  0
  -21.9070   -4.7880   22.5510 C   0  0  0  0  0  0  0  0  0  0  0  0
  -22.2380   -4.2570   21.3500 F   0  0  0  0  0  0  0  0  0  0  0  0
  -21.3940   -3.6970   26.0170 F   0  0  0  0  0  0  0  0  0  0  0  0
  -22.7290  -13.5600   21.1550 C   0  0  0  0  0  0  0  0  0  0  0  0
  -22.0010  -12.8700   22.0250 N   0  0  0  0  0  0  0  0  0  0  0  0
  -22.2920  -14.5820   20.6270 O   0  0  0  0  0  0  0  0  0  0  0  0
  -22.3680  -12.0430   22.4730 H   0  0  0  0  0  0  0  0  0  0  0  0
  -21.0630  -13.1720   22.2470 H   0  0  0  0  0  0  0  0  0  0  0  0
  -25.3560  -15.2250   20.3300 N   0  0  0  0  0  0  0  0  0  0  0  0
  -24.5830  -15.8740   20.4230 H   0  0  0  0  0  0  0  0  0  0  0  0
  -26.1950  -15.6630   19.9710 H   0  0  0  0  0  0  0  0  0  0  0  0
  2  3  2  0
  2  1  1  0
  4  3  1  0
  5 16  2  0
  6  4  1  0
  6 11  1  0
  7 15  1  0
  7 17  1  0
  8 14  1  0
  8 10  1  0
  9 15  1  0
 10  9  1  0
 11 10  2  0
 12  6  2  0
 13 12  1  0
 13  8  2  0
 14  7  1  0
 15  5  1  0
 17 19  2  0
 18 17  1  0
 20 18  1  0
 21 30  2  0
 21 26  1  0
 22 18  1  0
 22 26  1  0
 23 22  1  0
 24 25  1  0
 24 23  1  0
 25 21  1  0
 26 27  2  0
 27 28  1  0
 29 28  2  0
 30 29  1  0
 31  5  1  0
 31 32  1  0
 31 41  1  0
 32 35  1  0
 33 37  1  0
 33 32  1  0
 34 33  2  0
 37 36  1  0
 39 37  1  0
 39 40  1  0
 39 38  1  0
 41 44  1  1
 41 42  1  0
 43 41  1  0
 45 48  1  0
 45  1  2  0
 46 48  1  0
 46 50  1  0
 48 47  1  0
 49 46  2  0
 51 59  1  0
 52 57  1  0
 53 54  1  0
 53 52  1  0
 55 54  1  0
 55 64  1  0
 55 56  1  0
 57 51  1  0
 57 56  1  0
 58 51  2  0
 59 60  1  0
 59 50  1  0
 61 62  2  0
 62 81  1  0
 63 62  1  0
 63 66  1  0
 64 61  1  0
 64 65  1  0
 65 63  2  0
 66 67  1  0
 67 68  2  0
 69 72  1  0
 69 68  1  0
 70 69  2  0
 71 70  1  0
 71 66  2  0
 72 73  1  0
 73 74  1  0
 74 75  2  0
 76 75  1  0
 76 80  1  0
 77 76  2  0
 78 73  2  0
 78 77  1  0
 79 78  1  0
 81 82  1  0
 82 85  1  0
 82 84  1  0
 83 81  2  0
 86 87  1  0
 86 61  1  0
 88 86  1  0
M  ISO  4   3 101   4 101  51 100  59 100
M  END
>  <TORSDO>  (27) 
F 21

>  <SCORE>  (27) 
-13.417

>  <name>  (27) 
26

>  <ligand_id>  (27) 
26

>  <original_smiles>  (27) 
[H]c1c([H])c([H])c2c(c1[H])C([H])([H])C([H])([H])C([H])([H])C2([H])N([H])C(=O)C1([H])N(C(=O)C([H])(N([H])C(=O)C([H])(N([H])C([H])([H])[H])C([H])([H])[H])C(C([H])([H])[H])(C([H])([H])[H])C([H])([H])[H])C([H])([H])c2c([H])c(OC([H])([H])C([H])([H])C([H])([H])C([H])([H])N(C(=O)C([H])([H])N([H])C(=O)N3C([H])([H])C([H])([H])C([H])([H])C([H])(n4nc(-c5c([H])c([H])c(Oc6c([H])c([H])c(F)c([H])c6F)c([H])c5[H])c(C(=O)N([H])[H])c4N([H])[H])C3([H])[H])C([H])([H])[H])c([H])c([H])c2C1([H])[H]

>  <smiles>  (27) 
[H]c1c([H])c([H])c2c(c1[H])C([H])([H])C([H])([H])C([H])([H])C2([H])N([H])C(=O)C1([H])N(C(=O)C([H])(N([H])C(=O)C([H])(N([H])C([H])([H])[H])C([H])([H])[H])C(C([H])([H])[H])(C([H])([H])[H])C([H])([H])[H])C([H])([H])c2c([H])c(OC([H])([H])C([H])([H])C([H])([H])C([H])([H])N(C(=O)C([H])([H])N([H])C(=O)N3C([H])([H])C([H])([H])C([H])([H])C([H])(n4nc(-c5c([H])c([H])c(Oc6c([H])c([H])c(F)c([H])c6F)c([H])c5[H])c(C(=O)N([H])[H])c4N([H])[H])C3([H])[H])C([H])([H])[H])c([H])c([H])c2C1([H])[H]

$$$$
27:0:0
     RDKit          3D

 98105  0  0  1  0  0  0  0  0999 V2000
  -29.3630  -21.9440   19.9020 C   0  0  0  0  0  3  0  0  0  0  0  0
  -27.2270  -21.0460   18.9220 C   0  0  0  0  0  0  0  0  0  0  0  0
  -28.5600  -21.1480   18.9740 N   0  0  0  0  0  0  0  0  0  0  0  0
  -26.4890  -21.6490   19.7050 O   0  0  0  0  0  0  0  0  0  0  0  0
  -29.0710  -20.6220   18.2800 H   0  0  0  0  0  0  0  0  0  0  0  0
  -25.9660  -18.9110   18.4990 C   0  0  0  0  0  1  0  0  0  0  0  0
  -25.5380  -20.9290   17.0660 C   0  0  0  0  0  1  0  0  0  0  0  0
  -27.6790  -19.6430   16.8110 C   0  0  0  0  0  1  0  0  0  0  0  0
  -26.6190  -20.1350   17.8260 C   0  0  1  0  0  0  0  0  0  0  0  0
  -31.5110  -22.8790   18.8800 C   0  0  0  0  0  1  0  0  0  0  0  0
  -29.4240  -23.4090   17.7390 C   0  0  0  0  0  1  0  0  0  0  0  0
  -30.0230  -23.2160   19.1620 C   0  0  1  0  0  0  0  0  0  0  0  0
  -31.0960  -25.5550   19.7880 C   0  0  0  0  0  1  0  0  0  0  0  0
  -29.8810  -24.6100   19.9650 C   0  0  0  0  0  3  0  0  0  0  0  0
  -28.5750  -25.4620   19.6910 C   0  0  0  0  0  2  0  0  0  0  0  0
  -28.5670  -26.8230   20.2150 O   0  0  0  0  0  0  0  0  0  0  0  0
  -24.6280  -31.9840   23.2290 C   0  0  0  0  0  0  0  0  0  0  0  0
  -27.3950  -27.5740   20.1500 C   0  0  0  0  0  0  0  0  0  0  0  0
  -23.4790  -30.5880   21.5440 C   0  0  0  0  0  3  0  0  0  0  0  0
  -24.9840  -29.0890   20.1260 C   0  0  0  0  0  0  0  0  0  0  0  0
  -26.0080  -30.9720   21.4090 C   0  0  0  0  0  2  0  0  0  0  0  0
  -26.1260  -29.6080   20.7480 C   0  0  0  0  0  0  0  0  0  0  0  0
  -27.3310  -28.8580   20.7550 C   0  0  0  0  0  3  0  0  0  0  0  0
  -26.2270  -27.0900   19.5120 C   0  0  0  0  0  3  0  0  0  0  0  0
  -25.0310  -27.8320   19.5050 C   0  0  0  0  0  3  0  0  0  0  0  0
  -23.7280  -29.9330   20.1600 C   0  0  0  0  0  2  0  0  0  0  0  0
  -24.7220  -31.1970   22.1190 N   0  0  0  0  0  0  0  0  0  0  0  0
  -23.5310  -32.2340   23.7480 O   0  0  0  0  0  0  0  0  0  0  0  0
  -22.8200  -29.5450   22.4770 C   0  0  0  0  0  0  0  0  0  0  0  0
  -21.5000  -29.3480   22.3220 N   0  0  0  0  0  0  0  0  0  0  0  0
  -23.4960  -28.9160   23.2970 O   0  0  0  0  0  0  0  0  0  0  0  0
  -21.0160  -29.9080   21.6340 H   0  0  0  0  0  0  0  0  0  0  0  0
  -18.1290  -28.1190   22.7580 C   0  0  0  0  0  0  0  0  0  0  0  0
  -20.6810  -28.3880   23.0640 C   0  0  0  0  0  3  0  0  0  0  0  0
  -20.8000  -26.9710   22.4560 C   0  0  0  0  0  2  0  0  0  0  0  0
  -19.7100  -26.6650   21.4230 C   0  0  0  0  0  2  0  0  0  0  0  0
  -18.3210  -26.7870   22.0560 C   0  0  0  0  0  2  0  0  0  0  0  0
  -19.2370  -28.8780   23.2180 C   0  0  0  0  0  0  0  0  0  0  0  0
  -19.0040  -30.1280   23.8340 C   0  0  0  0  0  3  0  0  0  0  0  0
  -17.6950  -30.6160   23.9960 C   0  0  0  0  0  3  0  0  0  0  0  0
  -16.6000  -29.8530   23.5540 C   0  0  0  0  0  3  0  0  0  0  0  0
  -16.8180  -28.6070   22.9410 C   0  0  0  0  0  3  0  0  0  0  0  0
  -25.8910  -32.6260   23.8830 C   0  0  0  0  0  3  0  0  0  0  0  0
  -26.3810  -31.8600   25.1720 C   0  0  1  0  0  0  0  0  0  0  0  0
  -25.2610  -31.6010   26.2060 C   0  0  0  0  0  1  0  0  0  0  0  0
  -26.9960  -30.4920   24.7930 C   0  0  0  0  0  1  0  0  0  0  0  0
  -27.5000  -32.6680   25.8690 C   0  0  0  0  0  1  0  0  0  0  0  0
  -25.5600  -34.0220   24.2050 N   0  0  0  0  0  0  0  0  0  0  0  0
  -25.8960  -35.0760   23.4500 C   0  0  0  0  0  0  0  0  0  0  0  0
  -26.5860  -34.9770   22.4310 O   0  0  0  0  0  0  0  0  0  0  0  0
  -24.9490  -34.1710   24.9940 H   0  0  0  0  0  0  0  0  0  0  0  0
  -24.1620  -36.8540   23.0510 C   0  0  0  0  0  1  0  0  0  0  0  0
  -25.3850  -36.4600   23.8950 C   0  0  0  0  0  3  0  0  0  0  0  0
  -27.4830  -37.3680   24.7900 C   0  0  0  0  0  1  0  0  0  0  0  0
  -26.4120  -37.5210   23.8090 N   0  0  0  0  0  0  0  0  0  0  0  0
  -25.9930  -38.4390   23.9380 H   0  0  0  0  0  0  0  0  0  0  0  0
  -30.3290  -20.9090   20.6070 C   0  0  0  0  0  2  0  0  0  0  0  0
  -29.6870  -19.6650   21.3230 C   0  0  0  0  0  2  0  0  0  0  0  0
  -29.6050  -18.2700   20.5930 C   0  0  0  0  0  2  0  0  0  0  0  0
  -30.6750  -17.1880   20.9750 C   0  0  0  0  0  2  0  0  0  0  0  0
  -30.9620  -14.7350   20.2970 C   0  0  0  0  0  0  0  0  0  0  0  0
  -30.6780  -12.5520   19.1640 C   0  0  0  0  0  2  0  0  0  0  0  0
  -29.7340  -12.7390   17.9590 C   0  0  0  0  0  2  0  0  0  0  0  0
  -28.2610  -12.5950   18.3900 C   0  0  0  0  0  2  0  0  0  0  0  0
  -27.9220  -13.4360   19.6510 C   0  0  0  0  0  3  0  0  0  0  0  0
  -28.9810  -13.2360   20.7570 C   0  0  0  0  0  2  0  0  0  0  0  0
  -30.2970  -13.5490   20.1790 N   0  0  0  0  0  0  0  0  0  0  0  0
  -32.1060  -14.8960   19.8630 O   0  0  0  0  0  0  0  0  0  0  0  0
  -30.2370  -15.7790   20.7750 N   0  0  0  0  0  0  0  0  0  0  0  0
  -29.3000  -15.5520   21.0700 H   0  0  0  0  0  0  0  0  0  0  0  0
  -25.5380  -14.0490   20.3910 C   0  0  0  0  0  0  0  0  0  0  0  0
  -24.4650  -13.2800   20.7550 C   0  0  0  0  0  0  0  0  0  0  0  0
  -24.9130  -11.9250   20.6970 C   0  0  0  0  0  0  0  0  0  0  0  0
  -26.5720  -13.1610   20.1360 N   0  0  0  0  0  0  0  0  0  0  0  0
  -26.2000  -11.8790   20.3780 N   0  0  0  0  0  0  0  0  0  0  0  0
  -24.1760  -10.6660   20.8720 C   0  0  0  0  0  0  0  0  0  0  0  0
  -24.5550   -9.7170   21.8460 C   0  0  0  0  0  3  0  0  0  0  0  0
  -23.8190   -8.5230   22.0070 C   0  0  0  0  0  3  0  0  0  0  0  0
  -22.6890   -8.2710   21.1920 C   0  0  0  0  0  0  0  0  0  0  0  0
  -22.3280   -9.2110   20.2090 C   0  0  0  0  0  3  0  0  0  0  0  0
  -23.0660  -10.3950   20.0470 C   0  0  0  0  0  3  0  0  0  0  0  0
  -21.9300   -7.1280   21.2600 O   0  0  0  0  0  0  0  0  0  0  0  0
  -21.7690   -6.4400   22.4370 C   0  0  0  0  0  0  0  0  0  0  0  0
  -21.1700   -7.0320   23.5700 C   0  0  0  0  0  3  0  0  0  0  0  0
  -20.9600   -6.2670   24.7350 C   0  0  0  0  0  3  0  0  0  0  0  0
  -21.3380   -4.9110   24.7660 C   0  0  0  0  0  0  0  0  0  0  0  0
  -21.9290   -4.3190   23.6350 C   0  0  0  0  0  3  0  0  0  0  0  0
  -22.1410   -5.0810   22.4730 C   0  0  0  0  0  0  0  0  0  0  0  0
  -22.6920   -4.5010   21.3800 F   0  0  0  0  0  0  0  0  0  0  0  0
  -21.1300   -4.1720   25.8800 F   0  0  0  0  0  0  0  0  0  0  0  0
  -23.0750  -13.7680   21.0420 C   0  0  0  0  0  0  0  0  0  0  0  0
  -22.3420  -13.0600   21.8950 N   0  0  0  0  0  0  0  0  0  0  0  0
  -22.6470  -14.8110   20.5480 O   0  0  0  0  0  0  0  0  0  0  0  0
  -22.7000  -12.2150   22.3140 H   0  0  0  0  0  0  0  0  0  0  0  0
  -21.4100  -13.3670   22.1310 H   0  0  0  0  0  0  0  0  0  0  0  0
  -25.7170  -15.4200   20.2360 N   0  0  0  0  0  0  0  0  0  0  0  0
  -24.9560  -16.0800   20.3570 H   0  0  0  0  0  0  0  0  0  0  0  0
  -26.5620  -15.8490   19.8840 H   0  0  0  0  0  0  0  0  0  0  0  0
  1 57  1  0
  2  3  1  0
  2  4  2  0
  3  1  1  0
  5  3  1  0
  9  7  1  6
  8  9  1  0
  9  6  1  0
  9  2  1  0
 12 10  1  6
 11 12  1  0
 12  1  1  0
 12 14  1  0
 14 13  1  0
 15 14  1  0
 15 16  1  0
 17 28  2  0
 18 16  1  0
 18 23  1  0
 19 27  1  0
 19 29  1  0
 20 26  1  0
 20 22  1  0
 21 27  1  0
 22 23  2  0
 22 21  1  0
 24 18  2  0
 25 24  1  0
 25 20  2  0
 26 19  1  0
 27 17  1  0
 29 31  2  0
 30 29  1  0
 32 30  1  0
 33 42  2  0
 33 38  1  0
 34 30  1  0
 34 38  1  0
 35 34  1  0
 36 37  1  0
 36 35  1  0
 37 33  1  0
 38 39  2  0
 39 40  1  0
 41 40  2  0
 42 41  1  0
 43 17  1  0
 43 48  1  0
 43 44  1  0
 44 47  1  1
 44 45  1  0
 46 44  1  0
 48 51  1  0
 49 53  1  0
 49 48  1  0
 50 49  2  0
 53 52  1  0
 55 53  1  0
 55 56  1  0
 55 54  1  0
 57 58  1  0
 59 60  1  0
 59 58  1  0
 61 69  1  0
 62 67  1  0
 63 64  1  0
 63 62  1  0
 65 64  1  0
 65 74  1  0
 65 66  1  0
 67 61  1  0
 67 66  1  0
 68 61  2  0
 69 60  1  0
 69 70  1  0
 71 72  2  0
 72 91  1  0
 73 72  1  0
 73 76  1  0
 74 75  1  0
 74 71  1  0
 75 73  2  0
 76 77  1  0
 77 78  2  0
 79 82  1  0
 79 78  1  0
 80 79  2  0
 81 80  1  0
 81 76  2  0
 82 83  1  0
 83 88  2  0
 83 84  1  0
 84 85  2  0
 85 86  1  0
 86 90  1  0
 87 86  2  0
 88 87  1  0
 89 88  1  0
 91 92  1  0
 92 95  1  0
 92 94  1  0
 93 91  2  0
 96 97  1  0
 96 71  1  0
 98 96  1  0
M  ISO  4  15 101  16 101  61 100  69 100
M  END
>  <TORSDO>  (28) 
F 25

>  <SCORE>  (28) 
-11.299

>  <name>  (28) 
27

>  <ligand_id>  (28) 
27

>  <original_smiles>  (28) 
[H]c1c([H])c([H])c2c(c1[H])C([H])([H])C([H])([H])C([H])([H])C2([H])N([H])C(=O)C1([H])N(C(=O)C([H])(N([H])C(=O)C([H])(N([H])C([H])([H])[H])C([H])([H])[H])C(C([H])([H])[H])(C([H])([H])[H])C([H])([H])[H])C([H])([H])c2c([H])c(OC([H])([H])C([H])(C([H])([H])[H])C(C([H])([H])[H])(C([H])([H])[H])C([H])(N([H])C(=O)C(C([H])([H])[H])(C([H])([H])[H])C([H])([H])[H])C([H])([H])C([H])([H])C([H])([H])C([H])([H])N([H])C(=O)N3C([H])([H])C([H])([H])C([H])([H])C([H])(n4nc(-c5c([H])c([H])c(Oc6c([H])c([H])c(F)c([H])c6F)c([H])c5[H])c(C(=O)N([H])[H])c4N([H])[H])C3([H])[H])c([H])c([H])c2C1([H])[H]

>  <smiles>  (28) 
[H]c1c([H])c([H])c2c(c1[H])C([H])([H])C([H])([H])C([H])([H])C2([H])N([H])C(=O)C1([H])N(C(=O)C([H])(N([H])C(=O)C([H])(N([H])C([H])([H])[H])C([H])([H])[H])C(C([H])([H])[H])(C([H])([H])[H])C([H])([H])[H])C([H])([H])c2c([H])c(OC([H])([H])C([H])(C([H])([H])[H])C(C([H])([H])[H])(C([H])([H])[H])C([H])(N([H])C(=O)C(C([H])([H])[H])(C([H])([H])[H])C([H])([H])[H])C([H])([H])C([H])([H])C([H])([H])C([H])([H])N([H])C(=O)N3C([H])([H])C([H])([H])C([H])([H])C([H])(n4nc(-c5c([H])c([H])c(Oc6c([H])c([H])c(F)c([H])c6F)c([H])c5[H])c(C(=O)N([H])[H])c4N([H])[H])C3([H])[H])c([H])c([H])c2C1([H])[H]

$$$$
28:0:0
     RDKit          3D

 99107  0  0  1  0  0  0  0  0999 V2000
  -29.0060  -21.2050   19.9390 C   0  0  0  0  0  3  0  0  0  0  0  0
  -29.5630  -19.9880   20.6930 N   0  0  0  0  0  4  0  0  0  0  0  0
  -30.5550  -20.1600   20.7500 H   0  0  0  0  0  0  0  0  0  0  0  0
  -29.2310  -20.0730   21.6400 H   0  0  0  0  0  0  0  0  0  0  0  0
  -29.3210  -18.5510   20.2080 C   0  0  0  0  0  2  0  0  0  0  0  0
  -30.7260  -17.5560   22.1380 C   0  0  0  0  0  1  0  0  0  0  0  0
  -30.3550  -17.3960   20.6540 C   0  0  0  0  0  3  0  0  0  0  0  0
  -30.6760  -14.8660   20.0140 C   0  0  0  0  0  0  0  0  0  0  0  0
  -30.3810  -12.6960   18.8280 C   0  0  0  0  0  2  0  0  0  0  0  0
  -29.3470  -12.8740   17.6950 C   0  0  0  0  0  2  0  0  0  0  0  0
  -27.9140  -12.6680   18.2260 C   0  0  0  0  0  2  0  0  0  0  0  0
  -27.6410  -13.4570   19.5340 C   0  0  0  0  0  3  0  0  0  0  0  0
  -28.7830  -13.2670   20.5570 C   0  0  0  0  0  2  0  0  0  0  0  0
  -30.0350  -13.6590   19.8950 N   0  0  0  0  0  0  0  0  0  0  0  0
  -31.8250  -15.0130   19.5910 O   0  0  0  0  0  0  0  0  0  0  0  0
  -29.9330  -15.9470   20.4390 N   0  0  0  0  0  0  0  0  0  0  0  0
  -28.9830  -15.7210   20.6920 H   0  0  0  0  0  0  0  0  0  0  0  0
  -25.2960  -13.9790   20.4420 C   0  0  0  0  0  0  0  0  0  0  0  0
  -24.2710  -13.1720   20.8530 C   0  0  0  0  0  0  0  0  0  0  0  0
  -24.7560  -11.8320   20.7460 C   0  0  0  0  0  0  0  0  0  0  0  0
  -26.3360  -13.1300   20.1030 N   0  0  0  0  0  0  0  0  0  0  0  0
  -26.0220  -11.8310   20.3520 N   0  0  0  0  0  0  0  0  0  0  0  0
  -24.0670  -10.5480   20.9380 C   0  0  0  0  0  0  0  0  0  0  0  0
  -24.4960   -9.6160   21.9090 C   0  0  0  0  0  3  0  0  0  0  0  0
  -23.8050   -8.3990   22.0880 C   0  0  0  0  0  3  0  0  0  0  0  0
  -22.6700   -8.1040   21.2950 C   0  0  0  0  0  0  0  0  0  0  0  0
  -22.2600   -9.0240   20.3150 C   0  0  0  0  0  3  0  0  0  0  0  0
  -22.9540  -10.2330   20.1350 C   0  0  0  0  0  3  0  0  0  0  0  0
  -21.9520   -6.9350   21.3820 O   0  0  0  0  0  0  0  0  0  0  0  0
  -21.7940   -6.2750   22.5740 C   0  0  0  0  0  0  0  0  0  0  0  0
  -21.1780   -6.8850   23.6890 C   0  0  0  0  0  3  0  0  0  0  0  0
  -20.9730   -6.1460   24.8720 C   0  0  0  0  0  3  0  0  0  0  0  0
  -21.3720   -4.7980   24.9390 C   0  0  0  0  0  0  0  0  0  0  0  0
  -21.9780   -4.1870   23.8280 C   0  0  0  0  0  3  0  0  0  0  0  0
  -22.1850   -4.9220   22.6480 C   0  0  0  0  0  0  0  0  0  0  0  0
  -22.7520   -4.3220   21.5740 F   0  0  0  0  0  0  0  0  0  0  0  0
  -21.1670   -4.0870   26.0720 F   0  0  0  0  0  0  0  0  0  0  0  0
  -22.8860  -13.6110   21.2290 C   0  0  0  0  0  0  0  0  0  0  0  0
  -22.2230  -12.8720   22.1130 N   0  0  0  0  0  0  0  0  0  0  0  0
  -22.3990  -14.6460   20.7730 O   0  0  0  0  0  0  0  0  0  0  0  0
  -22.6260  -12.0340   22.5040 H   0  0  0  0  0  0  0  0  0  0  0  0
  -21.2980  -13.1550   22.4040 H   0  0  0  0  0  0  0  0  0  0  0  0
  -25.4220  -15.3590   20.3000 N   0  0  0  0  0  0  0  0  0  0  0  0
  -24.6530  -15.9910   20.4920 H   0  0  0  0  0  0  0  0  0  0  0  0
  -26.2230  -15.8250   19.8970 H   0  0  0  0  0  0  0  0  0  0  0  0
  -27.4910  -21.0000   19.6520 C   0  0  0  0  0  2  0  0  0  0  0  0
  -25.0130  -24.0300   17.7250 C   0  0  0  0  0  2  0  0  0  0  0  0
  -26.5080  -24.0680   17.3540 C   0  0  0  0  0  2  0  0  0  0  0  0
  -24.4890  -22.5900   17.7540 C   0  0  0  0  0  2  0  0  0  0  0  0
  -27.2930  -22.8380   17.8560 C   0  0  0  0  0  2  0  0  0  0  0  0
  -25.2160  -21.7300   18.8070 C   0  0  0  0  0  2  0  0  0  0  0  0
  -26.6640  -22.1920   19.1140 C   0  0  0  0  0  3  0  0  0  0  0  0
  -29.2640  -22.6050   20.7100 C   0  0  0  0  0  3  0  0  0  0  0  0
  -30.6380  -22.5350   21.1950 N   0  0  0  0  0  0  0  0  0  0  0  0
  -30.8160  -23.3390   21.7910 H   0  0  0  0  0  0  0  0  0  0  0  0
  -31.2830  -22.6740   20.4230 H   0  0  0  0  0  0  0  0  0  0  0  0
  -29.0990  -24.0490   19.9950 C   0  0  0  0  0  3  0  0  0  0  0  0
  -28.4810  -25.2700   20.8330 C   0  0  0  0  0  3  0  0  0  0  0  0
  -28.5940  -26.6730   20.3560 O   0  0  0  0  0  0  0  0  0  0  0  0
  -24.6480  -31.9880   23.2860 C   0  0  0  0  0  0  0  0  0  0  0  0
  -27.4450  -27.4730   20.3380 C   0  0  0  0  0  0  0  0  0  0  0  0
  -23.5180  -30.5440   21.6310 C   0  0  0  0  0  3  0  0  0  0  0  0
  -25.0390  -29.0120   20.2590 C   0  0  0  0  0  0  0  0  0  0  0  0
  -26.0500  -30.9290   21.4980 C   0  0  0  0  0  2  0  0  0  0  0  0
  -26.1810  -29.5470   20.8690 C   0  0  0  0  0  0  0  0  0  0  0  0
  -27.3930  -28.7920   20.8890 C   0  0  0  0  0  3  0  0  0  0  0  0
  -26.2780  -26.9770   19.7210 C   0  0  0  0  0  3  0  0  0  0  0  0
  -25.0870  -27.7320   19.6790 C   0  0  0  0  0  3  0  0  0  0  0  0
  -23.7800  -29.8550   20.2650 C   0  0  0  0  0  2  0  0  0  0  0  0
  -24.7570  -31.1730   22.1950 N   0  0  0  0  0  0  0  0  0  0  0  0
  -23.5470  -32.2420   23.7950 O   0  0  0  0  0  0  0  0  0  0  0  0
  -22.8580  -29.5210   22.5870 C   0  0  0  0  0  0  0  0  0  0  0  0
  -21.5410  -29.3110   22.4320 N   0  0  0  0  0  0  0  0  0  0  0  0
  -23.5340  -28.9200   23.4260 O   0  0  0  0  0  0  0  0  0  0  0  0
  -21.0530  -29.8510   21.7310 H   0  0  0  0  0  0  0  0  0  0  0  0
  -18.1780  -28.0580   22.8820 C   0  0  0  0  0  0  0  0  0  0  0  0
  -20.7270  -28.3590   23.1910 C   0  0  0  0  0  3  0  0  0  0  0  0
  -20.8630  -26.9300   22.6140 C   0  0  0  0  0  2  0  0  0  0  0  0
  -19.7790  -26.5880   21.5880 C   0  0  0  0  0  2  0  0  0  0  0  0
  -18.3870  -26.7110   22.2120 C   0  0  0  0  0  2  0  0  0  0  0  0
  -19.2770  -28.8380   23.3290 C   0  0  0  0  0  0  0  0  0  0  0  0
  -19.0280  -30.0980   23.9150 C   0  0  0  0  0  3  0  0  0  0  0  0
  -17.7130  -30.5770   24.0630 C   0  0  0  0  0  3  0  0  0  0  0  0
  -16.6270  -29.7940   23.6330 C   0  0  0  0  0  3  0  0  0  0  0  0
  -16.8610  -28.5350   23.0490 C   0  0  0  0  0  3  0  0  0  0  0  0
  -25.9000  -32.6570   23.9320 C   0  0  0  0  0  3  0  0  0  0  0  0
  -26.3850  -31.9310   25.2480 C   0  0  1  0  0  0  0  0  0  0  0  0
  -25.2590  -31.7010   26.2820 C   0  0  0  0  0  1  0  0  0  0  0  0
  -27.0090  -30.5560   24.9170 C   0  0  0  0  0  1  0  0  0  0  0  0
  -27.4940  -32.7670   25.9310 C   0  0  0  0  0  1  0  0  0  0  0  0
  -25.5610  -34.0580   24.2140 N   0  0  0  0  0  0  0  0  0  0  0  0
  -25.9080  -35.0960   23.4410 C   0  0  0  0  0  0  0  0  0  0  0  0
  -26.6140  -34.9750   22.4380 O   0  0  0  0  0  0  0  0  0  0  0  0
  -24.9380  -34.2270   24.9900 H   0  0  0  0  0  0  0  0  0  0  0  0
  -24.1730  -36.8570   22.9740 C   0  0  0  0  0  1  0  0  0  0  0  0
  -25.3860  -36.4890   23.8440 C   0  0  0  0  0  3  0  0  0  0  0  0
  -27.4710  -37.4250   24.7410 C   0  0  0  0  0  1  0  0  0  0  0  0
  -26.4100  -37.5520   23.7460 N   0  0  0  0  0  0  0  0  0  0  0  0
  -25.9870  -38.4690   23.8510 H   0  0  0  0  0  0  0  0  0  0  0  0
  1 46  1  0
  1  2  1  0
  1 53  1  0
  2  3  1  0
  2  4  1  0
  5  7  1  0
  5  2  1  0
  7  6  1  0
  8 16  1  0
  9 14  1  0
 10 11  1  0
 10  9  1  0
 12 11  1  0
 12 21  1  0
 12 13  1  0
 14  8  1  0
 14 13  1  0
 15  8  2  0
 16  7  1  0
 16 17  1  0
 18 19  2  0
 19 38  1  0
 20 19  1  0
 20 23  1  0
 21 22  1  0
 21 18  1  0
 22 20  2  0
 23 24  1  0
 24 25  2  0
 26 29  1  0
 26 25  1  0
 27 26  2  0
 28 27  1  0
 28 23  2  0
 29 30  1  0
 30 35  2  0
 30 31  1  0
 31 32  2  0
 32 33  1  0
 33 37  1  0
 34 33  2  0
 35 34  1  0
 36 35  1  0
 38 39  1  0
 39 42  1  0
 39 41  1  0
 40 38  2  0
 43 18  1  0
 43 44  1  0
 45 43  1  0
 47 49  1  0
 48 47  1  0
 48 50  1  0
 49 51  1  0
 50 52  1  0
 51 52  1  0
 52 46  1  0
 53 57  1  0
 53 54  1  0
 54 55  1  0
 56 54  1  0
 57 58  2  0
 59 58  1  0
 60 71  2  0
 61 59  1  0
 61 66  1  0
 62 70  1  0
 62 72  1  0
 63 69  1  0
 63 65  1  0
 64 70  1  0
 65 66  2  0
 65 64  1  0
 67 61  2  0
 68 67  1  0
 68 63  2  0
 69 62  1  0
 70 60  1  0
 72 74  2  0
 73 72  1  0
 75 73  1  0
 76 85  2  0
 76 81  1  0
 77 73  1  0
 77 81  1  0
 78 77  1  0
 79 80  1  0
 79 78  1  0
 80 76  1  0
 81 82  2  0
 82 83  1  0
 84 83  2  0
 85 84  1  0
 86 60  1  0
 86 91  1  0
 86 87  1  0
 87 90  1  1
 87 88  1  0
 89 87  1  0
 91 94  1  0
 92 96  1  0
 92 91  1  0
 93 92  2  0
 96 95  1  0
 98 96  1  0
 98 99  1  0
 98 97  1  0
M  ISO  4   8 100  16 100  58 101  59 101
M  END
>  <TORSDO>  (29) 
F 25

>  <SCORE>  (29) 
-11.978

>  <name>  (29) 
28

>  <ligand_id>  (29) 
28

>  <original_smiles>  (29) 
[H]c1c([H])c([H])c2c(c1[H])C([H])([H])C([H])([H])C([H])([H])C2([H])N([H])C(=O)C1([H])N(C(=O)C([H])(N([H])C(=O)C([H])(N([H])C([H])([H])[H])C([H])([H])[H])C(C([H])([H])[H])(C([H])([H])[H])C([H])([H])[H])C([H])([H])c2c([H])c(OC([H])([H])C([H])([H])C([H])(N([H])[H])C([H])(C([H])([H])C3([H])C([H])([H])C([H])([H])C([H])([H])C([H])([H])C3([H])[H])[N+]([H])([H])C([H])([H])C([H])(N([H])C(=O)N3C([H])([H])C([H])([H])C([H])([H])C([H])(n4nc(-c5c([H])c([H])c(Oc6c([H])c([H])c(F)c([H])c6F)c([H])c5[H])c(C(=O)N([H])[H])c4N([H])[H])C3([H])[H])C([H])([H])[H])c([H])c([H])c2C1([H])[H]

>  <smiles>  (29) 
[H]c1c([H])c([H])c2c(c1[H])C([H])([H])C([H])([H])C([H])([H])C2([H])N([H])C(=O)C1([H])N(C(=O)C([H])(N([H])C(=O)C([H])(N([H])C([H])([H])[H])C([H])([H])[H])C(C([H])([H])[H])(C([H])([H])[H])C([H])([H])[H])C([H])([H])c2c([H])c(OC([H])([H])C([H])([H])C([H])(N([H])[H])C([H])(C([H])([H])C3([H])C([H])([H])C([H])([H])C([H])([H])C([H])([H])C3([H])[H])[N+]([H])([H])C([H])([H])C([H])(N([H])C(=O)N3C([H])([H])C([H])([H])C([H])([H])C([H])(n4nc(-c5c([H])c([H])c(Oc6c([H])c([H])c(F)c([H])c6F)c([H])c5[H])c(C(=O)N([H])[H])c4N([H])[H])C3([H])[H])C([H])([H])[H])c([H])c([H])c2C1([H])[H]

$$$$
29:0:0
     RDKit          3D

 97 93  0  0  1  0  0  0  0  0999 V2000
  -25.6430  -15.9620   19.7180 C   0  0  0  0  0  1  0  0  0  0  0  0
  -25.0430  -14.1130   20.1600 C   0  0  0  0  0  1  0  0  0  0  0  0
  -25.2730  -13.4490   18.9830 N   0  0  0  0  0  0  0  0  0  0  0  0
  -24.2820  -13.2090   22.4580 O   0  0  0  0  0 15  0  0  0  0  0  0
  -25.3180  -13.8820   18.0670 H   0  0  0  0  0  0  0  0  0  0  0  0
  -25.2950  -12.4390   19.0260 H   0  0  0  0  0  0  0  0  0  0  0  0
  -26.7580  -15.7950   18.7770 N   0  0  0  0  0  4  0  0  0  0  0  0
  -26.8670  -16.7520   19.0710 H   0  0  0  0  0  0  0  0  0  0  0  0
  -26.7970  -14.9160   19.2860 H   0  0  0  0  0  0  0  0  0  0  0  0
  -28.1840  -15.8090   19.1090 C   0  0  0  0  0  2  0  0  0  0  0  0
  -28.8620  -17.1560   18.7920 C   0  0  0  0  0  2  0  0  0  0  0  0
  -28.7450  -18.2740   19.8630 C   0  0  0  0  0  2  0  0  0  0  0  0
  -29.9090  -19.2810   19.7890 C   0  0  0  0  0  2  0  0  0  0  0  0
  -30.3620  -19.9400   21.1100 C   0  0  0  0  0  2  0  0  0  0  0  0
  -32.6500  -20.1840   22.0550 C   0  0  0  0  0  0  0  0  0  0  0  0
  -34.6810  -20.8250   20.8310 C   0  0  0  0  0  2  0  0  0  0  0  0
  -34.4080  -20.5670   19.3300 C   0  0  0  0  0  2  0  0  0  0  0  0
  -34.7040  -19.1190   19.0310 C   0  0  0  0  0  2  0  0  0  0  0  0
  -33.8890  -18.2570   20.0280 C   0  0  0  0  0  3  0  0  0  0  0  0
  -34.3330  -18.5140   21.4480 C   0  0  0  0  0  2  0  0  0  0  0  0
  -33.8960  -19.8660   21.6360 N   0  0  0  0  0  0  0  0  0  0  0  0
  -32.3600  -21.2930   22.4790 O   0  0  0  0  0  0  0  0  0  0  0  0
  -31.6580  -19.4120   21.5830 N   0  0  0  0  0  0  0  0  0  0  0  0
  -31.9520  -18.5340   21.1880 H   0  0  0  0  0  0  0  0  0  0  0  0
  -33.4310  -14.9100   20.2290 C   0  0  0  0  0  1  0  0  0  0  0  0
  -34.8910  -13.7150   19.6320 C   0  0  0  0  0  1  0  0  0  0  0  0
  -36.4940  -14.7820   18.9850 C   0  0  0  0  0  1  0  0  0  0  0  0
  -34.1600  -16.9840   19.8540 N   0  0  0  0  0  1  0  0  0  0  0  0
  -36.0960  -16.7230   19.0420 N   0  0  0  0  0 15  0  0  0  0  0  0
  -37.9040  -14.4700   19.4110 C   0  0  0  0  0  0  0  0  0  0  0  0
  -38.5390  -14.6790   20.6890 C   0  0  0  0  0  3  0  0  0  0  0  0
  -39.9020  -14.2930   20.9010 C   0  0  0  0  0  3  0  0  0  0  0  0
  -40.6200  -13.6910   19.8340 C   0  0  0  0  0  0  0  0  0  0  0  0
  -39.9760  -13.5040   18.6070 C   0  0  0  0  0  3  0  0  0  0  0  0
  -38.6480  -13.8770   18.4060 C   0  0  0  0  0  3  0  0  0  0  0  0
  -41.9470  -13.3310   19.8190 O   0  0  0  0  0  0  0  0  0  0  0  0
  -42.6180  -12.8510   20.9100 C   0  0  0  0  0  0  0  0  0  0  0  0
  -42.1610  -11.7470   21.6620 C   0  0  0  0  0  3  0  0  0  0  0  0
  -42.9470  -11.2520   22.7250 C   0  0  0  0  0  3  0  0  0  0  0  0
  -44.1860  -11.8510   23.0270 C   0  0  0  0  0  0  0  0  0  0  0  0
  -44.6480  -12.9360   22.2630 C   0  0  0  0  0  3  0  0  0  0  0  0
  -43.8700  -13.4260   21.2030 C   0  0  0  0  0  0  0  0  0  0  0  0
  -44.3310  -14.4510   20.4460 F   0  0  0  0  0  0  0  0  0  0  0  0
  -44.9370  -11.3820   24.0490 F   0  0  0  0  0  0  0  0  0  0  0  0
  -34.9250  -12.4190   19.0370 C   0  0  0  0  0  0  0  0  0  0  0  0
  -35.9300  -11.6700   19.4550 N   0  0  0  0  0  0  0  0  0  0  0  0
  -34.2360  -12.2130   18.0520 O   0  0  0  0  0  0  0  0  0  0  0  0
  -36.5070  -11.9660   20.2280 H   0  0  0  0  0  0  0  0  0  0  0  0
  -36.0980  -10.7720   19.0230 H   0  0  0  0  0  0  0  0  0  0  0  0
  -32.1250  -14.7960   20.3860 N   0  0  0  0  0  0  0  0  0  0  0  0
  -31.8120  -13.8900   20.7180 H   0  0  0  0  0  0  0  0  0  0  0  0
  -31.7270  -15.5250   20.9650 H   0  0  0  0  0  0  0  0  0  0  0  0
  -25.5090  -17.9850   19.8330 C   0  0  0  0  0 15  0  0  0  0  0  0
  -26.3800  -19.7650   20.1430 C   0  0  0  0  0 15  0  0  0  0  0  0
  -26.6070  -21.6860   19.5960 C   0  0  0  0  0 15  0  0  0  0  0  0
  -26.8470  -23.5850   20.1890 C   0  0  0  0  0  1  0  0  0  0  0  0
  -27.4190  -25.2770   19.8510 O   0  0  0  0  0  0  0  0  0  0  0  0
  -24.6400  -31.9470   22.8620 C   0  0  0  0  0  0  0  0  0  0  0  0
  -26.7580  -26.6800   19.8720 C   0  0  0  0  0  0  0  0  0  0  0  0
  -23.4090  -30.5480   21.2820 C   0  0  0  0  0  3  0  0  0  0  0  0
  -24.7620  -28.9020   19.8170 C   0  0  0  0  0  0  0  0  0  0  0  0
  -25.9920  -30.6090   21.1180 C   0  0  0  0  0  2  0  0  0  0  0  0
  -25.9790  -29.1720   20.4530 C   0  0  0  0  0  0  0  0  0  0  0  0
  -26.9980  -28.0700   20.4500 C   0  0  0  0  0  3  0  0  0  0  0  0
  -25.5840  -26.6790   19.1300 C   0  0  0  0  0  3  0  0  0  0  0  0
  -24.6130  -27.7010   19.1260 C   0  0  0  0  0  3  0  0  0  0  0  0
  -23.6040  -29.8980   19.8910 C   0  0  0  0  0  2  0  0  0  0  0  0
  -24.7100  -31.0730   21.8010 N   0  0  0  0  0  0  0  0  0  0  0  0
  -23.5570  -32.2550   23.3910 O   0  0  0  0  0  0  0  0  0  0  0  0
  -22.7460  -29.5440   22.2640 C   0  0  0  0  0  0  0  0  0  0  0  0
  -21.4320  -29.2910   22.1150 N   0  0  0  0  0  0  0  0  0  0  0  0
  -23.4190  -29.0040   23.1450 O   0  0  0  0  0  0  0  0  0  0  0  0
  -20.9330  -29.7810   21.3850 H   0  0  0  0  0  0  0  0  0  0  0  0
  -18.1400  -27.8220   22.5430 C   0  0  0  0  0  0  0  0  0  0  0  0
  -20.6470  -28.3400   22.9130 C   0  0  0  0  0  3  0  0  0  0  0  0
  -20.9030  -26.8830   22.4610 C   0  0  0  0  0  2  0  0  0  0  0  0
  -19.8950  -26.3880   21.4190 C   0  0  0  0  0  2  0  0  0  0  0  0
  -18.4720  -26.4500   21.9800 C   0  0  0  0  0  2  0  0  0  0  0  0
  -19.1610  -28.7150   22.9670 C   0  0  0  0  0  0  0  0  0  0  0  0
  -18.7930  -29.9870   23.4560 C   0  0  0  0  0  3  0  0  0  0  0  0
  -17.4410  -30.3740   23.5210 C   0  0  0  0  0  3  0  0  0  0  0  0
  -16.4350  -29.4820   23.1100 C   0  0  0  0  0  3  0  0  0  0  0  0
  -16.7850  -28.2060   22.6290 C   0  0  0  0  0  3  0  0  0  0  0  0
  -25.9110  -32.6230   23.4540 C   0  0  0  0  0  3  0  0  0  0  0  0
  -25.5520  -34.0000   23.8500 N   0  0  0  0  0  0  0  0  0  0  0  0
  -25.8060  -35.1060   23.1370 C   0  0  0  0  0  0  0  0  0  0  0  0
  -26.4320  -35.0790   22.0760 O   0  0  0  0  0  0  0  0  0  0  0  0
  -24.9890  -34.0920   24.6820 H   0  0  0  0  0  0  0  0  0  0  0  0
  -23.9920  -36.8470   22.9670 C   0  0  0  0  0  1  0  0  0  0  0  0
  -25.2900  -36.4530   23.6870 C   0  0  0  0  0  3  0  0  0  0  0  0
  -27.4320  -37.3930   24.4400 C   0  0  0  0  0  1  0  0  0  0  0  0
  -26.2690  -37.5570   23.5720 N   0  0  0  0  0  0  0  0  0  0  0  0
  -25.8330  -38.4470   23.7980 H   0  0  0  0  0  0  0  0  0  0  0  0
  -26.5000  -31.8480   24.6990 C   0  0  1  0  0  0  0  0  0  0  0  0
  -25.4530  -31.5220   25.7890 C   0  0  0  0  0  1  0  0  0  0  0  0
  -27.1510  -30.5120   24.2770 C   0  0  0  0  0  1  0  0  0  0  0  0
  -27.6200  -32.6900   25.3530 C   0  0  0  0  0  1  0  0  0  0  0  0
  3  6  1  0
  3  2  1  0
  5  3  1  0
  7  8  1  0
  7 10  1  0
  7  9  1  0
  7  1  1  0
 11 10  1  0
 11 12  1  0
 13 12  1  0
 13 14  1  0
 14 23  1  0
 15 22  2  0
 16 21  1  0
 17 16  1  0
 18 17  1  0
 18 19  1  0
 19 28  1  0
 19 20  1  0
 20 21  1  0
 21 15  1  0
 23 15  1  0
 24 23  1  0
 25 50  1  0
 27 30  1  0
 30 31  1  0
 31 32  2  0
 33 32  1  0
 34 33  2  0
 35 34  1  0
 35 30  2  0
 36 33  1  0
 36 37  1  0
 37 42  2  0
 37 38  1  0
 38 39  2  0
 39 40  1  0
 40 44  1  0
 41 40  2  0
 42 41  1  0
 43 42  1  0
 45 46  1  0
 45 26  1  0
 46 48  1  0
 47 45  2  0
 49 46  1  0
 50 51  1  0
 50 52  1  0
 57 59  1  0
 57 56  1  0
 58 69  2  0
 59 64  1  0
 60 68  1  0
 60 70  1  0
 61 67  1  0
 61 63  1  0
 62 68  1  0
 63 62  1  0
 64 63  2  0
 65 59  2  0
 66 65  1  0
 66 61  2  0
 67 60  1  0
 68 58  1  0
 70 72  2  0
 71 70  1  0
 73 71  1  0
 74 83  2  0
 74 79  1  0
 75 71  1  0
 75 79  1  0
 76 75  1  0
 77 78  1  0
 77 76  1  0
 78 74  1  0
 79 80  2  0
 80 81  1  0
 82 81  2  0
 83 82  1  0
 84 58  1  0
 84 85  1  0
 84 94  1  0
 85 88  1  0
 86 90  1  0
 86 85  1  0
 87 86  2  0
 90 89  1  0
 92 90  1  0
 92 93  1  0
 92 91  1  0
 94 97  1  1
 94 95  1  0
 96 94  1  0
M  ISO  4  15 100  23 100  56 101  57 101
M  END
>  <TORSDO>  (30) 
F 27

>  <SCORE>  (30) 
-2.719

>  <name>  (30) 
29

>  <ligand_id>  (30) 
29

>  <original_smiles>  (30) 
[H]c1c([H])c([H])c2c(c1[H])C([H])([H])C([H])([H])C([H])([H])C2([H])N([H])C(=O)C1([H])N(C(=O)C([H])(N([H])C(=O)C([H])(N([H])C([H])([H])[H])C([H])([H])[H])C(C([H])([H])[H])(C([H])([H])[H])C([H])([H])[H])C([H])([H])c2c([H])c(OC([H])([H])C([H])([H])C([H])([H])C([H])([H])C([H])(C(=O)N([H])[H])[N+]([H])([H])C([H])([H])C([H])([H])C([H])([H])C([H])([H])C([H])([H])N([H])C(=O)N3C([H])([H])C([H])([H])C([H])([H])C([H])(n4nc(-c5c([H])c([H])c(Oc6c([H])c([H])c(F)c([H])c6F)c([H])c5[H])c(C(=O)N([H])[H])c4N([H])[H])C3([H])[H])c([H])c([H])c2C1([H])[H]

>  <smiles>  (30) 
[H]c1c([H])c([H])c2c(c1[H])C([H])([H])C([H])([H])C([H])([H])C2([H])N([H])C(=O)C1([H])N(C(=O)C([H])(N([H])C(=O)C([H])(N([H])C([H])([H])[H])C([H])([H])[H])C(C([H])([H])[H])(C([H])([H])[H])C([H])([H])[H])C([H])([H])c2c([H])c(OC([H])([H])C([H])([H])C([H])([H])C([H])([H])C([H])(C(=O)N([H])[H])[N+]([H])([H])C([H])([H])C([H])([H])C([H])([H])C([H])([H])C([H])([H])N([H])C(=O)N3C([H])([H])C([H])([H])C([H])([H])C([H])(n4nc(-c5c([H])c([H])c(Oc6c([H])c([H])c(F)c([H])c6F)c([H])c5[H])c(C(=O)N([H])[H])c4N([H])[H])C3([H])[H])c([H])c([H])c2C1([H])[H]

$$$$
30:0:0
     RDKit          3D

 96103  0  0  1  0  0  0  0  0999 V2000
  -28.3190  -22.5120   21.9070 C   0  0  0  0  0  1  0  0  0  0  0  0
  -28.7400  -22.5950   20.4270 C   0  0  0  0  0  3  0  0  0  0  0  0
  -29.6850  -21.3620   19.9770 C   0  0  0  0  0  2  0  0  0  0  0  0
  -29.9040  -20.0580   20.8970 C   0  0  0  0  0  3  0  0  0  0  0  0
  -30.0480  -18.6480   20.1350 C   0  0  0  0  0  3  0  0  0  0  0  0
  -30.0560  -17.2610   20.9500 C   0  0  0  0  0  3  0  0  0  0  0  0
  -31.1880  -14.9580   20.5200 C   0  0  0  0  0  0  0  0  0  0  0  0
  -30.9780  -12.6530   19.6300 C   0  0  0  0  0  2  0  0  0  0  0  0
  -30.1030  -12.7060   18.3570 C   0  0  0  0  0  2  0  0  0  0  0  0
  -28.6090  -12.5970   18.7190 C   0  0  0  0  0  2  0  0  0  0  0  0
  -28.2010  -13.5520   19.8740 C   0  0  0  0  0  3  0  0  0  0  0  0
  -29.1980  -13.5120   21.0520 C   0  0  0  0  0  2  0  0  0  0  0  0
  -30.5330  -13.7600   20.4980 N   0  0  0  0  0  0  0  0  0  0  0  0
  -32.4070  -15.0220   20.3430 O   0  0  0  0  0  0  0  0  0  0  0  0
  -30.4460  -16.0470   20.1610 N   0  0  0  0  0  0  0  0  0  0  0  0
  -30.7370  -16.3370   19.2370 H   0  0  0  0  0  0  0  0  0  0  0  0
  -25.8040  -14.2380   20.4960 C   0  0  0  0  0  0  0  0  0  0  0  0
  -24.7010  -13.5030   20.8230 C   0  0  0  0  0  0  0  0  0  0  0  0
  -25.1180  -12.1390   20.8170 C   0  0  0  0  0  0  0  0  0  0  0  0
  -26.8290  -13.3230   20.3120 N   0  0  0  0  0  0  0  0  0  0  0  0
  -26.4160  -12.0550   20.5650 N   0  0  0  0  0  0  0  0  0  0  0  0
  -24.3460  -10.9020   20.9710 C   0  0  0  0  0  0  0  0  0  0  0  0
  -24.7200   -9.9060   21.9010 C   0  0  0  0  0  3  0  0  0  0  0  0
  -23.9430   -8.7350   22.0450 C   0  0  0  0  0  3  0  0  0  0  0  0
  -22.7820   -8.5520   21.2580 C   0  0  0  0  0  0  0  0  0  0  0  0
  -22.4310   -9.5350   20.3140 C   0  0  0  0  0  3  0  0  0  0  0  0
  -23.2060  -10.6950   20.1670 C   0  0  0  0  0  3  0  0  0  0  0  0
  -21.9810   -7.4360   21.3160 O   0  0  0  0  0  0  0  0  0  0  0  0
  -21.8710   -6.6840   22.4580 C   0  0  0  0  0  0  0  0  0  0  0  0
  -21.4350   -7.2420   23.6810 C   0  0  0  0  0  3  0  0  0  0  0  0
  -21.2790   -6.4200   24.8150 C   0  0  0  0  0  3  0  0  0  0  0  0
  -21.5380   -5.0400   24.7220 C   0  0  0  0  0  0  0  0  0  0  0  0
  -21.9610   -4.4800   23.5040 C   0  0  0  0  0  3  0  0  0  0  0  0
  -22.1260   -5.3000   22.3760 C   0  0  0  0  0  0  0  0  0  0  0  0
  -22.5170   -4.7550   21.1980 F   0  0  0  0  0  0  0  0  0  0  0  0
  -21.3770   -4.2450   25.8050 F   0  0  0  0  0  0  0  0  0  0  0  0
  -23.3100  -14.0280   21.0380 C   0  0  0  0  0  0  0  0  0  0  0  0
  -22.5300  -13.3650   21.8840 N   0  0  0  0  0  0  0  0  0  0  0  0
  -22.9280  -15.0610   20.4880 O   0  0  0  0  0  0  0  0  0  0  0  0
  -22.8610  -12.5310   22.3460 H   0  0  0  0  0  0  0  0  0  0  0  0
  -21.5940  -13.6920   22.0760 H   0  0  0  0  0  0  0  0  0  0  0  0
  -26.0220  -15.6020   20.3170 N   0  0  0  0  0  0  0  0  0  0  0  0
  -25.2610  -16.2720   20.3390 H   0  0  0  0  0  0  0  0  0  0  0  0
  -26.8910  -15.9920   19.9790 H   0  0  0  0  0  0  0  0  0  0  0  0
  -31.1150  -20.2880   21.8440 C   0  0  0  0  0  2  0  0  0  0  0  0
  -30.7990  -19.9510   23.2470 N   0  0  0  0  0  4  0  0  0  0  0  0
  -29.8520  -20.2030   23.4520 H   0  0  0  0  0  0  0  0  0  0  0  0
  -31.4040  -20.4520   23.8730 H   0  0  0  0  0  0  0  0  0  0  0  0
  -30.9160  -18.9720   23.4320 H   0  0  0  0  0  0  0  0  0  0  0  0
  -29.2280  -24.1050   20.1180 C   0  0  0  0  0  3  0  0  0  0  0  0
  -29.6170  -24.2610   18.6980 N   0  0  0  0  0  4  0  0  0  0  0  0
  -30.0450  -23.4200   18.3510 H   0  0  0  0  0  0  0  0  0  0  0  0
  -30.2890  -25.0050   18.6070 H   0  0  0  0  0  0  0  0  0  0  0  0
  -28.8380  -24.4920   18.1040 H   0  0  0  0  0  0  0  0  0  0  0  0
  -28.2190  -25.2810   20.5340 C   0  0  0  0  0  2  0  0  0  0  0  0
  -28.5020  -26.7100   20.2480 O   0  0  0  0  0  0  0  0  0  0  0  0
  -24.6140  -31.9920   23.2980 C   0  0  0  0  0  0  0  0  0  0  0  0
  -27.3840  -27.5530   20.2090 C   0  0  0  0  0  0  0  0  0  0  0  0
  -23.4670  -30.5840   21.6270 C   0  0  0  0  0  3  0  0  0  0  0  0
  -24.9780  -29.0940   20.1910 C   0  0  0  0  0  0  0  0  0  0  0  0
  -25.9970  -30.9720   21.4810 C   0  0  0  0  0  2  0  0  0  0  0  0
  -26.1230  -29.6030   20.8160 C   0  0  0  0  0  0  0  0  0  0  0  0
  -27.3350  -28.8430   20.8180 C   0  0  0  0  0  3  0  0  0  0  0  0
  -26.2290  -27.1160   19.5180 C   0  0  0  0  0  3  0  0  0  0  0  0
  -25.0370  -27.8610   19.5210 C   0  0  0  0  0  3  0  0  0  0  0  0
  -23.7140  -29.9330   20.2390 C   0  0  0  0  0  2  0  0  0  0  0  0
  -24.7100  -31.1970   22.1930 N   0  0  0  0  0  0  0  0  0  0  0  0
  -23.5160  -32.2410   23.8170 O   0  0  0  0  0  0  0  0  0  0  0  0
  -22.8170  -29.5410   22.5690 C   0  0  0  0  0  0  0  0  0  0  0  0
  -21.5040  -29.3110   22.4040 N   0  0  0  0  0  0  0  0  0  0  0  0
  -23.4950  -28.9450   23.4120 O   0  0  0  0  0  0  0  0  0  0  0  0
  -21.0180  -29.8470   21.6980 H   0  0  0  0  0  0  0  0  0  0  0  0
  -18.1770  -27.9410   22.7660 C   0  0  0  0  0  0  0  0  0  0  0  0
  -20.6970  -28.3480   23.1580 C   0  0  0  0  0  3  0  0  0  0  0  0
  -20.9050  -26.9120   22.6210 C   0  0  0  0  0  2  0  0  0  0  0  0
  -19.8790  -26.5120   21.5590 C   0  0  0  0  0  2  0  0  0  0  0  0
  -18.4610  -26.5920   22.1280 C   0  0  0  0  0  2  0  0  0  0  0  0
  -19.2290  -28.7740   23.2340 C   0  0  0  0  0  0  0  0  0  0  0  0
  -18.9080  -30.0350   23.7880 C   0  0  0  0  0  3  0  0  0  0  0  0
  -17.5720  -30.4620   23.8760 C   0  0  0  0  0  3  0  0  0  0  0  0
  -16.5360  -29.6270   23.4230 C   0  0  0  0  0  3  0  0  0  0  0  0
  -16.8390  -28.3690   22.8740 C   0  0  0  0  0  3  0  0  0  0  0  0
  -25.8720  -32.6520   23.9450 C   0  0  0  0  0  3  0  0  0  0  0  0
  -26.3590  -31.9130   25.2520 C   0  0  1  0  0  0  0  0  0  0  0  0
  -25.2350  -31.6670   26.2860 C   0  0  0  0  0  1  0  0  0  0  0  0
  -26.9830  -30.5440   24.9000 C   0  0  0  0  0  1  0  0  0  0  0  0
  -27.4740  -32.7390   25.9320 C   0  0  0  0  0  1  0  0  0  0  0  0
  -25.5400  -34.0560   24.2320 N   0  0  0  0  0  0  0  0  0  0  0  0
  -25.9080  -35.0920   23.4690 C   0  0  0  0  0  0  0  0  0  0  0  0
  -26.6240  -34.9690   22.4710 O   0  0  0  0  0  0  0  0  0  0  0  0
  -24.9010  -34.2230   24.9960 H   0  0  0  0  0  0  0  0  0  0  0  0
  -24.1850  -36.8680   23.0070 C   0  0  0  0  0  1  0  0  0  0  0  0
  -25.3980  -36.4920   23.8730 C   0  0  0  0  0  3  0  0  0  0  0  0
  -27.5000  -37.4030   24.7550 C   0  0  0  0  0  1  0  0  0  0  0  0
  -26.4320  -37.5440   23.7700 N   0  0  0  0  0  0  0  0  0  0  0  0
  -26.0170  -38.4660   23.8850 H   0  0  0  0  0  0  0  0  0  0  0  0
  2  1  1  0
  3  2  1  0
  4  3  1  0
  4 45  1  0
  5  4  1  0
  5  6  2  0
  8 13  1  0
  9 10  1  0
  9  8  1  0
 11 10  1  0
 11 20  1  0
 11 12  1  0
 13  7  1  0
 13 12  1  0
 14  7  2  0
 15  7  1  0
 15  6  1  0
 16 15  1  0
 17 18  2  0
 18 37  1  0
 19 18  1  0
 19 22  1  0
 20 17  1  0
 20 21  1  0
 21 19  2  0
 22 23  1  0
 23 24  2  0
 25 28  1  0
 25 24  1  0
 26 25  2  0
 27 26  1  0
 27 22  2  0
 28 29  1  0
 29 30  1  0
 30 31  2  0
 32 31  1  0
 32 36  1  0
 33 32  2  0
 34 29  2  0
 34 33  1  0
 35 34  1  0
 37 38  1  0
 38 41  1  0
 38 40  1  0
 39 37  2  0
 42 43  1  0
 42 17  1  0
 44 42  1  0
 45 46  1  0
 46 49  1  0
 46 47  1  0
 46 48  1  0
 50  2  1  0
 50 55  1  0
 51 50  1  0
 52 51  1  0
 53 51  1  0
 54 51  1  0
 56 55  1  0
 57 68  2  0
 58 56  1  0
 58 63  1  0
 59 67  1  0
 59 69  1  0
 60 66  1  0
 60 62  1  0
 61 67  1  0
 62 63  2  0
 62 61  1  0
 64 65  1  0
 64 58  2  0
 65 60  2  0
 66 59  1  0
 67 57  1  0
 69 71  2  0
 70 69  1  0
 72 70  1  0
 73 82  2  0
 73 78  1  0
 74 70  1  0
 74 78  1  0
 75 74  1  0
 76 77  1  0
 76 75  1  0
 77 73  1  0
 78 79  2  0
 79 80  1  0
 81 80  2  0
 82 81  1  0
 83 57  1  0
 83 88  1  0
 83 84  1  0
 84 87  1  1
 84 85  1  0
 86 84  1  0
 88 91  1  0
 89 93  1  0
 89 88  1  0
 90 89  2  0
 93 92  1  0
 95 93  1  0
 95 96  1  0
 95 94  1  0
M  ISO  4   7 100  15 100  55 101  56 101
M  END
>  <TORSDO>  (31) 
F 25

>  <SCORE>  (31) 
-12.182

>  <name>  (31) 
30

>  <ligand_id>  (31) 
30

>  <original_smiles>  (31) 
[H]c1c([H])c([H])c2c(c1[H])C([H])([H])C([H])([H])C([H])([H])C2([H])N([H])C(=O)C1([H])N(C(=O)C([H])(N([H])C(=O)C([H])(N([H])C([H])([H])[H])C([H])([H])[H])C(C([H])([H])[H])(C([H])([H])[H])C([H])([H])[H])C([H])([H])c2c([H])c(OC([H])([H])C([H])(C([H])(C([H])([H])[H])C([H])([H])C([H])(C([H])([H])C([H])([H])N([H])C(=O)N3C([H])([H])C([H])([H])C([H])([H])C([H])(n4nc(-c5c([H])c([H])c(Oc6c([H])c([H])c(F)c([H])c6F)c([H])c5[H])c(C(=O)N([H])[H])c4N([H])[H])C3([H])[H])C([H])([H])[N+]([H])([H])[H])[N+]([H])([H])[H])c([H])c([H])c2C1([H])[H]

>  <smiles>  (31) 
[H]c1c([H])c([H])c2c(c1[H])C([H])([H])C([H])([H])C([H])([H])C2([H])N([H])C(=O)C1([H])N(C(=O)C([H])(N([H])C(=O)C([H])(N([H])C([H])([H])[H])C([H])([H])[H])C(C([H])([H])[H])(C([H])([H])[H])C([H])([H])[H])C([H])([H])c2c([H])c(OC([H])([H])C([H])(C([H])(C([H])([H])[H])C([H])([H])C([H])(C([H])([H])C([H])([H])N([H])C(=O)N3C([H])([H])C([H])([H])C([H])([H])C([H])(n4nc(-c5c([H])c([H])c(Oc6c([H])c([H])c(F)c([H])c6F)c([H])c5[H])c(C(=O)N([H])[H])c4N([H])[H])C3([H])[H])C([H])([H])[N+]([H])([H])[H])[N+]([H])([H])[H])c([H])c([H])c2C1([H])[H]

$$$$
32:0:0
     RDKit          3D

107114  0  0  1  0  0  0  0  0999 V2000
  -24.1030  -24.2870   18.9560 C   0  0  0  0  0  2  0  0  0  0  0  0
  -25.4540  -23.5430   18.9660 C   0  0  0  0  0  2  0  0  0  0  0  0
  -26.2060  -23.5580   17.6210 C   0  0  0  0  0  2  0  0  0  0  0  0
  -28.4400  -24.5110   18.1230 C   0  0  0  0  0  0  0  0  0  0  0  0
  -27.2380  -24.5900   17.5300 N   0  0  0  0  0  0  0  0  0  0  0  0
  -28.7160  -23.6140   18.9240 O   0  0  0  0  0  0  0  0  0  0  0  0
  -27.0760  -25.3340   16.8630 H   0  0  0  0  0  0  0  0  0  0  0  0
  -29.5200  -25.5320   17.7310 C   0  0  0  0  0  3  0  0  0  0  0  0
  -30.8310  -25.0940   18.2490 N   0  0  0  0  0  4  0  0  0  0  0  0
  -30.7980  -25.1080   19.2540 H   0  0  0  0  0  0  0  0  0  0  0  0
  -31.5810  -25.6790   17.9300 H   0  0  0  0  0  0  0  0  0  0  0  0
  -30.9980  -24.1460   17.9660 H   0  0  0  0  0  0  0  0  0  0  0  0
  -29.2180  -26.9730   18.1850 C   0  0  0  0  0  2  0  0  0  0  0  0
  -29.0330  -27.0300   19.6040 O   0  0  0  0  0  0  0  0  0  0  0  0
  -26.3330  -30.3610   25.2730 C   0  0  0  0  0  0  0  0  0  0  0  0
  -28.0260  -27.8330   20.0880 C   0  0  0  0  0  0  0  0  0  0  0  0
  -24.9030  -30.3470   23.2550 C   0  0  0  0  0  3  0  0  0  0  0  0
  -26.0180  -29.5330   21.1150 C   0  0  0  0  0  0  0  0  0  0  0  0
  -27.4470  -30.2120   23.0520 C   0  0  0  0  0  2  0  0  0  0  0  0
  -27.2410  -29.4080   21.7860 C   0  0  0  0  0  0  0  0  0  0  0  0
  -28.2440  -28.5530   21.2810 C   0  0  0  0  0  3  0  0  0  0  0  0
  -26.7740  -27.9430   19.4420 C   0  0  0  0  0  3  0  0  0  0  0  0
  -25.7730  -28.7940   19.9460 C   0  0  0  0  0  3  0  0  0  0  0  0
  -25.0050  -30.4810   21.7130 C   0  0  0  0  0  2  0  0  0  0  0  0
  -26.2460  -30.2830   23.9150 N   0  0  0  0  0  0  0  0  0  0  0  0
  -25.3220  -30.5270   25.9690 O   0  0  0  0  0  0  0  0  0  0  0  0
  -24.0000  -29.1370   23.5840 C   0  0  0  0  0  0  0  0  0  0  0  0
  -22.6980  -29.2640   23.2800 N   0  0  0  0  0  0  0  0  0  0  0  0
  -24.4740  -28.1090   24.0730 O   0  0  0  0  0  0  0  0  0  0  0  0
  -22.3870  -30.1410   22.8880 H   0  0  0  0  0  0  0  0  0  0  0  0
  -19.2820  -28.3980   22.4890 C   0  0  0  0  0  0  0  0  0  0  0  0
  -21.6690  -28.2430   23.4690 C   0  0  0  0  0  3  0  0  0  0  0  0
  -21.8800  -27.0540   22.5040 C   0  0  0  0  0  2  0  0  0  0  0  0
  -21.0940  -27.1940   21.1950 C   0  0  0  0  0  2  0  0  0  0  0  0
  -19.5930  -27.3070   21.4790 C   0  0  0  0  0  2  0  0  0  0  0  0
  -20.2620  -28.8490   23.4140 C   0  0  0  0  0  0  0  0  0  0  0  0
  -19.9320  -29.8900   24.3090 C   0  0  0  0  0  3  0  0  0  0  0  0
  -18.6520  -30.4740   24.2920 C   0  0  0  0  0  3  0  0  0  0  0  0
  -17.6810  -30.0140   23.3860 C   0  0  0  0  0  3  0  0  0  0  0  0
  -17.9950  -28.9760   22.4910 C   0  0  0  0  0  3  0  0  0  0  0  0
  -27.7050  -30.2710   26.0120 C   0  0  0  0  0  3  0  0  0  0  0  0
  -27.7770  -31.4020   26.9470 N   0  0  0  0  0  0  0  0  0  0  0  0
  -28.4640  -32.5310   26.7210 C   0  0  0  0  0  0  0  0  0  0  0  0
  -29.1700  -32.6980   25.7230 O   0  0  0  0  0  0  0  0  0  0  0  0
  -27.1810  -31.3560   27.7600 H   0  0  0  0  0  0  0  0  0  0  0  0
  -27.3860  -34.7360   27.2650 C   0  0  0  0  0  1  0  0  0  0  0  0
  -28.3490  -33.6510   27.7720 C   0  0  0  0  0  3  0  0  0  0  0  0
  -30.5330  -33.3630   28.8560 C   0  0  0  0  0  1  0  0  0  0  0  0
  -29.6490  -34.2640   28.1220 N   0  0  0  0  0  0  0  0  0  0  0  0
  -29.5130  -35.1020   28.6810 H   0  0  0  0  0  0  0  0  0  0  0  0
  -27.9140  -28.9040   26.7710 C   0  0  1  0  0  0  0  0  0  0  0  0
  -26.7450  -28.5320   27.7130 C   0  0  0  0  0  1  0  0  0  0  0  0
  -28.0990  -27.7440   25.7640 C   0  0  0  0  0  1  0  0  0  0  0  0
  -29.2070  -28.9660   27.6180 C   0  0  0  0  0  1  0  0  0  0  0  0
  -23.6850  -24.7680   20.3600 C   0  0  0  0  0  2  0  0  0  0  0  0
  -24.0070  -23.7520   21.3840 N   0  0  0  0  0  4  0  0  0  0  0  0
  -23.1590  -23.4520   21.8400 H   0  0  0  0  0  0  0  0  0  0  0  0
  -24.3840  -22.9540   20.9010 H   0  0  0  0  0  0  0  0  0  0  0  0
  -24.9980  -24.1490   22.4080 C   0  0  0  0  0  2  0  0  0  0  0  0
  -26.1980  -23.1770   22.4200 C   0  0  0  0  0  2  0  0  0  0  0  0
  -26.8520  -22.9960   21.0330 C   0  0  0  0  0  2  0  0  0  0  0  0
  -26.9910  -21.5220   20.6130 C   0  0  0  0  0  2  0  0  0  0  0  0
  -27.0740  -21.3360   19.0850 C   0  0  0  0  0  2  0  0  0  0  0  0
  -25.8720  -20.5620   18.5160 C   0  0  0  0  0  2  0  0  0  0  0  0
  -25.4160  -21.0760   17.1420 C   0  0  0  0  0  2  0  0  0  0  0  0
  -23.8880  -21.0500   16.9860 C   0  0  0  0  0  2  0  0  0  0  0  0
  -23.3670  -21.9930   15.8870 C   0  0  0  0  0  2  0  0  0  0  0  0
  -21.8310  -21.9690   15.8120 C   0  0  0  0  0  2  0  0  0  0  0  0
  -21.1860  -22.9730   14.8260 C   0  0  0  0  0  2  0  0  0  0  0  0
  -20.6430  -25.3960   14.7370 C   0  0  0  0  0  0  0  0  0  0  0  0
  -18.5260  -26.6540   15.0260 C   0  0  0  0  0  2  0  0  0  0  0  0
  -18.5870  -27.5970   16.2460 C   0  0  0  0  0  2  0  0  0  0  0  0
  -18.2460  -26.8540   17.5560 C   0  0  0  0  0  2  0  0  0  0  0  0
  -19.0200  -25.5170   17.6970 C   0  0  0  0  0  3  0  0  0  0  0  0
  -18.8750  -24.6980   16.4020 C   0  0  0  0  0  2  0  0  0  0  0  0
  -19.3990  -25.4940   15.2790 N   0  0  0  0  0  0  0  0  0  0  0  0
  -21.1060  -26.2460   13.9670 O   0  0  0  0  0  0  0  0  0  0  0  0
  -21.4120  -24.3820   15.1740 N   0  0  0  0  0  0  0  0  0  0  0  0
  -22.3910  -24.6200   15.1280 H   0  0  0  0  0  0  0  0  0  0  0  0
  -19.3210  -24.0420   19.7940 C   0  0  0  0  0  0  0  0  0  0  0  0
  -18.4220  -23.5770   20.7190 C   0  0  0  0  0  0  0  0  0  0  0  0
  -17.1440  -24.0480   20.2970 C   0  0  0  0  0  0  0  0  0  0  0  0
  -18.5750  -24.7540   18.8660 N   0  0  0  0  0  0  0  0  0  0  0  0
  -17.2500  -24.7100   19.1530 N   0  0  0  0  0  0  0  0  0  0  0  0
  -15.8280  -23.9570   20.9430 C   0  0  0  0  0  0  0  0  0  0  0  0
  -14.7130  -23.4120   20.2660 C   0  0  0  0  0  3  0  0  0  0  0  0
  -13.4630  -23.3200   20.9150 C   0  0  0  0  0  3  0  0  0  0  0  0
  -13.3170  -23.7680   22.2490 C   0  0  0  0  0  0  0  0  0  0  0  0
  -14.4250  -24.3360   22.9060 C   0  0  0  0  0  3  0  0  0  0  0  0
  -15.6680  -24.4320   22.2600 C   0  0  0  0  0  3  0  0  0  0  0  0
  -12.1360  -23.7420   22.9500 O   0  0  0  0  0  0  0  0  0  0  0  0
  -11.1810  -22.7880   22.7130 C   0  0  0  0  0  0  0  0  0  0  0  0
  -11.4600  -21.4080   22.8310 C   0  0  0  0  0  3  0  0  0  0  0  0
  -10.4280  -20.4640   22.6520 C   0  0  0  0  0  3  0  0  0  0  0  0
   -9.1210  -20.8940   22.3580 C   0  0  0  0  0  0  0  0  0  0  0  0
   -8.8430  -22.2680   22.2430 C   0  0  0  0  0  3  0  0  0  0  0  0
   -9.8690  -23.2110   22.4250 C   0  0  0  0  0  0  0  0  0  0  0  0
   -9.5890  -24.5340   22.3360 F   0  0  0  0  0  0  0  0  0  0  0  0
   -8.1290  -19.9870   22.1930 F   0  0  0  0  0  0  0  0  0  0  0  0
  -18.7390  -22.8180   21.9730 C   0  0  0  0  0  0  0  0  0  0  0  0
  -17.8270  -21.9590   22.4200 N   0  0  0  0  0  0  0  0  0  0  0  0
  -19.8200  -22.9540   22.5440 O   0  0  0  0  0  0  0  0  0  0  0  0
  -16.9490  -21.8220   21.9400 H   0  0  0  0  0  0  0  0  0  0  0  0
  -18.0150  -21.4190   23.2520 H   0  0  0  0  0  0  0  0  0  0  0  0
  -20.7010  -23.9340   19.6720 N   0  0  0  0  0  0  0  0  0  0  0  0
  -21.2710  -23.4420   20.3510 H   0  0  0  0  0  0  0  0  0  0  0  0
  -21.2430  -24.3410   18.9210 H   0  0  0  0  0  0  0  0  0  0  0  0
  1  2  1  0
  1 55  1  0
  3  2  1  0
  4  6  2  0
  5  3  1  0
  5  4  1  0
  7  5  1  0
  8  4  1  0
  8 13  1  0
  8  9  1  0
  9 10  1  0
 11  9  1  0
 12  9  1  0
 13 14  1  0
 14 16  1  0
 15 26  2  0
 16 21  1  0
 17 27  1  0
 17 25  1  0
 18 24  1  0
 18 20  1  0
 19 25  1  0
 20 19  1  0
 21 20  2  0
 22 23  1  0
 22 16  2  0
 23 18  2  0
 24 17  1  0
 25 15  1  0
 27 29  2  0
 28 27  1  0
 30 28  1  0
 31 40  2  0
 31 36  1  0
 32 28  1  0
 33 32  1  0
 34 35  1  0
 34 33  1  0
 35 31  1  0
 36 32  1  0
 36 37  2  0
 38 37  1  0
 39 38  2  0
 40 39  1  0
 41 15  1  0
 41 51  1  0
 41 42  1  0
 42 45  1  0
 43 42  1  0
 43 47  1  0
 44 43  2  0
 47 46  1  0
 47 49  1  0
 49 50  1  0
 49 48  1  0
 51 54  1  1
 51 52  1  0
 53 51  1  0
 55 56  1  0
 56 57  1  0
 56 59  1  0
 58 56  1  0
 59 60  1  0
 61 60  1  0
 62 61  1  0
 63 62  1  0
 64 63  1  0
 65 64  1  0
 66 65  1  0
 67 66  1  0
 68 67  1  0
 69 78  1  0
 69 68  1  0
 70 78  1  0
 70 76  1  0
 71 76  1  0
 71 72  1  0
 72 73  1  0
 73 74  1  0
 74 75  1  0
 74 83  1  0
 76 75  1  0
 77 70  2  0
 79 78  1  0
 80 81  2  0
 81100  1  0
 82 81  1  0
 82 85  1  0
 83 84  1  0
 83 80  1  0
 84 82  2  0
 85 90  1  0
 86 87  1  0
 86 85  2  0
 87 88  2  0
 88 89  1  0
 88 91  1  0
 90 89  2  0
 92 93  1  0
 92 91  1  0
 94 93  2  0
 95 94  1  0
 96 95  2  0
 96 97  1  0
 97 92  2  0
 98 97  1  0
 99 95  1  0
100101  1  0
100102  2  0
101104  1  0
103101  1  0
105 80  1  0
105106  1  0
107105  1  0
M  ISO  4  13 101  14 101  70 100  78 100
M  END
>  <TORSDO>  (32) 
F 35

>  <SCORE>  (32) 
-3.651

>  <name>  (32) 
32

>  <ligand_id>  (32) 
32

>  <original_smiles>  (32) 
[H]c1c([H])c([H])c2c(c1[H])C([H])([H])C([H])([H])C([H])([H])C2([H])N([H])C(=O)C1([H])N(C(=O)C([H])(N([H])C(=O)C([H])(N([H])C([H])([H])[H])C([H])([H])[H])C(C([H])([H])[H])(C([H])([H])[H])C([H])([H])[H])C([H])([H])c2c([H])c(OC([H])([H])C([H])(C(=O)N([H])C([H])([H])C([H])([H])C([H])([H])C([H])([H])[N+]([H])([H])C([H])([H])C([H])([H])C([H])([H])C([H])([H])C([H])([H])C([H])([H])C([H])([H])C([H])([H])C([H])([H])C([H])([H])C([H])([H])N([H])C(=O)N3C([H])([H])C([H])([H])C([H])([H])C([H])(n4nc(-c5c([H])c([H])c(Oc6c([H])c([H])c(F)c([H])c6F)c([H])c5[H])c(C(=O)N([H])[H])c4N([H])[H])C3([H])[H])[N+]([H])([H])[H])c([H])c([H])c2C1([H])[H]

>  <smiles>  (32) 
[H]c1c([H])c([H])c2c(c1[H])C([H])([H])C([H])([H])C([H])([H])C2([H])N([H])C(=O)C1([H])N(C(=O)C([H])(N([H])C(=O)C([H])(N([H])C([H])([H])[H])C([H])([H])[H])C(C([H])([H])[H])(C([H])([H])[H])C([H])([H])[H])C([H])([H])c2c([H])c(OC([H])([H])C([H])(C(=O)N([H])C([H])([H])C([H])([H])C([H])([H])C([H])([H])[N+]([H])([H])C([H])([H])C([H])([H])C([H])([H])C([H])([H])C([H])([H])C([H])([H])C([H])([H])C([H])([H])C([H])([H])C([H])([H])C([H])([H])N([H])C(=O)N3C([H])([H])C([H])([H])C([H])([H])C([H])(n4nc(-c5c([H])c([H])c(Oc6c([H])c([H])c(F)c([H])c6F)c([H])c5[H])c(C(=O)N([H])[H])c4N([H])[H])C3([H])[H])[N+]([H])([H])[H])c([H])c([H])c2C1([H])[H]

$$$$
33:0:0
     RDKit          3D

 94101  0  0  1  0  0  0  0  0999 V2000
  -28.5740  -21.7640   19.4390 C   0  0  0  0  0  3  0  0  0  0  0  0
  -27.3170  -19.0700   20.4750 C   0  0  0  0  0  2  0  0  0  0  0  0
  -26.5650  -20.4420   20.2990 C   0  0  0  0  0  2  0  0  0  0  0  0
  -28.2040  -18.5950   19.2850 C   0  0  0  0  0  2  0  0  0  0  0  0
  -28.9700  -20.2440   19.1600 N   0  0  0  0  0  0  0  0  0  0  0  0
  -27.3900  -21.6810   20.0920 N   0  0  0  0  0  0  0  0  0  0  0  0
  -29.8470  -20.1880   18.6570 H   0  0  0  0  0  0  0  0  0  0  0  0
  -26.9620  -22.5510   20.3820 H   0  0  0  0  0  0  0  0  0  0  0  0
  -29.1540  -23.5930   19.0550 C   0  0  0  0  0  2  0  0  0  0  0  0
  -29.3490  -25.3090   19.6980 O   0  0  0  0  0  0  0  0  0  0  0  0
  -25.6250  -30.7390   23.7320 C   0  0  0  0  0  0  0  0  0  0  0  0
  -28.5840  -26.6830   19.7540 C   0  0  0  0  0  0  0  0  0  0  0  0
  -24.7120  -29.8200   21.6470 C   0  0  0  0  0  3  0  0  0  0  0  0
  -26.3920  -28.7590   19.9580 C   0  0  0  0  0  0  0  0  0  0  0  0
  -27.2720  -30.0770   21.8610 C   0  0  0  0  0  2  0  0  0  0  0  0
  -27.4730  -28.8900   20.8310 C   0  0  0  0  0  0  0  0  0  0  0  0
  -28.5690  -27.8760   20.7120 C   0  0  0  0  0  3  0  0  0  0  0  0
  -27.5560  -26.8780   18.8130 C   0  0  0  0  0  3  0  0  0  0  0  0
  -26.4920  -27.8160   18.9250 C   0  0  0  0  0  3  0  0  0  0  0  0
  -25.1290  -29.6070   20.1620 C   0  0  0  0  0  2  0  0  0  0  0  0
  -25.8880  -30.2400   22.4740 N   0  0  0  0  0  0  0  0  0  0  0  0
  -24.4670  -30.8090   24.1840 O   0  0  0  0  0  0  0  0  0  0  0  0
  -24.0230  -28.5450   22.2050 C   0  0  0  0  0  0  0  0  0  0  0  0
  -22.7680  -28.2730   21.7990 N   0  0  0  0  0  0  0  0  0  0  0  0
  -24.6300  -27.8100   22.9870 O   0  0  0  0  0  0  0  0  0  0  0  0
  -22.3210  -28.9250   21.1710 H   0  0  0  0  0  0  0  0  0  0  0  0
  -19.6990  -26.4400   21.1540 C   0  0  0  0  0  0  0  0  0  0  0  0
  -21.9920  -27.0820   22.1680 C   0  0  0  0  0  3  0  0  0  0  0  0
  -22.5380  -25.8220   21.4550 C   0  0  0  0  0  2  0  0  0  0  0  0
  -21.8240  -25.5200   20.1330 C   0  0  0  0  0  2  0  0  0  0  0  0
  -20.3270  -25.2990   20.3700 C   0  0  0  0  0  2  0  0  0  0  0  0
  -20.4820  -27.2860   21.9850 C   0  0  0  0  0  0  0  0  0  0  0  0
  -19.8490  -28.3460   22.6690 C   0  0  0  0  0  3  0  0  0  0  0  0
  -18.4660  -28.5690   22.5320 C   0  0  0  0  0  3  0  0  0  0  0  0
  -17.6950  -27.7230   21.7170 C   0  0  0  0  0  3  0  0  0  0  0  0
  -18.3100  -26.6580   21.0350 C   0  0  0  0  0  3  0  0  0  0  0  0
  -26.7580  -31.2630   24.6630 C   0  0  0  0  0  3  0  0  0  0  0  0
  -26.3680  -32.6000   25.1580 N   0  0  0  0  0  0  0  0  0  0  0  0
  -27.0340  -33.7400   24.9250 C   0  0  0  0  0  0  0  0  0  0  0  0
  -28.0950  -33.7700   24.2970 O   0  0  0  0  0  0  0  0  0  0  0  0
  -25.4780  -32.6590   25.6280 H   0  0  0  0  0  0  0  0  0  0  0  0
  -25.7900  -35.8510   24.3300 C   0  0  0  0  0  1  0  0  0  0  0  0
  -26.4350  -35.0520   25.4750 C   0  0  0  0  0  3  0  0  0  0  0  0
  -27.9040  -35.3270   27.4260 C   0  0  0  0  0  1  0  0  0  0  0  0
  -27.4180  -35.9080   26.1770 N   0  0  0  0  0  0  0  0  0  0  0  0
  -27.0190  -36.8180   26.3860 H   0  0  0  0  0  0  0  0  0  0  0  0
  -27.0420  -30.3090   25.8900 C   0  0  1  0  0  0  0  0  0  0  0  0
  -25.7700  -29.9060   26.6740 C   0  0  0  0  0  1  0  0  0  0  0  0
  -27.7360  -29.0050   25.4400 C   0  0  0  0  0  1  0  0  0  0  0  0
  -28.0130  -30.9990   26.8780 C   0  0  0  0  0  1  0  0  0  0  0  0
  -28.4610  -16.6020   19.6810 C   0  0  0  0  0 15  0  0  0  0  0  0
  -28.0480  -14.5550   19.7920 C   0  0  2  0  0  0  0  0  0  0  0  0
  -30.8920  -13.9040   18.5010 C   0  0  0  0  0  0  0  0  0  0  0  0
  -31.5920  -11.4160   18.1510 C   0  0  0  0  0  2  0  0  0  0  0  0
  -30.4430  -10.6070   17.4050 C   0  0  0  0  0  2  0  0  0  0  0  0
  -29.0110  -10.6620   18.0190 C   0  0  0  0  0  2  0  0  0  0  0  0
  -28.9350  -12.0690   18.4290 C   0  0  0  0  0  3  0  0  0  0  0  0
  -30.0350  -12.1510   19.5830 C   0  0  0  0  0  2  0  0  0  0  0  0
  -31.0740  -12.6150   18.8650 N   0  0  0  0  0  0  0  0  0  0  0  0
  -31.7940  -14.2610   17.6940 O   0  0  0  0  0  0  0  0  0  0  0  0
  -29.6370  -14.6020   19.0130 N   0  0  0  0  0  0  0  0  0  0  0  0
  -29.7520  -15.5460   18.6730 H   0  0  0  0  0  0  0  0  0  0  0  0
  -26.6840  -14.1440   19.2220 C   0  0  0  0  0  3  0  0  0  0  0  0
  -25.7470  -13.7040   20.6230 C   0  0  0  0  0  3  0  0  0  0  0  0
  -26.0130  -12.0340   21.1050 C   0  0  0  0  0  3  0  0  0  0  0  0
  -27.7960  -12.5390   18.9440 N   0  0  0  0  0  2  0  0  0  0  0  0
  -27.2810  -11.4690   20.2730 N   0  0  0  0  0  2  0  0  0  0  0  0
  -24.8530  -10.8720   21.0740 C   0  0  0  0  0  0  0  0  0  0  0  0
  -25.0740   -9.5660   21.6120 C   0  0  0  0  0  3  0  0  0  0  0  0
  -24.0840   -8.5370   21.7380 C   0  0  0  0  0  3  0  0  0  0  0  0
  -22.7520   -8.7060   21.2920 C   0  0  0  0  0  0  0  0  0  0  0  0
  -22.5090   -9.9190   20.6010 C   0  0  0  0  0  3  0  0  0  0  0  0
  -23.5210  -10.9440   20.4810 C   0  0  0  0  0  3  0  0  0  0  0  0
  -21.7380   -7.7530   21.4520 O   0  0  0  0  0  0  0  0  0  0  0  0
  -21.8100   -6.7200   22.3830 C   0  0  0  0  0  0  0  0  0  0  0  0
  -21.8060   -6.9740   23.7720 C   0  0  0  0  0  3  0  0  0  0  0  0
  -21.8560   -5.9150   24.7060 C   0  0  0  0  0  3  0  0  0  0  0  0
  -21.8960   -4.5780   24.2620 C   0  0  0  0  0  0  0  0  0  0  0  0
  -21.8760   -4.3080   22.8820 C   0  0  0  0  0  3  0  0  0  0  0  0
  -21.8220   -5.3690   21.9520 C   0  0  0  0  0  0  0  0  0  0  0  0
  -21.7760   -5.0720   20.6310 F   0  0  0  0  0  0  0  0  0  0  0  0
  -21.9620   -3.5590   25.1540 F   0  0  0  0  0  0  0  0  0  0  0  0
  -24.3430  -14.1900   20.8010 C   0  0  0  0  0  0  0  0  0  0  0  0
  -23.6570  -13.8120   21.8870 N   0  0  0  0  0  0  0  0  0  0  0  0
  -23.8340  -14.8990   19.9500 O   0  0  0  0  0  0  0  0  0  0  0  0
  -24.0700  -13.2200   22.5930 H   0  0  0  0  0  0  0  0  0  0  0  0
  -22.7070  -14.1210   22.0110 H   0  0  0  0  0  0  0  0  0  0  0  0
  -26.9130  -15.3140   18.6170 N   0  0  0  0  0  4  0  0  0  0  0  0
  -26.2350  -16.0650   18.6620 H   0  0  0  0  0  0  0  0  0  0  0  0
  -27.4630  -15.3370   17.7660 H   0  0  0  0  0  0  0  0  0  0  0  0
  -28.4630  -14.3130   21.3330 C   0  0  0  0  0  2  0  0  0  0  0  0
  -30.7990  -13.6720   22.2370 C   0  0  0  0  0  1  0  0  0  0  0  0
  -28.8400  -12.1870   22.8090 C   0  0  0  0  0  1  0  0  0  0  0  0
  -29.4310  -13.1470   21.7560 C   0  0  0  0  0  3  0  0  0  0  0  0
  1  6  1  0
  3  2  1  0
  4  2  1  0
  5  4  1  0
  5  1  1  0
  6  3  1  0
  6  8  1  0
  7  5  1  0
  9  1  1  0
  9 10  1  0
 10 12  1  0
 11 22  2  0
 12 17  1  0
 13 23  1  0
 13 21  1  0
 14 20  1  0
 14 16  1  0
 15 21  1  0
 16 15  1  0
 17 16  2  0
 18 19  1  0
 18 12  2  0
 19 14  2  0
 20 13  1  0
 21 11  1  0
 23 25  2  0
 24 23  1  0
 26 24  1  0
 27 32  1  0
 28 24  1  0
 29 28  1  0
 30 31  1  0
 30 29  1  0
 31 27  1  0
 32 28  1  0
 32 33  2  0
 34 33  1  0
 35 34  2  0
 36 27  2  0
 36 35  1  0
 37 11  1  0
 37 38  1  0
 37 47  1  0
 38 41  1  0
 39 38  1  0
 39 43  1  0
 40 39  2  0
 43 42  1  0
 43 45  1  0
 45 46  1  0
 45 44  1  0
 47 48  1  1
 47 50  1  0
 49 47  1  0
 52 91  1  1
 53 59  1  0
 53 61  1  0
 54 59  1  0
 55 56  1  0
 55 54  1  0
 57 56  1  0
 57 66  1  0
 57 58  1  0
 59 58  1  0
 60 53  2  0
 61 52  1  0
 62 61  1  0
 63 88  1  0
 63 52  1  0
 63 64  1  0
 64 83  1  0
 64 65  1  0
 65 68  1  0
 66 67  1  0
 67 65  1  0
 68 69  1  0
 69 70  2  0
 71 74  1  0
 71 70  1  0
 72 71  2  0
 73 72  1  0
 73 68  2  0
 74 75  1  0
 75 76  1  0
 76 77  2  0
 78 77  1  0
 78 82  1  0
 79 78  2  0
 80 75  2  0
 80 79  1  0
 81 80  1  0
 83 84  1  0
 84 87  1  0
 84 86  1  0
 85 83  2  0
 88 89  1  0
 88 52  1  0
 90 88  1  0
 91 94  1  0
 94 92  1  0
 94 93  1  0
M  ISO  4   9 101  10 101  53 100  61 100
M  END
>  <TORSDO>  (33) 
F 21

>  <SCORE>  (33) 
-3.716

>  <name>  (33) 
33

>  <ligand_id>  (33) 
33

>  <original_smiles>  (33) 
[H]c1c([H])c([H])c2c(c1[H])C([H])([H])C([H])([H])C([H])([H])C2([H])N([H])C(=O)C1([H])N(C(=O)C([H])(N([H])C(=O)C([H])(N([H])C([H])([H])[H])C([H])([H])[H])C(C([H])([H])[H])(C([H])([H])[H])C([H])([H])[H])C([H])([H])c2c([H])c(OC([H])([H])C3=[N+]([H])C([H])([H])C([H])([H])C([H])(C([H])([H])C([H])(N([H])C(=O)N4C([H])([H])C([H])([H])C([H])([H])C([H])(n5nc(-c6c([H])c([H])c(Oc7c([H])c([H])c(F)c([H])c7F)c([H])c6[H])c(C(=O)N([H])[H])c5N([H])[H])C4([H])[H])C([H])([H])C([H])(C([H])([H])[H])C([H])([H])[H])N3[H])c([H])c([H])c2C1([H])[H]

>  <smiles>  (33) 
[H]c1c([H])c([H])c2c(c1[H])C([H])([H])C([H])([H])C([H])([H])C2([H])N([H])C(=O)C1([H])N(C(=O)C([H])(N([H])C(=O)C([H])(N([H])C([H])([H])[H])C([H])([H])[H])C(C([H])([H])[H])(C([H])([H])[H])C([H])([H])[H])C([H])([H])c2c([H])c(OC([H])([H])C3=[N+]([H])C([H])([H])C([H])([H])C([H])(C([H])([H])C([H])(N([H])C(=O)N4C([H])([H])C([H])([H])C([H])([H])C([H])(n5nc(-c6c([H])c([H])c(Oc7c([H])c([H])c(F)c([H])c7F)c([H])c6[H])c(C(=O)N([H])[H])c5N([H])[H])C4([H])[H])C([H])([H])C([H])(C([H])([H])[H])C([H])([H])[H])N3[H])c([H])c([H])c2C1([H])[H]

$$$$
34:0:0
     RDKit          3D

 92100  0  0  1  0  0  0  0  0999 V2000
  -28.7640  -18.4910   20.0390 C   0  0  0  0  0  0  0  0  0  0  0  0
  -27.3740  -21.6440   18.3490 C   0  0  0  0  0  2  0  0  0  0  0  0
  -28.6700  -22.4530   18.3620 C   0  0  0  0  0  2  0  0  0  0  0  0
  -27.4970  -20.2180   18.9200 C   0  0  0  0  0  2  0  0  0  0  0  0
  -29.0860  -22.6550   19.8080 C   0  0  0  0  0  3  0  0  0  0  0  0
  -29.3400  -21.1420   20.4180 C   0  0  0  0  0  3  0  0  0  0  0  0
  -29.4320  -21.1580   21.9510 C   0  0  0  0  0  1  0  0  0  0  0  0
  -28.5970  -19.8990   19.8760 N   0  0  0  0  0  0  0  0  0  0  0  0
  -27.8440  -17.7400   19.6840 O   0  0  0  0  0  0  0  0  0  0  0  0
  -31.2550  -18.0490   19.7910 C   0  0  0  0  0  1  0  0  0  0  0  0
  -30.0060  -17.6400   20.5930 C   0  0  0  0  0  3  0  0  0  0  0  0
  -30.6160  -14.9860   20.2530 C   0  0  0  0  0  0  0  0  0  0  0  0
  -30.4580  -12.7100   19.2100 C   0  0  0  0  0  2  0  0  0  0  0  0
  -29.4900  -12.7580   18.0070 C   0  0  0  0  0  2  0  0  0  0  0  0
  -28.0320  -12.5620   18.4660 C   0  0  0  0  0  2  0  0  0  0  0  0
  -27.6760  -13.4410   19.6950 C   0  0  0  0  0  3  0  0  0  0  0  0
  -28.7520  -13.3410   20.7930 C   0  0  0  0  0  2  0  0  0  0  0  0
  -30.0220  -13.7430   20.1820 N   0  0  0  0  0  0  0  0  0  0  0  0
  -31.7890  -15.1010   19.8870 O   0  0  0  0  0  0  0  0  0  0  0  0
  -29.8170  -16.0920   20.5550 N   0  0  0  0  0  0  0  0  0  0  0  0
  -28.8630  -15.8320   20.7630 H   0  0  0  0  0  0  0  0  0  0  0  0
  -25.3150  -14.0100   20.5070 C   0  0  0  0  0  0  0  0  0  0  0  0
  -24.2620  -13.2250   20.8950 C   0  0  0  0  0  0  0  0  0  0  0  0
  -24.7270  -11.8780   20.8240 C   0  0  0  0  0  0  0  0  0  0  0  0
  -26.3480  -13.1370   20.2130 N   0  0  0  0  0  0  0  0  0  0  0  0
  -26.0050  -11.8470   20.4710 N   0  0  0  0  0  0  0  0  0  0  0  0
  -24.0110  -10.6090   21.0130 C   0  0  0  0  0  0  0  0  0  0  0  0
  -24.4520   -9.6430   21.9450 C   0  0  0  0  0  3  0  0  0  0  0  0
  -23.7350   -8.4390   22.1210 C   0  0  0  0  0  3  0  0  0  0  0  0
  -22.5650   -8.1950   21.3630 C   0  0  0  0  0  0  0  0  0  0  0  0
  -22.1440   -9.1500   20.4210 C   0  0  0  0  0  3  0  0  0  0  0  0
  -22.8620  -10.3440   20.2450 C   0  0  0  0  0  3  0  0  0  0  0  0
  -21.8170   -7.0440   21.4510 O   0  0  0  0  0  0  0  0  0  0  0  0
  -21.7380   -6.3240   22.6160 C   0  0  0  0  0  0  0  0  0  0  0  0
  -21.1960   -6.8730   23.7980 C   0  0  0  0  0  3  0  0  0  0  0  0
  -21.0730   -6.0760   24.9530 C   0  0  0  0  0  3  0  0  0  0  0  0
  -21.4790   -4.7280   24.9260 C   0  0  0  0  0  0  0  0  0  0  0  0
  -22.0090   -4.1770   23.7470 C   0  0  0  0  0  3  0  0  0  0  0  0
  -22.1380   -4.9730   22.5960 C   0  0  0  0  0  0  0  0  0  0  0  0
  -22.6340   -4.4300   21.4590 F   0  0  0  0  0  0  0  0  0  0  0  0
  -21.3520   -3.9610   26.0340 F   0  0  0  0  0  0  0  0  0  0  0  0
  -22.8720  -13.6940   21.2150 C   0  0  0  0  0  0  0  0  0  0  0  0
  -22.1710  -12.9760   22.0850 N   0  0  0  0  0  0  0  0  0  0  0  0
  -22.4150  -14.7280   20.7290 O   0  0  0  0  0  0  0  0  0  0  0  0
  -22.5510  -12.1380   22.5000 H   0  0  0  0  0  0  0  0  0  0  0  0
  -21.2400  -13.2680   22.3440 H   0  0  0  0  0  0  0  0  0  0  0  0
  -25.4740  -15.3840   20.3560 N   0  0  0  0  0  0  0  0  0  0  0  0
  -24.7350  -16.0420   20.5730 H   0  0  0  0  0  0  0  0  0  0  0  0
  -26.2810  -15.8290   19.9330 H   0  0  0  0  0  0  0  0  0  0  0  0
  -28.1580  -23.8260   20.4700 C   0  0  0  0  0  2  0  0  0  0  0  0
  -28.6720  -25.3340   20.8210 C   0  0  0  0  0  2  0  0  0  0  0  0
  -28.5390  -26.6020   20.0240 O   0  0  0  0  0  0  0  0  0  0  0  0
  -24.6340  -31.8860   23.2180 C   0  0  0  0  0  0  0  0  0  0  0  0
  -27.4000  -27.4320   20.0950 C   0  0  0  0  0  0  0  0  0  0  0  0
  -23.4970  -30.5180   21.5040 C   0  0  0  0  0  3  0  0  0  0  0  0
  -25.0150  -29.0310   20.0650 C   0  0  0  0  0  0  0  0  0  0  0  0
  -26.0340  -30.8810   21.3900 C   0  0  0  0  0  2  0  0  0  0  0  0
  -26.1590  -29.5130   20.7170 C   0  0  0  0  0  0  0  0  0  0  0  0
  -27.3560  -28.7240   20.7220 C   0  0  0  0  0  3  0  0  0  0  0  0
  -26.2400  -27.0210   19.4080 C   0  0  0  0  0  3  0  0  0  0  0  0
  -25.0630  -27.7980   19.3940 C   0  0  0  0  0  3  0  0  0  0  0  0
  -23.7560  -29.8770   20.1110 C   0  0  0  0  0  2  0  0  0  0  0  0
  -24.7400  -31.1150   22.0950 N   0  0  0  0  0  0  0  0  0  0  0  0
  -23.5350  -32.1240   23.7390 O   0  0  0  0  0  0  0  0  0  0  0  0
  -22.8310  -29.4670   22.4190 C   0  0  0  0  0  0  0  0  0  0  0  0
  -21.5090  -29.2750   22.2660 N   0  0  0  0  0  0  0  0  0  0  0  0
  -23.5030  -28.8210   23.2270 O   0  0  0  0  0  0  0  0  0  0  0  0
  -21.0240  -29.8430   21.5850 H   0  0  0  0  0  0  0  0  0  0  0  0
  -18.1420  -28.0320   22.6930 C   0  0  0  0  0  0  0  0  0  0  0  0
  -20.6940  -28.2990   22.9900 C   0  0  0  0  0  3  0  0  0  0  0  0
  -20.8110  -26.8940   22.3530 C   0  0  0  0  0  2  0  0  0  0  0  0
  -19.7220  -26.6160   21.3110 C   0  0  0  0  0  2  0  0  0  0  0  0
  -18.3340  -26.7200   21.9510 C   0  0  0  0  0  2  0  0  0  0  0  0
  -19.2520  -28.7820   23.1670 C   0  0  0  0  0  0  0  0  0  0  0  0
  -19.0180  -30.0170   23.8150 C   0  0  0  0  0  3  0  0  0  0  0  0
  -17.7070  -30.4990   23.9920 C   0  0  0  0  0  3  0  0  0  0  0  0
  -16.6130  -29.7410   23.5400 C   0  0  0  0  0  3  0  0  0  0  0  0
  -16.8310  -28.5090   22.8970 C   0  0  0  0  0  3  0  0  0  0  0  0
  -25.8880  -32.5270   23.8930 C   0  0  0  0  0  3  0  0  0  0  0  0
  -26.3430  -31.7680   25.2000 C   0  0  1  0  0  0  0  0  0  0  0  0
  -25.2040  -31.5420   26.2230 C   0  0  0  0  0  1  0  0  0  0  0  0
  -26.9410  -30.3870   24.8490 C   0  0  0  0  0  1  0  0  0  0  0  0
  -27.4650  -32.5650   25.9080 C   0  0  0  0  0  1  0  0  0  0  0  0
  -25.5660  -33.9290   24.1980 N   0  0  0  0  0  0  0  0  0  0  0  0
  -25.9150  -34.9730   23.4360 C   0  0  0  0  0  0  0  0  0  0  0  0
  -26.6070  -34.8570   22.4220 O   0  0  0  0  0  0  0  0  0  0  0  0
  -24.9600  -34.0890   24.9880 H   0  0  0  0  0  0  0  0  0  0  0  0
  -24.2090  -36.7720   23.0090 C   0  0  0  0  0  1  0  0  0  0  0  0
  -25.4170  -36.3670   23.8670 C   0  0  0  0  0  3  0  0  0  0  0  0
  -27.5140  -37.2650   24.7770 C   0  0  0  0  0  1  0  0  0  0  0  0
  -26.4560  -37.4160   23.7820 N   0  0  0  0  0  0  0  0  0  0  0  0
  -26.0470  -38.3400   23.8900 H   0  0  0  0  0  0  0  0  0  0  0  0
  1 11  1  0
  2  3  1  0
  2  4  1  0
  3  5  1  0
  4  8  1  0
  5  6  1  0
  5 50  1  0
  6  7  1  0
  8  1  1  0
  8  6  1  0
  9  1  2  0
 11 10  1  0
 12 20  1  0
 13 18  1  0
 14 15  1  0
 14 13  1  0
 16 15  1  0
 16 25  1  0
 16 17  1  0
 18 12  1  0
 18 17  1  0
 19 12  2  0
 20 11  1  0
 20 21  1  0
 22 23  2  0
 23 42  1  0
 24 23  1  0
 24 27  1  0
 25 26  1  0
 25 22  1  0
 26 24  2  0
 27 28  1  0
 28 29  2  0
 30 33  1  0
 30 29  1  0
 31 30  2  0
 32 31  1  0
 32 27  2  0
 33 34  1  0
 34 35  1  0
 35 36  2  0
 37 36  1  0
 37 41  1  0
 38 37  2  0
 39 34  2  0
 39 38  1  0
 40 39  1  0
 42 43  1  0
 43 46  1  0
 43 45  1  0
 44 42  2  0
 47 22  1  0
 47 48  1  0
 49 47  1  0
 50 51  1  0
 52 54  1  0
 52 51  1  0
 53 64  2  0
 54 59  1  0
 55 63  1  0
 55 65  1  0
 56 62  1  0
 56 58  1  0
 57 63  1  0
 58 59  2  0
 58 57  1  0
 60 54  2  0
 61 60  1  0
 61 56  2  0
 62 55  1  0
 63 53  1  0
 65 67  2  0
 66 65  1  0
 68 66  1  0
 69 78  2  0
 69 74  1  0
 70 66  1  0
 70 74  1  0
 71 70  1  0
 72 73  1  0
 72 71  1  0
 73 69  1  0
 74 75  2  0
 75 76  1  0
 77 76  2  0
 78 77  1  0
 79 53  1  0
 79 84  1  0
 79 80  1  0
 80 83  1  1
 80 81  1  0
 82 80  1  0
 84 87  1  0
 85 89  1  0
 85 84  1  0
 86 85  2  0
 89 88  1  0
 91 89  1  0
 91 92  1  0
 91 90  1  0
M  ISO  4  12 100  20 100  51 101  52 101
M  END
>  <TORSDO>  (34) 
F 19

>  <SCORE>  (34) 
-14.498

>  <name>  (34) 
34

>  <ligand_id>  (34) 
34

>  <original_smiles>  (34) 
[H]c1c([H])c([H])c2c(c1[H])C([H])([H])C([H])([H])C([H])([H])C2([H])N([H])C(=O)C1([H])N(C(=O)C([H])(N([H])C(=O)C([H])(N([H])C([H])([H])[H])C([H])([H])[H])C(C([H])([H])[H])(C([H])([H])[H])C([H])([H])[H])C([H])([H])c2c([H])c(OC([H])([H])C([H])([H])C3([H])C([H])([H])C([H])([H])C([H])([H])N(C(=O)C([H])(N([H])C(=O)N4C([H])([H])C([H])([H])C([H])([H])C([H])(n5nc(-c6c([H])c([H])c(Oc7c([H])c([H])c(F)c([H])c7F)c([H])c6[H])c(C(=O)N([H])[H])c5N([H])[H])C4([H])[H])C([H])([H])[H])C3([H])C([H])([H])[H])c([H])c([H])c2C1([H])[H]

>  <smiles>  (34) 
[H]c1c([H])c([H])c2c(c1[H])C([H])([H])C([H])([H])C([H])([H])C2([H])N([H])C(=O)C1([H])N(C(=O)C([H])(N([H])C(=O)C([H])(N([H])C([H])([H])[H])C([H])([H])[H])C(C([H])([H])[H])(C([H])([H])[H])C([H])([H])[H])C([H])([H])c2c([H])c(OC([H])([H])C([H])([H])C3([H])C([H])([H])C([H])([H])C([H])([H])N(C(=O)C([H])(N([H])C(=O)N4C([H])([H])C([H])([H])C([H])([H])C([H])(n5nc(-c6c([H])c([H])c(Oc7c([H])c([H])c(F)c([H])c7F)c([H])c6[H])c(C(=O)N([H])[H])c5N([H])[H])C4([H])[H])C([H])([H])[H])C3([H])C([H])([H])[H])c([H])c([H])c2C1([H])[H]

$$$$
35:0:0
     RDKit          3D

100109  0  0  1  0  0  0  0  0999 V2000
  -29.4900  -19.2870   19.9610 C   0  0  0  0  0  0  0  0  0  0  0  0
  -29.5680  -21.4370   22.8410 C   0  0  0  0  0  2  0  0  0  0  0  0
  -28.4650  -22.0750   21.9870 C   0  0  0  0  0  2  0  0  0  0  0  0
  -30.1730  -20.3270   21.9480 C   0  0  0  0  0  2  0  0  0  0  0  0
  -29.1320  -22.0340   20.6170 C   0  0  0  0  0  3  0  0  0  0  0  0
  -29.7950  -20.5730   20.5200 N   0  0  0  0  0  0  0  0  0  0  0  0
  -28.4420  -19.1680   19.3250 O   0  0  0  0  0  0  0  0  0  0  0  0
  -29.1220  -23.4900   19.7210 C   0  0  0  0  0  0  0  0  0  0  0  0
  -29.7750  -23.5600   18.6750 O   0  0  0  0  0  0  0  0  0  0  0  0
  -28.2590  -24.8530   20.1620 C   0  0  0  0  0  2  0  0  0  0  0  0
  -28.4610  -26.3020   19.5930 O   0  0  0  0  0  0  0  0  0  0  0  0
  -24.6820  -31.6910   22.9810 C   0  0  0  0  0  0  0  0  0  0  0  0
  -27.3790  -27.2570   19.6410 C   0  0  0  0  0  0  0  0  0  0  0  0
  -23.5020  -30.3200   21.3120 C   0  0  0  0  0  3  0  0  0  0  0  0
  -24.9770  -28.8960   19.7630 C   0  0  0  0  0  0  0  0  0  0  0  0
  -26.0350  -30.7190   21.0850 C   0  0  0  0  0  2  0  0  0  0  0  0
  -26.1550  -29.3660   20.3580 C   0  0  0  0  0  0  0  0  0  0  0  0
  -27.3590  -28.5660   20.2770 C   0  0  0  0  0  3  0  0  0  0  0  0
  -26.1720  -26.8980   19.0020 C   0  0  0  0  0  3  0  0  0  0  0  0
  -24.9990  -27.6780   19.0680 C   0  0  0  0  0  3  0  0  0  0  0  0
  -23.7090  -29.7260   19.8940 C   0  0  0  0  0  2  0  0  0  0  0  0
  -24.7610  -30.9310   21.8470 N   0  0  0  0  0  0  0  0  0  0  0  0
  -23.6010  -31.8920   23.5550 O   0  0  0  0  0  0  0  0  0  0  0  0
  -22.9070  -29.2300   22.2400 C   0  0  0  0  0  0  0  0  0  0  0  0
  -21.5860  -28.9920   22.1420 N   0  0  0  0  0  0  0  0  0  0  0  0
  -23.6360  -28.6020   23.0120 O   0  0  0  0  0  0  0  0  0  0  0  0
  -21.0520  -29.5510   21.4890 H   0  0  0  0  0  0  0  0  0  0  0  0
  -18.2890  -27.5940   22.6870 C   0  0  0  0  0  0  0  0  0  0  0  0
  -20.8390  -27.9760   22.8870 C   0  0  0  0  0  3  0  0  0  0  0  0
  -20.9950  -26.5820   22.2370 C   0  0  0  0  0  2  0  0  0  0  0  0
  -19.8770  -26.2520   21.2430 C   0  0  0  0  0  2  0  0  0  0  0  0
  -18.5110  -26.2920   21.9350 C   0  0  0  0  0  2  0  0  0  0  0  0
  -19.3810  -28.3920   23.1200 C   0  0  0  0  0  0  0  0  0  0  0  0
  -19.1160  -29.6090   23.7840 C   0  0  0  0  0  3  0  0  0  0  0  0
  -17.7930  -30.0290   24.0190 C   0  0  0  0  0  3  0  0  0  0  0  0
  -16.7170  -29.2280   23.6010 C   0  0  0  0  0  3  0  0  0  0  0  0
  -16.9660  -28.0120   22.9400 C   0  0  0  0  0  3  0  0  0  0  0  0
  -25.9440  -32.3630   23.6000 C   0  0  0  0  0  3  0  0  0  0  0  0
  -25.5630  -33.7160   24.0400 N   0  0  0  0  0  0  0  0  0  0  0  0
  -25.7880  -34.8370   23.3420 C   0  0  0  0  0  0  0  0  0  0  0  0
  -26.4050  -34.8460   22.2730 O   0  0  0  0  0  0  0  0  0  0  0  0
  -25.0060  -33.7770   24.8780 H   0  0  0  0  0  0  0  0  0  0  0  0
  -23.9230  -36.5220   23.2250 C   0  0  0  0  0  1  0  0  0  0  0  0
  -25.2450  -36.1590   23.9200 C   0  0  0  0  0  3  0  0  0  0  0  0
  -27.3710  -37.1440   24.6600 C   0  0  0  0  0  1  0  0  0  0  0  0
  -26.1960  -37.2870   23.8050 N   0  0  0  0  0  0  0  0  0  0  0  0
  -25.7410  -38.1680   24.0350 H   0  0  0  0  0  0  0  0  0  0  0  0
  -26.5510  -31.5460   24.8070 C   0  0  1  0  0  0  0  0  0  0  0  0
  -25.5150  -31.1850   25.8980 C   0  0  0  0  0  1  0  0  0  0  0  0
  -27.1890  -30.2290   24.3130 C   0  0  0  0  0  1  0  0  0  0  0  0
  -27.6850  -32.3610   25.4720 C   0  0  0  0  0  1  0  0  0  0  0  0
  -30.4620  -17.9100   20.0010 C   0  0  0  0  0  0  0  0  0  0  0  0
  -30.7580  -15.1640   19.8930 C   0  0  0  0  0  0  0  0  0  0  0  0
  -30.5630  -12.7900   19.0130 C   0  0  0  0  0  2  0  0  0  0  0  0
  -29.5680  -12.7230   17.8330 C   0  0  0  0  0  2  0  0  0  0  0  0
  -28.1330  -12.5190   18.3530 C   0  0  0  0  0  2  0  0  0  0  0  0
  -27.7940  -13.4720   19.5280 C   0  0  0  0  0  3  0  0  0  0  0  0
  -28.9080  -13.5130   20.5960 C   0  0  0  0  0  2  0  0  0  0  0  0
  -30.1430  -13.9100   19.9100 N   0  0  0  0  0  0  0  0  0  0  0  0
  -31.9240  -15.1960   19.4850 O   0  0  0  0  0  0  0  0  0  0  0  0
  -30.0580  -16.3760   20.1800 N   0  0  0  0  0  4  0  0  0  0  0  0
  -29.1060  -16.2420   20.4830 H   0  0  0  0  0  0  0  0  0  0  0  0
  -25.4900  -14.0780   20.4570 C   0  0  0  0  0  0  0  0  0  0  0  0
  -24.4320  -13.3140   20.8700 C   0  0  0  0  0  0  0  0  0  0  0  0
  -24.8560  -11.9550   20.7520 C   0  0  0  0  0  0  0  0  0  0  0  0
  -26.4870  -13.1850   20.1070 N   0  0  0  0  0  0  0  0  0  0  0  0
  -26.1200  -11.9000   20.3520 N   0  0  0  0  0  0  0  0  0  0  0  0
  -24.1080  -10.7050   20.9400 C   0  0  0  0  0  0  0  0  0  0  0  0
  -24.5430   -9.7120   21.8440 C   0  0  0  0  0  3  0  0  0  0  0  0
  -23.7960   -8.5280   22.0220 C   0  0  0  0  0  3  0  0  0  0  0  0
  -22.5980   -8.3280   21.2950 C   0  0  0  0  0  0  0  0  0  0  0  0
  -22.1810   -9.3090   20.3790 C   0  0  0  0  0  3  0  0  0  0  0  0
  -22.9300  -10.4840   20.1980 C   0  0  0  0  0  3  0  0  0  0  0  0
  -21.8190   -7.2000   21.3840 O   0  0  0  0  0  0  0  0  0  0  0  0
  -21.7420   -6.4680   22.5440 C   0  0  0  0  0  0  0  0  0  0  0  0
  -21.2970   -7.0390   23.7570 C   0  0  0  0  0  3  0  0  0  0  0  0
  -21.1660   -6.2350   24.9070 C   0  0  0  0  0  3  0  0  0  0  0  0
  -21.4700   -4.8610   24.8450 C   0  0  0  0  0  0  0  0  0  0  0  0
  -21.9090   -4.2910   23.6360 C   0  0  0  0  0  3  0  0  0  0  0  0
  -22.0420   -5.0920   22.4890 C   0  0  0  0  0  0  0  0  0  0  0  0
  -22.4430   -4.5320   21.3230 F   0  0  0  0  0  0  0  0  0  0  0  0
  -21.3370   -4.0880   25.9460 F   0  0  0  0  0  0  0  0  0  0  0  0
  -23.0720  -13.8150   21.2530 C   0  0  0  0  0  0  0  0  0  0  0  0
  -22.3880  -13.1080   22.1470 N   0  0  0  0  0  0  0  0  0  0  0  0
  -22.6260  -14.8680   20.7980 O   0  0  0  0  0  0  0  0  0  0  0  0
  -22.7630  -12.2570   22.5370 H   0  0  0  0  0  0  0  0  0  0  0  0
  -21.4780  -13.4260   22.4470 H   0  0  0  0  0  0  0  0  0  0  0  0
  -25.6770  -15.4510   20.3220 N   0  0  0  0  0  0  0  0  0  0  0  0
  -24.9290  -16.1140   20.4990 H   0  0  0  0  0  0  0  0  0  0  0  0
  -26.4920  -15.8800   19.9030 H   0  0  0  0  0  0  0  0  0  0  0  0
  -31.8840  -18.1710   20.5790 C   0  0  0  0  0  2  0  0  0  0  0  0
  -33.2960  -20.2870   20.7880 C   0  0  0  0  0  3  0  0  0  0  0  0
  -32.7820  -19.4580   18.5570 C   0  0  0  0  0  3  0  0  0  0  0  0
  -33.9970  -21.3720   20.2250 C   0  0  0  0  0  3  0  0  0  0  0  0
  -33.4840  -20.5420   17.9930 C   0  0  0  0  0  3  0  0  0  0  0  0
  -32.6690  -19.3280   19.9610 C   0  0  0  0  0  0  0  0  0  0  0  0
  -34.0870  -21.5040   18.8250 C   0  0  0  0  0  0  0  0  0  0  0  0
  -34.7710  -22.5780   18.2630 N   0  0  0  0  0  0  0  0  0  0  0  0
  -34.9260  -23.4050   18.8310 H   0  0  0  0  0  0  0  0  0  0  0  0
  -34.5960  -22.8060   17.2880 H   0  0  0  0  0  0  0  0  0  0  0  0
  1 52  1  0
  1  6  1  0
  3  2  1  0
  4  2  1  0
  5  8  1  0
  5  3  1  0
  6  5  1  0
  6  4  1  0
  7  1  2  0
  8 10  1  0
  9  8  2  0
 11 13  1  0
 11 10  1  0
 12 23  2  0
 13 18  1  0
 14 22  1  0
 14 24  1  0
 15 21  1  0
 15 17  1  0
 16 22  1  0
 17 16  1  0
 18 17  2  0
 19 20  1  0
 19 13  2  0
 20 15  2  0
 21 14  1  0
 22 12  1  0
 24 26  2  0
 25 24  1  0
 27 25  1  0
 28 37  2  0
 28 33  1  0
 29 25  1  0
 29 33  1  0
 30 29  1  0
 31 32  1  0
 31 30  1  0
 32 28  1  0
 33 34  2  0
 34 35  1  0
 36 35  2  0
 37 36  1  0
 38 12  1  0
 38 39  1  0
 38 48  1  0
 39 42  1  0
 40 44  1  0
 40 39  1  0
 41 40  2  0
 44 43  1  0
 46 44  1  0
 46 47  1  0
 46 45  1  0
 48 51  1  1
 48 49  1  0
 50 48  1  0
 52 61  2  0
 52 91  1  0
 53 59  1  0
 53 61  1  0
 54 59  1  0
 55 56  1  0
 55 54  1  0
 57 56  1  0
 57 66  1  0
 57 58  1  0
 59 58  1  0
 60 53  2  0
 61 62  1  0
 63 64  2  0
 64 83  1  0
 65 64  1  0
 65 68  1  0
 66 67  1  0
 66 63  1  0
 67 65  2  0
 68 69  1  0
 69 70  2  0
 71 74  1  0
 71 70  1  0
 72 71  2  0
 73 72  1  0
 73 68  2  0
 74 75  1  0
 75 76  1  0
 76 77  2  0
 78 77  1  0
 78 82  1  0
 79 78  2  0
 80 75  2  0
 80 79  1  0
 81 80  1  0
 83 84  1  0
 84 87  1  0
 84 86  1  0
 85 83  2  0
 88 63  1  0
 88 89  1  0
 90 88  1  0
 93 96  1  0
 94 92  1  0
 95 93  2  0
 95 97  1  0
 96 91  1  0
 96 92  2  0
 97 94  2  0
 98 97  1  0
 98 99  1  0
100 98  1  0
M  ISO  4  10 101  11 101  53 100  61 100
M  END
>  <TORSDO>  (35) 
F 22

>  <SCORE>  (35) 
-13.098

>  <name>  (35) 
35

>  <ligand_id>  (35) 
35

>  <original_smiles>  (35) 
[H]c1c([H])c([H])c2c(c1[H])C([H])([H])C([H])([H])C([H])([H])C2([H])N([H])C(=O)C1([H])N(C(=O)C([H])(N([H])C(=O)C([H])(N([H])C([H])([H])[H])C([H])([H])[H])C(C([H])([H])[H])(C([H])([H])[H])C([H])([H])[H])C([H])([H])c2c([H])c(OC([H])([H])C(=O)C3([H])N(C(=O)C([H])(N([H])C(=O)N4C([H])([H])C([H])([H])C([H])([H])C([H])(n5nc(-c6c([H])c([H])c(Oc7c([H])c([H])c(F)c([H])c7F)c([H])c6[H])c(C(=O)N([H])[H])c5N([H])[H])C4([H])[H])C([H])([H])c4c([H])c([H])c(N([H])[H])c([H])c4[H])C([H])([H])C([H])([H])C3([H])[H])c([H])c([H])c2C1([H])[H]

>  <smiles>  (35) 
[H]c1c([H])c([H])c2c(c1[H])C([H])([H])C([H])([H])C([H])([H])C2([H])N([H])C(=O)C1([H])N(C(=O)C([H])(N([H])C(=O)C([H])(N([H])C([H])([H])[H])C([H])([H])[H])C(C([H])([H])[H])(C([H])([H])[H])C([H])([H])[H])C([H])([H])c2c([H])c(OC([H])([H])C(=O)C3([H])N(C(=O)C([H])(N([H])C(=O)N4C([H])([H])C([H])([H])C([H])([H])C([H])(n5nc(-c6c([H])c([H])c(Oc7c([H])c([H])c(F)c([H])c7F)c([H])c6[H])c(C(=O)N([H])[H])c5N([H])[H])C4([H])[H])C([H])([H])c4c([H])c([H])c(N([H])[H])c([H])c4[H])C([H])([H])C([H])([H])C3([H])[H])c([H])c([H])c2C1([H])[H]

$$$$
36:0:0
     RDKit          3D

104112  0  0  1  0  0  0  0  0999 V2000
  -30.7890  -24.1540   19.1460 C   0  0  0  0  0  0  0  0  0  0  0  0
  -30.3420  -24.9430   20.1280 N   0  0  0  0  0  0  0  0  0  0  0  0
  -30.2450  -24.0750   18.0450 O   0  0  0  0  0  0  0  0  0  0  0  0
  -30.8240  -24.8630   21.0120 H   0  0  0  0  0  0  0  0  0  0  0  0
  -32.1350  -23.4610   19.3930 C   0  0  0  0  0  2  0  0  0  0  0  0
  -32.0860  -22.0830   20.0850 C   0  0  0  0  0  2  0  0  0  0  0  0
  -31.9710  -20.8850   19.1240 C   0  0  0  0  0  2  0  0  0  0  0  0
  -32.6580  -19.5910   19.6230 C   0  0  0  0  0  2  0  0  0  0  0  0
  -34.1360  -19.7370   19.6880 N   0  0  0  0  0  4  0  0  0  0  0  0
  -34.3370  -20.3690   20.4470 H   0  0  0  0  0  0  0  0  0  0  0  0
  -34.4680  -20.1840   18.8500 H   0  0  0  0  0  0  0  0  0  0  0  0
  -34.9690  -18.5280   19.9360 C   0  0  0  0  0  2  0  0  0  0  0  0
  -35.5040  -17.8530   18.6320 C   0  0  0  0  0  3  0  0  0  0  0  0
  -37.9150  -17.3080   19.2150 C   0  0  0  0  0  0  0  0  0  0  0  0
  -40.3190  -17.0760   18.7010 C   0  0  0  0  0  2  0  0  0  0  0  0
  -40.6890  -18.0210   17.5390 C   0  0  0  0  0  2  0  0  0  0  0  0
  -40.4270  -17.3520   16.1760 C   0  0  0  0  0  2  0  0  0  0  0  0
  -39.0090  -16.7310   16.0900 C   0  0  0  0  0  3  0  0  0  0  0  0
  -38.7330  -15.8490   17.3290 C   0  0  0  0  0  2  0  0  0  0  0  0
  -38.9120  -16.6730   18.5430 N   0  0  0  0  0  0  0  0  0  0  0  0
  -38.1230  -18.1630   20.0800 O   0  0  0  0  0  0  0  0  0  0  0  0
  -36.6760  -16.9800   18.8140 N   0  0  0  0  0  0  0  0  0  0  0  0
  -36.6480  -16.1510   18.2390 H   0  0  0  0  0  0  0  0  0  0  0  0
  -37.8680  -16.1430   13.8530 C   0  0  0  0  0  0  0  0  0  0  0  0
  -38.1860  -15.2390   12.8760 C   0  0  0  0  0  0  0  0  0  0  0  0
  -39.3590  -14.5610   13.3330 C   0  0  0  0  0  0  0  0  0  0  0  0
  -38.8260  -15.9860   14.8440 N   0  0  0  0  0  0  0  0  0  0  0  0
  -39.6970  -14.9900   14.5420 N   0  0  0  0  0  0  0  0  0  0  0  0
  -40.2110  -13.5730   12.6630 C   0  0  0  0  0  0  0  0  0  0  0  0
  -40.4890  -12.3190   13.2520 C   0  0  0  0  0  3  0  0  0  0  0  0
  -41.2970  -11.3760   12.5810 C   0  0  0  0  0  3  0  0  0  0  0  0
  -41.8320  -11.6800   11.3080 C   0  0  0  0  0  0  0  0  0  0  0  0
  -41.5730  -12.9370   10.7350 C   0  0  0  0  0  3  0  0  0  0  0  0
  -40.7720  -13.8770   11.4070 C   0  0  0  0  0  3  0  0  0  0  0  0
  -42.6470  -10.8350   10.5930 O   0  0  0  0  0  0  0  0  0  0  0  0
  -42.5660   -9.4730   10.7260 C   0  0  0  0  0  0  0  0  0  0  0  0
  -41.3700   -8.7680   10.4660 C   0  0  0  0  0  3  0  0  0  0  0  0
  -41.3510   -7.3620   10.5490 C   0  0  0  0  0  3  0  0  0  0  0  0
  -42.5230   -6.6580   10.8810 C   0  0  0  0  0  0  0  0  0  0  0  0
  -43.7160   -7.3570   11.1350 C   0  0  0  0  0  3  0  0  0  0  0  0
  -43.7370   -8.7610   11.0560 C   0  0  0  0  0  0  0  0  0  0  0  0
  -44.8940   -9.4300   11.2820 F   0  0  0  0  0  0  0  0  0  0  0  0
  -42.5060   -5.3060   10.9530 F   0  0  0  0  0  0  0  0  0  0  0  0
  -37.4990  -15.0710   11.5510 C   0  0  0  0  0  0  0  0  0  0  0  0
  -37.4400  -13.8460   11.0400 N   0  0  0  0  0  0  0  0  0  0  0  0
  -36.9660  -16.0230   10.9820 O   0  0  0  0  0  0  0  0  0  0  0  0
  -37.8590  -13.0600   11.5150 H   0  0  0  0  0  0  0  0  0  0  0  0
  -36.9690  -13.6950   10.1590 H   0  0  0  0  0  0  0  0  0  0  0  0
  -36.8600  -17.0920   13.9720 N   0  0  0  0  0  0  0  0  0  0  0  0
  -36.1440  -17.2140   13.2650 H   0  0  0  0  0  0  0  0  0  0  0  0
  -36.7400  -17.7050   14.7660 H   0  0  0  0  0  0  0  0  0  0  0  0
  -34.0650  -17.6770   16.5090 C   0  0  0  0  0  1  0  0  0  0  0  0
  -34.6200  -15.5340   17.7220 C   0  0  0  0  0  1  0  0  0  0  0  0
  -34.3870  -17.0530   17.8760 C   0  0  0  0  0  3  0  0  0  0  0  0
  -29.5430  -26.1610   19.9560 C   0  0  0  0  0  3  0  0  0  0  0  0
  -31.0900  -27.2580   21.7430 C   0  0  0  0  0  2  0  0  0  0  0  0
  -30.9320  -28.4300   22.7170 C   0  0  0  0  0  2  0  0  0  0  0  0
  -29.0720  -28.4140   21.2070 C   0  0  0  0  0  2  0  0  0  0  0  0
  -29.6560  -26.9900   21.2650 C   0  0  0  0  0  3  0  0  0  0  0  0
  -29.7520  -29.1880   22.2630 N   0  0  0  0  0  4  0  0  0  0  0  0
  -30.0250  -30.0910   21.9110 H   0  0  0  0  0  0  0  0  0  0  0  0
  -29.1330  -29.3340   23.0450 H   0  0  0  0  0  0  0  0  0  0  0  0
  -28.0670  -25.8680   19.5840 C   0  0  0  0  0  2  0  0  0  0  0  0
  -27.9070  -25.7540   18.1690 O   0  0  0  0  0  0  0  0  0  0  0  0
  -20.7290  -25.7940   18.1910 C   0  0  0  0  0  0  0  0  0  0  0  0
  -26.7000  -26.0690   17.5740 C   0  0  0  0  0  0  0  0  0  0  0  0
  -21.8240  -26.4010   16.0530 C   0  0  0  0  0  3  0  0  0  0  0  0
  -24.3420  -26.7980   16.1760 C   0  0  0  0  0  0  0  0  0  0  0  0
  -22.9940  -26.8180   18.2820 C   0  0  0  0  0  2  0  0  0  0  0  0
  -24.3070  -26.6070   17.5620 C   0  0  0  0  0  0  0  0  0  0  0  0
  -25.4700  -26.2280   18.2610 C   0  0  0  0  0  3  0  0  0  0  0  0
  -26.7140  -26.2570   16.1760 C   0  0  0  0  0  3  0  0  0  0  0  0
  -25.5450  -26.6140   15.4710 C   0  0  0  0  0  3  0  0  0  0  0  0
  -23.0440  -27.1970   15.5110 C   0  0  0  0  0  2  0  0  0  0  0  0
  -21.8210  -26.2960   17.5480 N   0  0  0  0  0  0  0  0  0  0  0  0
  -19.7140  -25.4620   17.5640 O   0  0  0  0  0  0  0  0  0  0  0  0
  -21.7770  -25.0290   15.3450 C   0  0  0  0  0  0  0  0  0  0  0  0
  -21.2400  -25.0110   14.1140 N   0  0  0  0  0  0  0  0  0  0  0  0
  -22.2420  -24.0220   15.8860 O   0  0  0  0  0  0  0  0  0  0  0  0
  -20.8740  -25.8780   13.7450 H   0  0  0  0  0  0  0  0  0  0  0  0
  -20.0530  -23.8910   10.8930 C   0  0  0  0  0  0  0  0  0  0  0  0
  -21.1270  -23.8430   13.2430 C   0  0  0  0  0  3  0  0  0  0  0  0
  -22.4620  -23.5610   12.5150 C   0  0  0  0  0  2  0  0  0  0  0  0
  -22.5490  -24.2230   11.1370 C   0  0  0  0  0  2  0  0  0  0  0  0
  -21.4140  -23.7350   10.2330 C   0  0  0  0  0  2  0  0  0  0  0  0
  -19.9210  -23.9570   12.3050 C   0  0  0  0  0  0  0  0  0  0  0  0
  -18.6370  -24.1370   12.8650 C   0  0  0  0  0  3  0  0  0  0  0  0
  -17.5010  -24.2470   12.0420 C   0  0  0  0  0  3  0  0  0  0  0  0
  -17.6360  -24.1650   10.6450 C   0  0  0  0  0  3  0  0  0  0  0  0
  -18.9080  -23.9820   10.0750 C   0  0  0  0  0  3  0  0  0  0  0  0
  -20.6930  -25.6350   19.7450 C   0  0  0  0  0  3  0  0  0  0  0  0
  -19.3230  -25.9210   20.1870 N   0  0  0  0  0  0  0  0  0  0  0  0
  -18.9050  -27.1070   20.6470 C   0  0  0  0  0  0  0  0  0  0  0  0
  -19.6640  -28.0670   20.8120 O   0  0  0  0  0  0  0  0  0  0  0  0
  -18.6360  -25.1980   20.0290 H   0  0  0  0  0  0  0  0  0  0  0  0
  -16.6610  -27.7990   19.7480 C   0  0  0  0  0  1  0  0  0  0  0  0
  -17.4080  -27.2540   20.9760 C   0  0  0  0  0  3  0  0  0  0  0  0
  -17.5790  -27.5320   23.4100 C   0  0  0  0  0  1  0  0  0  0  0  0
  -17.1440  -28.1190   22.1460 N   0  0  0  0  0  0  0  0  0  0  0  0
  -16.1530  -28.3330   22.2200 H   0  0  0  0  0  0  0  0  0  0  0  0
  -21.1570  -24.2090   20.2360 C   0  0  1  0  0  0  0  0  0  0  0  0
  -20.4280  -23.0420   19.5290 C   0  0  0  0  0  1  0  0  0  0  0  0
  -22.6760  -24.0230   20.0130 C   0  0  0  0  0  1  0  0  0  0  0  0
  -20.9130  -24.0730   21.7570 C   0  0  0  0  0  1  0  0  0  0  0  0
  1  5  1  0
  1  2  1  0
  2  4  1  0
  3  1  2  0
  5  6  1  0
  7  8  1  0
  7  6  1  0
  8  9  1  0
  9 12  1  0
  9 10  1  0
 11  9  1  0
 13 22  1  0
 13 12  1  0
 14 21  2  0
 16 15  1  0
 17 16  1  0
 18 27  1  0
 18 17  1  0
 18 19  1  0
 19 20  1  0
 20 15  1  0
 20 14  1  0
 22 14  1  0
 23 22  1  0
 24 49  1  0
 24 27  1  0
 25 26  1  0
 25 24  2  0
 26 28  2  0
 28 27  1  0
 29 30  1  0
 29 26  1  0
 31 30  2  0
 32 31  1  0
 33 32  2  0
 33 34  1  0
 34 29  2  0
 35 36  1  0
 35 32  1  0
 36 41  1  0
 37 38  1  0
 37 36  2  0
 38 39  2  0
 39 43  1  0
 39 40  1  0
 41 40  2  0
 41 42  1  0
 44 25  1  0
 45 47  1  0
 45 44  1  0
 46 44  2  0
 48 45  1  0
 49 51  1  0
 50 49  1  0
 52 54  1  0
 53 54  1  0
 54 13  1  0
 55 63  1  0
 55  2  1  0
 56 57  1  0
 58 59  1  0
 58 60  1  0
 59 55  1  0
 59 56  1  0
 60 57  1  0
 60 62  1  0
 61 60  1  0
 64 63  1  0
 66 64  1  0
 66 71  1  0
 67 77  1  0
 67 75  1  0
 68 70  1  0
 70 71  2  0
 70 69  1  0
 72 66  2  0
 73 68  2  0
 73 72  1  0
 74 67  1  0
 74 68  1  0
 75 65  1  0
 75 69  1  0
 76 65  2  0
 77 79  2  0
 78 77  1  0
 80 78  1  0
 81 86  1  0
 82 78  1  0
 83 82  1  0
 84 83  1  0
 85 81  1  0
 85 84  1  0
 86 87  2  0
 86 82  1  0
 88 87  1  0
 89 88  2  0
 90 89  1  0
 90 81  2  0
 91 65  1  0
 91 92  1  0
 91101  1  0
 92 93  1  0
 93 94  2  0
 93 97  1  0
 95 92  1  0
 97 96  1  0
 97 99  1  0
 99100  1  0
 99 98  1  0
101104  1  1
102101  1  0
103101  1  0
M  ISO  4  14 100  22 100  63 101  64 101
M  END
>  <TORSDO>  (36) 
F 27

>  <SCORE>  (36) 
-3.109

>  <name>  (36) 
36

>  <ligand_id>  (36) 
36

>  <original_smiles>  (36) 
[H]c1c([H])c([H])c2c(c1[H])C([H])([H])C([H])([H])C([H])([H])C2([H])N([H])C(=O)C1([H])N(C(=O)C([H])(N([H])C(=O)C([H])(N([H])C([H])([H])[H])C([H])([H])[H])C(C([H])([H])[H])(C([H])([H])[H])C([H])([H])[H])C([H])([H])c2c([H])c(OC([H])([H])C([H])(N([H])C(=O)C([H])([H])C([H])([H])C([H])([H])C([H])([H])[N+]([H])([H])C([H])([H])C([H])(N([H])C(=O)N3C([H])([H])C([H])([H])C([H])([H])C([H])(n4nc(-c5c([H])c([H])c(Oc6c([H])c([H])c(F)c([H])c6F)c([H])c5[H])c(C(=O)N([H])[H])c4N([H])[H])C3([H])[H])C([H])(C([H])([H])[H])C([H])([H])[H])C3([H])C([H])([H])C([H])([H])[N+]([H])([H])C3([H])[H])c([H])c([H])c2C1([H])[H]

>  <smiles>  (36) 
[H]c1c([H])c([H])c2c(c1[H])C([H])([H])C([H])([H])C([H])([H])C2([H])N([H])C(=O)C1([H])N(C(=O)C([H])(N([H])C(=O)C([H])(N([H])C([H])([H])[H])C([H])([H])[H])C(C([H])([H])[H])(C([H])([H])[H])C([H])([H])[H])C([H])([H])c2c([H])c(OC([H])([H])C([H])(N([H])C(=O)C([H])([H])C([H])([H])C([H])([H])C([H])([H])[N+]([H])([H])C([H])([H])C([H])(N([H])C(=O)N3C([H])([H])C([H])([H])C([H])([H])C([H])(n4nc(-c5c([H])c([H])c(Oc6c([H])c([H])c(F)c([H])c6F)c([H])c5[H])c(C(=O)N([H])[H])c4N([H])[H])C3([H])[H])C([H])(C([H])([H])[H])C([H])([H])[H])C3([H])C([H])([H])C([H])([H])[N+]([H])([H])C3([H])[H])c([H])c([H])c2C1([H])[H]

$$$$
37:0:0
     RDKit          3D

103111  0  0  1  0  0  0  0  0999 V2000
  -25.1910  -19.4710   23.8720 C   0  0  0  0  0  2  0  0  0  0  0  0
  -24.7350  -20.8950   23.5110 C   0  0  0  0  0  2  0  0  0  0  0  0
  -24.7830  -21.8480   24.7150 C   0  0  0  0  0  2  0  0  0  0  0  0
  -24.0730  -23.1980   24.4500 C   0  0  0  0  0  2  0  0  0  0  0  0
  -24.9830  -24.2790   24.0810 N   0  0  0  0  0  4  0  0  0  0  0  0
  -25.6770  -24.4140   24.8000 H   0  0  0  0  0  0  0  0  0  0  0  0
  -24.4550  -25.1380   24.0730 H   0  0  0  0  0  0  0  0  0  0  0  0
  -25.5930  -24.0640   22.7690 C   0  0  0  0  0  2  0  0  0  0  0  0
  -26.4180  -25.2950   22.3390 C   0  0  0  0  0  2  0  0  0  0  0  0
  -27.3240  -25.0120   21.1220 C   0  0  0  0  0  2  0  0  0  0  0  0
  -28.0570  -26.2480   20.5560 C   0  0  0  0  0  2  0  0  0  0  0  0
  -27.4400  -26.7280   19.3620 O   0  0  0  0  0  0  0  0  0  0  0  0
  -24.3910  -31.8010   23.3170 C   0  0  0  0  0  0  0  0  0  0  0  0
  -26.3820  -27.5740   19.5550 C   0  0  0  0  0  0  0  0  0  0  0  0
  -22.9500  -30.7420   21.6050 C   0  0  0  0  0  3  0  0  0  0  0  0
  -24.1550  -29.2650   19.9070 C   0  0  0  0  0  0  0  0  0  0  0  0
  -25.4800  -30.8810   21.2790 C   0  0  0  0  0  2  0  0  0  0  0  0
  -25.3870  -29.5990   20.4850 C   0  0  0  0  0  0  0  0  0  0  0  0
  -26.5020  -28.7530   20.3190 C   0  0  0  0  0  3  0  0  0  0  0  0
  -25.1490  -27.2640   18.9490 C   0  0  0  0  0  3  0  0  0  0  0  0
  -24.0270  -28.0940   19.1390 C   0  0  0  0  0  3  0  0  0  0  0  0
  -23.0100  -30.2240   20.1410 C   0  0  0  0  0  2  0  0  0  0  0  0
  -24.2950  -31.1480   22.1260 N   0  0  0  0  0  0  0  0  0  0  0  0
  -23.3780  -32.1070   23.9620 O   0  0  0  0  0  0  0  0  0  0  0  0
  -22.2560  -29.6730   22.4780 C   0  0  0  0  0  0  0  0  0  0  0  0
  -20.9270  -29.5550   22.3290 N   0  0  0  0  0  0  0  0  0  0  0  0
  -22.9090  -28.9580   23.2420 O   0  0  0  0  0  0  0  0  0  0  0  0
  -20.4650  -30.1880   21.6920 H   0  0  0  0  0  0  0  0  0  0  0  0
  -17.5230  -28.3830   22.6170 C   0  0  0  0  0  0  0  0  0  0  0  0
  -20.0690  -28.5920   23.0170 C   0  0  0  0  0  3  0  0  0  0  0  0
  -20.1800  -27.1890   22.3790 C   0  0  0  0  0  2  0  0  0  0  0  0
  -19.1220  -26.9290   21.3020 C   0  0  0  0  0  2  0  0  0  0  0  0
  -17.7140  -27.0630   21.8900 C   0  0  0  0  0  2  0  0  0  0  0  0
  -18.6290  -29.1080   23.1330 C   0  0  0  0  0  0  0  0  0  0  0  0
  -18.3980  -30.3470   23.7700 C   0  0  0  0  0  3  0  0  0  0  0  0
  -17.0950  -30.8610   23.8980 C   0  0  0  0  0  3  0  0  0  0  0  0
  -16.0010  -30.1310   23.3980 C   0  0  0  0  0  3  0  0  0  0  0  0
  -16.2160  -28.8950   22.7630 C   0  0  0  0  0  3  0  0  0  0  0  0
  -25.7720  -32.2180   23.9150 C   0  0  0  0  0  3  0  0  0  0  0  0
  -25.6490  -33.6030   24.3830 N   0  0  0  0  0  0  0  0  0  0  0  0
  -26.0880  -34.6750   23.7100 C   0  0  0  0  0  0  0  0  0  0  0  0
  -26.7120  -34.5890   22.6490 O   0  0  0  0  0  0  0  0  0  0  0  0
  -25.0990  -33.7520   25.2180 H   0  0  0  0  0  0  0  0  0  0  0  0
  -24.5900  -36.6900   23.5770 C   0  0  0  0  0  1  0  0  0  0  0  0
  -25.7870  -36.0630   24.3090 C   0  0  0  0  0  3  0  0  0  0  0  0
  -28.0280  -36.6000   25.1550 C   0  0  0  0  0  1  0  0  0  0  0  0
  -26.9410  -36.9860   24.2610 N   0  0  0  0  0  0  0  0  0  0  0  0
  -26.6560  -37.9330   24.4980 H   0  0  0  0  0  0  0  0  0  0  0  0
  -26.2540  -31.2720   25.0820 C   0  0  1  0  0  0  0  0  0  0  0  0
  -25.1830  -31.0370   26.1730 C   0  0  0  0  0  1  0  0  0  0  0  0
  -26.6750  -29.8910   24.5270 C   0  0  0  0  0  1  0  0  0  0  0  0
  -27.5040  -31.8760   25.7620 C   0  0  0  0  0  1  0  0  0  0  0  0
  -25.2980  -18.5470   22.6390 C   0  0  0  0  0  3  0  0  0  0  0  0
  -26.9760  -18.2630   20.8240 C   0  0  0  0  0  0  0  0  0  0  0  0
  -26.5700  -18.8180   21.9710 N   0  0  0  0  0  0  0  0  0  0  0  0
  -26.2780  -17.4420   20.2270 O   0  0  0  0  0  0  0  0  0  0  0  0
  -27.1960  -19.4620   22.4300 H   0  0  0  0  0  0  0  0  0  0  0  0
  -27.7060  -19.5430   17.9670 C   0  0  0  0  0  2  0  0  0  0  0  0
  -28.5140  -18.4230   17.2950 C   0  0  0  0  0  2  0  0  0  0  0  0
  -28.3080  -19.8920   19.3400 C   0  0  0  0  0  2  0  0  0  0  0  0
  -28.6200  -17.1870   18.2010 C   0  0  0  0  0  2  0  0  0  0  0  0
  -28.3770  -18.6660   20.2900 C   0  0  0  0  0  3  0  0  0  0  0  0
  -29.2040  -17.5300   19.5940 C   0  0  0  0  0  3  0  0  0  0  0  0
  -30.2580  -15.3850   20.3740 C   0  0  0  0  0  0  0  0  0  0  0  0
  -30.5920  -12.9450   20.3480 C   0  0  0  0  0  2  0  0  0  0  0  0
  -29.9040  -12.3710   19.0930 C   0  0  0  0  0  2  0  0  0  0  0  0
  -28.4140  -12.0800   19.3640 C   0  0  0  0  0  2  0  0  0  0  0  0
  -27.6810  -13.2730   20.0370 C   0  0  0  0  0  3  0  0  0  0  0  0
  -28.5000  -13.8010   21.2370 C   0  0  0  0  0  2  0  0  0  0  0  0
  -29.8500  -14.1460   20.7570 N   0  0  0  0  0  0  0  0  0  0  0  0
  -31.3730  -15.6280   19.9050 O   0  0  0  0  0  0  0  0  0  0  0  0
  -29.2890  -16.3080   20.4020 N   0  0  0  0  0  0  0  0  0  0  0  0
  -28.4170  -16.0120   20.8210 H   0  0  0  0  0  0  0  0  0  0  0  0
  -25.1950  -13.7200   20.5470 C   0  0  0  0  0  0  0  0  0  0  0  0
  -24.1610  -12.8790   20.8600 C   0  0  0  0  0  0  0  0  0  0  0  0
  -24.7200  -11.5660   20.9050 C   0  0  0  0  0  0  0  0  0  0  0  0
  -26.3170  -12.9150   20.4240 N   0  0  0  0  0  0  0  0  0  0  0  0
  -26.0290  -11.6160   20.6920 N   0  0  0  0  0  0  0  0  0  0  0  0
  -24.0770  -10.2580   21.0850 C   0  0  0  0  0  0  0  0  0  0  0  0
  -24.4300   -9.4000   22.1510 C   0  0  0  0  0  3  0  0  0  0  0  0
  -23.7840   -8.1560   22.3120 C   0  0  0  0  0  3  0  0  0  0  0  0
  -22.7730   -7.7580   21.4050 C   0  0  0  0  0  0  0  0  0  0  0  0
  -22.4400   -8.6060   20.3340 C   0  0  0  0  0  3  0  0  0  0  0  0
  -23.0880   -9.8430   20.1720 C   0  0  0  0  0  3  0  0  0  0  0  0
  -22.1130   -6.5540   21.4670 O   0  0  0  0  0  0  0  0  0  0  0  0
  -21.8790   -5.9220   22.6620 C   0  0  0  0  0  0  0  0  0  0  0  0
  -21.1260   -6.5290   23.6910 C   0  0  0  0  0  3  0  0  0  0  0  0
  -20.8520   -5.8170   24.8760 C   0  0  0  0  0  3  0  0  0  0  0  0
  -21.3200   -4.4980   25.0300 C   0  0  0  0  0  0  0  0  0  0  0  0
  -22.0660   -3.8920   24.0050 C   0  0  0  0  0  3  0  0  0  0  0  0
  -22.3430   -4.6010   22.8220 C   0  0  0  0  0  0  0  0  0  0  0  0
  -23.0430   -4.0030   21.8280 F   0  0  0  0  0  0  0  0  0  0  0  0
  -21.0490   -3.8100   26.1650 F   0  0  0  0  0  0  0  0  0  0  0  0
  -22.7170  -13.2590   21.0260 C   0  0  0  0  0  0  0  0  0  0  0  0
  -21.9870  -12.5450   21.8750 N   0  0  0  0  0  0  0  0  0  0  0  0
  -22.2390  -14.2280   20.4380 O   0  0  0  0  0  0  0  0  0  0  0  0
  -22.3810  -11.7630   22.3770 H   0  0  0  0  0  0  0  0  0  0  0  0
  -21.0180  -12.7890   22.0260 H   0  0  0  0  0  0  0  0  0  0  0  0
  -25.2710  -15.0940   20.3510 N   0  0  0  0  0  0  0  0  0  0  0  0
  -24.4640  -15.6770   20.5390 H   0  0  0  0  0  0  0  0  0  0  0  0
  -26.1460  -15.5810   20.5270 H   0  0  0  0  0  0  0  0  0  0  0  0
  -25.2500  -17.0820   23.1100 C   0  0  0  0  0  3  0  0  0  0  0  0
  -24.2420  -16.5290   23.5570 O   0  0  0  0  0  0  0  0  0  0  0  0
  2  1  1  0
  2  3  1  0
  4  3  1  0
  5  4  1  0
  5  6  1  0
  7  5  1  0
  8  5  1  0
  9  8  1  0
 10  9  1  0
 11 10  1  0
 12 14  1  0
 12 11  1  0
 13 24  2  0
 14 19  1  0
 15 23  1  0
 15 25  1  0
 16 22  1  0
 16 18  1  0
 17 23  1  0
 18 17  1  0
 19 18  2  0
 20 21  1  0
 20 14  2  0
 21 16  2  0
 22 15  1  0
 23 13  1  0
 25 27  2  0
 26 25  1  0
 28 26  1  0
 29 38  2  0
 29 34  1  0
 30 26  1  0
 30 34  1  0
 31 30  1  0
 32 33  1  0
 32 31  1  0
 33 29  1  0
 34 35  2  0
 35 36  1  0
 37 36  2  0
 38 37  1  0
 39 13  1  0
 39 40  1  0
 39 49  1  0
 40 43  1  0
 41 45  1  0
 41 40  1  0
 42 41  2  0
 45 44  1  0
 47 45  1  0
 47 48  1  0
 47 46  1  0
 49 52  1  1
 49 50  1  0
 51 49  1  0
 53102  1  0
 53  1  1  0
 54 55  1  0
 55 57  1  0
 55 53  1  0
 56 54  2  0
 58 60  1  0
 59 58  1  0
 59 61  1  0
 60 62  1  0
 61 63  1  0
 62 54  1  0
 63 62  1  0
 63 72  1  0
 64 72  1  0
 64 70  1  0
 65 70  1  0
 66 67  1  0
 66 65  1  0
 68 67  1  0
 68 77  1  0
 68 69  1  0
 70 69  1  0
 71 64  2  0
 72 73  1  0
 74 75  2  0
 75 76  1  0
 75 94  1  0
 76 79  1  0
 77 74  1  0
 77 78  1  0
 78 76  2  0
 79 80  1  0
 80 81  2  0
 82 85  1  0
 82 81  1  0
 83 82  2  0
 84 83  1  0
 84 79  2  0
 85 86  1  0
 86 91  2  0
 86 87  1  0
 87 88  2  0
 88 89  1  0
 89 93  1  0
 90 89  2  0
 91 90  1  0
 92 91  1  0
 94 95  1  0
 95 98  1  0
 95 97  1  0
 96 94  2  0
 99101  1  0
 99100  1  0
 99 74  1  0
102103  2  0
M  ISO  4  11 101  12 101  64 100  72 100
M  END
>  <TORSDO>  (37) 
F 28

>  <SCORE>  (37) 
34.803

>  <name>  (37) 
37

>  <ligand_id>  (37) 
37

>  <original_smiles>  (37) 
[H]C(=O)C([H])(N([H])C(=O)C1([H])C([H])([H])C([H])([H])C([H])([H])C([H])([H])C1([H])N([H])C(=O)N1C([H])([H])C([H])([H])C([H])([H])C([H])(n2nc(-c3c([H])c([H])c(Oc4c([H])c([H])c(F)c([H])c4F)c([H])c3[H])c(C(=O)N([H])[H])c2N([H])[H])C1([H])[H])C([H])([H])C([H])([H])C([H])([H])C([H])([H])[N+]([H])([H])C([H])([H])C([H])([H])C([H])([H])C([H])([H])Oc1c([H])c([H])c2c(c1[H])C([H])([H])N(C(=O)C([H])(N([H])C(=O)C([H])(N([H])C([H])([H])[H])C([H])([H])[H])C(C([H])([H])[H])(C([H])([H])[H])C([H])([H])[H])C([H])(C(=O)N([H])C1([H])c3c([H])c([H])c([H])c([H])c3C([H])([H])C([H])([H])C1([H])[H])C2([H])[H]

>  <smiles>  (37) 
[H]C(=O)C([H])(N([H])C(=O)C1([H])C([H])([H])C([H])([H])C([H])([H])C([H])([H])C1([H])N([H])C(=O)N1C([H])([H])C([H])([H])C([H])([H])C([H])(n2nc(-c3c([H])c([H])c(Oc4c([H])c([H])c(F)c([H])c4F)c([H])c3[H])c(C(=O)N([H])[H])c2N([H])[H])C1([H])[H])C([H])([H])C([H])([H])C([H])([H])C([H])([H])[N+]([H])([H])C([H])([H])C([H])([H])C([H])([H])C([H])([H])Oc1c([H])c([H])c2c(c1[H])C([H])([H])N(C(=O)C([H])(N([H])C(=O)C([H])(N([H])C([H])([H])[H])C([H])([H])[H])C(C([H])([H])[H])(C([H])([H])[H])C([H])([H])[H])C([H])(C(=O)N([H])C1([H])c3c([H])c([H])c([H])c([H])c3C([H])([H])C([H])([H])C1([H])[H])C2([H])[H]

$$$$
38:0:0
     RDKit          3D

101109  0  0  1  0  0  0  0  0999 V2000
  -27.4110  -23.6880   21.6500 C   0  0  0  0  0  3  0  0  0  0  0  0
  -26.2170  -24.3380   22.3610 C   0  0  0  0  0  0  0  0  0  0  0  0
  -25.0220  -23.7600   22.2770 N   0  0  0  0  0  0  0  0  0  0  0  0
  -26.3890  -25.3700   23.0100 O   0  0  0  0  0  0  0  0  0  0  0  0
  -24.8700  -22.9370   21.7110 H   0  0  0  0  0  0  0  0  0  0  0  0
  -24.2410  -24.1410   22.7920 H   0  0  0  0  0  0  0  0  0  0  0  0
  -28.3200  -24.7680   21.2130 N   0  0  0  0  0  4  0  0  0  0  0  0
  -27.9410  -25.5710   21.7020 H   0  0  0  0  0  0  0  0  0  0  0  0
  -29.2440  -24.5920   21.5730 H   0  0  0  0  0  0  0  0  0  0  0  0
  -28.3680  -25.0320   19.7520 C   0  0  0  0  0  2  0  0  0  0  0  0
  -28.9140  -26.4410   19.4340 C   0  0  0  0  0  2  0  0  0  0  0  0
  -28.2590  -26.9600   18.2730 O   0  0  0  0  0  0  0  0  0  0  0  0
  -24.5550  -30.8910   22.8750 C   0  0  0  0  0  0  0  0  0  0  0  0
  -27.0710  -27.5830   18.5590 C   0  0  0  0  0  0  0  0  0  0  0  0
  -23.2440  -29.8450   21.0550 C   0  0  0  0  0  3  0  0  0  0  0  0
  -24.6090  -28.8120   19.1660 C   0  0  0  0  0  0  0  0  0  0  0  0
  -25.7070  -30.4430   20.7170 C   0  0  0  0  0  2  0  0  0  0  0  0
  -25.7910  -29.2810   19.7530 C   0  0  0  0  0  0  0  0  0  0  0  0
  -27.0250  -28.6770   19.4480 C   0  0  0  0  0  3  0  0  0  0  0  0
  -25.8800  -27.1190   17.9690 C   0  0  0  0  0  3  0  0  0  0  0  0
  -24.6450  -27.7250   18.2720 C   0  0  0  0  0  3  0  0  0  0  0  0
  -23.3340  -29.5350   19.5380 C   0  0  0  0  0  2  0  0  0  0  0  0
  -24.5250  -30.3930   21.6080 N   0  0  0  0  0  0  0  0  0  0  0  0
  -23.5290  -30.9380   23.5700 O   0  0  0  0  0  0  0  0  0  0  0  0
  -22.7590  -28.5730   21.7900 C   0  0  0  0  0  0  0  0  0  0  0  0
  -21.4590  -28.2660   21.6600 N   0  0  0  0  0  0  0  0  0  0  0  0
  -23.5480  -27.8760   22.4340 O   0  0  0  0  0  0  0  0  0  0  0  0
  -20.8760  -28.8940   21.1240 H   0  0  0  0  0  0  0  0  0  0  0  0
  -18.3110  -26.5000   21.8070 C   0  0  0  0  0  0  0  0  0  0  0  0
  -20.7890  -27.0990   22.2320 C   0  0  0  0  0  3  0  0  0  0  0  0
  -21.1310  -25.8170   21.4380 C   0  0  0  0  0  2  0  0  0  0  0  0
  -20.1130  -25.5000   20.3370 C   0  0  0  0  0  2  0  0  0  0  0  0
  -18.7140  -25.3250   20.9320 C   0  0  0  0  0  2  0  0  0  0  0  0
  -19.2850  -27.3410   22.4040 C   0  0  0  0  0  0  0  0  0  0  0  0
  -18.8560  -28.4440   23.1790 C   0  0  0  0  0  3  0  0  0  0  0  0
  -17.4840  -28.7010   23.3620 C   0  0  0  0  0  3  0  0  0  0  0  0
  -16.5240  -27.8570   22.7790 C   0  0  0  0  0  3  0  0  0  0  0  0
  -16.9390  -26.7560   22.0080 C   0  0  0  0  0  3  0  0  0  0  0  0
  -25.8700  -31.4510   23.5060 C   0  0  0  0  0  3  0  0  0  0  0  0
  -25.5940  -32.8200   23.9590 N   0  0  0  0  0  0  0  0  0  0  0  0
  -25.9830  -33.9270   23.3110 C   0  0  0  0  0  0  0  0  0  0  0  0
  -26.6840  -33.8980   22.2960 O   0  0  0  0  0  0  0  0  0  0  0  0
  -24.9840  -32.9200   24.7550 H   0  0  0  0  0  0  0  0  0  0  0  0
  -24.3580  -35.8270   23.0410 C   0  0  0  0  0  1  0  0  0  0  0  0
  -25.5220  -35.2810   23.8830 C   0  0  0  0  0  3  0  0  0  0  0  0
  -27.6240  -35.9720   24.9470 C   0  0  0  0  0  1  0  0  0  0  0  0
  -26.6020  -36.2900   23.9540 N   0  0  0  0  0  0  0  0  0  0  0  0
  -26.2210  -37.2060   24.1720 H   0  0  0  0  0  0  0  0  0  0  0  0
  -26.4170  -30.5670   24.6960 C   0  0  1  0  0  0  0  0  0  0  0  0
  -25.3610  -30.2600   25.7810 C   0  0  0  0  0  1  0  0  0  0  0  0
  -26.9600  -29.2170   24.1720 C   0  0  0  0  0  1  0  0  0  0  0  0
  -27.6040  -31.2870   25.3790 C   0  0  0  0  0  1  0  0  0  0  0  0
  -28.1320  -22.7450   22.6390 C   0  0  0  0  0  2  0  0  0  0  0  0
  -29.3710  -22.0400   22.0650 C   0  0  0  0  0  2  0  0  0  0  0  0
  -29.0050  -20.8720   21.1490 C   0  0  0  0  0  2  0  0  0  0  0  0
  -29.8830  -18.6140   20.8250 C   0  0  0  0  0  0  0  0  0  0  0  0
  -30.0790  -19.8960   21.1240 N   0  0  0  0  0  0  0  0  0  0  0  0
  -28.7610  -18.1730   20.5670 O   0  0  0  0  0  0  0  0  0  0  0  0
  -31.0180  -20.2090   21.3360 H   0  0  0  0  0  0  0  0  0  0  0  0
  -31.4000  -14.3100   19.6830 C   0  0  0  0  0  0  0  0  0  0  0  0
  -30.9790  -11.9990   18.9900 C   0  0  0  0  0  2  0  0  0  0  0  0
  -30.0250  -12.0670   17.7820 C   0  0  0  0  0  2  0  0  0  0  0  0
  -28.5510  -12.0970   18.2380 C   0  0  0  0  0  2  0  0  0  0  0  0
  -28.2840  -13.1250   19.3730 C   0  0  0  0  0  3  0  0  0  0  0  0
  -29.3660  -13.0450   20.4730 C   0  0  0  0  0  2  0  0  0  0  0  0
  -30.6860  -13.1640   19.8280 N   0  0  0  0  0  0  0  0  0  0  0  0
  -32.5280  -14.3490   19.1820 O   0  0  0  0  0  0  0  0  0  0  0  0
  -31.4580  -17.3070   18.3330 C   0  0  0  0  0  2  0  0  0  0  0  0
  -32.0440  -17.8840   19.6390 C   0  0  0  0  0  2  0  0  0  0  0  0
  -30.3860  -16.2270   18.5900 C   0  0  0  0  0  2  0  0  0  0  0  0
  -30.7460  -16.2030   21.0590 C   0  0  0  0  0  2  0  0  0  0  0  0
  -31.1190  -17.6980   20.8650 C   0  0  0  0  0  3  0  0  0  0  0  0
  -30.6750  -15.4360   19.8010 N   0  0  0  0  0  0  0  0  0  0  0  0
  -26.0110  -13.9620   20.2480 C   0  0  0  0  0  0  0  0  0  0  0  0
  -24.8910  -13.2960   20.6700 C   0  0  0  0  0  0  0  0  0  0  0  0
  -25.2020  -11.9060   20.5840 C   0  0  0  0  0  0  0  0  0  0  0  0
  -26.9400  -12.9820   19.9310 N   0  0  0  0  0  0  0  0  0  0  0  0
  -26.4590  -11.7370   20.1890 N   0  0  0  0  0  0  0  0  0  0  0  0
  -24.3560  -10.7230   20.7950 C   0  0  0  0  0  0  0  0  0  0  0  0
  -24.7780   -9.6520   21.6100 C   0  0  0  0  0  3  0  0  0  0  0  0
  -23.9430   -8.5330   21.8150 C   0  0  0  0  0  3  0  0  0  0  0  0
  -22.6680   -8.4790   21.2060 C   0  0  0  0  0  0  0  0  0  0  0  0
  -22.2580   -9.5400   20.3770 C   0  0  0  0  0  3  0  0  0  0  0  0
  -23.0940  -10.6500   20.1700 C   0  0  0  0  0  3  0  0  0  0  0  0
  -21.7970   -7.4230   21.3280 O   0  0  0  0  0  0  0  0  0  0  0  0
  -21.6580   -6.7360   22.5070 C   0  0  0  0  0  0  0  0  0  0  0  0
  -21.2750   -7.3810   23.7040 C   0  0  0  0  0  3  0  0  0  0  0  0
  -21.0740   -6.6260   24.8750 C   0  0  0  0  0  3  0  0  0  0  0  0
  -21.2430   -5.2290   24.8530 C   0  0  0  0  0  0  0  0  0  0  0  0
  -21.6190   -4.5840   23.6610 C   0  0  0  0  0  3  0  0  0  0  0  0
  -21.8220   -5.3360   22.4910 C   0  0  0  0  0  0  0  0  0  0  0  0
  -22.1630   -4.7080   21.3400 F   0  0  0  0  0  0  0  0  0  0  0  0
  -21.0430   -4.5020   25.9770 F   0  0  0  0  0  0  0  0  0  0  0  0
  -23.5710  -13.9110   21.0420 C   0  0  0  0  0  0  0  0  0  0  0  0
  -22.8860  -13.3470   22.0310 N   0  0  0  0  0  0  0  0  0  0  0  0
  -23.1630  -14.9300   20.4880 O   0  0  0  0  0  0  0  0  0  0  0  0
  -23.2320  -12.5280   22.5090 H   0  0  0  0  0  0  0  0  0  0  0  0
  -21.9990  -13.7430   22.3130 H   0  0  0  0  0  0  0  0  0  0  0  0
  -26.3070  -15.3120   20.0960 N   0  0  0  0  0  0  0  0  0  0  0  0
  -25.6270  -16.0410   20.2850 H   0  0  0  0  0  0  0  0  0  0  0  0
  -27.2160  -15.6820   19.8440 H   0  0  0  0  0  0  0  0  0  0  0  0
  1  2  1  0
  1 53  1  0
  2  4  2  0
  3  2  1  0
  3  6  1  0
  5  3  1  0
  7  9  1  0
  7  1  1  0
  7  8  1  0
 10  7  1  0
 11 10  1  0
 12 14  1  0
 12 11  1  0
 13 24  2  0
 14 19  1  0
 15 23  1  0
 15 25  1  0
 16 22  1  0
 16 18  1  0
 17 23  1  0
 18 17  1  0
 19 18  2  0
 20 21  1  0
 20 14  2  0
 21 16  2  0
 22 15  1  0
 23 13  1  0
 25 27  2  0
 26 25  1  0
 28 26  1  0
 29 38  2  0
 29 34  1  0
 30 26  1  0
 30 34  1  0
 31 30  1  0
 32 33  1  0
 32 31  1  0
 33 29  1  0
 34 35  2  0
 35 36  1  0
 37 36  2  0
 38 37  1  0
 39 13  1  0
 39 40  1  0
 39 49  1  0
 40 43  1  0
 41 45  1  0
 41 40  1  0
 42 41  2  0
 45 44  1  0
 45 47  1  0
 47 48  1  0
 47 46  1  0
 49 52  1  1
 49 50  1  0
 51 49  1  0
 54 53  1  0
 55 54  1  0
 56 57  1  0
 57 55  1  0
 57 59  1  0
 58 56  2  0
 60 73  1  0
 60 66  1  0
 61 66  1  0
 62 63  1  0
 62 61  1  0
 64 63  1  0
 64 77  1  0
 64 65  1  0
 66 65  1  0
 67 60  2  0
 68 70  1  0
 68 69  1  0
 69 72  1  0
 70 73  1  0
 72 56  1  0
 72 71  1  0
 73 71  1  0
 74 75  2  0
 75 94  1  0
 76 75  1  0
 76 79  1  0
 77 78  1  0
 77 74  1  0
 78 76  2  0
 79 80  1  0
 80 81  2  0
 82 85  1  0
 82 81  1  0
 83 82  2  0
 84 83  1  0
 84 79  2  0
 85 86  1  0
 86 87  1  0
 87 88  2  0
 89 88  1  0
 89 93  1  0
 90 89  2  0
 91 86  2  0
 91 90  1  0
 92 91  1  0
 94 95  1  0
 95 98  1  0
 95 97  1  0
 96 94  2  0
 99 74  1  0
 99100  1  0
101 99  1  0
M  ISO  4  11 101  12 101  60 100  73 100
M  END
>  <TORSDO>  (38) 
F 24

>  <SCORE>  (38) 
-9.679

>  <name>  (38) 
38

>  <ligand_id>  (38) 
38

>  <original_smiles>  (38) 
[H]c1c([H])c([H])c2c(c1[H])C([H])([H])C([H])([H])C([H])([H])C2([H])N([H])C(=O)C1([H])N(C(=O)C([H])(N([H])C(=O)C([H])(N([H])C([H])([H])[H])C([H])([H])[H])C(C([H])([H])[H])(C([H])([H])[H])C([H])([H])[H])C([H])([H])c2c([H])c(OC([H])([H])C([H])([H])[N+]([H])([H])C([H])(C(=O)N([H])[H])C([H])([H])C([H])([H])C([H])([H])N([H])C(=O)C3([H])C([H])([H])N(C(=O)N4C([H])([H])C([H])([H])C([H])([H])C([H])(n5nc(-c6c([H])c([H])c(Oc7c([H])c([H])c(F)c([H])c7F)c([H])c6[H])c(C(=O)N([H])[H])c5N([H])[H])C4([H])[H])C([H])([H])C([H])([H])C3([H])[H])c([H])c([H])c2C1([H])[H]

>  <smiles>  (38) 
[H]c1c([H])c([H])c2c(c1[H])C([H])([H])C([H])([H])C([H])([H])C2([H])N([H])C(=O)C1([H])N(C(=O)C([H])(N([H])C(=O)C([H])(N([H])C([H])([H])[H])C([H])([H])[H])C(C([H])([H])[H])(C([H])([H])[H])C([H])([H])[H])C([H])([H])c2c([H])c(OC([H])([H])C([H])([H])[N+]([H])([H])C([H])(C(=O)N([H])[H])C([H])([H])C([H])([H])C([H])([H])N([H])C(=O)C3([H])C([H])([H])N(C(=O)N4C([H])([H])C([H])([H])C([H])([H])C([H])(n5nc(-c6c([H])c([H])c(Oc7c([H])c([H])c(F)c([H])c7F)c([H])c6[H])c(C(=O)N([H])[H])c5N([H])[H])C4([H])[H])C([H])([H])C([H])([H])C3([H])[H])c([H])c([H])c2C1([H])[H]

$$$$
39:0:0
     RDKit          3D

100108  0  0  1  0  0  0  0  0999 V2000
  -32.6440  -19.4710   21.7900 C   0  0  0  0  0  2  0  0  0  0  0  0
  -32.8260  -20.0730   20.3910 C   0  0  0  0  0  2  0  0  0  0  0  0
  -31.1350  -19.4980   22.0320 C   0  0  0  0  0  2  0  0  0  0  0  0
  -31.4230  -20.5500   19.9180 C   0  0  0  0  0  3  0  0  0  0  0  0
  -30.5160  -19.6420   20.6980 N   0  0  1  0  0  4  0  0  0  0  0  0
  -29.6340  -20.1190   20.8140 H   0  0  0  0  0  0  0  0  0  0  0  0
  -32.1350  -22.9130   19.1780 C   0  0  0  0  0  1  0  0  0  0  0  0
  -31.2400  -22.1220   20.1690 C   0  0  0  0  0  3  0  0  0  0  0  0
  -29.7980  -22.7750   20.0780 C   0  0  0  0  0  2  0  0  0  0  0  0
  -29.6840  -24.3240   20.4570 C   0  0  0  0  0  3  0  0  0  0  0  0
  -29.7500  -24.5230   21.9210 N   0  0  0  0  0  4  0  0  0  0  0  0
  -28.9720  -24.0930   22.3940 H   0  0  0  0  0  0  0  0  0  0  0  0
  -29.7170  -25.5090   22.1240 H   0  0  0  0  0  0  0  0  0  0  0  0
  -30.6030  -24.1640   22.3160 H   0  0  0  0  0  0  0  0  0  0  0  0
  -28.4420  -25.1080   19.8940 C   0  0  0  0  0  2  0  0  0  0  0  0
  -28.5330  -26.5600   20.0620 O   0  0  0  0  0  0  0  0  0  0  0  0
  -24.5050  -31.6380   23.1010 C   0  0  0  0  0  0  0  0  0  0  0  0
  -27.3550  -27.3020   19.9980 C   0  0  0  0  0  0  0  0  0  0  0  0
  -23.3780  -30.2200   21.4210 C   0  0  0  0  0  3  0  0  0  0  0  0
  -24.9110  -28.7670   19.9830 C   0  0  0  0  0  0  0  0  0  0  0  0
  -25.8980  -30.6670   21.2670 C   0  0  0  0  0  2  0  0  0  0  0  0
  -26.0450  -29.3100   20.5980 C   0  0  0  0  0  0  0  0  0  0  0  0
  -27.2690  -28.5910   20.5950 C   0  0  0  0  0  3  0  0  0  0  0  0
  -26.1990  -26.7970   19.3590 C   0  0  0  0  0  3  0  0  0  0  0  0
  -24.9870  -27.5140   19.3540 C   0  0  0  0  0  3  0  0  0  0  0  0
  -23.6340  -29.5790   20.0320 C   0  0  0  0  0  2  0  0  0  0  0  0
  -24.6110  -30.8580   21.9880 N   0  0  0  0  0  0  0  0  0  0  0  0
  -23.4060  -31.8570   23.6320 O   0  0  0  0  0  0  0  0  0  0  0  0
  -22.7560  -29.1550   22.3560 C   0  0  0  0  0  0  0  0  0  0  0  0
  -21.4360  -28.9380   22.2270 N   0  0  0  0  0  0  0  0  0  0  0  0
  -23.4600  -28.5280   23.1520 O   0  0  0  0  0  0  0  0  0  0  0  0
  -20.9280  -29.4990   21.5570 H   0  0  0  0  0  0  0  0  0  0  0  0
  -18.1030  -27.6180   22.6920 C   0  0  0  0  0  0  0  0  0  0  0  0
  -20.6500  -27.9560   22.9750 C   0  0  0  0  0  3  0  0  0  0  0  0
  -20.8010  -26.5410   22.3680 C   0  0  0  0  0  2  0  0  0  0  0  0
  -19.7120  -26.2050   21.3440 C   0  0  0  0  0  2  0  0  0  0  0  0
  -18.3250  -26.2900   21.9870 C   0  0  0  0  0  2  0  0  0  0  0  0
  -19.1940  -28.4060   23.1410 C   0  0  0  0  0  0  0  0  0  0  0  0
  -18.9330  -29.6490   23.7600 C   0  0  0  0  0  3  0  0  0  0  0  0
  -17.6120  -30.1030   23.9330 C   0  0  0  0  0  3  0  0  0  0  0  0
  -16.5350  -29.3120   23.4990 C   0  0  0  0  0  3  0  0  0  0  0  0
  -16.7810  -28.0700   22.8850 C   0  0  0  0  0  3  0  0  0  0  0  0
  -25.7550  -32.3130   23.7480 C   0  0  0  0  0  3  0  0  0  0  0  0
  -26.2820  -31.5500   25.0250 C   0  0  1  0  0  0  0  0  0  0  0  0
  -25.1870  -31.2750   26.0820 C   0  0  0  0  0  1  0  0  0  0  0  0
  -26.9090  -30.1920   24.6320 C   0  0  0  0  0  1  0  0  0  0  0  0
  -27.4000  -32.3770   25.7030 C   0  0  0  0  0  1  0  0  0  0  0  0
  -25.3870  -33.6950   24.0830 N   0  0  0  0  0  0  0  0  0  0  0  0
  -25.7070  -34.7670   23.3470 C   0  0  0  0  0  0  0  0  0  0  0  0
  -26.4140  -34.6990   22.3360 O   0  0  0  0  0  0  0  0  0  0  0  0
  -24.7620  -33.8180   24.8650 H   0  0  0  0  0  0  0  0  0  0  0  0
  -23.9290  -36.5030   22.9590 C   0  0  0  0  0  1  0  0  0  0  0  0
  -25.1580  -36.1320   23.8030 C   0  0  0  0  0  3  0  0  0  0  0  0
  -27.2340  -37.0790   24.7070 C   0  0  0  0  0  1  0  0  0  0  0  0
  -26.1550  -37.2210   23.7340 N   0  0  0  0  0  0  0  0  0  0  0  0
  -25.7130  -38.1240   23.8800 H   0  0  0  0  0  0  0  0  0  0  0  0
  -30.0950  -18.3300   20.0560 C   0  0  0  0  0  3  0  0  0  0  0  0
  -27.7530  -19.3880   20.7010 C   0  0  0  0  0  1  0  0  0  0  0  0
  -28.5440  -18.1590   20.1830 C   0  0  0  0  0  3  0  0  0  0  0  0
  -27.8310  -18.6970   17.7290 C   0  0  0  0  0  1  0  0  0  0  0  0
  -27.9240  -17.6600   18.8650 C   0  0  0  0  0  2  0  0  0  0  0  0
  -30.9210  -17.0320   20.4880 C   0  0  0  0  0  2  0  0  0  0  0  0
  -30.9470  -14.5600   19.9470 C   0  0  0  0  0  0  0  0  0  0  0  0
  -30.5590  -12.3210   18.9640 C   0  0  0  0  0  2  0  0  0  0  0  0
  -29.5840  -12.4620   17.7770 C   0  0  0  0  0  2  0  0  0  0  0  0
  -28.1210  -12.3880   18.2630 C   0  0  0  0  0  2  0  0  0  0  0  0
  -27.8470  -13.3100   19.4830 C   0  0  0  0  0  3  0  0  0  0  0  0
  -28.9370  -13.1520   20.5660 C   0  0  0  0  0  2  0  0  0  0  0  0
  -30.2390  -13.3930   19.9250 N   0  0  0  0  0  0  0  0  0  0  0  0
  -32.0850  -14.6360   19.4750 O   0  0  0  0  0  0  0  0  0  0  0  0
  -30.2970  -15.6800   20.3660 N   0  0  0  0  0  0  0  0  0  0  0  0
  -29.3480  -15.5630   20.6820 H   0  0  0  0  0  0  0  0  0  0  0  0
  -25.5400  -14.0380   20.3580 C   0  0  0  0  0  0  0  0  0  0  0  0
  -24.4460  -13.3310   20.7690 C   0  0  0  0  0  0  0  0  0  0  0  0
  -24.8020  -11.9560   20.6420 C   0  0  0  0  0  0  0  0  0  0  0  0
  -26.5060  -13.1030   20.0280 N   0  0  0  0  0  0  0  0  0  0  0  0
  -26.0670  -11.8390   20.2520 N   0  0  0  0  0  0  0  0  0  0  0  0
  -23.9910  -10.7450   20.8120 C   0  0  0  0  0  0  0  0  0  0  0  0
  -24.4140   -9.6820   21.6390 C   0  0  0  0  0  3  0  0  0  0  0  0
  -23.6060   -8.5370   21.7980 C   0  0  0  0  0  3  0  0  0  0  0  0
  -22.3620   -8.4480   21.1290 C   0  0  0  0  0  0  0  0  0  0  0  0
  -21.9570   -9.4990   20.2880 C   0  0  0  0  0  3  0  0  0  0  0  0
  -22.7650  -10.6360   20.1270 C   0  0  0  0  0  3  0  0  0  0  0  0
  -21.5220   -7.3620   21.2040 O   0  0  0  0  0  0  0  0  0  0  0  0
  -21.5210   -6.5300   22.2940 C   0  0  0  0  0  0  0  0  0  0  0  0
  -21.2920   -7.0150   23.6000 C   0  0  0  0  0  3  0  0  0  0  0  0
  -21.2270   -6.1140   24.6820 C   0  0  0  0  0  3  0  0  0  0  0  0
  -21.3860   -4.7330   24.4620 C   0  0  0  0  0  0  0  0  0  0  0  0
  -21.6100   -4.2490   23.1610 C   0  0  0  0  0  3  0  0  0  0  0  0
  -21.6780   -5.1460   22.0790 C   0  0  0  0  0  0  0  0  0  0  0  0
  -21.8750   -4.6740   20.8260 F   0  0  0  0  0  0  0  0  0  0  0  0
  -21.3170   -3.8670   25.5000 F   0  0  0  0  0  0  0  0  0  0  0  0
  -23.1110  -13.9010   21.1520 C   0  0  0  0  0  0  0  0  0  0  0  0
  -22.3920  -13.2330   22.0470 N   0  0  0  0  0  0  0  0  0  0  0  0
  -22.7200  -14.9770   20.7010 O   0  0  0  0  0  0  0  0  0  0  0  0
  -22.7250  -12.3660   22.4440 H   0  0  0  0  0  0  0  0  0  0  0  0
  -21.4980  -13.6020   22.3420 H   0  0  0  0  0  0  0  0  0  0  0  0
  -25.7740  -15.3940   20.2070 N   0  0  0  0  0  0  0  0  0  0  0  0
  -25.0400  -16.0780   20.3550 H   0  0  0  0  0  0  0  0  0  0  0  0
  -26.5810  -15.7750   19.7360 H   0  0  0  0  0  0  0  0  0  0  0  0
  1  3  1  0
  2  1  1  0
  4  8  1  0
  4  2  1  0
  4  5  1  0
  5  6  1  1
  5  3  1  0
  8  7  1  0
  9  8  1  0
  9 10  1  0
 10 15  1  0
 10 11  1  0
 11 13  1  0
 11 14  1  0
 11 12  1  0
 15 16  1  0
 17 28  2  0
 18 16  1  0
 18 23  1  0
 19 27  1  0
 19 29  1  0
 20 26  1  0
 20 22  1  0
 21 27  1  0
 22 21  1  0
 23 22  2  0
 24 18  2  0
 25 24  1  0
 25 20  2  0
 26 19  1  0
 27 17  1  0
 29 31  2  0
 30 29  1  0
 32 30  1  0
 33 42  2  0
 33 38  1  0
 34 30  1  0
 34 38  1  0
 35 34  1  0
 36 37  1  0
 36 35  1  0
 37 33  1  0
 38 39  2  0
 39 40  1  0
 41 40  2  0
 42 41  1  0
 43 17  1  0
 43 48  1  0
 43 44  1  0
 44 47  1  1
 44 45  1  0
 46 44  1  0
 48 51  1  0
 49 53  1  0
 49 48  1  0
 50 49  2  0
 53 52  1  0
 55 53  1  0
 55 56  1  0
 55 54  1  0
 57 59  1  0
 57 62  1  0
 57  5  1  0
 59 58  1  0
 60 61  1  0
 61 59  1  0
 63 71  1  0
 64 69  1  0
 65 66  1  0
 65 64  1  0
 67 66  1  0
 67 76  1  0
 67 68  1  0
 69 63  1  0
 69 68  1  0
 70 63  2  0
 71 62  1  0
 71 72  1  0
 73 74  2  0
 74 93  1  0
 75 74  1  0
 75 78  1  0
 76 77  1  0
 76 73  1  0
 77 75  2  0
 78 79  1  0
 79 80  2  0
 81 84  1  0
 81 80  1  0
 82 81  2  0
 83 82  1  0
 83 78  2  0
 84 85  1  0
 85 86  1  0
 86 87  2  0
 88 87  1  0
 88 92  1  0
 89 88  2  0
 90 85  2  0
 90 89  1  0
 91 90  1  0
 93 94  1  0
 94 97  1  0
 94 96  1  0
 95 93  2  0
 98 99  1  0
 98 73  1  0
100 98  1  0
M  ISO  4  15 101  16 101  63 100  71 100
M  END
>  <TORSDO>  (39) 
F 25

>  <SCORE>  (39) 
-11.846

>  <name>  (39) 
39

>  <ligand_id>  (39) 
39

>  <original_smiles>  (39) 
[H]c1c([H])c([H])c2c(c1[H])C([H])([H])C([H])([H])C([H])([H])C2([H])N([H])C(=O)C1([H])N(C(=O)C([H])(N([H])C(=O)C([H])(N([H])C([H])([H])[H])C([H])([H])[H])C(C([H])([H])[H])(C([H])([H])[H])C([H])([H])[H])C([H])([H])c2c([H])c(OC([H])([H])C([H])(C([H])([H])C([H])(C([H])([H])[H])C3([H])C([H])([H])C([H])([H])C([H])([H])[N+]3([H])C([H])(C([H])([H])N([H])C(=O)N3C([H])([H])C([H])([H])C([H])([H])C([H])(n4nc(-c5c([H])c([H])c(Oc6c([H])c([H])c(F)c([H])c6F)c([H])c5[H])c(C(=O)N([H])[H])c4N([H])[H])C3([H])[H])C([H])(C([H])([H])[H])C([H])([H])C([H])([H])[H])[N+]([H])([H])[H])c([H])c([H])c2C1([H])[H]

>  <smiles>  (39) 
[H]c1c([H])c([H])c2c(c1[H])C([H])([H])C([H])([H])C([H])([H])C2([H])N([H])C(=O)C1([H])N(C(=O)C([H])(N([H])C(=O)C([H])(N([H])C([H])([H])[H])C([H])([H])[H])C(C([H])([H])[H])(C([H])([H])[H])C([H])([H])[H])C([H])([H])c2c([H])c(OC([H])([H])C([H])(C([H])([H])C([H])(C([H])([H])[H])C3([H])C([H])([H])C([H])([H])C([H])([H])[N+]3([H])C([H])(C([H])([H])N([H])C(=O)N3C([H])([H])C([H])([H])C([H])([H])C([H])(n4nc(-c5c([H])c([H])c(Oc6c([H])c([H])c(F)c([H])c6F)c([H])c5[H])c(C(=O)N([H])[H])c4N([H])[H])C3([H])[H])C([H])(C([H])([H])[H])C([H])([H])C([H])([H])[H])[N+]([H])([H])[H])c([H])c([H])c2C1([H])[H]

$$$$
40:0:0
     RDKit          3D

101109  0  0  1  0  0  0  0  0999 V2000
  -32.0340  -20.8210   19.6500 C   0  0  0  0  0  2  0  0  0  0  0  0
  -30.9910  -20.9720   20.7610 C   0  0  0  0  0  2  0  0  0  0  0  0
  -31.5160  -19.6830   18.7570 C   0  0  0  0  0  2  0  0  0  0  0  0
  -29.6820  -20.4870   20.1230 C   0  0  0  0  0  3  0  0  0  0  0  0
  -30.1060  -19.4280   19.1390 N   0  0  2  0  0  4  0  0  0  0  0  0
  -29.5850  -19.7110   18.3180 H   0  0  0  0  0  0  0  0  0  0  0  0
  -29.0260  -21.7180   19.3940 C   0  0  0  0  0  0  0  0  0  0  0  0
  -28.5210  -22.7640   20.1160 N   0  0  0  0  0  0  0  0  0  0  0  0
  -29.0420  -21.7000   18.1660 O   0  0  0  0  0  0  0  0  0  0  0  0
  -28.6600  -22.6730   21.1190 H   0  0  0  0  0  0  0  0  0  0  0  0
  -27.7100  -23.9840   19.7620 C   0  0  0  0  0  3  0  0  0  0  0  0
  -25.6590  -22.4130   19.3610 C   0  0  0  0  0  1  0  0  0  0  0  0
  -26.7150  -23.4870   17.3530 C   0  0  0  0  0  1  0  0  0  0  0  0
  -26.4600  -23.6280   18.8730 C   0  0  0  0  0  3  0  0  0  0  0  0
  -28.5060  -25.3100   19.3190 C   0  0  0  0  0  2  0  0  0  0  0  0
  -28.3690  -26.6470   19.9560 O   0  0  0  0  0  0  0  0  0  0  0  0
  -24.6250  -31.9130   23.1130 C   0  0  0  0  0  0  0  0  0  0  0  0
  -27.2380  -27.4680   19.8850 C   0  0  0  0  0  0  0  0  0  0  0  0
  -23.4110  -30.5400   21.4570 C   0  0  0  0  0  3  0  0  0  0  0  0
  -24.8580  -29.0570   19.9440 C   0  0  0  0  0  0  0  0  0  0  0  0
  -25.9430  -30.8810   21.2600 C   0  0  0  0  0  2  0  0  0  0  0  0
  -26.0180  -29.5250   20.5730 C   0  0  0  0  0  0  0  0  0  0  0  0
  -27.1990  -28.7280   20.5570 C   0  0  0  0  0  3  0  0  0  0  0  0
  -26.0830  -27.0980   19.1680 C   0  0  0  0  0  3  0  0  0  0  0  0
  -24.8970  -27.8550   19.2200 C   0  0  0  0  0  3  0  0  0  0  0  0
  -23.6110  -29.9120   20.0490 C   0  0  0  0  0  2  0  0  0  0  0  0
  -24.6770  -31.1310   21.9980 N   0  0  0  0  0  0  0  0  0  0  0  0
  -23.5480  -32.1720   23.6730 O   0  0  0  0  0  0  0  0  0  0  0  0
  -22.7820  -29.4860   22.3990 C   0  0  0  0  0  0  0  0  0  0  0  0
  -21.4560  -29.3100   22.3030 N   0  0  0  0  0  0  0  0  0  0  0  0
  -23.4830  -28.8320   23.1740 O   0  0  0  0  0  0  0  0  0  0  0  0
  -20.9470  -29.8900   21.6510 H   0  0  0  0  0  0  0  0  0  0  0  0
  -18.0830  -28.1250   22.8770 C   0  0  0  0  0  0  0  0  0  0  0  0
  -20.6530  -28.3510   23.0630 C   0  0  0  0  0  3  0  0  0  0  0  0
  -20.7200  -26.9450   22.4260 C   0  0  0  0  0  2  0  0  0  0  0  0
  -19.5800  -26.6730   21.4400 C   0  0  0  0  0  2  0  0  0  0  0  0
  -18.2200  -26.8040   22.1380 C   0  0  0  0  0  2  0  0  0  0  0  0
  -19.2260  -28.8600   23.2960 C   0  0  0  0  0  0  0  0  0  0  0  0
  -19.0400  -30.0980   23.9450 C   0  0  0  0  0  3  0  0  0  0  0  0
  -17.7460  -30.6040   24.1780 C   0  0  0  0  0  3  0  0  0  0  0  0
  -16.6200  -29.8640   23.7780 C   0  0  0  0  0  3  0  0  0  0  0  0
  -16.7880  -28.6270   23.1330 C   0  0  0  0  0  3  0  0  0  0  0  0
  -25.9120  -32.5410   23.7300 C   0  0  0  0  0  3  0  0  0  0  0  0
  -26.4370  -31.7670   25.0030 C   0  0  1  0  0  0  0  0  0  0  0  0
  -25.3490  -31.5340   26.0760 C   0  0  0  0  0  1  0  0  0  0  0  0
  -27.0120  -30.3860   24.6090 C   0  0  0  0  0  1  0  0  0  0  0  0
  -27.5920  -32.5570   25.6630 C   0  0  0  0  0  1  0  0  0  0  0  0
  -25.6110  -33.9400   24.0700 N   0  0  0  0  0  0  0  0  0  0  0  0
  -25.9320  -34.9960   23.3080 C   0  0  0  0  0  0  0  0  0  0  0  0
  -26.5870  -34.8960   22.2660 O   0  0  0  0  0  0  0  0  0  0  0  0
  -25.0430  -34.0950   24.8900 H   0  0  0  0  0  0  0  0  0  0  0  0
  -24.1930  -36.7840   22.9820 C   0  0  0  0  0  1  0  0  0  0  0  0
  -25.4460  -36.3820   23.7750 C   0  0  0  0  0  3  0  0  0  0  0  0
  -27.5870  -37.2740   24.5800 C   0  0  0  0  0  1  0  0  0  0  0  0
  -26.4730  -37.4380   23.6490 N   0  0  0  0  0  0  0  0  0  0  0  0
  -26.0670  -38.3570   23.7990 H   0  0  0  0  0  0  0  0  0  0  0  0
  -28.1900  -17.8710   19.2490 C   0  0  0  0  0  1  0  0  0  0  0  0
  -29.7380  -17.9650   19.3180 C   0  0  0  0  0  3  0  0  0  0  0  0
  -30.2210  -17.2040   20.6270 C   0  0  0  0  0  0  0  0  0  0  0  0
  -30.5140  -14.7100   19.9570 C   0  0  0  0  0  0  0  0  0  0  0  0
  -30.0990  -12.5660   18.7740 C   0  0  0  0  0  2  0  0  0  0  0  0
  -29.0690  -12.8150   17.6530 C   0  0  0  0  0  2  0  0  0  0  0  0
  -27.6360  -12.6570   18.2000 C   0  0  0  0  0  2  0  0  0  0  0  0
  -27.4020  -13.4470   19.5200 C   0  0  0  0  0  3  0  0  0  0  0  0
  -28.5530  -13.2010   20.5270 C   0  0  0  0  0  2  0  0  0  0  0  0
  -29.8270  -13.5300   19.8590 N   0  0  0  0  0  0  0  0  0  0  0  0
  -31.5710  -14.8960   19.3420 O   0  0  0  0  0  0  0  0  0  0  0  0
  -29.9180  -15.7280   20.6200 N   0  0  0  0  0  4  0  0  0  0  0  0
  -29.0810  -15.4710   21.1220 H   0  0  0  0  0  0  0  0  0  0  0  0
  -25.0740  -14.0070   20.4650 C   0  0  0  0  0  0  0  0  0  0  0  0
  -24.0330  -13.2130   20.8760 C   0  0  0  0  0  0  0  0  0  0  0  0
  -24.4790  -11.8660   20.7310 C   0  0  0  0  0  0  0  0  0  0  0  0
  -26.0870  -13.1380   20.0930 N   0  0  0  0  0  0  0  0  0  0  0  0
  -25.7420  -11.8430   20.3110 N   0  0  0  0  0  0  0  0  0  0  0  0
  -23.7610  -10.5940   20.9070 C   0  0  0  0  0  0  0  0  0  0  0  0
  -24.2410   -9.5870   21.7700 C   0  0  0  0  0  3  0  0  0  0  0  0
  -23.5220   -8.3830   21.9400 C   0  0  0  0  0  3  0  0  0  0  0  0
  -22.3080   -8.1780   21.2450 C   0  0  0  0  0  0  0  0  0  0  0  0
  -21.8420   -9.1750   20.3670 C   0  0  0  0  0  3  0  0  0  0  0  0
  -22.5620  -10.3680   20.1960 C   0  0  0  0  0  3  0  0  0  0  0  0
  -21.5550   -7.0330   21.3280 O   0  0  0  0  0  0  0  0  0  0  0  0
  -21.5550   -6.2490   22.4550 C   0  0  0  0  0  0  0  0  0  0  0  0
  -21.1760   -6.7610   23.7170 C   0  0  0  0  0  3  0  0  0  0  0  0
  -21.1260   -5.9060   24.8360 C   0  0  0  0  0  3  0  0  0  0  0  0
  -21.4340   -4.5400   24.6940 C   0  0  0  0  0  0  0  0  0  0  0  0
  -21.8030   -4.0270   23.4400 C   0  0  0  0  0  3  0  0  0  0  0  0
  -21.8550   -4.8800   22.3210 C   0  0  0  0  0  0  0  0  0  0  0  0
  -22.1920   -4.3740   21.1100 F   0  0  0  0  0  0  0  0  0  0  0  0
  -21.3730   -3.7180   25.7690 F   0  0  0  0  0  0  0  0  0  0  0  0
  -22.6610  -13.6770   21.2850 C   0  0  0  0  0  0  0  0  0  0  0  0
  -22.0070  -12.9440   22.1790 N   0  0  0  0  0  0  0  0  0  0  0  0
  -22.1890  -14.7250   20.8580 O   0  0  0  0  0  0  0  0  0  0  0  0
  -22.4010  -12.0960   22.5570 H   0  0  0  0  0  0  0  0  0  0  0  0
  -21.0910  -13.2370   22.4920 H   0  0  0  0  0  0  0  0  0  0  0  0
  -25.2300  -15.3850   20.3550 N   0  0  0  0  0  0  0  0  0  0  0  0
  -24.4960  -16.0410   20.5910 H   0  0  0  0  0  0  0  0  0  0  0  0
  -26.0630  -15.8330   19.9980 H   0  0  0  0  0  0  0  0  0  0  0  0
  -31.5830  -17.5620   21.3170 C   0  0  0  0  0  2  0  0  0  0  0  0
  -31.4790  -17.9880   22.8200 C   0  0  0  0  0  2  0  0  0  0  0  0
  -30.4080  -19.7960   24.4540 C   0  0  0  0  0  1  0  0  0  0  0  0
  -30.3780  -19.0450   23.1190 C   0  0  0  0  0  2  0  0  0  0  0  0
  1  2  1  0
  3  5  1  0
  3  1  1  0
  4  7  1  0
  4  2  1  0
  5 58  1  0
  5  4  1  0
  5  6  1  6
  7  8  1  0
  8 10  1  0
  9  7  2  0
 11 15  1  0
 11  8  1  0
 13 14  1  0
 14 12  1  0
 14 11  1  0
 15 16  1  0
 17 28  2  0
 18 16  1  0
 18 23  1  0
 19 27  1  0
 19 29  1  0
 20 26  1  0
 20 22  1  0
 21 27  1  0
 22 21  1  0
 23 22  2  0
 24 25  1  0
 24 18  2  0
 25 20  2  0
 26 19  1  0
 27 17  1  0
 29 31  2  0
 30 29  1  0
 32 30  1  0
 33 42  2  0
 33 38  1  0
 34 30  1  0
 34 38  1  0
 35 34  1  0
 36 37  1  0
 36 35  1  0
 37 33  1  0
 38 39  2  0
 39 40  1  0
 41 40  2  0
 42 41  1  0
 43 17  1  0
 43 48  1  0
 43 44  1  0
 44 47  1  1
 44 45  1  0
 46 44  1  0
 48 51  1  0
 49 53  1  0
 49 48  1  0
 50 49  2  0
 53 52  1  0
 55 53  1  0
 55 56  1  0
 55 54  1  0
 58 57  1  0
 58 59  1  0
 59 98  1  0
 60 68  1  0
 61 66  1  0
 62 63  1  0
 62 61  1  0
 64 63  1  0
 64 73  1  0
 64 65  1  0
 66 60  1  0
 66 65  1  0
 67 60  2  0
 68 59  2  3
 68 69  1  0
 70 71  2  0
 71 90  1  0
 72 71  1  0
 72 75  1  0
 73 74  1  0
 73 70  1  0
 74 72  2  0
 75 76  1  0
 76 77  2  0
 78 81  1  0
 78 77  1  0
 79 78  2  0
 80 79  1  0
 80 75  2  0
 81 82  1  0
 82 83  1  0
 83 84  2  0
 85 84  1  0
 85 89  1  0
 86 85  2  0
 87 82  2  0
 87 86  1  0
 88 87  1  0
 90 91  1  0
 91 94  1  0
 91 93  1  0
 92 90  2  0
 95 70  1  0
 95 96  1  0
 97 95  1  0
 98 99  1  0
 99101  1  0
101100  1  0
M  ISO  4  15 101  16 101  60 100  68 100
M  END
>  <TORSDO>  (40) 
F 25

>  <SCORE>  (40) 
-10.466

>  <name>  (40) 
40

>  <ligand_id>  (40) 
40

>  <original_smiles>  (40) 
[H]c1c([H])c([H])c2c(c1[H])C([H])([H])C([H])([H])C([H])([H])C2([H])N([H])C(=O)C1([H])N(C(=O)C([H])(N([H])C(=O)C([H])(N([H])C([H])([H])[H])C([H])([H])[H])C(C([H])([H])[H])(C([H])([H])[H])C([H])([H])[H])C([H])([H])c2c([H])c(OC([H])([H])C([H])(N([H])C(=O)C3([H])C([H])([H])C([H])([H])C([H])([H])[N+]3([H])C([H])(C([H])([H])[H])C([H])(N([H])C(=O)N3C([H])([H])C([H])([H])C([H])([H])C([H])(n4nc(-c5c([H])c([H])c(Oc6c([H])c([H])c(F)c([H])c6F)c([H])c5[H])c(C(=O)N([H])[H])c4N([H])[H])C3([H])[H])C([H])([H])C([H])([H])C([H])([H])C([H])([H])[H])C([H])(C([H])([H])[H])C([H])([H])[H])c([H])c([H])c2C1([H])[H]

>  <smiles>  (40) 
[H]c1c([H])c([H])c2c(c1[H])C([H])([H])C([H])([H])C([H])([H])C2([H])N([H])C(=O)C1([H])N(C(=O)C([H])(N([H])C(=O)C([H])(N([H])C([H])([H])[H])C([H])([H])[H])C(C([H])([H])[H])(C([H])([H])[H])C([H])([H])[H])C([H])([H])c2c([H])c(OC([H])([H])C([H])(N([H])C(=O)C3([H])C([H])([H])C([H])([H])C([H])([H])[N+]3([H])C([H])(C([H])([H])[H])C([H])(N([H])C(=O)N3C([H])([H])C([H])([H])C([H])([H])C([H])(n4nc(-c5c([H])c([H])c(Oc6c([H])c([H])c(F)c([H])c6F)c([H])c5[H])c(C(=O)N([H])[H])c4N([H])[H])C3([H])[H])C([H])([H])C([H])([H])C([H])([H])C([H])([H])[H])C([H])(C([H])([H])[H])C([H])([H])[H])c([H])c([H])c2C1([H])[H]

$$$$
41:0:0
     RDKit          3D

110118  0  0  1  0  0  0  0  0999 V2000
  -31.6520  -15.0830   21.5860 C   0  0  0  0  0  3  0  0  0  0  0  0
  -32.2750  -14.5410   22.9090 C   0  0  0  0  0  0  0  0  0  0  0  0
  -31.4780  -14.4210   23.9560 N   0  0  0  0  0  0  0  0  0  0  0  0
  -33.4660  -14.2460   23.0390 O   0  0  0  0  0  0  0  0  0  0  0  0
  -30.5280  -14.7530   23.9550 H   0  0  0  0  0  0  0  0  0  0  0  0
  -31.8360  -13.9590   24.7730 H   0  0  0  0  0  0  0  0  0  0  0  0
  -33.4520  -13.9310   20.2810 C   0  0  0  0  0  0  0  0  0  0  0  0
  -32.6990  -15.0390   20.5410 N   0  0  0  0  0  0  0  0  0  0  0  0
  -33.2390  -12.8660   20.8640 O   0  0  0  0  0  0  0  0  0  0  0  0
  -32.9360  -15.9090   20.0610 H   0  0  0  0  0  0  0  0  0  0  0  0
  -33.4740  -15.3750   17.4620 C   0  0  0  0  0  0  0  0  0  0  0  0
  -35.8690  -12.5590   17.6200 C   0  0  0  0  0  2  0  0  0  0  0  0
  -35.2740  -12.5550   19.0380 C   0  0  0  0  0  2  0  0  0  0  0  0
  -35.1620  -13.6900   16.8580 C   0  0  0  0  0  2  0  0  0  0  0  0
  -34.5950  -13.9360   19.2220 C   0  0  0  0  0  3  0  0  0  0  0  0
  -34.3820  -14.4510   17.8490 N   0  0  0  0  0  0  0  0  0  0  0  0
  -33.8650  -16.5370   17.4870 O   0  0  0  0  0  0  0  0  0  0  0  0
  -31.9490  -15.0610   17.0050 C   0  0  0  0  0  0  0  0  0  0  0  0
  -30.7560  -13.3170   18.3840 C   0  0  0  0  0  0  0  0  0  0  0  0
  -29.6140  -11.1920   18.1290 C   0  0  0  0  0  2  0  0  0  0  0  0
  -28.5910  -11.2490   17.0160 C   0  0  0  0  0  2  0  0  0  0  0  0
  -27.2450  -11.5010   17.6830 C   0  0  0  0  0  2  0  0  0  0  0  0
  -27.2770  -12.6570   18.7480 C   0  0  0  0  0  3  0  0  0  0  0  0
  -28.5640  -12.7760   19.6040 C   0  0  0  0  0  2  0  0  0  0  0  0
  -29.6700  -12.5770   18.6910 N   0  0  0  0  0  0  0  0  0  0  0  0
  -31.6560  -12.6740   18.0110 O   0  0  0  0  0  0  0  0  0  0  0  0
  -30.8240  -14.5760   17.9330 N   0  0  0  0  0  4  0  0  0  0  0  0
  -29.9920  -15.1330   18.0120 H   0  0  0  0  0  0  0  0  0  0  0  0
  -25.3180  -13.6950   20.0020 C   0  0  0  0  0  0  0  0  0  0  0  0
  -24.2330  -13.1300   20.6390 C   0  0  0  0  0  0  0  0  0  0  0  0
  -24.4270  -11.7270   20.5890 C   0  0  0  0  0  0  0  0  0  0  0  0
  -26.0800  -12.6240   19.5750 N   0  0  0  0  0  0  0  0  0  0  0  0
  -25.5760  -11.4340   19.9890 N   0  0  0  0  0  0  0  0  0  0  0  0
  -23.5470  -10.6220   20.9900 C   0  0  0  0  0  0  0  0  0  0  0  0
  -23.9930   -9.6300   21.8880 C   0  0  0  0  0  3  0  0  0  0  0  0
  -23.1230   -8.5960   22.2910 C   0  0  0  0  0  3  0  0  0  0  0  0
  -21.8010   -8.5460   21.7920 C   0  0  0  0  0  0  0  0  0  0  0  0
  -21.3740   -9.5220   20.8760 C   0  0  0  0  0  3  0  0  0  0  0  0
  -22.2390  -10.5490   20.4710 C   0  0  0  0  0  3  0  0  0  0  0  0
  -20.8900   -7.5690   22.1040 O   0  0  0  0  0  0  0  0  0  0  0  0
  -21.0850   -6.7150   23.1590 C   0  0  0  0  0  0  0  0  0  0  0  0
  -21.0100   -7.1530   24.4980 C   0  0  0  0  0  3  0  0  0  0  0  0
  -21.1460   -6.2270   25.5550 C   0  0  0  0  0  3  0  0  0  0  0  0
  -21.3490   -4.8620   25.2710 C   0  0  0  0  0  0  0  0  0  0  0  0
  -21.4200   -4.4220   23.9370 C   0  0  0  0  0  3  0  0  0  0  0  0
  -21.2850   -5.3480   22.8880 C   0  0  0  0  0  0  0  0  0  0  0  0
  -21.3330   -4.9130   21.6060 F   0  0  0  0  0  0  0  0  0  0  0  0
  -21.4720   -3.9700   26.2840 F   0  0  0  0  0  0  0  0  0  0  0  0
  -23.0540  -13.8810   21.1700 C   0  0  0  0  0  0  0  0  0  0  0  0
  -22.4100  -13.3440   22.2080 N   0  0  0  0  0  0  0  0  0  0  0  0
  -22.7240  -14.9660   20.7060 O   0  0  0  0  0  0  0  0  0  0  0  0
  -22.7020  -12.4640   22.6050 H   0  0  0  0  0  0  0  0  0  0  0  0
  -21.6070  -13.8190   22.5970 H   0  0  0  0  0  0  0  0  0  0  0  0
  -25.6700  -15.0040   19.7240 N   0  0  0  0  0  0  0  0  0  0  0  0
  -25.0400  -15.7730   19.9460 H   0  0  0  0  0  0  0  0  0  0  0  0
  -26.4920  -15.3050   19.2140 H   0  0  0  0  0  0  0  0  0  0  0  0
  -31.7730  -17.5760   16.2480 C   0  0  0  0  0  1  0  0  0  0  0  0
  -31.7550  -15.7840   14.5320 C   0  0  0  0  0  1  0  0  0  0  0  0
  -31.3820  -16.1130   15.9900 C   0  0  0  0  0  3  0  0  0  0  0  0
  -31.0630  -16.5180   21.8750 C   0  0  0  0  0  2  0  0  0  0  0  0
  -30.2330  -17.4320   20.9130 C   0  0  0  0  0  2  0  0  0  0  0  0
  -30.4230  -18.9480   21.3110 C   0  0  0  0  0  2  0  0  0  0  0  0
  -29.5980  -20.1420   20.6740 C   0  0  0  0  0  2  0  0  0  0  0  0
  -30.2730  -21.5410   20.9050 C   0  0  0  0  0  2  0  0  0  0  0  0
  -29.6080  -23.9840   20.7490 C   0  0  0  0  0  0  0  0  0  0  0  0
  -29.6180  -22.7140   20.2490 N   0  0  0  0  0  0  0  0  0  0  0  0
  -30.1420  -24.2360   21.8350 O   0  0  0  0  0  0  0  0  0  0  0  0
  -29.2230  -22.6010   19.3230 H   0  0  0  0  0  0  0  0  0  0  0  0
  -28.8720  -25.0810   19.8910 C   0  0  0  0  0  2  0  0  0  0  0  0
  -28.8770  -26.4670   20.4030 O   0  0  0  0  0  0  0  0  0  0  0  0
  -24.5670  -31.4690   23.0890 C   0  0  0  0  0  0  0  0  0  0  0  0
  -27.7500  -27.2600   20.1430 C   0  0  0  0  0  0  0  0  0  0  0  0
  -23.6200  -30.0660   21.3050 C   0  0  0  0  0  3  0  0  0  0  0  0
  -25.3000  -28.7150   19.9440 C   0  0  0  0  0  0  0  0  0  0  0  0
  -26.1420  -30.5920   21.3580 C   0  0  0  0  0  2  0  0  0  0  0  0
  -26.3740  -29.2580   20.6570 C   0  0  0  0  0  0  0  0  0  0  0  0
  -27.6060  -28.5460   20.7350 C   0  0  0  0  0  3  0  0  0  0  0  0
  -26.6700  -26.7920   19.3610 C   0  0  0  0  0  3  0  0  0  0  0  0
  -25.4560  -27.5010   19.2550 C   0  0  0  0  0  3  0  0  0  0  0  0
  -23.9960  -29.4920   19.9160 C   0  0  0  0  0  2  0  0  0  0  0  0
  -24.7930  -30.7190   21.9770 N   0  0  0  0  0  0  0  0  0  0  0  0
  -23.4210  -31.6460   23.5280 O   0  0  0  0  0  0  0  0  0  0  0  0
  -22.9560  -28.9560   22.1620 C   0  0  0  0  0  0  0  0  0  0  0  0
  -21.6420  -28.7310   21.9640 N   0  0  0  0  0  0  0  0  0  0  0  0
  -23.6290  -28.3050   22.9660 O   0  0  0  0  0  0  0  0  0  0  0  0
  -21.1670  -29.3000   21.2810 H   0  0  0  0  0  0  0  0  0  0  0  0
  -18.2660  -27.5100   22.3140 C   0  0  0  0  0  0  0  0  0  0  0  0
  -20.8180  -27.7330   22.6410 C   0  0  0  0  0  3  0  0  0  0  0  0
  -20.9380  -26.3670   21.9290 C   0  0  0  0  0  2  0  0  0  0  0  0
  -19.8480  -26.1460   20.8800 C   0  0  0  0  0  2  0  0  0  0  0  0
  -18.4560  -26.2350   21.5180 C   0  0  0  0  0  2  0  0  0  0  0  0
  -19.3750  -28.2260   22.8270 C   0  0  0  0  0  0  0  0  0  0  0  0
  -19.1480  -29.4330   23.5280 C   0  0  0  0  0  3  0  0  0  0  0  0
  -17.8400  -29.9120   23.7240 C   0  0  0  0  0  3  0  0  0  0  0  0
  -16.7410  -29.1850   23.2360 C   0  0  0  0  0  3  0  0  0  0  0  0
  -16.9560  -27.9860   22.5360 C   0  0  0  0  0  3  0  0  0  0  0  0
  -25.7390  -32.1730   23.8390 C   0  0  0  0  0  3  0  0  0  0  0  0
  -25.3530  -33.5690   24.0620 N   0  0  0  0  0  0  0  0  0  0  0  0
  -25.7260  -34.5950   23.2840 C   0  0  0  0  0  0  0  0  0  0  0  0
  -26.4870  -34.4630   22.3210 O   0  0  0  0  0  0  0  0  0  0  0  0
  -24.6880  -33.7470   24.8030 H   0  0  0  0  0  0  0  0  0  0  0  0
  -23.9620  -36.2920   22.6950 C   0  0  0  0  0  1  0  0  0  0  0  0
  -25.1500  -35.9860   23.6200 C   0  0  0  0  0  3  0  0  0  0  0  0
  -27.1830  -36.9920   24.5650 C   0  0  0  0  0  1  0  0  0  0  0  0
  -26.1500  -37.0730   23.5350 N   0  0  0  0  0  0  0  0  0  0  0  0
  -25.6960  -37.9830   23.6200 H   0  0  0  0  0  0  0  0  0  0  0  0
  -26.1000  -31.4700   25.2090 C   0  0  1  0  0  0  0  0  0  0  0  0
  -24.8840  -31.1570   26.1060 C   0  0  0  0  0  1  0  0  0  0  0  0
  -26.8420  -30.1440   24.9470 C   0  0  0  0  0  1  0  0  0  0  0  0
  -27.0640  -32.3630   26.0250 C   0  0  0  0  0  1  0  0  0  0  0  0
  1 60  1  0
  1  2  1  0
  2  4  2  0
  2  3  1  0
  3  6  1  0
  5  3  1  0
  7  8  1  0
  7  9  2  0
  8  1  1  0
 10  8  1  0
 11 17  2  0
 11 16  1  0
 12 13  1  0
 13 15  1  0
 14 12  1  0
 14 16  1  0
 15  7  1  0
 16 15  1  0
 18 11  1  0
 18 27  2  0
 19 25  1  0
 20 25  1  0
 21 22  1  0
 21 20  1  0
 23 22  1  0
 23 32  1  0
 23 24  1  0
 25 24  1  0
 26 19  2  0
 27 28  1  0
 27 19  1  0
 29 30  2  0
 30 49  1  0
 31 30  1  0
 31 34  1  0
 32 33  1  0
 32 29  1  0
 33 31  2  0
 34 35  1  0
 35 36  2  0
 37 40  1  0
 37 36  1  0
 38 37  2  0
 39 38  1  0
 39 34  2  0
 40 41  1  0
 41 42  1  0
 42 43  2  0
 44 43  1  0
 44 48  1  0
 45 44  2  0
 46 41  2  0
 46 45  1  0
 47 46  1  0
 49 50  1  0
 50 53  1  0
 50 52  1  0
 51 49  2  0
 54 55  1  0
 54 29  1  0
 56 54  1  0
 58 59  1  0
 59 57  1  0
 59 18  1  0
 61 62  1  0
 61 60  1  0
 63 64  1  0
 63 62  1  0
 65 67  2  0
 66 65  1  0
 66 64  1  0
 68 66  1  0
 69 70  1  0
 69 65  1  0
 71 82  2  0
 72 70  1  0
 72 77  1  0
 73 81  1  0
 73 83  1  0
 74 76  1  0
 75 81  1  0
 76 77  2  0
 76 75  1  0
 78 72  2  0
 79 78  1  0
 79 74  2  0
 80 74  1  0
 80 73  1  0
 81 71  1  0
 83 85  2  0
 84 83  1  0
 86 84  1  0
 87 96  2  0
 87 92  1  0
 88 84  1  0
 88 92  1  0
 89 88  1  0
 90 91  1  0
 90 89  1  0
 91 87  1  0
 92 93  2  0
 93 94  1  0
 95 94  2  0
 96 95  1  0
 97 71  1  0
 97 98  1  0
 97107  1  0
 98101  1  0
 99103  1  0
 99 98  1  0
100 99  2  0
103102  1  0
105106  1  0
105103  1  0
105104  1  0
107110  1  1
107108  1  0
109107  1  0
M  ISO  4  19 100  27 100  69 101  70 101
M  END
>  <TORSDO>  (41) 
F 28

>  <SCORE>  (41) 
1.269

>  <name>  (41) 
41

>  <ligand_id>  (41) 
41

>  <original_smiles>  (41) 
[H]c1c([H])c([H])c2c(c1[H])C([H])([H])C([H])([H])C([H])([H])C2([H])N([H])C(=O)C1([H])N(C(=O)C([H])(N([H])C(=O)C([H])(N([H])C([H])([H])[H])C([H])([H])[H])C(C([H])([H])[H])(C([H])([H])[H])C([H])([H])[H])C([H])([H])c2c([H])c(OC([H])([H])C(=O)N([H])C([H])([H])C([H])([H])C([H])([H])C([H])([H])C([H])([H])C([H])(C(=O)N([H])[H])N([H])C(=O)C3([H])N(C(=O)C([H])(N([H])C(=O)N4C([H])([H])C([H])([H])C([H])([H])C([H])(n5nc(-c6c([H])c([H])c(Oc7c([H])c([H])c(F)c([H])c7F)c([H])c6[H])c(C(=O)N([H])[H])c5N([H])[H])C4([H])[H])C([H])(C([H])([H])[H])C([H])([H])[H])C([H])([H])C([H])([H])C3([H])[H])c([H])c([H])c2C1([H])[H]

>  <smiles>  (41) 
[H]c1c([H])c([H])c2c(c1[H])C([H])([H])C([H])([H])C([H])([H])C2([H])N([H])C(=O)C1([H])N(C(=O)C([H])(N([H])C(=O)C([H])(N([H])C([H])([H])[H])C([H])([H])[H])C(C([H])([H])[H])(C([H])([H])[H])C([H])([H])[H])C([H])([H])c2c([H])c(OC([H])([H])C(=O)N([H])C([H])([H])C([H])([H])C([H])([H])C([H])([H])C([H])([H])C([H])(C(=O)N([H])[H])N([H])C(=O)C3([H])N(C(=O)C([H])(N([H])C(=O)N4C([H])([H])C([H])([H])C([H])([H])C([H])(n5nc(-c6c([H])c([H])c(Oc7c([H])c([H])c(F)c([H])c7F)c([H])c6[H])c(C(=O)N([H])[H])c5N([H])[H])C4([H])[H])C([H])(C([H])([H])[H])C([H])([H])[H])C([H])([H])C([H])([H])C3([H])[H])c([H])c([H])c2C1([H])[H]

$$$$
42:0:0
     RDKit          3D

108115  0  0  1  0  0  0  0  0999 V2000
  -28.8670  -22.8350   20.0870 C   0  0  0  0  0  3  0  0  0  0  0  0
  -26.6840  -22.9390   18.8570 C   0  0  0  0  0  0  0  0  0  0  0  0
  -27.4270  -22.6220   19.9220 N   0  0  0  0  0  0  0  0  0  0  0  0
  -25.3750  -22.8750   19.1220 N   0  0  0  0  0  0  0  0  0  0  0  0
  -27.1470  -23.3040   17.7770 O   0  0  0  0  0  0  0  0  0  0  0  0
  -26.9390  -22.2820   20.7360 H   0  0  0  0  0  0  0  0  0  0  0  0
  -25.1030  -22.5760   20.0450 H   0  0  0  0  0  0  0  0  0  0  0  0
  -24.2760  -23.3210   18.2550 C   0  0  0  0  0  3  0  0  0  0  0  0
  -22.6080  -23.0190   20.2020 C   0  0  0  0  0  1  0  0  0  0  0  0
  -23.1430  -23.9670   19.1050 C   0  0  0  0  0  3  0  0  0  0  0  0
  -22.5310  -26.1260   20.4420 C   0  0  0  0  0  1  0  0  0  0  0  0
  -23.6060  -25.3200   19.6980 C   0  0  0  0  0  2  0  0  0  0  0  0
  -23.7910  -22.1360   17.3900 C   0  0  0  0  0  2  0  0  0  0  0  0
  -24.9220  -21.4450   16.5970 C   0  0  0  0  0  2  0  0  0  0  0  0
  -26.0900  -19.2910   15.9130 C   0  0  0  0  0  1  0  0  0  0  0  0
  -24.8360  -19.9020   16.5620 C   0  0  0  0  0  3  0  0  0  0  0  0
  -23.5640  -19.3870   15.8700 C   0  0  0  0  0  0  0  0  0  0  0  0
  -22.6760  -18.7560   16.6260 N   0  0  0  0  0  0  0  0  0  0  0  0
  -23.3800  -19.5540   14.6640 O   0  0  0  0  0  0  0  0  0  0  0  0
  -22.8510  -18.6280   17.6140 H   0  0  0  0  0  0  0  0  0  0  0  0
  -21.8130  -18.4040   16.2350 H   0  0  0  0  0  0  0  0  0  0  0  0
  -29.1010  -24.2060   20.9290 C   0  0  0  0  0  2  0  0  0  0  0  0
  -30.9440  -25.8140   20.2900 C   0  0  0  0  0  1  0  0  0  0  0  0
  -29.1170  -25.5430   18.6580 C   0  0  0  0  0  1  0  0  0  0  0  0
  -29.4200  -25.5990   20.1660 C   0  0  1  0  0  0  0  0  0  0  0  0
  -28.9960  -26.9060   20.7430 O   0  0  0  0  0  0  0  0  0  0  0  0
  -24.8020  -32.0450   23.5200 C   0  0  0  0  0  0  0  0  0  0  0  0
  -27.7960  -27.6260   20.5870 C   0  0  0  0  0  0  0  0  0  0  0  0
  -23.7630  -30.6350   21.7790 C   0  0  0  0  0  3  0  0  0  0  0  0
  -25.3620  -29.1410   20.4440 C   0  0  0  0  0  0  0  0  0  0  0  0
  -26.2950  -31.0410   21.7750 C   0  0  0  0  0  2  0  0  0  0  0  0
  -26.4670  -29.6720   21.1190 C   0  0  0  0  0  0  0  0  0  0  0  0
  -27.6790  -28.9270   21.1750 C   0  0  0  0  0  3  0  0  0  0  0  0
  -26.6560  -27.1270   19.9240 C   0  0  0  0  0  3  0  0  0  0  0  0
  -25.4570  -27.8710   19.8430 C   0  0  0  0  0  3  0  0  0  0  0  0
  -24.0990  -29.9770   20.4110 C   0  0  0  0  0  2  0  0  0  0  0  0
  -24.9680  -31.2580   22.4160 N   0  0  0  0  0  0  0  0  0  0  0  0
  -23.6750  -32.2770   23.9820 O   0  0  0  0  0  0  0  0  0  0  0  0
  -23.0640  -29.5890   22.6790 C   0  0  0  0  0  0  0  0  0  0  0  0
  -21.7460  -29.4120   22.4940 N   0  0  0  0  0  0  0  0  0  0  0  0
  -23.7110  -28.9360   23.5030 O   0  0  0  0  0  0  0  0  0  0  0  0
  -21.2830  -29.9900   21.8050 H   0  0  0  0  0  0  0  0  0  0  0  0
  -18.3420  -28.2570   22.8930 C   0  0  0  0  0  0  0  0  0  0  0  0
  -20.9010  -28.4480   23.2020 C   0  0  0  0  0  3  0  0  0  0  0  0
  -20.9820  -27.0520   22.5410 C   0  0  0  0  0  2  0  0  0  0  0  0
  -19.8850  -26.8140   21.4990 C   0  0  0  0  0  2  0  0  0  0  0  0
  -18.4990  -26.9480   22.1380 C   0  0  0  0  0  2  0  0  0  0  0  0
  -19.4700  -28.9680   23.3800 C   0  0  0  0  0  0  0  0  0  0  0  0
  -19.2680  -30.1960   24.0460 C   0  0  0  0  0  3  0  0  0  0  0  0
  -17.9710  -30.7120   24.2290 C   0  0  0  0  0  3  0  0  0  0  0  0
  -16.8580  -29.9970   23.7570 C   0  0  0  0  0  3  0  0  0  0  0  0
  -17.0440  -28.7700   23.0940 C   0  0  0  0  0  3  0  0  0  0  0  0
  -26.0160  -32.7090   24.2430 C   0  0  0  0  0  3  0  0  0  0  0  0
  -25.6540  -34.1030   24.5350 N   0  0  0  0  0  0  0  0  0  0  0  0
  -26.0000  -35.1540   23.7810 C   0  0  0  0  0  0  0  0  0  0  0  0
  -26.7250  -35.0530   22.7860 O   0  0  0  0  0  0  0  0  0  0  0  0
  -25.0070  -34.2510   25.2970 H   0  0  0  0  0  0  0  0  0  0  0  0
  -24.2440  -36.8960   23.3200 C   0  0  0  0  0  1  0  0  0  0  0  0
  -25.4560  -36.5360   24.1930 C   0  0  0  0  0  3  0  0  0  0  0  0
  -27.5240  -37.4930   25.1120 C   0  0  0  0  0  1  0  0  0  0  0  0
  -26.4660  -37.6150   24.1100 N   0  0  0  0  0  0  0  0  0  0  0  0
  -26.0300  -38.5280   24.2210 H   0  0  0  0  0  0  0  0  0  0  0  0
  -26.4380  -31.9590   25.5680 C   0  0  1  0  0  0  0  0  0  0  0  0
  -25.2550  -31.6770   26.5250 C   0  0  0  0  0  1  0  0  0  0  0  0
  -27.1070  -30.6060   25.2380 C   0  0  0  0  0  1  0  0  0  0  0  0
  -27.4890  -32.7950   26.3330 C   0  0  0  0  0  1  0  0  0  0  0  0
  -29.6080  -21.4450   20.4750 C   0  0  0  0  0  2  0  0  0  0  0  0
  -28.8460  -20.0620   20.8020 C   0  0  0  0  0  2  0  0  0  0  0  0
  -29.2180  -18.6280   20.1610 C   0  0  0  0  0  2  0  0  0  0  0  0
  -30.0850  -17.5310   20.9580 C   0  0  0  0  0  2  0  0  0  0  0  0
  -30.5860  -14.9590   20.5920 C   0  0  0  0  0  0  0  0  0  0  0  0
  -30.4420  -12.7090   19.5390 C   0  0  0  0  0  2  0  0  0  0  0  0
  -29.5510  -12.8140   18.2820 C   0  0  0  0  0  2  0  0  0  0  0  0
  -28.0590  -12.6580   18.6420 C   0  0  0  0  0  2  0  0  0  0  0  0
  -27.6420  -13.5270   19.8560 C   0  0  0  0  0  3  0  0  0  0  0  0
  -28.6490  -13.3880   21.0190 C   0  0  0  0  0  2  0  0  0  0  0  0
  -29.9740  -13.7380   20.4890 N   0  0  0  0  0  0  0  0  0  0  0  0
  -31.7850  -15.0900   20.3410 O   0  0  0  0  0  0  0  0  0  0  0  0
  -29.7680  -16.0540   20.7850 N   0  0  0  0  0  0  0  0  0  0  0  0
  -28.7950  -15.8130   20.9090 H   0  0  0  0  0  0  0  0  0  0  0  0
  -25.2430  -14.1410   20.5290 C   0  0  0  0  0  0  0  0  0  0  0  0
  -24.1480  -13.3730   20.8230 C   0  0  0  0  0  0  0  0  0  0  0  0
  -24.5850  -12.0150   20.7360 C   0  0  0  0  0  0  0  0  0  0  0  0
  -26.2740  -13.2510   20.2830 N   0  0  0  0  0  0  0  0  0  0  0  0
  -25.8830  -11.9640   20.4710 N   0  0  0  0  0  0  0  0  0  0  0  0
  -23.8260  -10.7610   20.8360 C   0  0  0  0  0  0  0  0  0  0  0  0
  -24.1850   -9.7520   21.7570 C   0  0  0  0  0  3  0  0  0  0  0  0
  -23.4260   -8.5640   21.8480 C   0  0  0  0  0  3  0  0  0  0  0  0
  -22.2940   -8.3790   21.0170 C   0  0  0  0  0  0  0  0  0  0  0  0
  -21.9520   -9.3790   20.0900 C   0  0  0  0  0  3  0  0  0  0  0  0
  -22.7110  -10.5580   19.9970 C   0  0  0  0  0  3  0  0  0  0  0  0
  -21.5160   -7.2460   21.0160 O   0  0  0  0  0  0  0  0  0  0  0  0
  -21.3630   -6.4760   22.1410 C   0  0  0  0  0  0  0  0  0  0  0  0
  -20.8260   -7.0020   23.3360 C   0  0  0  0  0  3  0  0  0  0  0  0
  -20.6250   -6.1580   24.4470 C   0  0  0  0  0  3  0  0  0  0  0  0
  -20.9480   -4.7900   24.3640 C   0  0  0  0  0  0  0  0  0  0  0  0
  -21.4740   -4.2650   23.1720 C   0  0  0  0  0  3  0  0  0  0  0  0
  -21.6800   -5.1050   22.0630 C   0  0  0  0  0  0  0  0  0  0  0  0
  -22.1700   -4.5900   20.9080 F   0  0  0  0  0  0  0  0  0  0  0  0
  -20.7450   -3.9780   25.4270 F   0  0  0  0  0  0  0  0  0  0  0  0
  -22.7530  -13.8640   21.0730 C   0  0  0  0  0  0  0  0  0  0  0  0
  -21.9960  -13.1550   21.9020 N   0  0  0  0  0  0  0  0  0  0  0  0
  -22.3440  -14.9120   20.5690 O   0  0  0  0  0  0  0  0  0  0  0  0
  -22.3420  -12.3050   22.3250 H   0  0  0  0  0  0  0  0  0  0  0  0
  -21.0580  -13.4580   22.1180 H   0  0  0  0  0  0  0  0  0  0  0  0
  -25.4370  -15.5150   20.4230 N   0  0  0  0  0  0  0  0  0  0  0  0
  -24.6700  -16.1680   20.5390 H   0  0  0  0  0  0  0  0  0  0  0  0
  -26.2940  -15.9580   20.1130 H   0  0  0  0  0  0  0  0  0  0  0  0
  1 67  1  0
  1 22  1  0
  2  4  1  0
  2  3  1  0
  3  1  1  0
  3  6  1  0
  4  7  1  0
  5  2  2  0
  8 13  1  0
  8 10  1  0
  8  4  1  0
 10 12  1  0
 10  9  1  0
 12 11  1  0
 14 13  1  0
 16 15  1  0
 16 14  1  0
 17 16  1  0
 17 18  1  0
 18 20  1  0
 19 17  2  0
 21 18  1  0
 25 24  1  6
 25 23  1  0
 25 26  1  0
 25 22  1  0
 27 38  2  0
 28 26  1  0
 28 33  1  0
 29 37  1  0
 29 39  1  0
 30 32  1  0
 31 37  1  0
 32 33  2  0
 32 31  1  0
 34 28  2  0
 35 34  1  0
 35 30  2  0
 36 30  1  0
 36 29  1  0
 37 27  1  0
 39 41  2  0
 40 39  1  0
 42 40  1  0
 43 52  2  0
 43 48  1  0
 44 40  1  0
 44 48  1  0
 45 44  1  0
 46 47  1  0
 46 45  1  0
 47 43  1  0
 48 49  2  0
 49 50  1  0
 51 50  2  0
 52 51  1  0
 53 27  1  0
 53 54  1  0
 53 63  1  0
 54 57  1  0
 55 59  1  0
 55 54  1  0
 56 55  2  0
 59 58  1  0
 61 59  1  0
 61 62  1  0
 61 60  1  0
 63 66  1  1
 63 64  1  0
 65 63  1  0
 67 68  1  0
 69 68  1  0
 69 70  1  0
 71 79  1  0
 72 77  1  0
 73 74  1  0
 73 72  1  0
 75 74  1  0
 75 84  1  0
 75 76  1  0
 77 71  1  0
 77 76  1  0
 78 71  2  0
 79 80  1  0
 79 70  1  0
 81 82  2  0
 82101  1  0
 83 82  1  0
 83 86  1  0
 84 85  1  0
 84 81  1  0
 85 83  2  0
 86 87  1  0
 87 88  2  0
 89 88  1  0
 90 89  2  0
 91 90  1  0
 91 86  2  0
 92 89  1  0
 92 93  1  0
 93 94  1  0
 94 95  2  0
 96 95  1  0
 96100  1  0
 97 96  2  0
 98 93  2  0
 98 97  1  0
 99 98  1  0
101102  1  0
102105  1  0
102104  1  0
103101  2  0
106 81  1  0
106107  1  0
108106  1  0
M  ISO  4  25 101  26 101  71 100  79 100
M  END
>  <TORSDO>  (42) 
F 30

>  <SCORE>  (42) 
-6.747

>  <name>  (42) 
42

>  <ligand_id>  (42) 
42

>  <original_smiles>  (42) 
[H]c1c([H])c([H])c2c(c1[H])C([H])([H])C([H])([H])C([H])([H])C2([H])N([H])C(=O)C1([H])N(C(=O)C([H])(N([H])C(=O)C([H])(N([H])C([H])([H])[H])C([H])([H])[H])C(C([H])([H])[H])(C([H])([H])[H])C([H])([H])[H])C([H])([H])c2c([H])c(OC(C([H])([H])[H])(C([H])([H])[H])C([H])([H])C([H])(N([H])C(=O)N([H])C([H])(C([H])([H])C([H])([H])C([H])(C(=O)N([H])[H])C([H])([H])[H])C([H])(C([H])([H])[H])C([H])([H])C([H])([H])[H])C([H])([H])C([H])([H])C([H])([H])C([H])([H])N([H])C(=O)N3C([H])([H])C([H])([H])C([H])([H])C([H])(n4nc(-c5c([H])c([H])c(Oc6c([H])c([H])c(F)c([H])c6F)c([H])c5[H])c(C(=O)N([H])[H])c4N([H])[H])C3([H])[H])c([H])c([H])c2C1([H])[H]

>  <smiles>  (42) 
[H]c1c([H])c([H])c2c(c1[H])C([H])([H])C([H])([H])C([H])([H])C2([H])N([H])C(=O)C1([H])N(C(=O)C([H])(N([H])C(=O)C([H])(N([H])C([H])([H])[H])C([H])([H])[H])C(C([H])([H])[H])(C([H])([H])[H])C([H])([H])[H])C([H])([H])c2c([H])c(OC(C([H])([H])[H])(C([H])([H])[H])C([H])([H])C([H])(N([H])C(=O)N([H])C([H])(C([H])([H])C([H])([H])C([H])(C(=O)N([H])[H])C([H])([H])[H])C([H])(C([H])([H])[H])C([H])([H])C([H])([H])[H])C([H])([H])C([H])([H])C([H])([H])C([H])([H])N([H])C(=O)N3C([H])([H])C([H])([H])C([H])([H])C([H])(n4nc(-c5c([H])c([H])c(Oc6c([H])c([H])c(F)c([H])c6F)c([H])c5[H])c(C(=O)N([H])[H])c4N([H])[H])C3([H])[H])c([H])c([H])c2C1([H])[H]

$$$$
43:0:0
     RDKit          3D

107107  0  0  1  0  0  0  0  0999 V2000
  -22.4040  -28.9490   18.4310 C   0  0  0  0  0  0  0  0  0  0  0  0
  -22.9380  -30.5230   20.3750 C   0  0  0  0  0  1  0  0  0  0  0  0
  -22.3750  -28.2570   21.2200 C   0  0  0  0  0  1  0  0  0  0  0  0
  -24.5310  -28.7500   20.2020 C   0  0  0  0  0  1  0  0  0  0  0  0
  -23.0320  -29.0390   19.9860 C   0  0  1  0  0  0  0  0  0  0  0  0
  -24.3320  -27.6640   16.8430 C   0  0  0  0  0  0  0  0  0  0  0  0
  -23.0670  -28.0830   17.3110 N   0  0  0  0  0  4  0  0  0  0  0  0
  -25.3110  -28.3730   16.8580 O   0  0  0  0  0  0  0  0  0  0  0  0
  -22.3160  -27.7250   16.7150 H   0  0  0  0  0  0  0  0  0  0  0  0
  -24.0970  -25.6790   14.7380 C   0  0  0  0  0  2  0  0  0  0  0  0
  -26.1280  -25.7200   16.0150 C   0  0  0  0  0  2  0  0  0  0  0  0
  -24.6120  -26.2460   16.1340 C   0  0  0  0  0  3  0  0  0  0  0  0
  -24.7470  -24.1670   14.7020 C   0  0  0  0  0  3  0  0  0  0  0  0
  -25.9750  -24.3370   15.5030 N   0  0  0  0  0  4  0  0  0  0  0  0
  -25.8770  -23.8450   16.4060 H   0  0  0  0  0  0  0  0  0  0  0  0
  -26.8600  -24.0750   15.0910 H   0  0  0  0  0  0  0  0  0  0  0  0
  -23.9570  -22.7090   14.9180 C   0  0  0  0  0  2  0  0  0  0  0  0
  -24.5400  -21.5830   15.7690 O   0  0  0  0  0  0  0  0  0  0  0  0
  -29.2030  -24.6260   20.5630 C   0  0  0  0  0  0  0  0  0  0  0  0
  -24.9600  -22.1070   16.9440 C   0  0  0  0  0  0  0  0  0  0  0  0
  -26.9860  -25.4980   20.1690 C   0  0  0  0  0  3  0  0  0  0  0  0
  -25.5870  -24.3680   18.4390 C   0  0  0  0  0  0  0  0  0  0  0  0
  -28.0430  -23.8410   18.4470 C   0  0  0  0  0  2  0  0  0  0  0  0
  -26.6280  -23.5170   18.0250 C   0  0  0  0  0  0  0  0  0  0  0  0
  -26.3060  -22.3840   17.2160 C   0  0  0  0  0  3  0  0  0  0  0  0
  -23.9460  -22.7240   17.6650 C   0  0  0  0  0  3  0  0  0  0  0  0
  -24.2510  -23.9130   18.3240 C   0  0  0  0  0  3  0  0  0  0  0  0
  -26.0530  -25.6760   19.0500 C   0  0  0  0  0  2  0  0  0  0  0  0
  -28.1400  -24.6650   19.7210 N   0  0  0  0  0  0  0  0  0  0  0  0
  -29.2680  -25.3150   21.5920 O   0  0  0  0  0  0  0  0  0  0  0  0
  -26.2570  -24.9060   21.3490 C   0  0  0  0  0  0  0  0  0  0  0  0
  -25.6270  -25.7550   22.1220 N   0  0  0  0  0  0  0  0  0  0  0  0
  -26.1730  -23.6940   21.4960 O   0  0  0  0  0  0  0  0  0  0  0  0
  -25.9160  -26.7060   22.1310 H   0  0  0  0  0  0  0  0  0  0  0  0
  -22.5550  -27.4020   23.9230 C   0  0  0  0  0  0  0  0  0  0  0  0
  -24.3190  -25.4040   22.6520 C   0  0  0  0  0  2  0  0  0  0  0  0
  -23.1670  -24.7410   21.0570 C   0  0  0  0  0 15  0  0  0  0  0  0
  -21.0110  -25.5670   21.3210 C   0  0  0  0  0 15  0  0  0  0  0  0
  -21.0070  -26.6950   23.0790 C   0  0  0  0  0  1  0  0  0  0  0  0
  -23.9610  -26.8290   23.7160 C   0  0  0  0  0  0  0  0  0  0  0  0
  -25.1170  -27.6850   24.1140 C   0  0  0  0  0  3  0  0  0  0  0  0
  -25.0270  -28.9930   24.6450 C   0  0  0  0  0  3  0  0  0  0  0  0
  -23.7440  -29.5400   24.7730 C   0  0  0  0  0  3  0  0  0  0  0  0
  -22.5890  -28.7940   24.4050 C   0  0  0  0  0  3  0  0  0  0  0  0
  -30.4010  -23.6820   20.2930 C   0  0  0  0  0  3  0  0  0  0  0  0
  -31.6350  -24.4800   20.3430 N   0  0  0  0  0  0  0  0  0  0  0  0
  -32.3710  -24.8280   19.2880 C   0  0  0  0  0  0  0  0  0  0  0  0
  -32.0980  -24.4150   18.1590 O   0  0  0  0  0  0  0  0  0  0  0  0
  -31.9020  -24.8320   21.2520 H   0  0  0  0  0  0  0  0  0  0  0  0
  -33.2300  -27.1370   18.8350 C   0  0  0  0  0  1  0  0  0  0  0  0
  -33.5700  -25.7920   19.5030 C   0  0  0  0  0  3  0  0  0  0  0  0
  -35.3440  -24.1030   19.6510 C   0  0  0  0  0  1  0  0  0  0  0  0
  -34.8390  -25.2750   18.9590 N   0  0  0  0  0  0  0  0  0  0  0  0
  -35.5680  -25.9890   18.9140 H   0  0  0  0  0  0  0  0  0  0  0  0
  -30.4950  -22.5240   21.3680 C   0  0  1  0  0  0  0  0  0  0  0  0
  -30.4120  -22.9600   22.8580 C   0  0  0  0  0  1  0  0  0  0  0  0
  -29.3900  -21.4790   21.1460 C   0  0  0  0  0  1  0  0  0  0  0  0
  -31.8440  -21.7690   21.2140 C   0  0  0  0  0  1  0  0  0  0  0  0
  -20.7470  -28.8600   18.5000 C   0  0  0  0  0  2  0  0  0  0  0  0
  -19.7690  -27.5400   18.1880 C   0  0  0  0  0  1  0  0  0  0  0  0
  -20.9740  -23.4500   18.3190 C   0  0  0  0  0  1  0  0  0  0  0  0
  -19.6130  -24.5790   18.1190 C   0  0  0  0  0  2  0  0  0  0  0  0
  -16.8970  -24.2690   17.6410 C   0  0  0  0  0  1  0  0  0  0  0  0
  -18.1440  -22.5750   18.8450 C   0  0  0  0  0  1  0  0  0  0  0  0
  -18.6020  -22.9630   16.4470 C   0  0  0  0  0  1  0  0  0  0  0  0
  -18.3340  -23.6950   17.7980 C   0  0  2  0  0  0  0  0  0  0  0  0
  -22.0630  -21.5240   18.5200 C   0  0  0  0  0 15  0  0  0  0  0  0
  -23.9570  -20.1770   18.8410 C   0  0  0  0  0 15  0  0  0  0  0  0
  -25.1080  -18.2360   19.5230 C   0  0  0  0  0 15  0  0  0  0  0  0
  -27.7830  -15.6850   20.4510 C   0  0  0  0  0  0  0  0  0  0  0  0
  -30.2810  -14.3300   21.0430 C   0  0  0  0  0  2  0  0  0  0  0  0
  -31.6210  -15.0950   21.3730 C   0  0  0  0  0  2  0  0  0  0  0  0
  -32.1620  -15.8470   20.1470 C   0  0  0  0  0  2  0  0  0  0  0  0
  -30.9490  -16.3260   19.3410 C   0  0  0  0  0  3  0  0  0  0  0  0
  -29.9340  -15.2580   18.9800 C   0  0  0  0  0  2  0  0  0  0  0  0
  -29.2000  -15.1650   20.2150 N   0  0  0  0  0  0  0  0  0  0  0  0
  -27.5490  -14.7800   21.3560 O   0  0  0  0  0  0  0  0  0  0  0  0
  -26.8090  -17.0470   19.8570 N   0  0  0  0  0  2  0  0  0  0  0  0
  -27.5170  -17.4830   19.2690 H   0  0  0  0  0  0  0  0  0  0  0  0
  -30.4280  -18.1120   17.7170 C   0  0  0  0  0  0  0  0  0  0  0  0
  -31.0280  -18.4970   16.5650 C   0  0  0  0  0  0  0  0  0  0  0  0
  -32.1280  -17.6030   16.3710 C   0  0  0  0  0  0  0  0  0  0  0  0
  -31.1950  -17.0580   18.1590 N   0  0  0  0  0  0  0  0  0  0  0  0
  -32.1700  -16.6860   17.3150 N   0  0  0  0  0  0  0  0  0  0  0  0
  -33.1990  -17.6250   15.3810 C   0  0  0  0  0  0  0  0  0  0  0  0
  -33.4440  -16.5230   14.5320 C   0  0  0  0  0  3  0  0  0  0  0  0
  -34.4760  -16.5850   13.5750 C   0  0  0  0  0  3  0  0  0  0  0  0
  -35.2660  -17.7540   13.4600 C   0  0  0  0  0  0  0  0  0  0  0  0
  -35.0360  -18.8290   14.3340 C   0  0  0  0  0  3  0  0  0  0  0  0
  -34.0140  -18.7670   15.2900 C   0  0  0  0  0  3  0  0  0  0  0  0
  -36.3060  -17.8990   12.5740 O   0  0  0  0  0  0  0  0  0  0  0  0
  -36.3230  -17.2390   11.3740 C   0  0  0  0  0  0  0  0  0  0  0  0
  -35.3170  -17.4360   10.4020 C   0  0  0  0  0  3  0  0  0  0  0  0
  -35.4110  -16.7880    9.1560 C   0  0  0  0  0  3  0  0  0  0  0  0
  -36.5100  -15.9510    8.8780 C   0  0  0  0  0  0  0  0  0  0  0  0
  -37.5080  -15.7560    9.8460 C   0  0  0  0  0  3  0  0  0  0  0  0
  -37.4150  -16.4000   11.0910 C   0  0  0  0  0  0  0  0  0  0  0  0
  -38.3930  -16.2290   12.0140 F   0  0  0  0  0  0  0  0  0  0  0  0
  -36.6050  -15.3330    7.6780 F   0  0  0  0  0  0  0  0  0  0  0  0
  -30.6660  -19.7100   15.7640 C   0  0  0  0  0  0  0  0  0  0  0  0
  -30.8540  -19.6490   14.4560 N   0  0  0  0  0  0  0  0  0  0  0  0
  -30.1680  -20.6990   16.3100 O   0  0  0  0  0  0  0  0  0  0  0  0
  -31.2470  -18.8220   14.0180 H   0  0  0  0  0  0  0  0  0  0  0  0
  -30.6110  -20.4440   13.8750 H   0  0  0  0  0  0  0  0  0  0  0  0
  -29.3250  -18.5670   18.4430 N   0  0  0  0  0  0  0  0  0  0  0  0
  -28.9620  -19.4810   18.1670 H   0  0  0  0  0  0  0  0  0  0  0  0
  -29.3290  -18.4600   19.4400 H   0  0  0  0  0  0  0  0  0  0  0  0
  1 59  1  0
  1  5  1  0
  5  4  1  6
  5  2  1  0
  5  3  1  0
  6  8  2  0
  6  7  1  0
  7  1  2  0
  9  7  1  0
 10 12  1  0
 11 12  1  0
 12  6  1  0
 13 10  1  0
 13 17  1  0
 13 14  1  0
 14 11  1  0
 14 15  1  0
 16 14  1  0
 17 18  1  0
 18 20  1  0
 19 30  2  0
 20 25  2  0
 20 26  1  0
 21 31  1  0
 22 28  1  0
 23 29  1  0
 24 22  2  0
 24 23  1  0
 25 24  1  0
 26 27  2  0
 27 22  1  0
 28 21  1  0
 29 21  1  0
 29 19  1  0
 31 33  2  0
 31 32  1  0
 32 34  1  0
 32 36  1  0
 35 44  1  0
 36 40  1  0
 39 35  1  0
 40 35  2  0
 40 41  1  0
 41 42  2  0
 42 43  1  0
 44 43  2  0
 45 46  1  0
 45 19  1  0
 45 55  1  0
 46 49  1  0
 47 51  1  0
 47 46  1  0
 48 47  2  0
 51 50  1  0
 53 51  1  0
 53 52  1  0
 54 53  1  0
 55 56  1  1
 57 55  1  0
 58 55  1  0
 60 59  1  0
 62 61  1  0
 66 63  1  6
 65 66  1  0
 66 62  1  0
 66 64  1  0
 70 77  2  0
 71 72  1  0
 73 72  1  0
 74 83  1  0
 74 73  1  0
 75 74  1  0
 75 76  1  0
 76 70  1  0
 76 71  1  0
 78 70  1  0
 79 78  1  0
 80 83  1  0
 80105  1  0
 81 80  2  0
 82 81  1  0
 82 84  2  0
 84 83  1  0
 85 82  1  0
 86 85  2  0
 87 86  1  0
 88 87  2  0
 88 89  1  0
 89 90  2  0
 90 85  1  0
 91 88  1  0
 92 91  1  0
 93 92  2  0
 94 93  1  0
 95 94  2  0
 95 96  1  0
 96 97  2  0
 97 92  1  0
 97 98  1  0
 99 95  1  0
100102  2  0
100 81  1  0
101100  1  0
103101  1  0
104101  1  0
105107  1  0
106105  1  0
M  ISO  4  17 101  18 101  70 100  78 100
M  END
>  <TORSDO>  (43) 
F 27

>  <SCORE>  (43) 
6.002

>  <name>  (43) 
43

>  <ligand_id>  (43) 
43

>  <original_smiles>  (43) 
[H]C(=C(C([H])([H])C([H])([H])C([H])(N([H])C(=O)C1([H])C([H])([H])C([H])(C([H])([H])Oc2c([H])c([H])c3c(c2[H])C([H])([H])N(C(=O)C([H])(N([H])C(=O)C([H])(N([H])C([H])([H])[H])C([H])([H])[H])C(C([H])([H])[H])(C([H])([H])[H])C([H])([H])[H])C([H])(C(=O)N([H])C2([H])c4c([H])c([H])c([H])c([H])c4C([H])([H])C([H])([H])C2([H])[H])C3([H])[H])[N+]([H])([H])C1([H])[H])C(C([H])([H])[H])(C([H])([H])[H])C([H])([H])[H])C(C([H])([H])[H])(C([H])([H])[H])C([H])([H])[H])C([H])([H])C([H])([H])C([H])([H])N([H])C(=O)N1C([H])([H])C([H])([H])C([H])([H])C([H])(n2nc(-c3c([H])c([H])c(Oc4c([H])c([H])c(F)c([H])c4F)c([H])c3[H])c(C(=O)N([H])[H])c2N([H])[H])C1([H])[H]

>  <smiles>  (43) 
[H]C(=C(C([H])([H])C([H])([H])C([H])(N([H])C(=O)C1([H])C([H])([H])C([H])(C([H])([H])Oc2c([H])c([H])c3c(c2[H])C([H])([H])N(C(=O)C([H])(N([H])C(=O)C([H])(N([H])C([H])([H])[H])C([H])([H])[H])C(C([H])([H])[H])(C([H])([H])[H])C([H])([H])[H])C([H])(C(=O)N([H])C2([H])c4c([H])c([H])c([H])c([H])c4C([H])([H])C([H])([H])C2([H])[H])C3([H])[H])[N+]([H])([H])C1([H])[H])C(C([H])([H])[H])(C([H])([H])[H])C([H])([H])[H])C(C([H])([H])[H])(C([H])([H])[H])C([H])([H])[H])C([H])([H])C([H])([H])C([H])([H])N([H])C(=O)N1C([H])([H])C([H])([H])C([H])([H])C([H])(n2nc(-c3c([H])c([H])c(Oc4c([H])c([H])c(F)c([H])c4F)c([H])c3[H])c(C(=O)N([H])[H])c2N([H])[H])C1([H])[H]

$$$$
44:0:0
     RDKit          3D

101109  0  0  1  0  0  0  0  0999 V2000
  -30.2600  -19.4810   18.3450 C   0  0  0  0  0  3  0  0  0  0  0  0
  -32.8000  -17.3950   15.3220 C   0  0  0  0  0  2  0  0  0  0  0  0
  -33.1290  -18.8490   15.6900 C   0  0  0  0  0  2  0  0  0  0  0  0
  -31.2810  -17.1660   15.3030 C   0  0  0  0  0  2  0  0  0  0  0  0
  -32.4940  -19.2410   17.0340 C   0  0  0  0  0  2  0  0  0  0  0  0
  -30.6460  -17.5530   16.6490 C   0  0  0  0  0  2  0  0  0  0  0  0
  -30.9610  -19.0180   17.0300 C   0  0  0  0  0  3  0  0  0  0  0  0
  -30.3530  -17.6550   20.0650 C   0  0  0  0  0  0  0  0  0  0  0  0
  -30.8280  -18.7780   19.5030 N   0  0  0  0  0  0  0  0  0  0  0  0
  -29.2790  -17.1420   19.7380 O   0  0  0  0  0  0  0  0  0  0  0  0
  -31.7050  -19.1300   19.8560 H   0  0  0  0  0  0  0  0  0  0  0  0
  -31.2180  -16.9940   21.1620 C   0  0  0  0  0  3  0  0  0  0  0  0
  -31.5470  -14.5460   20.6900 C   0  0  0  0  0  0  0  0  0  0  0  0
  -31.2760  -12.2870   19.7310 C   0  0  0  0  0  2  0  0  0  0  0  0
  -30.4530  -12.3790   18.4290 C   0  0  0  0  0  2  0  0  0  0  0  0
  -28.9390  -12.3410   18.7270 C   0  0  0  0  0  2  0  0  0  0  0  0
  -28.5270  -13.3310   19.8500 C   0  0  0  0  0  3  0  0  0  0  0  0
  -29.4620  -13.1840   21.0720 C   0  0  0  0  0  2  0  0  0  0  0  0
  -30.8490  -13.3830   20.6140 N   0  0  0  0  0  0  0  0  0  0  0  0
  -32.6760  -14.6920   20.2140 O   0  0  0  0  0  0  0  0  0  0  0  0
  -30.8800  -15.5670   21.2510 N   0  0  0  0  0  0  0  0  0  0  0  0
  -29.9520  -15.3520   21.5790 H   0  0  0  0  0  0  0  0  0  0  0  0
  -26.1260  -14.1270   20.3320 C   0  0  0  0  0  0  0  0  0  0  0  0
  -24.9810  -13.4450   20.6420 C   0  0  0  0  0  0  0  0  0  0  0  0
  -25.3460  -12.0660   20.7020 C   0  0  0  0  0  0  0  0  0  0  0  0
  -27.1230  -13.1690   20.2220 N   0  0  0  0  0  0  0  0  0  0  0  0
  -26.6510  -11.9260   20.4990 N   0  0  0  0  0  0  0  0  0  0  0  0
  -24.5210  -10.8640   20.8840 C   0  0  0  0  0  0  0  0  0  0  0  0
  -24.8070   -9.9190   21.8940 C   0  0  0  0  0  3  0  0  0  0  0  0
  -23.9900   -8.7800   22.0610 C   0  0  0  0  0  3  0  0  0  0  0  0
  -22.8720   -8.5780   21.2170 C   0  0  0  0  0  0  0  0  0  0  0  0
  -22.6060   -9.5100   20.1980 C   0  0  0  0  0  3  0  0  0  0  0  0
  -23.4220  -10.6400   20.0290 C   0  0  0  0  0  3  0  0  0  0  0  0
  -22.0390   -7.4890   21.2880 O   0  0  0  0  0  0  0  0  0  0  0  0
  -21.8180   -6.8260   22.4690 C   0  0  0  0  0  0  0  0  0  0  0  0
  -21.3030   -7.4830   23.6080 C   0  0  0  0  0  3  0  0  0  0  0  0
  -21.0280   -6.7500   24.7790 C   0  0  0  0  0  3  0  0  0  0  0  0
  -21.2560   -5.3600   24.8110 C   0  0  0  0  0  0  0  0  0  0  0  0
  -21.7620   -4.7030   23.6760 C   0  0  0  0  0  3  0  0  0  0  0  0
  -22.0400   -5.4340   22.5080 C   0  0  0  0  0  0  0  0  0  0  0  0
  -22.5090   -4.7930   21.4100 F   0  0  0  0  0  0  0  0  0  0  0  0
  -20.9830   -4.6530   25.9320 F   0  0  0  0  0  0  0  0  0  0  0  0
  -23.6020  -14.0250   20.7850 C   0  0  0  0  0  0  0  0  0  0  0  0
  -22.7740  -13.4370   21.6390 N   0  0  0  0  0  0  0  0  0  0  0  0
  -23.2700  -15.0380   20.1710 O   0  0  0  0  0  0  0  0  0  0  0  0
  -23.0520  -12.6190   22.1600 H   0  0  0  0  0  0  0  0  0  0  0  0
  -21.8420  -13.8080   21.7710 H   0  0  0  0  0  0  0  0  0  0  0  0
  -26.4040  -15.4740   20.1170 N   0  0  0  0  0  0  0  0  0  0  0  0
  -25.6850  -16.1870   20.1350 H   0  0  0  0  0  0  0  0  0  0  0  0
  -27.3150  -15.8370   19.8570 H   0  0  0  0  0  0  0  0  0  0  0  0
  -30.8890  -17.6460   22.5330 C   0  0  0  0  0  2  0  0  0  0  0  0
  -32.5570  -19.5640   22.1980 C   0  0  0  0  0  1  0  0  0  0  0  0
  -30.8770  -19.6560   24.0810 C   0  0  0  0  0  1  0  0  0  0  0  0
  -31.1410  -19.1710   22.6480 C   0  0  0  0  0  3  0  0  0  0  0  0
  -30.3510  -21.0260   18.4870 C   0  0  0  0  0  2  0  0  0  0  0  0
  -29.2940  -21.7520   19.3540 C   0  0  0  0  0  2  0  0  0  0  0  0
  -29.2900  -23.2710   19.0210 C   0  0  0  0  0  2  0  0  0  0  0  0
  -29.0050  -24.2650   21.3510 C   0  0  0  0  0  1  0  0  0  0  0  0
  -28.4580  -24.2370   19.9110 C   0  0  0  0  0  3  0  0  0  0  0  0
  -28.4750  -25.6600   19.2750 C   0  0  0  0  0  2  0  0  0  0  0  0
  -28.2160  -26.7430   20.1790 O   0  0  0  0  0  0  0  0  0  0  0  0
  -24.5050  -31.9690   23.2270 C   0  0  0  0  0  0  0  0  0  0  0  0
  -27.0270  -27.4450   20.1540 C   0  0  0  0  0  0  0  0  0  0  0  0
  -23.2500  -30.5790   21.6070 C   0  0  0  0  0  3  0  0  0  0  0  0
  -24.6550  -28.9940   20.1810 C   0  0  0  0  0  0  0  0  0  0  0  0
  -25.7800  -30.8810   21.3820 C   0  0  0  0  0  2  0  0  0  0  0  0
  -25.8260  -29.5010   20.7580 C   0  0  0  0  0  0  0  0  0  0  0  0
  -27.0080  -28.7280   20.7470 C   0  0  0  0  0  3  0  0  0  0  0  0
  -25.8340  -26.9460   19.5810 C   0  0  0  0  0  3  0  0  0  0  0  0
  -24.6550  -27.7180   19.5910 C   0  0  0  0  0  3  0  0  0  0  0  0
  -23.4300  -29.8790   20.2320 C   0  0  0  0  0  2  0  0  0  0  0  0
  -24.5310  -31.1600   22.1290 N   0  0  0  0  0  0  0  0  0  0  0  0
  -23.4350  -32.2690   23.7770 O   0  0  0  0  0  0  0  0  0  0  0  0
  -22.5880  -29.5830   22.5860 C   0  0  0  0  0  0  0  0  0  0  0  0
  -21.2610  -29.4240   22.4680 N   0  0  0  0  0  0  0  0  0  0  0  0
  -23.2650  -28.9560   23.4050 O   0  0  0  0  0  0  0  0  0  0  0  0
  -20.7780  -29.9820   21.7790 H   0  0  0  0  0  0  0  0  0  0  0  0
  -17.8670  -28.2910   22.9870 C   0  0  0  0  0  0  0  0  0  0  0  0
  -20.4290  -28.5100   23.2520 C   0  0  0  0  0  3  0  0  0  0  0  0
  -20.5070  -27.0710   22.6930 C   0  0  0  0  0  2  0  0  0  0  0  0
  -19.3980  -26.7530   21.6860 C   0  0  0  0  0  2  0  0  0  0  0  0
  -18.0200  -26.9290   22.3300 C   0  0  0  0  0  2  0  0  0  0  0  0
  -18.9990  -29.0400   23.4060 C   0  0  0  0  0  0  0  0  0  0  0  0
  -18.8030  -30.3140   23.9800 C   0  0  0  0  0  3  0  0  0  0  0  0
  -17.5070  -30.8400   24.1380 C   0  0  0  0  0  3  0  0  0  0  0  0
  -16.3890  -30.0880   23.7370 C   0  0  0  0  0  3  0  0  0  0  0  0
  -16.5700  -28.8150   23.1680 C   0  0  0  0  0  3  0  0  0  0  0  0
  -25.8110  -32.5750   23.8300 C   0  0  0  0  0  3  0  0  0  0  0  0
  -26.3490  -31.7770   25.0800 C   0  0  1  0  0  0  0  0  0  0  0  0
  -25.2770  -31.5220   26.1650 C   0  0  0  0  0  1  0  0  0  0  0  0
  -26.9150  -30.4040   24.6460 C   0  0  0  0  0  1  0  0  0  0  0  0
  -27.5170  -32.5540   25.7350 C   0  0  0  0  0  1  0  0  0  0  0  0
  -25.5260  -33.9710   24.1880 N   0  0  0  0  0  0  0  0  0  0  0  0
  -25.8610  -35.0320   23.4400 C   0  0  0  0  0  0  0  0  0  0  0  0
  -26.5130  -34.9380   22.3970 O   0  0  0  0  0  0  0  0  0  0  0  0
  -24.9460  -34.1190   25.0000 H   0  0  0  0  0  0  0  0  0  0  0  0
  -24.1580  -36.8560   23.1320 C   0  0  0  0  0  1  0  0  0  0  0  0
  -25.3970  -36.4180   23.9290 C   0  0  0  0  0  3  0  0  0  0  0  0
  -27.5500  -37.2560   24.7590 C   0  0  0  0  0  1  0  0  0  0  0  0
  -26.4440  -37.4590   23.8300 N   0  0  0  0  0  0  0  0  0  0  0  0
  -26.0510  -38.3820   23.9980 H   0  0  0  0  0  0  0  0  0  0  0  0
  1 55  1  0
  1  9  1  0
  2  3  1  0
  3  5  1  0
  4  2  1  0
  4  6  1  0
  6  7  1  0
  7  5  1  0
  7  1  1  0
  8 12  1  0
  9 11  1  0
  9  8  1  0
 10  8  2  0
 12 21  1  0
 12 51  1  0
 13 21  1  0
 14 19  1  0
 15 16  1  0
 15 14  1  0
 17 16  1  0
 17 26  1  0
 17 18  1  0
 19 13  1  0
 19 18  1  0
 20 13  2  0
 21 22  1  0
 23 24  2  0
 24 25  1  0
 24 43  1  0
 25 28  1  0
 26 23  1  0
 26 27  1  0
 27 25  2  0
 28 29  1  0
 29 30  2  0
 31 34  1  0
 31 30  1  0
 32 31  2  0
 33 32  1  0
 33 28  2  0
 34 35  1  0
 35 40  2  0
 35 36  1  0
 36 37  2  0
 37 38  1  0
 38 42  1  0
 39 38  2  0
 40 39  1  0
 41 40  1  0
 43 44  1  0
 44 47  1  0
 44 46  1  0
 45 43  2  0
 48 49  1  0
 48 23  1  0
 50 48  1  0
 51 54  1  0
 52 54  1  0
 54 53  1  0
 55 56  1  0
 57 56  1  0
 57 59  1  0
 59 58  1  0
 60 59  1  0
 60 61  1  0
 62 73  2  0
 63 61  1  0
 63 68  1  0
 64 72  1  0
 64 74  1  0
 65 71  1  0
 65 67  1  0
 66 72  1  0
 67 66  1  0
 68 67  2  0
 69 70  1  0
 69 63  2  0
 70 65  2  0
 71 64  1  0
 72 62  1  0
 74 76  2  0
 75 74  1  0
 77 75  1  0
 78 87  2  0
 78 83  1  0
 79 75  1  0
 79 83  1  0
 80 79  1  0
 81 82  1  0
 81 80  1  0
 82 78  1  0
 83 84  2  0
 84 85  1  0
 86 85  2  0
 87 86  1  0
 88 62  1  0
 88 93  1  0
 88 89  1  0
 89 92  1  1
 89 90  1  0
 91 89  1  0
 93 96  1  0
 94 98  1  0
 94 93  1  0
 95 94  2  0
 98 97  1  0
100 98  1  0
100101  1  0
100 99  1  0
M  ISO  4  13 100  21 100  60 101  61 101
M  END
>  <TORSDO>  (44) 
F 26

>  <SCORE>  (44) 
-10.725

>  <name>  (44) 
44

>  <ligand_id>  (44) 
44

>  <original_smiles>  (44) 
[H]c1c([H])c([H])c2c(c1[H])C([H])([H])C([H])([H])C([H])([H])C2([H])N([H])C(=O)C1([H])N(C(=O)C([H])(N([H])C(=O)C([H])(N([H])C([H])([H])[H])C([H])([H])[H])C(C([H])([H])[H])(C([H])([H])[H])C([H])([H])[H])C([H])([H])c2c([H])c(OC([H])([H])C([H])(C([H])([H])[H])C([H])([H])C([H])([H])C([H])([H])C([H])(N([H])C(=O)C([H])(N([H])C(=O)N3C([H])([H])C([H])([H])C([H])([H])C([H])(n4nc(-c5c([H])c([H])c(Oc6c([H])c([H])c(F)c([H])c6F)c([H])c5[H])c(C(=O)N([H])[H])c4N([H])[H])C3([H])[H])C([H])([H])C([H])(C([H])([H])[H])C([H])([H])[H])C3([H])C([H])([H])C([H])([H])C([H])([H])C([H])([H])C3([H])[H])c([H])c([H])c2C1([H])[H]

>  <smiles>  (44) 
[H]c1c([H])c([H])c2c(c1[H])C([H])([H])C([H])([H])C([H])([H])C2([H])N([H])C(=O)C1([H])N(C(=O)C([H])(N([H])C(=O)C([H])(N([H])C([H])([H])[H])C([H])([H])[H])C(C([H])([H])[H])(C([H])([H])[H])C([H])([H])[H])C([H])([H])c2c([H])c(OC([H])([H])C([H])(C([H])([H])[H])C([H])([H])C([H])([H])C([H])([H])C([H])(N([H])C(=O)C([H])(N([H])C(=O)N3C([H])([H])C([H])([H])C([H])([H])C([H])(n4nc(-c5c([H])c([H])c(Oc6c([H])c([H])c(F)c([H])c6F)c([H])c5[H])c(C(=O)N([H])[H])c4N([H])[H])C3([H])[H])C([H])([H])C([H])(C([H])([H])[H])C([H])([H])[H])C3([H])C([H])([H])C([H])([H])C([H])([H])C([H])([H])C3([H])[H])c([H])c([H])c2C1([H])[H]

$$$$
45:0:0
     RDKit          3D

103111  0  0  1  0  0  0  0  0999 V2000
  -31.5140  -22.8700   20.7700 C   0  0  0  0  0  3  0  0  0  0  0  0
  -31.2380  -23.8010   21.8640 N   0  0  0  0  0  0  0  0  0  0  0  0
  -30.4890  -24.4570   21.6680 H   0  0  0  0  0  0  0  0  0  0  0  0
  -32.0430  -24.3360   22.1720 H   0  0  0  0  0  0  0  0  0  0  0  0
  -30.3430  -21.8600   20.6950 C   0  0  0  0  0  2  0  0  0  0  0  0
  -31.2730  -19.1440   23.2470 C   0  0  0  0  0  3  0  0  0  0  0  0
  -30.9430  -20.4000   22.7040 C   0  0  0  0  0  3  0  0  0  0  0  0
  -31.2920  -17.9990   22.4240 C   0  0  0  0  0  3  0  0  0  0  0  0
  -30.6460  -19.3650   20.5200 C   0  0  0  0  0  3  0  0  0  0  0  0
  -30.6480  -20.5170   21.3320 C   0  0  0  0  0  0  0  0  0  0  0  0
  -30.9590  -18.0970   21.0530 C   0  0  0  0  0  0  0  0  0  0  0  0
  -31.0340  -16.8610   20.1530 C   0  0  0  0  0  3  0  0  0  0  0  0
  -31.2210  -14.4850   20.7070 C   0  0  0  0  0  0  0  0  0  0  0  0
  -30.8040  -12.3670   19.5810 C   0  0  0  0  0  2  0  0  0  0  0  0
  -29.9610  -12.6610   18.3270 C   0  0  0  0  0  2  0  0  0  0  0  0
  -28.4620  -12.6000   18.6690 C   0  0  0  0  0  2  0  0  0  0  0  0
  -28.0900  -13.4450   19.9230 C   0  0  0  0  0  3  0  0  0  0  0  0
  -29.0800  -13.2000   21.0860 C   0  0  0  0  0  2  0  0  0  0  0  0
  -30.4480  -13.3800   20.5810 N   0  0  0  0  0  0  0  0  0  0  0  0
  -32.4190  -14.5030   20.4290 O   0  0  0  0  0  0  0  0  0  0  0  0
  -30.5510  -15.6390   20.8090 N   0  0  0  0  0  0  0  0  0  0  0  0
  -29.5740  -15.5950   21.0480 H   0  0  0  0  0  0  0  0  0  0  0  0
  -25.6720  -14.1270   20.4940 C   0  0  0  0  0  0  0  0  0  0  0  0
  -24.5600  -13.3900   20.8040 C   0  0  0  0  0  0  0  0  0  0  0  0
  -24.9800  -12.0240   20.8010 C   0  0  0  0  0  0  0  0  0  0  0  0
  -26.7030  -13.2140   20.3280 N   0  0  0  0  0  0  0  0  0  0  0  0
  -26.2840  -11.9440   20.5700 N   0  0  0  0  0  0  0  0  0  0  0  0
  -24.2040  -10.7860   20.9520 C   0  0  0  0  0  0  0  0  0  0  0  0
  -24.5630   -9.7950   21.8920 C   0  0  0  0  0  3  0  0  0  0  0  0
  -23.7880   -8.6220   22.0290 C   0  0  0  0  0  3  0  0  0  0  0  0
  -22.6390   -8.4340   21.2260 C   0  0  0  0  0  0  0  0  0  0  0  0
  -22.2970   -9.4130   20.2760 C   0  0  0  0  0  3  0  0  0  0  0  0
  -23.0730  -10.5760   20.1370 C   0  0  0  0  0  3  0  0  0  0  0  0
  -21.8420   -7.3150   21.2740 O   0  0  0  0  0  0  0  0  0  0  0  0
  -21.7280   -6.5570   22.4110 C   0  0  0  0  0  0  0  0  0  0  0  0
  -21.2890   -7.1100   23.6340 C   0  0  0  0  0  3  0  0  0  0  0  0
  -21.1210   -6.2820   24.7600 C   0  0  0  0  0  3  0  0  0  0  0  0
  -21.3830   -4.9010   24.6670 C   0  0  0  0  0  0  0  0  0  0  0  0
  -21.8160   -4.3480   23.4500 C   0  0  0  0  0  3  0  0  0  0  0  0
  -21.9840   -5.1730   22.3230 C   0  0  0  0  0  0  0  0  0  0  0  0
  -22.3800   -4.6300   21.1480 F   0  0  0  0  0  0  0  0  0  0  0  0
  -21.2130   -4.1040   25.7490 F   0  0  0  0  0  0  0  0  0  0  0  0
  -23.1660  -13.9120   20.9880 C   0  0  0  0  0  0  0  0  0  0  0  0
  -22.3650  -13.2570   21.8230 N   0  0  0  0  0  0  0  0  0  0  0  0
  -22.7910  -14.9410   20.4260 O   0  0  0  0  0  0  0  0  0  0  0  0
  -22.6760  -12.4280   22.3090 H   0  0  0  0  0  0  0  0  0  0  0  0
  -21.4260  -13.5930   21.9830 H   0  0  0  0  0  0  0  0  0  0  0  0
  -25.8860  -15.4900   20.3220 N   0  0  0  0  0  0  0  0  0  0  0  0
  -25.1330  -16.1660   20.3910 H   0  0  0  0  0  0  0  0  0  0  0  0
  -26.7650  -15.9040   20.0370 H   0  0  0  0  0  0  0  0  0  0  0  0
  -30.3740  -16.9750   18.7540 C   0  0  0  0  0  2  0  0  0  0  0  0
  -30.3600  -18.2870   16.5690 C   0  0  0  0  0  1  0  0  0  0  0  0
  -32.3780  -16.9030   17.1630 C   0  0  0  0  0  1  0  0  0  0  0  0
  -31.2240  -17.7590   17.7220 C   0  0  0  0  0  3  0  0  0  0  0  0
  -31.7050  -23.5870   19.4120 C   0  0  0  0  0  2  0  0  0  0  0  0
  -32.4750  -24.8350   19.5450 N   0  0  0  0  0  4  0  0  0  0  0  0
  -32.2570  -25.2300   20.4440 H   0  0  0  0  0  0  0  0  0  0  0  0
  -33.4520  -24.5890   19.5570 H   0  0  0  0  0  0  0  0  0  0  0  0
  -32.2480  -25.8430   18.4870 C   0  0  0  0  0  2  0  0  0  0  0  0
  -31.0030  -26.7360   18.7180 C   0  0  0  0  0  2  0  0  0  0  0  0
  -29.6440  -26.1820   18.2240 C   0  0  0  0  0  2  0  0  0  0  0  0
  -28.6900  -25.7350   19.3470 C   0  0  0  0  0  2  0  0  0  0  0  0
  -28.4110  -26.8580   20.1790 O   0  0  0  0  0  0  0  0  0  0  0  0
  -24.5740  -31.9380   23.2660 C   0  0  0  0  0  0  0  0  0  0  0  0
  -27.2010  -27.5180   20.1440 C   0  0  0  0  0  0  0  0  0  0  0  0
  -23.3470  -30.5320   21.6380 C   0  0  0  0  0  3  0  0  0  0  0  0
  -24.7880  -28.9980   20.1970 C   0  0  0  0  0  0  0  0  0  0  0  0
  -25.8700  -30.8960   21.4130 C   0  0  0  0  0  2  0  0  0  0  0  0
  -25.9470  -29.5270   20.7750 C   0  0  0  0  0  0  0  0  0  0  0  0
  -27.1490  -28.7880   20.7560 C   0  0  0  0  0  3  0  0  0  0  0  0
  -26.0170  -26.9910   19.5740 C   0  0  0  0  0  3  0  0  0  0  0  0
  -24.8170  -27.7250   19.6010 C   0  0  0  0  0  3  0  0  0  0  0  0
  -23.5410  -29.8470   20.2570 C   0  0  0  0  0  2  0  0  0  0  0  0
  -24.6150  -31.1380   22.1640 N   0  0  0  0  0  0  0  0  0  0  0  0
  -23.4990  -32.2100   23.8180 O   0  0  0  0  0  0  0  0  0  0  0  0
  -22.7110  -29.5100   22.6080 C   0  0  0  0  0  0  0  0  0  0  0  0
  -21.3880  -29.3110   22.4820 N   0  0  0  0  0  0  0  0  0  0  0  0
  -23.4050  -28.8980   23.4230 O   0  0  0  0  0  0  0  0  0  0  0  0
  -20.8920  -29.8580   21.7930 H   0  0  0  0  0  0  0  0  0  0  0  0
  -18.0320  -28.0750   22.9700 C   0  0  0  0  0  0  0  0  0  0  0  0
  -20.5840  -28.3690   23.2590 C   0  0  0  0  0  3  0  0  0  0  0  0
  -20.7130  -26.9360   22.6970 C   0  0  0  0  0  2  0  0  0  0  0  0
  -19.6230  -26.5870   21.6790 C   0  0  0  0  0  2  0  0  0  0  0  0
  -18.2330  -26.7200   22.3120 C   0  0  0  0  0  2  0  0  0  0  0  0
  -19.1380  -28.8560   23.4010 C   0  0  0  0  0  0  0  0  0  0  0  0
  -18.8980  -30.1240   23.9720 C   0  0  0  0  0  3  0  0  0  0  0  0
  -17.5850  -30.6110   24.1220 C   0  0  0  0  0  3  0  0  0  0  0  0
  -16.4950  -29.8230   23.7130 C   0  0  0  0  0  3  0  0  0  0  0  0
  -16.7180  -28.5600   23.1400 C   0  0  0  0  0  3  0  0  0  0  0  0
  -25.8660  -32.5690   23.8730 C   0  0  0  0  0  3  0  0  0  0  0  0
  -25.5630  -33.9680   24.1990 N   0  0  0  0  0  0  0  0  0  0  0  0
  -25.8940  -35.0140   23.4330 C   0  0  0  0  0  0  0  0  0  0  0  0
  -26.5580  -34.9060   22.3980 O   0  0  0  0  0  0  0  0  0  0  0  0
  -24.9670  -34.1300   24.9970 H   0  0  0  0  0  0  0  0  0  0  0  0
  -24.1740  -36.8110   23.0680 C   0  0  0  0  0  1  0  0  0  0  0  0
  -25.4110  -36.4050   23.8840 C   0  0  0  0  0  3  0  0  0  0  0  0
  -27.5440  -37.2870   24.7200 C   0  0  0  0  0  1  0  0  0  0  0  0
  -26.4460  -37.4550   23.7720 N   0  0  0  0  0  0  0  0  0  0  0  0
  -26.0410  -38.3770   23.9120 H   0  0  0  0  0  0  0  0  0  0  0  0
  -26.3940  -31.8020   25.1480 C   0  0  1  0  0  0  0  0  0  0  0  0
  -25.3100  -31.5700   26.2260 C   0  0  0  0  0  1  0  0  0  0  0  0
  -26.9710  -30.4230   24.7550 C   0  0  0  0  0  1  0  0  0  0  0  0
  -27.5520  -32.5970   25.7970 C   0  0  0  0  0  1  0  0  0  0  0  0
  1 55  1  0
  1  2  1  0
  2  4  1  0
  3  2  1  0
  5  1  1  0
  5 10  1  0
  7  6  1  0
  8  6  2  0
  9 11  2  0
  9 10  1  0
 10  7  2  0
 11  8  1  0
 12 51  1  0
 12 21  1  0
 12 11  1  0
 13 21  1  0
 14 19  1  0
 15 16  1  0
 15 14  1  0
 17 16  1  0
 17 26  1  0
 17 18  1  0
 19 13  1  0
 19 18  1  0
 20 13  2  0
 21 22  1  0
 23 24  2  0
 24 43  1  0
 25 24  1  0
 25 28  1  0
 26 23  1  0
 26 27  1  0
 27 25  2  0
 28 29  1  0
 29 30  2  0
 31 34  1  0
 31 30  1  0
 32 31  2  0
 33 32  1  0
 33 28  2  0
 34 35  1  0
 35 36  1  0
 36 37  2  0
 38 37  1  0
 38 42  1  0
 39 38  2  0
 40 35  2  0
 40 39  1  0
 41 40  1  0
 43 44  1  0
 44 47  1  0
 44 46  1  0
 45 43  2  0
 48 49  1  0
 48 23  1  0
 50 48  1  0
 52 54  1  0
 53 54  1  0
 54 51  1  0
 55 56  1  0
 56 58  1  0
 56 57  1  0
 59 60  1  0
 59 56  1  0
 61 60  1  0
 61 62  1  0
 62 63  1  0
 64 75  2  0
 65 63  1  0
 65 70  1  0
 66 74  1  0
 66 76  1  0
 67 73  1  0
 67 69  1  0
 68 74  1  0
 69 68  1  0
 70 69  2  0
 71 72  1  0
 71 65  2  0
 72 67  2  0
 73 66  1  0
 74 64  1  0
 76 78  2  0
 77 76  1  0
 79 77  1  0
 80 89  2  0
 80 85  1  0
 81 77  1  0
 81 85  1  0
 82 81  1  0
 83 84  1  0
 83 82  1  0
 84 80  1  0
 85 86  2  0
 86 87  1  0
 88 87  2  0
 89 88  1  0
 90 64  1  0
 90 91  1  0
 90100  1  0
 91 94  1  0
 92 96  1  0
 92 91  1  0
 93 92  2  0
 96 95  1  0
 98 96  1  0
 98 99  1  0
 98 97  1  0
100103  1  1
100101  1  0
102100  1  0
M  ISO  4  13 100  21 100  62 101  63 101
M  END
>  <TORSDO>  (45) 
F 28

>  <SCORE>  (45) 
-11.179

>  <name>  (45) 
45

>  <ligand_id>  (45) 
45

>  <original_smiles>  (45) 
[H]c1c([H])c([H])c2c(c1[H])C([H])([H])C([H])([H])C([H])([H])C2([H])N([H])C(=O)C1([H])N(C(=O)C([H])(N([H])C(=O)C([H])(N([H])C([H])([H])[H])C([H])([H])[H])C(C([H])([H])[H])(C([H])([H])[H])C([H])([H])[H])C([H])([H])c2c([H])c(OC([H])([H])C([H])([H])C([H])([H])C([H])([H])[N+]([H])([H])C([H])([H])C([H])(N([H])[H])C([H])([H])c3c([H])c([H])c([H])c(C([H])(N([H])C(=O)N4C([H])([H])C([H])([H])C([H])([H])C([H])(n5nc(-c6c([H])c([H])c(Oc7c([H])c([H])c(F)c([H])c7F)c([H])c6[H])c(C(=O)N([H])[H])c5N([H])[H])C4([H])[H])C([H])([H])C([H])(C([H])([H])[H])C([H])([H])[H])c3[H])c([H])c([H])c2C1([H])[H]

>  <smiles>  (45) 
[H]c1c([H])c([H])c2c(c1[H])C([H])([H])C([H])([H])C([H])([H])C2([H])N([H])C(=O)C1([H])N(C(=O)C([H])(N([H])C(=O)C([H])(N([H])C([H])([H])[H])C([H])([H])[H])C(C([H])([H])[H])(C([H])([H])[H])C([H])([H])[H])C([H])([H])c2c([H])c(OC([H])([H])C([H])([H])C([H])([H])C([H])([H])[N+]([H])([H])C([H])([H])C([H])(N([H])[H])C([H])([H])c3c([H])c([H])c([H])c(C([H])(N([H])C(=O)N4C([H])([H])C([H])([H])C([H])([H])C([H])(n5nc(-c6c([H])c([H])c(Oc7c([H])c([H])c(F)c([H])c7F)c([H])c6[H])c(C(=O)N([H])[H])c5N([H])[H])C4([H])[H])C([H])([H])C([H])(C([H])([H])[H])C([H])([H])[H])c3[H])c([H])c([H])c2C1([H])[H]

$$$$
46:0:0
     RDKit          3D

 91 99  0  0  1  0  0  0  0  0999 V2000
  -29.3310  -22.9050   19.5540 C   0  0  0  0  0  3  0  0  0  0  0  0
  -29.7670  -19.9960   19.1370 C   0  0  0  0  0  0  0  0  0  0  0  0
  -29.0260  -21.2600   19.4270 N   0  0  0  0  0  0  0  0  0  0  0  0
  -30.9190  -20.1180   18.7180 O   0  0  0  0  0  0  0  0  0  0  0  0
  -28.0740  -21.0560   19.7030 H   0  0  0  0  0  0  0  0  0  0  0  0
  -30.5810  -15.5130   19.5230 C   0  0  0  0  0  0  0  0  0  0  0  0
  -30.7470  -12.9980   18.7640 C   0  0  0  0  0  2  0  0  0  0  0  0
  -29.7500  -12.6280   17.6250 C   0  0  0  0  0  2  0  0  0  0  0  0
  -28.3420  -12.3030   18.1690 C   0  0  0  0  0  2  0  0  0  0  0  0
  -27.9290  -13.2850   19.2910 C   0  0  0  0  0  3  0  0  0  0  0  0
  -29.0690  -13.4280   20.3300 C   0  0  0  0  0  2  0  0  0  0  0  0
  -30.1740  -14.1220   19.6150 N   0  0  0  0  0  0  0  0  0  0  0  0
  -31.7230  -15.5980   19.0430 O   0  0  0  0  0  0  0  0  0  0  0  0
  -27.7530  -17.5270   21.1470 C   0  0  0  0  0  2  0  0  0  0  0  0
  -28.3490  -18.7450   20.5640 C   0  0  0  0  0  2  0  0  0  0  0  0
  -28.7530  -16.4210   20.8740 C   0  0  0  0  0  2  0  0  0  0  0  0
  -29.2410  -18.3390   19.3700 C   0  0  0  0  0  3  0  0  0  0  0  0
  -29.7310  -16.7430   19.8110 N   0  0  0  0  0  0  0  0  0  0  0  0
  -25.6090  -13.8220   20.2220 C   0  0  0  0  0  0  0  0  0  0  0  0
  -24.5870  -13.0390   20.6760 C   0  0  0  0  0  0  0  0  0  0  0  0
  -25.0480  -11.6930   20.5630 C   0  0  0  0  0  0  0  0  0  0  0  0
  -26.6390  -12.9580   19.8850 N   0  0  0  0  0  0  0  0  0  0  0  0
  -26.3120  -11.6670   20.1460 N   0  0  0  0  0  0  0  0  0  0  0  0
  -24.3350  -10.4290   20.7780 C   0  0  0  0  0  0  0  0  0  0  0  0
  -24.7520   -9.5030   21.7580 C   0  0  0  0  0  3  0  0  0  0  0  0
  -24.0390   -8.3020   21.9570 C   0  0  0  0  0  3  0  0  0  0  0  0
  -22.8950   -8.0200   21.1760 C   0  0  0  0  0  0  0  0  0  0  0  0
  -22.4960   -8.9350   20.1850 C   0  0  0  0  0  3  0  0  0  0  0  0
  -23.2100  -10.1270   19.9850 C   0  0  0  0  0  3  0  0  0  0  0  0
  -22.1540   -6.8670   21.2840 O   0  0  0  0  0  0  0  0  0  0  0  0
  -21.9380   -6.2610   22.4940 C   0  0  0  0  0  0  0  0  0  0  0  0
  -21.3180   -6.9410   23.5650 C   0  0  0  0  0  3  0  0  0  0  0  0
  -21.0520   -6.2600   24.7710 C   0  0  0  0  0  3  0  0  0  0  0  0
  -21.3920   -4.9000   24.9030 C   0  0  0  0  0  0  0  0  0  0  0  0
  -22.0030   -4.2200   23.8340 C   0  0  0  0  0  3  0  0  0  0  0  0
  -22.2720   -4.8980   22.6320 C   0  0  0  0  0  0  0  0  0  0  0  0
  -22.8430   -4.2320   21.5990 F   0  0  0  0  0  0  0  0  0  0  0  0
  -21.1290   -4.2450   26.0580 F   0  0  0  0  0  0  0  0  0  0  0  0
  -23.2200  -13.5150   21.0750 C   0  0  0  0  0  0  0  0  0  0  0  0
  -22.5700  -12.8150   21.9970 N   0  0  0  0  0  0  0  0  0  0  0  0
  -22.7380  -14.5450   20.6060 O   0  0  0  0  0  0  0  0  0  0  0  0
  -22.9760  -11.9820   22.3990 H   0  0  0  0  0  0  0  0  0  0  0  0
  -21.6560  -13.1150   22.3020 H   0  0  0  0  0  0  0  0  0  0  0  0
  -25.7200  -15.1930   20.0300 N   0  0  0  0  0  0  0  0  0  0  0  0
  -24.9150  -15.7940   20.1640 H   0  0  0  0  0  0  0  0  0  0  0  0
  -26.4700  -15.6370   19.5180 H   0  0  0  0  0  0  0  0  0  0  0  0
  -29.4200  -22.6560   22.0860 C   0  0  0  0  0  1  0  0  0  0  0  0
  -30.9480  -24.3580   20.9770 C   0  0  0  0  0  1  0  0  0  0  0  0
  -30.2210  -23.0100   20.8210 C   0  0  0  0  0  3  0  0  0  0  0  0
  -28.2310  -24.3480   19.5530 C   0  0  0  0  0  2  0  0  0  0  0  0
  -28.4450  -25.9730   19.7780 O   0  0  0  0  0  0  0  0  0  0  0  0
  -24.9820  -31.6760   23.3280 C   0  0  0  0  0  0  0  0  0  0  0  0
  -27.4250  -27.0600   19.8410 C   0  0  0  0  0  0  0  0  0  0  0  0
  -23.7420  -30.4580   21.5860 C   0  0  0  0  0  3  0  0  0  0  0  0
  -25.1430  -28.9620   20.0040 C   0  0  0  0  0  0  0  0  0  0  0  0
  -26.3110  -30.6370   21.4230 C   0  0  0  0  0  2  0  0  0  0  0  0
  -26.3460  -29.2930   20.6410 C   0  0  0  0  0  0  0  0  0  0  0  0
  -27.4780  -28.3690   20.5340 C   0  0  0  0  0  3  0  0  0  0  0  0
  -26.1870  -26.8750   19.1850 C   0  0  0  0  0  3  0  0  0  0  0  0
  -25.0890  -27.7710   19.2580 C   0  0  0  0  0  3  0  0  0  0  0  0
  -23.9420  -29.8970   20.1510 C   0  0  0  0  0  2  0  0  0  0  0  0
  -25.0350  -30.9460   22.1670 N   0  0  0  0  0  0  0  0  0  0  0  0
  -23.9040  -31.9350   23.8870 O   0  0  0  0  0  0  0  0  0  0  0  0
  -23.0380  -29.3940   22.4680 C   0  0  0  0  0  0  0  0  0  0  0  0
  -21.7100  -29.2370   22.3150 N   0  0  0  0  0  0  0  0  0  0  0  0
  -23.6950  -28.7100   23.2560 O   0  0  0  0  0  0  0  0  0  0  0  0
  -21.2320  -29.8360   21.6560 H   0  0  0  0  0  0  0  0  0  0  0  0
  -18.3200  -28.0080   22.7120 C   0  0  0  0  0  0  0  0  0  0  0  0
  -20.8810  -28.2440   23.0040 C   0  0  0  0  0  3  0  0  0  0  0  0
  -20.9830  -26.8640   22.3130 C   0  0  0  0  0  2  0  0  0  0  0  0
  -19.8830  -26.6300   21.2740 C   0  0  0  0  0  2  0  0  0  0  0  0
  -18.4990  -26.7230   21.9210 C   0  0  0  0  0  2  0  0  0  0  0  0
  -19.4400  -28.7310   23.2050 C   0  0  0  0  0  0  0  0  0  0  0  0
  -19.2190  -29.9380   23.9050 C   0  0  0  0  0  3  0  0  0  0  0  0
  -17.9130  -30.4210   24.1130 C   0  0  0  0  0  3  0  0  0  0  0  0
  -16.8090  -29.6950   23.6320 C   0  0  0  0  0  3  0  0  0  0  0  0
  -17.0150  -28.4890   22.9370 C   0  0  0  0  0  3  0  0  0  0  0  0
  -26.2720  -32.2320   24.0030 C   0  0  0  0  0  3  0  0  0  0  0  0
  -26.7330  -31.3820   25.2520 C   0  0  1  0  0  0  0  0  0  0  0  0
  -25.6100  -31.1390   26.2870 C   0  0  0  0  0  1  0  0  0  0  0  0
  -27.2720  -30.0020   24.8110 C   0  0  0  0  0  1  0  0  0  0  0  0
  -27.9040  -32.0960   25.9670 C   0  0  0  0  0  1  0  0  0  0  0  0
  -26.0100  -33.6250   24.4090 N   0  0  0  0  0  0  0  0  0  0  0  0
  -26.3470  -34.7080   23.6960 C   0  0  0  0  0  0  0  0  0  0  0  0
  -26.9740  -34.6370   22.6360 O   0  0  0  0  0  0  0  0  0  0  0  0
  -25.4550  -33.7550   25.2410 H   0  0  0  0  0  0  0  0  0  0  0  0
  -24.6420  -36.5540   23.5370 C   0  0  0  0  0  1  0  0  0  0  0  0
  -25.9260  -36.0870   24.2430 C   0  0  0  0  0  3  0  0  0  0  0  0
  -28.1210  -36.9110   24.9820 C   0  0  0  0  0  1  0  0  0  0  0  0
  -26.9730  -37.1230   24.1020 N   0  0  0  0  0  0  0  0  0  0  0  0
  -26.5940  -38.0470   24.2910 H   0  0  0  0  0  0  0  0  0  0  0  0
  1 50  1  0
  1 49  1  0
  2  3  1  0
  3  1  1  0
  3  5  1  0
  4  2  2  0
  6 12  1  0
  6 18  1  0
  7 12  1  0
  8  9  1  0
  8  7  1  0
 10  9  1  0
 10 22  1  0
 10 11  1  0
 12 11  1  0
 13  6  2  0
 15 14  1  0
 16 14  1  0
 17  2  1  0
 17 18  1  0
 17 15  1  0
 18 16  1  0
 19 20  2  0
 20 39  1  0
 21 20  1  0
 21 24  1  0
 22 23  1  0
 22 19  1  0
 23 21  2  0
 24 25  1  0
 25 26  2  0
 27 30  1  0
 27 26  1  0
 28 27  2  0
 29 28  1  0
 29 24  2  0
 30 31  1  0
 31 36  2  0
 31 32  1  0
 32 33  2  0
 33 34  1  0
 34 38  1  0
 35 34  2  0
 36 35  1  0
 37 36  1  0
 39 40  1  0
 40 43  1  0
 40 42  1  0
 41 39  2  0
 44 45  1  0
 44 19  1  0
 46 44  1  0
 49 48  1  0
 49 47  1  0
 50 51  1  0
 51 53  1  0
 52 63  2  0
 53 58  1  0
 54 62  1  0
 54 64  1  0
 55 61  1  0
 55 57  1  0
 56 62  1  0
 57 56  1  0
 58 57  2  0
 59 60  1  0
 59 53  2  0
 60 55  2  0
 61 54  1  0
 62 52  1  0
 64 66  2  0
 65 64  1  0
 67 65  1  0
 68 77  2  0
 68 73  1  0
 69 65  1  0
 69 73  1  0
 70 69  1  0
 71 72  1  0
 71 70  1  0
 72 68  1  0
 73 74  2  0
 74 75  1  0
 76 75  2  0
 77 76  1  0
 78 52  1  0
 78 83  1  0
 78 79  1  0
 79 82  1  1
 79 80  1  0
 81 79  1  0
 83 86  1  0
 84 88  1  0
 84 83  1  0
 85 84  2  0
 88 87  1  0
 90 88  1  0
 90 91  1  0
 90 89  1  0
M  ISO  4   6 100  18 100  50 101  51 101
M  END
>  <TORSDO>  (46) 
F 19

>  <SCORE>  (46) 
-13.678

>  <name>  (46) 
46

>  <ligand_id>  (46) 
46

>  <original_smiles>  (46) 
[H]c1c([H])c([H])c2c(c1[H])C([H])([H])C([H])([H])C([H])([H])C2([H])N([H])C(=O)C1([H])N(C(=O)C([H])(N([H])C(=O)C([H])(N([H])C([H])([H])[H])C([H])([H])[H])C(C([H])([H])[H])(C([H])([H])[H])C([H])([H])[H])C([H])([H])c2c([H])c(OC([H])([H])C([H])(N([H])C(=O)C3([H])N(C(=O)N4C([H])([H])C([H])([H])C([H])([H])C([H])(n5nc(-c6c([H])c([H])c(Oc7c([H])c([H])c(F)c([H])c7F)c([H])c6[H])c(C(=O)N([H])[H])c5N([H])[H])C4([H])[H])C([H])([H])C([H])([H])C3([H])[H])C([H])(C([H])([H])[H])C([H])([H])[H])c([H])c([H])c2C1([H])[H]

>  <smiles>  (46) 
[H]c1c([H])c([H])c2c(c1[H])C([H])([H])C([H])([H])C([H])([H])C2([H])N([H])C(=O)C1([H])N(C(=O)C([H])(N([H])C(=O)C([H])(N([H])C([H])([H])[H])C([H])([H])[H])C(C([H])([H])[H])(C([H])([H])[H])C([H])([H])[H])C([H])([H])c2c([H])c(OC([H])([H])C([H])(N([H])C(=O)C3([H])N(C(=O)N4C([H])([H])C([H])([H])C([H])([H])C([H])(n5nc(-c6c([H])c([H])c(Oc7c([H])c([H])c(F)c([H])c7F)c([H])c6[H])c(C(=O)N([H])[H])c5N([H])[H])C4([H])[H])C([H])([H])C([H])([H])C3([H])[H])C([H])(C([H])([H])[H])C([H])([H])[H])c([H])c([H])c2C1([H])[H]

$$$$
47:0:0
     RDKit          3D

 89 97  0  0  1  0  0  0  0  0999 V2000
  -29.4900  -20.9790   20.4500 C   0  0  0  0  0  0  0  0  0  0  0  0
  -28.7730  -22.1230   20.0660 N   0  0  0  0  0  0  0  0  0  0  0  0
  -30.4740  -21.1370   21.1730 O   0  0  0  0  0  0  0  0  0  0  0  0
  -27.9680  -21.9570   19.4760 H   0  0  0  0  0  0  0  0  0  0  0  0
  -30.6560  -14.9430   19.9960 C   0  0  0  0  0  0  0  0  0  0  0  0
  -30.4140  -12.6490   18.9980 C   0  0  0  0  0  2  0  0  0  0  0  0
  -29.4130  -12.6750   17.8230 C   0  0  0  0  0  2  0  0  0  0  0  0
  -27.9750  -12.4730   18.3370 C   0  0  0  0  0  2  0  0  0  0  0  0
  -27.6500  -13.3590   19.5690 C   0  0  0  0  0  3  0  0  0  0  0  0
  -28.7710  -13.3280   20.6270 C   0  0  0  0  0  2  0  0  0  0  0  0
  -30.0090  -13.7200   19.9450 N   0  0  0  0  0  0  0  0  0  0  0  0
  -31.8430  -14.9740   19.6530 O   0  0  0  0  0  0  0  0  0  0  0  0
  -30.2650  -18.6870   19.1860 C   0  0  0  0  0  2  0  0  0  0  0  0
  -28.8710  -18.3660   21.1590 C   0  0  0  0  0  2  0  0  0  0  0  0
  -30.0200  -17.1340   18.8760 C   0  0  0  0  0  2  0  0  0  0  0  0
  -29.6920  -16.9750   21.2560 C   0  0  0  0  0  2  0  0  0  0  0  0
  -29.1630  -19.4330   20.0170 C   0  0  0  0  0  3  0  0  0  0  0  0
  -29.9220  -16.1580   20.0190 N   0  0  0  0  0  0  0  0  0  0  0  0
  -25.3180  -13.9070   20.4720 C   0  0  0  0  0  0  0  0  0  0  0  0
  -24.2770  -13.1170   20.8740 C   0  0  0  0  0  0  0  0  0  0  0  0
  -24.7400  -11.7690   20.7690 C   0  0  0  0  0  0  0  0  0  0  0  0
  -26.3450  -13.0420   20.1380 N   0  0  0  0  0  0  0  0  0  0  0  0
  -26.0110  -11.7480   20.3820 N   0  0  0  0  0  0  0  0  0  0  0  0
  -24.0270  -10.4980   20.9570 C   0  0  0  0  0  0  0  0  0  0  0  0
  -24.4730   -9.5290   21.8840 C   0  0  0  0  0  3  0  0  0  0  0  0
  -23.7570   -8.3260   22.0620 C   0  0  0  0  0  3  0  0  0  0  0  0
  -22.5830   -8.0810   21.3110 C   0  0  0  0  0  0  0  0  0  0  0  0
  -22.1570   -9.0370   20.3730 C   0  0  0  0  0  3  0  0  0  0  0  0
  -22.8720  -10.2330   20.1940 C   0  0  0  0  0  3  0  0  0  0  0  0
  -21.8390   -6.9280   21.3970 O   0  0  0  0  0  0  0  0  0  0  0  0
  -21.7340   -6.2260   22.5710 C   0  0  0  0  0  0  0  0  0  0  0  0
  -21.1900   -6.8030   23.7390 C   0  0  0  0  0  3  0  0  0  0  0  0
  -21.0360   -6.0240   24.9030 C   0  0  0  0  0  3  0  0  0  0  0  0
  -21.4170   -4.6690   24.9000 C   0  0  0  0  0  0  0  0  0  0  0  0
  -21.9530   -4.0910   23.7360 C   0  0  0  0  0  3  0  0  0  0  0  0
  -22.1080   -4.8660   22.5740 C   0  0  0  0  0  0  0  0  0  0  0  0
  -22.6060   -4.3000   21.4490 F   0  0  0  0  0  0  0  0  0  0  0  0
  -21.2620   -3.9180   26.0160 F   0  0  0  0  0  0  0  0  0  0  0  0
  -22.8980  -13.5810   21.2430 C   0  0  0  0  0  0  0  0  0  0  0  0
  -22.2260  -12.8590   22.1340 N   0  0  0  0  0  0  0  0  0  0  0  0
  -22.4260  -14.6160   20.7760 O   0  0  0  0  0  0  0  0  0  0  0  0
  -22.6240  -12.0220   22.5330 H   0  0  0  0  0  0  0  0  0  0  0  0
  -21.3040  -13.1510   22.4230 H   0  0  0  0  0  0  0  0  0  0  0  0
  -25.4710  -15.2840   20.3360 N   0  0  0  0  0  0  0  0  0  0  0  0
  -24.7170  -15.9350   20.5260 H   0  0  0  0  0  0  0  0  0  0  0  0
  -26.3110  -15.7380   19.9980 H   0  0  0  0  0  0  0  0  0  0  0  0
  -29.0750  -23.6230   20.3730 C   0  0  0  0  0  3  0  0  0  0  0  0
  -28.0460  -24.8580   19.9890 C   0  0  0  0  0  3  0  0  0  0  0  0
  -28.2930  -26.3440   20.2840 O   0  0  0  0  0  0  0  0  0  0  0  0
  -24.6410  -31.9300   23.2860 C   0  0  0  0  0  0  0  0  0  0  0  0
  -27.2250  -27.2920   20.2120 C   0  0  0  0  0  0  0  0  0  0  0  0
  -23.4420  -30.5520   21.6300 C   0  0  0  0  0  3  0  0  0  0  0  0
  -24.8910  -28.9990   20.1930 C   0  0  0  0  0  0  0  0  0  0  0  0
  -25.9920  -30.8320   21.4690 C   0  0  0  0  0  2  0  0  0  0  0  0
  -26.0660  -29.4500   20.8060 C   0  0  0  0  0  0  0  0  0  0  0  0
  -27.2360  -28.6110   20.8020 C   0  0  0  0  0  3  0  0  0  0  0  0
  -26.0250  -26.9290   19.5590 C   0  0  0  0  0  3  0  0  0  0  0  0
  -24.8790  -27.7500   19.5550 C   0  0  0  0  0  3  0  0  0  0  0  0
  -23.6610  -29.8890   20.2450 C   0  0  0  0  0  2  0  0  0  0  0  0
  -24.7110  -31.1240   22.1850 N   0  0  0  0  0  0  0  0  0  0  0  0
  -23.5560  -32.2110   23.8150 O   0  0  0  0  0  0  0  0  0  0  0  0
  -22.7640  -29.5330   22.5810 C   0  0  0  0  0  0  0  0  0  0  0  0
  -21.4370  -29.3590   22.4420 N   0  0  0  0  0  0  0  0  0  0  0  0
  -23.4330  -28.9010   23.4020 O   0  0  0  0  0  0  0  0  0  0  0  0
  -20.9560  -29.9200   21.7530 H   0  0  0  0  0  0  0  0  0  0  0  0
  -18.0510  -28.1760   22.9330 C   0  0  0  0  0  0  0  0  0  0  0  0
  -20.6120  -28.4170   23.2020 C   0  0  0  0  0  3  0  0  0  0  0  0
  -20.7040  -26.9920   22.6090 C   0  0  0  0  0  2  0  0  0  0  0  0
  -19.5990  -26.6890   21.5910 C   0  0  0  0  0  2  0  0  0  0  0  0
  -18.2190  -26.8350   22.2380 C   0  0  0  0  0  2  0  0  0  0  0  0
  -19.1740  -28.9260   23.3700 C   0  0  0  0  0  0  0  0  0  0  0  0
  -18.9630  -30.1820   23.9800 C   0  0  0  0  0  3  0  0  0  0  0  0
  -17.6610  -30.6870   24.1550 C   0  0  0  0  0  3  0  0  0  0  0  0
  -16.5520  -29.9340   23.7310 C   0  0  0  0  0  3  0  0  0  0  0  0
  -16.7490  -28.6800   23.1260 C   0  0  0  0  0  3  0  0  0  0  0  0
  -25.9210  -32.5560   23.9210 C   0  0  0  0  0  3  0  0  0  0  0  0
  -25.6210  -33.9600   24.2390 N   0  0  0  0  0  0  0  0  0  0  0  0
  -25.9330  -35.0030   23.4590 C   0  0  0  0  0  0  0  0  0  0  0  0
  -26.5720  -34.8840   22.4100 O   0  0  0  0  0  0  0  0  0  0  0  0
  -25.0500  -34.1260   25.0550 H   0  0  0  0  0  0  0  0  0  0  0  0
  -24.1840  -36.7860   23.1530 C   0  0  0  0  0  1  0  0  0  0  0  0
  -25.4620  -36.3990   23.9130 C   0  0  0  0  0  3  0  0  0  0  0  0
  -27.6230  -37.3140   24.6380 C   0  0  0  0  0  1  0  0  0  0  0  0
  -26.4850  -37.4530   23.7330 N   0  0  0  0  0  0  0  0  0  0  0  0
  -26.0810  -38.3750   23.8700 H   0  0  0  0  0  0  0  0  0  0  0  0
  -26.4090  -31.7900   25.2110 C   0  0  1  0  0  0  0  0  0  0  0  0
  -25.2960  -31.5680   26.2620 C   0  0  0  0  0  1  0  0  0  0  0  0
  -26.9900  -30.4050   24.8410 C   0  0  0  0  0  1  0  0  0  0  0  0
  -27.5550  -32.5810   25.8870 C   0  0  0  0  0  1  0  0  0  0  0  0
  1  3  2  0
  2 47  1  0
  2  1  1  0
  4  2  1  0
  5 18  1  0
  6 11  1  0
  7  8  1  0
  7  6  1  0
  9  8  1  0
  9 22  1  0
  9 10  1  0
 11  5  1  0
 11 10  1  0
 12  5  2  0
 13 17  1  0
 14 16  1  0
 15 13  1  0
 15 18  1  0
 17  1  1  0
 17 14  1  0
 18 16  1  0
 19 20  2  0
 20 39  1  0
 21 20  1  0
 21 24  1  0
 22 23  1  0
 22 19  1  0
 23 21  2  0
 24 25  1  0
 25 26  2  0
 27 30  1  0
 27 26  1  0
 28 27  2  0
 29 28  1  0
 29 24  2  0
 30 31  1  0
 31 36  2  0
 31 32  1  0
 32 33  2  0
 34 33  1  0
 34 38  1  0
 35 34  2  0
 36 35  1  0
 37 36  1  0
 39 40  1  0
 40 43  1  0
 40 42  1  0
 41 39  2  0
 44 19  1  0
 44 45  1  0
 46 44  1  0
 48 49  1  0
 48 47  2  0
 50 61  2  0
 51 49  1  0
 51 56  1  0
 52 60  1  0
 52 62  1  0
 53 59  1  0
 53 55  1  0
 54 60  1  0
 55 54  1  0
 56 55  2  0
 57 51  2  0
 58 57  1  0
 58 53  2  0
 59 52  1  0
 60 50  1  0
 62 64  2  0
 63 62  1  0
 65 63  1  0
 66 75  2  0
 66 71  1  0
 67 63  1  0
 67 71  1  0
 68 67  1  0
 69 70  1  0
 69 68  1  0
 70 66  1  0
 71 72  2  0
 72 73  1  0
 74 73  2  0
 75 74  1  0
 76 50  1  0
 76 77  1  0
 76 86  1  0
 77 80  1  0
 78 82  1  0
 78 77  1  0
 79 78  2  0
 82 81  1  0
 84 85  1  0
 84 82  1  0
 84 83  1  0
 86 89  1  1
 86 87  1  0
 88 86  1  0
M  ISO  4   5 100  18 100  48 101  49 101
M  END
>  <TORSDO>  (47) 
F 18

>  <SCORE>  (47) 
-14.132

>  <name>  (47) 
47

>  <ligand_id>  (47) 
47

>  <original_smiles>  (47) 
[H]c1c([H])c([H])c2c(c1[H])C([H])([H])C([H])([H])C([H])([H])C2([H])N([H])C(=O)C1([H])N(C(=O)C([H])(N([H])C(=O)C([H])(N([H])C([H])([H])[H])C([H])([H])[H])C(C([H])([H])[H])(C([H])([H])[H])C([H])([H])[H])C([H])([H])c2c([H])c(OC([H])([H])C([H])([H])N([H])C(=O)C3([H])C([H])([H])C([H])([H])N(C(=O)N4C([H])([H])C([H])([H])C([H])([H])C([H])(n5nc(-c6c([H])c([H])c(Oc7c([H])c([H])c(F)c([H])c7F)c([H])c6[H])c(C(=O)N([H])[H])c5N([H])[H])C4([H])[H])C([H])([H])C3([H])[H])c([H])c([H])c2C1([H])[H]

>  <smiles>  (47) 
[H]c1c([H])c([H])c2c(c1[H])C([H])([H])C([H])([H])C([H])([H])C2([H])N([H])C(=O)C1([H])N(C(=O)C([H])(N([H])C(=O)C([H])(N([H])C([H])([H])[H])C([H])([H])[H])C(C([H])([H])[H])(C([H])([H])[H])C([H])([H])[H])C([H])([H])c2c([H])c(OC([H])([H])C([H])([H])N([H])C(=O)C3([H])C([H])([H])C([H])([H])N(C(=O)N4C([H])([H])C([H])([H])C([H])([H])C([H])(n5nc(-c6c([H])c([H])c(Oc7c([H])c([H])c(F)c([H])c7F)c([H])c6[H])c(C(=O)N([H])[H])c5N([H])[H])C4([H])[H])C([H])([H])C3([H])[H])c([H])c([H])c2C1([H])[H]

$$$$
48:0:0
     RDKit          3D

 93100  0  0  1  0  0  0  0  0999 V2000
  -28.8730  -21.2560   20.6120 N   0  0  0  0  0  4  0  0  0  0  0  0
  -28.0020  -20.9130   20.2370 H   0  0  0  0  0  0  0  0  0  0  0  0
  -28.7350  -21.3400   21.6050 H   0  0  0  0  0  0  0  0  0  0  0  0
  -29.1340  -22.6410   20.0030 C   0  0  0  0  0  3  0  0  0  0  0  0
  -28.3480  -23.9380   20.5440 C   0  0  0  0  0  3  0  0  0  0  0  0
  -28.5380  -25.3030   19.7160 C   0  0  0  0  0  2  0  0  0  0  0  0
  -28.3780  -26.6450   20.3260 O   0  0  0  0  0  0  0  0  0  0  0  0
  -24.5610  -31.9680   23.2880 C   0  0  0  0  0  0  0  0  0  0  0  0
  -27.2230  -27.4350   20.2370 C   0  0  0  0  0  0  0  0  0  0  0  0
  -23.3740  -30.5670   21.6350 C   0  0  0  0  0  3  0  0  0  0  0  0
  -24.8400  -29.0230   20.2180 C   0  0  0  0  0  0  0  0  0  0  0  0
  -25.9100  -30.9050   21.4640 C   0  0  0  0  0  2  0  0  0  0  0  0
  -26.0000  -29.5270   20.8140 C   0  0  0  0  0  0  0  0  0  0  0  0
  -27.1890  -28.7440   20.8140 C   0  0  0  0  0  3  0  0  0  0  0  0
  -26.0350  -26.9690   19.6320 C   0  0  0  0  0  3  0  0  0  0  0  0
  -24.8580  -27.7490   19.6230 C   0  0  0  0  0  3  0  0  0  0  0  0
  -23.5980  -29.8900   20.2570 C   0  0  0  0  0  2  0  0  0  0  0  0
  -24.6330  -31.1650   22.1860 N   0  0  0  0  0  0  0  0  0  0  0  0
  -23.4730  -32.2390   23.8170 O   0  0  0  0  0  0  0  0  0  0  0  0
  -22.7110  -29.5490   22.5910 C   0  0  0  0  0  0  0  0  0  0  0  0
  -21.3910  -29.3520   22.4430 N   0  0  0  0  0  0  0  0  0  0  0  0
  -23.3860  -28.9340   23.4210 O   0  0  0  0  0  0  0  0  0  0  0  0
  -20.9070  -29.8950   21.7400 H   0  0  0  0  0  0  0  0  0  0  0  0
  -18.0240  -28.1090   22.8910 C   0  0  0  0  0  0  0  0  0  0  0  0
  -20.5730  -28.4080   23.2050 C   0  0  0  0  0  3  0  0  0  0  0  0
  -20.7080  -26.9760   22.6390 C   0  0  0  0  0  2  0  0  0  0  0  0
  -19.6280  -26.6310   21.6090 C   0  0  0  0  0  2  0  0  0  0  0  0
  -18.2330  -26.7600   22.2270 C   0  0  0  0  0  2  0  0  0  0  0  0
  -19.1230  -28.8890   23.3380 C   0  0  0  0  0  0  0  0  0  0  0  0
  -18.8750  -30.1520   23.9190 C   0  0  0  0  0  3  0  0  0  0  0  0
  -17.5600  -30.6340   24.0620 C   0  0  0  0  0  3  0  0  0  0  0  0
  -16.4760  -29.8510   23.6320 C   0  0  0  0  0  3  0  0  0  0  0  0
  -16.7080  -28.5900   23.0530 C   0  0  0  0  0  3  0  0  0  0  0  0
  -25.8370  -32.6060   23.9210 C   0  0  0  0  0  3  0  0  0  0  0  0
  -26.3280  -31.8570   25.2220 C   0  0  1  0  0  0  0  0  0  0  0  0
  -25.2120  -31.6490   26.2730 C   0  0  0  0  0  1  0  0  0  0  0  0
  -26.9120  -30.4690   24.8700 C   0  0  0  0  0  1  0  0  0  0  0  0
  -27.4670  -32.6590   25.8930 C   0  0  0  0  0  1  0  0  0  0  0  0
  -25.5300  -34.0120   24.2200 N   0  0  0  0  0  0  0  0  0  0  0  0
  -25.8830  -35.0490   23.4490 C   0  0  0  0  0  0  0  0  0  0  0  0
  -26.5710  -34.9220   22.4330 O   0  0  0  0  0  0  0  0  0  0  0  0
  -24.9220  -34.1860   25.0060 H   0  0  0  0  0  0  0  0  0  0  0  0
  -24.1830  -36.8530   23.0200 C   0  0  0  0  0  1  0  0  0  0  0  0
  -25.3960  -36.4490   23.8720 C   0  0  0  0  0  3  0  0  0  0  0  0
  -27.5110  -37.3300   24.7550 C   0  0  0  0  0  1  0  0  0  0  0  0
  -26.4400  -37.4910   23.7730 N   0  0  0  0  0  0  0  0  0  0  0  0
  -26.0370  -38.4160   23.8940 H   0  0  0  0  0  0  0  0  0  0  0  0
  -29.9210  -20.1610   20.3790 C   0  0  0  0  0  3  0  0  0  0  0  0
  -29.4320  -18.6400   20.6560 C   0  0  0  0  0  0  0  0  0  0  0  0
  -28.3140  -18.4160   21.1250 O   0  0  0  0  0  0  0  0  0  0  0  0
  -30.4200  -17.4120   20.2970 C   0  0  0  0  0  3  0  0  0  0  0  0
  -30.7700  -14.8480   20.4960 C   0  0  0  0  0  0  0  0  0  0  0  0
  -30.5570  -12.6440   19.3810 C   0  0  0  0  0  2  0  0  0  0  0  0
  -29.6410  -12.8100   18.1500 C   0  0  0  0  0  2  0  0  0  0  0  0
  -28.1600  -12.6470   18.5420 C   0  0  0  0  0  2  0  0  0  0  0  0
  -27.7800  -13.4640   19.8060 C   0  0  0  0  0  3  0  0  0  0  0  0
  -28.8190  -13.2900   20.9360 C   0  0  0  0  0  2  0  0  0  0  0  0
  -30.1290  -13.6440   20.3810 N   0  0  0  0  0  0  0  0  0  0  0  0
  -31.9710  -14.9410   20.2270 O   0  0  0  0  0  0  0  0  0  0  0  0
  -29.9960  -15.9850   20.6200 N   0  0  0  0  0  0  0  0  0  0  0  0
  -29.0160  -15.8510   20.8250 H   0  0  0  0  0  0  0  0  0  0  0  0
  -25.3690  -14.0350   20.4650 C   0  0  0  0  0  0  0  0  0  0  0  0
  -24.3050  -13.2520   20.8140 C   0  0  0  0  0  0  0  0  0  0  0  0
  -24.7850  -11.9060   20.8120 C   0  0  0  0  0  0  0  0  0  0  0  0
  -26.4280  -13.1650   20.2650 N   0  0  0  0  0  0  0  0  0  0  0  0
  -26.0830  -11.8810   20.5370 N   0  0  0  0  0  0  0  0  0  0  0  0
  -24.0690  -10.6370   20.9980 C   0  0  0  0  0  0  0  0  0  0  0  0
  -24.4720   -9.7000   21.9750 C   0  0  0  0  0  3  0  0  0  0  0  0
  -23.7580   -8.4950   22.1490 C   0  0  0  0  0  3  0  0  0  0  0  0
  -22.6260   -8.2190   21.3450 C   0  0  0  0  0  0  0  0  0  0  0  0
  -22.2410   -9.1460   20.3600 C   0  0  0  0  0  3  0  0  0  0  0  0
  -22.9570  -10.3420   20.1850 C   0  0  0  0  0  3  0  0  0  0  0  0
  -21.8870   -7.0640   21.4250 O   0  0  0  0  0  0  0  0  0  0  0  0
  -21.7750   -6.3610   22.5980 C   0  0  0  0  0  0  0  0  0  0  0  0
  -21.2360   -6.9390   23.7670 C   0  0  0  0  0  3  0  0  0  0  0  0
  -21.0770   -6.1590   24.9290 C   0  0  0  0  0  3  0  0  0  0  0  0
  -21.4440   -4.8000   24.9210 C   0  0  0  0  0  0  0  0  0  0  0  0
  -21.9740   -4.2210   23.7560 C   0  0  0  0  0  3  0  0  0  0  0  0
  -22.1360   -4.9980   22.5960 C   0  0  0  0  0  0  0  0  0  0  0  0
  -22.6280   -4.4280   21.4690 F   0  0  0  0  0  0  0  0  0  0  0  0
  -21.2820   -4.0480   26.0360 F   0  0  0  0  0  0  0  0  0  0  0  0
  -22.8950  -13.7140   21.0410 C   0  0  0  0  0  0  0  0  0  0  0  0
  -22.1530  -13.0230   21.8970 N   0  0  0  0  0  0  0  0  0  0  0  0
  -22.4580  -14.7250   20.4920 O   0  0  0  0  0  0  0  0  0  0  0  0
  -22.5200  -12.2060   22.3660 H   0  0  0  0  0  0  0  0  0  0  0  0
  -21.2050  -13.3140   22.0870 H   0  0  0  0  0  0  0  0  0  0  0  0
  -25.5240  -15.4060   20.2750 N   0  0  0  0  0  0  0  0  0  0  0  0
  -24.7450  -16.0490   20.3590 H   0  0  0  0  0  0  0  0  0  0  0  0
  -26.3710  -15.8510   19.9490 H   0  0  0  0  0  0  0  0  0  0  0  0
  -29.7200  -17.3610   17.7890 C   0  0  0  0  0  1  0  0  0  0  0  0
  -30.8660  -17.4850   18.8090 C   0  0  0  0  0  2  0  0  0  0  0  0
  -31.0420  -20.4680   22.7200 C   0  0  0  0  0  1  0  0  0  0  0  0
  -31.2110  -20.4600   21.1880 C   0  0  0  0  0  2  0  0  0  0  0  0
  1  3  1  0
  2  1  1  0
  4  5  2  0
  4  1  1  0
  6  7  1  0
  6  5  1  0
  8 19  2  0
  9  7  1  0
  9 14  1  0
 10 18  1  0
 10 20  1  0
 11 17  1  0
 11 13  1  0
 12 18  1  0
 13 12  1  0
 14 13  2  0
 15  9  2  0
 16 15  1  0
 16 11  2  0
 17 10  1  0
 18  8  1  0
 20 22  2  0
 21 20  1  0
 23 21  1  0
 24 33  2  0
 24 29  1  0
 25 21  1  0
 25 29  1  0
 26 25  1  0
 27 28  1  0
 27 26  1  0
 28 24  1  0
 29 30  2  0
 30 31  1  0
 32 31  2  0
 33 32  1  0
 34  8  1  0
 34 39  1  0
 34 35  1  0
 35 38  1  1
 35 36  1  0
 37 35  1  0
 39 42  1  0
 40 44  1  0
 40 39  1  0
 41 40  2  0
 44 43  1  0
 46 44  1  0
 46 47  1  0
 46 45  1  0
 48  1  1  0
 48 49  1  0
 48 93  1  0
 49 50  2  0
 51 91  1  0
 51 60  1  0
 51 49  1  0
 52 60  1  0
 53 58  1  0
 54 55  1  0
 54 53  1  0
 56 55  1  0
 56 65  1  0
 56 57  1  0
 58 52  1  0
 58 57  1  0
 59 52  2  0
 60 61  1  0
 62 63  2  0
 63 82  1  0
 64 63  1  0
 64 67  1  0
 65 62  1  0
 65 66  1  0
 66 64  2  0
 67 68  1  0
 68 69  2  0
 70 73  1  0
 70 69  1  0
 71 70  2  0
 72 71  1  0
 72 67  2  0
 73 74  1  0
 74 75  1  0
 75 76  2  0
 77 76  1  0
 77 81  1  0
 78 77  2  0
 79 74  2  0
 79 78  1  0
 80 79  1  0
 82 83  1  0
 83 86  1  0
 83 85  1  0
 84 82  2  0
 87 88  1  0
 87 62  1  0
 89 87  1  0
 90 91  1  0
 93 92  1  0
M  ISO  4   6 101   7 101  52 100  60 100
M  END
>  <TORSDO>  (48) 
F 24

>  <SCORE>  (48) 
-12.013

>  <name>  (48) 
48

>  <ligand_id>  (48) 
48

>  <original_smiles>  (48) 
[H]c1c([H])c([H])c2c(c1[H])C([H])([H])C([H])([H])C([H])([H])C2([H])N([H])C(=O)C1([H])N(C(=O)C([H])(N([H])C(=O)C([H])(N([H])C([H])([H])[H])C([H])([H])[H])C(C([H])([H])[H])(C([H])([H])[H])C([H])([H])[H])C([H])([H])c2c([H])c(OC([H])([H])C([H])([H])C([H])([H])[N+]([H])([H])C([H])(C(=O)C([H])(N([H])C(=O)N3C([H])([H])C([H])([H])C([H])([H])C([H])(n4nc(-c5c([H])c([H])c(Oc6c([H])c([H])c(F)c([H])c6F)c([H])c5[H])c(C(=O)N([H])[H])c4N([H])[H])C3([H])[H])C([H])([H])C([H])([H])[H])C([H])([H])C([H])([H])[H])c([H])c([H])c2C1([H])[H]

>  <smiles>  (48) 
[H]c1c([H])c([H])c2c(c1[H])C([H])([H])C([H])([H])C([H])([H])C2([H])N([H])C(=O)C1([H])N(C(=O)C([H])(N([H])C(=O)C([H])(N([H])C([H])([H])[H])C([H])([H])[H])C(C([H])([H])[H])(C([H])([H])[H])C([H])([H])[H])C([H])([H])c2c([H])c(OC([H])([H])C([H])([H])C([H])([H])[N+]([H])([H])C([H])(C(=O)C([H])(N([H])C(=O)N3C([H])([H])C([H])([H])C([H])([H])C([H])(n4nc(-c5c([H])c([H])c(Oc6c([H])c([H])c(F)c([H])c6F)c([H])c5[H])c(C(=O)N([H])[H])c4N([H])[H])C3([H])[H])C([H])([H])C([H])([H])[H])C([H])([H])C([H])([H])[H])c([H])c([H])c2C1([H])[H]

$$$$
49:0:0
     RDKit          3D

103110  0  0  1  0  0  0  0  0999 V2000
  -31.5810  -24.6770   17.9100 N   0  0  0  0  0  4  0  0  0  0  0  0
  -32.4690  -24.7600   18.3880 H   0  0  0  0  0  0  0  0  0  0  0  0
  -30.9410  -24.1630   18.4940 H   0  0  0  0  0  0  0  0  0  0  0  0
  -31.1650  -26.0820   17.7670 C   0  0  0  0  0  3  0  0  0  0  0  0
  -32.4380  -26.9290   17.6540 C   0  0  0  0  0  0  0  0  0  0  0  0
  -32.3750  -28.0630   16.9720 N   0  0  0  0  0  0  0  0  0  0  0  0
  -33.4820  -26.5490   18.1870 O   0  0  0  0  0  0  0  0  0  0  0  0
  -31.5080  -28.3520   16.5360 H   0  0  0  0  0  0  0  0  0  0  0  0
  -33.1900  -28.6470   16.8750 H   0  0  0  0  0  0  0  0  0  0  0  0
  -30.3570  -26.5480   18.9910 C   0  0  0  0  0  2  0  0  0  0  0  0
  -28.8660  -26.1980   18.9410 C   0  0  0  0  0  2  0  0  0  0  0  0
  -28.3600  -26.7000   20.1630 O   0  0  0  0  0  0  0  0  0  0  0  0
  -24.5910  -31.8430   23.1870 C   0  0  0  0  0  0  0  0  0  0  0  0
  -27.1920  -27.4080   20.1110 C   0  0  0  0  0  0  0  0  0  0  0  0
  -23.3640  -30.4390   21.5560 C   0  0  0  0  0  3  0  0  0  0  0  0
  -24.8000  -28.8950   20.1210 C   0  0  0  0  0  0  0  0  0  0  0  0
  -25.8830  -30.7960   21.3360 C   0  0  0  0  0  2  0  0  0  0  0  0
  -25.9560  -29.4220   20.7090 C   0  0  0  0  0  0  0  0  0  0  0  0
  -27.1500  -28.6780   20.7170 C   0  0  0  0  0  3  0  0  0  0  0  0
  -26.0270  -26.8810   19.5160 C   0  0  0  0  0  3  0  0  0  0  0  0
  -24.8280  -27.6190   19.5250 C   0  0  0  0  0  3  0  0  0  0  0  0
  -23.5580  -29.7540   20.1750 C   0  0  0  0  0  2  0  0  0  0  0  0
  -24.6320  -31.0420   22.0840 N   0  0  0  0  0  0  0  0  0  0  0  0
  -23.5180  -32.1210   23.7370 O   0  0  0  0  0  0  0  0  0  0  0  0
  -22.7200  -29.4230   22.5260 C   0  0  0  0  0  0  0  0  0  0  0  0
  -21.3930  -29.2550   22.4180 N   0  0  0  0  0  0  0  0  0  0  0  0
  -23.4110  -28.7890   23.3290 O   0  0  0  0  0  0  0  0  0  0  0  0
  -20.8980  -29.8190   21.7400 H   0  0  0  0  0  0  0  0  0  0  0  0
  -18.0150  -28.1000   22.9560 C   0  0  0  0  0  0  0  0  0  0  0  0
  -20.5770  -28.3280   23.2000 C   0  0  0  0  0  3  0  0  0  0  0  0
  -20.6580  -26.8950   22.6220 C   0  0  0  0  0  2  0  0  0  0  0  0
  -19.5400  -26.5860   21.6210 C   0  0  0  0  0  2  0  0  0  0  0  0
  -18.1670  -26.7480   22.2810 C   0  0  0  0  0  2  0  0  0  0  0  0
  -19.1460  -28.8490   23.3740 C   0  0  0  0  0  0  0  0  0  0  0  0
  -18.9510  -30.1160   23.9640 C   0  0  0  0  0  3  0  0  0  0  0  0
  -17.6540  -30.6340   24.1430 C   0  0  0  0  0  3  0  0  0  0  0  0
  -16.5360  -29.8830   23.7430 C   0  0  0  0  0  3  0  0  0  0  0  0
  -16.7170  -28.6180   23.1550 C   0  0  0  0  0  3  0  0  0  0  0  0
  -25.8880  -32.4660   23.7950 C   0  0  0  0  0  3  0  0  0  0  0  0
  -25.5820  -33.8590   24.1500 N   0  0  0  0  0  0  0  0  0  0  0  0
  -25.9020  -34.9220   23.4000 C   0  0  0  0  0  0  0  0  0  0  0  0
  -26.5580  -34.8350   22.3590 O   0  0  0  0  0  0  0  0  0  0  0  0
  -24.9990  -34.0000   24.9620 H   0  0  0  0  0  0  0  0  0  0  0  0
  -24.1590  -36.7090   23.0990 C   0  0  0  0  0  1  0  0  0  0  0  0
  -25.4160  -36.3010   23.8830 C   0  0  0  0  0  3  0  0  0  0  0  0
  -27.5650  -37.1820   24.6810 C   0  0  0  0  0  1  0  0  0  0  0  0
  -26.4420  -37.3610   23.7650 N   0  0  0  0  0  0  0  0  0  0  0  0
  -26.0350  -38.2760   23.9370 H   0  0  0  0  0  0  0  0  0  0  0  0
  -26.4360  -31.6760   25.0450 C   0  0  1  0  0  0  0  0  0  0  0  0
  -25.3680  -31.4180   26.1330 C   0  0  0  0  0  1  0  0  0  0  0  0
  -27.0110  -30.3070   24.6120 C   0  0  0  0  0  1  0  0  0  0  0  0
  -27.6000  -32.4620   25.6940 C   0  0  0  0  0  1  0  0  0  0  0  0
  -31.8000  -23.9450   16.6420 C   0  0  0  0  0  2  0  0  0  0  0  0
  -32.9210  -22.9070   16.8090 C   0  0  0  0  0  2  0  0  0  0  0  0
  -33.0450  -21.9280   15.6310 C   0  0  0  0  0  2  0  0  0  0  0  0
  -34.3030  -21.0410   15.7590 C   0  0  0  0  0  2  0  0  0  0  0  0
  -34.1450  -19.7590   15.0460 N   0  0  0  0  0  4  0  0  0  0  0  0
  -33.6250  -19.9170   14.1980 H   0  0  0  0  0  0  0  0  0  0  0  0
  -35.0610  -19.4260   14.7900 H   0  0  0  0  0  0  0  0  0  0  0  0
  -33.4870  -18.6960   15.8390 C   0  0  0  0  0  2  0  0  0  0  0  0
  -32.6990  -17.7290   14.9420 C   0  0  0  0  0  2  0  0  0  0  0  0
  -32.1200  -16.4920   15.6550 C   0  0  0  0  0  2  0  0  0  0  0  0
  -31.2090  -16.7870   16.8740 C   0  0  0  0  0  2  0  0  0  0  0  0
  -31.9530  -16.6380   18.2110 C   0  0  0  0  0  2  0  0  0  0  0  0
  -31.0990  -16.8760   19.4880 C   0  0  0  0  0  2  0  0  0  0  0  0
  -31.2010  -14.6080   20.5130 C   0  0  0  0  0  0  0  0  0  0  0  0
  -30.8730  -12.3730   19.6280 C   0  0  0  0  0  2  0  0  0  0  0  0
  -30.0490  -12.5700   18.3390 C   0  0  0  0  0  2  0  0  0  0  0  0
  -28.5320  -12.5690   18.6520 C   0  0  0  0  0  2  0  0  0  0  0  0
  -28.1370  -13.4750   19.8550 C   0  0  0  0  0  3  0  0  0  0  0  0
  -29.1180  -13.3050   21.0380 C   0  0  0  0  0  2  0  0  0  0  0  0
  -30.4900  -13.4590   20.5300 N   0  0  0  0  0  0  0  0  0  0  0  0
  -32.4300  -14.6580   20.5230 O   0  0  0  0  0  0  0  0  0  0  0  0
  -30.5010  -15.6500   20.0360 N   0  0  0  0  0  0  0  0  0  0  0  0
  -29.5120  -15.5130   19.8980 H   0  0  0  0  0  0  0  0  0  0  0  0
  -25.7330  -14.1830   20.4460 C   0  0  0  0  0  0  0  0  0  0  0  0
  -24.6180  -13.4540   20.7600 C   0  0  0  0  0  0  0  0  0  0  0  0
  -25.0310  -12.0850   20.7620 C   0  0  0  0  0  0  0  0  0  0  0  0
  -26.7540  -13.2590   20.2720 N   0  0  0  0  0  0  0  0  0  0  0  0
  -26.3300  -11.9950   20.5190 N   0  0  0  0  0  0  0  0  0  0  0  0
  -24.2480  -10.8500   20.9080 C   0  0  0  0  0  0  0  0  0  0  0  0
  -24.6150   -9.8490   21.8340 C   0  0  0  0  0  3  0  0  0  0  0  0
  -23.8350   -8.6800   21.9650 C   0  0  0  0  0  3  0  0  0  0  0  0
  -22.6740   -8.5040   21.1720 C   0  0  0  0  0  0  0  0  0  0  0  0
  -22.3310   -9.4940   20.2360 C   0  0  0  0  0  3  0  0  0  0  0  0
  -23.1120  -10.6540   20.1020 C   0  0  0  0  0  3  0  0  0  0  0  0
  -21.8710   -7.3900   21.2180 O   0  0  0  0  0  0  0  0  0  0  0  0
  -21.7770   -6.6140   22.3470 C   0  0  0  0  0  0  0  0  0  0  0  0
  -21.3970   -7.1600   23.5920 C   0  0  0  0  0  3  0  0  0  0  0  0
  -21.2450   -6.3180   24.7110 C   0  0  0  0  0  3  0  0  0  0  0  0
  -21.4590   -4.9350   24.5850 C   0  0  0  0  0  0  0  0  0  0  0  0
  -21.8350   -4.3860   23.3480 C   0  0  0  0  0  3  0  0  0  0  0  0
  -21.9900   -5.2270   22.2270 C   0  0  0  0  0  0  0  0  0  0  0  0
  -22.3330   -4.6940   21.0280 F   0  0  0  0  0  0  0  0  0  0  0  0
  -21.3050   -4.1240   25.6610 F   0  0  0  0  0  0  0  0  0  0  0  0
  -23.2260  -13.9840   20.9540 C   0  0  0  0  0  0  0  0  0  0  0  0
  -22.4250  -13.3230   21.7840 N   0  0  0  0  0  0  0  0  0  0  0  0
  -22.8550  -15.0200   20.3990 O   0  0  0  0  0  0  0  0  0  0  0  0
  -22.7370  -12.4870   22.2570 H   0  0  0  0  0  0  0  0  0  0  0  0
  -21.4860  -13.6540   21.9510 H   0  0  0  0  0  0  0  0  0  0  0  0
  -25.9600  -15.5480   20.2760 N   0  0  0  0  0  0  0  0  0  0  0  0
  -25.2180  -16.2360   20.3590 H   0  0  0  0  0  0  0  0  0  0  0  0
  -26.8470  -15.9520   20.0120 H   0  0  0  0  0  0  0  0  0  0  0  0
  1  2  1  0
  1  3  1  0
  4  1  1  0
  4 10  1  0
  5  4  1  0
  5  7  2  0
  6  5  1  0
  8  6  1  0
  9  6  1  0
 11 10  1  0
 11 12  1  0
 13 24  2  0
 14 12  1  0
 14 19  1  0
 15 23  1  0
 15 25  1  0
 16 22  1  0
 16 18  1  0
 17 23  1  0
 18 19  2  0
 18 17  1  0
 20 21  1  0
 20 14  2  0
 21 16  2  0
 22 15  1  0
 23 13  1  0
 25 27  2  0
 26 25  1  0
 28 26  1  0
 29 38  2  0
 29 34  1  0
 30 26  1  0
 30 34  1  0
 31 30  1  0
 32 33  1  0
 32 31  1  0
 33 29  1  0
 34 35  2  0
 35 36  1  0
 37 36  2  0
 38 37  1  0
 39 13  1  0
 39 40  1  0
 39 49  1  0
 40 43  1  0
 41 45  1  0
 41 40  1  0
 42 41  2  0
 45 44  1  0
 47 45  1  0
 47 48  1  0
 47 46  1  0
 49 52  1  1
 49 50  1  0
 51 49  1  0
 53 54  1  0
 53  1  1  0
 55 56  1  0
 55 54  1  0
 57 56  1  0
 57 60  1  0
 58 57  1  0
 59 57  1  0
 61 62  1  0
 61 60  1  0
 62 63  1  0
 63 64  1  0
 64 65  1  0
 65 74  1  0
 66 73  2  0
 66 72  1  0
 67 72  1  0
 68 69  1  0
 68 67  1  0
 70 69  1  0
 70 79  1  0
 70 71  1  0
 72 71  1  0
 74 66  1  0
 75 74  1  0
 76 77  2  0
 77 78  1  0
 77 96  1  0
 78 81  1  0
 79 76  1  0
 79 80  1  0
 80 78  2  0
 81 82  1  0
 82 83  2  0
 84 87  1  0
 84 83  1  0
 85 84  2  0
 86 85  1  0
 86 81  2  0
 87 88  1  0
 88 89  1  0
 89 90  2  0
 91 90  1  0
 91 95  1  0
 92 91  2  0
 93 88  2  0
 93 92  1  0
 94 93  1  0
 96 97  1  0
 97100  1  0
 97 99  1  0
 98 96  2  0
101102  1  0
101 76  1  0
103101  1  0
M  ISO  4  11 101  12 101  66 100  74 100
M  END
>  <TORSDO>  (49) 
F 31

>  <SCORE>  (49) 
-9.795

>  <name>  (49) 
49

>  <ligand_id>  (49) 
49

>  <original_smiles>  (49) 
[H]c1c([H])c([H])c2c(c1[H])C([H])([H])C([H])([H])C([H])([H])C2([H])N([H])C(=O)C1([H])N(C(=O)C([H])(N([H])C(=O)C([H])(N([H])C([H])([H])[H])C([H])([H])[H])C(C([H])([H])[H])(C([H])([H])[H])C([H])([H])[H])C([H])([H])c2c([H])c(OC([H])([H])C([H])([H])C([H])(C(=O)N([H])[H])[N+]([H])([H])C([H])([H])C([H])([H])C([H])([H])C([H])([H])[N+]([H])([H])C([H])([H])C([H])([H])C([H])([H])C([H])([H])C([H])([H])C([H])([H])N([H])C(=O)N3C([H])([H])C([H])([H])C([H])([H])C([H])(n4nc(-c5c([H])c([H])c(Oc6c([H])c([H])c(F)c([H])c6F)c([H])c5[H])c(C(=O)N([H])[H])c4N([H])[H])C3([H])[H])c([H])c([H])c2C1([H])[H]

>  <smiles>  (49) 
[H]c1c([H])c([H])c2c(c1[H])C([H])([H])C([H])([H])C([H])([H])C2([H])N([H])C(=O)C1([H])N(C(=O)C([H])(N([H])C(=O)C([H])(N([H])C([H])([H])[H])C([H])([H])[H])C(C([H])([H])[H])(C([H])([H])[H])C([H])([H])[H])C([H])([H])c2c([H])c(OC([H])([H])C([H])([H])C([H])(C(=O)N([H])[H])[N+]([H])([H])C([H])([H])C([H])([H])C([H])([H])C([H])([H])[N+]([H])([H])C([H])([H])C([H])([H])C([H])([H])C([H])([H])C([H])([H])C([H])([H])N([H])C(=O)N3C([H])([H])C([H])([H])C([H])([H])C([H])(n4nc(-c5c([H])c([H])c(Oc6c([H])c([H])c(F)c([H])c6F)c([H])c5[H])c(C(=O)N([H])[H])c4N([H])[H])C3([H])[H])c([H])c([H])c2C1([H])[H]

$$$$
50:0:0
     RDKit          3D

 97105  0  0  1  0  0  0  0  0999 V2000
  -30.6020  -20.8120   21.2250 C   0  0  0  0  0  3  0  0  0  0  0  0
  -30.6740  -18.2580   20.8900 C   0  0  0  0  0  0  0  0  0  0  0  0
  -30.8530  -19.5450   20.5020 N   0  0  0  0  0  0  0  0  0  0  0  0
  -30.3090  -17.9500   22.0270 O   0  0  0  0  0  0  0  0  0  0  0  0
  -31.1750  -19.6530   19.5500 H   0  0  0  0  0  0  0  0  0  0  0  0
  -30.6930  -14.6620   20.2790 C   0  0  0  0  0  0  0  0  0  0  0  0
  -30.3350  -12.4170   19.3240 C   0  0  0  0  0  2  0  0  0  0  0  0
  -29.3800  -12.4530   18.1180 C   0  0  0  0  0  2  0  0  0  0  0  0
  -27.9210  -12.2710   18.5840 C   0  0  0  0  0  2  0  0  0  0  0  0
  -27.5420  -13.1910   19.7720 C   0  0  0  0  0  3  0  0  0  0  0  0
  -28.6430  -13.2410   20.8640 C   0  0  0  0  0  2  0  0  0  0  0  0
  -29.9330  -13.5220   20.2110 N   0  0  0  0  0  0  0  0  0  0  0  0
  -31.9190  -14.5930   20.2270 O   0  0  0  0  0  0  0  0  0  0  0  0
  -28.9280  -17.4350   18.5480 C   0  0  0  0  0  2  0  0  0  0  0  0
  -30.4220  -17.6530   18.4300 C   0  0  0  0  0  2  0  0  0  0  0  0
  -28.8930  -16.0680   19.2270 C   0  0  0  0  0  2  0  0  0  0  0  0
  -30.9140  -17.1590   19.8050 C   0  0  0  0  0  3  0  0  0  0  0  0
  -30.1330  -15.8930   19.9980 N   0  0  0  0  0  0  0  0  0  0  0  0
  -25.1890  -13.8230   20.5600 C   0  0  0  0  0  0  0  0  0  0  0  0
  -24.1230  -13.0570   20.9390 C   0  0  0  0  0  0  0  0  0  0  0  0
  -24.5830  -11.7050   20.9040 C   0  0  0  0  0  0  0  0  0  0  0  0
  -26.2210  -12.9290   20.3110 N   0  0  0  0  0  0  0  0  0  0  0  0
  -25.8670  -11.6540   20.5850 N   0  0  0  0  0  0  0  0  0  0  0  0
  -23.8620  -10.4450   21.0950 C   0  0  0  0  0  0  0  0  0  0  0  0
  -24.3230   -9.4660   22.0010 C   0  0  0  0  0  3  0  0  0  0  0  0
  -23.6030   -8.2650   22.1790 C   0  0  0  0  0  3  0  0  0  0  0  0
  -22.4100   -8.0400   21.4520 C   0  0  0  0  0  0  0  0  0  0  0  0
  -21.9700   -9.0090   20.5340 C   0  0  0  0  0  3  0  0  0  0  0  0
  -22.6910  -10.2010   20.3530 C   0  0  0  0  0  3  0  0  0  0  0  0
  -21.6570   -6.8960   21.5480 O   0  0  0  0  0  0  0  0  0  0  0  0
  -21.6610   -6.1260   22.6830 C   0  0  0  0  0  0  0  0  0  0  0  0
  -21.3100   -6.6560   23.9450 C   0  0  0  0  0  3  0  0  0  0  0  0
  -21.2600   -5.8140   25.0720 C   0  0  0  0  0  3  0  0  0  0  0  0
  -21.5480   -4.4420   24.9400 C   0  0  0  0  0  0  0  0  0  0  0  0
  -21.8910   -3.9120   23.6860 C   0  0  0  0  0  3  0  0  0  0  0  0
  -21.9450   -4.7510   22.5590 C   0  0  0  0  0  0  0  0  0  0  0  0
  -22.2570   -4.2320   21.3470 F   0  0  0  0  0  0  0  0  0  0  0  0
  -21.4900   -3.6300   26.0220 F   0  0  0  0  0  0  0  0  0  0  0  0
  -22.7270  -13.5370   21.2160 C   0  0  0  0  0  0  0  0  0  0  0  0
  -22.0010  -12.8450   22.0880 N   0  0  0  0  0  0  0  0  0  0  0  0
  -22.2880  -14.5620   20.6950 O   0  0  0  0  0  0  0  0  0  0  0  0
  -22.3690  -12.0190   22.5380 H   0  0  0  0  0  0  0  0  0  0  0  0
  -21.0650  -13.1500   22.3120 H   0  0  0  0  0  0  0  0  0  0  0  0
  -25.3520  -15.1950   20.3800 N   0  0  0  0  0  0  0  0  0  0  0  0
  -24.5890  -15.8500   20.5170 H   0  0  0  0  0  0  0  0  0  0  0  0
  -26.2030  -15.6360   20.0580 H   0  0  0  0  0  0  0  0  0  0  0  0
  -32.8060  -21.7740   20.2790 C   0  0  0  0  0  1  0  0  0  0  0  0
  -31.9620  -21.5060   21.5450 C   0  0  0  0  0  3  0  0  0  0  0  0
  -32.2480  -20.7600   24.0060 C   0  0  0  0  0  1  0  0  0  0  0  0
  -32.8080  -20.7250   22.5780 C   0  0  0  0  0  2  0  0  0  0  0  0
  -29.6360  -21.7370   20.4030 C   0  0  0  0  0  2  0  0  0  0  0  0
  -29.1190  -22.9380   21.1330 N   0  0  0  0  0  4  0  0  0  0  0  0
  -28.1150  -22.8400   21.1280 H   0  0  0  0  0  0  0  0  0  0  0  0
  -29.3880  -22.8750   22.1020 H   0  0  0  0  0  0  0  0  0  0  0  0
  -29.4380  -24.3140   20.6140 C   0  0  0  0  0  2  0  0  0  0  0  0
  -28.1640  -25.1870   20.3870 C   0  0  0  0  0  2  0  0  0  0  0  0
  -28.3670  -26.6210   20.2440 O   0  0  0  0  0  0  0  0  0  0  0  0
  -24.5890  -31.9040   23.2450 C   0  0  0  0  0  0  0  0  0  0  0  0
  -27.2160  -27.4030   20.1990 C   0  0  0  0  0  0  0  0  0  0  0  0
  -23.3790  -30.5010   21.6080 C   0  0  0  0  0  3  0  0  0  0  0  0
  -24.8300  -28.9510   20.1920 C   0  0  0  0  0  0  0  0  0  0  0  0
  -25.9110  -30.8420   21.4120 C   0  0  0  0  0  2  0  0  0  0  0  0
  -25.9940  -29.4650   20.7760 C   0  0  0  0  0  0  0  0  0  0  0  0
  -27.1910  -28.7010   20.7710 C   0  0  0  0  0  3  0  0  0  0  0  0
  -26.0280  -26.9230   19.5960 C   0  0  0  0  0  3  0  0  0  0  0  0
  -24.8450  -27.6820   19.5960 C   0  0  0  0  0  3  0  0  0  0  0  0
  -23.5880  -29.8140   20.2340 C   0  0  0  0  0  2  0  0  0  0  0  0
  -24.6450  -31.0990   22.1460 N   0  0  0  0  0  0  0  0  0  0  0  0
  -23.5090  -32.1820   23.7830 O   0  0  0  0  0  0  0  0  0  0  0  0
  -22.7190  -29.4880   22.5740 C   0  0  0  0  0  0  0  0  0  0  0  0
  -21.3930  -29.3130   22.4480 N   0  0  0  0  0  0  0  0  0  0  0  0
  -23.3990  -28.8620   23.3900 O   0  0  0  0  0  0  0  0  0  0  0  0
  -20.9040  -29.8720   21.7630 H   0  0  0  0  0  0  0  0  0  0  0  0
  -18.0140  -28.1310   22.9440 C   0  0  0  0  0  0  0  0  0  0  0  0
  -20.5730  -28.3820   23.2220 C   0  0  0  0  0  3  0  0  0  0  0  0
  -20.6720  -26.9470   22.6550 C   0  0  0  0  0  2  0  0  0  0  0  0
  -19.5720  -26.6210   21.6390 C   0  0  0  0  0  2  0  0  0  0  0  0
  -18.1890  -26.7760   22.2780 C   0  0  0  0  0  2  0  0  0  0  0  0
  -19.1340  -28.8900   23.3740 C   0  0  0  0  0  0  0  0  0  0  0  0
  -18.9180  -30.1590   23.9550 C   0  0  0  0  0  3  0  0  0  0  0  0
  -17.6150  -30.6660   24.1140 C   0  0  0  0  0  3  0  0  0  0  0  0
  -16.5100  -29.9020   23.7020 C   0  0  0  0  0  3  0  0  0  0  0  0
  -16.7090  -28.6370   23.1220 C   0  0  0  0  0  3  0  0  0  0  0  0
  -25.8770  -32.5330   23.8620 C   0  0  0  0  0  3  0  0  0  0  0  0
  -25.5700  -33.9310   24.1950 N   0  0  0  0  0  0  0  0  0  0  0  0
  -25.9040  -34.9840   23.4360 C   0  0  0  0  0  0  0  0  0  0  0  0
  -26.5700  -34.8810   22.4030 O   0  0  0  0  0  0  0  0  0  0  0  0
  -24.9750  -34.0840   24.9950 H   0  0  0  0  0  0  0  0  0  0  0  0
  -24.1740  -36.7770   23.0940 C   0  0  0  0  0  1  0  0  0  0  0  0
  -25.4200  -36.3720   23.8970 C   0  0  0  0  0  3  0  0  0  0  0  0
  -27.5620  -37.2540   24.7110 C   0  0  0  0  0  1  0  0  0  0  0  0
  -26.4520  -37.4250   23.7770 N   0  0  0  0  0  0  0  0  0  0  0  0
  -26.0470  -38.3440   23.9320 H   0  0  0  0  0  0  0  0  0  0  0  0
  -26.3970  -31.7590   25.1340 C   0  0  1  0  0  0  0  0  0  0  0  0
  -25.3090  -31.5250   26.2080 C   0  0  0  0  0  1  0  0  0  0  0  0
  -26.9740  -30.3800   24.7380 C   0  0  0  0  0  1  0  0  0  0  0  0
  -27.5530  -32.5500   25.7920 C   0  0  0  0  0  1  0  0  0  0  0  0
  1 51  1  0
  1 48  1  0
  2  4  2  0
  3  2  1  0
  3  1  1  0
  5  3  1  0
  7 12  1  0
  8  9  1  0
  8  7  1  0
 10  9  1  0
 10 22  1  0
 10 11  1  0
 12  6  1  0
 12 11  1  0
 13  6  2  0
 14 16  1  0
 15 14  1  0
 15 17  1  0
 16 18  1  0
 17 18  1  0
 17  2  1  0
 18  6  1  0
 19 20  2  0
 20 39  1  0
 21 20  1  0
 21 24  1  0
 22 19  1  0
 22 23  1  0
 23 21  2  0
 24 25  1  0
 25 26  2  0
 27 30  1  0
 27 26  1  0
 28 27  2  0
 29 28  1  0
 29 24  2  0
 30 31  1  0
 31 32  1  0
 32 33  2  0
 34 33  1  0
 34 38  1  0
 35 34  2  0
 36 31  2  0
 36 35  1  0
 37 36  1  0
 39 40  1  0
 40 43  1  0
 40 42  1  0
 41 39  2  0
 44 45  1  0
 44 19  1  0
 46 44  1  0
 48 47  1  0
 48 50  1  0
 50 49  1  0
 51 52  1  0
 52 54  1  0
 53 52  1  0
 55 52  1  0
 56 55  1  0
 57 56  1  0
 58 69  2  0
 59 57  1  0
 59 64  1  0
 60 68  1  0
 60 70  1  0
 61 67  1  0
 61 63  1  0
 62 68  1  0
 63 62  1  0
 64 63  2  0
 65 59  2  0
 66 65  1  0
 66 61  2  0
 67 60  1  0
 68 58  1  0
 70 72  2  0
 71 70  1  0
 73 71  1  0
 74 83  2  0
 74 79  1  0
 75 71  1  0
 75 79  1  0
 76 75  1  0
 77 78  1  0
 77 76  1  0
 78 74  1  0
 79 80  2  0
 80 81  1  0
 82 81  2  0
 83 82  1  0
 84 58  1  0
 84 85  1  0
 84 94  1  0
 85 88  1  0
 86 90  1  0
 86 85  1  0
 87 86  2  0
 90 89  1  0
 92 90  1  0
 92 93  1  0
 92 91  1  0
 94 97  1  1
 94 95  1  0
 96 94  1  0
M  ISO  4   6 100  18 100  56 101  57 101
M  END
>  <TORSDO>  (50) 
F 23

>  <SCORE>  (50) 
-13.042

>  <name>  (50) 
50

>  <ligand_id>  (50) 
50

>  <original_smiles>  (50) 
[H]c1c([H])c([H])c2c(c1[H])C([H])([H])C([H])([H])C([H])([H])C2([H])N([H])C(=O)C1([H])N(C(=O)C([H])(N([H])C(=O)C([H])(N([H])C([H])([H])[H])C([H])([H])[H])C(C([H])([H])[H])(C([H])([H])[H])C([H])([H])[H])C([H])([H])c2c([H])c(OC([H])([H])C([H])([H])[N+]([H])([H])C([H])([H])C([H])(N([H])C(=O)C3([H])N(C(=O)N4C([H])([H])C([H])([H])C([H])([H])C([H])(n5nc(-c6c([H])c([H])c(Oc7c([H])c([H])c(F)c([H])c7F)c([H])c6[H])c(C(=O)N([H])[H])c5N([H])[H])C4([H])[H])C([H])([H])C([H])([H])C3([H])[H])C([H])(C([H])([H])[H])C([H])([H])C([H])([H])[H])c([H])c([H])c2C1([H])[H]

>  <smiles>  (50) 
[H]c1c([H])c([H])c2c(c1[H])C([H])([H])C([H])([H])C([H])([H])C2([H])N([H])C(=O)C1([H])N(C(=O)C([H])(N([H])C(=O)C([H])(N([H])C([H])([H])[H])C([H])([H])[H])C(C([H])([H])[H])(C([H])([H])[H])C([H])([H])[H])C([H])([H])c2c([H])c(OC([H])([H])C([H])([H])[N+]([H])([H])C([H])([H])C([H])(N([H])C(=O)C3([H])N(C(=O)N4C([H])([H])C([H])([H])C([H])([H])C([H])(n5nc(-c6c([H])c([H])c(Oc7c([H])c([H])c(F)c([H])c7F)c([H])c6[H])c(C(=O)N([H])[H])c5N([H])[H])C4([H])[H])C([H])([H])C([H])([H])C3([H])[H])C([H])(C([H])([H])[H])C([H])([H])C([H])([H])[H])c([H])c([H])c2C1([H])[H]

$$$$
51:0:0
     RDKit          3D

108116  0  0  1  0  0  0  0  0999 V2000
  -29.2440  -16.5260   21.1740 C   0  0  0  0  0  3  0  0  0  0  0  0
  -29.2730  -17.7620   20.1360 C   0  0  0  0  0  0  0  0  0  0  0  0
  -30.4650  -21.3550   21.6250 C   0  0  0  0  0  2  0  0  0  0  0  0
  -30.3580  -19.7460   21.4830 C   0  0  0  0  0  2  0  0  0  0  0  0
  -29.2400  -20.1430   19.3160 C   0  0  0  0  0  2  0  0  0  0  0  0
  -30.3760  -22.3320   20.3750 C   0  0  0  0  0  3  0  0  0  0  0  0
  -29.1330  -21.6870   19.6650 C   0  0  0  0  0  3  0  0  0  0  0  0
  -28.6970  -22.4450   18.4000 C   0  0  0  0  0  1  0  0  0  0  0  0
  -29.5600  -19.1320   20.3790 N   0  0  0  0  0  0  0  0  0  0  0  0
  -28.9200  -17.4380   18.9990 O   0  0  0  0  0  0  0  0  0  0  0  0
  -30.2630  -23.9590   20.7310 C   0  0  0  0  0  2  0  0  0  0  0  0
  -30.5350  -25.1860   19.8630 O   0  0  0  0  0  0  0  0  0  0  0  0
  -26.3980  -29.8000   23.5800 C   0  0  0  0  0  0  0  0  0  0  0  0
  -29.5220  -26.1740   19.8490 C   0  0  0  0  0  0  0  0  0  0  0  0
  -25.4790  -28.8800   21.4820 C   0  0  0  0  0  3  0  0  0  0  0  0
  -27.1680  -27.8030   19.8870 C   0  0  0  0  0  0  0  0  0  0  0  0
  -28.0090  -29.2600   21.7300 C   0  0  0  0  0  2  0  0  0  0  0  0
  -28.2340  -28.1070   20.7510 C   0  0  0  0  0  0  0  0  0  0  0  0
  -29.4240  -27.3110   20.7190 C   0  0  0  0  0  3  0  0  0  0  0  0
  -28.4650  -25.9660   18.9440 C   0  0  0  0  0  3  0  0  0  0  0  0
  -27.2950  -26.7520   18.9660 C   0  0  0  0  0  3  0  0  0  0  0  0
  -25.8980  -28.6220   20.0090 C   0  0  0  0  0  2  0  0  0  0  0  0
  -26.6410  -29.3160   22.3250 N   0  0  0  0  0  0  0  0  0  0  0  0
  -25.2450  -29.9020   24.0230 O   0  0  0  0  0  0  0  0  0  0  0  0
  -24.7620  -27.6250   22.0440 C   0  0  0  0  0  0  0  0  0  0  0  0
  -23.5010  -27.4090   21.6300 N   0  0  0  0  0  0  0  0  0  0  0  0
  -25.3510  -26.8600   22.8140 O   0  0  0  0  0  0  0  0  0  0  0  0
  -23.0830  -28.0850   21.0030 H   0  0  0  0  0  0  0  0  0  0  0  0
  -20.2110  -25.9590   21.2510 C   0  0  0  0  0  0  0  0  0  0  0  0
  -22.6620  -26.2660   22.0030 C   0  0  0  0  0  3  0  0  0  0  0  0
  -22.9820  -25.0370   21.1240 C   0  0  0  0  0  2  0  0  0  0  0  0
  -22.0820  -24.9280   19.8920 C   0  0  0  0  0  2  0  0  0  0  0  0
  -20.6090  -24.8370   20.3060 C   0  0  0  0  0  2  0  0  0  0  0  0
  -21.1770  -26.6430   22.0350 C   0  0  0  0  0  0  0  0  0  0  0  0
  -20.7560  -27.7000   22.8700 C   0  0  0  0  0  3  0  0  0  0  0  0
  -19.4010  -28.0770   22.9260 C   0  0  0  0  0  3  0  0  0  0  0  0
  -18.4470  -27.3870   22.1610 C   0  0  0  0  0  3  0  0  0  0  0  0
  -18.8500  -26.3290   21.3280 C   0  0  0  0  0  3  0  0  0  0  0  0
  -27.5620  -30.2730   24.5030 C   0  0  0  0  0  3  0  0  0  0  0  0
  -27.1030  -31.4710   25.2220 N   0  0  0  0  0  0  0  0  0  0  0  0
  -27.4910  -32.7230   24.9440 C   0  0  0  0  0  0  0  0  0  0  0  0
  -28.3360  -32.9830   24.0840 O   0  0  0  0  0  0  0  0  0  0  0  0
  -26.3690  -31.3360   25.9020 H   0  0  0  0  0  0  0  0  0  0  0  0
  -25.7710  -34.5600   24.8810 C   0  0  0  0  0  1  0  0  0  0  0  0
  -26.8390  -33.8670   25.7440 C   0  0  0  0  0  3  0  0  0  0  0  0
  -28.7040  -34.3530   27.2680 C   0  0  0  0  0  1  0  0  0  0  0  0
  -27.8090  -34.8700   26.2360 N   0  0  0  0  0  0  0  0  0  0  0  0
  -27.3270  -35.6810   26.6110 H   0  0  0  0  0  0  0  0  0  0  0  0
  -28.0290  -29.1650   25.5260 C   0  0  1  0  0  0  0  0  0  0  0  0
  -26.8660  -28.4930   26.2920 C   0  0  0  0  0  1  0  0  0  0  0  0
  -28.8220  -28.0460   24.8110 C   0  0  0  0  0  1  0  0  0  0  0  0
  -28.9880  -29.7880   26.5680 C   0  0  0  0  0  1  0  0  0  0  0  0
  -29.9930  -15.2220   20.6940 N   0  0  0  0  0  4  0  0  0  0  0  0
  -30.6200  -15.5470   19.9740 H   0  0  0  0  0  0  0  0  0  0  0  0
  -29.3080  -14.6900   20.1790 H   0  0  0  0  0  0  0  0  0  0  0  0
  -30.7980  -14.1960   21.5790 C   0  0  0  0  0  3  0  0  0  0  0  0
  -28.5850  -12.7990   21.9530 C   0  0  0  0  0  1  0  0  0  0  0  0
  -30.5740  -12.1940   23.1790 C   0  0  0  0  0  1  0  0  0  0  0  0
  -30.4110  -11.7600   20.7020 C   0  0  0  0  0  1  0  0  0  0  0  0
  -30.1040  -12.7780   21.8230 C   0  0  2  0  0  0  0  0  0  0  0  0
  -32.4480  -13.9780   21.4130 C   0  0  0  0  0  2  0  0  0  0  0  0
  -33.4270  -12.5790   21.3470 C   0  0  0  0  0  2  0  0  0  0  0  0
  -33.6080  -11.2640   20.2020 C   0  0  0  0  0  3  0  0  0  0  0  0
  -32.4400  -10.9760   17.6760 C   0  0  0  0  0  1  0  0  0  0  0  0
  -31.8310  -12.0620   16.6680 C   0  0  0  0  0  2  0  0  0  0  0  0
  -32.5700  -13.9190   18.0280 C   0  0  0  0  0  0  0  0  0  0  0  0
  -32.8480  -12.1160   19.7570 C   0  0  0  0  0  2  0  0  0  0  0  0
  -32.0910  -10.3420   20.0840 C   0  0  0  0  0  2  0  0  0  0  0  0
  -30.2820   -9.9870   19.5980 C   0  0  0  0  0  2  0  0  0  0  0  0
  -29.2640  -11.3850   18.7560 C   0  0  0  0  0  3  0  0  0  0  0  0
  -30.0620  -13.0900   18.4520 C   0  0  0  0  0  2  0  0  0  0  0  0
  -31.8330  -13.3690   18.9380 N   0  0  0  0  0  0  0  0  0  0  0  0
  -33.6320  -14.4570   18.2410 O   0  0  0  0  0  0  0  0  0  0  0  0
  -32.3080  -13.4410   16.8190 N   0  0  0  0  0  0  0  0  0  0  0  0
  -32.8810  -13.7940   16.0620 H   0  0  0  0  0  0  0  0  0  0  0  0
  -27.0760  -12.4540   19.0110 C   0  0  0  0  0  0  0  0  0  0  0  0
  -25.8840  -11.9250   19.4020 C   0  0  0  0  0  0  0  0  0  0  0  0
  -26.1650  -10.6430   19.9710 C   0  0  0  0  0  0  0  0  0  0  0  0
  -27.9670  -11.4640   19.2800 N   0  0  0  0  0  0  0  0  0  0  0  0
  -27.4470  -10.4070   19.9360 N   0  0  0  0  0  0  0  0  0  0  0  0
  -25.3080   -9.5630   20.4390 C   0  0  0  0  0  0  0  0  0  0  0  0
  -25.5780   -8.8740   21.6400 C   0  0  0  0  0  3  0  0  0  0  0  0
  -24.7080   -7.8610   22.0840 C   0  0  0  0  0  3  0  0  0  0  0  0
  -23.5610   -7.5350   21.3190 C   0  0  0  0  0  0  0  0  0  0  0  0
  -23.3280   -8.2000   20.0990 C   0  0  0  0  0  3  0  0  0  0  0  0
  -24.1970   -9.2030   19.6600 C   0  0  0  0  0  3  0  0  0  0  0  0
  -22.6610   -6.5550   21.6610 O   0  0  0  0  0  0  0  0  0  0  0  0
  -22.1860   -6.4290   22.9390 C   0  0  0  0  0  0  0  0  0  0  0  0
  -21.6190   -7.5160   23.6370 C   0  0  0  0  0  3  0  0  0  0  0  0
  -21.0690   -7.3170   24.9200 C   0  0  0  0  0  3  0  0  0  0  0  0
  -21.0900   -6.0370   25.5030 C   0  0  0  0  0  0  0  0  0  0  0  0
  -21.6620   -4.9540   24.8080 C   0  0  0  0  0  3  0  0  0  0  0  0
  -22.2000   -5.1510   23.5250 C   0  0  0  0  0  0  0  0  0  0  0  0
  -22.7180   -4.1000   22.8450 F   0  0  0  0  0  0  0  0  0  0  0  0
  -20.5680   -5.8380   26.7380 F   0  0  0  0  0  0  0  0  0  0  0  0
  -24.5520  -12.5220   19.1260 C   0  0  0  0  0  0  0  0  0  0  0  0
  -23.5210  -12.0160   19.7880 N   0  0  0  0  0  0  0  0  0  0  0  0
  -24.4320  -13.4630   18.3480 O   0  0  0  0  0  0  0  0  0  0  0  0
  -23.6420  -11.2620   20.4470 H   0  0  0  0  0  0  0  0  0  0  0  0
  -22.6010  -12.3980   19.6290 H   0  0  0  0  0  0  0  0  0  0  0  0
  -27.4870  -13.6450   18.3970 N   0  0  0  0  0  0  0  0  0  0  0  0
  -26.8140  -14.3170   18.0420 H   0  0  0  0  0  0  0  0  0  0  0  0
  -28.4050  -13.7700   17.9890 H   0  0  0  0  0  0  0  0  0  0  0  0
  -27.7420  -16.2630   21.5120 C   0  0  0  0  0  2  0  0  0  0  0  0
  -27.0690  -15.0570   20.7910 C   0  0  0  0  0  2  0  0  0  0  0  0
  -25.7920  -14.5250   21.4860 C   0  0  0  0  0  2  0  0  0  0  0  0
  -24.7780  -12.5450   22.7750 C   0  0  0  0  0  1  0  0  0  0  0  0
  -25.7450  -12.9830   21.6640 C   0  0  0  0  0  2  0  0  0  0  0  0
  1104  1  0
  2  9  1  0
  2  1  1  0
  4  3  1  0
  5  7  1  0
  5  9  1  0
  6 11  1  0
  6  3  1  0
  7  8  1  0
  7  6  1  0
  9  4  1  0
 10  2  2  0
 12 11  1  0
 13 24  2  0
 14 12  1  0
 14 19  1  0
 15 25  1  0
 15 23  1  0
 16 22  1  0
 16 18  1  0
 17 23  1  0
 18 17  1  0
 19 18  2  0
 20 21  1  0
 20 14  2  0
 21 16  2  0
 22 15  1  0
 23 13  1  0
 25 27  2  0
 26 25  1  0
 28 26  1  0
 29 38  2  0
 29 34  1  0
 30 26  1  0
 30 34  1  0
 31 30  1  0
 32 33  1  0
 32 31  1  0
 33 29  1  0
 34 35  2  0
 35 36  1  0
 37 36  2  0
 38 37  1  0
 39 13  1  0
 39 40  1  0
 39 49  1  0
 40 43  1  0
 41 40  1  0
 41 45  1  0
 42 41  2  0
 45 44  1  0
 45 47  1  0
 47 48  1  0
 47 46  1  0
 49 50  1  1
 49 52  1  0
 51 49  1  0
 53  1  1  0
 53 56  1  0
 54 53  1  0
 55 53  1  0
 56 61  1  0
 56 60  1  0
 60 59  1  6
 60 57  1  0
 60 58  1  0
 62 61  1  0
 63 62  1  0
 65 74  1  0
 65 64  1  0
 66 73  2  0
 66 72  1  0
 67 63  1  0
 68 63  1  0
 69 68  1  0
 70 71  1  0
 70 79  1  0
 70 69  1  0
 71 72  1  0
 72 67  1  0
 74 66  1  0
 75 74  1  0
 76 79  1  0
 76 77  2  0
 77 78  1  0
 78 81  1  0
 79 80  1  0
 80 78  2  0
 81 82  1  0
 82 83  2  0
 84 87  1  0
 84 83  1  0
 85 84  2  0
 86 85  1  0
 86 81  2  0
 87 88  1  0
 88 93  2  0
 88 89  1  0
 89 90  2  0
 90 91  1  0
 91 95  1  0
 92 91  2  0
 93 92  1  0
 94 93  1  0
 96 77  1  0
 96 97  1  0
 97 99  1  0
 98 96  2  0
100 97  1  0
101 76  1  0
102101  1  0
103101  1  0
105106  1  0
105104  1  0
106108  1  0
108107  1  0
M  ISO  4  11 101  12 101  66 100  74 100
M  END
>  <TORSDO>  (51) 
F 30

>  <SCORE>  (51) 
5.622

>  <name>  (51) 
51

>  <ligand_id>  (51) 
51

>  <original_smiles>  (51) 
[H]c1c([H])c([H])c2c(c1[H])C([H])([H])C([H])([H])C([H])([H])C2([H])N([H])C(=O)C1([H])N(C(=O)C([H])(N([H])C(=O)C([H])(N([H])C([H])([H])[H])C([H])([H])[H])C(C([H])([H])[H])(C([H])([H])[H])C([H])([H])[H])C([H])([H])c2c([H])c(OC([H])([H])C3([H])C([H])([H])C([H])([H])N(C(=O)C([H])(C([H])([H])C([H])([H])C([H])([H])C([H])([H])C([H])([H])[H])[N+]([H])([H])C([H])(C([H])([H])C([H])([H])C([H])([H])C([H])([H])C([H])([H])N([H])C(=O)N4C([H])([H])C([H])([H])C([H])([H])C([H])(n5nc(-c6c([H])c([H])c(Oc7c([H])c([H])c(F)c([H])c7F)c([H])c6[H])c(C(=O)N([H])[H])c5N([H])[H])C4([H])[H])C(C([H])([H])[H])(C([H])([H])[H])C([H])([H])[H])C([H])([H])C3([H])C([H])([H])[H])c([H])c([H])c2C1([H])[H]

>  <smiles>  (51) 
[H]c1c([H])c([H])c2c(c1[H])C([H])([H])C([H])([H])C([H])([H])C2([H])N([H])C(=O)C1([H])N(C(=O)C([H])(N([H])C(=O)C([H])(N([H])C([H])([H])[H])C([H])([H])[H])C(C([H])([H])[H])(C([H])([H])[H])C([H])([H])[H])C([H])([H])c2c([H])c(OC([H])([H])C3([H])C([H])([H])C([H])([H])N(C(=O)C([H])(C([H])([H])C([H])([H])C([H])([H])C([H])([H])C([H])([H])[H])[N+]([H])([H])C([H])(C([H])([H])C([H])([H])C([H])([H])C([H])([H])C([H])([H])N([H])C(=O)N4C([H])([H])C([H])([H])C([H])([H])C([H])(n5nc(-c6c([H])c([H])c(Oc7c([H])c([H])c(F)c([H])c7F)c([H])c6[H])c(C(=O)N([H])[H])c5N([H])[H])C4([H])[H])C(C([H])([H])[H])(C([H])([H])[H])C([H])([H])[H])C([H])([H])C3([H])C([H])([H])[H])c([H])c([H])c2C1([H])[H]

$$$$
52:0:0
     RDKit          3D

101109  0  0  1  0  0  0  0  0999 V2000
  -30.4030  -18.3080   20.5650 C   0  0  0  0  0  0  0  0  0  0  0  0
  -30.5830  -19.8270   17.2260 C   0  0  0  0  0  2  0  0  0  0  0  0
  -30.1220  -18.7000   18.1590 C   0  0  0  0  0  2  0  0  0  0  0  0
  -30.8740  -20.6090   19.4960 C   0  0  0  0  0  3  0  0  0  0  0  0
  -31.5170  -20.6870   18.0900 C   0  0  0  0  0  3  0  0  0  0  0  0
  -30.3340  -19.1960   19.5230 N   0  0  0  0  0  0  0  0  0  0  0  0
  -31.2110  -18.4970   21.4770 O   0  0  0  0  0  0  0  0  0  0  0  0
  -32.9190  -20.2090   18.0780 N   0  0  0  0  0  4  0  0  0  0  0  0
  -32.9980  -19.2580   18.3900 H   0  0  0  0  0  0  0  0  0  0  0  0
  -33.4950  -20.7810   18.6720 H   0  0  0  0  0  0  0  0  0  0  0  0
  -33.3030  -20.2690   17.1500 H   0  0  0  0  0  0  0  0  0  0  0  0
  -29.8150  -21.7900   19.5840 C   0  0  0  0  0  0  0  0  0  0  0  0
  -30.2340  -23.0720   19.8210 N   0  0  0  0  0  0  0  0  0  0  0  0
  -28.6340  -21.5570   19.3320 O   0  0  0  0  0  0  0  0  0  0  0  0
  -31.1980  -23.1770   20.1060 H   0  0  0  0  0  0  0  0  0  0  0  0
  -29.5410  -24.3590   19.4580 C   0  0  0  0  0  2  0  0  0  0  0  0
  -29.2140  -25.3830   20.6180 C   0  0  0  0  0  2  0  0  0  0  0  0
  -29.1150  -26.8120   20.3030 O   0  0  0  0  0  0  0  0  0  0  0  0
  -24.5670  -31.5990   23.1860 C   0  0  0  0  0  0  0  0  0  0  0  0
  -27.8750  -27.4490   20.2670 C   0  0  0  0  0  0  0  0  0  0  0  0
  -23.6460  -30.1460   21.4110 C   0  0  0  0  0  3  0  0  0  0  0  0
  -25.3560  -28.7740   20.0950 C   0  0  0  0  0  0  0  0  0  0  0  0
  -26.1420  -30.7220   21.4490 C   0  0  0  0  0  2  0  0  0  0  0  0
  -26.4120  -29.3760   20.7930 C   0  0  0  0  0  0  0  0  0  0  0  0
  -27.6740  -28.7260   20.8630 C   0  0  0  0  0  3  0  0  0  0  0  0
  -26.7940  -26.8710   19.5690 C   0  0  0  0  0  3  0  0  0  0  0  0
  -25.5470  -27.5240   19.4790 C   0  0  0  0  0  3  0  0  0  0  0  0
  -24.0400  -29.5250   20.0450 C   0  0  0  0  0  2  0  0  0  0  0  0
  -24.7970  -30.8400   22.0750 N   0  0  0  0  0  0  0  0  0  0  0  0
  -23.4210  -31.7570   23.6320 O   0  0  0  0  0  0  0  0  0  0  0  0
  -23.0050  -29.0450   22.2870 C   0  0  0  0  0  0  0  0  0  0  0  0
  -21.6950  -28.8140   22.1000 N   0  0  0  0  0  0  0  0  0  0  0  0
  -23.6870  -28.4050   23.0920 O   0  0  0  0  0  0  0  0  0  0  0  0
  -21.2070  -29.3850   21.4250 H   0  0  0  0  0  0  0  0  0  0  0  0
  -18.3510  -27.4890   22.4580 C   0  0  0  0  0  0  0  0  0  0  0  0
  -20.8970  -27.7960   22.7830 C   0  0  0  0  0  3  0  0  0  0  0  0
  -21.0470  -26.4190   22.0940 C   0  0  0  0  0  2  0  0  0  0  0  0
  -19.9660  -26.1490   21.0440 C   0  0  0  0  0  2  0  0  0  0  0  0
  -18.5730  -26.2040   21.6790 C   0  0  0  0  0  2  0  0  0  0  0  0
  -19.4430  -28.2440   22.9630 C   0  0  0  0  0  0  0  0  0  0  0  0
  -19.1800  -29.4490   23.6500 C   0  0  0  0  0  3  0  0  0  0  0  0
  -17.8590  -29.8990   23.8380 C   0  0  0  0  0  3  0  0  0  0  0  0
  -16.7830  -29.1390   23.3490 C   0  0  0  0  0  3  0  0  0  0  0  0
  -17.0300  -27.9360   22.6640 C   0  0  0  0  0  3  0  0  0  0  0  0
  -25.7270  -32.3240   23.9360 C   0  0  0  0  0  3  0  0  0  0  0  0
  -26.1350  -31.6150   25.2860 C   0  0  1  0  0  0  0  0  0  0  0  0
  -24.9410  -31.3460   26.2310 C   0  0  0  0  0  1  0  0  0  0  0  0
  -26.8260  -30.2600   25.0020 C   0  0  0  0  0  1  0  0  0  0  0  0
  -27.1600  -32.4850   26.0480 C   0  0  0  0  0  1  0  0  0  0  0  0
  -25.2970  -33.7080   24.1880 N   0  0  0  0  0  0  0  0  0  0  0  0
  -25.6430  -34.7620   23.4370 C   0  0  0  0  0  0  0  0  0  0  0  0
  -26.4280  -34.6770   22.4880 O   0  0  0  0  0  0  0  0  0  0  0  0
  -24.6090  -33.8420   24.9150 H   0  0  0  0  0  0  0  0  0  0  0  0
  -23.8570  -36.4300   22.8410 C   0  0  0  0  0  1  0  0  0  0  0  0
  -25.0230  -36.1270   23.7950 C   0  0  0  0  0  3  0  0  0  0  0  0
  -26.9950  -37.1690   24.8220 C   0  0  0  0  0  1  0  0  0  0  0  0
  -25.9940  -37.2400   23.7610 N   0  0  0  0  0  0  0  0  0  0  0  0
  -25.5190  -38.1360   23.8330 H   0  0  0  0  0  0  0  0  0  0  0  0
  -29.3570  -17.1420   20.7470 C   0  0  0  0  0  0  0  0  0  0  0  0
  -30.5410  -14.7130   20.5140 C   0  0  0  0  0  0  0  0  0  0  0  0
  -30.5720  -12.2970   19.8880 C   0  0  0  0  0  2  0  0  0  0  0  0
  -29.6950  -12.1170   18.6260 C   0  0  0  0  0  2  0  0  0  0  0  0
  -28.1980  -11.9680   18.9840 C   0  0  0  0  0  2  0  0  0  0  0  0
  -27.7200  -13.0310   20.0060 C   0  0  0  0  0  3  0  0  0  0  0  0
  -28.7080  -13.1140   21.1930 C   0  0  0  0  0  2  0  0  0  0  0  0
  -30.0380  -13.4440   20.6400 N   0  0  0  0  0  0  0  0  0  0  0  0
  -31.6940  -14.9410   20.1410 O   0  0  0  0  0  0  0  0  0  0  0  0
  -29.5870  -15.6590   20.7130 N   0  0  0  0  0  4  0  0  0  0  0  0
  -28.7330  -15.1810   20.9460 H   0  0  0  0  0  0  0  0  0  0  0  0
  -25.3230  -13.6970   20.6590 C   0  0  0  0  0  0  0  0  0  0  0  0
  -24.2260  -12.9520   21.0010 C   0  0  0  0  0  0  0  0  0  0  0  0
  -24.6550  -11.5900   20.9770 C   0  0  0  0  0  0  0  0  0  0  0  0
  -26.3500  -12.7890   20.4510 N   0  0  0  0  0  0  0  0  0  0  0  0
  -25.9510  -11.5160   20.7010 N   0  0  0  0  0  0  0  0  0  0  0  0
  -23.8930  -10.3460   21.1450 C   0  0  0  0  0  0  0  0  0  0  0  0
  -24.3160   -9.3340   22.0330 C   0  0  0  0  0  3  0  0  0  0  0  0
  -23.5570   -8.1550   22.1880 C   0  0  0  0  0  3  0  0  0  0  0  0
  -22.3590   -7.9810   21.4540 C   0  0  0  0  0  0  0  0  0  0  0  0
  -21.9550   -8.9820   20.5530 C   0  0  0  0  0  3  0  0  0  0  0  0
  -22.7150  -10.1530   20.3970 C   0  0  0  0  0  3  0  0  0  0  0  0
  -21.5690   -6.8610   21.5240 O   0  0  0  0  0  0  0  0  0  0  0  0
  -21.5210   -6.0800   22.6520 C   0  0  0  0  0  0  0  0  0  0  0  0
  -21.1410   -6.6040   23.9060 C   0  0  0  0  0  3  0  0  0  0  0  0
  -21.0430   -5.7530   25.0250 C   0  0  0  0  0  3  0  0  0  0  0  0
  -21.3110   -4.3770   24.8890 C   0  0  0  0  0  0  0  0  0  0  0  0
  -21.6840   -3.8520   23.6390 C   0  0  0  0  0  3  0  0  0  0  0  0
  -21.7860   -4.7010   22.5230 C   0  0  0  0  0  0  0  0  0  0  0  0
  -22.1260   -4.1880   21.3160 F   0  0  0  0  0  0  0  0  0  0  0  0
  -21.2080   -3.5560   25.9590 F   0  0  0  0  0  0  0  0  0  0  0  0
  -22.8360  -13.4650   21.2400 C   0  0  0  0  0  0  0  0  0  0  0  0
  -22.0770  -12.7970   22.1010 N   0  0  0  0  0  0  0  0  0  0  0  0
  -22.4310  -14.4920   20.6970 O   0  0  0  0  0  0  0  0  0  0  0  0
  -22.4170  -11.9660   22.5630 H   0  0  0  0  0  0  0  0  0  0  0  0
  -21.1420  -13.1210   22.3040 H   0  0  0  0  0  0  0  0  0  0  0  0
  -25.5220  -15.0630   20.4820 N   0  0  0  0  0  0  0  0  0  0  0  0
  -24.7580  -15.7250   20.5660 H   0  0  0  0  0  0  0  0  0  0  0  0
  -26.3680  -15.4770   20.1150 H   0  0  0  0  0  0  0  0  0  0  0  0
  -27.9790  -17.4260   20.0900 C   0  0  0  0  0  2  0  0  0  0  0  0
  -27.5820  -18.9100   19.9380 C   0  0  0  0  0  2  0  0  0  0  0  0
  -26.3560  -20.5520   18.4090 C   0  0  0  0  0  1  0  0  0  0  0  0
  -26.4750  -19.1010   18.8910 C   0  0  0  0  0  2  0  0  0  0  0  0
  1 59  1  0
  1  7  2  0
  2  5  1  0
  2  3  1  0
  3  6  1  0
  4  6  1  0
  4 12  1  0
  5  8  1  0
  5  4  1  0
  6  1  1  0
  8  9  1  0
  8 10  1  0
 11  8  1  0
 12 13  1  0
 13 15  1  0
 14 12  2  0
 16 13  1  0
 16 17  1  0
 18 17  1  0
 19 30  2  0
 20 18  1  0
 20 25  1  0
 21 29  1  0
 21 31  1  0
 22 24  1  0
 23 29  1  0
 24 25  2  0
 24 23  1  0
 26 20  2  0
 27 26  1  0
 27 22  2  0
 28 22  1  0
 28 21  1  0
 29 19  1  0
 31 33  2  0
 32 31  1  0
 34 32  1  0
 35 44  2  0
 35 40  1  0
 36 32  1  0
 36 40  1  0
 37 36  1  0
 38 39  1  0
 38 37  1  0
 39 35  1  0
 40 41  2  0
 41 42  1  0
 43 42  2  0
 44 43  1  0
 45 19  1  0
 45 50  1  0
 45 46  1  0
 46 49  1  1
 46 47  1  0
 48 46  1  0
 50 53  1  0
 51 55  1  0
 51 50  1  0
 52 51  2  0
 55 54  1  0
 57 55  1  0
 57 58  1  0
 57 56  1  0
 60 66  1  0
 60 68  1  0
 61 66  1  0
 62 63  1  0
 62 61  1  0
 64 63  1  0
 64 73  1  0
 64 65  1  0
 66 65  1  0
 67 60  2  0
 68 59  2  0
 68 69  1  0
 70 71  2  0
 71 90  1  0
 72 71  1  0
 72 75  1  0
 73 70  1  0
 73 74  1  0
 74 72  2  0
 75 76  1  0
 76 77  2  0
 78 81  1  0
 78 77  1  0
 79 78  2  0
 80 79  1  0
 80 75  2  0
 81 82  1  0
 82 83  1  0
 83 84  2  0
 85 84  1  0
 85 89  1  0
 86 85  2  0
 87 82  2  0
 87 86  1  0
 88 87  1  0
 90 91  1  0
 91 94  1  0
 91 93  1  0
 92 90  2  0
 95 96  1  0
 95 70  1  0
 97 95  1  0
 98 59  1  0
 99 98  1  0
100101  1  0
101 99  1  0
M  ISO  4  17 101  18 101  60 100  68 100
M  END
>  <TORSDO>  (52) 
F 24

>  <SCORE>  (52) 
-11.960

>  <name>  (52) 
52

>  <ligand_id>  (52) 
52

>  <original_smiles>  (52) 
[H]c1c([H])c([H])c2c(c1[H])C([H])([H])C([H])([H])C([H])([H])C2([H])N([H])C(=O)C1([H])N(C(=O)C([H])(N([H])C(=O)C([H])(N([H])C([H])([H])[H])C([H])([H])[H])C(C([H])([H])[H])(C([H])([H])[H])C([H])([H])[H])C([H])([H])c2c([H])c(OC([H])([H])C([H])([H])N([H])C(=O)C3([H])N(C(=O)C([H])(N([H])C(=O)N4C([H])([H])C([H])([H])C([H])([H])C([H])(n5nc(-c6c([H])c([H])c(Oc7c([H])c([H])c(F)c([H])c7F)c([H])c6[H])c(C(=O)N([H])[H])c5N([H])[H])C4([H])[H])C([H])([H])C([H])([H])C([H])([H])C([H])([H])[H])C([H])([H])C([H])([H])C3([H])[N+]([H])([H])[H])c([H])c([H])c2C1([H])[H]

>  <smiles>  (52) 
[H]c1c([H])c([H])c2c(c1[H])C([H])([H])C([H])([H])C([H])([H])C2([H])N([H])C(=O)C1([H])N(C(=O)C([H])(N([H])C(=O)C([H])(N([H])C([H])([H])[H])C([H])([H])[H])C(C([H])([H])[H])(C([H])([H])[H])C([H])([H])[H])C([H])([H])c2c([H])c(OC([H])([H])C([H])([H])N([H])C(=O)C3([H])N(C(=O)C([H])(N([H])C(=O)N4C([H])([H])C([H])([H])C([H])([H])C([H])(n5nc(-c6c([H])c([H])c(Oc7c([H])c([H])c(F)c([H])c7F)c([H])c6[H])c(C(=O)N([H])[H])c5N([H])[H])C4([H])[H])C([H])([H])C([H])([H])C([H])([H])C([H])([H])[H])C([H])([H])C([H])([H])C3([H])[N+]([H])([H])[H])c([H])c([H])c2C1([H])[H]

$$$$
53:0:0
     RDKit          3D

 92100  0  0  1  0  0  0  0  0999 V2000
  -29.5040  -18.9060   20.7660 C   0  0  0  0  0  0  0  0  0  0  0  0
  -29.6440  -22.6700   19.3080 C   0  0  0  0  0  2  0  0  0  0  0  0
  -28.1760  -22.5880   21.1850 C   0  0  0  0  0  2  0  0  0  0  0  0
  -30.2970  -21.2560   19.7360 C   0  0  0  0  0  2  0  0  0  0  0  0
  -28.8440  -21.2140   21.6350 C   0  0  0  0  0  2  0  0  0  0  0  0
  -29.0500  -23.6370   20.4140 C   0  0  0  0  0  3  0  0  0  0  0  0
  -29.5010  -20.3270   20.6100 N   0  0  0  0  0  0  0  0  0  0  0  0
  -28.8050  -18.4280   21.6640 O   0  0  0  0  0  0  0  0  0  0  0  0
  -28.2240  -24.9950   19.9190 C   0  0  0  0  0  2  0  0  0  0  0  0
  -28.4630  -26.4760   20.2440 O   0  0  0  0  0  0  0  0  0  0  0  0
  -24.6660  -31.9520   23.2700 C   0  0  0  0  0  0  0  0  0  0  0  0
  -27.3810  -27.4110   20.1620 C   0  0  0  0  0  0  0  0  0  0  0  0
  -23.5140  -30.5740   21.5820 C   0  0  0  0  0  3  0  0  0  0  0  0
  -25.0110  -29.0740   20.1390 C   0  0  0  0  0  0  0  0  0  0  0  0
  -26.0600  -30.9070   21.4560 C   0  0  0  0  0  2  0  0  0  0  0  0
  -26.1700  -29.5370   20.7750 C   0  0  0  0  0  0  0  0  0  0  0  0
  -27.3560  -28.7210   20.7750 C   0  0  0  0  0  3  0  0  0  0  0  0
  -26.2000  -27.0470   19.4750 C   0  0  0  0  0  3  0  0  0  0  0  0
  -25.0370  -27.8400   19.4750 C   0  0  0  0  0  3  0  0  0  0  0  0
  -23.7650  -29.9380   20.1890 C   0  0  0  0  0  2  0  0  0  0  0  0
  -24.7650  -31.1640   22.1580 N   0  0  0  0  0  0  0  0  0  0  0  0
  -23.5690  -32.2010   23.7920 O   0  0  0  0  0  0  0  0  0  0  0  0
  -22.8460  -29.5280   22.5080 C   0  0  0  0  0  0  0  0  0  0  0  0
  -21.5280  -29.3180   22.3420 N   0  0  0  0  0  0  0  0  0  0  0  0
  -23.5160  -28.9090   23.3400 O   0  0  0  0  0  0  0  0  0  0  0  0
  -21.0440  -29.8700   21.6470 H   0  0  0  0  0  0  0  0  0  0  0  0
  -18.1730  -28.0110   22.7300 C   0  0  0  0  0  0  0  0  0  0  0  0
  -20.7140  -28.3460   23.0770 C   0  0  0  0  0  3  0  0  0  0  0  0
  -20.8770  -26.9250   22.4900 C   0  0  0  0  0  2  0  0  0  0  0  0
  -19.8150  -26.5810   21.4400 C   0  0  0  0  0  2  0  0  0  0  0  0
  -18.4110  -26.6760   22.0440 C   0  0  0  0  0  2  0  0  0  0  0  0
  -19.2550  -28.8020   23.2010 C   0  0  0  0  0  0  0  0  0  0  0  0
  -18.9790  -30.0500   23.8020 C   0  0  0  0  0  3  0  0  0  0  0  0
  -17.6540  -30.5070   23.9370 C   0  0  0  0  0  3  0  0  0  0  0  0
  -16.5880  -29.7130   23.4820 C   0  0  0  0  0  3  0  0  0  0  0  0
  -16.8480  -28.4670   22.8840 C   0  0  0  0  0  3  0  0  0  0  0  0
  -25.9260  -32.5950   23.9280 C   0  0  0  0  0  3  0  0  0  0  0  0
  -26.3940  -31.8440   25.2350 C   0  0  1  0  0  0  0  0  0  0  0  0
  -25.2600  -31.6200   26.2630 C   0  0  0  0  0  1  0  0  0  0  0  0
  -26.9940  -30.4620   24.8900 C   0  0  0  0  0  1  0  0  0  0  0  0
  -27.5150  -32.6510   25.9290 C   0  0  0  0  0  1  0  0  0  0  0  0
  -25.6050  -33.9980   24.2280 N   0  0  0  0  0  0  0  0  0  0  0  0
  -25.9530  -35.0420   23.4650 C   0  0  0  0  0  0  0  0  0  0  0  0
  -26.6460  -34.9260   22.4510 O   0  0  0  0  0  0  0  0  0  0  0  0
  -24.9930  -34.1610   25.0150 H   0  0  0  0  0  0  0  0  0  0  0  0
  -24.2430  -36.8380   23.0370 C   0  0  0  0  0  1  0  0  0  0  0  0
  -25.4550  -36.4370   23.8930 C   0  0  0  0  0  3  0  0  0  0  0  0
  -27.5570  -37.3330   24.7920 C   0  0  0  0  0  1  0  0  0  0  0  0
  -26.4930  -37.4870   23.8040 N   0  0  0  0  0  0  0  0  0  0  0  0
  -26.0840  -38.4100   23.9210 H   0  0  0  0  0  0  0  0  0  0  0  0
  -30.2950  -17.7420   19.9400 C   0  0  0  0  0  3  0  0  0  0  0  0
  -30.8720  -15.0910   20.1920 C   0  0  0  0  0  0  0  0  0  0  0  0
  -30.6700  -12.8020   19.1770 C   0  0  0  0  0  2  0  0  0  0  0  0
  -29.7150  -12.8660   17.9640 C   0  0  0  0  0  2  0  0  0  0  0  0
  -28.2520  -12.6860   18.4110 C   0  0  0  0  0  2  0  0  0  0  0  0
  -27.8940  -13.5570   19.6440 C   0  0  0  0  0  3  0  0  0  0  0  0
  -28.9710  -13.4760   20.7490 C   0  0  0  0  0  2  0  0  0  0  0  0
  -30.2500  -13.8550   20.1370 N   0  0  0  0  0  0  0  0  0  0  0  0
  -32.0620  -15.1680   19.8710 O   0  0  0  0  0  0  0  0  0  0  0  0
  -30.0960  -16.2460   20.3560 N   0  0  0  0  0  0  0  0  0  0  0  0
  -29.1610  -16.0630   20.6850 H   0  0  0  0  0  0  0  0  0  0  0  0
  -25.5160  -14.1490   20.3950 C   0  0  0  0  0  0  0  0  0  0  0  0
  -24.4530  -13.3760   20.7720 C   0  0  0  0  0  0  0  0  0  0  0  0
  -24.9140  -12.0250   20.7370 C   0  0  0  0  0  0  0  0  0  0  0  0
  -26.5570  -13.2680   20.1490 N   0  0  0  0  0  0  0  0  0  0  0  0
  -26.2020  -11.9860   20.4190 N   0  0  0  0  0  0  0  0  0  0  0  0
  -24.1870  -10.7640   20.9300 C   0  0  0  0  0  0  0  0  0  0  0  0
  -24.5980   -9.8140   21.8920 C   0  0  0  0  0  3  0  0  0  0  0  0
  -23.8690   -8.6180   22.0730 C   0  0  0  0  0  3  0  0  0  0  0  0
  -22.7170   -8.3630   21.2920 C   0  0  0  0  0  0  0  0  0  0  0  0
  -22.3270   -9.3010   20.3200 C   0  0  0  0  0  3  0  0  0  0  0  0
  -23.0550  -10.4880   20.1370 C   0  0  0  0  0  3  0  0  0  0  0  0
  -21.9630   -7.2170   21.3810 O   0  0  0  0  0  0  0  0  0  0  0  0
  -21.8580   -6.5150   22.5550 C   0  0  0  0  0  0  0  0  0  0  0  0
  -21.3320   -7.1000   23.7290 C   0  0  0  0  0  3  0  0  0  0  0  0
  -21.1750   -6.3220   24.8930 C   0  0  0  0  0  3  0  0  0  0  0  0
  -21.5340   -4.9610   24.8840 C   0  0  0  0  0  0  0  0  0  0  0  0
  -22.0520   -4.3760   23.7170 C   0  0  0  0  0  3  0  0  0  0  0  0
  -22.2100   -5.1510   22.5530 C   0  0  0  0  0  0  0  0  0  0  0  0
  -22.6900   -4.5770   21.4240 F   0  0  0  0  0  0  0  0  0  0  0  0
  -21.3770   -4.2120   26.0010 F   0  0  0  0  0  0  0  0  0  0  0  0
  -23.0590  -13.8550   21.0520 C   0  0  0  0  0  0  0  0  0  0  0  0
  -22.3390  -13.1700   21.9350 N   0  0  0  0  0  0  0  0  0  0  0  0
  -22.6150  -14.8760   20.5260 O   0  0  0  0  0  0  0  0  0  0  0  0
  -22.7100  -12.3450   22.3830 H   0  0  0  0  0  0  0  0  0  0  0  0
  -21.4050  -13.4750   22.1640 H   0  0  0  0  0  0  0  0  0  0  0  0
  -25.6790  -15.5200   20.2170 N   0  0  0  0  0  0  0  0  0  0  0  0
  -24.9110  -16.1710   20.3350 H   0  0  0  0  0  0  0  0  0  0  0  0
  -26.5160  -15.9620   19.8630 H   0  0  0  0  0  0  0  0  0  0  0  0
  -31.1450  -17.1420   17.5590 C   0  0  0  0  0  1  0  0  0  0  0  0
  -28.6630  -17.4330   17.9500 C   0  0  0  0  0  1  0  0  0  0  0  0
  -30.0720  -17.8580   18.3990 C   0  0  0  0  0  3  0  0  0  0  0  0
  1  8  2  0
  2  4  1  0
  2  6  1  0
  3  5  1  0
  4  7  1  0
  6  9  1  0
  6  3  1  0
  7  1  1  0
  7  5  1  0
  9 10  1  0
 11 22  2  0
 12 10  1  0
 12 17  1  0
 13 21  1  0
 13 23  1  0
 14 20  1  0
 14 16  1  0
 15 21  1  0
 16 17  2  0
 16 15  1  0
 18 12  2  0
 19 18  1  0
 19 14  2  0
 20 13  1  0
 21 11  1  0
 23 25  2  0
 24 23  1  0
 26 24  1  0
 27 36  2  0
 27 32  1  0
 28 24  1  0
 28 32  1  0
 29 28  1  0
 30 31  1  0
 30 29  1  0
 31 27  1  0
 32 33  2  0
 33 34  1  0
 35 34  2  0
 36 35  1  0
 37 11  1  0
 37 42  1  0
 37 38  1  0
 38 41  1  1
 38 39  1  0
 40 38  1  0
 42 45  1  0
 43 47  1  0
 43 42  1  0
 44 43  2  0
 47 46  1  0
 49 47  1  0
 49 50  1  0
 49 48  1  0
 51 92  1  0
 51 60  1  0
 51  1  1  0
 52 60  1  0
 53 58  1  0
 54 55  1  0
 54 53  1  0
 56 55  1  0
 56 65  1  0
 56 57  1  0
 58 52  1  0
 58 57  1  0
 59 52  2  0
 60 61  1  0
 62 63  2  0
 63 82  1  0
 64 63  1  0
 64 67  1  0
 65 62  1  0
 65 66  1  0
 66 64  2  0
 67 68  1  0
 68 69  2  0
 70 73  1  0
 70 69  1  0
 71 70  2  0
 72 71  1  0
 72 67  2  0
 73 74  1  0
 74 75  1  0
 75 76  2  0
 77 76  1  0
 77 81  1  0
 78 77  2  0
 79 74  2  0
 79 78  1  0
 80 79  1  0
 82 83  1  0
 83 86  1  0
 83 85  1  0
 84 82  2  0
 87 88  1  0
 87 62  1  0
 89 87  1  0
 90 92  1  0
 91 92  1  0
M  ISO  4   9 101  10 101  52 100  60 100
M  END
>  <TORSDO>  (53) 
F 19

>  <SCORE>  (53) 
-12.950

>  <name>  (53) 
53

>  <ligand_id>  (53) 
53

>  <original_smiles>  (53) 
[H]c1c([H])c([H])c2c(c1[H])C([H])([H])C([H])([H])C([H])([H])C2([H])N([H])C(=O)C1([H])N(C(=O)C([H])(N([H])C(=O)C([H])(N([H])C([H])([H])[H])C([H])([H])[H])C(C([H])([H])[H])(C([H])([H])[H])C([H])([H])[H])C([H])([H])c2c([H])c(OC([H])([H])C3([H])C([H])([H])C([H])([H])N(C(=O)C([H])(N([H])C(=O)N4C([H])([H])C([H])([H])C([H])([H])C([H])(n5nc(-c6c([H])c([H])c(Oc7c([H])c([H])c(F)c([H])c7F)c([H])c6[H])c(C(=O)N([H])[H])c5N([H])[H])C4([H])[H])C([H])(C([H])([H])[H])C([H])([H])[H])C([H])([H])C3([H])[H])c([H])c([H])c2C1([H])[H]

>  <smiles>  (53) 
[H]c1c([H])c([H])c2c(c1[H])C([H])([H])C([H])([H])C([H])([H])C2([H])N([H])C(=O)C1([H])N(C(=O)C([H])(N([H])C(=O)C([H])(N([H])C([H])([H])[H])C([H])([H])[H])C(C([H])([H])[H])(C([H])([H])[H])C([H])([H])[H])C([H])([H])c2c([H])c(OC([H])([H])C3([H])C([H])([H])C([H])([H])N(C(=O)C([H])(N([H])C(=O)N4C([H])([H])C([H])([H])C([H])([H])C([H])(n5nc(-c6c([H])c([H])c(Oc7c([H])c([H])c(F)c([H])c7F)c([H])c6[H])c(C(=O)N([H])[H])c5N([H])[H])C4([H])[H])C([H])(C([H])([H])[H])C([H])([H])[H])C([H])([H])C3([H])[H])c([H])c([H])c2C1([H])[H]

$$$$
54:0:0
     RDKit          3D

110117  0  0  1  0  0  0  0  0999 V2000
  -31.6680  -23.2360   20.9890 C   0  0  0  0  0  3  0  0  0  0  0  0
  -31.6330  -24.6850   20.4700 C   0  0  0  0  0  0  0  0  0  0  0  0
  -31.9060  -25.6490   21.3580 N   0  0  0  0  0  0  0  0  0  0  0  0
  -31.3380  -24.9230   19.2970 O   0  0  0  0  0  0  0  0  0  0  0  0
  -32.1180  -25.3760   22.3090 H   0  0  0  0  0  0  0  0  0  0  0  0
  -31.8630  -27.0820   21.0870 C   0  0  0  0  0  2  0  0  0  0  0  0
  -30.4300  -27.6320   21.1530 C   0  0  0  0  0  2  0  0  0  0  0  0
  -29.8960  -27.3970   22.4590 O   0  0  0  0  0  0  0  0  0  0  0  0
  -24.6110  -27.9960   27.1910 C   0  0  0  0  0  0  0  0  0  0  0  0
  -28.5980  -27.7990   22.6880 C   0  0  0  0  0  0  0  0  0  0  0  0
  -24.0230  -28.5300   24.8490 C   0  0  0  0  0  3  0  0  0  0  0  0
  -25.9840  -28.7200   23.2320 C   0  0  0  0  0  0  0  0  0  0  0  0
  -26.4200  -28.8170   25.6910 C   0  0  0  0  0  2  0  0  0  0  0  0
  -26.8860  -28.5180   24.2830 C   0  0  0  0  0  0  0  0  0  0  0  0
  -28.1910  -28.0480   24.0160 C   0  0  0  0  0  3  0  0  0  0  0  0
  -27.6640  -27.9840   21.6400 C   0  0  0  0  0  3  0  0  0  0  0  0
  -26.3640  -28.4430   21.9100 C   0  0  0  0  0  3  0  0  0  0  0  0
  -24.6090  -29.2330   23.5960 C   0  0  0  0  0  2  0  0  0  0  0  0
  -25.0220  -28.4090   25.9590 N   0  0  0  0  0  0  0  0  0  0  0  0
  -23.4180  -27.7570   27.4210 O   0  0  0  0  0  0  0  0  0  0  0  0
  -23.4250  -27.1730   24.4150 C   0  0  0  0  0  0  0  0  0  0  0  0
  -22.4530  -27.2190   23.4890 N   0  0  0  0  0  0  0  0  0  0  0  0
  -23.8490  -26.1140   24.8850 O   0  0  0  0  0  0  0  0  0  0  0  0
  -22.1560  -28.1270   23.1590 H   0  0  0  0  0  0  0  0  0  0  0  0
  -20.1790  -26.2130   20.8700 C   0  0  0  0  0  0  0  0  0  0  0  0
  -21.7690  -26.0680   22.9020 C   0  0  0  0  0  3  0  0  0  0  0  0
  -22.7160  -25.2710   21.9760 C   0  0  0  0  0  2  0  0  0  0  0  0
  -22.6310  -25.7050   20.5090 C   0  0  0  0  0  2  0  0  0  0  0  0
  -21.2050  -25.5310   19.9800 C   0  0  0  0  0  2  0  0  0  0  0  0
  -20.4500  -26.4780   22.2390 C   0  0  0  0  0  0  0  0  0  0  0  0
  -19.4780  -27.1470   23.0130 C   0  0  0  0  0  3  0  0  0  0  0  0
  -18.2520  -27.5440   22.4450 C   0  0  0  0  0  3  0  0  0  0  0  0
  -17.9810  -27.2620   21.0940 C   0  0  0  0  0  3  0  0  0  0  0  0
  -18.9410  -26.5960   20.3110 C   0  0  0  0  0  3  0  0  0  0  0  0
  -25.6150  -27.8270   28.3750 C   0  0  0  0  0  3  0  0  0  0  0  0
  -24.8700  -28.0550   29.6200 N   0  0  0  0  0  0  0  0  0  0  0  0
  -24.9160  -29.1850   30.3360 C   0  0  0  0  0  0  0  0  0  0  0  0
  -25.6580  -30.1300   30.0510 O   0  0  0  0  0  0  0  0  0  0  0  0
  -24.1980  -27.3480   29.8800 H   0  0  0  0  0  0  0  0  0  0  0  0
  -22.7060  -30.0320   31.1870 C   0  0  0  0  0  1  0  0  0  0  0  0
  -23.9930  -29.2820   31.5650 C   0  0  0  0  0  3  0  0  0  0  0  0
  -25.7080  -29.1530   33.3180 C   0  0  0  0  0  1  0  0  0  0  0  0
  -24.6280  -29.9410   32.7270 N   0  0  0  0  0  0  0  0  0  0  0  0
  -23.9420  -30.1320   33.4530 H   0  0  0  0  0  0  0  0  0  0  0  0
  -26.3210  -26.4150   28.3940 C   0  0  1  0  0  0  0  0  0  0  0  0
  -25.3300  -25.2290   28.4520 C   0  0  0  0  0  1  0  0  0  0  0  0
  -27.2100  -26.2290   27.1420 C   0  0  0  0  0  1  0  0  0  0  0  0
  -27.2580  -26.3150   29.6220 C   0  0  0  0  0  1  0  0  0  0  0  0
  -31.9290  -22.2180   19.9330 N   0  0  0  0  0  4  0  0  0  0  0  0
  -31.8400  -21.3170   20.3730 H   0  0  0  0  0  0  0  0  0  0  0  0
  -31.2150  -22.3350   19.2360 H   0  0  0  0  0  0  0  0  0  0  0  0
  -33.2390  -22.2040   19.2290 C   0  0  0  0  0  3  0  0  0  0  0  0
  -34.2860  -21.3730   19.9860 C   0  0  0  0  0  0  0  0  0  0  0  0
  -35.5280  -21.8360   20.0410 N   0  0  0  0  0  0  0  0  0  0  0  0
  -33.9700  -20.3110   20.5210 O   0  0  0  0  0  0  0  0  0  0  0  0
  -35.7770  -22.7200   19.6120 H   0  0  0  0  0  0  0  0  0  0  0  0
  -36.2480  -21.3030   20.5090 H   0  0  0  0  0  0  0  0  0  0  0  0
  -33.0770  -21.7000   17.7700 C   0  0  0  0  0  2  0  0  0  0  0  0
  -32.2080  -20.4260   17.5760 C   0  0  0  0  0  2  0  0  0  0  0  0
  -32.0300  -20.0260   16.1050 C   0  0  0  0  0  0  0  0  0  0  0  0
  -32.6620  -20.6040   15.2170 O   0  0  0  0  0  0  0  0  0  0  0  0
  -31.5980  -18.0360   14.5980 C   0  0  0  0  0  1  0  0  0  0  0  0
  -31.0530  -18.8800   15.7680 C   0  0  0  0  0  3  0  0  0  0  0  0
  -28.7850  -19.8210   16.6440 C   0  0  0  0  0  1  0  0  0  0  0  0
  -29.6220  -19.3720   15.4340 C   0  0  0  0  0  2  0  0  0  0  0  0
  -30.3420  -22.9200   21.7390 C   0  0  0  0  0  2  0  0  0  0  0  0
  -29.0420  -23.3800   21.0300 C   0  0  0  0  0  2  0  0  0  0  0  0
  -28.6460  -22.4970   19.8300 C   0  0  0  0  0  2  0  0  0  0  0  0
  -27.7180  -23.2200   18.8390 C   0  0  0  0  0  2  0  0  0  0  0  0
  -28.4030  -24.3940   18.1070 C   0  0  0  0  0  2  0  0  0  0  0  0
  -28.5520  -24.1590   16.5940 C   0  0  0  0  0  2  0  0  0  0  0  0
  -29.2950  -25.3000   15.8740 C   0  0  0  0  0  2  0  0  0  0  0  0
  -29.3730  -26.2660   13.5860 C   0  0  0  0  0  0  0  0  0  0  0  0
  -28.7340  -27.9580   11.9190 C   0  0  0  0  0  2  0  0  0  0  0  0
  -28.0480  -29.1220   12.6640 C   0  0  0  0  0  2  0  0  0  0  0  0
  -26.5390  -28.8520   12.8240 C   0  0  0  0  0  2  0  0  0  0  0  0
  -26.2430  -27.4400   13.4000 C   0  0  0  0  0  3  0  0  0  0  0  0
  -27.0430  -26.3620   12.6310 C   0  0  0  0  0  2  0  0  0  0  0  0
  -28.4730  -26.7280   12.6780 N   0  0  0  0  0  0  0  0  0  0  0  0
  -30.5330  -26.6730   13.6710 O   0  0  0  0  0  0  0  0  0  0  0  0
  -28.8490  -25.4300   14.4900 N   0  0  0  0  0  0  0  0  0  0  0  0
  -27.9150  -25.1110   14.2830 H   0  0  0  0  0  0  0  0  0  0  0  0
  -24.0070  -26.6550   14.4170 C   0  0  0  0  0  0  0  0  0  0  0  0
  -22.7350  -26.6290   13.9120 C   0  0  0  0  0  0  0  0  0  0  0  0
  -22.8290  -27.1250   12.5750 C   0  0  0  0  0  0  0  0  0  0  0  0
  -24.8100  -27.1490   13.4000 N   0  0  0  0  0  0  0  0  0  0  0  0
  -24.0940  -27.3860   12.2710 N   0  0  0  0  0  0  0  0  0  0  0  0
  -21.7800  -27.4240   11.5900 C   0  0  0  0  0  0  0  0  0  0  0  0
  -21.7860  -26.8400   10.3040 C   0  0  0  0  0  3  0  0  0  0  0  0
  -20.7580  -27.1300    9.3800 C   0  0  0  0  0  3  0  0  0  0  0  0
  -19.7080  -28.0080    9.7410 C   0  0  0  0  0  0  0  0  0  0  0  0
  -19.7170  -28.6050   11.0150 C   0  0  0  0  0  3  0  0  0  0  0  0
  -20.7440  -28.3180   11.9310 C   0  0  0  0  0  3  0  0  0  0  0  0
  -18.6850  -28.3700    8.8980 O   0  0  0  0  0  0  0  0  0  0  0  0
  -18.2250  -27.5270    7.9180 C   0  0  0  0  0  0  0  0  0  0  0  0
  -17.7540  -26.2300    8.2130 C   0  0  0  0  0  3  0  0  0  0  0  0
  -17.2290  -25.4210    7.1860 C   0  0  0  0  0  3  0  0  0  0  0  0
  -17.1650  -25.9110    5.8670 C   0  0  0  0  0  0  0  0  0  0  0  0
  -17.6270  -27.2050    5.5720 C   0  0  0  0  0  3  0  0  0  0  0  0
  -18.1540  -28.0120    6.5950 C   0  0  0  0  0  0  0  0  0  0  0  0
  -18.5810  -29.2660    6.3110 F   0  0  0  0  0  0  0  0  0  0  0  0
  -16.6510  -25.1390    4.8820 F   0  0  0  0  0  0  0  0  0  0  0  0
  -21.4850  -26.2500   14.6550 C   0  0  0  0  0  0  0  0  0  0  0  0
  -20.5080  -25.6740   13.9640 N   0  0  0  0  0  0  0  0  0  0  0  0
  -21.3840  -26.4260   15.8690 O   0  0  0  0  0  0  0  0  0  0  0  0
  -20.5910  -25.5090   12.9730 H   0  0  0  0  0  0  0  0  0  0  0  0
  -19.6620  -25.3900   14.4380 H   0  0  0  0  0  0  0  0  0  0  0  0
  -24.5400  -26.3170   15.6570 N   0  0  0  0  0  0  0  0  0  0  0  0
  -23.9530  -26.0100   16.4250 H   0  0  0  0  0  0  0  0  0  0  0  0
  -25.5160  -26.4080   15.9160 H   0  0  0  0  0  0  0  0  0  0  0  0
  1 66  1  0
  2  1  1  0
  2  3  1  0
  3  5  1  0
  4  2  2  0
  6  7  1  0
  6  3  1  0
  7  8  1  0
  8 10  1  0
  9 20  2  0
 10 15  1  0
 11 21  1  0
 11 19  1  0
 12 18  1  0
 12 14  1  0
 13 19  1  0
 14 13  1  0
 15 14  2  0
 16 17  1  0
 16 10  2  0
 17 12  2  0
 18 11  1  0
 19  9  1  0
 21 23  2  0
 22 21  1  0
 24 22  1  0
 25 30  1  0
 26 22  1  0
 27 26  1  0
 28 27  1  0
 29 28  1  0
 29 25  1  0
 30 26  1  0
 30 31  2  0
 32 31  1  0
 33 32  2  0
 34 25  2  0
 34 33  1  0
 35  9  1  0
 35 45  1  0
 35 36  1  0
 36 39  1  0
 36 37  1  0
 37 41  1  0
 38 37  2  0
 41 40  1  0
 41 43  1  0
 43 42  1  0
 43 44  1  0
 45 46  1  1
 45 48  1  0
 47 45  1  0
 49 50  1  0
 49  1  1  0
 51 49  1  0
 52 58  1  0
 52 49  1  0
 52 53  1  0
 53 54  1  0
 53 55  2  0
 54 57  1  0
 56 54  1  0
 59 58  1  0
 60 59  1  0
 61 60  2  0
 63 62  1  0
 63 60  1  0
 65 63  1  0
 65 64  1  0
 67 66  1  0
 68 67  1  0
 69 68  1  0
 70 69  1  0
 71 70  1  0
 72 71  1  0
 73 80  2  0
 73 81  1  0
 74 75  1  0
 74 79  1  0
 75 76  1  0
 76 77  1  0
 77 78  1  0
 78 79  1  0
 79 73  1  0
 81 72  1  0
 82 81  1  0
 83108  1  0
 84 83  2  0
 84103  1  0
 85 84  1  0
 86 77  1  0
 86 83  1  0
 87 85  2  0
 87 86  1  0
 88 93  1  0
 88 85  1  0
 89 88  2  0
 90 91  2  0
 90 89  1  0
 91 92  1  0
 92 93  2  0
 94 91  1  0
 95 96  1  0
 95 94  1  0
 97 96  2  0
 98 97  1  0
 99 98  2  0
 99100  1  0
100 95  2  0
101100  1  0
102 98  1  0
103105  2  0
104107  1  0
104103  1  0
106104  1  0
108110  1  0
108109  1  0
M  ISO  4   7 101   8 101  73 100  81 100
M  END
>  <TORSDO>  (54) 
F 34

>  <SCORE>  (54) 
-4.830

>  <name>  (54) 
54

>  <ligand_id>  (54) 
54

>  <original_smiles>  (54) 
[H]c1c([H])c([H])c2c(c1[H])C([H])([H])C([H])([H])C([H])([H])C2([H])N([H])C(=O)C1([H])N(C(=O)C([H])(N([H])C(=O)C([H])(N([H])C([H])([H])[H])C([H])([H])[H])C(C([H])([H])[H])(C([H])([H])[H])C([H])([H])[H])C([H])([H])c2c([H])c(OC([H])([H])C([H])([H])N([H])C(=O)C([H])(C([H])([H])C([H])([H])C([H])([H])C([H])([H])C([H])([H])C([H])([H])C([H])([H])N([H])C(=O)N3C([H])([H])C([H])([H])C([H])([H])C([H])(n4nc(-c5c([H])c([H])c(Oc6c([H])c([H])c(F)c([H])c6F)c([H])c5[H])c(C(=O)N([H])[H])c4N([H])[H])C3([H])[H])[N+]([H])([H])C([H])(C(=O)N([H])[H])C([H])([H])C([H])([H])C(=O)C([H])(C([H])([H])[H])C([H])([H])C([H])([H])[H])c([H])c([H])c2C1([H])[H]

>  <smiles>  (54) 
[H]c1c([H])c([H])c2c(c1[H])C([H])([H])C([H])([H])C([H])([H])C2([H])N([H])C(=O)C1([H])N(C(=O)C([H])(N([H])C(=O)C([H])(N([H])C([H])([H])[H])C([H])([H])[H])C(C([H])([H])[H])(C([H])([H])[H])C([H])([H])[H])C([H])([H])c2c([H])c(OC([H])([H])C([H])([H])N([H])C(=O)C([H])(C([H])([H])C([H])([H])C([H])([H])C([H])([H])C([H])([H])C([H])([H])C([H])([H])N([H])C(=O)N3C([H])([H])C([H])([H])C([H])([H])C([H])(n4nc(-c5c([H])c([H])c(Oc6c([H])c([H])c(F)c([H])c6F)c([H])c5[H])c(C(=O)N([H])[H])c4N([H])[H])C3([H])[H])[N+]([H])([H])C([H])(C(=O)N([H])[H])C([H])([H])C([H])([H])C(=O)C([H])(C([H])([H])[H])C([H])([H])C([H])([H])[H])c([H])c([H])c2C1([H])[H]

$$$$
55:0:0
     RDKit          3D

 94101  0  0  1  0  0  0  0  0999 V2000
  -27.3470  -21.0330   18.4840 N   0  0  0  0  0  4  0  0  0  0  0  0
  -26.5250  -21.3560   18.0000 H   0  0  0  0  0  0  0  0  0  0  0  0
  -27.9880  -20.7240   17.7710 H   0  0  0  0  0  0  0  0  0  0  0  0
  -27.9270  -22.1950   19.2020 C   0  0  0  0  0  2  0  0  0  0  0  0
  -27.8940  -23.4570   18.3050 C   0  0  0  0  0  2  0  0  0  0  0  0
  -28.6700  -24.7020   18.7980 C   0  0  0  0  0  2  0  0  0  0  0  0
  -28.2600  -25.2620   20.1740 C   0  0  0  0  0  2  0  0  0  0  0  0
  -28.3750  -26.6960   20.2190 O   0  0  0  0  0  0  0  0  0  0  0  0
  -24.5540  -31.8770   23.2550 C   0  0  0  0  0  0  0  0  0  0  0  0
  -27.2070  -27.4320   20.1790 C   0  0  0  0  0  0  0  0  0  0  0  0
  -23.3590  -30.4900   21.5930 C   0  0  0  0  0  3  0  0  0  0  0  0
  -24.8180  -28.9550   20.1770 C   0  0  0  0  0  0  0  0  0  0  0  0
  -25.8910  -30.8340   21.4270 C   0  0  0  0  0  2  0  0  0  0  0  0
  -25.9740  -29.4700   20.7760 C   0  0  0  0  0  0  0  0  0  0  0  0
  -27.1740  -28.7180   20.7690 C   0  0  0  0  0  3  0  0  0  0  0  0
  -26.0320  -26.9400   19.5640 C   0  0  0  0  0  3  0  0  0  0  0  0
  -24.8430  -27.6900   19.5690 C   0  0  0  0  0  3  0  0  0  0  0  0
  -23.5810  -29.8210   20.2120 C   0  0  0  0  0  2  0  0  0  0  0  0
  -24.6180  -31.0810   22.1500 N   0  0  0  0  0  0  0  0  0  0  0  0
  -23.4680  -32.1510   23.7840 O   0  0  0  0  0  0  0  0  0  0  0  0
  -22.6970  -29.4650   22.5400 C   0  0  0  0  0  0  0  0  0  0  0  0
  -21.3720  -29.2870   22.3970 N   0  0  0  0  0  0  0  0  0  0  0  0
  -23.3690  -28.8330   23.3580 O   0  0  0  0  0  0  0  0  0  0  0  0
  -20.8940  -29.8540   21.7120 H   0  0  0  0  0  0  0  0  0  0  0  0
  -17.9890  -28.1020   22.8520 C   0  0  0  0  0  0  0  0  0  0  0  0
  -20.5460  -28.3450   23.1510 C   0  0  0  0  0  3  0  0  0  0  0  0
  -20.6470  -26.9200   22.5600 C   0  0  0  0  0  2  0  0  0  0  0  0
  -19.5520  -26.6120   21.5330 C   0  0  0  0  0  2  0  0  0  0  0  0
  -18.1670  -26.7560   22.1700 C   0  0  0  0  0  2  0  0  0  0  0  0
  -19.1070  -28.8550   23.3000 C   0  0  0  0  0  0  0  0  0  0  0  0
  -18.8900  -30.1160   23.8950 C   0  0  0  0  0  3  0  0  0  0  0  0
  -17.5870  -30.6260   24.0480 C   0  0  0  0  0  3  0  0  0  0  0  0
  -16.4830  -29.8710   23.6170 C   0  0  0  0  0  3  0  0  0  0  0  0
  -16.6840  -28.6100   23.0270 C   0  0  0  0  0  3  0  0  0  0  0  0
  -25.8370  -32.4990   23.8890 C   0  0  0  0  0  3  0  0  0  0  0  0
  -26.3320  -31.7290   25.1740 C   0  0  1  0  0  0  0  0  0  0  0  0
  -25.2210  -31.5050   26.2260 C   0  0  0  0  0  1  0  0  0  0  0  0
  -26.9130  -30.3460   24.7970 C   0  0  0  0  0  1  0  0  0  0  0  0
  -27.4780  -32.5180   25.8490 C   0  0  0  0  0  1  0  0  0  0  0  0
  -25.5340  -33.9000   24.2070 N   0  0  0  0  0  0  0  0  0  0  0  0
  -25.8830  -34.9450   23.4450 C   0  0  0  0  0  0  0  0  0  0  0  0
  -26.5670  -34.8310   22.4230 O   0  0  0  0  0  0  0  0  0  0  0  0
  -24.9260  -34.0620   24.9960 H   0  0  0  0  0  0  0  0  0  0  0  0
  -24.1700  -36.7450   23.0580 C   0  0  0  0  0  1  0  0  0  0  0  0
  -25.3980  -36.3380   23.8880 C   0  0  0  0  0  3  0  0  0  0  0  0
  -27.5260  -37.2160   24.7430 C   0  0  0  0  0  1  0  0  0  0  0  0
  -26.4380  -37.3840   23.7820 N   0  0  0  0  0  0  0  0  0  0  0  0
  -26.0360  -38.3080   23.9170 H   0  0  0  0  0  0  0  0  0  0  0  0
  -26.9110  -19.8690   19.2950 C   0  0  0  0  0  2  0  0  0  0  0  0
  -28.0320  -19.1240   20.0570 C   0  0  0  0  0  2  0  0  0  0  0  0
  -29.2040  -18.6190   19.1830 C   0  0  0  0  0  2  0  0  0  0  0  0
  -29.6640  -17.1640   19.4290 C   0  0  0  0  0  2  0  0  0  0  0  0
  -29.8580  -16.6400   20.8860 C   0  0  0  0  0  3  0  0  0  0  0  0
  -30.4780  -14.2830   20.1260 C   0  0  0  0  0  0  0  0  0  0  0  0
  -30.1470  -12.1720   18.8890 C   0  0  0  0  0  2  0  0  0  0  0  0
  -29.1250  -12.4140   17.7560 C   0  0  0  0  0  2  0  0  0  0  0  0
  -27.6780  -12.2580   18.2670 C   0  0  0  0  0  2  0  0  0  0  0  0
  -27.4190  -13.0550   19.5710 C   0  0  0  0  0  3  0  0  0  0  0  0
  -28.5310  -12.7630   20.6040 C   0  0  0  0  0  2  0  0  0  0  0  0
  -29.8300  -13.0980   19.9870 N   0  0  0  0  0  0  0  0  0  0  0  0
  -31.5180  -14.5690   19.5230 O   0  0  0  0  0  0  0  0  0  0  0  0
  -29.8020  -15.1720   20.8730 N   0  0  0  0  0  0  0  0  0  0  0  0
  -29.0110  -14.7750   21.3590 H   0  0  0  0  0  0  0  0  0  0  0  0
  -25.0410  -13.6510   20.3560 C   0  0  0  0  0  0  0  0  0  0  0  0
  -24.0030  -12.8710   20.7950 C   0  0  0  0  0  0  0  0  0  0  0  0
  -24.4860  -11.5270   20.7820 C   0  0  0  0  0  0  0  0  0  0  0  0
  -26.0910  -12.7790   20.1110 N   0  0  0  0  0  0  0  0  0  0  0  0
  -25.7620  -11.4990   20.4180 N   0  0  0  0  0  0  0  0  0  0  0  0
  -23.7950  -10.2590   21.0410 C   0  0  0  0  0  0  0  0  0  0  0  0
  -24.2700   -9.3430   22.0050 C   0  0  0  0  0  3  0  0  0  0  0  0
  -23.5790   -8.1370   22.2490 C   0  0  0  0  0  3  0  0  0  0  0  0
  -22.3980   -7.8390   21.5310 C   0  0  0  0  0  0  0  0  0  0  0  0
  -21.9410   -8.7440   20.5570 C   0  0  0  0  0  3  0  0  0  0  0  0
  -22.6340   -9.9410   20.3110 C   0  0  0  0  0  3  0  0  0  0  0  0
  -21.6760   -6.6810   21.6840 O   0  0  0  0  0  0  0  0  0  0  0  0
  -21.6570   -5.9960   22.8710 C   0  0  0  0  0  0  0  0  0  0  0  0
  -21.2170   -6.5960   24.0720 C   0  0  0  0  0  3  0  0  0  0  0  0
  -21.1460   -5.8350   25.2560 C   0  0  0  0  0  3  0  0  0  0  0  0
  -21.5070   -4.4740   25.2400 C   0  0  0  0  0  0  0  0  0  0  0  0
  -21.9380   -3.8730   24.0450 C   0  0  0  0  0  3  0  0  0  0  0  0
  -22.0100   -4.6310   22.8640 C   0  0  0  0  0  0  0  0  0  0  0  0
  -22.4070   -4.0430   21.7100 F   0  0  0  0  0  0  0  0  0  0  0  0
  -21.4310   -3.7400   26.3750 F   0  0  0  0  0  0  0  0  0  0  0  0
  -22.6110  -13.3320   21.1200 C   0  0  0  0  0  0  0  0  0  0  0  0
  -21.9410  -12.6450   22.0390 N   0  0  0  0  0  0  0  0  0  0  0  0
  -22.1300  -14.3350   20.5970 O   0  0  0  0  0  0  0  0  0  0  0  0
  -22.3460  -11.8310   22.4800 H   0  0  0  0  0  0  0  0  0  0  0  0
  -21.0100  -12.9350   22.3060 H   0  0  0  0  0  0  0  0  0  0  0  0
  -25.1770  -15.0160   20.1260 N   0  0  0  0  0  0  0  0  0  0  0  0
  -24.4110  -15.6720   20.2380 H   0  0  0  0  0  0  0  0  0  0  0  0
  -26.0120  -15.4440   19.7440 H   0  0  0  0  0  0  0  0  0  0  0  0
  -30.9750  -18.6870   21.9750 C   0  0  0  0  0  1  0  0  0  0  0  0
  -31.3340  -16.4380   22.9910 C   0  0  0  0  0  1  0  0  0  0  0  0
  -31.0950  -17.1830   21.6600 C   0  0  0  0  0  3  0  0  0  0  0  0
  1  4  1  0
  1 49  1  0
  2  1  1  0
  3  1  1  0
  5  6  1  0
  5  4  1  0
  6  7  1  0
  7  8  1  0
  9 20  2  0
 10  8  1  0
 10 15  1  0
 11 19  1  0
 11 21  1  0
 12 18  1  0
 12 14  1  0
 13 19  1  0
 14 13  1  0
 15 14  2  0
 16 17  1  0
 16 10  2  0
 17 12  2  0
 18 11  1  0
 19  9  1  0
 21 23  2  0
 22 21  1  0
 24 22  1  0
 25 34  2  0
 25 30  1  0
 26 22  1  0
 26 30  1  0
 27 26  1  0
 28 29  1  0
 28 27  1  0
 29 25  1  0
 30 31  2  0
 31 32  1  0
 33 32  2  0
 34 33  1  0
 35  9  1  0
 35 40  1  0
 35 36  1  0
 36 39  1  1
 36 37  1  0
 38 36  1  0
 40 43  1  0
 41 45  1  0
 41 40  1  0
 42 41  2  0
 45 44  1  0
 47 45  1  0
 47 48  1  0
 47 46  1  0
 49 50  1  0
 51 52  1  0
 51 50  1  0
 53 52  1  0
 53 94  1  0
 54 62  1  0
 55 60  1  0
 56 57  1  0
 56 55  1  0
 58 57  1  0
 58 67  1  0
 58 59  1  0
 60 54  1  0
 60 59  1  0
 61 54  2  0
 62 53  1  0
 62 63  1  0
 64 65  2  0
 65 84  1  0
 66 65  1  0
 66 69  1  0
 67 64  1  0
 67 68  1  0
 68 66  2  0
 69 70  1  0
 70 71  2  0
 72 75  1  0
 72 71  1  0
 73 72  2  0
 74 73  1  0
 74 69  2  0
 75 76  1  0
 76 77  1  0
 77 78  2  0
 79 78  1  0
 79 83  1  0
 80 79  2  0
 81 76  2  0
 81 80  1  0
 82 81  1  0
 84 85  1  0
 85 88  1  0
 85 87  1  0
 86 84  2  0
 89 90  1  0
 89 64  1  0
 91 89  1  0
 94 92  1  0
 94 93  1  0
M  ISO  4   7 101   8 101  54 100  62 100
M  END
>  <TORSDO>  (55) 
F 26

>  <SCORE>  (55) 
-10.678

>  <name>  (55) 
55

>  <ligand_id>  (55) 
55

>  <original_smiles>  (55) 
[H]c1c([H])c([H])c2c(c1[H])C([H])([H])C([H])([H])C([H])([H])C2([H])N([H])C(=O)C1([H])N(C(=O)C([H])(N([H])C(=O)C([H])(N([H])C([H])([H])[H])C([H])([H])[H])C(C([H])([H])[H])(C([H])([H])[H])C([H])([H])[H])C([H])([H])c2c([H])c(OC([H])([H])C([H])([H])C([H])([H])C([H])([H])[N+]([H])([H])C([H])([H])C([H])([H])C([H])([H])C([H])([H])C([H])(N([H])C(=O)N3C([H])([H])C([H])([H])C([H])([H])C([H])(n4nc(-c5c([H])c([H])c(Oc6c([H])c([H])c(F)c([H])c6F)c([H])c5[H])c(C(=O)N([H])[H])c4N([H])[H])C3([H])[H])C([H])(C([H])([H])[H])C([H])([H])[H])c([H])c([H])c2C1([H])[H]

>  <smiles>  (55) 
[H]c1c([H])c([H])c2c(c1[H])C([H])([H])C([H])([H])C([H])([H])C2([H])N([H])C(=O)C1([H])N(C(=O)C([H])(N([H])C(=O)C([H])(N([H])C([H])([H])[H])C([H])([H])[H])C(C([H])([H])[H])(C([H])([H])[H])C([H])([H])[H])C([H])([H])c2c([H])c(OC([H])([H])C([H])([H])C([H])([H])C([H])([H])[N+]([H])([H])C([H])([H])C([H])([H])C([H])([H])C([H])([H])C([H])(N([H])C(=O)N3C([H])([H])C([H])([H])C([H])([H])C([H])(n4nc(-c5c([H])c([H])c(Oc6c([H])c([H])c(F)c([H])c6F)c([H])c5[H])c(C(=O)N([H])[H])c4N([H])[H])C3([H])[H])C([H])(C([H])([H])[H])C([H])([H])[H])c([H])c([H])c2C1([H])[H]

$$$$
56:0:0
     RDKit          3D

102109  0  0  1  0  0  0  0  0999 V2000
  -30.4670  -19.5720   21.0760 C   0  0  0  0  0  3  0  0  0  0  0  0
  -29.4320  -21.9050   20.8680 C   0  0  0  0  0  0  0  0  0  0  0  0
  -29.7880  -20.6950   20.3630 N   0  0  0  0  0  0  0  0  0  0  0  0
  -29.4630  -22.1380   22.0760 O   0  0  0  0  0  0  0  0  0  0  0  0
  -29.6610  -20.5540   19.3680 H   0  0  0  0  0  0  0  0  0  0  0  0
  -29.0510  -23.0470   19.8830 C   0  0  0  0  0  2  0  0  0  0  0  0
  -27.9730  -24.0890   20.3490 C   0  0  0  0  0  2  0  0  0  0  0  0
  -28.4340  -25.4450   20.9890 C   0  0  0  0  0  2  0  0  0  0  0  0
  -28.3890  -26.6430   20.1680 O   0  0  0  0  0  0  0  0  0  0  0  0
  -24.5700  -31.8930   23.2380 C   0  0  0  0  0  0  0  0  0  0  0  0
  -27.2280  -27.4000   20.2040 C   0  0  0  0  0  0  0  0  0  0  0  0
  -23.3750  -30.4820   21.5980 C   0  0  0  0  0  3  0  0  0  0  0  0
  -24.8370  -28.9340   20.1900 C   0  0  0  0  0  0  0  0  0  0  0  0
  -25.9050  -30.8320   21.4140 C   0  0  0  0  0  2  0  0  0  0  0  0
  -25.9960  -29.4540   20.7830 C   0  0  0  0  0  0  0  0  0  0  0  0
  -27.1960  -28.6970   20.7820 C   0  0  0  0  0  3  0  0  0  0  0  0
  -26.0510  -26.9070   19.6020 C   0  0  0  0  0  3  0  0  0  0  0  0
  -24.8630  -27.6630   19.5950 C   0  0  0  0  0  3  0  0  0  0  0  0
  -23.5930  -29.7970   20.2230 C   0  0  0  0  0  2  0  0  0  0  0  0
  -24.6350  -31.0870   22.1410 N   0  0  0  0  0  0  0  0  0  0  0  0
  -23.4860  -32.1680   23.7710 O   0  0  0  0  0  0  0  0  0  0  0  0
  -22.7170  -29.4670   22.5600 C   0  0  0  0  0  0  0  0  0  0  0  0
  -21.3920  -29.2910   22.4330 N   0  0  0  0  0  0  0  0  0  0  0  0
  -23.3970  -28.8390   23.3770 O   0  0  0  0  0  0  0  0  0  0  0  0
  -20.9050  -29.8480   21.7460 H   0  0  0  0  0  0  0  0  0  0  0  0
  -18.0100  -28.1250   22.9490 C   0  0  0  0  0  0  0  0  0  0  0  0
  -20.5710  -28.3580   23.2060 C   0  0  0  0  0  3  0  0  0  0  0  0
  -20.6570  -26.9290   22.6230 C   0  0  0  0  0  2  0  0  0  0  0  0
  -19.5470  -26.6220   21.6130 C   0  0  0  0  0  2  0  0  0  0  0  0
  -18.1690  -26.7780   22.2650 C   0  0  0  0  0  2  0  0  0  0  0  0
  -19.1380  -28.8740   23.3750 C   0  0  0  0  0  0  0  0  0  0  0  0
  -18.9350  -30.1370   23.9750 C   0  0  0  0  0  3  0  0  0  0  0  0
  -17.6370  -30.6510   24.1490 C   0  0  0  0  0  3  0  0  0  0  0  0
  -16.5230  -29.8990   23.7390 C   0  0  0  0  0  3  0  0  0  0  0  0
  -16.7100  -28.6380   23.1460 C   0  0  0  0  0  3  0  0  0  0  0  0
  -25.8520  -32.5290   23.8610 C   0  0  0  0  0  3  0  0  0  0  0  0
  -26.3660  -31.7640   25.1430 C   0  0  1  0  0  0  0  0  0  0  0  0
  -25.2690  -31.5250   26.2060 C   0  0  0  0  0  1  0  0  0  0  0  0
  -26.9550  -30.3870   24.7570 C   0  0  0  0  0  1  0  0  0  0  0  0
  -27.5120  -32.5640   25.8060 C   0  0  0  0  0  1  0  0  0  0  0  0
  -25.5400  -33.9280   24.1830 N   0  0  0  0  0  0  0  0  0  0  0  0
  -25.8830  -34.9770   23.4240 C   0  0  0  0  0  0  0  0  0  0  0  0
  -26.5670  -34.8700   22.4020 O   0  0  0  0  0  0  0  0  0  0  0  0
  -24.9320  -34.0840   24.9730 H   0  0  0  0  0  0  0  0  0  0  0  0
  -24.1680  -36.7770   23.0340 C   0  0  0  0  0  1  0  0  0  0  0  0
  -25.3910  -36.3680   23.8710 C   0  0  0  0  0  3  0  0  0  0  0  0
  -27.5100  -37.2450   24.7460 C   0  0  0  0  0  1  0  0  0  0  0  0
  -26.4280  -37.4180   23.7810 N   0  0  0  0  0  0  0  0  0  0  0  0
  -26.0210  -38.3380   23.9210 H   0  0  0  0  0  0  0  0  0  0  0  0
  -29.9410  -18.1330   20.6880 C   0  0  0  0  0  0  0  0  0  0  0  0
  -29.1140  -17.9510   19.7880 O   0  0  0  0  0  0  0  0  0  0  0  0
  -30.5110  -16.9060   21.4650 C   0  0  0  0  0  2  0  0  0  0  0  0
  -30.6470  -14.5440   20.5370 C   0  0  0  0  0  0  0  0  0  0  0  0
  -30.3610  -12.3800   19.3640 C   0  0  0  0  0  2  0  0  0  0  0  0
  -29.4270  -12.5630   18.1490 C   0  0  0  0  0  2  0  0  0  0  0  0
  -27.9510  -12.4210   18.5670 C   0  0  0  0  0  2  0  0  0  0  0  0
  -27.6000  -13.2600   19.8230 C   0  0  0  0  0  3  0  0  0  0  0  0
  -28.6450  -13.0550   20.9410 C   0  0  0  0  0  2  0  0  0  0  0  0
  -29.9680  -13.3720   20.3790 N   0  0  0  0  0  0  0  0  0  0  0  0
  -31.7910  -14.7050   20.1040 O   0  0  0  0  0  0  0  0  0  0  0  0
  -29.9630  -15.5720   21.0890 N   0  0  0  0  0  0  0  0  0  0  0  0
  -28.9990  -15.3960   21.3300 H   0  0  0  0  0  0  0  0  0  0  0  0
  -25.1960  -13.8670   20.5000 C   0  0  0  0  0  0  0  0  0  0  0  0
  -24.1230  -13.0960   20.8580 C   0  0  0  0  0  0  0  0  0  0  0  0
  -24.5860  -11.7440   20.8430 C   0  0  0  0  0  0  0  0  0  0  0  0
  -26.2440  -12.9850   20.2890 N   0  0  0  0  0  0  0  0  0  0  0  0
  -25.8800  -11.7040   20.5550 N   0  0  0  0  0  0  0  0  0  0  0  0
  -23.8580  -10.4840   21.0300 C   0  0  0  0  0  0  0  0  0  0  0  0
  -24.2730   -9.5240   21.9810 C   0  0  0  0  0  3  0  0  0  0  0  0
  -23.5460   -8.3280   22.1560 C   0  0  0  0  0  3  0  0  0  0  0  0
  -22.3890   -8.0810   21.3800 C   0  0  0  0  0  0  0  0  0  0  0  0
  -21.9920   -9.0280   20.4200 C   0  0  0  0  0  3  0  0  0  0  0  0
  -22.7210  -10.2160   20.2430 C   0  0  0  0  0  3  0  0  0  0  0  0
  -21.6330   -6.9360   21.4640 O   0  0  0  0  0  0  0  0  0  0  0  0
  -21.5590   -6.2060   22.6220 C   0  0  0  0  0  0  0  0  0  0  0  0
  -21.0980   -6.7720   23.8310 C   0  0  0  0  0  3  0  0  0  0  0  0
  -20.9710   -5.9690   24.9810 C   0  0  0  0  0  3  0  0  0  0  0  0
  -21.2950   -4.6000   24.9240 C   0  0  0  0  0  0  0  0  0  0  0  0
  -21.7490   -4.0330   23.7200 C   0  0  0  0  0  3  0  0  0  0  0  0
  -21.8780   -4.8350   22.5730 C   0  0  0  0  0  0  0  0  0  0  0  0
  -22.2950   -4.2790   21.4100 F   0  0  0  0  0  0  0  0  0  0  0  0
  -21.1670   -3.8250   26.0270 F   0  0  0  0  0  0  0  0  0  0  0  0
  -22.7220  -13.5740   21.1060 C   0  0  0  0  0  0  0  0  0  0  0  0
  -21.9820  -12.8800   21.9630 N   0  0  0  0  0  0  0  0  0  0  0  0
  -22.2910  -14.5960   20.5760 O   0  0  0  0  0  0  0  0  0  0  0  0
  -22.3420  -12.0510   22.4110 H   0  0  0  0  0  0  0  0  0  0  0  0
  -21.0400  -13.1790   22.1740 H   0  0  0  0  0  0  0  0  0  0  0  0
  -25.3640  -15.2370   20.3160 N   0  0  0  0  0  0  0  0  0  0  0  0
  -24.6000  -15.8960   20.4090 H   0  0  0  0  0  0  0  0  0  0  0  0
  -26.2220  -15.6690   19.9960 H   0  0  0  0  0  0  0  0  0  0  0  0
  -32.0090  -19.6910   20.9040 C   0  0  0  0  0  2  0  0  0  0  0  0
  -32.6420  -21.0310   21.3350 C   0  0  0  0  0  2  0  0  0  0  0  0
  -34.1770  -21.0440   21.2330 C   0  0  0  0  0  2  0  0  0  0  0  0
  -36.0500  -20.5040   22.8260 C   0  0  0  0  0  0  0  0  0  0  0  0
  -36.4930  -19.7320   23.8170 N   0  0  0  0  0  0  0  0  0  0  0  0
  -36.8440  -21.4540   22.3290 N   0  0  0  0  0  4  0  0  0  0  0  0
  -34.8130  -20.3130   22.3440 N   0  0  0  0  0  0  0  0  0  0  0  0
  -37.4190  -19.8330   24.2120 H   0  0  0  0  0  0  0  0  0  0  0  0
  -35.9310  -18.9970   24.2260 H   0  0  0  0  0  0  0  0  0  0  0  0
  -37.7800  -21.6190   22.6750 H   0  0  0  0  0  0  0  0  0  0  0  0
  -36.5390  -22.0580   21.5790 H   0  0  0  0  0  0  0  0  0  0  0  0
  -34.2520  -19.5590   22.7230 H   0  0  0  0  0  0  0  0  0  0  0  0
  1 91  1  0
  2  4  2  0
  3  2  1  0
  3  1  1  0
  5  3  1  0
  6  7  1  0
  6  2  1  0
  7  8  1  0
  9 11  1  0
  9  8  1  0
 10 21  2  0
 11 16  1  0
 12 20  1  0
 12 22  1  0
 13 19  1  0
 13 15  1  0
 14 20  1  0
 15 14  1  0
 16 15  2  0
 17 11  2  0
 18 17  1  0
 18 13  2  0
 19 12  1  0
 20 10  1  0
 22 24  2  0
 23 22  1  0
 25 23  1  0
 26 35  2  0
 26 31  1  0
 27 23  1  0
 27 31  1  0
 28 27  1  0
 29 30  1  0
 29 28  1  0
 30 26  1  0
 31 32  2  0
 32 33  1  0
 34 33  2  0
 35 34  1  0
 36 10  1  0
 36 41  1  0
 36 37  1  0
 37 40  1  1
 37 38  1  0
 39 37  1  0
 41 44  1  0
 42 46  1  0
 42 41  1  0
 43 42  2  0
 46 45  1  0
 48 46  1  0
 48 49  1  0
 48 47  1  0
 50  1  1  0
 50 52  1  0
 51 50  2  0
 53 61  1  0
 54 59  1  0
 55 56  1  0
 55 54  1  0
 57 56  1  0
 57 66  1  0
 57 58  1  0
 59 53  1  0
 59 58  1  0
 60 53  2  0
 61 62  1  0
 61 52  1  0
 63 64  2  0
 64 83  1  0
 65 64  1  0
 65 68  1  0
 66 63  1  0
 66 67  1  0
 67 65  2  0
 68 69  1  0
 69 70  2  0
 71 74  1  0
 71 70  1  0
 72 71  2  0
 73 72  1  0
 73 68  2  0
 74 75  1  0
 75 76  1  0
 76 77  2  0
 78 77  1  0
 78 82  1  0
 79 78  2  0
 80 75  2  0
 80 79  1  0
 81 80  1  0
 83 84  1  0
 84 87  1  0
 84 86  1  0
 85 83  2  0
 88 89  1  0
 88 63  1  0
 90 88  1  0
 91 92  1  0
 93 92  1  0
 93 97  1  0
 94 95  1  0
 95 98  1  0
 95 99  1  0
 96100  1  0
 96 94  2  0
 97102  1  0
 97 94  1  0
101 96  1  0
M  ISO  4   8 101   9 101  53 100  61 100
M  END
>  <TORSDO>  (56) 
F 26

>  <SCORE>  (56) 
-12.620

>  <name>  (56) 
56

>  <ligand_id>  (56) 
56

>  <original_smiles>  (56) 
[H]c1c([H])c([H])c2c(c1[H])C([H])([H])C([H])([H])C([H])([H])C2([H])N([H])C(=O)C1([H])N(C(=O)C([H])(N([H])C(=O)C([H])(N([H])C([H])([H])[H])C([H])([H])[H])C(C([H])([H])[H])(C([H])([H])[H])C([H])([H])[H])C([H])([H])c2c([H])c(OC([H])([H])C([H])([H])C([H])([H])C(=O)N([H])C([H])(C(=O)C([H])([H])N([H])C(=O)N3C([H])([H])C([H])([H])C([H])([H])C([H])(n4nc(-c5c([H])c([H])c(Oc6c([H])c([H])c(F)c([H])c6F)c([H])c5[H])c(C(=O)N([H])[H])c4N([H])[H])C3([H])[H])C([H])([H])C([H])([H])C([H])([H])N([H])C(N([H])[H])=[N+]([H])[H])c([H])c([H])c2C1([H])[H]

>  <smiles>  (56) 
[H]c1c([H])c([H])c2c(c1[H])C([H])([H])C([H])([H])C([H])([H])C2([H])N([H])C(=O)C1([H])N(C(=O)C([H])(N([H])C(=O)C([H])(N([H])C([H])([H])[H])C([H])([H])[H])C(C([H])([H])[H])(C([H])([H])[H])C([H])([H])[H])C([H])([H])c2c([H])c(OC([H])([H])C([H])([H])C([H])([H])C(=O)N([H])C([H])(C(=O)C([H])([H])N([H])C(=O)N3C([H])([H])C([H])([H])C([H])([H])C([H])(n4nc(-c5c([H])c([H])c(Oc6c([H])c([H])c(F)c([H])c6F)c([H])c5[H])c(C(=O)N([H])[H])c4N([H])[H])C3([H])[H])C([H])([H])C([H])([H])C([H])([H])N([H])C(N([H])[H])=[N+]([H])[H])c([H])c([H])c2C1([H])[H]

$$$$
57:0:0
     RDKit          3D

101110  0  0  1  0  0  0  0  0999 V2000
  -29.9440  -17.9400   20.7800 C   0  0  0  0  0  0  0  0  0  0  0  0
  -31.4190  -21.0720   22.8760 C   0  0  0  0  0  2  0  0  0  0  0  0
  -31.8650  -21.8000   20.5230 C   0  0  0  0  0  2  0  0  0  0  0  0
  -32.2470  -19.8040   22.5820 C   0  0  0  0  0  2  0  0  0  0  0  0
  -32.5280  -20.4520   20.1700 C   0  0  0  0  0  2  0  0  0  0  0  0
  -29.7680  -20.4390   21.0760 C   0  0  0  0  0  3  0  0  0  0  0  0
  -30.7530  -21.5540   21.5720 C   0  0  0  0  0  3  0  0  0  0  0  0
  -32.0140  -19.3430   21.1170 C   0  0  0  0  0  3  0  0  0  0  0  0
  -30.5530  -19.1620   20.9110 N   0  0  0  0  0  0  0  0  0  0  0  0
  -28.7140  -17.8400   20.7130 O   0  0  0  0  0  0  0  0  0  0  0  0
  -29.0320  -20.9610   19.8100 C   0  0  0  0  0  0  0  0  0  0  0  0
  -28.4370  -22.1670   19.9200 N   0  0  0  0  0  0  0  0  0  0  0  0
  -29.0260  -20.3130   18.7600 O   0  0  0  0  0  0  0  0  0  0  0  0
  -28.4930  -22.6080   20.8280 H   0  0  0  0  0  0  0  0  0  0  0  0
  -27.6980  -22.9030   18.8860 C   0  0  0  0  0  2  0  0  0  0  0  0
  -28.1380  -24.3850   18.6960 C   0  0  0  0  0  2  0  0  0  0  0  0
  -27.9250  -25.3280   19.9030 C   0  0  0  0  0  2  0  0  0  0  0  0
  -28.0260  -26.7240   19.5430 O   0  0  0  0  0  0  0  0  0  0  0  0
  -24.5290  -31.7870   23.1410 C   0  0  0  0  0  0  0  0  0  0  0  0
  -26.8740  -27.4800   19.6480 C   0  0  0  0  0  0  0  0  0  0  0  0
  -23.1890  -30.4890   21.5190 C   0  0  0  0  0  3  0  0  0  0  0  0
  -24.5110  -29.0180   19.9100 C   0  0  0  0  0  0  0  0  0  0  0  0
  -25.6980  -30.8320   21.1550 C   0  0  0  0  0  2  0  0  0  0  0  0
  -25.7170  -29.4970   20.4360 C   0  0  0  0  0  0  0  0  0  0  0  0
  -26.9040  -28.7380   20.2950 C   0  0  0  0  0  3  0  0  0  0  0  0
  -25.6510  -27.0250   19.1080 C   0  0  0  0  0  3  0  0  0  0  0  0
  -24.4730  -27.7830   19.2390 C   0  0  0  0  0  3  0  0  0  0  0  0
  -23.2860  -29.8840   20.0930 C   0  0  0  0  0  2  0  0  0  0  0  0
  -24.4950  -31.0480   21.9960 N   0  0  0  0  0  0  0  0  0  0  0  0
  -23.4950  -32.0400   23.7730 O   0  0  0  0  0  0  0  0  0  0  0  0
  -22.5940  -29.4230   22.4690 C   0  0  0  0  0  0  0  0  0  0  0  0
  -21.2790  -29.1790   22.3480 N   0  0  0  0  0  0  0  0  0  0  0  0
  -23.3150  -28.8190   23.2700 O   0  0  0  0  0  0  0  0  0  0  0  0
  -20.7580  -29.7210   21.6730 H   0  0  0  0  0  0  0  0  0  0  0  0
  -17.9920  -27.7400   22.7720 C   0  0  0  0  0  0  0  0  0  0  0  0
  -20.5150  -28.1910   23.1100 C   0  0  0  0  0  3  0  0  0  0  0  0
  -20.7400  -26.7660   22.5550 C   0  0  0  0  0  2  0  0  0  0  0  0
  -19.6930  -26.3510   21.5170 C   0  0  0  0  0  2  0  0  0  0  0  0
  -18.2870  -26.4010   22.1210 C   0  0  0  0  0  2  0  0  0  0  0  0
  -19.0380  -28.5890   23.2220 C   0  0  0  0  0  0  0  0  0  0  0  0
  -18.7110  -29.8400   23.7890 C   0  0  0  0  0  3  0  0  0  0  0  0
  -17.3680  -30.2450   23.9110 C   0  0  0  0  0  3  0  0  0  0  0  0
  -16.3360  -29.3950   23.4790 C   0  0  0  0  0  3  0  0  0  0  0  0
  -16.6490  -28.1450   22.9160 C   0  0  0  0  0  3  0  0  0  0  0  0
  -25.8660  -32.3700   23.6980 C   0  0  0  0  0  3  0  0  0  0  0  0
  -26.4470  -31.5460   24.9110 C   0  0  1  0  0  0  0  0  0  0  0  0
  -25.4130  -31.2680   26.0270 C   0  0  0  0  0  1  0  0  0  0  0  0
  -26.9970  -30.1830   24.4290 C   0  0  0  0  0  1  0  0  0  0  0  0
  -27.6390  -32.3060   25.5400 C   0  0  0  0  0  1  0  0  0  0  0  0
  -25.6120  -33.7630   24.0910 N   0  0  0  0  0  0  0  0  0  0  0  0
  -25.9280  -34.8320   23.3490 C   0  0  0  0  0  0  0  0  0  0  0  0
  -26.5390  -34.7490   22.2800 O   0  0  0  0  0  0  0  0  0  0  0  0
  -25.0680  -33.9040   24.9300 H   0  0  0  0  0  0  0  0  0  0  0  0
  -24.2310  -36.6760   23.1390 C   0  0  0  0  0  1  0  0  0  0  0  0
  -25.4990  -36.2150   23.8760 C   0  0  0  0  0  3  0  0  0  0  0  0
  -27.6950  -37.0150   24.6280 C   0  0  0  0  0  1  0  0  0  0  0  0
  -26.5520  -37.2460   23.7500 N   0  0  0  0  0  0  0  0  0  0  0  0
  -26.1780  -38.1690   23.9510 H   0  0  0  0  0  0  0  0  0  0  0  0
  -30.7730  -16.6130   20.7480 C   0  0  0  0  0  3  0  0  0  0  0  0
  -30.4740  -14.5380   19.3440 C   0  0  0  0  0  0  0  0  0  0  0  0
  -29.9570  -12.4230   18.1700 C   0  0  0  0  0  2  0  0  0  0  0  0
  -28.8160  -12.6360   17.1580 C   0  0  0  0  0  2  0  0  0  0  0  0
  -27.4430  -12.4690   17.8380 C   0  0  0  0  0  2  0  0  0  0  0  0
  -27.3270  -13.2780   19.1580 C   0  0  0  0  0  3  0  0  0  0  0  0
  -28.5610  -13.0470   20.0570 C   0  0  0  0  0  2  0  0  0  0  0  0
  -29.7600  -13.3800   19.2710 N   0  0  0  0  0  0  0  0  0  0  0  0
  -31.4640  -14.7540   18.6410 O   0  0  0  0  0  0  0  0  0  0  0  0
  -30.0210  -15.4610   20.2090 N   0  0  0  0  0  0  0  0  0  0  0  0
  -29.1330  -15.2770   20.6500 H   0  0  0  0  0  0  0  0  0  0  0  0
  -25.0960  -13.8470   20.3070 C   0  0  0  0  0  0  0  0  0  0  0  0
  -24.1070  -13.0570   20.8280 C   0  0  0  0  0  0  0  0  0  0  0  0
  -24.5510  -11.7090   20.6630 C   0  0  0  0  0  0  0  0  0  0  0  0
  -26.0810  -12.9790   19.8600 N   0  0  0  0  0  0  0  0  0  0  0  0
  -25.7660  -11.6850   20.1290 N   0  0  0  0  0  0  0  0  0  0  0  0
  -23.8640  -10.4380   20.9300 C   0  0  0  0  0  0  0  0  0  0  0  0
  -24.3830   -9.4980   21.8470 C   0  0  0  0  0  3  0  0  0  0  0  0
  -23.6960   -8.2900   22.1000 C   0  0  0  0  0  3  0  0  0  0  0  0
  -22.4760   -8.0150   21.4370 C   0  0  0  0  0  0  0  0  0  0  0  0
  -21.9760   -8.9450   20.5090 C   0  0  0  0  0  3  0  0  0  0  0  0
  -22.6630  -10.1430   20.2540 C   0  0  0  0  0  3  0  0  0  0  0  0
  -21.7530   -6.8590   21.6010 O   0  0  0  0  0  0  0  0  0  0  0  0
  -21.7150   -6.1970   22.8020 C   0  0  0  0  0  0  0  0  0  0  0  0
  -21.2510   -6.8200   23.9810 C   0  0  0  0  0  3  0  0  0  0  0  0
  -21.1640   -6.0830   25.1790 C   0  0  0  0  0  3  0  0  0  0  0  0
  -21.5300   -4.7240   25.1980 C   0  0  0  0  0  0  0  0  0  0  0  0
  -21.9860   -4.1000   24.0240 C   0  0  0  0  0  3  0  0  0  0  0  0
  -22.0760   -4.8350   22.8290 C   0  0  0  0  0  0  0  0  0  0  0  0
  -22.4960   -4.2230   21.6950 F   0  0  0  0  0  0  0  0  0  0  0  0
  -21.4380   -4.0130   26.3480 F   0  0  0  0  0  0  0  0  0  0  0  0
  -22.7840  -13.5190   21.3640 C   0  0  0  0  0  0  0  0  0  0  0  0
  -22.2250  -12.7950   22.3280 N   0  0  0  0  0  0  0  0  0  0  0  0
  -22.2580  -14.5550   20.9610 O   0  0  0  0  0  0  0  0  0  0  0  0
  -22.6660  -11.9550   22.6740 H   0  0  0  0  0  0  0  0  0  0  0  0
  -21.3440  -13.0850   22.7270 H   0  0  0  0  0  0  0  0  0  0  0  0
  -25.2330  -15.2240   20.1590 N   0  0  0  0  0  0  0  0  0  0  0  0
  -24.5030  -15.8700   20.4370 H   0  0  0  0  0  0  0  0  0  0  0  0
  -26.0260  -15.6840   19.7300 H   0  0  0  0  0  0  0  0  0  0  0  0
  -30.6330  -16.7870   23.3260 C   0  0  0  0  0  1  0  0  0  0  0  0
  -31.3820  -16.1780   22.1230 C   0  0  0  0  0  3  0  0  0  0  0  0
  -32.2100  -13.9380   21.1230 C   0  0  0  0  0  1  0  0  0  0  0  0
  -31.5260  -14.6470   22.3010 C   0  0  0  0  0  2  0  0  0  0  0  0
  1  9  1  0
  4  2  1  0
  5  3  1  0
  6 11  1  0
  6  7  1  0
  7  3  1  0
  7  2  1  0
  8  5  1  0
  8  4  1  0
  9  6  1  0
  9  8  1  0
 10  1  2  0
 11 12  1  0
 12 14  1  0
 13 11  2  0
 15 12  1  0
 16 15  1  0
 16 17  1  0
 18 20  1  0
 18 17  1  0
 19 30  2  0
 20 25  1  0
 21 29  1  0
 21 31  1  0
 22 28  1  0
 22 24  1  0
 23 29  1  0
 24 23  1  0
 25 24  2  0
 26 27  1  0
 26 20  2  0
 27 22  2  0
 28 21  1  0
 29 19  1  0
 31 33  2  0
 32 31  1  0
 34 32  1  0
 35 44  2  0
 35 40  1  0
 36 32  1  0
 36 40  1  0
 37 36  1  0
 38 39  1  0
 38 37  1  0
 39 35  1  0
 40 41  2  0
 41 42  1  0
 43 42  2  0
 44 43  1  0
 45 19  1  0
 45 50  1  0
 45 46  1  0
 46 49  1  1
 46 47  1  0
 48 46  1  0
 50 53  1  0
 51 55  1  0
 51 50  1  0
 52 51  2  0
 55 54  1  0
 57 55  1  0
 57 58  1  0
 57 56  1  0
 59  1  1  0
 59 99  1  0
 60 68  1  0
 61 66  1  0
 62 63  1  0
 62 61  1  0
 64 63  1  0
 64 73  1  0
 64 65  1  0
 66 60  1  0
 66 65  1  0
 67 60  2  0
 68 69  1  0
 68 59  1  0
 70 71  2  0
 71 90  1  0
 72 71  1  0
 72 75  1  0
 73 74  1  0
 73 70  1  0
 74 72  2  0
 75 76  1  0
 76 77  2  0
 78 81  1  0
 78 77  1  0
 79 78  2  0
 80 79  1  0
 80 75  2  0
 81 82  1  0
 82 87  2  0
 82 83  1  0
 83 84  2  0
 84 85  1  0
 85 89  1  0
 86 85  2  0
 87 86  1  0
 88 87  1  0
 90 91  1  0
 91 93  1  0
 91 94  1  0
 92 90  2  0
 95 70  1  0
 95 96  1  0
 97 95  1  0
 99101  1  0
 99 98  1  0
100101  1  0
M  ISO  4  17 101  18 101  60 100  68 100
M  END
>  <TORSDO>  (57) 
F 23

>  <SCORE>  (57) 
-10.042

>  <name>  (57) 
57

>  <ligand_id>  (57) 
57

>  <original_smiles>  (57) 
[H]c1c([H])c([H])c2c(c1[H])C([H])([H])C([H])([H])C([H])([H])C2([H])N([H])C(=O)C1([H])N(C(=O)C([H])(N([H])C(=O)C([H])(N([H])C([H])([H])[H])C([H])([H])[H])C(C([H])([H])[H])(C([H])([H])[H])C([H])([H])[H])C([H])([H])c2c([H])c(OC([H])([H])C([H])([H])C([H])([H])N([H])C(=O)C3([H])N(C(=O)C([H])(N([H])C(=O)N4C([H])([H])C([H])([H])C([H])([H])C([H])(n5nc(-c6c([H])c([H])c(Oc7c([H])c([H])c(F)c([H])c7F)c([H])c6[H])c(C(=O)N([H])[H])c5N([H])[H])C4([H])[H])C([H])(C([H])([H])[H])C([H])([H])C([H])([H])[H])C4([H])C([H])([H])C([H])([H])C3([H])C([H])([H])C4([H])[H])c([H])c([H])c2C1([H])[H]

>  <smiles>  (57) 
[H]c1c([H])c([H])c2c(c1[H])C([H])([H])C([H])([H])C([H])([H])C2([H])N([H])C(=O)C1([H])N(C(=O)C([H])(N([H])C(=O)C([H])(N([H])C([H])([H])[H])C([H])([H])[H])C(C([H])([H])[H])(C([H])([H])[H])C([H])([H])[H])C([H])([H])c2c([H])c(OC([H])([H])C([H])([H])C([H])([H])N([H])C(=O)C3([H])N(C(=O)C([H])(N([H])C(=O)N4C([H])([H])C([H])([H])C([H])([H])C([H])(n5nc(-c6c([H])c([H])c(Oc7c([H])c([H])c(F)c([H])c7F)c([H])c6[H])c(C(=O)N([H])[H])c5N([H])[H])C4([H])[H])C([H])(C([H])([H])[H])C([H])([H])C([H])([H])[H])C4([H])C([H])([H])C([H])([H])C3([H])C([H])([H])C4([H])[H])c([H])c([H])c2C1([H])[H]

$$$$
58:0:0
     RDKit          3D

104112  0  0  1  0  0  0  0  0999 V2000
  -29.1510  -18.4450   19.3290 C   0  0  0  0  0  0  0  0  0  0  0  0
  -31.2080  -21.3840   18.3060 C   0  0  0  0  0  2  0  0  0  0  0  0
  -29.8130  -21.7140   17.8000 C   0  0  0  0  0  2  0  0  0  0  0  0
  -31.0750  -19.9180   18.7220 C   0  0  0  0  0  2  0  0  0  0  0  0
  -28.8900  -20.9710   18.7860 C   0  0  0  0  0  3  0  0  0  0  0  0
  -29.6540  -19.6950   19.0420 N   0  0  0  0  0  0  0  0  0  0  0  0
  -27.9390  -18.2470   19.4280 O   0  0  0  0  0  0  0  0  0  0  0  0
  -28.6100  -21.8920   20.0350 C   0  0  0  0  0  0  0  0  0  0  0  0
  -28.2250  -23.1960   19.8700 N   0  0  0  0  0  0  0  0  0  0  0  0
  -28.7370  -21.4120   21.1620 O   0  0  0  0  0  0  0  0  0  0  0  0
  -28.0900  -23.5280   18.9260 H   0  0  0  0  0  0  0  0  0  0  0  0
  -27.8190  -24.1330   20.9670 C   0  0  0  0  0  3  0  0  0  0  0  0
  -26.3120  -24.0020   21.2560 C   0  0  0  0  0  0  0  0  0  0  0  0
  -25.7880  -24.5900   22.5590 C   0  0  0  0  0  1  0  0  0  0  0  0
  -25.5190  -23.4470   20.4880 O   0  0  0  0  0  0  0  0  0  0  0  0
  -28.2330  -25.6680   20.8010 C   0  0  0  0  0  2  0  0  0  0  0  0
  -27.8760  -26.5070   19.6620 O   0  0  0  0  0  0  0  0  0  0  0  0
  -24.3370  -31.8060   23.0770 C   0  0  0  0  0  0  0  0  0  0  0  0
  -26.7850  -27.3600   19.7810 C   0  0  0  0  0  0  0  0  0  0  0  0
  -23.0690  -30.5180   21.3890 C   0  0  0  0  0  3  0  0  0  0  0  0
  -24.4590  -28.9940   19.8810 C   0  0  0  0  0  0  0  0  0  0  0  0
  -25.6090  -30.7820   21.1860 C   0  0  0  0  0  2  0  0  0  0  0  0
  -25.6420  -29.4280   20.4940 C   0  0  0  0  0  0  0  0  0  0  0  0
  -26.8100  -28.6150   20.4510 C   0  0  0  0  0  3  0  0  0  0  0  0
  -25.5950  -26.9770   19.1320 C   0  0  0  0  0  3  0  0  0  0  0  0
  -24.4330  -27.7680   19.1980 C   0  0  0  0  0  3  0  0  0  0  0  0
  -23.2460  -29.8950   19.9790 C   0  0  0  0  0  2  0  0  0  0  0  0
  -24.3570  -31.0500   21.9410 N   0  0  0  0  0  0  0  0  0  0  0  0
  -23.2710  -32.0880   23.6420 O   0  0  0  0  0  0  0  0  0  0  0  0
  -22.3910  -29.4780   22.3110 C   0  0  0  0  0  0  0  0  0  0  0  0
  -21.0520  -29.3970   22.2480 N   0  0  0  0  0  0  0  0  0  0  0  0
  -23.0670  -28.7490   23.0440 O   0  0  0  0  0  0  0  0  0  0  0  0
  -20.5680  -30.0360   21.6340 H   0  0  0  0  0  0  0  0  0  0  0  0
  -17.6280  -28.5190   22.9970 C   0  0  0  0  0  0  0  0  0  0  0  0
  -20.2120  -28.4620   22.9970 C   0  0  0  0  0  3  0  0  0  0  0  0
  -20.0810  -27.1130   22.2510 C   0  0  0  0  0  2  0  0  0  0  0  0
  -18.8490  -27.0450   21.3430 C   0  0  0  0  0  2  0  0  0  0  0  0
  -17.5690  -27.2560   22.1560 C   0  0  0  0  0  2  0  0  0  0  0  0
  -18.8690  -29.0940   23.3780 C   0  0  0  0  0  0  0  0  0  0  0  0
  -18.8650  -30.2900   24.1300 C   0  0  0  0  0  3  0  0  0  0  0  0
  -17.6550  -30.9010   24.5070 C   0  0  0  0  0  3  0  0  0  0  0  0
  -16.4310  -30.3180   24.1420 C   0  0  0  0  0  3  0  0  0  0  0  0
  -16.4180  -29.1300   23.3890 C   0  0  0  0  0  3  0  0  0  0  0  0
  -25.6480  -32.3700   23.7060 C   0  0  0  0  0  3  0  0  0  0  0  0
  -26.1720  -31.5110   24.9220 C   0  0  1  0  0  0  0  0  0  0  0  0
  -25.0870  -31.2040   25.9800 C   0  0  0  0  0  1  0  0  0  0  0  0
  -26.7480  -30.1610   24.4360 C   0  0  0  0  0  1  0  0  0  0  0  0
  -27.3280  -32.2540   25.6320 C   0  0  0  0  0  1  0  0  0  0  0  0
  -25.3800  -33.7530   24.1260 N   0  0  0  0  0  0  0  0  0  0  0  0
  -25.7290  -34.8410   23.4270 C   0  0  0  0  0  0  0  0  0  0  0  0
  -26.3820  -34.7850   22.3820 O   0  0  0  0  0  0  0  0  0  0  0  0
  -24.8070  -33.8730   24.9470 H   0  0  0  0  0  0  0  0  0  0  0  0
  -24.0680  -36.7150   23.1780 C   0  0  0  0  0  1  0  0  0  0  0  0
  -25.2820  -36.2110   23.9750 C   0  0  0  0  0  3  0  0  0  0  0  0
  -27.4170  -36.9810   24.9160 C   0  0  0  0  0  1  0  0  0  0  0  0
  -26.3520  -37.2330   23.9480 N   0  0  0  0  0  0  0  0  0  0  0  0
  -25.9720  -38.1580   24.1290 H   0  0  0  0  0  0  0  0  0  0  0  0
  -30.1200  -17.2200   19.5690 C   0  0  0  0  0  3  0  0  0  0  0  0
  -30.1540  -14.8000   18.6690 C   0  0  0  0  0  0  0  0  0  0  0  0
  -29.6080  -12.6390   17.5690 C   0  0  0  0  0  2  0  0  0  0  0  0
  -28.3490  -12.8140   16.6950 C   0  0  0  0  0  2  0  0  0  0  0  0
  -27.0700  -12.5960   17.5280 C   0  0  0  0  0  2  0  0  0  0  0  0
  -27.0880  -13.3860   18.8640 C   0  0  0  0  0  3  0  0  0  0  0  0
  -28.4290  -13.2010   19.6080 C   0  0  0  0  0  2  0  0  0  0  0  0
  -29.5030  -13.5960   18.6860 N   0  0  0  0  0  0  0  0  0  0  0  0
  -31.1480  -14.9830   17.9630 O   0  0  0  0  0  0  0  0  0  0  0  0
  -29.5740  -15.8370   19.3420 N   0  0  0  0  0  0  0  0  0  0  0  0
  -28.6910  -15.6430   19.7890 H   0  0  0  0  0  0  0  0  0  0  0  0
  -25.1050  -13.8860   20.4180 C   0  0  0  0  0  0  0  0  0  0  0  0
  -24.1530  -13.0760   20.9760 C   0  0  0  0  0  0  0  0  0  0  0  0
  -24.4720  -11.7470   20.5640 C   0  0  0  0  0  0  0  0  0  0  0  0
  -25.9460  -13.0450   19.7070 N   0  0  0  0  0  0  0  0  0  0  0  0
  -25.5900  -11.7420   19.8480 N   0  0  0  0  0  0  0  0  0  0  0  0
  -23.7450  -10.4850   20.7600 C   0  0  0  0  0  0  0  0  0  0  0  0
  -24.1790   -9.5200   21.6950 C   0  0  0  0  0  3  0  0  0  0  0  0
  -23.4530   -8.3220   21.8780 C   0  0  0  0  0  3  0  0  0  0  0  0
  -22.2790   -8.0820   21.1250 C   0  0  0  0  0  0  0  0  0  0  0  0
  -21.8650   -9.0370   20.1770 C   0  0  0  0  0  3  0  0  0  0  0  0
  -22.5920  -10.2250   19.9930 C   0  0  0  0  0  3  0  0  0  0  0  0
  -21.5230   -6.9400   21.2180 O   0  0  0  0  0  0  0  0  0  0  0  0
  -21.2290   -6.3680   22.4300 C   0  0  0  0  0  0  0  0  0  0  0  0
  -20.4170   -7.0190   23.3840 C   0  0  0  0  0  3  0  0  0  0  0  0
  -20.0840   -6.3650   24.5880 C   0  0  0  0  0  3  0  0  0  0  0  0
  -20.5510   -5.0600   24.8340 C   0  0  0  0  0  0  0  0  0  0  0  0
  -21.3550   -4.4090   23.8830 C   0  0  0  0  0  3  0  0  0  0  0  0
  -21.6910   -5.0600   22.6830 C   0  0  0  0  0  0  0  0  0  0  0  0
  -22.4490   -4.4190   21.7600 F   0  0  0  0  0  0  0  0  0  0  0  0
  -20.2250   -4.4300   25.9860 F   0  0  0  0  0  0  0  0  0  0  0  0
  -22.9570  -13.5190   21.7680 C   0  0  0  0  0  0  0  0  0  0  0  0
  -22.4980  -12.6950   22.7020 N   0  0  0  0  0  0  0  0  0  0  0  0
  -22.4480  -14.6260   21.5910 O   0  0  0  0  0  0  0  0  0  0  0  0
  -22.9280  -11.7960   22.8630 H   0  0  0  0  0  0  0  0  0  0  0  0
  -21.7060  -12.9670   23.2680 H   0  0  0  0  0  0  0  0  0  0  0  0
  -25.3140  -15.2610   20.4380 N   0  0  0  0  0  0  0  0  0  0  0  0
  -24.6690  -15.8920   20.9010 H   0  0  0  0  0  0  0  0  0  0  0  0
  -26.0390  -15.7470   19.9270 H   0  0  0  0  0  0  0  0  0  0  0  0
  -30.7060  -17.2870   21.0010 C   0  0  0  0  0  2  0  0  0  0  0  0
  -31.7250  -16.1830   21.3260 C   0  0  0  0  0  2  0  0  0  0  0  0
  -31.4170  -15.4930   22.6680 C   0  0  0  0  0  2  0  0  0  0  0  0
  -32.4330  -14.4020   23.0560 C   0  0  0  0  0  2  0  0  0  0  0  0
  -32.8100  -13.5460   21.9170 N   0  0  0  0  0  4  0  0  0  0  0  0
  -32.0060  -13.0780   21.5380 H   0  0  0  0  0  0  0  0  0  0  0  0
  -33.4600  -12.8430   22.2230 H   0  0  0  0  0  0  0  0  0  0  0  0
  -33.2510  -14.0790   21.1900 H   0  0  0  0  0  0  0  0  0  0  0  0
  1  7  2  0
  1 58  1  0
  2  4  1  0
  3  2  1  0
  3  5  1  0
  4  6  1  0
  5  6  1  0
  5  8  1  0
  6  1  1  0
  8 10  2  0
  9  8  1  0
  9 12  1  0
 11  9  1  0
 12 16  1  0
 12 13  1  0
 13 14  1  0
 15 13  2  0
 17 19  1  0
 17 16  1  0
 18 29  2  0
 19 24  1  0
 20 28  1  0
 20 30  1  0
 21 27  1  0
 21 23  1  0
 22 28  1  0
 23 22  1  0
 24 23  2  0
 25 26  1  0
 25 19  2  0
 26 21  2  0
 27 20  1  0
 28 18  1  0
 30 32  2  0
 31 30  1  0
 33 31  1  0
 34 39  2  0
 34 43  1  0
 35 31  1  0
 35 39  1  0
 36 35  1  0
 37 38  1  0
 37 36  1  0
 38 34  1  0
 39 40  1  0
 40 41  2  0
 42 41  1  0
 43 42  2  0
 44 18  1  0
 44 49  1  0
 44 45  1  0
 45 48  1  1
 45 46  1  0
 47 45  1  0
 49 52  1  0
 50 54  1  0
 50 49  1  0
 51 50  2  0
 54 53  1  0
 56 54  1  0
 56 57  1  0
 56 55  1  0
 58 97  1  0
 59 65  1  0
 59 67  1  0
 60 65  1  0
 61 62  1  0
 61 60  1  0
 63 62  1  0
 63 64  1  0
 63 72  1  0
 65 64  1  0
 66 59  2  0
 67 58  1  0
 67 68  1  0
 69 94  1  0
 69 70  2  0
 70 89  1  0
 71 74  1  0
 71 70  1  0
 72 73  1  0
 72 69  1  0
 73 71  2  0
 74 75  1  0
 75 76  2  0
 77 80  1  0
 77 76  1  0
 78 77  2  0
 79 78  1  0
 79 74  2  0
 80 81  1  0
 81 86  2  0
 81 82  1  0
 82 83  2  0
 83 84  1  0
 84 88  1  0
 85 84  2  0
 86 85  1  0
 87 86  1  0
 89 90  1  0
 90 92  1  0
 90 93  1  0
 91 89  2  0
 94 95  1  0
 96 94  1  0
 97 98  1  0
 98 99  1  0
 99100  1  0
101103  1  0
101100  1  0
102101  1  0
104101  1  0
M  ISO  4  16 101  17 101  59 100  67 100
M  END
>  <TORSDO>  (58) 
F 26

>  <SCORE>  (58) 
-2.808

>  <name>  (58) 
58

>  <ligand_id>  (58) 
58

>  <original_smiles>  (58) 
[H]c1c([H])c([H])c2c(c1[H])C([H])([H])C([H])([H])C([H])([H])C2([H])N([H])C(=O)C1([H])N(C(=O)C([H])(N([H])C(=O)C([H])(N([H])C([H])([H])[H])C([H])([H])[H])C(C([H])([H])[H])(C([H])([H])[H])C([H])([H])[H])C([H])([H])c2c([H])c(OC([H])([H])C([H])(C(=O)C([H])([H])[H])N([H])C(=O)C3([H])N(C(=O)C([H])(N([H])C(=O)N4C([H])([H])C([H])([H])C([H])([H])C([H])(n5nc(-c6c([H])c([H])c(Oc7c([H])c([H])c(F)c([H])c7F)c([H])c6[H])c(C(=O)N([H])[H])c5N([H])[H])C4([H])[H])C([H])([H])C([H])([H])C([H])([H])C([H])([H])[N+]([H])([H])[H])C([H])([H])C([H])([H])C3([H])[H])c([H])c([H])c2C1([H])[H]

>  <smiles>  (58) 
[H]c1c([H])c([H])c2c(c1[H])C([H])([H])C([H])([H])C([H])([H])C2([H])N([H])C(=O)C1([H])N(C(=O)C([H])(N([H])C(=O)C([H])(N([H])C([H])([H])[H])C([H])([H])[H])C(C([H])([H])[H])(C([H])([H])[H])C([H])([H])[H])C([H])([H])c2c([H])c(OC([H])([H])C([H])(C(=O)C([H])([H])[H])N([H])C(=O)C3([H])N(C(=O)C([H])(N([H])C(=O)N4C([H])([H])C([H])([H])C([H])([H])C([H])(n5nc(-c6c([H])c([H])c(Oc7c([H])c([H])c(F)c([H])c7F)c([H])c6[H])c(C(=O)N([H])[H])c5N([H])[H])C4([H])[H])C([H])([H])C([H])([H])C([H])([H])C([H])([H])[N+]([H])([H])[H])C([H])([H])C([H])([H])C3([H])[H])c([H])c([H])c2C1([H])[H]

$$$$
59:0:0
     RDKit          3D

101109  0  0  1  0  0  0  0  0999 V2000
  -29.8050  -19.3530   19.0450 C   0  0  0  0  0  3  0  0  0  0  0  0
  -30.6340  -16.9880   19.0010 C   0  0  0  0  0  0  0  0  0  0  0  0
  -30.8280  -18.3100   19.1020 N   0  0  0  0  0  0  0  0  0  0  0  0
  -29.5200  -16.4680   18.9260 O   0  0  0  0  0  0  0  0  0  0  0  0
  -31.7870  -18.6210   19.1650 H   0  0  0  0  0  0  0  0  0  0  0  0
  -31.2180  -14.3710   20.5200 C   0  0  0  0  0  0  0  0  0  0  0  0
  -30.5110  -12.1840   19.7580 C   0  0  0  0  0  2  0  0  0  0  0  0
  -29.6920  -12.4150   18.4850 C   0  0  0  0  0  2  0  0  0  0  0  0
  -28.2130  -12.4210   18.8700 C   0  0  0  0  0  2  0  0  0  0  0  0
  -27.8720  -13.3460   20.0750 C   0  0  0  0  0  3  0  0  0  0  0  0
  -28.9540  -13.3080   21.2110 C   0  0  0  0  0  2  0  0  0  0  0  0
  -30.2980  -13.3620   20.5730 N   0  0  0  0  0  0  0  0  0  0  0  0
  -31.5330  -15.1010   21.4220 O   0  0  0  0  0  0  0  0  0  0  0  0
  -33.3920  -14.8940   17.5530 C   0  0  0  0  0  2  0  0  0  0  0  0
  -32.4730  -16.0980   17.5120 C   0  0  0  0  0  2  0  0  0  0  0  0
  -32.6700  -13.9220   18.4910 C   0  0  0  0  0  2  0  0  0  0  0  0
  -31.9130  -16.1360   18.9370 C   0  0  0  0  0  3  0  0  0  0  0  0
  -31.7310  -14.7220   19.3070 N   0  0  0  0  0  0  0  0  0  0  0  0
  -25.4160  -13.9420   20.6250 C   0  0  0  0  0  0  0  0  0  0  0  0
  -24.3240  -13.1680   20.9240 C   0  0  0  0  0  0  0  0  0  0  0  0
  -24.7950  -11.8200   20.9610 C   0  0  0  0  0  0  0  0  0  0  0  0
  -26.4930  -13.0720   20.5160 N   0  0  0  0  0  0  0  0  0  0  0  0
  -26.1110  -11.7910   20.7730 N   0  0  0  0  0  0  0  0  0  0  0  0
  -24.0590  -10.5530   21.1140 C   0  0  0  0  0  0  0  0  0  0  0  0
  -24.4300   -9.5980   22.0860 C   0  0  0  0  0  3  0  0  0  0  0  0
  -23.6960   -8.4010   22.2350 C   0  0  0  0  0  3  0  0  0  0  0  0
  -22.5740   -8.1480   21.4100 C   0  0  0  0  0  0  0  0  0  0  0  0
  -22.2220   -9.0900   20.4270 C   0  0  0  0  0  3  0  0  0  0  0  0
  -22.9580  -10.2780   20.2780 C   0  0  0  0  0  3  0  0  0  0  0  0
  -21.8200   -7.0000   21.4670 O   0  0  0  0  0  0  0  0  0  0  0  0
  -21.7110   -6.2650   22.6200 C   0  0  0  0  0  0  0  0  0  0  0  0
  -21.2150   -6.8270   23.8170 C   0  0  0  0  0  3  0  0  0  0  0  0
  -21.0550   -6.0200   24.9610 C   0  0  0  0  0  3  0  0  0  0  0  0
  -21.3800   -4.6510   24.9100 C   0  0  0  0  0  0  0  0  0  0  0  0
  -21.8680   -4.0880   23.7170 C   0  0  0  0  0  3  0  0  0  0  0  0
  -22.0290   -4.8930   22.5760 C   0  0  0  0  0  0  0  0  0  0  0  0
  -22.4800   -4.3390   21.4240 F   0  0  0  0  0  0  0  0  0  0  0  0
  -21.2180   -3.8740   26.0060 F   0  0  0  0  0  0  0  0  0  0  0  0
  -22.9040  -13.6370   21.0710 C   0  0  0  0  0  0  0  0  0  0  0  0
  -22.1150  -12.9560   21.8960 N   0  0  0  0  0  0  0  0  0  0  0  0
  -22.4980  -14.6430   20.4920 O   0  0  0  0  0  0  0  0  0  0  0  0
  -22.4540  -12.1430   22.3890 H   0  0  0  0  0  0  0  0  0  0  0  0
  -21.1610  -13.2550   22.0380 H   0  0  0  0  0  0  0  0  0  0  0  0
  -25.5790  -15.3060   20.4130 N   0  0  0  0  0  0  0  0  0  0  0  0
  -24.8030  -15.9580   20.4310 H   0  0  0  0  0  0  0  0  0  0  0  0
  -26.4570  -15.7380   20.1510 H   0  0  0  0  0  0  0  0  0  0  0  0
  -29.8580  -19.9980   17.6390 C   0  0  0  0  0  2  0  0  0  0  0  0
  -29.7060  -18.9750   16.4930 C   0  0  0  0  0  2  0  0  0  0  0  0
  -31.0960  -20.1900   14.7280 C   0  0  0  0  0  1  0  0  0  0  0  0
  -29.3360  -18.5290   14.0380 C   0  0  0  0  0  1  0  0  0  0  0  0
  -29.7280  -19.5860   15.0810 C   0  0  0  0  0  3  0  0  0  0  0  0
  -30.0370  -20.3630   20.2040 C   0  0  0  0  0  2  0  0  0  0  0  0
  -28.9620  -21.3750   22.2890 C   0  0  0  0  0  1  0  0  0  0  0  0
  -28.7600  -21.0160   20.8020 C   0  0  0  0  0  3  0  0  0  0  0  0
  -28.1870  -22.2150   20.0060 C   0  0  0  0  0  2  0  0  0  0  0  0
  -28.9130  -23.4780   20.2640 N   0  0  0  0  0  4  0  0  0  0  0  0
  -28.9310  -23.6120   21.2630 H   0  0  0  0  0  0  0  0  0  0  0  0
  -29.8690  -23.3900   19.9530 H   0  0  0  0  0  0  0  0  0  0  0  0
  -28.3050  -24.6760   19.6340 C   0  0  0  0  0  2  0  0  0  0  0  0
  -28.7650  -25.9780   20.3180 C   0  0  0  0  0  2  0  0  0  0  0  0
  -28.4940  -27.1390   19.5380 O   0  0  0  0  0  0  0  0  0  0  0  0
  -24.6220  -31.9170   23.1470 C   0  0  0  0  0  0  0  0  0  0  0  0
  -27.2810  -27.7580   19.7140 C   0  0  0  0  0  0  0  0  0  0  0  0
  -23.3990  -30.5930   21.4480 C   0  0  0  0  0  3  0  0  0  0  0  0
  -24.8470  -29.1760   19.8990 C   0  0  0  0  0  0  0  0  0  0  0  0
  -25.9060  -31.0260   21.2040 C   0  0  0  0  0  2  0  0  0  0  0  0
  -26.0050  -29.6960   20.4890 C   0  0  0  0  0  0  0  0  0  0  0  0
  -27.2250  -28.9920   20.3980 C   0  0  0  0  0  3  0  0  0  0  0  0
  -26.1090  -27.2430   19.1230 C   0  0  0  0  0  3  0  0  0  0  0  0
  -24.8920  -27.9460   19.2170 C   0  0  0  0  0  3  0  0  0  0  0  0
  -23.5860  -30.0030   20.0250 C   0  0  0  0  0  2  0  0  0  0  0  0
  -24.6620  -31.1890   21.9940 N   0  0  0  0  0  0  0  0  0  0  0  0
  -23.5510  -32.1320   23.7310 O   0  0  0  0  0  0  0  0  0  0  0  0
  -22.7970  -29.5000   22.3590 C   0  0  0  0  0  0  0  0  0  0  0  0
  -21.4710  -29.3120   22.2680 N   0  0  0  0  0  0  0  0  0  0  0  0
  -23.5160  -28.8260   23.1020 O   0  0  0  0  0  0  0  0  0  0  0  0
  -20.9510  -29.9100   21.6420 H   0  0  0  0  0  0  0  0  0  0  0  0
  -18.1270  -28.0500   22.7990 C   0  0  0  0  0  0  0  0  0  0  0  0
  -20.6910  -28.3130   22.9980 C   0  0  0  0  0  3  0  0  0  0  0  0
  -20.7850  -26.9280   22.3160 C   0  0  0  0  0  2  0  0  0  0  0  0
  -19.6470  -26.6670   21.3220 C   0  0  0  0  0  2  0  0  0  0  0  0
  -18.2880  -26.7520   22.0250 C   0  0  0  0  0  2  0  0  0  0  0  0
  -19.2560  -28.7890   23.2420 C   0  0  0  0  0  0  0  0  0  0  0  0
  -19.0500  -30.0040   23.9280 C   0  0  0  0  0  3  0  0  0  0  0  0
  -17.7500  -30.4820   24.1760 C   0  0  0  0  0  3  0  0  0  0  0  0
  -16.6360  -29.7380   23.7500 C   0  0  0  0  0  3  0  0  0  0  0  0
  -16.8260  -28.5230   23.0660 C   0  0  0  0  0  3  0  0  0  0  0  0
  -25.9130  -32.5310   23.7710 C   0  0  0  0  0  3  0  0  0  0  0  0
  -26.4790  -31.6960   24.9840 C   0  0  1  0  0  0  0  0  0  0  0  0
  -25.4200  -31.3770   26.0660 C   0  0  0  0  0  1  0  0  0  0  0  0
  -27.0710  -30.3560   24.4890 C   0  0  0  0  0  1  0  0  0  0  0  0
  -27.6380  -32.4680   25.6580 C   0  0  0  0  0  1  0  0  0  0  0  0
  -25.5920  -33.9030   24.1880 N   0  0  0  0  0  0  0  0  0  0  0  0
  -25.9040  -35.0020   23.4890 C   0  0  0  0  0  0  0  0  0  0  0  0
  -26.5630  -34.9690   22.4450 O   0  0  0  0  0  0  0  0  0  0  0  0
  -25.0080  -34.0040   25.0050 H   0  0  0  0  0  0  0  0  0  0  0  0
  -24.1540  -36.7920   23.2500 C   0  0  0  0  0  1  0  0  0  0  0  0
  -25.4020  -36.3540   24.0330 C   0  0  0  0  0  3  0  0  0  0  0  0
  -27.5290  -37.2060   24.9100 C   0  0  0  0  0  1  0  0  0  0  0  0
  -26.4220  -37.4230   23.9830 N   0  0  0  0  0  0  0  0  0  0  0  0
  -26.0080  -38.3270   24.1900 H   0  0  0  0  0  0  0  0  0  0  0  0
  1 47  1  0
  1  3  1  0
  1 52  1  0
  2  3  1  0
  3  5  1  0
  4  2  2  0
  6 12  1  0
  6 13  2  0
  7 12  1  0
  8  9  1  0
  8  7  1  0
 10  9  1  0
 10 22  1  0
 10 11  1  0
 12 11  1  0
 14 16  1  0
 15 14  1  0
 15 17  1  0
 16 18  1  0
 17  2  1  0
 17 18  1  0
 18  6  1  0
 19 20  2  0
 20 21  1  0
 20 39  1  0
 21 24  1  0
 22 19  1  0
 22 23  1  0
 23 21  2  0
 24 25  1  0
 25 26  2  0
 27 30  1  0
 27 26  1  0
 28 27  2  0
 29 28  1  0
 29 24  2  0
 30 31  1  0
 31 32  1  0
 32 33  2  0
 34 33  1  0
 34 38  1  0
 35 34  2  0
 36 31  2  0
 36 35  1  0
 37 36  1  0
 39 40  1  0
 40 43  1  0
 40 42  1  0
 41 39  2  0
 44 45  1  0
 44 19  1  0
 46 44  1  0
 48 47  1  0
 49 51  1  0
 50 51  1  0
 51 48  1  0
 52 54  1  0
 54 53  1  0
 55 56  1  0
 55 54  1  0
 56 57  1  0
 58 56  1  0
 59 56  1  0
 59 60  1  0
 61 63  1  0
 61 60  1  0
 62 73  2  0
 63 68  1  0
 64 72  1  0
 64 74  1  0
 65 71  1  0
 65 67  1  0
 66 72  1  0
 67 66  1  0
 68 67  2  0
 69 70  1  0
 69 63  2  0
 70 65  2  0
 71 64  1  0
 72 62  1  0
 74 76  2  0
 75 74  1  0
 77 75  1  0
 78 87  2  0
 78 83  1  0
 79 75  1  0
 79 83  1  0
 80 79  1  0
 81 82  1  0
 81 80  1  0
 82 78  1  0
 83 84  2  0
 84 85  1  0
 86 85  2  0
 87 86  1  0
 88 62  1  0
 88 93  1  0
 88 89  1  0
 89 92  1  1
 89 90  1  0
 91 89  1  0
 93 96  1  0
 94 98  1  0
 94 93  1  0
 95 94  2  0
 98 97  1  0
100 98  1  0
100101  1  0
100 99  1  0
M  ISO  4   6 100  18 100  60 101  61 101
M  END
>  <TORSDO>  (59) 
F 26

>  <SCORE>  (59) 
-11.586

>  <name>  (59) 
59

>  <ligand_id>  (59) 
59

>  <original_smiles>  (59) 
[H]c1c([H])c([H])c2c(c1[H])C([H])([H])C([H])([H])C([H])([H])C2([H])N([H])C(=O)C1([H])N(C(=O)C([H])(N([H])C(=O)C([H])(N([H])C([H])([H])[H])C([H])([H])[H])C(C([H])([H])[H])(C([H])([H])[H])C([H])([H])[H])C([H])([H])c2c([H])c(OC([H])([H])C([H])([H])[N+]([H])([H])C([H])([H])C([H])(C([H])([H])[H])C([H])([H])C([H])(N([H])C(=O)C3([H])N(C(=O)N4C([H])([H])C([H])([H])C([H])([H])C([H])(n5nc(-c6c([H])c([H])c(Oc7c([H])c([H])c(F)c([H])c7F)c([H])c6[H])c(C(=O)N([H])[H])c5N([H])[H])C4([H])[H])C([H])([H])C([H])([H])C3([H])[H])C([H])([H])C([H])([H])C([H])(C([H])([H])[H])C([H])([H])[H])c([H])c([H])c2C1([H])[H]

>  <smiles>  (59) 
[H]c1c([H])c([H])c2c(c1[H])C([H])([H])C([H])([H])C([H])([H])C2([H])N([H])C(=O)C1([H])N(C(=O)C([H])(N([H])C(=O)C([H])(N([H])C([H])([H])[H])C([H])([H])[H])C(C([H])([H])[H])(C([H])([H])[H])C([H])([H])[H])C([H])([H])c2c([H])c(OC([H])([H])C([H])([H])[N+]([H])([H])C([H])([H])C([H])(C([H])([H])[H])C([H])([H])C([H])(N([H])C(=O)C3([H])N(C(=O)N4C([H])([H])C([H])([H])C([H])([H])C([H])(n5nc(-c6c([H])c([H])c(Oc7c([H])c([H])c(F)c([H])c7F)c([H])c6[H])c(C(=O)N([H])[H])c5N([H])[H])C4([H])[H])C([H])([H])C([H])([H])C3([H])[H])C([H])([H])C([H])([H])C([H])(C([H])([H])[H])C([H])([H])[H])c([H])c([H])c2C1([H])[H]

$$$$
60:0:0
     RDKit          3D

107114  0  0  1  0  0  0  0  0999 V2000
  -30.1600  -20.7820   23.1840 C   0  0  0  0  0  0  0  0  0  0  0  0
  -29.1680  -20.5220   22.4920 O   0  0  0  0  0  0  0  0  0  0  0  0
  -31.0100  -19.6560   23.7870 C   0  0  0  0  0  2  0  0  0  0  0  0
  -31.0110  -18.5410   22.8150 N   0  0  0  0  0  4  0  0  0  0  0  0
  -30.0840  -18.5840   22.4120 H   0  0  0  0  0  0  0  0  0  0  0  0
  -31.0950  -17.6810   23.3310 H   0  0  0  0  0  0  0  0  0  0  0  0
  -32.0230  -18.5520   21.7220 C   0  0  0  0  0  3  0  0  0  0  0  0
  -31.4870  -17.7270   20.5250 C   0  0  0  0  0  2  0  0  0  0  0  0
  -31.8270  -15.2710   20.4910 C   0  0  0  0  0  0  0  0  0  0  0  0
  -31.6450  -12.9290   19.7560 C   0  0  0  0  0  2  0  0  0  0  0  0
  -30.8060  -12.8540   18.4650 C   0  0  0  0  0  2  0  0  0  0  0  0
  -29.3040  -12.7550   18.7970 C   0  0  0  0  0  2  0  0  0  0  0  0
  -28.8450  -13.8210   19.8280 C   0  0  0  0  0  3  0  0  0  0  0  0
  -29.8060  -13.8650   21.0400 C   0  0  0  0  0  2  0  0  0  0  0  0
  -31.1720  -14.0830   20.5360 N   0  0  0  0  0  0  0  0  0  0  0  0
  -32.9620  -15.3930   20.0220 O   0  0  0  0  0  0  0  0  0  0  0  0
  -31.1090  -16.3450   20.8560 N   0  0  0  0  0  0  0  0  0  0  0  0
  -30.1720  -16.1590   21.1780 H   0  0  0  0  0  0  0  0  0  0  0  0
  -26.4400  -14.5240   20.4150 C   0  0  0  0  0  0  0  0  0  0  0  0
  -25.3270  -13.7940   20.7360 C   0  0  0  0  0  0  0  0  0  0  0  0
  -25.7380  -12.4250   20.7320 C   0  0  0  0  0  0  0  0  0  0  0  0
  -27.4610  -13.6030   20.2400 N   0  0  0  0  0  0  0  0  0  0  0  0
  -27.0390  -12.3370   20.4860 N   0  0  0  0  0  0  0  0  0  0  0  0
  -24.9580  -11.1920   20.8910 C   0  0  0  0  0  0  0  0  0  0  0  0
  -25.2500  -10.2600   21.9130 C   0  0  0  0  0  3  0  0  0  0  0  0
  -24.4730   -9.0900   22.0570 C   0  0  0  0  0  3  0  0  0  0  0  0
  -23.3930   -8.8430   21.1780 C   0  0  0  0  0  0  0  0  0  0  0  0
  -23.1220   -9.7610   20.1490 C   0  0  0  0  0  3  0  0  0  0  0  0
  -23.8980  -10.9230   20.0040 C   0  0  0  0  0  3  0  0  0  0  0  0
  -22.6010   -7.7200   21.2270 O   0  0  0  0  0  0  0  0  0  0  0  0
  -22.2630   -7.1300   22.4180 C   0  0  0  0  0  0  0  0  0  0  0  0
  -21.5690   -7.8330   23.4270 C   0  0  0  0  0  3  0  0  0  0  0  0
  -21.1780   -7.1680   24.6070 C   0  0  0  0  0  3  0  0  0  0  0  0
  -21.4720   -5.8020   24.7760 C   0  0  0  0  0  0  0  0  0  0  0  0
  -22.1550   -5.0980   23.7690 C   0  0  0  0  0  3  0  0  0  0  0  0
  -22.5470   -5.7600   22.5920 C   0  0  0  0  0  0  0  0  0  0  0  0
  -23.1880   -5.0730   21.6160 F   0  0  0  0  0  0  0  0  0  0  0  0
  -21.0900   -5.1600   25.9050 F   0  0  0  0  0  0  0  0  0  0  0  0
  -23.9380  -14.3230   20.9420 C   0  0  0  0  0  0  0  0  0  0  0  0
  -23.1530  -13.6750   21.7940 N   0  0  0  0  0  0  0  0  0  0  0  0
  -23.5550  -15.3480   20.3790 O   0  0  0  0  0  0  0  0  0  0  0  0
  -23.4720  -12.8450   22.2720 H   0  0  0  0  0  0  0  0  0  0  0  0
  -22.2180  -14.0140   21.9730 H   0  0  0  0  0  0  0  0  0  0  0  0
  -26.6650  -15.8870   20.2410 N   0  0  0  0  0  0  0  0  0  0  0  0
  -25.9140  -16.5660   20.2900 H   0  0  0  0  0  0  0  0  0  0  0  0
  -27.5380  -16.2850   19.9190 H   0  0  0  0  0  0  0  0  0  0  0  0
  -32.4310  -19.9880   21.2700 C   0  0  0  0  0  2  0  0  0  0  0  0
  -33.5170  -20.0350   20.1750 C   0  0  0  0  0  2  0  0  0  0  0  0
  -34.0990  -21.4420   19.9550 C   0  0  0  0  0  2  0  0  0  0  0  0
  -35.2320  -21.4500   18.9090 C   0  0  0  0  0  2  0  0  0  0  0  0
  -35.7720  -22.7990   18.6720 N   0  0  0  0  0  4  0  0  0  0  0  0
  -35.0700  -23.4060   18.2890 H   0  0  0  0  0  0  0  0  0  0  0  0
  -36.5290  -22.7480   18.0130 H   0  0  0  0  0  0  0  0  0  0  0  0
  -36.1260  -23.2010   19.5190 H   0  0  0  0  0  0  0  0  0  0  0  0
  -30.5700  -22.2260   23.4810 C   0  0  0  0  0  2  0  0  0  0  0  0
  -31.0530  -23.0300   22.2450 C   0  0  0  0  0  2  0  0  0  0  0  0
  -29.9670  -23.4600   21.2200 C   0  0  0  0  0  3  0  0  0  0  0  0
  -29.0760  -24.5820   21.7820 C   0  0  0  0  0  0  0  0  0  0  0  0
  -27.7620  -24.4230   21.6950 N   0  0  0  0  0  0  0  0  0  0  0  0
  -29.5640  -25.5860   22.2970 O   0  0  0  0  0  0  0  0  0  0  0  0
  -27.3750  -23.5900   21.2740 H   0  0  0  0  0  0  0  0  0  0  0  0
  -27.1390  -25.1390   22.0430 H   0  0  0  0  0  0  0  0  0  0  0  0
  -30.6190  -23.8920   19.8860 C   0  0  0  0  0  2  0  0  0  0  0  0
  -29.7070  -24.7290   18.9600 C   0  0  0  0  0  2  0  0  0  0  0  0
  -31.6920  -26.3040   18.4500 C   0  0  0  0  0  1  0  0  0  0  0  0
  -30.4880  -25.5280   17.8990 C   0  0  0  0  0  3  0  0  0  0  0  0
  -29.6060  -26.3080   17.0830 O   0  0  0  0  0  0  0  0  0  0  0  0
  -24.9950  -28.2830   22.1930 C   0  0  0  0  0  0  0  0  0  0  0  0
  -28.3220  -26.5810   17.4980 C   0  0  0  0  0  0  0  0  0  0  0  0
  -24.0050  -27.5970   20.0290 C   0  0  0  0  0  3  0  0  0  0  0  0
  -25.6550  -27.2770   18.1140 C   0  0  0  0  0  0  0  0  0  0  0  0
  -26.3640  -28.5730   20.1330 C   0  0  0  0  0  2  0  0  0  0  0  0
  -26.7030  -27.7190   18.9310 C   0  0  0  0  0  0  0  0  0  0  0  0
  -28.0370  -27.3850   18.6220 C   0  0  0  0  0  3  0  0  0  0  0  0
  -27.2590  -26.1400   16.6830 C   0  0  0  0  0  3  0  0  0  0  0  0
  -25.9250  -26.4800   16.9860 C   0  0  0  0  0  3  0  0  0  0  0  0
  -24.2600  -27.7120   18.5020 C   0  0  0  0  0  2  0  0  0  0  0  0
  -25.1380  -28.1420   20.8460 N   0  0  0  0  0  0  0  0  0  0  0  0
  -23.9220  -28.0180   22.7530 O   0  0  0  0  0  0  0  0  0  0  0  0
  -23.6610  -26.1280   20.3600 C   0  0  0  0  0  0  0  0  0  0  0  0
  -22.4020  -25.7390   20.1030 N   0  0  0  0  0  0  0  0  0  0  0  0
  -24.5190  -25.3610   20.8050 O   0  0  0  0  0  0  0  0  0  0  0  0
  -21.7570  -26.4320   19.7490 H   0  0  0  0  0  0  0  0  0  0  0  0
  -19.3880  -23.7580   19.8800 C   0  0  0  0  0  0  0  0  0  0  0  0
  -21.8590  -24.3940   20.2920 C   0  0  0  0  0  3  0  0  0  0  0  0
  -22.1880  -23.4850   19.0860 C   0  0  0  0  0  2  0  0  0  0  0  0
  -21.0840  -23.4670   18.0240 C   0  0  0  0  0  2  0  0  0  0  0  0
  -19.7650  -22.9790   18.6300 C   0  0  0  0  0  2  0  0  0  0  0  0
  -20.3690  -24.4360   20.6500 C   0  0  0  0  0  0  0  0  0  0  0  0
  -19.9620  -25.1730   21.7820 C   0  0  0  0  0  3  0  0  0  0  0  0
  -18.6060  -25.2370   22.1510 C   0  0  0  0  0  3  0  0  0  0  0  0
  -17.6400  -24.5520   21.3930 C   0  0  0  0  0  3  0  0  0  0  0  0
  -18.0310  -23.8120   20.2640 C   0  0  0  0  0  3  0  0  0  0  0  0
  -26.1590  -28.8100   23.0900 C   0  0  0  0  0  3  0  0  0  0  0  0
  -25.6630  -29.9920   23.8080 N   0  0  0  0  0  0  0  0  0  0  0  0
  -25.9470  -31.2580   23.4730 C   0  0  0  0  0  0  0  0  0  0  0  0
  -26.7220  -31.5510   22.5590 O   0  0  0  0  0  0  0  0  0  0  0  0
  -24.9820  -29.8260   24.5320 H   0  0  0  0  0  0  0  0  0  0  0  0
  -24.0950  -32.9590   23.4660 C   0  0  0  0  0  1  0  0  0  0  0  0
  -25.2610  -32.3750   24.2800 C   0  0  0  0  0  3  0  0  0  0  0  0
  -27.1610  -33.0490   25.6830 C   0  0  0  0  0  1  0  0  0  0  0  0
  -26.1820  -33.4610   24.6820 N   0  0  0  0  0  0  0  0  0  0  0  0
  -25.6630  -34.2520   25.0520 H   0  0  0  0  0  0  0  0  0  0  0  0
  -26.7050  -27.7300   24.1010 C   0  0  1  0  0  0  0  0  0  0  0  0
  -25.5990  -27.0590   24.9510 C   0  0  0  0  0  1  0  0  0  0  0  0
  -27.4660  -26.6140   23.3440 C   0  0  0  0  0  1  0  0  0  0  0  0
  -27.7190  -28.3820   25.0690 C   0  0  0  0  0  1  0  0  0  0  0  0
  1 55  1  0
  1  3  1  0
  2  1  2  0
  4  6  1  0
  4  3  1  0
  5  4  1  0
  7  8  1  0
  7  4  1  0
  8 17  1  0
  9 15  1  0
  9 17  1  0
 10 15  1  0
 11 12  1  0
 11 10  1  0
 13 12  1  0
 13 22  1  0
 13 14  1  0
 15 14  1  0
 16  9  2  0
 17 18  1  0
 19 20  2  0
 20 39  1  0
 21 20  1  0
 21 24  1  0
 22 19  1  0
 22 23  1  0
 23 21  2  0
 24 25  1  0
 25 26  2  0
 27 30  1  0
 27 26  1  0
 28 27  2  0
 29 28  1  0
 29 24  2  0
 30 31  1  0
 31 36  2  0
 31 32  1  0
 32 33  2  0
 33 34  1  0
 34 38  1  0
 35 34  2  0
 36 35  1  0
 37 36  1  0
 39 40  1  0
 40 43  1  0
 40 42  1  0
 41 39  2  0
 44 45  1  0
 44 19  1  0
 46 44  1  0
 47  7  1  0
 48 47  1  0
 49 48  1  0
 50 49  1  0
 51 50  1  0
 51 54  1  0
 52 51  1  0
 53 51  1  0
 56 55  1  0
 57 63  1  0
 57 58  1  0
 57 56  1  0
 58 60  2  0
 59 58  1  0
 59 62  1  0
 61 59  1  0
 64 63  1  0
 66 65  1  0
 66 64  1  0
 67 69  1  0
 67 66  1  0
 68 79  2  0
 69 74  1  0
 70 80  1  0
 70 78  1  0
 71 77  1  0
 71 73  1  0
 72 78  1  0
 73 72  1  0
 74 73  2  0
 75 76  1  0
 75 69  2  0
 76 71  2  0
 77 70  1  0
 78 68  1  0
 80 82  2  0
 81 80  1  0
 83 81  1  0
 84 93  2  0
 84 89  1  0
 85 81  1  0
 85 89  1  0
 86 85  1  0
 87 88  1  0
 87 86  1  0
 88 84  1  0
 89 90  2  0
 90 91  1  0
 92 91  2  0
 93 92  1  0
 94 68  1  0
 94 95  1  0
 94104  1  0
 95 98  1  0
 96 95  1  0
 96100  1  0
 97 96  2  0
100 99  1  0
100102  1  0
102103  1  0
102101  1  0
104105  1  1
104107  1  0
106104  1  0
M  ISO  4   9 100  17 100  66 101  67 101
M  END
>  <TORSDO>  (60) 
F 32

>  <SCORE>  (60) 
-6.302

>  <name>  (60) 
60

>  <ligand_id>  (60) 
60

>  <original_smiles>  (60) 
[H]c1c([H])c([H])c2c(c1[H])C([H])([H])C([H])([H])C([H])([H])C2([H])N([H])C(=O)C1([H])N(C(=O)C([H])(N([H])C(=O)C([H])(N([H])C([H])([H])[H])C([H])([H])[H])C(C([H])([H])[H])(C([H])([H])[H])C([H])([H])[H])C([H])([H])c2c([H])c(OC([H])(C([H])([H])[H])C([H])([H])C([H])([H])C([H])(C(=O)N([H])[H])C([H])([H])C([H])([H])C(=O)C([H])([H])[N+]([H])([H])C([H])(C([H])([H])N([H])C(=O)N3C([H])([H])C([H])([H])C([H])([H])C([H])(n4nc(-c5c([H])c([H])c(Oc6c([H])c([H])c(F)c([H])c6F)c([H])c5[H])c(C(=O)N([H])[H])c4N([H])[H])C3([H])[H])C([H])([H])C([H])([H])C([H])([H])C([H])([H])[N+]([H])([H])[H])c([H])c([H])c2C1([H])[H]

>  <smiles>  (60) 
[H]c1c([H])c([H])c2c(c1[H])C([H])([H])C([H])([H])C([H])([H])C2([H])N([H])C(=O)C1([H])N(C(=O)C([H])(N([H])C(=O)C([H])(N([H])C([H])([H])[H])C([H])([H])[H])C(C([H])([H])[H])(C([H])([H])[H])C([H])([H])[H])C([H])([H])c2c([H])c(OC([H])(C([H])([H])[H])C([H])([H])C([H])([H])C([H])(C(=O)N([H])[H])C([H])([H])C([H])([H])C(=O)C([H])([H])[N+]([H])([H])C([H])(C([H])([H])N([H])C(=O)N3C([H])([H])C([H])([H])C([H])([H])C([H])(n4nc(-c5c([H])c([H])c(Oc6c([H])c([H])c(F)c([H])c6F)c([H])c5[H])c(C(=O)N([H])[H])c4N([H])[H])C3([H])[H])C([H])([H])C([H])([H])C([H])([H])C([H])([H])[N+]([H])([H])[H])c([H])c([H])c2C1([H])[H]

$$$$
61:0:0
     RDKit          3D

 97104  0  0  1  0  0  0  0  0999 V2000
  -30.2980  -18.6350   21.7570 C   0  0  0  0  0  2  0  0  0  0  0  0
  -30.3760  -19.9010   22.4650 N   0  0  0  0  0  0  0  0  0  0  0  0
  -29.9260  -19.8190   23.3740 H   0  0  0  0  0  0  0  0  0  0  0  0
  -29.6690  -20.8840   21.6620 C   0  0  0  0  0  2  0  0  0  0  0  0
  -29.9640  -22.2960   22.1660 C   0  0  0  0  0  2  0  0  0  0  0  0
  -29.5530  -23.3170   21.1030 C   0  0  0  0  0  2  0  0  0  0  0  0
  -29.7190  -24.7640   21.5610 C   0  0  0  0  0  2  0  0  0  0  0  0
  -29.9000  -25.7050   20.3690 C   0  0  0  0  0  2  0  0  0  0  0  0
  -29.5970  -27.0250   20.7800 O   0  0  0  0  0  0  0  0  0  0  0  0
  -24.9460  -31.6690   23.3870 C   0  0  0  0  0  0  0  0  0  0  0  0
  -28.3140  -27.5050   20.6820 C   0  0  0  0  0  0  0  0  0  0  0  0
  -24.0440  -30.1170   21.6830 C   0  0  0  0  0  3  0  0  0  0  0  0
  -25.7700  -28.7080   20.4520 C   0  0  0  0  0  0  0  0  0  0  0  0
  -26.5220  -30.7440   21.6950 C   0  0  0  0  0  2  0  0  0  0  0  0
  -26.8040  -29.3770   21.1170 C   0  0  0  0  0  0  0  0  0  0  0  0
  -28.0750  -28.7800   21.2290 C   0  0  0  0  0  3  0  0  0  0  0  0
  -27.2510  -26.8230   20.0380 C   0  0  0  0  0  3  0  0  0  0  0  0
  -25.9850  -27.4270   19.9180 C   0  0  0  0  0  3  0  0  0  0  0  0
  -24.4470  -29.4290   20.3520 C   0  0  0  0  0  2  0  0  0  0  0  0
  -25.1820  -30.8600   22.3160 N   0  0  0  0  0  0  0  0  0  0  0  0
  -23.7970  -31.8380   23.8190 O   0  0  0  0  0  0  0  0  0  0  0  0
  -23.4140  -29.0540   22.6100 C   0  0  0  0  0  0  0  0  0  0  0  0
  -22.1540  -28.6880   22.3270 N   0  0  0  0  0  0  0  0  0  0  0  0
  -24.0610  -28.5580   23.5360 O   0  0  0  0  0  0  0  0  0  0  0  0
  -21.6910  -29.1490   21.5580 H   0  0  0  0  0  0  0  0  0  0  0  0
  -18.9240  -27.0780   22.4550 C   0  0  0  0  0  0  0  0  0  0  0  0
  -21.3710  -27.6790   23.0370 C   0  0  0  0  0  3  0  0  0  0  0  0
  -21.7290  -26.2540   22.5540 C   0  0  0  0  0  2  0  0  0  0  0  0
  -20.8210  -25.7520   21.4280 C   0  0  0  0  0  2  0  0  0  0  0  0
  -19.3580  -25.7390   21.8810 C   0  0  0  0  0  2  0  0  0  0  0  0
  -19.8710  -27.9950   22.9830 C   0  0  0  0  0  0  0  0  0  0  0  0
  -19.4200  -29.2410   23.4680 C   0  0  0  0  0  3  0  0  0  0  0  0
  -18.0530  -29.5740   23.4380 C   0  0  0  0  0  3  0  0  0  0  0  0
  -17.1180  -28.6540   22.9320 C   0  0  0  0  0  3  0  0  0  0  0  0
  -17.5540  -27.4090   22.4440 C   0  0  0  0  0  3  0  0  0  0  0  0
  -26.0990  -32.4390   24.1030 C   0  0  0  0  0  3  0  0  0  0  0  0
  -25.6290  -33.8080   24.3530 N   0  0  0  0  0  0  0  0  0  0  0  0
  -25.9290  -34.8650   23.5870 C   0  0  0  0  0  0  0  0  0  0  0  0
  -26.7000  -34.7990   22.6250 O   0  0  0  0  0  0  0  0  0  0  0  0
  -24.9490  -33.9250   25.0890 H   0  0  0  0  0  0  0  0  0  0  0  0
  -24.0730  -36.4600   23.0090 C   0  0  0  0  0  1  0  0  0  0  0  0
  -25.2670  -36.2090   23.9430 C   0  0  0  0  0  3  0  0  0  0  0  0
  -27.2290  -37.3190   24.9190 C   0  0  0  0  0  1  0  0  0  0  0  0
  -26.1990  -37.3570   23.8840 N   0  0  0  0  0  0  0  0  0  0  0  0
  -25.6940  -38.2350   23.9730 H   0  0  0  0  0  0  0  0  0  0  0  0
  -26.5640  -31.7530   25.4450 C   0  0  1  0  0  0  0  0  0  0  0  0
  -25.3970  -31.3860   26.3910 C   0  0  0  0  0  1  0  0  0  0  0  0
  -27.3590  -30.4600   25.1470 C   0  0  0  0  0  1  0  0  0  0  0  0
  -27.5230  -32.6950   26.2120 C   0  0  0  0  0  1  0  0  0  0  0  0
  -31.0920  -17.5320   22.4650 C   0  0  0  0  0  2  0  0  0  0  0  0
  -31.2710  -16.4150   21.5290 N   0  0  0  0  0  4  0  0  0  0  0  0
  -31.8160  -16.7210   20.7380 H   0  0  0  0  0  0  0  0  0  0  0  0
  -30.3610  -16.1530   21.1910 H   0  0  0  0  0  0  0  0  0  0  0  0
  -31.8740  -15.1940   22.0870 C   0  0  0  0  0  2  0  0  0  0  0  0
  -31.9140  -14.0840   21.0100 C   0  0  0  0  0  3  0  0  0  0  0  0
  -30.1560  -13.7880   19.2500 C   0  0  0  0  0  0  0  0  0  0  0  0
  -29.3110  -11.9910   17.8220 C   0  0  0  0  0  2  0  0  0  0  0  0
  -28.0960  -12.3060   16.9420 C   0  0  0  0  0  2  0  0  0  0  0  0
  -26.7930  -12.0890   17.7270 C   0  0  0  0  0  2  0  0  0  0  0  0
  -26.7930  -12.8300   19.0880 C   0  0  0  0  0  3  0  0  0  0  0  0
  -28.0840  -12.5390   19.8840 C   0  0  0  0  0  2  0  0  0  0  0  0
  -29.2520  -12.8140   19.0300 N   0  0  0  0  0  0  0  0  0  0  0  0
  -30.7800  -14.3840   18.3670 O   0  0  0  0  0  0  0  0  0  0  0  0
  -30.5560  -13.7900   20.5270 N   0  0  0  0  0  0  0  0  0  0  0  0
  -30.0040  -13.2020   21.1340 H   0  0  0  0  0  0  0  0  0  0  0  0
  -24.6290  -13.3570   20.3830 C   0  0  0  0  0  0  0  0  0  0  0  0
  -23.6830  -12.5460   20.9500 C   0  0  0  0  0  0  0  0  0  0  0  0
  -24.1290  -11.2060   20.7320 C   0  0  0  0  0  0  0  0  0  0  0  0
  -25.5950  -12.5090   19.8620 N   0  0  0  0  0  0  0  0  0  0  0  0
  -25.3080  -11.2080   20.1240 N   0  0  0  0  0  0  0  0  0  0  0  0
  -23.4750   -9.9220   21.0170 C   0  0  0  0  0  0  0  0  0  0  0  0
  -24.0620   -8.9690   21.8770 C   0  0  0  0  0  3  0  0  0  0  0  0
  -23.4040   -7.7500   22.1480 C   0  0  0  0  0  3  0  0  0  0  0  0
  -22.1480   -7.4740   21.5610 C   0  0  0  0  0  0  0  0  0  0  0  0
  -21.5790   -8.4170   20.6860 C   0  0  0  0  0  3  0  0  0  0  0  0
  -22.2360   -9.6280   20.4130 C   0  0  0  0  0  3  0  0  0  0  0  0
  -21.4490   -6.3060   21.7460 O   0  0  0  0  0  0  0  0  0  0  0  0
  -21.5180   -5.6050   22.9230 C   0  0  0  0  0  0  0  0  0  0  0  0
  -21.1690   -6.1900   24.1600 C   0  0  0  0  0  3  0  0  0  0  0  0
  -21.1890   -5.4130   25.3360 C   0  0  0  0  0  3  0  0  0  0  0  0
  -21.5460   -4.0530   25.2760 C   0  0  0  0  0  0  0  0  0  0  0  0
  -21.8880   -3.4680   24.0440 C   0  0  0  0  0  3  0  0  0  0  0  0
  -21.8710   -4.2420   22.8700 C   0  0  0  0  0  0  0  0  0  0  0  0
  -22.1800   -3.6660   21.6830 F   0  0  0  0  0  0  0  0  0  0  0  0
  -21.5560   -3.3040   26.4040 F   0  0  0  0  0  0  0  0  0  0  0  0
  -22.3900  -12.9820   21.5770 C   0  0  0  0  0  0  0  0  0  0  0  0
  -21.9100  -12.2400   22.5700 N   0  0  0  0  0  0  0  0  0  0  0  0
  -21.8230  -14.0140   21.2230 O   0  0  0  0  0  0  0  0  0  0  0  0
  -22.3860  -11.4030   22.8740 H   0  0  0  0  0  0  0  0  0  0  0  0
  -21.0530  -12.5120   23.0310 H   0  0  0  0  0  0  0  0  0  0  0  0
  -24.7430  -14.7380   20.2520 N   0  0  0  0  0  0  0  0  0  0  0  0
  -24.0220  -15.3750   20.5740 H   0  0  0  0  0  0  0  0  0  0  0  0
  -25.4960  -15.2060   19.7620 H   0  0  0  0  0  0  0  0  0  0  0  0
  -34.0180  -13.0520   22.0300 C   0  0  0  0  0  1  0  0  0  0  0  0
  -31.7930  -11.9610   22.4680 C   0  0  0  0  0  1  0  0  0  0  0  0
  -32.8270  -11.8510   20.2010 C   0  0  0  0  0  1  0  0  0  0  0  0
  -32.6240  -12.7570   21.4370 C   0  0  1  0  0  0  0  0  0  0  0  0
  1  2  1  0
  1 50  1  0
  2  3  1  0
  4  5  1  0
  4  2  1  0
  6  7  1  0
  6  5  1  0
  8  9  1  0
  8  7  1  0
 10 21  2  0
 11  9  1  0
 11 16  1  0
 12 20  1  0
 12 22  1  0
 13 15  1  0
 14 20  1  0
 15 16  2  0
 15 14  1  0
 17 11  2  0
 18 17  1  0
 18 13  2  0
 19 13  1  0
 19 12  1  0
 20 10  1  0
 22 24  2  0
 23 22  1  0
 25 23  1  0
 26 31  1  0
 27 23  1  0
 28 27  1  0
 29 30  1  0
 29 28  1  0
 30 26  1  0
 31 27  1  0
 31 32  2  0
 33 32  1  0
 34 33  2  0
 35 26  2  0
 35 34  1  0
 36 10  1  0
 36 37  1  0
 36 46  1  0
 37 40  1  0
 38 42  1  0
 38 37  1  0
 39 38  2  0
 42 41  1  0
 44 42  1  0
 44 45  1  0
 44 43  1  0
 46 49  1  1
 46 47  1  0
 48 46  1  0
 51 54  1  0
 51 50  1  0
 52 51  1  0
 53 51  1  0
 55 97  1  0
 55 54  1  0
 56 64  1  0
 57 62  1  0
 58 59  1  0
 58 57  1  0
 60 59  1  0
 60 69  1  0
 60 61  1  0
 62 56  1  0
 62 61  1  0
 63 56  2  0
 64 55  1  0
 64 65  1  0
 66 67  2  0
 67 86  1  0
 68 67  1  0
 68 71  1  0
 69 70  1  0
 69 66  1  0
 70 68  2  0
 71 72  1  0
 72 73  2  0
 74 77  1  0
 74 73  1  0
 75 74  2  0
 76 75  1  0
 76 71  2  0
 77 78  1  0
 78 79  1  0
 79 80  2  0
 81 80  1  0
 81 85  1  0
 82 81  2  0
 83 78  2  0
 83 82  1  0
 84 83  1  0
 86 87  1  0
 87 89  1  0
 87 90  1  0
 88 86  2  0
 91 66  1  0
 91 92  1  0
 93 91  1  0
 97 96  1  6
 97 94  1  0
 97 95  1  0
M  ISO  4   8 101   9 101  56 100  64 100
M  END
>  <TORSDO>  (61) 
F 27

>  <SCORE>  (61) 
-6.072

>  <name>  (61) 
61

>  <ligand_id>  (61) 
61

>  <original_smiles>  (61) 
[H]c1c([H])c([H])c2c(c1[H])C([H])([H])C([H])([H])C([H])([H])C2([H])N([H])C(=O)C1([H])N(C(=O)C([H])(N([H])C(=O)C([H])(N([H])C([H])([H])[H])C([H])([H])[H])C(C([H])([H])[H])(C([H])([H])[H])C([H])([H])[H])C([H])([H])c2c([H])c(OC([H])([H])C([H])([H])C([H])([H])C([H])([H])C([H])([H])N([H])C([H])([H])C([H])([H])[N+]([H])([H])C([H])([H])C([H])(N([H])C(=O)N3C([H])([H])C([H])([H])C([H])([H])C([H])(n4nc(-c5c([H])c([H])c(Oc6c([H])c([H])c(F)c([H])c6F)c([H])c5[H])c(C(=O)N([H])[H])c4N([H])[H])C3([H])[H])C(C([H])([H])[H])(C([H])([H])[H])C([H])([H])[H])c([H])c([H])c2C1([H])[H]

>  <smiles>  (61) 
[H]c1c([H])c([H])c2c(c1[H])C([H])([H])C([H])([H])C([H])([H])C2([H])N([H])C(=O)C1([H])N(C(=O)C([H])(N([H])C(=O)C([H])(N([H])C([H])([H])[H])C([H])([H])[H])C(C([H])([H])[H])(C([H])([H])[H])C([H])([H])[H])C([H])([H])c2c([H])c(OC([H])([H])C([H])([H])C([H])([H])C([H])([H])C([H])([H])N([H])C([H])([H])C([H])([H])[N+]([H])([H])C([H])([H])C([H])(N([H])C(=O)N3C([H])([H])C([H])([H])C([H])([H])C([H])(n4nc(-c5c([H])c([H])c(Oc6c([H])c([H])c(F)c([H])c6F)c([H])c5[H])c(C(=O)N([H])[H])c4N([H])[H])C3([H])[H])C(C([H])([H])[H])(C([H])([H])[H])C([H])([H])[H])c([H])c([H])c2C1([H])[H]

$$$$
62:0:0
     RDKit          3D

109118  0  0  1  0  0  0  0  0999 V2000
  -27.7070  -21.5330   19.1680 C   0  0  0  0  0  3  0  0  0  0  0  0
  -27.9000  -23.4120   17.6430 C   0  0  0  0  0  3  0  0  0  0  0  0
  -29.8460  -22.0140   18.1350 C   0  0  0  0  0  3  0  0  0  0  0  0
  -27.0810  -22.5850   18.4460 C   0  0  0  0  0  0  0  0  0  0  0  0
  -29.0930  -21.2380   19.0220 C   0  0  0  0  0  0  0  0  0  0  0  0
  -29.2840  -23.1630   17.5540 C   0  0  0  0  0  0  0  0  0  0  0  0
  -25.5950  -22.8660   18.6150 C   0  0  0  0  0  0  0  0  0  0  0  0
  -25.0560  -23.7600   17.7900 N   0  0  0  0  0  0  0  0  0  0  0  0
  -24.9120  -22.2880   19.4520 O   0  0  0  0  0  0  0  0  0  0  0  0
  -25.6470  -24.2330   17.1220 H   0  0  0  0  0  0  0  0  0  0  0  0
  -24.0680  -23.9690   17.8250 H   0  0  0  0  0  0  0  0  0  0  0  0
  -29.8240  -20.2130   19.8560 C   0  0  0  0  0  0  0  0  0  0  0  0
  -30.2170  -19.1010   19.2180 N   0  0  0  0  0  0  0  0  0  0  0  0
  -30.0580  -20.4370   21.0480 O   0  0  0  0  0  0  0  0  0  0  0  0
  -30.1420  -19.0860   18.2060 H   0  0  0  0  0  0  0  0  0  0  0  0
  -30.6370  -17.8420   19.8440 C   0  0  0  0  0  2  0  0  0  0  0  0
  -29.5550  -17.0090   20.6440 C   0  0  0  0  0  3  0  0  0  0  0  0
  -30.7680  -14.6970   20.9180 C   0  0  0  0  0  0  0  0  0  0  0  0
  -30.9320  -12.2650   20.5690 C   0  0  0  0  0  2  0  0  0  0  0  0
  -30.1650  -11.9340   19.2670 C   0  0  0  0  0  2  0  0  0  0  0  0
  -28.6520  -11.7440   19.5230 C   0  0  0  0  0  2  0  0  0  0  0  0
  -28.0500  -12.8900   20.3800 C   0  0  0  0  0  3  0  0  0  0  0  0
  -28.9300  -13.1390   21.6270 C   0  0  0  0  0  2  0  0  0  0  0  0
  -30.2960  -13.4440   21.1560 N   0  0  0  0  0  0  0  0  0  0  0  0
  -31.9580  -14.9660   20.7440 O   0  0  0  0  0  0  0  0  0  0  0  0
  -29.7490  -15.5510   20.6780 N   0  0  0  0  0  0  0  0  0  0  0  0
  -28.8820  -15.0500   20.7340 H   0  0  0  0  0  0  0  0  0  0  0  0
  -25.6300  -13.5120   20.9340 C   0  0  0  0  0  0  0  0  0  0  0  0
  -24.5120  -12.7860   21.1720 C   0  0  0  0  0  0  0  0  0  0  0  0
  -24.9460  -11.4300   21.1370 C   0  0  0  0  0  0  0  0  0  0  0  0
  -26.6680  -12.6260   20.7430 N   0  0  0  0  0  0  0  0  0  0  0  0
  -26.2540  -11.3500   20.9400 N   0  0  0  0  0  0  0  0  0  0  0  0
  -24.1770  -10.2030   21.2310 C   0  0  0  0  0  0  0  0  0  0  0  0
  -24.4830   -9.2440   22.2190 C   0  0  0  0  0  3  0  0  0  0  0  0
  -23.7200   -8.0630   22.3090 C   0  0  0  0  0  3  0  0  0  0  0  0
  -22.6470   -7.8460   21.4120 C   0  0  0  0  0  0  0  0  0  0  0  0
  -22.3600   -8.8050   20.4250 C   0  0  0  0  0  3  0  0  0  0  0  0
  -23.1210   -9.9770   20.3300 C   0  0  0  0  0  3  0  0  0  0  0  0
  -21.8670   -6.7200   21.3970 O   0  0  0  0  0  0  0  0  0  0  0  0
  -21.5410   -6.0660   22.5530 C   0  0  0  0  0  0  0  0  0  0  0  0
  -20.7810   -6.6790   23.5730 C   0  0  0  0  0  3  0  0  0  0  0  0
  -20.4080   -5.9370   24.7140 C   0  0  0  0  0  3  0  0  0  0  0  0
  -20.7910   -4.5860   24.8300 C   0  0  0  0  0  0  0  0  0  0  0  0
  -21.5450   -3.9750   23.8120 C   0  0  0  0  0  3  0  0  0  0  0  0
  -21.9130   -4.7130   22.6750 C   0  0  0  0  0  0  0  0  0  0  0  0
  -22.6200   -4.1150   21.6870 F   0  0  0  0  0  0  0  0  0  0  0  0
  -20.4300   -3.8730   25.9230 F   0  0  0  0  0  0  0  0  0  0  0  0
  -23.1160  -13.3010   21.3350 C   0  0  0  0  0  0  0  0  0  0  0  0
  -22.2960  -12.6140   22.1170 N   0  0  0  0  0  0  0  0  0  0  0  0
  -22.7550  -14.3550   20.7980 O   0  0  0  0  0  0  0  0  0  0  0  0
  -22.5870  -11.7510   22.5560 H   0  0  0  0  0  0  0  0  0  0  0  0
  -21.3590  -12.9570   22.2780 H   0  0  0  0  0  0  0  0  0  0  0  0
  -25.8330  -14.8570   20.8360 N   0  0  0  0  0  0  0  0  0  0  0  0
  -25.0840  -15.5180   21.0070 H   0  0  0  0  0  0  0  0  0  0  0  0
  -26.7300  -15.2830   20.6430 H   0  0  0  0  0  0  0  0  0  0  0  0
  -25.3160  -17.9400   19.7550 C   0  0  0  0  0  2  0  0  0  0  0  0
  -26.2320  -19.1350   20.0280 C   0  0  0  0  0  2  0  0  0  0  0  0
  -25.9220  -16.9410   18.7590 C   0  0  0  0  0  2  0  0  0  0  0  0
  -27.6000  -18.7290   20.6140 C   0  0  0  0  0  2  0  0  0  0  0  0
  -27.3980  -16.5940   19.0940 C   0  0  0  0  0  2  0  0  0  0  0  0
  -28.0150  -17.2530   20.3810 C   0  0  0  0  0  3  0  0  0  0  0  0
  -30.2400  -24.1910   16.9950 C   0  0  0  0  0  2  0  0  0  0  0  0
  -30.8880  -24.8750   18.1400 N   0  0  0  0  0  4  0  0  0  0  0  0
  -31.8170  -25.1040   17.8190 H   0  0  0  0  0  0  0  0  0  0  0  0
  -30.9840  -24.2140   18.9050 H   0  0  0  0  0  0  0  0  0  0  0  0
  -31.2890  -27.2010   18.8840 C   0  0  0  0  0  1  0  0  0  0  0  0
  -30.2170  -26.1100   18.6520 C   0  0  0  0  0  3  0  0  0  0  0  0
  -29.3470  -25.8510   19.9210 C   0  0  0  0  0  2  0  0  0  0  0  0
  -28.9750  -27.0690   20.5790 O   0  0  0  0  0  0  0  0  0  0  0  0
  -24.5890  -31.9100   23.3070 C   0  0  0  0  0  0  0  0  0  0  0  0
  -27.7250  -27.6420   20.4570 C   0  0  0  0  0  0  0  0  0  0  0  0
  -23.5940  -30.4460   21.5720 C   0  0  0  0  0  3  0  0  0  0  0  0
  -25.2420  -28.9850   20.2870 C   0  0  0  0  0  0  0  0  0  0  0  0
  -26.0910  -30.9610   21.5700 C   0  0  0  0  0  2  0  0  0  0  0  0
  -26.3100  -29.5930   20.9490 C   0  0  0  0  0  0  0  0  0  0  0  0
  -27.5420  -28.9160   21.0450 C   0  0  0  0  0  3  0  0  0  0  0  0
  -26.6220  -27.0320   19.8050 C   0  0  0  0  0  3  0  0  0  0  0  0
  -25.3840  -27.7020   19.7250 C   0  0  0  0  0  3  0  0  0  0  0  0
  -23.9500  -29.7690   20.2190 C   0  0  0  0  0  2  0  0  0  0  0  0
  -24.7690  -31.1220   22.2150 N   0  0  0  0  0  0  0  0  0  0  0  0
  -23.4510  -32.1230   23.7530 O   0  0  0  0  0  0  0  0  0  0  0  0
  -22.9210  -29.3960   22.4850 C   0  0  0  0  0  0  0  0  0  0  0  0
  -21.6060  -29.2190   22.3090 N   0  0  0  0  0  0  0  0  0  0  0  0
  -23.5770  -28.7580   23.3140 O   0  0  0  0  0  0  0  0  0  0  0  0
  -21.1460  -29.8000   21.6210 H   0  0  0  0  0  0  0  0  0  0  0  0
  -18.2000  -28.0830   22.7710 C   0  0  0  0  0  0  0  0  0  0  0  0
  -20.7650  -28.2580   23.0310 C   0  0  0  0  0  3  0  0  0  0  0  0
  -20.8260  -26.8560   22.3810 C   0  0  0  0  0  2  0  0  0  0  0  0
  -19.7040  -26.6190   21.3660 C   0  0  0  0  0  2  0  0  0  0  0  0
  -18.3310  -26.7580   22.0420 C   0  0  0  0  0  2  0  0  0  0  0  0
  -19.3430  -28.7930   23.2280 C   0  0  0  0  0  0  0  0  0  0  0  0
  -19.1690  -30.0200   23.9020 C   0  0  0  0  0  3  0  0  0  0  0  0
  -17.8780  -30.5370   24.1220 C   0  0  0  0  0  3  0  0  0  0  0  0
  -16.7530  -29.8290   23.6790 C   0  0  0  0  0  3  0  0  0  0  0  0
  -16.9110  -28.6080   23.0100 C   0  0  0  0  0  3  0  0  0  0  0  0
  -25.7880  -32.6020   24.0370 C   0  0  0  0  0  3  0  0  0  0  0  0
  -26.2230  -31.8610   25.3580 C   0  0  1  0  0  0  0  0  0  0  0  0
  -25.0530  -31.5690   26.3260 C   0  0  0  0  0  1  0  0  0  0  0  0
  -26.9190  -30.5210   25.0210 C   0  0  0  0  0  1  0  0  0  0  0  0
  -27.2610  -32.7200   26.1140 C   0  0  0  0  0  1  0  0  0  0  0  0
  -25.3830  -33.9880   24.3210 N   0  0  0  0  0  0  0  0  0  0  0  0
  -25.7430  -35.0430   23.5790 C   0  0  0  0  0  0  0  0  0  0  0  0
  -26.5130  -34.9630   22.6210 O   0  0  0  0  0  0  0  0  0  0  0  0
  -24.7120  -34.1200   25.0620 H   0  0  0  0  0  0  0  0  0  0  0  0
  -23.9870  -36.7610   23.0280 C   0  0  0  0  0  1  0  0  0  0  0  0
  -25.1520  -36.4160   23.9700 C   0  0  0  0  0  3  0  0  0  0  0  0
  -27.1500  -37.3960   25.0060 C   0  0  0  0  0  1  0  0  0  0  0  0
  -26.1480  -37.5090   23.9500 N   0  0  0  0  0  0  0  0  0  0  0  0
  -25.6900  -38.4120   24.0460 H   0  0  0  0  0  0  0  0  0  0  0  0
  2  4  1  0
  3  5  2  0
  4  7  1  0
  4  1  2  0
  5  1  1  0
  5 12  1  0
  6  2  2  0
  6  3  1  0
  7  9  2  0
  8 11  1  0
  8  7  1  0
 10  8  1  0
 12 14  2  0
 13 16  1  0
 13 12  1  0
 15 13  1  0
 17 16  1  0
 17 26  1  0
 18 24  1  0
 19 24  1  0
 20 21  1  0
 20 19  1  0
 22 21  1  0
 22 31  1  0
 22 23  1  0
 24 23  1  0
 25 18  2  0
 26 27  1  0
 26 18  1  0
 28 29  2  0
 29 48  1  0
 30 29  1  0
 30 33  1  0
 31 28  1  0
 31 32  1  0
 32 30  2  0
 33 34  1  0
 34 35  2  0
 36 35  1  0
 37 36  2  0
 38 37  1  0
 38 33  2  0
 39 36  1  0
 39 40  1  0
 40 45  2  0
 40 41  1  0
 41 42  2  0
 42 43  1  0
 43 47  1  0
 44 43  2  0
 45 44  1  0
 46 45  1  0
 48 49  1  0
 49 52  1  0
 49 51  1  0
 50 48  2  0
 53 28  1  0
 53 54  1  0
 55 53  1  0
 56 57  1  0
 57 59  1  0
 58 60  1  0
 58 56  1  0
 60 61  1  0
 61 59  1  0
 61 17  1  0
 62  6  1  0
 62 63  1  0
 63 67  1  0
 63 65  1  0
 64 63  1  0
 67 66  1  0
 67 68  1  0
 68 69  1  0
 70 81  2  0
 71 69  1  0
 71 76  1  0
 72 80  1  0
 72 82  1  0
 73 75  1  0
 74 80  1  0
 75 76  2  0
 75 74  1  0
 77 71  2  0
 78 77  1  0
 78 73  2  0
 79 73  1  0
 79 72  1  0
 80 70  1  0
 82 84  2  0
 83 82  1  0
 85 83  1  0
 86 95  2  0
 86 91  1  0
 87 83  1  0
 87 91  1  0
 88 87  1  0
 89 90  1  0
 89 88  1  0
 90 86  1  0
 91 92  2  0
 92 93  1  0
 94 93  2  0
 95 94  1  0
 96 70  1  0
 96101  1  0
 96 97  1  0
 97100  1  1
 97 98  1  0
 99 97  1  0
101104  1  0
102106  1  0
102101  1  0
103102  2  0
106105  1  0
108106  1  0
108109  1  0
108107  1  0
M  ISO  4  18 100  26 100  68 101  69 101
M  END
>  <TORSDO>  (62) 
F 25

>  <SCORE>  (62) 
-8.734

>  <name>  (62) 
62

>  <ligand_id>  (62) 
62

>  <original_smiles>  (62) 
[H]c1c([H])c([H])c2c(c1[H])C([H])([H])C([H])([H])C([H])([H])C2([H])N([H])C(=O)C1([H])N(C(=O)C([H])(N([H])C(=O)C([H])(N([H])C([H])([H])[H])C([H])([H])[H])C(C([H])([H])[H])(C([H])([H])[H])C([H])([H])[H])C([H])([H])c2c([H])c(OC([H])([H])C([H])(C([H])([H])[H])[N+]([H])([H])C([H])([H])c3c([H])c(C(=O)N([H])[H])c([H])c(C(=O)N([H])C([H])([H])C([H])(N([H])C(=O)N4C([H])([H])C([H])([H])C([H])([H])C([H])(n5nc(-c6c([H])c([H])c(Oc7c([H])c([H])c(F)c([H])c7F)c([H])c6[H])c(C(=O)N([H])[H])c5N([H])[H])C4([H])[H])C4([H])C([H])([H])C([H])([H])C([H])([H])C([H])([H])C4([H])[H])c3[H])c([H])c([H])c2C1([H])[H]

>  <smiles>  (62) 
[H]c1c([H])c([H])c2c(c1[H])C([H])([H])C([H])([H])C([H])([H])C2([H])N([H])C(=O)C1([H])N(C(=O)C([H])(N([H])C(=O)C([H])(N([H])C([H])([H])[H])C([H])([H])[H])C(C([H])([H])[H])(C([H])([H])[H])C([H])([H])[H])C([H])([H])c2c([H])c(OC([H])([H])C([H])(C([H])([H])[H])[N+]([H])([H])C([H])([H])c3c([H])c(C(=O)N([H])[H])c([H])c(C(=O)N([H])C([H])([H])C([H])(N([H])C(=O)N4C([H])([H])C([H])([H])C([H])([H])C([H])(n5nc(-c6c([H])c([H])c(Oc7c([H])c([H])c(F)c([H])c7F)c([H])c6[H])c(C(=O)N([H])[H])c5N([H])[H])C4([H])[H])C4([H])C([H])([H])C([H])([H])C([H])([H])C([H])([H])C4([H])[H])c3[H])c([H])c([H])c2C1([H])[H]

$$$$
63:0:0
     RDKit          3D

112120  0  0  1  0  0  0  0  0999 V2000
  -31.0870  -20.1210   23.7900 C   0  0  0  0  0  2  0  0  0  0  0  0
  -32.0320  -19.7860   22.6390 C   0  0  0  0  0  2  0  0  0  0  0  0
  -29.8200  -20.6170   23.0940 C   0  0  0  0  0  2  0  0  0  0  0  0
  -31.7630  -20.8690   21.5740 C   0  0  0  0  0  3  0  0  0  0  0  0
  -30.2920  -21.3210   21.8030 C   0  0  0  0  0  3  0  0  0  0  0  0
  -32.0150  -20.4230   20.1210 C   0  0  0  0  0  0  0  0  0  0  0  0
  -31.8520  -21.3650   19.1840 N   0  0  0  0  0  0  0  0  0  0  0  0
  -32.3440  -19.2680   19.8480 O   0  0  0  0  0  0  0  0  0  0  0  0
  -31.6380  -22.3000   19.4980 H   0  0  0  0  0  0  0  0  0  0  0  0
  -31.9150  -21.1670   17.7390 C   0  0  0  0  0  2  0  0  0  0  0  0
  -30.5890  -20.6240   17.1680 C   0  0  0  0  0  2  0  0  0  0  0  0
  -29.3550  -21.4700   17.5490 C   0  0  0  0  0  2  0  0  0  0  0  0
  -28.0140  -20.8940   17.0460 C   0  0  0  0  0  2  0  0  0  0  0  0
  -27.2230  -20.2000   18.0910 N   0  0  0  0  0  4  0  0  0  0  0  0
  -26.3030  -20.0810   17.6950 H   0  0  0  0  0  0  0  0  0  0  0  0
  -27.0960  -20.7800   18.9040 H   0  0  0  0  0  0  0  0  0  0  0  0
  -27.6620  -18.8380   18.4670 C   0  0  0  0  0  2  0  0  0  0  0  0
  -28.5540  -18.7830   19.7260 C   0  0  0  0  0  2  0  0  0  0  0  0
  -28.8900  -17.3260   20.0740 C   0  0  0  0  0  2  0  0  0  0  0  0
  -29.8850  -17.1080   21.2310 C   0  0  0  0  0  2  0  0  0  0  0  0
  -30.6980  -14.7880   20.8540 C   0  0  0  0  0  0  0  0  0  0  0  0
  -30.5350  -12.6600   19.6230 C   0  0  0  0  0  2  0  0  0  0  0  0
  -29.6450  -12.8840   18.3820 C   0  0  0  0  0  2  0  0  0  0  0  0
  -28.1550  -12.6970   18.7330 C   0  0  0  0  0  2  0  0  0  0  0  0
  -27.7370  -13.5000   19.9930 C   0  0  0  0  0  3  0  0  0  0  0  0
  -28.7340  -13.2450   21.1480 C   0  0  0  0  0  2  0  0  0  0  0  0
  -30.0910  -13.5880   20.6730 N   0  0  0  0  0  0  0  0  0  0  0  0
  -31.7770  -15.0960   20.3350 O   0  0  0  0  0  0  0  0  0  0  0  0
  -29.9490  -15.6780   21.5170 N   0  0  0  0  0  0  0  0  0  0  0  0
  -29.1490  -15.2880   21.9940 H   0  0  0  0  0  0  0  0  0  0  0  0
  -25.2800  -14.0560   20.5450 C   0  0  0  0  0  0  0  0  0  0  0  0
  -24.2130  -13.2600   20.8670 C   0  0  0  0  0  0  0  0  0  0  0  0
  -24.7130  -11.9230   20.8830 C   0  0  0  0  0  0  0  0  0  0  0  0
  -26.3610  -13.2010   20.3910 N   0  0  0  0  0  0  0  0  0  0  0  0
  -26.0180  -11.9140   20.6460 N   0  0  0  0  0  0  0  0  0  0  0  0
  -24.0130  -10.6430   21.0530 C   0  0  0  0  0  0  0  0  0  0  0  0
  -24.4320   -9.6950   22.0130 C   0  0  0  0  0  3  0  0  0  0  0  0
  -23.7340   -8.4800   22.1700 C   0  0  0  0  0  3  0  0  0  0  0  0
  -22.6030   -8.2010   21.3680 C   0  0  0  0  0  0  0  0  0  0  0  0
  -22.2040   -9.1380   20.3980 C   0  0  0  0  0  3  0  0  0  0  0  0
  -22.9020  -10.3460   20.2390 C   0  0  0  0  0  3  0  0  0  0  0  0
  -21.8800   -7.0350   21.4330 O   0  0  0  0  0  0  0  0  0  0  0  0
  -21.8040   -6.3000   22.5890 C   0  0  0  0  0  0  0  0  0  0  0  0
  -21.3240   -6.8540   23.7950 C   0  0  0  0  0  3  0  0  0  0  0  0
  -21.1970   -6.0430   24.9410 C   0  0  0  0  0  3  0  0  0  0  0  0
  -21.5390   -4.6780   24.8810 C   0  0  0  0  0  0  0  0  0  0  0  0
  -22.0120   -4.1240   23.6780 C   0  0  0  0  0  3  0  0  0  0  0  0
  -22.1410   -4.9310   22.5350 C   0  0  0  0  0  0  0  0  0  0  0  0
  -22.5760   -4.3870   21.3730 F   0  0  0  0  0  0  0  0  0  0  0  0
  -21.4100   -3.8970   25.9780 F   0  0  0  0  0  0  0  0  0  0  0  0
  -22.7910  -13.7010   21.0580 C   0  0  0  0  0  0  0  0  0  0  0  0
  -22.0410  -13.0000   21.9010 N   0  0  0  0  0  0  0  0  0  0  0  0
  -22.3520  -14.7050   20.4980 O   0  0  0  0  0  0  0  0  0  0  0  0
  -22.4090  -12.1890   22.3780 H   0  0  0  0  0  0  0  0  0  0  0  0
  -21.0840  -13.2760   22.0740 H   0  0  0  0  0  0  0  0  0  0  0  0
  -25.4160  -15.4280   20.3570 N   0  0  0  0  0  0  0  0  0  0  0  0
  -24.6240  -16.0580   20.4140 H   0  0  0  0  0  0  0  0  0  0  0  0
  -26.2770  -15.8870   20.0970 H   0  0  0  0  0  0  0  0  0  0  0  0
  -30.2050  -22.8530   21.8830 C   0  0  0  0  0  0  0  0  0  0  0  0
  -29.7440  -23.4770   20.7900 N   0  0  0  0  0  0  0  0  0  0  0  0
  -30.6070  -23.4540   22.8810 O   0  0  0  0  0  0  0  0  0  0  0  0
  -29.3600  -22.9050   20.0520 H   0  0  0  0  0  0  0  0  0  0  0  0
  -29.7690  -24.9200   20.5420 C   0  0  0  0  0  3  0  0  0  0  0  0
  -28.3660  -25.4020   20.1220 C   0  0  0  0  0  2  0  0  0  0  0  0
  -28.3690  -26.8250   20.1250 O   0  0  0  0  0  0  0  0  0  0  0  0
  -24.5150  -31.8990   23.2160 C   0  0  0  0  0  0  0  0  0  0  0  0
  -27.1600  -27.4790   20.1320 C   0  0  0  0  0  0  0  0  0  0  0  0
  -23.2970  -30.4850   21.5900 C   0  0  0  0  0  3  0  0  0  0  0  0
  -24.7430  -28.9430   20.1640 C   0  0  0  0  0  0  0  0  0  0  0  0
  -25.8140  -30.8620   21.3620 C   0  0  0  0  0  2  0  0  0  0  0  0
  -25.9010  -29.4890   20.7320 C   0  0  0  0  0  0  0  0  0  0  0  0
  -27.1100  -28.7630   20.7100 C   0  0  0  0  0  3  0  0  0  0  0  0
  -25.9840  -26.9330   19.5670 C   0  0  0  0  0  3  0  0  0  0  0  0
  -24.7770  -27.6630   19.5800 C   0  0  0  0  0  3  0  0  0  0  0  0
  -23.4950  -29.7940   20.2130 C   0  0  0  0  0  2  0  0  0  0  0  0
  -24.5610  -31.0970   22.1150 N   0  0  0  0  0  0  0  0  0  0  0  0
  -23.4390  -32.1680   23.7680 O   0  0  0  0  0  0  0  0  0  0  0  0
  -22.6590  -29.4670   22.5610 C   0  0  0  0  0  0  0  0  0  0  0  0
  -21.3350  -29.2790   22.4450 N   0  0  0  0  0  0  0  0  0  0  0  0
  -23.3520  -28.8480   23.3750 O   0  0  0  0  0  0  0  0  0  0  0  0
  -20.8380  -29.8330   21.7610 H   0  0  0  0  0  0  0  0  0  0  0  0
  -17.9700  -28.0740   22.9650 C   0  0  0  0  0  0  0  0  0  0  0  0
  -20.5270  -28.3430   23.2240 C   0  0  0  0  0  3  0  0  0  0  0  0
  -20.6330  -26.9090   22.6550 C   0  0  0  0  0  2  0  0  0  0  0  0
  -19.5270  -26.5760   21.6470 C   0  0  0  0  0  2  0  0  0  0  0  0
  -18.1480  -26.7200   22.2960 C   0  0  0  0  0  2  0  0  0  0  0  0
  -19.0870  -28.8430   23.3850 C   0  0  0  0  0  0  0  0  0  0  0  0
  -18.8680  -30.1090   23.9680 C   0  0  0  0  0  3  0  0  0  0  0  0
  -17.5620  -30.6080   24.1340 C   0  0  0  0  0  3  0  0  0  0  0  0
  -16.4590  -29.8380   23.7310 C   0  0  0  0  0  3  0  0  0  0  0  0
  -16.6630  -28.5720   23.1520 C   0  0  0  0  0  3  0  0  0  0  0  0
  -25.8060  -32.5330   23.8230 C   0  0  0  0  0  3  0  0  0  0  0  0
  -26.3470  -31.7590   25.0870 C   0  0  1  0  0  0  0  0  0  0  0  0
  -25.2710  -31.5110   26.1710 C   0  0  0  0  0  1  0  0  0  0  0  0
  -26.9300  -30.3870   24.6760 C   0  0  0  0  0  1  0  0  0  0  0  0
  -27.5030  -32.5560   25.7360 C   0  0  0  0  0  1  0  0  0  0  0  0
  -25.4960  -33.9290   24.1610 N   0  0  0  0  0  0  0  0  0  0  0  0
  -25.8250  -34.9840   23.4040 C   0  0  0  0  0  0  0  0  0  0  0  0
  -26.4920  -34.8860   22.3710 O   0  0  0  0  0  0  0  0  0  0  0  0
  -24.9040  -34.0780   24.9640 H   0  0  0  0  0  0  0  0  0  0  0  0
  -24.0950  -36.7750   23.0510 C   0  0  0  0  0  1  0  0  0  0  0  0
  -25.3330  -36.3690   23.8660 C   0  0  0  0  0  3  0  0  0  0  0  0
  -27.4660  -37.2480   24.7080 C   0  0  0  0  0  1  0  0  0  0  0  0
  -26.3650  -37.4240   23.7630 N   0  0  0  0  0  0  0  0  0  0  0  0
  -25.9590  -38.3420   23.9180 H   0  0  0  0  0  0  0  0  0  0  0  0
  -30.8390  -25.2540   19.4780 C   0  0  0  0  0  2  0  0  0  0  0  0
  -32.2910  -24.9810   19.9290 C   0  0  0  0  0  2  0  0  0  0  0  0
  -33.3080  -25.2280   18.8120 C   0  0  0  0  0  0  0  0  0  0  0  0
  -34.3370  -24.3970   18.7170 N   0  0  0  0  0  0  0  0  0  0  0  0
  -33.1730  -26.1660   18.0280 O   0  0  0  0  0  0  0  0  0  0  0  0
  -34.4580  -23.6380   19.3720 H   0  0  0  0  0  0  0  0  0  0  0  0
  -35.0290  -24.5280   17.9910 H   0  0  0  0  0  0  0  0  0  0  0  0
  2  1  1  0
  3  1  1  0
  4  6  1  0
  4  5  1  0
  4  2  1  0
  5 59  1  0
  5  3  1  0
  7  9  1  0
  7  6  1  0
  8  6  2  0
 10  7  1  0
 11 12  1  0
 11 10  1  0
 13 12  1  0
 13 14  1  0
 14 17  1  0
 14 16  1  0
 15 14  1  0
 17 18  1  0
 18 19  1  0
 19 20  1  0
 20 29  1  0
 21 29  1  0
 22 27  1  0
 23 24  1  0
 23 22  1  0
 25 24  1  0
 25 34  1  0
 25 26  1  0
 27 21  1  0
 27 26  1  0
 28 21  2  0
 29 30  1  0
 31 32  2  0
 32 33  1  0
 32 51  1  0
 33 36  1  0
 34 31  1  0
 34 35  1  0
 35 33  2  0
 36 37  1  0
 37 38  2  0
 39 42  1  0
 39 38  1  0
 40 39  2  0
 41 40  1  0
 41 36  2  0
 42 43  1  0
 43 44  1  0
 44 45  2  0
 46 45  1  0
 46 50  1  0
 47 46  2  0
 48 43  2  0
 48 47  1  0
 49 48  1  0
 51 52  1  0
 52 55  1  0
 52 54  1  0
 53 51  2  0
 56 57  1  0
 56 31  1  0
 58 56  1  0
 59 61  2  0
 60 59  1  0
 62 60  1  0
 63106  1  0
 63 60  1  0
 64 65  1  0
 64 63  1  0
 65 67  1  0
 66 77  2  0
 67 72  1  0
 68 76  1  0
 68 78  1  0
 69 75  1  0
 69 71  1  0
 70 76  1  0
 71 70  1  0
 72 71  2  0
 73 74  1  0
 73 67  2  0
 74 69  2  0
 75 68  1  0
 76 66  1  0
 78 80  2  0
 79 78  1  0
 81 79  1  0
 82 91  2  0
 82 87  1  0
 83 79  1  0
 83 87  1  0
 84 83  1  0
 85 86  1  0
 85 84  1  0
 86 82  1  0
 87 88  2  0
 88 89  1  0
 90 89  2  0
 91 90  1  0
 92 66  1  0
 92 97  1  0
 92 93  1  0
 93 96  1  1
 93 94  1  0
 95 93  1  0
 97100  1  0
 98102  1  0
 98 97  1  0
 99 98  2  0
102101  1  0
104102  1  0
104105  1  0
104103  1  0
106107  1  0
108107  1  0
109108  1  0
109111  1  0
110108  2  0
112109  1  0
M  ISO  4  21 100  29 100  64 101  65 101
M  END
>  <TORSDO>  (63) 
F 32

>  <SCORE>  (63) 
-10.490

>  <name>  (63) 
63

>  <ligand_id>  (63) 
63

>  <original_smiles>  (63) 
[H]c1c([H])c([H])c2c(c1[H])C([H])([H])C([H])([H])C([H])([H])C2([H])N([H])C(=O)C1([H])N(C(=O)C([H])(N([H])C(=O)C([H])(N([H])C([H])([H])[H])C([H])([H])[H])C(C([H])([H])[H])(C([H])([H])[H])C([H])([H])[H])C([H])([H])c2c([H])c(OC([H])([H])C([H])(N([H])C(=O)C3([H])C([H])([H])C([H])([H])C([H])([H])C3([H])C(=O)N([H])C([H])([H])C([H])([H])C([H])([H])C([H])([H])[N+]([H])([H])C([H])([H])C([H])([H])C([H])([H])C([H])([H])N([H])C(=O)N3C([H])([H])C([H])([H])C([H])([H])C([H])(n4nc(-c5c([H])c([H])c(Oc6c([H])c([H])c(F)c([H])c6F)c([H])c5[H])c(C(=O)N([H])[H])c4N([H])[H])C3([H])[H])C([H])([H])C([H])([H])C(=O)N([H])[H])c([H])c([H])c2C1([H])[H]

>  <smiles>  (63) 
[H]c1c([H])c([H])c2c(c1[H])C([H])([H])C([H])([H])C([H])([H])C2([H])N([H])C(=O)C1([H])N(C(=O)C([H])(N([H])C(=O)C([H])(N([H])C([H])([H])[H])C([H])([H])[H])C(C([H])([H])[H])(C([H])([H])[H])C([H])([H])[H])C([H])([H])c2c([H])c(OC([H])([H])C([H])(N([H])C(=O)C3([H])C([H])([H])C([H])([H])C([H])([H])C3([H])C(=O)N([H])C([H])([H])C([H])([H])C([H])([H])C([H])([H])[N+]([H])([H])C([H])([H])C([H])([H])C([H])([H])C([H])([H])N([H])C(=O)N3C([H])([H])C([H])([H])C([H])([H])C([H])(n4nc(-c5c([H])c([H])c(Oc6c([H])c([H])c(F)c([H])c6F)c([H])c5[H])c(C(=O)N([H])[H])c4N([H])[H])C3([H])[H])C([H])([H])C([H])([H])C(=O)N([H])[H])c([H])c([H])c2C1([H])[H]

$$$$
64:0:0
     RDKit          3D

 97104  0  0  1  0  0  0  0  0999 V2000
  -33.2430  -24.5790   17.5380 C   0  0  0  0  0  0  0  0  0  0  0  0
  -32.0050  -25.0840   17.4770 N   0  0  0  0  0  0  0  0  0  0  0  0
  -33.9950  -24.6640   16.5680 O   0  0  0  0  0  0  0  0  0  0  0  0
  -31.7230  -25.4950   16.5980 H   0  0  0  0  0  0  0  0  0  0  0  0
  -30.9880  -25.0460   18.5250 C   0  0  0  0  0  2  0  0  0  0  0  0
  -29.1190  -25.4810   16.8500 C   0  0  0  0  0  1  0  0  0  0  0  0
  -30.1370  -27.3910   18.0900 C   0  0  0  0  0  1  0  0  0  0  0  0
  -29.7360  -25.8990   18.1980 C   0  0  2  0  0  0  0  0  0  0  0  0
  -28.6900  -25.6490   19.3240 C   0  0  0  0  0  2  0  0  0  0  0  0
  -28.4470  -26.8130   20.1090 O   0  0  0  0  0  0  0  0  0  0  0  0
  -24.6090  -31.8730   23.2190 C   0  0  0  0  0  0  0  0  0  0  0  0
  -27.2390  -27.4760   20.0720 C   0  0  0  0  0  0  0  0  0  0  0  0
  -23.3950  -30.5040   21.5540 C   0  0  0  0  0  3  0  0  0  0  0  0
  -24.8430  -28.9810   20.1130 C   0  0  0  0  0  0  0  0  0  0  0  0
  -25.9240  -30.8510   21.3700 C   0  0  0  0  0  2  0  0  0  0  0  0
  -26.0000  -29.4910   20.7110 C   0  0  0  0  0  0  0  0  0  0  0  0
  -27.1960  -28.7430   20.6920 C   0  0  0  0  0  3  0  0  0  0  0  0
  -26.0560  -26.9700   19.4810 C   0  0  0  0  0  3  0  0  0  0  0  0
  -24.8660  -27.7200   19.4960 C   0  0  0  0  0  3  0  0  0  0  0  0
  -23.6070  -29.8500   20.1640 C   0  0  0  0  0  2  0  0  0  0  0  0
  -24.6610  -31.0900   22.1060 N   0  0  0  0  0  0  0  0  0  0  0  0
  -23.5290  -32.1470   23.7590 O   0  0  0  0  0  0  0  0  0  0  0  0
  -22.7370  -29.4700   22.4970 C   0  0  0  0  0  0  0  0  0  0  0  0
  -21.4100  -29.3030   22.3720 N   0  0  0  0  0  0  0  0  0  0  0  0
  -23.4160  -28.8260   23.3010 O   0  0  0  0  0  0  0  0  0  0  0  0
  -20.9190  -29.8780   21.7020 H   0  0  0  0  0  0  0  0  0  0  0  0
  -18.0280  -28.1340   22.8500 C   0  0  0  0  0  0  0  0  0  0  0  0
  -20.5870  -28.3630   23.1320 C   0  0  0  0  0  3  0  0  0  0  0  0
  -20.6750  -26.9370   22.5390 C   0  0  0  0  0  2  0  0  0  0  0  0
  -19.5730  -26.6360   21.5170 C   0  0  0  0  0  2  0  0  0  0  0  0
  -18.1920  -26.7890   22.1600 C   0  0  0  0  0  2  0  0  0  0  0  0
  -19.1530  -28.8790   23.2930 C   0  0  0  0  0  0  0  0  0  0  0  0
  -18.9460  -30.1400   23.8930 C   0  0  0  0  0  3  0  0  0  0  0  0
  -17.6460  -30.6560   24.0550 C   0  0  0  0  0  3  0  0  0  0  0  0
  -16.5350  -29.9050   23.6310 C   0  0  0  0  0  3  0  0  0  0  0  0
  -16.7270  -28.6460   23.0350 C   0  0  0  0  0  3  0  0  0  0  0  0
  -25.9010  -32.4840   23.8490 C   0  0  0  0  0  3  0  0  0  0  0  0
  -26.4490  -31.6590   25.0780 C   0  0  1  0  0  0  0  0  0  0  0  0
  -25.3780  -31.3620   26.1530 C   0  0  0  0  0  1  0  0  0  0  0  0
  -27.0370  -30.3050   24.6110 C   0  0  0  0  0  1  0  0  0  0  0  0
  -27.6090  -32.4300   25.7490 C   0  0  0  0  0  1  0  0  0  0  0  0
  -25.5890  -33.8640   24.2420 N   0  0  0  0  0  0  0  0  0  0  0  0
  -25.9000  -34.9480   23.5180 C   0  0  0  0  0  0  0  0  0  0  0  0
  -26.5530  -34.8920   22.4720 O   0  0  0  0  0  0  0  0  0  0  0  0
  -25.0030  -33.9850   25.0550 H   0  0  0  0  0  0  0  0  0  0  0  0
  -24.1450  -36.7320   23.2650 C   0  0  0  0  0  1  0  0  0  0  0  0
  -25.4070  -36.3120   24.0360 C   0  0  0  0  0  3  0  0  0  0  0  0
  -27.5560  -37.1810   24.8470 C   0  0  0  0  0  1  0  0  0  0  0  0
  -26.4270  -37.3800   23.9430 N   0  0  0  0  0  0  0  0  0  0  0  0
  -26.0150  -38.2880   24.1470 H   0  0  0  0  0  0  0  0  0  0  0  0
  -33.7500  -23.9090   18.8260 C   0  0  0  0  0  2  0  0  0  0  0  0
  -33.8810  -22.3750   18.7190 C   0  0  0  0  0  2  0  0  0  0  0  0
  -32.5420  -21.6120   18.8110 C   0  0  0  0  0  2  0  0  0  0  0  0
  -32.7400  -20.1350   19.1910 C   0  0  0  0  0  2  0  0  0  0  0  0
  -31.4400  -19.3070   19.2450 C   0  0  0  0  0  2  0  0  0  0  0  0
  -31.6050  -18.0970   20.1480 C   0  0  0  0  0  3  0  0  0  0  0  0
  -30.6730  -17.6210   20.9950 C   0  0  0  0  0  3  0  0  0  0  0  0
  -30.4680  -16.8550   23.3840 C   0  0  0  0  0  1  0  0  0  0  0  0
  -30.9220  -16.4760   21.9680 C   0  0  0  0  0  3  0  0  0  0  0  0
  -30.7640  -14.3800   20.6450 C   0  0  0  0  0  0  0  0  0  0  0  0
  -30.4070  -12.2840   19.3970 C   0  0  0  0  0  2  0  0  0  0  0  0
  -29.4800  -12.5190   18.1910 C   0  0  0  0  0  2  0  0  0  0  0  0
  -28.0030  -12.3800   18.6060 C   0  0  0  0  0  2  0  0  0  0  0  0
  -27.6610  -13.2070   19.8740 C   0  0  0  0  0  3  0  0  0  0  0  0
  -28.6990  -12.9640   20.9920 C   0  0  0  0  0  2  0  0  0  0  0  0
  -30.0410  -13.2460   20.4480 N   0  0  0  0  0  0  0  0  0  0  0  0
  -31.8150  -14.6210   20.0440 O   0  0  0  0  0  0  0  0  0  0  0  0
  -30.2680  -15.2360   21.5480 N   0  0  0  0  0  0  0  0  0  0  0  0
  -29.4160  -14.9640   22.0140 H   0  0  0  0  0  0  0  0  0  0  0  0
  -25.2570  -13.8160   20.5670 C   0  0  0  0  0  0  0  0  0  0  0  0
  -24.1830  -13.0440   20.9160 C   0  0  0  0  0  0  0  0  0  0  0  0
  -24.6390  -11.6910   20.8730 C   0  0  0  0  0  0  0  0  0  0  0  0
  -26.3010  -12.9340   20.3350 N   0  0  0  0  0  0  0  0  0  0  0  0
  -25.9310  -11.6500   20.5740 N   0  0  0  0  0  0  0  0  0  0  0  0
  -23.9070  -10.4290   21.0400 C   0  0  0  0  0  0  0  0  0  0  0  0
  -24.3610   -9.4210   21.9180 C   0  0  0  0  0  3  0  0  0  0  0  0
  -23.6290   -8.2250   22.0750 C   0  0  0  0  0  3  0  0  0  0  0  0
  -22.4270   -8.0280   21.3540 C   0  0  0  0  0  0  0  0  0  0  0  0
  -21.9910   -9.0260   20.4640 C   0  0  0  0  0  3  0  0  0  0  0  0
  -22.7240  -10.2130   20.3050 C   0  0  0  0  0  3  0  0  0  0  0  0
  -21.6640   -6.8880   21.4240 O   0  0  0  0  0  0  0  0  0  0  0  0
  -21.6850   -6.0740   22.5280 C   0  0  0  0  0  0  0  0  0  0  0  0
  -21.4020   -6.5640   23.8210 C   0  0  0  0  0  3  0  0  0  0  0  0
  -21.3660   -5.6790   24.9180 C   0  0  0  0  0  3  0  0  0  0  0  0
  -21.6040   -4.3060   24.7230 C   0  0  0  0  0  0  0  0  0  0  0  0
  -21.8820   -3.8150   23.4350 C   0  0  0  0  0  3  0  0  0  0  0  0
  -21.9200   -4.6960   22.3400 C   0  0  0  0  0  0  0  0  0  0  0  0
  -22.1660   -4.2150   21.0980 F   0  0  0  0  0  0  0  0  0  0  0  0
  -21.5620   -3.4540   25.7740 F   0  0  0  0  0  0  0  0  0  0  0  0
  -22.7850  -13.5230   21.1830 C   0  0  0  0  0  0  0  0  0  0  0  0
  -22.0510  -12.8210   22.0390 N   0  0  0  0  0  0  0  0  0  0  0  0
  -22.3530  -14.5540   20.6680 O   0  0  0  0  0  0  0  0  0  0  0  0
  -22.4150  -11.9880   22.4770 H   0  0  0  0  0  0  0  0  0  0  0  0
  -21.1110  -13.1190   22.2560 H   0  0  0  0  0  0  0  0  0  0  0  0
  -25.4310  -15.1890   20.4100 N   0  0  0  0  0  0  0  0  0  0  0  0
  -24.6690  -15.8490   20.5230 H   0  0  0  0  0  0  0  0  0  0  0  0
  -26.2940  -15.6290   20.1160 H   0  0  0  0  0  0  0  0  0  0  0  0
  1 51  1  0
  2  1  1  0
  2  5  1  0
  3  1  2  0
  4  2  1  0
  8  6  1  6
  7  8  1  0
  8  5  1  0
  8  9  1  0
  9 10  1  0
 11 22  2  0
 12 10  1  0
 12 17  1  0
 13 21  1  0
 13 23  1  0
 14 20  1  0
 14 16  1  0
 15 21  1  0
 16 15  1  0
 17 16  2  0
 18 19  1  0
 18 12  2  0
 19 14  2  0
 20 13  1  0
 21 11  1  0
 23 25  2  0
 24 23  1  0
 26 24  1  0
 27 36  2  0
 27 32  1  0
 28 24  1  0
 28 32  1  0
 29 28  1  0
 30 31  1  0
 30 29  1  0
 31 27  1  0
 32 33  2  0
 33 34  1  0
 35 34  2  0
 36 35  1  0
 37 11  1  0
 37 42  1  0
 37 38  1  0
 38 41  1  1
 38 39  1  0
 40 38  1  0
 42 45  1  0
 43 47  1  0
 43 42  1  0
 44 43  2  0
 47 46  1  0
 49 47  1  0
 49 50  1  0
 49 48  1  0
 52 53  1  0
 52 51  1  0
 53 54  1  0
 54 55  1  0
 55 56  1  0
 56 57  2  0
 57 59  1  0
 59 58  1  0
 60 68  1  0
 61 66  1  0
 62 63  1  0
 62 61  1  0
 64 63  1  0
 64 73  1  0
 64 65  1  0
 66 60  1  0
 66 65  1  0
 67 60  2  0
 68 59  1  0
 68 69  1  0
 70 71  2  0
 71 90  1  0
 72 71  1  0
 72 75  1  0
 73 70  1  0
 73 74  1  0
 74 72  2  0
 75 76  1  0
 76 77  2  0
 78 81  1  0
 78 77  1  0
 79 78  2  0
 80 79  1  0
 80 75  2  0
 81 82  1  0
 82 83  1  0
 83 84  2  0
 85 84  1  0
 85 89  1  0
 86 85  2  0
 87 82  2  0
 87 86  1  0
 88 87  1  0
 90 91  1  0
 91 94  1  0
 91 93  1  0
 92 90  2  0
 95 96  1  0
 95 70  1  0
 97 95  1  0
M  ISO  4   9 101  10 101  60 100  68 100
M  END
>  <TORSDO>  (64) 
F 26

>  <SCORE>  (64) 
-10.827

>  <name>  (64) 
64

>  <ligand_id>  (64) 
64

>  <original_smiles>  (64) 
[H]C(=C([H])C([H])(N([H])C(=O)N1C([H])([H])C([H])([H])C([H])([H])C([H])(n2nc(-c3c([H])c([H])c(Oc4c([H])c([H])c(F)c([H])c4F)c([H])c3[H])c(C(=O)N([H])[H])c2N([H])[H])C1([H])[H])C([H])([H])[H])C([H])([H])C([H])([H])C([H])([H])C([H])([H])C([H])([H])C(=O)N([H])C([H])([H])C(C([H])([H])[H])(C([H])([H])[H])C([H])([H])Oc1c([H])c([H])c2c(c1[H])C([H])([H])N(C(=O)C([H])(N([H])C(=O)C([H])(N([H])C([H])([H])[H])C([H])([H])[H])C(C([H])([H])[H])(C([H])([H])[H])C([H])([H])[H])C([H])(C(=O)N([H])C1([H])c3c([H])c([H])c([H])c([H])c3C([H])([H])C([H])([H])C1([H])[H])C2([H])[H]

>  <smiles>  (64) 
[H]C(=C([H])C([H])(N([H])C(=O)N1C([H])([H])C([H])([H])C([H])([H])C([H])(n2nc(-c3c([H])c([H])c(Oc4c([H])c([H])c(F)c([H])c4F)c([H])c3[H])c(C(=O)N([H])[H])c2N([H])[H])C1([H])[H])C([H])([H])[H])C([H])([H])C([H])([H])C([H])([H])C([H])([H])C([H])([H])C(=O)N([H])C([H])([H])C(C([H])([H])[H])(C([H])([H])[H])C([H])([H])Oc1c([H])c([H])c2c(c1[H])C([H])([H])N(C(=O)C([H])(N([H])C(=O)C([H])(N([H])C([H])([H])[H])C([H])([H])[H])C(C([H])([H])[H])(C([H])([H])[H])C([H])([H])[H])C([H])(C(=O)N([H])C1([H])c3c([H])c([H])c([H])c([H])c3C([H])([H])C([H])([H])C1([H])[H])C2([H])[H]

$$$$
65:0:0
     RDKit          3D

108116  0  0  1  0  0  0  0  0999 V2000
  -32.1100  -22.9290   18.1860 C   0  0  0  0  0  2  0  0  0  0  0  0
  -32.2690  -23.9390   19.3560 C   0  0  0  0  0  3  0  0  0  0  0  0
  -30.3760  -26.3330   21.4170 C   0  0  0  0  0  2  0  0  0  0  0  0
  -30.7270  -27.2150   19.1350 C   0  0  0  0  0  2  0  0  0  0  0  0
  -30.4630  -24.8790   20.9030 C   0  0  0  0  0  2  0  0  0  0  0  0
  -30.7290  -25.8000   18.5320 C   0  0  0  0  0  2  0  0  0  0  0  0
  -29.8200  -27.2880   20.3620 C   0  0  0  0  0  3  0  0  0  0  0  0
  -30.9980  -24.7090   19.5150 N   0  0  1  0  0  4  0  0  0  0  0  0
  -30.3510  -24.0070   19.1870 H   0  0  0  0  0  0  0  0  0  0  0  0
  -28.5240  -26.8240   19.9820 O   0  0  0  0  0  0  0  0  0  0  0  0
  -24.6790  -31.9420   23.2110 C   0  0  0  0  0  0  0  0  0  0  0  0
  -27.3870  -27.5920   20.0960 C   0  0  0  0  0  0  0  0  0  0  0  0
  -23.4720  -30.5140   21.5860 C   0  0  0  0  0  3  0  0  0  0  0  0
  -24.9380  -29.0050   20.1460 C   0  0  0  0  0  0  0  0  0  0  0  0
  -25.9790  -30.9370   21.3450 C   0  0  0  0  0  2  0  0  0  0  0  0
  -26.0860  -29.5670   20.7150 C   0  0  0  0  0  0  0  0  0  0  0  0
  -27.3100  -28.8700   20.6980 C   0  0  0  0  0  3  0  0  0  0  0  0
  -26.2190  -27.0370   19.5340 C   0  0  0  0  0  3  0  0  0  0  0  0
  -24.9950  -27.7320   19.5550 C   0  0  0  0  0  3  0  0  0  0  0  0
  -23.6740  -29.8320   20.2050 C   0  0  0  0  0  2  0  0  0  0  0  0
  -24.7280  -31.1460   22.1060 N   0  0  0  0  0  0  0  0  0  0  0  0
  -23.6040  -32.1920   23.7700 O   0  0  0  0  0  0  0  0  0  0  0  0
  -22.8580  -29.4820   22.5580 C   0  0  0  0  0  0  0  0  0  0  0  0
  -21.5450  -29.2380   22.4170 N   0  0  0  0  0  0  0  0  0  0  0  0
  -23.5600  -28.9010   23.3920 O   0  0  0  0  0  0  0  0  0  0  0  0
  -21.0400  -29.7610   21.7160 H   0  0  0  0  0  0  0  0  0  0  0  0
  -18.2380  -27.8460   22.8300 C   0  0  0  0  0  0  0  0  0  0  0  0
  -20.7610  -28.2790   23.1940 C   0  0  0  0  0  3  0  0  0  0  0  0
  -20.9780  -26.8370   22.6800 C   0  0  0  0  0  2  0  0  0  0  0  0
  -19.9430  -26.4050   21.6370 C   0  0  0  0  0  2  0  0  0  0  0  0
  -18.5280  -26.4860   22.2200 C   0  0  0  0  0  2  0  0  0  0  0  0
  -19.2880  -28.6940   23.2740 C   0  0  0  0  0  0  0  0  0  0  0  0
  -18.9660  -29.9640   23.8010 C   0  0  0  0  0  3  0  0  0  0  0  0
  -17.6260  -30.3870   23.8920 C   0  0  0  0  0  3  0  0  0  0  0  0
  -16.5910  -29.5370   23.4680 C   0  0  0  0  0  3  0  0  0  0  0  0
  -16.8970  -28.2680   22.9420 C   0  0  0  0  0  3  0  0  0  0  0  0
  -25.9650  -32.5930   23.8090 C   0  0  0  0  0  3  0  0  0  0  0  0
  -25.6390  -33.9840   24.1480 N   0  0  0  0  0  0  0  0  0  0  0  0
  -25.9600  -35.0440   23.3920 C   0  0  0  0  0  0  0  0  0  0  0  0
  -26.6330  -34.9530   22.3610 O   0  0  0  0  0  0  0  0  0  0  0  0
  -25.0430  -34.1280   24.9480 H   0  0  0  0  0  0  0  0  0  0  0  0
  -24.2120  -36.8150   23.0330 C   0  0  0  0  0  1  0  0  0  0  0  0
  -25.4520  -36.4220   23.8540 C   0  0  0  0  0  3  0  0  0  0  0  0
  -27.5750  -37.3210   24.6980 C   0  0  0  0  0  1  0  0  0  0  0  0
  -26.4720  -37.4900   23.7570 N   0  0  0  0  0  0  0  0  0  0  0  0
  -26.0540  -38.4020   23.9180 H   0  0  0  0  0  0  0  0  0  0  0  0
  -26.5240  -31.8260   25.0700 C   0  0  1  0  0  0  0  0  0  0  0  0
  -25.4600  -31.5740   26.1650 C   0  0  0  0  0  1  0  0  0  0  0  0
  -27.1130  -30.4560   24.6580 C   0  0  0  0  0  1  0  0  0  0  0  0
  -27.6810  -32.6330   25.7050 C   0  0  0  0  0  1  0  0  0  0  0  0
  -33.5330  -24.8300   19.2120 C   0  0  0  0  0  2  0  0  0  0  0  0
  -34.0210  -25.4640   20.5260 C   0  0  0  0  0  2  0  0  0  0  0  0
  -35.3160  -26.2710   20.3500 C   0  0  0  0  0  2  0  0  0  0  0  0
  -37.1000  -27.6980   21.4820 C   0  0  0  0  0  1  0  0  0  0  0  0
  -35.7480  -26.9910   21.6350 C   0  0  0  0  0  2  0  0  0  0  0  0
  -32.9890  -21.6620   18.3040 C   0  0  0  0  0  2  0  0  0  0  0  0
  -32.9600  -20.7570   17.0330 C   0  0  0  0  0  3  0  0  0  0  0  0
  -34.1150  -19.7400   16.9500 C   0  0  0  0  0  0  0  0  0  0  0  0
  -35.3610  -20.1650   17.1270 N   0  0  0  0  0  0  0  0  0  0  0  0
  -33.8860  -18.5620   16.6780 O   0  0  0  0  0  0  0  0  0  0  0  0
  -35.5570  -21.1350   17.3300 H   0  0  0  0  0  0  0  0  0  0  0  0
  -36.1320  -19.5180   17.0460 H   0  0  0  0  0  0  0  0  0  0  0  0
  -31.6770  -20.0560   16.7600 N   0  0  0  0  0  4  0  0  0  0  0  0
  -31.1150  -20.6480   16.1700 H   0  0  0  0  0  0  0  0  0  0  0  0
  -31.9610  -19.2610   16.2030 H   0  0  0  0  0  0  0  0  0  0  0  0
  -30.8360  -19.5620   17.8820 C   0  0  0  0  0  2  0  0  0  0  0  0
  -31.4890  -18.4430   18.7190 C   0  0  0  0  0  2  0  0  0  0  0  0
  -30.6100  -17.9490   19.8830 C   0  0  0  0  0  2  0  0  0  0  0  0
  -31.4690  -17.4740   21.0710 C   0  0  0  0  0  2  0  0  0  0  0  0
  -30.7600  -16.5280   22.0630 C   0  0  0  0  0  2  0  0  0  0  0  0
  -30.7840  -14.4330   20.6400 C   0  0  0  0  0  0  0  0  0  0  0  0
  -30.3980  -12.4130   19.2840 C   0  0  0  0  0  2  0  0  0  0  0  0
  -29.4610  -12.7330   18.1050 C   0  0  0  0  0  2  0  0  0  0  0  0
  -27.9820  -12.6170   18.5260 C   0  0  0  0  0  2  0  0  0  0  0  0
  -27.6730  -13.3670   19.8500 C   0  0  0  0  0  3  0  0  0  0  0  0
  -28.7170  -13.0170   20.9320 C   0  0  0  0  0  2  0  0  0  0  0  0
  -30.0540  -13.3170   20.3890 N   0  0  0  0  0  0  0  0  0  0  0  0
  -31.8710  -14.6570   20.1030 O   0  0  0  0  0  0  0  0  0  0  0  0
  -30.2090  -15.2980   21.4890 N   0  0  0  0  0  0  0  0  0  0  0  0
  -29.3070  -15.0110   21.8410 H   0  0  0  0  0  0  0  0  0  0  0  0
  -25.2700  -13.9870   20.5280 C   0  0  0  0  0  0  0  0  0  0  0  0
  -24.1930  -13.2190   20.8830 C   0  0  0  0  0  0  0  0  0  0  0  0
  -24.6460  -11.8650   20.8520 C   0  0  0  0  0  0  0  0  0  0  0  0
  -26.3130  -13.1020   20.3090 N   0  0  0  0  0  0  0  0  0  0  0  0
  -25.9400  -11.8200   20.5580 N   0  0  0  0  0  0  0  0  0  0  0  0
  -23.9130  -10.6050   21.0290 C   0  0  0  0  0  0  0  0  0  0  0  0
  -24.3470   -9.6210   21.9440 C   0  0  0  0  0  3  0  0  0  0  0  0
  -23.6160   -8.4260   22.1100 C   0  0  0  0  0  3  0  0  0  0  0  0
  -22.4340   -8.2080   21.3640 C   0  0  0  0  0  0  0  0  0  0  0  0
  -22.0200   -9.1810   20.4360 C   0  0  0  0  0  3  0  0  0  0  0  0
  -22.7520  -10.3660   20.2670 C   0  0  0  0  0  3  0  0  0  0  0  0
  -21.6730   -7.0660   21.4400 O   0  0  0  0  0  0  0  0  0  0  0  0
  -21.6350   -6.3010   22.5780 C   0  0  0  0  0  0  0  0  0  0  0  0
  -21.2520   -6.8390   23.8260 C   0  0  0  0  0  3  0  0  0  0  0  0
  -21.1610   -6.0020   24.9550 C   0  0  0  0  0  3  0  0  0  0  0  0
  -21.4410   -4.6270   24.8380 C   0  0  0  0  0  0  0  0  0  0  0  0
  -21.8160   -4.0880   23.5950 C   0  0  0  0  0  3  0  0  0  0  0  0
  -21.9100   -4.9230   22.4680 C   0  0  0  0  0  0  0  0  0  0  0  0
  -22.2510   -4.3950   21.2680 F   0  0  0  0  0  0  0  0  0  0  0  0
  -21.3460   -3.8210   25.9200 F   0  0  0  0  0  0  0  0  0  0  0  0
  -22.7960  -13.7030   21.1440 C   0  0  0  0  0  0  0  0  0  0  0  0
  -22.0600  -13.0130   22.0080 N   0  0  0  0  0  0  0  0  0  0  0  0
  -22.3650  -14.7270   20.6160 O   0  0  0  0  0  0  0  0  0  0  0  0
  -22.4200  -12.1830   22.4560 H   0  0  0  0  0  0  0  0  0  0  0  0
  -21.1230  -13.3190   22.2260 H   0  0  0  0  0  0  0  0  0  0  0  0
  -25.4470  -15.3570   20.3580 N   0  0  0  0  0  0  0  0  0  0  0  0
  -24.6900  -16.0230   20.4730 H   0  0  0  0  0  0  0  0  0  0  0  0
  -26.3120  -15.7910   20.0640 H   0  0  0  0  0  0  0  0  0  0  0  0
  1 56  1  0
  2  1  1  0
  2  8  1  0
  4  7  1  0
  5  3  1  0
  6  4  1  0
  6  8  1  0
  7 10  1  0
  7  3  1  0
  8  5  1  0
  8  9  1  6
 10 12  1  0
 11 22  2  0
 12 17  1  0
 13 21  1  0
 13 23  1  0
 14 20  1  0
 14 16  1  0
 15 21  1  0
 16 15  1  0
 17 16  2  0
 18 19  1  0
 18 12  2  0
 19 14  2  0
 20 13  1  0
 21 11  1  0
 23 25  2  0
 24 23  1  0
 26 24  1  0
 27 36  2  0
 27 32  1  0
 28 24  1  0
 28 32  1  0
 29 28  1  0
 30 31  1  0
 30 29  1  0
 31 27  1  0
 32 33  2  0
 33 34  1  0
 35 34  2  0
 36 35  1  0
 37 11  1  0
 37 38  1  0
 37 47  1  0
 38 41  1  0
 39 43  1  0
 39 38  1  0
 40 39  2  0
 43 42  1  0
 45 43  1  0
 45 46  1  0
 45 44  1  0
 47 50  1  1
 47 48  1  0
 49 47  1  0
 51  2  1  0
 51 52  1  0
 53 52  1  0
 53 55  1  0
 54 55  1  0
 57 56  1  0
 58 57  1  0
 58 59  1  0
 59 61  1  0
 60 58  2  0
 62 59  1  0
 63 57  1  0
 63 66  1  0
 64 63  1  0
 65 63  1  0
 66 67  1  0
 67 68  1  0
 68 69  1  0
 69 70  1  0
 71 79  1  0
 72 77  1  0
 73 74  1  0
 73 72  1  0
 75 74  1  0
 75 84  1  0
 75 76  1  0
 77 71  1  0
 77 76  1  0
 78 71  2  0
 79 80  1  0
 79 70  1  0
 81 82  2  0
 82101  1  0
 83 82  1  0
 83 86  1  0
 84 81  1  0
 84 85  1  0
 85 83  2  0
 86 87  1  0
 87 88  2  0
 89 92  1  0
 89 88  1  0
 90 89  2  0
 91 90  1  0
 91 86  2  0
 92 93  1  0
 93 94  1  0
 94 95  2  0
 96 95  1  0
 96100  1  0
 97 96  2  0
 98 93  2  0
 98 97  1  0
 99 98  1  0
101102  1  0
102105  1  0
102104  1  0
103101  2  0
106107  1  0
106 81  1  0
108106  1  0
M  ISO  4   7 101  10 101  71 100  79 100
M  END
>  <TORSDO>  (65) 
F 31

>  <SCORE>  (65) 
-10.772

>  <name>  (65) 
65

>  <ligand_id>  (65) 
65

>  <original_smiles>  (65) 
[H]c1c([H])c([H])c2c(c1[H])C([H])([H])C([H])([H])C([H])([H])C2([H])N([H])C(=O)C1([H])N(C(=O)C([H])(N([H])C(=O)C([H])(N([H])C([H])([H])[H])C([H])([H])[H])C(C([H])([H])[H])(C([H])([H])[H])C([H])([H])[H])C([H])([H])c2c([H])c(OC3([H])C([H])([H])C([H])([H])[N+]([H])(C([H])(C([H])([H])C([H])([H])C([H])([H])C([H])([H])C([H])([H])[H])C([H])([H])C([H])([H])C([H])(C(=O)N([H])[H])[N+]([H])([H])C([H])([H])C([H])([H])C([H])([H])C([H])([H])C([H])([H])N([H])C(=O)N4C([H])([H])C([H])([H])C([H])([H])C([H])(n5nc(-c6c([H])c([H])c(Oc7c([H])c([H])c(F)c([H])c7F)c([H])c6[H])c(C(=O)N([H])[H])c5N([H])[H])C4([H])[H])C([H])([H])C3([H])[H])c([H])c([H])c2C1([H])[H]

>  <smiles>  (65) 
[H]c1c([H])c([H])c2c(c1[H])C([H])([H])C([H])([H])C([H])([H])C2([H])N([H])C(=O)C1([H])N(C(=O)C([H])(N([H])C(=O)C([H])(N([H])C([H])([H])[H])C([H])([H])[H])C(C([H])([H])[H])(C([H])([H])[H])C([H])([H])[H])C([H])([H])c2c([H])c(OC3([H])C([H])([H])C([H])([H])[N+]([H])(C([H])(C([H])([H])C([H])([H])C([H])([H])C([H])([H])C([H])([H])[H])C([H])([H])C([H])([H])C([H])(C(=O)N([H])[H])[N+]([H])([H])C([H])([H])C([H])([H])C([H])([H])C([H])([H])C([H])([H])N([H])C(=O)N4C([H])([H])C([H])([H])C([H])([H])C([H])(n5nc(-c6c([H])c([H])c(Oc7c([H])c([H])c(F)c([H])c7F)c([H])c6[H])c(C(=O)N([H])[H])c5N([H])[H])C4([H])[H])C([H])([H])C3([H])[H])c([H])c([H])c2C1([H])[H]

$$$$
66:0:0
     RDKit          3D

 96104  0  0  1  0  0  0  0  0999 V2000
  -30.6040  -17.7740   19.6800 C   0  0  0  0  0  0  0  0  0  0  0  0
  -32.7800  -20.5310   20.9180 C   0  0  0  0  0  2  0  0  0  0  0  0
  -32.4270  -20.9410   19.4960 C   0  0  0  0  0  2  0  0  0  0  0  0
  -32.2730  -19.0890   20.9940 C   0  0  0  0  0  2  0  0  0  0  0  0
  -31.0500  -20.2820   19.2560 C   0  0  0  0  0  3  0  0  0  0  0  0
  -31.2060  -18.9710   19.9850 N   0  0  0  0  0  0  0  0  0  0  0  0
  -29.8170  -17.6780   18.7380 O   0  0  0  0  0  0  0  0  0  0  0  0
  -29.9290  -21.2600   19.7820 C   0  0  0  0  0  0  0  0  0  0  0  0
  -29.8720  -22.5400   19.3120 N   0  0  0  0  0  0  0  0  0  0  0  0
  -29.1390  -20.8670   20.6420 O   0  0  0  0  0  0  0  0  0  0  0  0
  -30.5450  -22.7720   18.5910 H   0  0  0  0  0  0  0  0  0  0  0  0
  -29.0740  -23.6950   19.8420 C   0  0  0  0  0  2  0  0  0  0  0  0
  -28.8850  -24.9050   18.8450 C   0  0  0  0  0  2  0  0  0  0  0  0
  -28.7250  -26.2420   19.4230 O   0  0  0  0  0  0  0  0  0  0  0  0
  -24.8090  -31.1910   22.7860 C   0  0  0  0  0  0  0  0  0  0  0  0
  -27.5300  -26.9640   19.4160 C   0  0  0  0  0  0  0  0  0  0  0  0
  -23.6330  -29.8930   21.0400 C   0  0  0  0  0  3  0  0  0  0  0  0
  -25.1180  -28.4830   19.5060 C   0  0  0  0  0  0  0  0  0  0  0  0
  -26.1580  -30.2910   20.8860 C   0  0  0  0  0  2  0  0  0  0  0  0
  -26.2670  -28.9700   20.1370 C   0  0  0  0  0  0  0  0  0  0  0  0
  -27.4710  -28.2210   20.0820 C   0  0  0  0  0  3  0  0  0  0  0  0
  -26.3500  -26.5030   18.7900 C   0  0  0  0  0  3  0  0  0  0  0  0
  -25.1590  -27.2560   18.8200 C   0  0  0  0  0  3  0  0  0  0  0  0
  -23.8580  -29.3170   19.6140 C   0  0  0  0  0  2  0  0  0  0  0  0
  -24.8850  -30.4690   21.6290 N   0  0  0  0  0  0  0  0  0  0  0  0
  -23.7200  -31.4070   23.3390 O   0  0  0  0  0  0  0  0  0  0  0  0
  -22.9910  -28.7940   21.9210 C   0  0  0  0  0  0  0  0  0  0  0  0
  -21.6650  -28.6200   21.7960 N   0  0  0  0  0  0  0  0  0  0  0  0
  -23.6850  -28.1050   22.6740 O   0  0  0  0  0  0  0  0  0  0  0  0
  -21.1640  -29.2340   21.1700 H   0  0  0  0  0  0  0  0  0  0  0  0
  -18.2860  -27.4590   22.3260 C   0  0  0  0  0  0  0  0  0  0  0  0
  -20.8590  -27.6200   22.4970 C   0  0  0  0  0  3  0  0  0  0  0  0
  -20.8880  -26.2630   21.7550 C   0  0  0  0  0  2  0  0  0  0  0  0
  -19.7320  -26.0870   20.7670 C   0  0  0  0  0  2  0  0  0  0  0  0
  -18.3890  -26.1940   21.4920 C   0  0  0  0  0  2  0  0  0  0  0  0
  -19.4450  -28.1400   22.7840 C   0  0  0  0  0  0  0  0  0  0  0  0
  -19.2890  -29.3340   23.5220 C   0  0  0  0  0  3  0  0  0  0  0  0
  -18.0070  -29.8450   23.8030 C   0  0  0  0  0  3  0  0  0  0  0  0
  -16.8630  -29.1560   23.3610 C   0  0  0  0  0  3  0  0  0  0  0  0
  -17.0050  -27.9640   22.6320 C   0  0  0  0  0  3  0  0  0  0  0  0
  -26.0820  -31.7940   23.4570 C   0  0  0  0  0  3  0  0  0  0  0  0
  -25.7290  -33.1220   23.9760 N   0  0  0  0  0  0  0  0  0  0  0  0
  -25.9830  -34.2770   23.3460 C   0  0  0  0  0  0  0  0  0  0  0  0
  -26.6080  -34.3400   22.2840 O   0  0  0  0  0  0  0  0  0  0  0  0
  -25.1830  -33.1460   24.8240 H   0  0  0  0  0  0  0  0  0  0  0  0
  -24.1420  -35.9840   23.3130 C   0  0  0  0  0  1  0  0  0  0  0  0
  -25.4540  -35.5690   23.9980 C   0  0  0  0  0  3  0  0  0  0  0  0
  -27.5740  -36.4900   24.8280 C   0  0  0  0  0  1  0  0  0  0  0  0
  -26.4210  -36.6880   23.9560 N   0  0  0  0  0  0  0  0  0  0  0  0
  -25.9700  -37.5610   24.2200 H   0  0  0  0  0  0  0  0  0  0  0  0
  -26.6720  -30.8890   24.6060 C   0  0  1  0  0  0  0  0  0  0  0  0
  -25.6160  -30.4230   25.6370 C   0  0  0  0  0  1  0  0  0  0  0  0
  -27.3370  -29.6270   24.0120 C   0  0  0  0  0  1  0  0  0  0  0  0
  -27.7830  -31.6580   25.3600 C   0  0  0  0  0  1  0  0  0  0  0  0
  -30.8680  -16.4920   20.5610 C   0  0  0  0  0  3  0  0  0  0  0  0
  -31.1250  -14.2010   19.3050 C   0  0  0  0  0  0  0  0  0  0  0  0
  -30.6720  -12.0240   18.1680 C   0  0  0  0  0  2  0  0  0  0  0  0
  -29.5410  -12.2030   17.1300 C   0  0  0  0  0  2  0  0  0  0  0  0
  -28.1460  -12.0920   17.7790 C   0  0  0  0  0  2  0  0  0  0  0  0
  -28.0270  -12.9350   19.0750 C   0  0  0  0  0  3  0  0  0  0  0  0
  -29.2340  -12.6850   19.9990 C   0  0  0  0  0  2  0  0  0  0  0  0
  -30.4500  -13.0140   19.2360 N   0  0  0  0  0  0  0  0  0  0  0  0
  -32.2090  -14.3810   18.7400 O   0  0  0  0  0  0  0  0  0  0  0  0
  -30.4540  -15.1870   19.9540 N   0  0  0  0  0  0  0  0  0  0  0  0
  -29.5130  -14.9190   20.1960 H   0  0  0  0  0  0  0  0  0  0  0  0
  -25.8290  -13.6230   20.2170 C   0  0  0  0  0  0  0  0  0  0  0  0
  -24.7950  -12.8870   20.7300 C   0  0  0  0  0  0  0  0  0  0  0  0
  -25.1630  -11.5200   20.5550 C   0  0  0  0  0  0  0  0  0  0  0  0
  -26.7610  -12.7030   19.7680 N   0  0  0  0  0  0  0  0  0  0  0  0
  -26.3760  -11.4260   20.0270 N   0  0  0  0  0  0  0  0  0  0  0  0
  -24.4040  -10.2880   20.8020 C   0  0  0  0  0  0  0  0  0  0  0  0
  -24.7050   -9.4400   21.8900 C   0  0  0  0  0  3  0  0  0  0  0  0
  -23.9480   -8.2710   22.1190 C   0  0  0  0  0  3  0  0  0  0  0  0
  -22.8730   -7.9460   21.2570 C   0  0  0  0  0  0  0  0  0  0  0  0
  -22.5950   -8.7780   20.1570 C   0  0  0  0  0  3  0  0  0  0  0  0
  -23.3560   -9.9370   19.9290 C   0  0  0  0  0  3  0  0  0  0  0  0
  -22.0940   -6.8220   21.3880 O   0  0  0  0  0  0  0  0  0  0  0  0
  -21.5510   -6.4540   22.5930 C   0  0  0  0  0  0  0  0  0  0  0  0
  -20.6580   -7.2920   23.2950 C   0  0  0  0  0  3  0  0  0  0  0  0
  -20.0710   -6.8450   24.4960 C   0  0  0  0  0  3  0  0  0  0  0  0
  -20.3720   -5.5620   24.9910 C   0  0  0  0  0  0  0  0  0  0  0  0
  -21.2570   -4.7250   24.2910 C   0  0  0  0  0  3  0  0  0  0  0  0
  -21.8420   -5.1680   23.0930 C   0  0  0  0  0  0  0  0  0  0  0  0
  -22.6770   -4.3490   22.4090 F   0  0  0  0  0  0  0  0  0  0  0  0
  -19.8020   -5.1290   26.1410 F   0  0  0  0  0  0  0  0  0  0  0  0
  -23.4950  -13.4190   21.2610 C   0  0  0  0  0  0  0  0  0  0  0  0
  -22.9070  -12.7400   22.2390 N   0  0  0  0  0  0  0  0  0  0  0  0
  -23.0190  -14.4710   20.8400 O   0  0  0  0  0  0  0  0  0  0  0  0
  -23.3100  -11.8910   22.6010 H   0  0  0  0  0  0  0  0  0  0  0  0
  -22.0330  -13.0730   22.6260 H   0  0  0  0  0  0  0  0  0  0  0  0
  -26.0410  -14.9920   20.0770 N   0  0  0  0  0  0  0  0  0  0  0  0
  -25.3200  -15.6690   20.3120 H   0  0  0  0  0  0  0  0  0  0  0  0
  -26.8290  -15.4140   19.6070 H   0  0  0  0  0  0  0  0  0  0  0  0
  -29.9440  -16.6760   21.8030 C   0  0  0  0  0  2  0  0  0  0  0  0
  -27.6680  -15.5560   21.3940 C   0  0  0  0  0  1  0  0  0  0  0  0
  -29.0100  -15.4930   22.1490 C   0  0  0  0  0  2  0  0  0  0  0  0
  1  6  1  0
  1 55  1  0
  2  4  1  0
  3  2  1  0
  5  3  1  0
  5  8  1  0
  5  6  1  0
  6  4  1  0
  7  1  2  0
  8 10  2  0
  9  8  1  0
  9 12  1  0
 11  9  1  0
 13 14  1  0
 13 12  1  0
 15 26  2  0
 16 14  1  0
 16 21  1  0
 17 25  1  0
 17 27  1  0
 18 24  1  0
 18 20  1  0
 19 25  1  0
 20 19  1  0
 21 20  2  0
 22 23  1  0
 22 16  2  0
 23 18  2  0
 24 17  1  0
 25 15  1  0
 27 29  2  0
 28 27  1  0
 30 28  1  0
 31 40  2  0
 31 36  1  0
 32 28  1  0
 32 36  1  0
 33 32  1  0
 34 35  1  0
 34 33  1  0
 35 31  1  0
 36 37  2  0
 37 38  1  0
 39 38  2  0
 40 39  1  0
 41 15  1  0
 41 42  1  0
 41 51  1  0
 42 45  1  0
 43 42  1  0
 43 47  1  0
 44 43  2  0
 47 46  1  0
 49 47  1  0
 49 50  1  0
 49 48  1  0
 51 54  1  1
 51 52  1  0
 53 51  1  0
 55 94  1  0
 56 64  1  0
 57 62  1  0
 58 59  1  0
 58 57  1  0
 60 59  1  0
 60 69  1  0
 60 61  1  0
 62 56  1  0
 62 61  1  0
 63 56  2  0
 64 65  1  0
 64 55  1  0
 66 67  2  0
 67 86  1  0
 68 67  1  0
 68 71  1  0
 69 70  1  0
 69 66  1  0
 70 68  2  0
 71 72  1  0
 72 73  2  0
 74 77  1  0
 74 73  1  0
 75 74  2  0
 76 75  1  0
 76 71  2  0
 77 78  1  0
 78 83  2  0
 78 79  1  0
 79 80  2  0
 80 81  1  0
 81 85  1  0
 82 81  2  0
 83 82  1  0
 84 83  1  0
 86 87  1  0
 87 89  1  0
 87 90  1  0
 88 86  2  0
 91 66  1  0
 91 92  1  0
 93 91  1  0
 94 96  1  0
 95 96  1  0
M  ISO  4  13 101  14 101  56 100  64 100
M  END
>  <TORSDO>  (66) 
F 22

>  <SCORE>  (66) 
-6.678

>  <name>  (66) 
66

>  <ligand_id>  (66) 
66

>  <original_smiles>  (66) 
[H]c1c([H])c([H])c2c(c1[H])C([H])([H])C([H])([H])C([H])([H])C2([H])N([H])C(=O)C1([H])N(C(=O)C([H])(N([H])C(=O)C([H])(N([H])C([H])([H])[H])C([H])([H])[H])C(C([H])([H])[H])(C([H])([H])[H])C([H])([H])[H])C([H])([H])c2c([H])c(OC([H])([H])C([H])([H])N([H])C(=O)C3([H])N(C(=O)C([H])(N([H])C(=O)N4C([H])([H])C([H])([H])C([H])([H])C([H])(n5nc(-c6c([H])c([H])c(Oc7c([H])c([H])c(F)c([H])c7F)c([H])c6[H])c(C(=O)N([H])[H])c5N([H])[H])C4([H])[H])C([H])([H])C([H])([H])C([H])([H])[H])C([H])([H])C([H])([H])C3([H])[H])c([H])c([H])c2C1([H])[H]

>  <smiles>  (66) 
[H]c1c([H])c([H])c2c(c1[H])C([H])([H])C([H])([H])C([H])([H])C2([H])N([H])C(=O)C1([H])N(C(=O)C([H])(N([H])C(=O)C([H])(N([H])C([H])([H])[H])C([H])([H])[H])C(C([H])([H])[H])(C([H])([H])[H])C([H])([H])[H])C([H])([H])c2c([H])c(OC([H])([H])C([H])([H])N([H])C(=O)C3([H])N(C(=O)C([H])(N([H])C(=O)N4C([H])([H])C([H])([H])C([H])([H])C([H])(n5nc(-c6c([H])c([H])c(Oc7c([H])c([H])c(F)c([H])c7F)c([H])c6[H])c(C(=O)N([H])[H])c5N([H])[H])C4([H])[H])C([H])([H])C([H])([H])C([H])([H])[H])C([H])([H])C([H])([H])C3([H])[H])c([H])c([H])c2C1([H])[H]

$$$$
67:0:0
     RDKit          3D

109117  0  0  1  0  0  0  0  0999 V2000
  -30.7670  -20.1680   22.2330 C   0  0  0  0  0  3  0  0  0  0  0  0
  -30.4990  -20.2990   20.7860 N   0  0  0  0  0  4  0  0  0  0  0  0
  -31.3490  -20.2320   20.2510 H   0  0  0  0  0  0  0  0  0  0  0  0
  -29.9210  -19.5050   20.5510 H   0  0  0  0  0  0  0  0  0  0  0  0
  -29.7460  -21.5140   20.3990 C   0  0  0  0  0  2  0  0  0  0  0  0
  -29.0390  -21.3720   19.0290 C   0  0  0  0  0  3  0  0  0  0  0  0
  -27.5200  -21.1100   19.0900 C   0  0  0  0  0  0  0  0  0  0  0  0
  -26.7340  -22.0150   19.6600 N   0  0  0  0  0  0  0  0  0  0  0  0
  -27.0510  -20.0730   18.6200 O   0  0  0  0  0  0  0  0  0  0  0  0
  -27.1020  -22.8790   20.0290 H   0  0  0  0  0  0  0  0  0  0  0  0
  -25.7340  -21.8640   19.6710 H   0  0  0  0  0  0  0  0  0  0  0  0
  -30.5840  -20.4950   17.2770 C   0  0  0  0  0  0  0  0  0  0  0  0
  -29.6510  -20.3210   18.2170 N   0  0  0  0  0  0  0  0  0  0  0  0
  -31.1940  -21.5560   17.1460 O   0  0  0  0  0  0  0  0  0  0  0  0
  -29.1570  -19.4360   18.2520 H   0  0  0  0  0  0  0  0  0  0  0  0
  -32.9590  -19.0110   15.0670 C   0  0  0  0  0  2  0  0  0  0  0  0
  -31.7850  -18.9740   14.0980 C   0  0  0  0  0  2  0  0  0  0  0  0
  -32.3120  -18.7710   16.4340 C   0  0  0  0  0  2  0  0  0  0  0  0
  -30.6620  -19.6790   14.8620 C   0  0  0  0  0  2  0  0  0  0  0  0
  -30.8620  -19.3040   16.3450 C   0  0  0  0  0  3  0  0  0  0  0  0
  -30.9960  -18.6800   22.5890 C   0  0  0  0  0  2  0  0  0  0  0  0
  -30.3710  -17.6500   21.6130 C   0  0  0  0  0  2  0  0  0  0  0  0
  -31.3530  -17.1020   20.5520 C   0  0  0  0  0  2  0  0  0  0  0  0
  -31.7640  -15.6390   20.7320 C   0  0  0  0  0  2  0  0  0  0  0  0
  -31.0860  -13.4250   19.9540 C   0  0  0  0  0  0  0  0  0  0  0  0
  -32.2580  -11.4130   19.2190 C   0  0  0  0  0  2  0  0  0  0  0  0
  -33.7700  -11.7260   19.2310 C   0  0  0  0  0  2  0  0  0  0  0  0
  -34.2100  -12.3430   17.8880 C   0  0  0  0  0  2  0  0  0  0  0  0
  -33.2970  -13.5180   17.4380 C   0  0  0  0  0  3  0  0  0  0  0  0
  -31.8040  -13.1240   17.5510 C   0  0  0  0  0  2  0  0  0  0  0  0
  -31.5470  -12.6640   18.9290 N   0  0  0  0  0  0  0  0  0  0  0  0
  -30.8690  -12.9910   21.0860 O   0  0  0  0  0  0  0  0  0  0  0  0
  -31.1740  -14.7410   19.7380 N   0  0  0  0  0  0  0  0  0  0  0  0
  -31.2660  -15.0130   18.7710 H   0  0  0  0  0  0  0  0  0  0  0  0
  -34.2450  -15.1580   15.6930 C   0  0  0  0  0  0  0  0  0  0  0  0
  -34.4070  -15.0580   14.3370 C   0  0  0  0  0  0  0  0  0  0  0  0
  -33.8740  -13.7830   13.9680 C   0  0  0  0  0  0  0  0  0  0  0  0
  -33.6400  -13.9770   16.0930 N   0  0  0  0  0  0  0  0  0  0  0  0
  -33.3670  -13.1700   15.0320 N   0  0  0  0  0  0  0  0  0  0  0  0
  -33.8650  -13.0870   12.6760 C   0  0  0  0  0  0  0  0  0  0  0  0
  -32.7560  -13.1590   11.8040 C   0  0  0  0  0  3  0  0  0  0  0  0
  -32.7780  -12.4940   10.5590 C   0  0  0  0  0  3  0  0  0  0  0  0
  -33.9180  -11.7500   10.1720 C   0  0  0  0  0  0  0  0  0  0  0  0
  -35.0100  -11.6590   11.0550 C   0  0  0  0  0  3  0  0  0  0  0  0
  -34.9830  -12.3180   12.2960 C   0  0  0  0  0  3  0  0  0  0  0  0
  -34.0190  -11.0500    8.9940 O   0  0  0  0  0  0  0  0  0  0  0  0
  -33.4430  -11.5070    7.8330 C   0  0  0  0  0  0  0  0  0  0  0  0
  -34.0510  -12.5070    7.0450 C   0  0  0  0  0  3  0  0  0  0  0  0
  -33.4610  -12.8980    5.8270 C   0  0  0  0  0  3  0  0  0  0  0  0
  -32.2730  -12.2850    5.3890 C   0  0  0  0  0  0  0  0  0  0  0  0
  -31.6690  -11.2830    6.1690 C   0  0  0  0  0  3  0  0  0  0  0  0
  -32.2550  -10.8950    7.3870 C   0  0  0  0  0  0  0  0  0  0  0  0
  -31.6790   -9.9150    8.1240 F   0  0  0  0  0  0  0  0  0  0  0  0
  -31.7120  -12.6560    4.2150 F   0  0  0  0  0  0  0  0  0  0  0  0
  -35.0960  -16.0450   13.4390 C   0  0  0  0  0  0  0  0  0  0  0  0
  -34.4520  -16.4290   12.3430 N   0  0  0  0  0  0  0  0  0  0  0  0
  -36.1960  -16.5150   13.7280 O   0  0  0  0  0  0  0  0  0  0  0  0
  -33.5420  -16.0520   12.1160 H   0  0  0  0  0  0  0  0  0  0  0  0
  -34.8680  -17.1110   11.7250 H   0  0  0  0  0  0  0  0  0  0  0  0
  -34.5720  -16.1440   16.6200 N   0  0  0  0  0  0  0  0  0  0  0  0
  -35.1000  -16.9710   16.3630 H   0  0  0  0  0  0  0  0  0  0  0  0
  -34.4820  -16.0280   17.6220 H   0  0  0  0  0  0  0  0  0  0  0  0
  -31.9390  -21.0900   22.6510 C   0  0  0  0  0  2  0  0  0  0  0  0
  -34.2120  -20.4020   21.6740 C   0  0  0  0  0  3  0  0  0  0  0  0
  -33.3100  -20.4210   22.6790 C   0  0  0  0  0  3  0  0  0  0  0  0
  -35.5360  -19.7570   21.8270 C   0  0  0  0  0  0  0  0  0  0  0  0
  -35.7990  -18.9690   22.7420 O   0  0  0  0  0  0  0  0  0  0  0  0
  -36.6170  -20.0750   20.7840 C   0  0  0  0  0  2  0  0  0  0  0  0
  -37.7260  -20.7630   21.3820 O   0  0  0  0  0  0  0  0  0  0  0  0
  -39.6120  -27.5080   22.5370 C   0  0  0  0  0  0  0  0  0  0  0  0
  -38.0400  -21.9760   20.8070 C   0  0  0  0  0  0  0  0  0  0  0  0
  -38.9030  -26.9740   20.2250 C   0  0  0  0  0  3  0  0  0  0  0  0
  -38.6780  -24.4940   19.6840 C   0  0  0  0  0  0  0  0  0  0  0  0
  -39.9710  -25.1860   21.7070 C   0  0  0  0  0  2  0  0  0  0  0  0
  -39.1440  -24.1580   20.9610 C   0  0  0  0  0  0  0  0  0  0  0  0
  -38.8360  -22.8990   21.5230 C   0  0  0  0  0  3  0  0  0  0  0  0
  -37.5860  -22.3280   19.5130 C   0  0  0  0  0  3  0  0  0  0  0  0
  -37.9020  -23.5780   18.9520 C   0  0  0  0  0  3  0  0  0  0  0  0
  -39.0460  -25.8610   19.1530 C   0  0  0  0  0  2  0  0  0  0  0  0
  -39.4830  -26.5770   21.5490 N   0  0  0  0  0  0  0  0  0  0  0  0
  -39.2990  -28.6910   22.3470 O   0  0  0  0  0  0  0  0  0  0  0  0
  -37.4170  -27.3920   20.3110 C   0  0  0  0  0  0  0  0  0  0  0  0
  -37.0110  -28.3380   19.4490 N   0  0  0  0  0  0  0  0  0  0  0  0
  -36.6530  -26.8520   21.1160 O   0  0  0  0  0  0  0  0  0  0  0  0
  -37.7030  -28.7440   18.8340 H   0  0  0  0  0  0  0  0  0  0  0  0
  -35.0160  -30.8900   17.8540 C   0  0  0  0  0  0  0  0  0  0  0  0
  -35.6510  -28.8580   19.3200 C   0  0  0  0  0  3  0  0  0  0  0  0
  -34.8220  -28.0120   18.3270 C   0  0  0  0  0  2  0  0  0  0  0  0
  -34.8590  -28.5530   16.8940 C   0  0  0  0  0  2  0  0  0  0  0  0
  -34.3240  -29.9870   16.8460 C   0  0  0  0  0  2  0  0  0  0  0  0
  -35.6530  -30.3590   19.0050 C   0  0  0  0  0  0  0  0  0  0  0  0
  -36.3160  -31.2390   19.8890 C   0  0  0  0  0  3  0  0  0  0  0  0
  -36.3440  -32.6240   19.6410 C   0  0  0  0  0  3  0  0  0  0  0  0
  -35.6960  -33.1460   18.5080 C   0  0  0  0  0  3  0  0  0  0  0  0
  -35.0320  -32.2810   17.6190 C   0  0  0  0  0  3  0  0  0  0  0  0
  -40.1820  -27.1380   23.9440 C   0  0  0  0  0  3  0  0  0  0  0  0
  -41.3900  -27.9450   24.1580 N   0  0  0  0  0  0  0  0  0  0  0  0
  -42.6390  -27.4630   24.1460 C   0  0  0  0  0  0  0  0  0  0  0  0
  -42.8930  -26.2610   24.0250 O   0  0  0  0  0  0  0  0  0  0  0  0
  -41.2610  -28.9440   24.2130 H   0  0  0  0  0  0  0  0  0  0  0  0
  -44.7420  -28.3520   23.0900 C   0  0  0  0  0  1  0  0  0  0  0  0
  -43.7920  -28.4740   24.2920 C   0  0  0  0  0  3  0  0  0  0  0  0
  -43.8460  -28.8100   26.7240 C   0  0  0  0  0  1  0  0  0  0  0  0
  -44.5580  -28.3180   25.5470 N   0  0  0  0  0  0  0  0  0  0  0  0
  -45.4480  -28.8040   25.4870 H   0  0  0  0  0  0  0  0  0  0  0  0
  -39.1480  -27.3590   25.1140 C   0  0  1  0  0  0  0  0  0  0  0  0
  -38.8560  -28.8480   25.4080 C   0  0  0  0  0  1  0  0  0  0  0  0
  -37.8030  -26.6630   24.7930 C   0  0  0  0  0  1  0  0  0  0  0  0
  -39.6800  -26.7150   26.4160 C   0  0  0  0  0  1  0  0  0  0  0  0
  1 21  1  0
  1 63  1  0
  2  1  1  0
  3  2  1  0
  4  2  1  0
  5  2  1  0
  6  7  1  0
  6  5  1  0
  7  8  1  0
  8 11  1  0
  8 10  1  0
  9  7  2  0
 12 13  1  0
 13 15  1  0
 13  6  1  0
 14 12  2  0
 16 18  1  0
 17 19  1  0
 17 16  1  0
 19 20  1  0
 20 18  1  0
 20 12  1  0
 22 21  1  0
 23 24  1  0
 23 22  1  0
 25 32  2  0
 26 27  1  0
 28 27  1  0
 29 38  1  0
 29 30  1  0
 29 28  1  0
 30 31  1  0
 31 26  1  0
 31 25  1  0
 33 25  1  0
 33 24  1  0
 34 33  1  0
 35 38  1  0
 35 60  1  0
 36 35  2  0
 37 36  1  0
 37 39  2  0
 39 38  1  0
 40 37  1  0
 41 40  2  0
 42 41  1  0
 43 42  2  0
 43 44  1  0
 44 45  2  0
 45 40  1  0
 46 43  1  0
 47 46  1  0
 48 47  2  0
 49 48  1  0
 50 49  2  0
 50 51  1  0
 51 52  2  0
 52 47  1  0
 52 53  1  0
 54 50  1  0
 55 57  2  0
 55 36  1  0
 56 55  1  0
 58 56  1  0
 59 56  1  0
 60 62  1  0
 61 60  1  0
 63 65  1  0
 64 66  1  0
 64 65  2  0
 66 67  2  0
 68 69  1  0
 68 66  1  0
 71 69  1  0
 71 76  1  0
 72 82  1  0
 72 80  1  0
 73 75  1  0
 75 76  2  0
 75 74  1  0
 77 71  2  0
 78 77  1  0
 78 73  2  0
 79 73  1  0
 79 72  1  0
 80 74  1  0
 80 70  1  0
 81 70  2  0
 82 84  2  0
 83 82  1  0
 85 83  1  0
 86 91  1  0
 87 83  1  0
 88 87  1  0
 89 88  1  0
 90 89  1  0
 90 86  1  0
 91 87  1  0
 91 92  2  0
 93 92  1  0
 94 93  2  0
 95 86  2  0
 95 94  1  0
 96 70  1  0
 96 97  1  0
 96106  1  0
 97100  1  0
 98 97  1  0
 98102  1  0
 99 98  2  0
102101  1  0
102104  1  0
104103  1  0
105104  1  0
106107  1  1
106109  1  0
108106  1  0
M  ISO  4  25 100  33 100  68 101  69 101
M  END
>  <TORSDO>  (67) 
F 30

>  <SCORE>  (67) 
-4.016

>  <name>  (67) 
67

>  <ligand_id>  (67) 
67

>  <original_smiles>  (67) 
[H]C(C(=O)C([H])([H])Oc1c([H])c([H])c2c(c1[H])C([H])([H])N(C(=O)C([H])(N([H])C(=O)C([H])(N([H])C([H])([H])[H])C([H])([H])[H])C(C([H])([H])[H])(C([H])([H])[H])C([H])([H])[H])C([H])(C(=O)N([H])C1([H])c3c([H])c([H])c([H])c([H])c3C([H])([H])C([H])([H])C1([H])[H])C2([H])[H])=C([H])C([H])([H])C([H])(C([H])([H])C([H])([H])C([H])([H])C([H])([H])N([H])C(=O)N1C([H])([H])C([H])([H])C([H])([H])C([H])(n2nc(-c3c([H])c([H])c(Oc4c([H])c([H])c(F)c([H])c4F)c([H])c3[H])c(C(=O)N([H])[H])c2N([H])[H])C1([H])[H])[N+]([H])([H])C([H])([H])C([H])(C(=O)N([H])[H])N([H])C(=O)C1([H])C([H])([H])C([H])([H])C([H])([H])C1([H])[H]

>  <smiles>  (67) 
[H]C(C(=O)C([H])([H])Oc1c([H])c([H])c2c(c1[H])C([H])([H])N(C(=O)C([H])(N([H])C(=O)C([H])(N([H])C([H])([H])[H])C([H])([H])[H])C(C([H])([H])[H])(C([H])([H])[H])C([H])([H])[H])C([H])(C(=O)N([H])C1([H])c3c([H])c([H])c([H])c([H])c3C([H])([H])C([H])([H])C1([H])[H])C2([H])[H])=C([H])C([H])([H])C([H])(C([H])([H])C([H])([H])C([H])([H])C([H])([H])N([H])C(=O)N1C([H])([H])C([H])([H])C([H])([H])C([H])(n2nc(-c3c([H])c([H])c(Oc4c([H])c([H])c(F)c([H])c4F)c([H])c3[H])c(C(=O)N([H])[H])c2N([H])[H])C1([H])[H])[N+]([H])([H])C([H])([H])C([H])(C(=O)N([H])[H])N([H])C(=O)C1([H])C([H])([H])C([H])([H])C([H])([H])C1([H])[H]

$$$$
68:0:0
     RDKit          3D

102109  0  0  1  0  0  0  0  0999 V2000
  -23.1530  -23.4510   18.8990 C   0  0  0  0  0  2  0  0  0  0  0  0
  -24.3610  -24.0810   19.4780 N   0  0  0  0  0  4  0  0  0  0  0  0
  -24.0470  -24.9610   19.8570 H   0  0  0  0  0  0  0  0  0  0  0  0
  -25.0100  -24.2790   18.7340 H   0  0  0  0  0  0  0  0  0  0  0  0
  -25.0200  -23.3550   20.5900 C   0  0  0  0  0  2  0  0  0  0  0  0
  -26.1150  -24.2030   21.2860 C   0  0  0  0  0  2  0  0  0  0  0  0
  -27.4590  -24.3280   20.5210 C   0  0  0  0  0  2  0  0  0  0  0  0
  -28.3620  -25.5030   21.0060 C   0  0  0  0  0  3  0  0  0  0  0  0
  -29.7760  -25.0330   21.1960 N   0  0  0  0  0  0  0  0  0  0  0  0
  -30.1360  -24.7180   22.3280 O   0  0  0  0  0  0  0  0  0  0  0  0
  -30.5050  -24.9760   20.2070 O   0  0  0  0  0  0  0  0  0  0  0  0
  -28.3430  -26.6650   20.1540 O   0  0  0  0  0  0  0  0  0  0  0  0
  -24.5580  -31.8360   23.2730 C   0  0  0  0  0  0  0  0  0  0  0  0
  -27.1960  -27.4140   20.1860 C   0  0  0  0  0  0  0  0  0  0  0  0
  -23.3580  -30.4470   21.6170 C   0  0  0  0  0  3  0  0  0  0  0  0
  -24.8160  -28.9210   20.1920 C   0  0  0  0  0  0  0  0  0  0  0  0
  -25.8870  -30.7970   21.4440 C   0  0  0  0  0  2  0  0  0  0  0  0
  -25.9680  -29.4280   20.8080 C   0  0  0  0  0  0  0  0  0  0  0  0
  -27.1640  -28.6760   20.8170 C   0  0  0  0  0  3  0  0  0  0  0  0
  -26.0490  -26.9530   19.5140 C   0  0  0  0  0  3  0  0  0  0  0  0
  -24.8470  -27.6790   19.5420 C   0  0  0  0  0  3  0  0  0  0  0  0
  -23.5760  -29.7850   20.2330 C   0  0  0  0  0  2  0  0  0  0  0  0
  -24.6180  -31.0420   22.1690 N   0  0  0  0  0  0  0  0  0  0  0  0
  -23.4750  -32.1090   23.8060 O   0  0  0  0  0  0  0  0  0  0  0  0
  -22.7000  -29.4170   22.5630 C   0  0  0  0  0  0  0  0  0  0  0  0
  -21.3740  -29.2470   22.4330 N   0  0  0  0  0  0  0  0  0  0  0  0
  -23.3780  -28.7750   23.3690 O   0  0  0  0  0  0  0  0  0  0  0  0
  -20.8880  -29.8170   21.7550 H   0  0  0  0  0  0  0  0  0  0  0  0
  -17.9830  -28.1080   22.9190 C   0  0  0  0  0  0  0  0  0  0  0  0
  -20.5440  -28.3110   23.1900 C   0  0  0  0  0  3  0  0  0  0  0  0
  -20.6200  -26.8910   22.5870 C   0  0  0  0  0  2  0  0  0  0  0  0
  -19.5090  -26.6030   21.5720 C   0  0  0  0  0  2  0  0  0  0  0  0
  -18.1310  -26.7660   22.2230 C   0  0  0  0  0  2  0  0  0  0  0  0
  -19.1160  -28.8410   23.3590 C   0  0  0  0  0  0  0  0  0  0  0  0
  -18.9240  -30.1010   23.9680 C   0  0  0  0  0  3  0  0  0  0  0  0
  -17.6270  -30.6250   24.1430 C   0  0  0  0  0  3  0  0  0  0  0  0
  -16.5080  -29.8860   23.7220 C   0  0  0  0  0  3  0  0  0  0  0  0
  -16.6870  -28.6310   23.1150 C   0  0  0  0  0  3  0  0  0  0  0  0
  -25.8430  -32.4560   23.9030 C   0  0  0  0  0  3  0  0  0  0  0  0
  -25.5490  -33.8600   24.2160 N   0  0  0  0  0  0  0  0  0  0  0  0
  -25.8950  -34.8990   23.4450 C   0  0  0  0  0  0  0  0  0  0  0  0
  -26.5710  -34.7770   22.4190 O   0  0  0  0  0  0  0  0  0  0  0  0
  -24.9530  -34.0310   25.0130 H   0  0  0  0  0  0  0  0  0  0  0  0
  -24.1860  -36.7000   23.0530 C   0  0  0  0  0  1  0  0  0  0  0  0
  -25.4150  -36.2950   23.8810 C   0  0  0  0  0  3  0  0  0  0  0  0
  -27.5500  -37.1710   24.7200 C   0  0  0  0  0  1  0  0  0  0  0  0
  -26.4570  -37.3380   23.7650 N   0  0  0  0  0  0  0  0  0  0  0  0
  -26.0570  -38.2630   23.8990 H   0  0  0  0  0  0  0  0  0  0  0  0
  -26.3400  -31.6870   25.1880 C   0  0  1  0  0  0  0  0  0  0  0  0
  -25.2330  -31.4610   26.2440 C   0  0  0  0  0  1  0  0  0  0  0  0
  -26.9140  -30.3020   24.8060 C   0  0  0  0  0  1  0  0  0  0  0  0
  -27.4900  -32.4740   25.8580 C   0  0  0  0  0  1  0  0  0  0  0  0
  -23.3350  -22.9620   17.4430 C   0  0  0  0  0  2  0  0  0  0  0  0
  -23.9150  -21.5440   17.3070 C   0  0  0  0  0  2  0  0  0  0  0  0
  -25.4470  -21.4710   17.3930 C   0  0  0  0  0  2  0  0  0  0  0  0
  -25.9190  -20.1230   17.9510 C   0  0  0  0  0  2  0  0  0  0  0  0
  -27.4320  -20.0720   18.2130 C   0  0  0  0  0  2  0  0  0  0  0  0
  -27.7790  -18.8870   19.0180 N   0  0  0  0  0  4  0  0  0  0  0  0
  -27.5840  -18.0620   18.4730 H   0  0  0  0  0  0  0  0  0  0  0  0
  -27.1800  -18.8720   19.8280 H   0  0  0  0  0  0  0  0  0  0  0  0
  -29.1770  -18.8420   19.4830 C   0  0  0  0  0  2  0  0  0  0  0  0
  -29.3850  -17.6760   20.4590 C   0  0  0  0  0  2  0  0  0  0  0  0
  -30.8460  -17.5320   20.9220 C   0  0  0  0  0  2  0  0  0  0  0  0
  -31.0590  -16.3920   21.9400 C   0  0  0  0  0  2  0  0  0  0  0  0
  -30.8180  -14.4110   20.4450 C   0  0  0  0  0  0  0  0  0  0  0  0
  -30.3970  -12.3580   19.1490 C   0  0  0  0  0  2  0  0  0  0  0  0
  -29.4440  -12.6040   17.9640 C   0  0  0  0  0  2  0  0  0  0  0  0
  -27.9770  -12.4690   18.4100 C   0  0  0  0  0  2  0  0  0  0  0  0
  -27.6650  -13.3020   19.6800 C   0  0  0  0  0  3  0  0  0  0  0  0
  -28.7210  -13.0460   20.7790 C   0  0  0  0  0  2  0  0  0  0  0  0
  -30.0630  -13.3050   20.2210 N   0  0  0  0  0  0  0  0  0  0  0  0
  -31.7970  -14.7200   19.7610 O   0  0  0  0  0  0  0  0  0  0  0  0
  -30.4550  -15.1340   21.5090 N   0  0  0  0  0  0  0  0  0  0  0  0
  -29.6750  -14.7850   22.0470 H   0  0  0  0  0  0  0  0  0  0  0  0
  -25.2670  -13.9320   20.3860 C   0  0  0  0  0  0  0  0  0  0  0  0
  -24.1950  -13.1690   20.7660 C   0  0  0  0  0  0  0  0  0  0  0  0
  -24.6480  -11.8150   20.7440 C   0  0  0  0  0  0  0  0  0  0  0  0
  -26.3080  -13.0430   20.1620 N   0  0  0  0  0  0  0  0  0  0  0  0
  -25.9370  -11.7640   20.4300 N   0  0  0  0  0  0  0  0  0  0  0  0
  -23.9160  -10.5590   20.9480 C   0  0  0  0  0  0  0  0  0  0  0  0
  -24.3420   -9.6010   21.8950 C   0  0  0  0  0  3  0  0  0  0  0  0
  -23.6110   -8.4080   22.0850 C   0  0  0  0  0  3  0  0  0  0  0  0
  -22.4400   -8.1660   21.3280 C   0  0  0  0  0  0  0  0  0  0  0  0
  -22.0340   -9.1110   20.3710 C   0  0  0  0  0  3  0  0  0  0  0  0
  -22.7660  -10.2960   20.1790 C   0  0  0  0  0  3  0  0  0  0  0  0
  -21.6810   -7.0240   21.4280 O   0  0  0  0  0  0  0  0  0  0  0  0
  -21.6140   -6.3040   22.5940 C   0  0  0  0  0  0  0  0  0  0  0  0
  -21.1810   -6.8850   23.8060 C   0  0  0  0  0  3  0  0  0  0  0  0
  -21.0610   -6.0910   24.9630 C   0  0  0  0  0  3  0  0  0  0  0  0
  -21.3630   -4.7170   24.9100 C   0  0  0  0  0  0  0  0  0  0  0  0
  -21.7890   -4.1360   23.7030 C   0  0  0  0  0  3  0  0  0  0  0  0
  -21.9110   -4.9270   22.5480 C   0  0  0  0  0  0  0  0  0  0  0  0
  -22.3010   -4.3560   21.3820 F   0  0  0  0  0  0  0  0  0  0  0  0
  -21.2400   -3.9530   26.0200 F   0  0  0  0  0  0  0  0  0  0  0  0
  -22.8020  -13.6570   21.0420 C   0  0  0  0  0  0  0  0  0  0  0  0
  -22.0810  -12.9800   21.9300 N   0  0  0  0  0  0  0  0  0  0  0  0
  -22.3620  -14.6730   20.5070 O   0  0  0  0  0  0  0  0  0  0  0  0
  -22.4490  -12.1580   22.3840 H   0  0  0  0  0  0  0  0  0  0  0  0
  -21.1460  -13.2890   22.1570 H   0  0  0  0  0  0  0  0  0  0  0  0
  -25.4420  -15.2990   20.1980 N   0  0  0  0  0  0  0  0  0  0  0  0
  -24.6870  -15.9660   20.3140 H   0  0  0  0  0  0  0  0  0  0  0  0
  -26.3140  -15.7180   19.9050 H   0  0  0  0  0  0  0  0  0  0  0  0
  1  2  1  0
  2  3  1  0
  2  5  1  0
  4  2  1  0
  5  6  1  0
  7  6  1  0
  8  7  1  0
  8  9  1  0
  9 10  2  0
 11  9  2  0
 12 14  1  0
 12  8  1  0
 13 24  2  0
 14 19  1  0
 15 23  1  0
 15 25  1  0
 16 22  1  0
 16 18  1  0
 17 23  1  0
 18 19  2  0
 18 17  1  0
 20 21  1  0
 20 14  2  0
 21 16  2  0
 22 15  1  0
 23 13  1  0
 25 27  2  0
 26 25  1  0
 28 26  1  0
 29 38  2  0
 29 34  1  0
 30 26  1  0
 30 34  1  0
 31 30  1  0
 32 33  1  0
 32 31  1  0
 33 29  1  0
 34 35  2  0
 35 36  1  0
 37 36  2  0
 38 37  1  0
 39 13  1  0
 39 40  1  0
 39 49  1  0
 40 43  1  0
 41 45  1  0
 41 40  1  0
 42 41  2  0
 45 44  1  0
 47 45  1  0
 47 48  1  0
 47 46  1  0
 49 52  1  1
 49 50  1  0
 51 49  1  0
 53  1  1  0
 54 55  1  0
 54 53  1  0
 55 56  1  0
 56 57  1  0
 57 58  1  0
 58 61  1  0
 58 60  1  0
 59 58  1  0
 61 62  1  0
 62 63  1  0
 63 64  1  0
 65 73  1  0
 66 71  1  0
 67 68  1  0
 67 66  1  0
 69 68  1  0
 69 78  1  0
 69 70  1  0
 71 65  1  0
 71 70  1  0
 72 65  2  0
 73 64  1  0
 73 74  1  0
 75 76  2  0
 76 95  1  0
 77 76  1  0
 77 80  1  0
 78 75  1  0
 78 79  1  0
 79 77  2  0
 80 81  1  0
 81 82  2  0
 83 86  1  0
 83 82  1  0
 84 83  2  0
 85 84  1  0
 85 80  2  0
 86 87  1  0
 87 88  1  0
 88 89  2  0
 90 89  1  0
 90 94  1  0
 91 90  2  0
 92 87  2  0
 92 91  1  0
 93 92  1  0
 95 96  1  0
 96 99  1  0
 96 98  1  0
 97 95  2  0
100101  1  0
100 75  1  0
102100  1  0
M  ISO  4   8 101  12 101  65 100  73 100
M  END
>  <TORSDO>  (68) 
F 32

>  <SCORE>  (68) 
-10.520

>  <name>  (68) 
68

>  <ligand_id>  (68) 
68

>  <original_smiles>  (68) 
[H]c1c([H])c([H])c2c(c1[H])C([H])([H])C([H])([H])C([H])([H])C2([H])N([H])C(=O)C1([H])N(C(=O)C([H])(N([H])C(=O)C([H])(N([H])C([H])([H])[H])C([H])([H])[H])C(C([H])([H])[H])(C([H])([H])[H])C([H])([H])[H])C([H])([H])c2c([H])c(OC([H])([N+](=O)[O-])C([H])([H])C([H])([H])C([H])([H])[N+]([H])([H])C([H])([H])C([H])([H])C([H])([H])C([H])([H])C([H])([H])C([H])([H])[N+]([H])([H])C([H])([H])C([H])([H])C([H])([H])C([H])([H])N([H])C(=O)N3C([H])([H])C([H])([H])C([H])([H])C([H])(n4nc(-c5c([H])c([H])c(Oc6c([H])c([H])c(F)c([H])c6F)c([H])c5[H])c(C(=O)N([H])[H])c4N([H])[H])C3([H])[H])c([H])c([H])c2C1([H])[H]

>  <smiles>  (68) 
[H]c1c([H])c([H])c2c(c1[H])C([H])([H])C([H])([H])C([H])([H])C2([H])N([H])C(=O)C1([H])N(C(=O)C([H])(N([H])C(=O)C([H])(N([H])C([H])([H])[H])C([H])([H])[H])C(C([H])([H])[H])(C([H])([H])[H])C([H])([H])[H])C([H])([H])c2c([H])c(OC([H])([N+](=O)[O-])C([H])([H])C([H])([H])C([H])([H])[N+]([H])([H])C([H])([H])C([H])([H])C([H])([H])C([H])([H])C([H])([H])C([H])([H])[N+]([H])([H])C([H])([H])C([H])([H])C([H])([H])C([H])([H])N([H])C(=O)N3C([H])([H])C([H])([H])C([H])([H])C([H])(n4nc(-c5c([H])c([H])c(Oc6c([H])c([H])c(F)c([H])c6F)c([H])c5[H])c(C(=O)N([H])[H])c4N([H])[H])C3([H])[H])c([H])c([H])c2C1([H])[H]

$$$$
69:0:0
     RDKit          3D

108115  0  0  1  0  0  0  0  0999 V2000
  -30.9800  -21.8540   16.0120 C   0  0  0  0  0  3  0  0  0  0  0  0
  -30.0510  -21.1440   13.7780 C   0  0  0  0  0  0  0  0  0  0  0  0
  -29.0260  -20.6210   13.1150 N   0  0  0  0  0  0  0  0  0  0  0  0
  -31.0760  -21.6620   13.0990 N   0  0  0  0  0  4  0  0  0  0  0  0
  -30.0300  -21.1570   15.1200 N   0  0  0  0  0  0  0  0  0  0  0  0
  -28.9730  -20.6150   12.1050 H   0  0  0  0  0  0  0  0  0  0  0  0
  -28.2370  -20.2230   13.6070 H   0  0  0  0  0  0  0  0  0  0  0  0
  -31.0970  -21.7000   12.0900 H   0  0  0  0  0  0  0  0  0  0  0  0
  -31.8950  -21.9900   13.5850 H   0  0  0  0  0  0  0  0  0  0  0  0
  -29.2060  -20.7880   15.5720 H   0  0  0  0  0  0  0  0  0  0  0  0
  -31.5810  -20.9180   17.0960 C   0  0  0  0  0  2  0  0  0  0  0  0
  -33.7150  -20.1890   15.8550 C   0  0  0  0  0  1  0  0  0  0  0  0
  -32.4250  -19.7330   16.5720 C   0  0  0  0  0  3  0  0  0  0  0  0
  -32.7600  -18.7320   17.7130 C   0  0  0  0  0  2  0  0  0  0  0  0
  -31.6320  -17.7190   18.0210 C   0  0  0  0  0  2  0  0  0  0  0  0
  -31.3080  -17.5010   19.5150 C   0  0  0  0  0  2  0  0  0  0  0  0
  -30.1880  -16.4450   19.6570 C   0  0  0  0  0  2  0  0  0  0  0  0
  -30.9870  -14.5520   21.0200 C   0  0  0  0  0  0  0  0  0  0  0  0
  -30.6910  -12.4890   19.7730 C   0  0  0  0  0  2  0  0  0  0  0  0
  -29.8560  -12.8190   18.5120 C   0  0  0  0  0  2  0  0  0  0  0  0
  -28.3430  -12.8680   18.7980 C   0  0  0  0  0  2  0  0  0  0  0  0
  -27.9580  -13.5540   20.1300 C   0  0  0  0  0  3  0  0  0  0  0  0
  -28.9050  -13.1860   21.2960 C   0  0  0  0  0  2  0  0  0  0  0  0
  -30.2880  -13.4000   20.8500 N   0  0  0  0  0  0  0  0  0  0  0  0
  -32.2050  -14.6430   20.8850 O   0  0  0  0  0  0  0  0  0  0  0  0
  -30.2030  -15.6340   20.8910 N   0  0  0  0  0  0  0  0  0  0  0  0
  -29.2700  -15.4570   21.2340 H   0  0  0  0  0  0  0  0  0  0  0  0
  -25.5140  -14.2110   20.5850 C   0  0  0  0  0  0  0  0  0  0  0  0
  -24.3950  -13.4570   20.8030 C   0  0  0  0  0  0  0  0  0  0  0  0
  -24.8230  -12.0940   20.7930 C   0  0  0  0  0  0  0  0  0  0  0  0
  -26.5560  -13.3040   20.4600 N   0  0  0  0  0  0  0  0  0  0  0  0
  -26.1380  -12.0290   20.6490 N   0  0  0  0  0  0  0  0  0  0  0  0
  -24.0510  -10.8460   20.8560 C   0  0  0  0  0  0  0  0  0  0  0  0
  -24.3570   -9.8350   21.7940 C   0  0  0  0  0  3  0  0  0  0  0  0
  -23.5870   -8.6540   21.8480 C   0  0  0  0  0  3  0  0  0  0  0  0
  -22.4970   -8.4750   20.9650 C   0  0  0  0  0  0  0  0  0  0  0  0
  -22.2100   -9.4750   20.0170 C   0  0  0  0  0  3  0  0  0  0  0  0
  -22.9820  -10.6480   19.9590 C   0  0  0  0  0  3  0  0  0  0  0  0
  -21.7100   -7.3490   20.9350 O   0  0  0  0  0  0  0  0  0  0  0  0
  -21.4840   -6.6020   22.0640 C   0  0  0  0  0  0  0  0  0  0  0  0
  -20.8960   -7.1580   23.2220 C   0  0  0  0  0  3  0  0  0  0  0  0
  -20.6150   -6.3360   24.3320 C   0  0  0  0  0  3  0  0  0  0  0  0
  -20.9100   -4.9610   24.2820 C   0  0  0  0  0  0  0  0  0  0  0  0
  -21.4890   -4.4050   23.1290 C   0  0  0  0  0  3  0  0  0  0  0  0
  -21.7720   -5.2220   22.0230 C   0  0  0  0  0  0  0  0  0  0  0  0
  -22.3110   -4.6770   20.9040 F   0  0  0  0  0  0  0  0  0  0  0  0
  -20.6340   -4.1670   25.3440 F   0  0  0  0  0  0  0  0  0  0  0  0
  -22.9860  -13.9600   20.9210 C   0  0  0  0  0  0  0  0  0  0  0  0
  -22.1530  -13.2650   21.6850 N   0  0  0  0  0  0  0  0  0  0  0  0
  -22.6350  -15.0050   20.3700 O   0  0  0  0  0  0  0  0  0  0  0  0
  -22.4640  -12.4130   22.1290 H   0  0  0  0  0  0  0  0  0  0  0  0
  -21.2040  -13.5800   21.8330 H   0  0  0  0  0  0  0  0  0  0  0  0
  -25.7330  -15.5760   20.4540 N   0  0  0  0  0  0  0  0  0  0  0  0
  -24.9660  -16.2410   20.4570 H   0  0  0  0  0  0  0  0  0  0  0  0
  -26.6120  -15.9850   20.1690 H   0  0  0  0  0  0  0  0  0  0  0  0
  -30.2820  -23.0890   16.6200 C   0  0  0  0  0  2  0  0  0  0  0  0
  -29.3510  -22.7410   17.8080 C   0  0  0  0  0  2  0  0  0  0  0  0
  -30.0350  -22.8210   19.1930 C   0  0  0  0  0  2  0  0  0  0  0  0
  -30.6160  -24.1490   19.5040 N   0  0  0  0  0  4  0  0  0  0  0  0
  -30.9480  -24.6200   18.6790 H   0  0  0  0  0  0  0  0  0  0  0  0
  -31.4330  -24.0120   20.0860 H   0  0  0  0  0  0  0  0  0  0  0  0
  -29.7900  -25.0470   20.3370 C   0  0  0  0  0  3  0  0  0  0  0  0
  -28.5700  -25.6010   19.5650 C   0  0  0  0  0  2  0  0  0  0  0  0
  -28.3170  -26.8550   20.1550 O   0  0  0  0  0  0  0  0  0  0  0  0
  -24.3490  -31.8750   23.0160 C   0  0  0  0  0  0  0  0  0  0  0  0
  -27.1040  -27.4670   20.0580 C   0  0  0  0  0  0  0  0  0  0  0  0
  -23.1940  -30.4530   21.3510 C   0  0  0  0  0  3  0  0  0  0  0  0
  -24.6930  -28.9120   19.9840 C   0  0  0  0  0  0  0  0  0  0  0  0
  -25.7170  -30.8340   21.2250 C   0  0  0  0  0  2  0  0  0  0  0  0
  -25.8200  -29.4650   20.6010 C   0  0  0  0  0  0  0  0  0  0  0  0
  -27.0200  -28.7390   20.6500 C   0  0  0  0  0  3  0  0  0  0  0  0
  -25.9670  -26.9090   19.4360 C   0  0  0  0  0  3  0  0  0  0  0  0
  -24.7570  -27.6280   19.4080 C   0  0  0  0  0  3  0  0  0  0  0  0
  -23.4410  -29.7540   19.9860 C   0  0  0  0  0  2  0  0  0  0  0  0
  -24.4350  -31.0710   21.9210 N   0  0  0  0  0  0  0  0  0  0  0  0
  -23.2520  -32.1430   23.5270 O   0  0  0  0  0  0  0  0  0  0  0  0
  -22.5340  -29.4340   22.3020 C   0  0  0  0  0  0  0  0  0  0  0  0
  -21.2330  -29.1870   22.0940 N   0  0  0  0  0  0  0  0  0  0  0  0
  -23.1910  -28.8630   23.1790 O   0  0  0  0  0  0  0  0  0  0  0  0
  -20.7660  -29.6980   21.3580 H   0  0  0  0  0  0  0  0  0  0  0  0
  -17.8950  -27.8520   22.3950 C   0  0  0  0  0  0  0  0  0  0  0  0
  -20.4110  -28.2380   22.8380 C   0  0  0  0  0  3  0  0  0  0  0  0
  -20.6210  -26.7980   22.3220 C   0  0  0  0  0  2  0  0  0  0  0  0
  -19.6120  -26.3900   21.2450 C   0  0  0  0  0  2  0  0  0  0  0  0
  -18.1810  -26.4910   21.7800 C   0  0  0  0  0  2  0  0  0  0  0  0
  -18.9450  -28.6790   22.8740 C   0  0  0  0  0  0  0  0  0  0  0  0
  -18.6260  -29.9520   23.4000 C   0  0  0  0  0  3  0  0  0  0  0  0
  -17.2960  -30.3960   23.4550 C   0  0  0  0  0  3  0  0  0  0  0  0
  -16.2560  -29.5660   22.9930 C   0  0  0  0  0  3  0  0  0  0  0  0
  -16.5590  -28.2950   22.4680 C   0  0  0  0  0  3  0  0  0  0  0  0
  -25.6180  -32.5150   23.6650 C   0  0  0  0  0  3  0  0  0  0  0  0
  -25.2840  -33.9070   23.9950 N   0  0  0  0  0  0  0  0  0  0  0  0
  -25.6360  -34.9700   23.2580 C   0  0  0  0  0  0  0  0  0  0  0  0
  -26.3470  -34.8840   22.2530 O   0  0  0  0  0  0  0  0  0  0  0  0
  -24.6630  -34.0520   24.7760 H   0  0  0  0  0  0  0  0  0  0  0  0
  -23.8970  -36.7370   22.8590 C   0  0  0  0  0  1  0  0  0  0  0  0
  -25.1130  -36.3430   23.7120 C   0  0  0  0  0  3  0  0  0  0  0  0
  -27.1930  -37.2520   24.6420 C   0  0  0  0  0  1  0  0  0  0  0  0
  -26.1350  -37.4080   23.6490 N   0  0  0  0  0  0  0  0  0  0  0  0
  -25.7110  -38.3220   23.7750 H   0  0  0  0  0  0  0  0  0  0  0  0
  -26.1230  -31.7430   24.9460 C   0  0  1  0  0  0  0  0  0  0  0  0
  -24.9960  -31.4440   25.9600 C   0  0  0  0  0  1  0  0  0  0  0  0
  -26.7830  -30.3990   24.5550 C   0  0  0  0  0  1  0  0  0  0  0  0
  -27.2080  -32.5770   25.6660 C   0  0  0  0  0  1  0  0  0  0  0  0
  -30.7030  -26.1750   20.8740 C   0  0  0  0  0  2  0  0  0  0  0  0
  -31.8630  -25.6150   21.5500 N   0  0  0  0  0  0  0  0  0  0  0  0
  -31.5730  -25.2900   22.4720 H   0  0  0  0  0  0  0  0  0  0  0  0
  -32.5110  -26.3710   21.7680 H   0  0  0  0  0  0  0  0  0  0  0  0
  1 56  1  0
  1 11  1  0
  2  5  1  0
  3  7  1  0
  3  2  1  0
  4  9  1  0
  4  2  2  0
  5 10  1  0
  5  1  1  0
  6  3  1  0
  8  4  1  0
 13 12  1  0
 13 11  1  0
 13 14  1  0
 14 15  1  0
 15 16  1  0
 16 17  1  0
 17 26  1  0
 19 24  1  0
 20 21  1  0
 20 19  1  0
 22 21  1  0
 22 31  1  0
 22 23  1  0
 24 18  1  0
 24 23  1  0
 25 18  2  0
 26 18  1  0
 26 27  1  0
 28 29  2  0
 29 48  1  0
 30 29  1  0
 30 33  1  0
 31 28  1  0
 31 32  1  0
 32 30  2  0
 33 34  1  0
 34 35  2  0
 36 35  1  0
 37 36  2  0
 38 37  1  0
 38 33  2  0
 39 36  1  0
 39 40  1  0
 40 41  1  0
 41 42  2  0
 43 42  1  0
 43 47  1  0
 44 43  2  0
 45 40  2  0
 45 44  1  0
 46 45  1  0
 48 49  1  0
 49 52  1  0
 49 51  1  0
 50 48  2  0
 53 54  1  0
 53 28  1  0
 55 53  1  0
 56 57  1  0
 57 58  1  0
 58 59  1  0
 59 61  1  0
 59 62  1  0
 60 59  1  0
 62 63  1  0
 62105  1  0
 63 64  1  0
 65 76  2  0
 66 64  1  0
 66 71  1  0
 67 75  1  0
 67 77  1  0
 68 74  1  0
 68 70  1  0
 69 75  1  0
 70 71  2  0
 70 69  1  0
 72 66  2  0
 73 72  1  0
 73 68  2  0
 74 67  1  0
 75 65  1  0
 77 79  2  0
 78 77  1  0
 80 78  1  0
 81 90  2  0
 81 86  1  0
 82 78  1  0
 82 86  1  0
 83 82  1  0
 84 85  1  0
 84 83  1  0
 85 81  1  0
 86 87  2  0
 87 88  1  0
 89 88  2  0
 90 89  1  0
 91 65  1  0
 91 92  1  0
 91101  1  0
 92 95  1  0
 93 97  1  0
 93 92  1  0
 94 93  2  0
 97 96  1  0
 99 97  1  0
 99100  1  0
 99 98  1  0
101104  1  1
101102  1  0
103101  1  0
105106  1  0
106108  1  0
106107  1  0
M  ISO  4  18 100  26 100  63 101  64 101
M  END
>  <TORSDO>  (69) 
F 31

>  <SCORE>  (69) 
-9.273

>  <name>  (69) 
69

>  <ligand_id>  (69) 
69

>  <original_smiles>  (69) 
[H]c1c([H])c([H])c2c(c1[H])C([H])([H])C([H])([H])C([H])([H])C2([H])N([H])C(=O)C1([H])N(C(=O)C([H])(N([H])C(=O)C([H])(N([H])C([H])([H])[H])C([H])([H])[H])C(C([H])([H])[H])(C([H])([H])[H])C([H])([H])[H])C([H])([H])c2c([H])c(OC([H])([H])C([H])(C([H])([H])N([H])[H])[N+]([H])([H])C([H])([H])C([H])([H])C([H])([H])C([H])(N([H])C(N([H])[H])=[N+]([H])[H])C([H])([H])C([H])(C([H])([H])[H])C([H])([H])C([H])([H])C([H])([H])C([H])([H])N([H])C(=O)N3C([H])([H])C([H])([H])C([H])([H])C([H])(n4nc(-c5c([H])c([H])c(Oc6c([H])c([H])c(F)c([H])c6F)c([H])c5[H])c(C(=O)N([H])[H])c4N([H])[H])C3([H])[H])c([H])c([H])c2C1([H])[H]

>  <smiles>  (69) 
[H]c1c([H])c([H])c2c(c1[H])C([H])([H])C([H])([H])C([H])([H])C2([H])N([H])C(=O)C1([H])N(C(=O)C([H])(N([H])C(=O)C([H])(N([H])C([H])([H])[H])C([H])([H])[H])C(C([H])([H])[H])(C([H])([H])[H])C([H])([H])[H])C([H])([H])c2c([H])c(OC([H])([H])C([H])(C([H])([H])N([H])[H])[N+]([H])([H])C([H])([H])C([H])([H])C([H])([H])C([H])(N([H])C(N([H])[H])=[N+]([H])[H])C([H])([H])C([H])(C([H])([H])[H])C([H])([H])C([H])([H])C([H])([H])C([H])([H])N([H])C(=O)N3C([H])([H])C([H])([H])C([H])([H])C([H])(n4nc(-c5c([H])c([H])c(Oc6c([H])c([H])c(F)c([H])c6F)c([H])c5[H])c(C(=O)N([H])[H])c4N([H])[H])C3([H])[H])c([H])c([H])c2C1([H])[H]

$$$$
70:0:0
     RDKit          3D

102109  0  0  1  0  0  0  0  0999 V2000
  -26.7340  -25.1730   16.8440 N   0  0  0  0  0  4  0  0  0  0  0  0
  -26.8700  -25.0310   17.8290 H   0  0  0  0  0  0  0  0  0  0  0  0
  -25.8350  -25.6150   16.7200 H   0  0  0  0  0  0  0  0  0  0  0  0
  -27.8220  -26.0930   16.4050 C   0  0  0  0  0  3  0  0  0  0  0  0
  -26.2180  -28.0590   15.8550 C   0  0  0  0  0  1  0  0  0  0  0  0
  -26.6960  -26.3640   14.0940 C   0  0  0  0  0  1  0  0  0  0  0  0
  -27.3160  -27.1030   15.3050 C   0  0  2  0  0  0  0  0  0  0  0  0
  -29.6600  -27.2510   14.1180 C   0  0  0  0  0  1  0  0  0  0  0  0
  -28.4800  -27.9900   14.7790 C   0  0  0  0  0  2  0  0  0  0  0  0
  -28.4830  -26.8190   17.6200 C   0  0  0  0  0  2  0  0  0  0  0  0
  -28.6610  -26.0150   18.9430 C   0  0  0  0  0  2  0  0  0  0  0  0
  -28.4650  -26.8230   20.1100 O   0  0  0  0  0  0  0  0  0  0  0  0
  -24.6350  -31.8840   23.3400 C   0  0  0  0  0  0  0  0  0  0  0  0
  -27.2540  -27.4770   20.2200 C   0  0  0  0  0  0  0  0  0  0  0  0
  -23.4270  -30.5270   21.6630 C   0  0  0  0  0  3  0  0  0  0  0  0
  -24.8740  -28.9950   20.2390 C   0  0  0  0  0  0  0  0  0  0  0  0
  -25.9580  -30.8600   21.4980 C   0  0  0  0  0  2  0  0  0  0  0  0
  -26.0310  -29.4990   20.8430 C   0  0  0  0  0  0  0  0  0  0  0  0
  -27.2240  -28.7450   20.8350 C   0  0  0  0  0  3  0  0  0  0  0  0
  -26.0560  -26.9580   19.6750 C   0  0  0  0  0  3  0  0  0  0  0  0
  -24.8750  -27.7160   19.6650 C   0  0  0  0  0  3  0  0  0  0  0  0
  -23.6480  -29.8750   20.2740 C   0  0  0  0  0  2  0  0  0  0  0  0
  -24.6900  -31.1030   22.2270 N   0  0  0  0  0  0  0  0  0  0  0  0
  -23.5520  -32.1610   23.8730 O   0  0  0  0  0  0  0  0  0  0  0  0
  -22.7580  -29.4930   22.5940 C   0  0  0  0  0  0  0  0  0  0  0  0
  -21.4360  -29.3150   22.4390 N   0  0  0  0  0  0  0  0  0  0  0  0
  -23.4210  -28.8530   23.4160 O   0  0  0  0  0  0  0  0  0  0  0  0
  -20.9570  -29.8890   21.7580 H   0  0  0  0  0  0  0  0  0  0  0  0
  -18.0540  -28.1250   22.8480 C   0  0  0  0  0  0  0  0  0  0  0  0
  -20.6030  -28.3720   23.1820 C   0  0  0  0  0  3  0  0  0  0  0  0
  -20.7140  -26.9450   22.5970 C   0  0  0  0  0  2  0  0  0  0  0  0
  -19.6370  -26.6350   21.5530 C   0  0  0  0  0  2  0  0  0  0  0  0
  -18.2420  -26.7810   22.1660 C   0  0  0  0  0  2  0  0  0  0  0  0
  -19.1640  -28.8790   23.3120 C   0  0  0  0  0  0  0  0  0  0  0  0
  -18.9370  -30.1400   23.9060 C   0  0  0  0  0  3  0  0  0  0  0  0
  -17.6300  -30.6480   24.0410 C   0  0  0  0  0  3  0  0  0  0  0  0
  -16.5330  -29.8880   23.5990 C   0  0  0  0  0  3  0  0  0  0  0  0
  -16.7460  -28.6280   23.0110 C   0  0  0  0  0  3  0  0  0  0  0  0
  -25.9250  -32.4860   23.9790 C   0  0  0  0  0  3  0  0  0  0  0  0
  -25.6360  -33.8870   24.3190 N   0  0  0  0  0  0  0  0  0  0  0  0
  -25.9970  -34.9370   23.5710 C   0  0  0  0  0  0  0  0  0  0  0  0
  -26.6840  -34.8310   22.5510 O   0  0  0  0  0  0  0  0  0  0  0  0
  -25.0410  -34.0510   25.1150 H   0  0  0  0  0  0  0  0  0  0  0  0
  -24.3070  -36.7550   23.2010 C   0  0  0  0  0  1  0  0  0  0  0  0
  -25.5230  -36.3260   24.0340 C   0  0  0  0  0  3  0  0  0  0  0  0
  -27.6490  -37.1630   24.9340 C   0  0  0  0  0  1  0  0  0  0  0  0
  -26.5780  -37.3590   23.9620 N   0  0  0  0  0  0  0  0  0  0  0  0
  -26.1880  -38.2870   24.0970 H   0  0  0  0  0  0  0  0  0  0  0  0
  -26.4250  -31.6910   25.2490 C   0  0  1  0  0  0  0  0  0  0  0  0
  -25.3230  -31.4450   26.3050 C   0  0  0  0  0  1  0  0  0  0  0  0
  -26.9990  -30.3120   24.8410 C   0  0  0  0  0  1  0  0  0  0  0  0
  -27.5770  -32.4630   25.9360 C   0  0  0  0  0  1  0  0  0  0  0  0
  -26.7180  -23.8200   16.2320 C   0  0  0  0  0  2  0  0  0  0  0  0
  -26.2310  -22.7260   17.2070 C   0  0  0  0  0  2  0  0  0  0  0  0
  -27.2850  -22.3590   18.2720 C   0  0  0  0  0  2  0  0  0  0  0  0
  -27.0520  -21.0100   18.9770 C   0  0  0  0  0  2  0  0  0  0  0  0
  -28.2010  -20.6970   19.8540 N   0  0  0  0  0  4  0  0  0  0  0  0
  -29.0400  -20.8670   19.3230 H   0  0  0  0  0  0  0  0  0  0  0  0
  -28.2020  -21.3230   20.6430 H   0  0  0  0  0  0  0  0  0  0  0  0
  -28.2780  -19.3100   20.3490 C   0  0  0  0  0  2  0  0  0  0  0  0
  -29.7190  -18.9700   20.7720 C   0  0  0  0  0  2  0  0  0  0  0  0
  -29.8680  -17.5460   21.3240 C   0  0  0  0  0  2  0  0  0  0  0  0
  -31.3450  -17.1240   21.4270 C   0  0  0  0  0  2  0  0  0  0  0  0
  -31.5570  -15.7320   22.0480 C   0  0  0  0  0  2  0  0  0  0  0  0
  -30.9700  -14.1330   20.2050 C   0  0  0  0  0  0  0  0  0  0  0  0
  -30.4580  -12.1260   18.8610 C   0  0  0  0  0  2  0  0  0  0  0  0
  -29.4610  -12.3850   17.7180 C   0  0  0  0  0  2  0  0  0  0  0  0
  -28.0090  -12.2770   18.2160 C   0  0  0  0  0  2  0  0  0  0  0  0
  -27.7620  -13.1080   19.5000 C   0  0  0  0  0  3  0  0  0  0  0  0
  -28.8490  -12.8180   20.5580 C   0  0  0  0  0  2  0  0  0  0  0  0
  -30.1750  -13.0610   19.9570 N   0  0  0  0  0  0  0  0  0  0  0  0
  -31.8970  -14.4830   19.4690 O   0  0  0  0  0  0  0  0  0  0  0  0
  -30.7610  -14.6880   21.4050 N   0  0  0  0  0  0  0  0  0  0  0  0
  -30.0140  -14.2840   21.9510 H   0  0  0  0  0  0  0  0  0  0  0  0
  -25.4080  -13.7860   20.3010 C   0  0  0  0  0  0  0  0  0  0  0  0
  -24.3350  -13.0450   20.7180 C   0  0  0  0  0  0  0  0  0  0  0  0
  -24.7560  -11.6820   20.6730 C   0  0  0  0  0  0  0  0  0  0  0  0
  -26.4200  -12.8760   20.0340 N   0  0  0  0  0  0  0  0  0  0  0  0
  -26.0300  -11.6040   20.3130 N   0  0  0  0  0  0  0  0  0  0  0  0
  -24.0050  -10.4410   20.9010 C   0  0  0  0  0  0  0  0  0  0  0  0
  -24.4200   -9.4940   21.8650 C   0  0  0  0  0  3  0  0  0  0  0  0
  -23.6700   -8.3160   22.0780 C   0  0  0  0  0  3  0  0  0  0  0  0
  -22.4940   -8.0770   21.3280 C   0  0  0  0  0  0  0  0  0  0  0  0
  -22.0990   -9.0120   20.3540 C   0  0  0  0  0  3  0  0  0  0  0  0
  -22.8490  -10.1810   20.1390 C   0  0  0  0  0  3  0  0  0  0  0  0
  -21.7180   -6.9500   21.4480 O   0  0  0  0  0  0  0  0  0  0  0  0
  -21.6300   -6.2580   22.6300 C   0  0  0  0  0  0  0  0  0  0  0  0
  -21.1730   -6.8690   23.8180 C   0  0  0  0  0  3  0  0  0  0  0  0
  -21.0350   -6.1050   24.9950 C   0  0  0  0  0  3  0  0  0  0  0  0
  -21.3400   -4.7310   24.9810 C   0  0  0  0  0  0  0  0  0  0  0  0
  -21.7890   -4.1200   23.7970 C   0  0  0  0  0  3  0  0  0  0  0  0
  -21.9300   -4.8820   22.6240 C   0  0  0  0  0  0  0  0  0  0  0  0
  -22.3430   -4.2830   21.4810 F   0  0  0  0  0  0  0  0  0  0  0  0
  -21.1980   -3.9950   26.1070 F   0  0  0  0  0  0  0  0  0  0  0  0
  -22.9620  -13.5610   21.0470 C   0  0  0  0  0  0  0  0  0  0  0  0
  -22.2560  -12.8910   21.9520 N   0  0  0  0  0  0  0  0  0  0  0  0
  -22.5270  -14.5930   20.5380 O   0  0  0  0  0  0  0  0  0  0  0  0
  -22.6230  -12.0570   22.3860 H   0  0  0  0  0  0  0  0  0  0  0  0
  -21.3380  -13.2150   22.2130 H   0  0  0  0  0  0  0  0  0  0  0  0
  -25.6000  -15.1510   20.1090 N   0  0  0  0  0  0  0  0  0  0  0  0
  -24.8560  -15.8270   20.2450 H   0  0  0  0  0  0  0  0  0  0  0  0
  -26.4530  -15.5640   19.7540 H   0  0  0  0  0  0  0  0  0  0  0  0
  1  2  1  0
  3  1  1  0
  4  1  1  0
  4 10  1  0
  7  6  1  6
  7  5  1  0
  7  4  1  0
  8  9  1  0
  9  7  1  0
 10 11  1  0
 11 12  1  0
 12 14  1  0
 13 24  2  0
 14 19  1  0
 15 23  1  0
 15 25  1  0
 16 22  1  0
 16 18  1  0
 17 23  1  0
 18 17  1  0
 19 18  2  0
 20 14  2  0
 21 20  1  0
 21 16  2  0
 22 15  1  0
 23 13  1  0
 25 27  2  0
 26 25  1  0
 28 26  1  0
 29 38  2  0
 29 34  1  0
 30 26  1  0
 30 34  1  0
 31 30  1  0
 32 33  1  0
 32 31  1  0
 33 29  1  0
 34 35  2  0
 35 36  1  0
 37 36  2  0
 38 37  1  0
 39 13  1  0
 39 40  1  0
 39 49  1  0
 40 43  1  0
 41 45  1  0
 41 40  1  0
 42 41  2  0
 45 44  1  0
 47 45  1  0
 47 48  1  0
 47 46  1  0
 49 52  1  1
 49 50  1  0
 51 49  1  0
 53  1  1  0
 53 54  1  0
 54 55  1  0
 55 56  1  0
 56 57  1  0
 57 60  1  0
 57 59  1  0
 58 57  1  0
 60 61  1  0
 61 62  1  0
 62 63  1  0
 63 64  1  0
 65 73  1  0
 66 71  1  0
 67 68  1  0
 67 66  1  0
 69 68  1  0
 69 78  1  0
 69 70  1  0
 71 65  1  0
 71 70  1  0
 72 65  2  0
 73 74  1  0
 73 64  1  0
 75 76  2  0
 76 95  1  0
 77 76  1  0
 77 80  1  0
 78 75  1  0
 78 79  1  0
 79 77  2  0
 80 81  1  0
 81 82  2  0
 83 86  1  0
 83 82  1  0
 84 83  2  0
 85 84  1  0
 85 80  2  0
 86 87  1  0
 87 88  1  0
 88 89  2  0
 90 89  1  0
 90 94  1  0
 91 90  2  0
 92 87  2  0
 92 91  1  0
 93 92  1  0
 95 96  1  0
 96 99  1  0
 96 98  1  0
 97 95  2  0
100101  1  0
100 75  1  0
102100  1  0
M  ISO  4  11 101  12 101  65 100  73 100
M  END
>  <TORSDO>  (70) 
F 31

>  <SCORE>  (70) 
-9.260

>  <name>  (70) 
70

>  <ligand_id>  (70) 
70

>  <original_smiles>  (70) 
[H]c1c([H])c([H])c2c(c1[H])C([H])([H])C([H])([H])C([H])([H])C2([H])N([H])C(=O)C1([H])N(C(=O)C([H])(N([H])C(=O)C([H])(N([H])C([H])([H])[H])C([H])([H])[H])C(C([H])([H])[H])(C([H])([H])[H])C([H])([H])[H])C([H])([H])c2c([H])c(OC([H])([H])C([H])([H])C([H])(C(C([H])([H])[H])(C([H])([H])[H])C([H])([H])C([H])([H])[H])[N+]([H])([H])C([H])([H])C([H])([H])C([H])([H])C([H])([H])[N+]([H])([H])C([H])([H])C([H])([H])C([H])([H])C([H])([H])C([H])([H])N([H])C(=O)N3C([H])([H])C([H])([H])C([H])([H])C([H])(n4nc(-c5c([H])c([H])c(Oc6c([H])c([H])c(F)c([H])c6F)c([H])c5[H])c(C(=O)N([H])[H])c4N([H])[H])C3([H])[H])c([H])c([H])c2C1([H])[H]

>  <smiles>  (70) 
[H]c1c([H])c([H])c2c(c1[H])C([H])([H])C([H])([H])C([H])([H])C2([H])N([H])C(=O)C1([H])N(C(=O)C([H])(N([H])C(=O)C([H])(N([H])C([H])([H])[H])C([H])([H])[H])C(C([H])([H])[H])(C([H])([H])[H])C([H])([H])[H])C([H])([H])c2c([H])c(OC([H])([H])C([H])([H])C([H])(C(C([H])([H])[H])(C([H])([H])[H])C([H])([H])C([H])([H])[H])[N+]([H])([H])C([H])([H])C([H])([H])C([H])([H])C([H])([H])[N+]([H])([H])C([H])([H])C([H])([H])C([H])([H])C([H])([H])C([H])([H])N([H])C(=O)N3C([H])([H])C([H])([H])C([H])([H])C([H])(n4nc(-c5c([H])c([H])c(Oc6c([H])c([H])c(F)c([H])c6F)c([H])c5[H])c(C(=O)N([H])[H])c4N([H])[H])C3([H])[H])c([H])c([H])c2C1([H])[H]

$$$$
71:0:0
     RDKit          3D

 97104  0  0  1  0  0  0  0  0999 V2000
  -29.1000  -19.0720   20.2710 C   0  0  0  0  0  3  0  0  0  0  0  0
  -29.4220  -20.6760   19.8950 C   0  0  0  0  0  0  0  0  0  0  0  0
  -28.7270  -21.8420   20.3280 N   0  0  0  0  0  0  0  0  0  0  0  0
  -30.3720  -20.8600   19.1390 O   0  0  0  0  0  0  0  0  0  0  0  0
  -27.9310  -21.6610   20.9250 H   0  0  0  0  0  0  0  0  0  0  0  0
  -29.0650  -23.3880   20.1670 C   0  0  0  0  0  3  0  0  0  0  0  0
  -27.9690  -24.6720   20.2200 C   0  0  0  0  0  3  0  0  0  0  0  0
  -28.2730  -26.2110   20.2380 O   0  0  0  0  0  0  0  0  0  0  0  0
  -24.6550  -31.9330   23.2100 C   0  0  0  0  0  0  0  0  0  0  0  0
  -27.2270  -27.2080   20.1850 C   0  0  0  0  0  0  0  0  0  0  0  0
  -23.4650  -30.5520   21.5540 C   0  0  0  0  0  3  0  0  0  0  0  0
  -24.9170  -28.9780   20.1380 C   0  0  0  0  0  0  0  0  0  0  0  0
  -26.0230  -30.7990   21.4200 C   0  0  0  0  0  2  0  0  0  0  0  0
  -26.0950  -29.4100   20.7600 C   0  0  0  0  0  0  0  0  0  0  0  0
  -27.2530  -28.5420   20.7650 C   0  0  0  0  0  3  0  0  0  0  0  0
  -26.0240  -26.8860   19.5200 C   0  0  0  0  0  3  0  0  0  0  0  0
  -24.8940  -27.7290   19.5050 C   0  0  0  0  0  3  0  0  0  0  0  0
  -23.6960  -29.8840   20.1750 C   0  0  0  0  0  2  0  0  0  0  0  0
  -24.7340  -31.1160   22.1170 N   0  0  0  0  0  0  0  0  0  0  0  0
  -23.5630  -32.2250   23.7240 O   0  0  0  0  0  0  0  0  0  0  0  0
  -22.7710  -29.5440   22.5030 C   0  0  0  0  0  0  0  0  0  0  0  0
  -21.4410  -29.3880   22.3670 N   0  0  0  0  0  0  0  0  0  0  0  0
  -23.4320  -28.9020   23.3240 O   0  0  0  0  0  0  0  0  0  0  0  0
  -20.9680  -29.9550   21.6770 H   0  0  0  0  0  0  0  0  0  0  0  0
  -18.0350  -28.2750   22.8890 C   0  0  0  0  0  0  0  0  0  0  0  0
  -20.6040  -28.4570   23.1260 C   0  0  0  0  0  3  0  0  0  0  0  0
  -20.6570  -27.0380   22.5130 C   0  0  0  0  0  2  0  0  0  0  0  0
  -19.5310  -26.7730   21.5080 C   0  0  0  0  0  2  0  0  0  0  0  0
  -18.1640  -26.9400   22.1760 C   0  0  0  0  0  2  0  0  0  0  0  0
  -19.1820  -28.9950   23.3210 C   0  0  0  0  0  0  0  0  0  0  0  0
  -19.0070  -30.2470   23.9490 C   0  0  0  0  0  3  0  0  0  0  0  0
  -17.7190  -30.7780   24.1540 C   0  0  0  0  0  3  0  0  0  0  0  0
  -16.5880  -30.0540   23.7400 C   0  0  0  0  0  3  0  0  0  0  0  0
  -16.7470  -28.8060   23.1100 C   0  0  0  0  0  3  0  0  0  0  0  0
  -25.9290  -32.5600   23.8520 C   0  0  0  0  0  3  0  0  0  0  0  0
  -26.4200  -31.7820   25.1340 C   0  0  1  0  0  0  0  0  0  0  0  0
  -25.3070  -31.5440   26.1830 C   0  0  0  0  0  1  0  0  0  0  0  0
  -27.0080  -30.4040   24.7540 C   0  0  0  0  0  1  0  0  0  0  0  0
  -27.5620  -32.5720   25.8170 C   0  0  0  0  0  1  0  0  0  0  0  0
  -25.6190  -33.9590   24.1880 N   0  0  0  0  0  0  0  0  0  0  0  0
  -25.9340  -35.0170   23.4290 C   0  0  0  0  0  0  0  0  0  0  0  0
  -26.5820  -34.9170   22.3850 O   0  0  0  0  0  0  0  0  0  0  0  0
  -25.0380  -34.1090   25.0000 H   0  0  0  0  0  0  0  0  0  0  0  0
  -24.1880  -36.8050   23.1300 C   0  0  0  0  0  1  0  0  0  0  0  0
  -25.4550  -36.4040   23.9030 C   0  0  0  0  0  3  0  0  0  0  0  0
  -27.5990  -37.3080   24.6840 C   0  0  0  0  0  1  0  0  0  0  0  0
  -26.4800  -37.4610   23.7600 N   0  0  0  0  0  0  0  0  0  0  0  0
  -26.0690  -38.3800   23.9100 H   0  0  0  0  0  0  0  0  0  0  0  0
  -27.9150  -18.5910   19.3870 C   0  0  0  0  0  2  0  0  0  0  0  0
  -26.5230  -18.8780   19.9910 C   0  0  0  0  0  2  0  0  0  0  0  0
  -25.4410  -18.1440   19.3110 N   0  0  0  0  0  4  0  0  0  0  0  0
  -25.3720  -18.4030   18.3430 H   0  0  0  0  0  0  0  0  0  0  0  0
  -24.5600  -18.3550   19.7500 H   0  0  0  0  0  0  0  0  0  0  0  0
  -25.5790  -17.1410   19.3730 H   0  0  0  0  0  0  0  0  0  0  0  0
  -30.2670  -17.8170   20.3360 C   0  0  0  0  0  3  0  0  0  0  0  0
  -30.6590  -15.0590   20.2940 C   0  0  0  0  0  0  0  0  0  0  0  0
  -30.5320  -12.6940   19.3860 C   0  0  0  0  0  2  0  0  0  0  0  0
  -29.5840  -12.6070   18.1690 C   0  0  0  0  0  2  0  0  0  0  0  0
  -28.1370  -12.3720   18.6340 C   0  0  0  0  0  2  0  0  0  0  0  0
  -27.7290  -13.3180   19.7920 C   0  0  0  0  0  3  0  0  0  0  0  0
  -28.7980  -13.3830   20.9050 C   0  0  0  0  0  2  0  0  0  0  0  0
  -30.0570  -13.8000   20.2700 N   0  0  0  0  0  0  0  0  0  0  0  0
  -31.8450  -15.1050   19.9560 O   0  0  0  0  0  0  0  0  0  0  0  0
  -29.9140  -16.2620   20.4990 N   0  0  0  0  0  0  0  0  0  0  0  0
  -28.9560  -16.0830   20.7570 H   0  0  0  0  0  0  0  0  0  0  0  0
  -25.3590  -13.8620   20.5830 C   0  0  0  0  0  0  0  0  0  0  0  0
  -24.3120  -13.0720   20.9710 C   0  0  0  0  0  0  0  0  0  0  0  0
  -24.7860  -11.7260   20.9030 C   0  0  0  0  0  0  0  0  0  0  0  0
  -26.4070  -12.9990   20.3140 N   0  0  0  0  0  0  0  0  0  0  0  0
  -26.0700  -11.7070   20.5680 N   0  0  0  0  0  0  0  0  0  0  0  0
  -24.0690  -10.4540   21.0720 C   0  0  0  0  0  0  0  0  0  0  0  0
  -24.5220   -9.4660   21.9740 C   0  0  0  0  0  3  0  0  0  0  0  0
  -23.8040   -8.2620   22.1370 C   0  0  0  0  0  3  0  0  0  0  0  0
  -22.6190   -8.0360   21.3970 C   0  0  0  0  0  0  0  0  0  0  0  0
  -22.1840   -9.0130   20.4850 C   0  0  0  0  0  3  0  0  0  0  0  0
  -22.9030  -10.2080   20.3200 C   0  0  0  0  0  3  0  0  0  0  0  0
  -21.8690   -6.8870   21.4740 O   0  0  0  0  0  0  0  0  0  0  0  0
  -21.8080   -6.1430   22.6260 C   0  0  0  0  0  0  0  0  0  0  0  0
  -21.3100   -6.6780   23.8330 C   0  0  0  0  0  3  0  0  0  0  0  0
  -21.2000   -5.8590   24.9750 C   0  0  0  0  0  3  0  0  0  0  0  0
  -21.5790   -4.5050   24.9090 C   0  0  0  0  0  0  0  0  0  0  0  0
  -22.0720   -3.9690   23.7060 C   0  0  0  0  0  3  0  0  0  0  0  0
  -22.1830   -4.7850   22.5670 C   0  0  0  0  0  0  0  0  0  0  0  0
  -22.6370   -4.2590   21.4050 F   0  0  0  0  0  0  0  0  0  0  0  0
  -21.4670   -3.7150   26.0020 F   0  0  0  0  0  0  0  0  0  0  0  0
  -22.9180  -13.5340   21.2710 C   0  0  0  0  0  0  0  0  0  0  0  0
  -22.2130  -12.8280   22.1460 N   0  0  0  0  0  0  0  0  0  0  0  0
  -22.4710  -14.5630   20.7640 O   0  0  0  0  0  0  0  0  0  0  0  0
  -22.5930  -11.9970   22.5740 H   0  0  0  0  0  0  0  0  0  0  0  0
  -21.2780  -13.1240   22.3960 H   0  0  0  0  0  0  0  0  0  0  0  0
  -25.4820  -15.2340   20.3750 N   0  0  0  0  0  0  0  0  0  0  0  0
  -24.5350  -15.5310   20.1540 H   0  0  0  0  0  0  0  0  0  0  0  0
  -26.0920  -15.3700   19.5760 H   0  0  0  0  0  0  0  0  0  0  0  0
  -31.3390  -18.1550   21.4230 C   0  0  0  0  0  2  0  0  0  0  0  0
  -33.1130  -19.6760   22.4240 C   0  0  0  0  0  1  0  0  0  0  0  0
  -33.3310  -18.9820   20.0250 C   0  0  0  0  0  1  0  0  0  0  0  0
  -32.3350  -19.3100   21.1500 C   0  0  0  0  0  3  0  0  0  0  0  0
  1 49  1  0
  1 55  1  0
  2  1  1  0
  2  3  1  0
  3  5  1  0
  4  2  2  0
  6  7  2  0
  6  3  1  0
  7  8  1  0
  9 20  2  0
 10  8  1  0
 10 15  1  0
 11 19  1  0
 11 21  1  0
 12 18  1  0
 12 14  1  0
 13 19  1  0
 14 15  2  0
 14 13  1  0
 16 10  2  0
 17 16  1  0
 17 12  2  0
 18 11  1  0
 19  9  1  0
 21 23  2  0
 22 21  1  0
 24 22  1  0
 25 34  2  0
 25 30  1  0
 26 22  1  0
 26 30  1  0
 27 26  1  0
 28 29  1  0
 28 27  1  0
 29 25  1  0
 30 31  2  0
 31 32  1  0
 33 32  2  0
 34 33  1  0
 35  9  1  0
 35 40  1  0
 35 36  1  0
 36 39  1  1
 36 37  1  0
 38 36  1  0
 40 43  1  0
 41 45  1  0
 41 40  1  0
 42 41  2  0
 45 44  1  0
 47 45  1  0
 47 48  1  0
 47 46  1  0
 49 50  1  0
 51 54  1  0
 51 53  1  0
 51 50  1  0
 52 51  1  0
 55 64  1  0
 55 94  1  0
 56 64  1  0
 57 62  1  0
 58 59  1  0
 58 57  1  0
 60 59  1  0
 60 69  1  0
 60 61  1  0
 62 56  1  0
 62 61  1  0
 63 56  2  0
 64 65  1  0
 66 67  2  0
 67 86  1  0
 68 67  1  0
 68 71  1  0
 69 70  1  0
 69 66  1  0
 70 68  2  0
 71 72  1  0
 72 73  2  0
 74 77  1  0
 74 73  1  0
 75 74  2  0
 76 75  1  0
 76 71  2  0
 77 78  1  0
 78 79  1  0
 79 80  2  0
 81 80  1  0
 81 85  1  0
 82 81  2  0
 83 78  2  0
 83 82  1  0
 84 83  1  0
 86 87  1  0
 87 90  1  0
 87 89  1  0
 88 86  2  0
 91 66  1  0
 92 91  1  0
 93 91  1  0
 96 97  1  0
 97 94  1  0
 97 95  1  0
M  ISO  4   7 101   8 101  56 100  64 100
M  END
>  <TORSDO>  (71) 
F 25

>  <SCORE>  (71) 
-12.139

>  <name>  (71) 
71

>  <ligand_id>  (71) 
71

>  <original_smiles>  (71) 
[H]c1c([H])c([H])c2c(c1[H])C([H])([H])C([H])([H])C([H])([H])C2([H])N([H])C(=O)C1([H])N(C(=O)C([H])(N([H])C(=O)C([H])(N([H])C([H])([H])[H])C([H])([H])[H])C(C([H])([H])[H])(C([H])([H])[H])C([H])([H])[H])C([H])([H])c2c([H])c(OC([H])([H])C([H])([H])N([H])C(=O)C([H])(C([H])([H])C([H])([H])[N+]([H])([H])[H])C([H])(N([H])C(=O)N3C([H])([H])C([H])([H])C([H])([H])C([H])(n4nc(-c5c([H])c([H])c(Oc6c([H])c([H])c(F)c([H])c6F)c([H])c5[H])c(C(=O)N([H])[H])c4N([H])[H])C3([H])[H])C([H])([H])C([H])(C([H])([H])[H])C([H])([H])[H])c([H])c([H])c2C1([H])[H]

>  <smiles>  (71) 
[H]c1c([H])c([H])c2c(c1[H])C([H])([H])C([H])([H])C([H])([H])C2([H])N([H])C(=O)C1([H])N(C(=O)C([H])(N([H])C(=O)C([H])(N([H])C([H])([H])[H])C([H])([H])[H])C(C([H])([H])[H])(C([H])([H])[H])C([H])([H])[H])C([H])([H])c2c([H])c(OC([H])([H])C([H])([H])N([H])C(=O)C([H])(C([H])([H])C([H])([H])[N+]([H])([H])[H])C([H])(N([H])C(=O)N3C([H])([H])C([H])([H])C([H])([H])C([H])(n4nc(-c5c([H])c([H])c(Oc6c([H])c([H])c(F)c([H])c6F)c([H])c5[H])c(C(=O)N([H])[H])c4N([H])[H])C3([H])[H])C([H])([H])C([H])(C([H])([H])[H])C([H])([H])[H])c([H])c([H])c2C1([H])[H]

$$$$
72:0:0
     RDKit          3D

 94102  0  0  1  0  0  0  0  0999 V2000
  -29.5910  -17.5520   20.9110 C   0  0  0  0  0  0  0  0  0  0  0  0
  -31.2250  -20.7960   21.1370 C   0  0  0  0  0  2  0  0  0  0  0  0
  -29.0020  -20.9980   20.0010 C   0  0  0  0  0  2  0  0  0  0  0  0
  -30.6940  -19.5760   21.9160 C   0  0  0  0  0  2  0  0  0  0  0  0
  -28.5150  -19.7780   20.8060 C   0  0  0  0  0  2  0  0  0  0  0  0
  -30.0940  -21.7760   20.7640 C   0  0  0  0  0  3  0  0  0  0  0  0
  -29.6350  -18.8870   21.1580 N   0  0  0  0  0  0  0  0  0  0  0  0
  -28.6700  -17.0310   20.2700 O   0  0  0  0  0  0  0  0  0  0  0  0
  -30.6980  -16.6370   21.4720 C   0  0  0  0  0  2  0  0  0  0  0  0
  -30.7880  -14.4810   20.2240 C   0  0  0  0  0  0  0  0  0  0  0  0
  -30.3450  -12.4610   18.8780 C   0  0  0  0  0  2  0  0  0  0  0  0
  -29.3260  -12.7630   17.7620 C   0  0  0  0  0  2  0  0  0  0  0  0
  -27.8840  -12.6110   18.2790 C   0  0  0  0  0  2  0  0  0  0  0  0
  -27.6470  -13.3720   19.6090 C   0  0  0  0  0  3  0  0  0  0  0  0
  -28.7590  -13.0410   20.6290 C   0  0  0  0  0  2  0  0  0  0  0  0
  -30.0650  -13.3510   20.0140 N   0  0  0  0  0  0  0  0  0  0  0  0
  -31.7560  -14.8130   19.5320 O   0  0  0  0  0  0  0  0  0  0  0  0
  -30.3730  -15.2250   21.2520 N   0  0  0  0  0  0  0  0  0  0  0  0
  -29.5810  -14.8670   21.7630 H   0  0  0  0  0  0  0  0  0  0  0  0
  -25.2890  -13.9720   20.4570 C   0  0  0  0  0  0  0  0  0  0  0  0
  -24.2390  -13.1930   20.8650 C   0  0  0  0  0  0  0  0  0  0  0  0
  -24.6930  -11.8410   20.7780 C   0  0  0  0  0  0  0  0  0  0  0  0
  -26.3180  -13.0940   20.1520 N   0  0  0  0  0  0  0  0  0  0  0  0
  -25.9640  -11.8060   20.3980 N   0  0  0  0  0  0  0  0  0  0  0  0
  -23.9760  -10.5760   20.9820 C   0  0  0  0  0  0  0  0  0  0  0  0
  -24.4360   -9.6050   21.9000 C   0  0  0  0  0  3  0  0  0  0  0  0
  -23.7200   -8.4040   22.0910 C   0  0  0  0  0  3  0  0  0  0  0  0
  -22.5300   -8.1640   21.3630 C   0  0  0  0  0  0  0  0  0  0  0  0
  -22.0890   -9.1240   20.4340 C   0  0  0  0  0  3  0  0  0  0  0  0
  -22.8050  -10.3160   20.2420 C   0  0  0  0  0  3  0  0  0  0  0  0
  -21.7830   -7.0150   21.4640 O   0  0  0  0  0  0  0  0  0  0  0  0
  -21.7370   -6.2860   22.6250 C   0  0  0  0  0  0  0  0  0  0  0  0
  -21.2670   -6.8400   23.8350 C   0  0  0  0  0  3  0  0  0  0  0  0
  -21.1720   -6.0350   24.9880 C   0  0  0  0  0  3  0  0  0  0  0  0
  -21.5360   -4.6760   24.9310 C   0  0  0  0  0  0  0  0  0  0  0  0
  -21.9990   -4.1210   23.7250 C   0  0  0  0  0  3  0  0  0  0  0  0
  -22.0960   -4.9230   22.5740 C   0  0  0  0  0  0  0  0  0  0  0  0
  -22.5230   -4.3780   21.4100 F   0  0  0  0  0  0  0  0  0  0  0  0
  -21.4380   -3.9000   26.0360 F   0  0  0  0  0  0  0  0  0  0  0  0
  -22.8610  -13.6650   21.2310 C   0  0  0  0  0  0  0  0  0  0  0  0
  -22.1830  -12.9490   22.1220 N   0  0  0  0  0  0  0  0  0  0  0  0
  -22.3940  -14.7020   20.7620 O   0  0  0  0  0  0  0  0  0  0  0  0
  -22.5740  -12.1070   22.5200 H   0  0  0  0  0  0  0  0  0  0  0  0
  -21.2620  -13.2450   22.4090 H   0  0  0  0  0  0  0  0  0  0  0  0
  -25.4520  -15.3460   20.3060 N   0  0  0  0  0  0  0  0  0  0  0  0
  -24.7050  -16.0080   20.4860 H   0  0  0  0  0  0  0  0  0  0  0  0
  -26.3170  -15.7930   20.0210 H   0  0  0  0  0  0  0  0  0  0  0  0
  -30.6270  -22.9960   19.9760 C   0  0  0  0  0  2  0  0  0  0  0  0
  -29.6060  -24.0550   19.8140 N   0  0  0  0  0  4  0  0  0  0  0  0
  -29.2700  -24.3290   20.7260 H   0  0  0  0  0  0  0  0  0  0  0  0
  -28.8270  -23.6710   19.3040 H   0  0  0  0  0  0  0  0  0  0  0  0
  -30.0890  -25.2680   19.1100 C   0  0  0  0  0  2  0  0  0  0  0  0
  -28.9470  -26.2540   18.8210 C   0  0  0  0  0  2  0  0  0  0  0  0
  -28.5190  -26.8450   20.0500 O   0  0  0  0  0  0  0  0  0  0  0  0
  -24.5720  -31.8660   23.1810 C   0  0  0  0  0  0  0  0  0  0  0  0
  -27.3240  -27.5290   20.0420 C   0  0  0  0  0  0  0  0  0  0  0  0
  -23.4070  -30.4760   21.4990 C   0  0  0  0  0  3  0  0  0  0  0  0
  -24.9000  -28.9830   20.0700 C   0  0  0  0  0  0  0  0  0  0  0  0
  -25.9290  -30.8710   21.3430 C   0  0  0  0  0  2  0  0  0  0  0  0
  -26.0410  -29.5130   20.6840 C   0  0  0  0  0  0  0  0  0  0  0  0
  -27.2510  -28.7870   20.6820 C   0  0  0  0  0  3  0  0  0  0  0  0
  -26.1570  -26.9970   19.4480 C   0  0  0  0  0  3  0  0  0  0  0  0
  -24.9500  -27.7190   19.4570 C   0  0  0  0  0  3  0  0  0  0  0  0
  -23.6430  -29.8230   20.1110 C   0  0  0  0  0  2  0  0  0  0  0  0
  -24.6530  -31.0850   22.0660 N   0  0  0  0  0  0  0  0  0  0  0  0
  -23.4810  -32.1150   23.7090 O   0  0  0  0  0  0  0  0  0  0  0  0
  -22.7570  -29.4300   22.4320 C   0  0  0  0  0  0  0  0  0  0  0  0
  -21.4300  -29.2630   22.3080 N   0  0  0  0  0  0  0  0  0  0  0  0
  -23.4410  -28.7740   23.2210 O   0  0  0  0  0  0  0  0  0  0  0  0
  -20.9400  -29.8450   21.6440 H   0  0  0  0  0  0  0  0  0  0  0  0
  -18.0430  -28.1220   22.8280 C   0  0  0  0  0  0  0  0  0  0  0  0
  -20.6100  -28.3100   23.0550 C   0  0  0  0  0  3  0  0  0  0  0  0
  -20.6680  -26.9040   22.4130 C   0  0  0  0  0  2  0  0  0  0  0  0
  -19.5370  -26.6520   21.4110 C   0  0  0  0  0  2  0  0  0  0  0  0
  -18.1730  -26.7990   22.0920 C   0  0  0  0  0  2  0  0  0  0  0  0
  -19.1880  -28.8380   23.2670 C   0  0  0  0  0  0  0  0  0  0  0  0
  -19.0110  -30.0800   23.9150 C   0  0  0  0  0  3  0  0  0  0  0  0
  -17.7220  -30.6030   24.1310 C   0  0  0  0  0  3  0  0  0  0  0  0
  -16.5920  -29.8820   23.7090 C   0  0  0  0  0  3  0  0  0  0  0  0
  -16.7530  -28.6420   23.0640 C   0  0  0  0  0  3  0  0  0  0  0  0
  -25.8430  -32.5000   23.8280 C   0  0  0  0  0  3  0  0  0  0  0  0
  -25.5210  -33.8940   24.1590 N   0  0  0  0  0  0  0  0  0  0  0  0
  -25.8530  -34.9510   23.4040 C   0  0  0  0  0  0  0  0  0  0  0  0
  -26.5360  -34.8540   22.3810 O   0  0  0  0  0  0  0  0  0  0  0  0
  -24.9150  -34.0430   24.9520 H   0  0  0  0  0  0  0  0  0  0  0  0
  -24.1210  -36.7330   23.0240 C   0  0  0  0  0  1  0  0  0  0  0  0
  -25.3480  -36.3340   23.8580 C   0  0  0  0  0  3  0  0  0  0  0  0
  -27.4550  -37.2340   24.7410 C   0  0  0  0  0  1  0  0  0  0  0  0
  -26.3760  -37.3930   23.7710 N   0  0  0  0  0  0  0  0  0  0  0  0
  -25.9590  -38.3110   23.9070 H   0  0  0  0  0  0  0  0  0  0  0  0
  -26.3440  -31.7230   25.1080 C   0  0  1  0  0  0  0  0  0  0  0  0
  -25.2330  -31.4680   26.1530 C   0  0  0  0  0  1  0  0  0  0  0  0
  -26.9450  -30.3540   24.7140 C   0  0  0  0  0  1  0  0  0  0  0  0
  -27.4750  -32.5220   25.7970 C   0  0  0  0  0  1  0  0  0  0  0  0
  1  7  1  0
  1  9  1  0
  2  4  1  0
  3  6  1  0
  3  5  1  0
  5  7  1  0
  6 48  1  0
  6  2  1  0
  7  4  1  0
  8  1  2  0
 10 18  1  0
 11 16  1  0
 12 13  1  0
 12 11  1  0
 14 13  1  0
 14 23  1  0
 14 15  1  0
 16 10  1  0
 16 15  1  0
 17 10  2  0
 18  9  1  0
 18 19  1  0
 20 21  2  0
 21 40  1  0
 22 21  1  0
 22 25  1  0
 23 24  1  0
 23 20  1  0
 24 22  2  0
 25 26  1  0
 26 27  2  0
 28 31  1  0
 28 27  1  0
 29 28  2  0
 30 29  1  0
 30 25  2  0
 31 32  1  0
 32 33  1  0
 33 34  2  0
 35 34  1  0
 35 39  1  0
 36 35  2  0
 37 32  2  0
 37 36  1  0
 38 37  1  0
 40 41  1  0
 41 44  1  0
 41 43  1  0
 42 40  2  0
 45 20  1  0
 45 46  1  0
 47 45  1  0
 49 48  1  0
 49 50  1  0
 51 49  1  0
 52 49  1  0
 53 52  1  0
 53 54  1  0
 55 66  2  0
 56 54  1  0
 56 61  1  0
 57 65  1  0
 57 67  1  0
 58 64  1  0
 58 60  1  0
 59 65  1  0
 60 59  1  0
 61 60  2  0
 62 63  1  0
 62 56  2  0
 63 58  2  0
 64 57  1  0
 65 55  1  0
 67 69  2  0
 68 67  1  0
 70 68  1  0
 71 80  2  0
 71 76  1  0
 72 68  1  0
 72 76  1  0
 73 72  1  0
 74 75  1  0
 74 73  1  0
 75 71  1  0
 76 77  2  0
 77 78  1  0
 79 78  2  0
 80 79  1  0
 81 55  1  0
 81 82  1  0
 81 91  1  0
 82 85  1  0
 83 87  1  0
 83 82  1  0
 84 83  2  0
 87 86  1  0
 89 87  1  0
 89 90  1  0
 89 88  1  0
 91 94  1  1
 91 92  1  0
 93 91  1  0
M  ISO  4  10 100  18 100  53 101  54 101
M  END
>  <TORSDO>  (72) 
F 21

>  <SCORE>  (72) 
-13.333

>  <name>  (72) 
72

>  <ligand_id>  (72) 
72

>  <original_smiles>  (72) 
[H]c1c([H])c([H])c2c(c1[H])C([H])([H])C([H])([H])C([H])([H])C2([H])N([H])C(=O)C1([H])N(C(=O)C([H])(N([H])C(=O)C([H])(N([H])C([H])([H])[H])C([H])([H])[H])C(C([H])([H])[H])(C([H])([H])[H])C([H])([H])[H])C([H])([H])c2c([H])c(OC([H])([H])C([H])([H])[N+]([H])([H])C([H])([H])C3([H])C([H])([H])C([H])([H])N(C(=O)C([H])([H])N([H])C(=O)N4C([H])([H])C([H])([H])C([H])([H])C([H])(n5nc(-c6c([H])c([H])c(Oc7c([H])c([H])c(F)c([H])c7F)c([H])c6[H])c(C(=O)N([H])[H])c5N([H])[H])C4([H])[H])C([H])([H])C3([H])[H])c([H])c([H])c2C1([H])[H]

>  <smiles>  (72) 
[H]c1c([H])c([H])c2c(c1[H])C([H])([H])C([H])([H])C([H])([H])C2([H])N([H])C(=O)C1([H])N(C(=O)C([H])(N([H])C(=O)C([H])(N([H])C([H])([H])[H])C([H])([H])[H])C(C([H])([H])[H])(C([H])([H])[H])C([H])([H])[H])C([H])([H])c2c([H])c(OC([H])([H])C([H])([H])[N+]([H])([H])C([H])([H])C3([H])C([H])([H])C([H])([H])N(C(=O)C([H])([H])N([H])C(=O)N4C([H])([H])C([H])([H])C([H])([H])C([H])(n5nc(-c6c([H])c([H])c(Oc7c([H])c([H])c(F)c([H])c7F)c([H])c6[H])c(C(=O)N([H])[H])c5N([H])[H])C4([H])[H])C([H])([H])C3([H])[H])c([H])c([H])c2C1([H])[H]

$$$$
73:0:0
     RDKit          3D

105112  0  0  1  0  0  0  0  0999 V2000
  -27.6450  -20.6640   18.4620 C   0  0  0  0  0  2  0  0  0  0  0  0
  -25.5160  -19.9440   19.8380 C   0  0  0  0  0  1  0  0  0  0  0  0
  -26.7740  -20.8370   19.7450 C   0  0  0  0  0  3  0  0  0  0  0  0
  -26.4420  -22.3190   20.0370 C   0  0  0  0  0  2  0  0  0  0  0  0
  -27.4640  -23.2960   19.4530 C   0  0  0  0  0  0  0  0  0  0  0  0
  -28.5770  -23.5230   20.1650 N   0  0  0  0  0  0  0  0  0  0  0  0
  -27.2610  -23.8090   18.3510 O   0  0  0  0  0  0  0  0  0  0  0  0
  -28.6710  -23.0870   21.0730 H   0  0  0  0  0  0  0  0  0  0  0  0
  -29.6790  -24.3570   19.7200 C   0  0  0  0  0  2  0  0  0  0  0  0
  -30.9920  -23.5630   19.5990 C   0  0  0  0  0  2  0  0  0  0  0  0
  -32.1080  -24.0090   20.5780 C   0  0  0  0  0  2  0  0  0  0  0  0
  -32.8920  -25.2420   20.0690 C   0  0  0  0  0  2  0  0  0  0  0  0
  -32.4650  -26.4850   20.6290 O   0  0  0  0  0  0  0  0  0  0  0  0
  -26.7130  -29.5320   23.4330 C   0  0  0  0  0  0  0  0  0  0  0  0
  -31.2020  -26.9690   20.3520 C   0  0  0  0  0  0  0  0  0  0  0  0
  -26.4350  -28.6550   21.1390 C   0  0  0  0  0  3  0  0  0  0  0  0
  -28.5880  -27.9970   19.9250 C   0  0  0  0  0  0  0  0  0  0  0  0
  -28.7220  -29.4300   21.9660 C   0  0  0  0  0  2  0  0  0  0  0  0
  -29.3390  -28.4130   21.0330 C   0  0  0  0  0  0  0  0  0  0  0  0
  -30.6310  -27.8900   21.2560 C   0  0  0  0  0  3  0  0  0  0  0  0
  -30.4590  -26.6150   19.2030 C   0  0  0  0  0  3  0  0  0  0  0  0
  -29.1460  -27.0940   19.0050 C   0  0  0  0  0  3  0  0  0  0  0  0
  -27.1900  -28.5700   19.7850 C   0  0  0  0  0  2  0  0  0  0  0  0
  -27.2870  -29.1970   22.2450 N   0  0  0  0  0  0  0  0  0  0  0  0
  -25.4910  -29.4240   23.6100 O   0  0  0  0  0  0  0  0  0  0  0  0
  -25.8280  -27.2690   21.4570 C   0  0  0  0  0  0  0  0  0  0  0  0
  -24.8130  -26.8740   20.6750 N   0  0  0  0  0  0  0  0  0  0  0  0
  -26.2840  -26.5690   22.3640 O   0  0  0  0  0  0  0  0  0  0  0  0
  -24.5000  -27.4940   19.9400 H   0  0  0  0  0  0  0  0  0  0  0  0
  -22.1350  -24.9160   19.2500 C   0  0  0  0  0  0  0  0  0  0  0  0
  -24.1160  -25.5930   20.7700 C   0  0  0  0  0  3  0  0  0  0  0  0
  -24.9200  -24.4840   20.0530 C   0  0  0  0  0  2  0  0  0  0  0  0
  -24.4920  -24.2600   18.6010 C   0  0  0  0  0  2  0  0  0  0  0  0
  -23.0020  -23.9160   18.5090 C   0  0  0  0  0  2  0  0  0  0  0  0
  -22.6600  -25.7110   20.3010 C   0  0  0  0  0  0  0  0  0  0  0  0
  -21.8210  -26.6530   20.9310 C   0  0  0  0  0  3  0  0  0  0  0  0
  -20.4760  -26.7940   20.5420 C   0  0  0  0  0  3  0  0  0  0  0  0
  -19.9570  -25.9930   19.5120 C   0  0  0  0  0  3  0  0  0  0  0  0
  -20.7870  -25.0630   18.8640 C   0  0  0  0  0  3  0  0  0  0  0  0
  -27.5630  -30.0820   24.6210 C   0  0  0  0  0  3  0  0  0  0  0  0
  -26.9020  -31.2970   25.1130 N   0  0  0  0  0  0  0  0  0  0  0  0
  -27.2580  -32.5450   24.7830 C   0  0  0  0  0  0  0  0  0  0  0  0
  -28.2430  -32.7970   24.0820 O   0  0  0  0  0  0  0  0  0  0  0  0
  -26.0550  -31.1590   25.6450 H   0  0  0  0  0  0  0  0  0  0  0  0
  -25.4590  -34.2000   24.1900 C   0  0  0  0  0  1  0  0  0  0  0  0
  -26.3860  -33.6990   25.3100 C   0  0  0  0  0  3  0  0  0  0  0  0
  -27.8840  -34.4980   27.0820 C   0  0  0  0  0  1  0  0  0  0  0  0
  -27.1710  -34.8300   25.8500 N   0  0  0  0  0  0  0  0  0  0  0  0
  -26.5760  -35.6330   26.0360 H   0  0  0  0  0  0  0  0  0  0  0  0
  -27.7320  -29.0350   25.7870 C   0  0  1  0  0  0  0  0  0  0  0  0
  -26.4190  -28.3250   26.1910 C   0  0  0  0  0  1  0  0  0  0  0  0
  -28.7520  -27.9480   25.3880 C   0  0  0  0  0  1  0  0  0  0  0  0
  -28.3030  -29.7380   27.0400 C   0  0  0  0  0  1  0  0  0  0  0  0
  -27.4810  -19.3920   17.5970 C   0  0  0  0  0  3  0  0  0  0  0  0
  -26.8440  -19.7220   16.2360 C   0  0  0  0  0  0  0  0  0  0  0  0
  -25.7450  -19.0550   15.9040 N   0  0  0  0  0  0  0  0  0  0  0  0
  -27.3350  -20.5550   15.4750 O   0  0  0  0  0  0  0  0  0  0  0  0
  -25.3740  -18.3480   16.5250 H   0  0  0  0  0  0  0  0  0  0  0  0
  -25.2920  -19.2280   15.0210 H   0  0  0  0  0  0  0  0  0  0  0  0
  -29.4750  -17.9830   18.0830 C   0  0  0  0  0  3  0  0  0  0  0  0
  -28.8300  -18.8950   17.3550 N   0  0  0  0  0  0  0  0  0  0  0  0
  -28.9510  -17.3790   19.0220 O   0  0  0  0  0  0  0  0  0  0  0  0
  -29.3150  -19.3160   16.5770 H   0  0  0  0  0  0  0  0  0  0  0  0
  -30.9550  -17.7490   17.7330 C   0  0  0  0  0  3  0  0  0  0  0  0
  -32.3870  -16.0170   18.8660 C   0  0  0  0  0  0  0  0  0  0  0  0
  -32.5070  -13.6280   19.4950 C   0  0  0  0  0  2  0  0  0  0  0  0
  -31.7510  -12.8200   18.4160 C   0  0  0  0  0  2  0  0  0  0  0  0
  -30.2440  -12.7520   18.7360 C   0  0  0  0  0  2  0  0  0  0  0  0
  -29.6400  -14.1450   19.0720 C   0  0  0  0  0  3  0  0  0  0  0  0
  -30.5200  -14.8790   20.1060 C   0  0  0  0  0  2  0  0  0  0  0  0
  -31.8940  -14.9620   19.5680 N   0  0  0  0  0  0  0  0  0  0  0  0
  -33.4580  -15.9820   18.2570 O   0  0  0  0  0  0  0  0  0  0  0  0
  -31.5880  -17.0900   18.8740 N   0  0  0  0  0  0  0  0  0  0  0  0
  -30.9490  -17.1020   19.6540 H   0  0  0  0  0  0  0  0  0  0  0  0
  -27.2850  -15.0140   19.6530 C   0  0  0  0  0  0  0  0  0  0  0  0
  -26.1480  -14.3700   20.0730 C   0  0  0  0  0  0  0  0  0  0  0  0
  -26.4950  -12.9880   20.1610 C   0  0  0  0  0  0  0  0  0  0  0  0
  -28.2550  -14.0320   19.5270 N   0  0  0  0  0  0  0  0  0  0  0  0
  -27.7800  -12.8130   19.8820 N   0  0  0  0  0  0  0  0  0  0  0  0
  -25.6580  -11.8140   20.4390 C   0  0  0  0  0  0  0  0  0  0  0  0
  -25.8600  -11.0270   21.5920 C   0  0  0  0  0  3  0  0  0  0  0  0
  -25.0360   -9.9120   21.8520 C   0  0  0  0  0  3  0  0  0  0  0  0
  -23.9960   -9.5740   20.9570 C   0  0  0  0  0  0  0  0  0  0  0  0
  -23.8130  -10.3480   19.7950 C   0  0  0  0  0  3  0  0  0  0  0  0
  -24.6360  -11.4560   19.5370 C   0  0  0  0  0  3  0  0  0  0  0  0
  -23.1630   -8.4950   21.1170 O   0  0  0  0  0  0  0  0  0  0  0  0
  -22.7340   -8.0900   22.3560 C   0  0  0  0  0  0  0  0  0  0  0  0
  -21.9720   -8.9330   23.1900 C   0  0  0  0  0  3  0  0  0  0  0  0
  -21.4860   -8.4520   24.4230 C   0  0  0  0  0  3  0  0  0  0  0  0
  -21.7640   -7.1310   24.8220 C   0  0  0  0  0  0  0  0  0  0  0  0
  -22.5210   -6.2870   23.9900 C   0  0  0  0  0  3  0  0  0  0  0  0
  -23.0020   -6.7670   22.7580 C   0  0  0  0  0  0  0  0  0  0  0  0
  -23.7120   -5.9440   21.9510 F   0  0  0  0  0  0  0  0  0  0  0  0
  -21.2940   -6.6660   26.0050 F   0  0  0  0  0  0  0  0  0  0  0  0
  -24.7960  -14.9840   20.2820 C   0  0  0  0  0  0  0  0  0  0  0  0
  -24.0310  -14.4580   21.2320 N   0  0  0  0  0  0  0  0  0  0  0  0
  -24.4220  -15.9630   19.6380 O   0  0  0  0  0  0  0  0  0  0  0  0
  -24.3580  -13.6780   21.7860 H   0  0  0  0  0  0  0  0  0  0  0  0
  -23.1190  -14.8460   21.4210 H   0  0  0  0  0  0  0  0  0  0  0  0
  -27.5610  -16.3380   19.3480 N   0  0  0  0  0  2  0  0  0  0  0  0
  -26.8970  -17.0870   19.5470 H   0  0  0  0  0  0  0  0  0  0  0  0
  -28.4520  -16.6860   19.0280 H   0  0  0  0  0  0  0  0  0  0  0  0
  -32.1650  -19.9700   18.3180 C   0  0  0  0  0  1  0  0  0  0  0  0
  -32.7300  -18.7620   16.1450 C   0  0  0  0  0  1  0  0  0  0  0  0
  -31.6560  -19.0340   17.2100 C   0  0  0  0  0  3  0  0  0  0  0  0
  1  3  1  0
  3  2  1  0
  3  4  1  0
  5  4  1  0
  5  6  1  0
  6  8  1  0
  7  5  2  0
  9  6  1  0
 10  9  1  0
 10 11  1  0
 12 11  1  0
 12 13  1  0
 14 25  2  0
 15 13  1  0
 15 20  1  0
 16 26  1  0
 16 24  1  0
 17 19  1  0
 18 24  1  0
 19 20  2  0
 19 18  1  0
 21 15  2  0
 22 21  1  0
 22 17  2  0
 23 17  1  0
 23 16  1  0
 24 14  1  0
 26 28  2  0
 27 26  1  0
 29 27  1  0
 30 35  1  0
 31 27  1  0
 32 31  1  0
 33 32  1  0
 34 33  1  0
 34 30  1  0
 35 31  1  0
 35 36  2  0
 37 36  1  0
 38 37  2  0
 39 30  2  0
 39 38  1  0
 40 14  1  0
 40 41  1  0
 40 50  1  0
 41 44  1  0
 42 41  1  0
 42 46  1  0
 43 42  2  0
 46 45  1  0
 46 48  1  0
 48 49  1  0
 48 47  1  0
 50 51  1  1
 50 53  1  0
 52 50  1  0
 54  1  1  0
 55 54  1  0
 56 55  1  0
 56 58  1  0
 57 55  2  0
 59 56  1  0
 60 62  1  0
 61 54  1  0
 61 60  1  0
 62102  1  0
 63 61  1  0
 64105  1  0
 64 60  1  0
 64 73  1  0
 65 73  1  0
 65 71  1  0
 66 71  1  0
 67 68  1  0
 67 66  1  0
 69 68  1  0
 69 78  1  0
 69 70  1  0
 71 70  1  0
 72 65  2  0
 73 74  1  0
 75 76  2  0
 76 77  1  0
 76 95  1  0
 77 80  1  0
 78 75  1  0
 78 79  1  0
 79 77  2  0
 80 81  1  0
 81 82  2  0
 83 86  1  0
 83 82  1  0
 84 83  2  0
 85 84  1  0
 85 80  2  0
 86 87  1  0
 87 92  2  0
 87 88  1  0
 88 89  2  0
 89 90  1  0
 90 94  1  0
 91 90  2  0
 92 91  1  0
 93 92  1  0
 95 96  1  0
 96 99  1  0
 96 98  1  0
 97 95  2  0
100101  1  0
100 75  1  0
104105  1  0
105103  1  0
M  ISO  4  12 101  13 101  65 100  73 100
M  END
>  <TORSDO>  (73) 
F 28

>  <SCORE>  (73) 
0.620

>  <name>  (73) 
73

>  <ligand_id>  (73) 
73

>  <original_smiles>  (73) 
[H]c1c([H])c([H])c2c(c1[H])C([H])([H])C([H])([H])C([H])([H])C2([H])N([H])C(=O)C1([H])N(C(=O)C([H])(N([H])C(=O)C([H])(N([H])C([H])([H])[H])C([H])([H])[H])C(C([H])([H])[H])(C([H])([H])[H])C([H])([H])[H])C([H])([H])c2c([H])c(OC([H])([H])C([H])([H])C([H])([H])C([H])([H])N([H])C(=O)C([H])([H])C([H])(C([H])([H])[H])C([H])([H])C([H])(C(=O)N([H])[H])N([H])C(=O)C([H])(N([H])C(=O)N3C([H])([H])C([H])([H])C([H])([H])C([H])(n4nc(-c5c([H])c([H])c(Oc6c([H])c([H])c(F)c([H])c6F)c([H])c5[H])c(C(=O)N([H])[H])c4N([H])[H])C3([H])[H])C([H])(C([H])([H])[H])C([H])([H])[H])c([H])c([H])c2C1([H])[H]

>  <smiles>  (73) 
[H]c1c([H])c([H])c2c(c1[H])C([H])([H])C([H])([H])C([H])([H])C2([H])N([H])C(=O)C1([H])N(C(=O)C([H])(N([H])C(=O)C([H])(N([H])C([H])([H])[H])C([H])([H])[H])C(C([H])([H])[H])(C([H])([H])[H])C([H])([H])[H])C([H])([H])c2c([H])c(OC([H])([H])C([H])([H])C([H])([H])C([H])([H])N([H])C(=O)C([H])([H])C([H])(C([H])([H])[H])C([H])([H])C([H])(C(=O)N([H])[H])N([H])C(=O)C([H])(N([H])C(=O)N3C([H])([H])C([H])([H])C([H])([H])C([H])(n4nc(-c5c([H])c([H])c(Oc6c([H])c([H])c(F)c([H])c6F)c([H])c5[H])c(C(=O)N([H])[H])c4N([H])[H])C3([H])[H])C([H])(C([H])([H])[H])C([H])([H])[H])c([H])c([H])c2C1([H])[H]

$$$$
74:0:0
     RDKit          3D

101109  0  0  1  0  0  0  0  0999 V2000
  -30.1140  -19.1110   20.2330 C   0  0  0  0  0  3  0  0  0  0  0  0
  -31.5680  -15.4760   20.0890 C   0  0  0  0  0  0  0  0  0  0  0  0
  -31.1320  -13.3350   18.8720 C   0  0  0  0  0  2  0  0  0  0  0  0
  -30.2320  -13.4830   17.6230 C   0  0  0  0  0  2  0  0  0  0  0  0
  -28.7730  -13.8590   17.9710 C   0  0  0  0  0  2  0  0  0  0  0  0
  -28.4640  -13.6620   19.4560 C   0  0  0  0  0  3  0  0  0  0  0  0
  -29.4760  -14.1090   20.5030 C   0  0  0  0  0  2  0  0  0  0  0  0
  -30.7690  -14.3790   19.8710 N   0  0  0  0  0  0  0  0  0  0  0  0
  -32.7350  -15.4360   19.6960 O   0  0  0  0  0  0  0  0  0  0  0  0
  -30.9590  -17.4660   23.0170 C   0  0  0  0  0  2  0  0  0  0  0  0
  -29.6160  -17.4110   22.2940 C   0  0  0  0  0  2  0  0  0  0  0  0
  -31.9590  -16.9970   21.9600 C   0  0  0  0  0  2  0  0  0  0  0  0
  -29.9540  -17.5420   20.7900 C   0  0  0  0  0  3  0  0  0  0  0  0
  -31.1540  -16.6030   20.8010 N   0  0  0  0  0  0  0  0  0  0  0  0
  -26.0850  -14.6940   20.0340 C   0  0  0  0  0  0  0  0  0  0  0  0
  -24.9600  -14.0060   20.4160 C   0  0  0  0  0  0  0  0  0  0  0  0
  -25.3340  -12.6320   20.4250 C   0  0  0  0  0  0  0  0  0  0  0  0
  -27.0660  -13.7140   19.8500 N   0  0  0  0  0  0  0  0  0  0  0  0
  -26.5890  -12.4900   20.1070 N   0  0  0  0  0  0  0  0  0  0  0  0
  -24.5980  -11.4010   20.6520 C   0  0  0  0  0  0  0  0  0  0  0  0
  -24.9800  -10.5030   21.6740 C   0  0  0  0  0  3  0  0  0  0  0  0
  -24.2580   -9.3100   21.8710 C   0  0  0  0  0  3  0  0  0  0  0  0
  -23.1520   -9.0170   21.0410 C   0  0  0  0  0  0  0  0  0  0  0  0
  -22.8020   -9.8980   20.0020 C   0  0  0  0  0  3  0  0  0  0  0  0
  -23.5240  -11.0830   19.8040 C   0  0  0  0  0  3  0  0  0  0  0  0
  -22.4000   -7.8750   21.1460 O   0  0  0  0  0  0  0  0  0  0  0  0
  -22.1610   -7.2890   22.3620 C   0  0  0  0  0  0  0  0  0  0  0  0
  -21.5520   -7.9910   23.4250 C   0  0  0  0  0  3  0  0  0  0  0  0
  -21.2620   -7.3240   24.6330 C   0  0  0  0  0  3  0  0  0  0  0  0
  -21.5660   -5.9580   24.7730 C   0  0  0  0  0  0  0  0  0  0  0  0
  -22.1690   -5.2580   23.7120 C   0  0  0  0  0  3  0  0  0  0  0  0
  -22.4630   -5.9230   22.5110 C   0  0  0  0  0  0  0  0  0  0  0  0
  -23.0280   -5.2410   21.4840 F   0  0  0  0  0  0  0  0  0  0  0  0
  -21.2790   -5.3110   25.9280 F   0  0  0  0  0  0  0  0  0  0  0  0
  -23.5880  -14.5450   20.7020 C   0  0  0  0  0  0  0  0  0  0  0  0
  -22.8540  -13.8980   21.6020 N   0  0  0  0  0  0  0  0  0  0  0  0
  -23.1680  -15.5660   20.1550 O   0  0  0  0  0  0  0  0  0  0  0  0
  -23.1830  -13.0500   22.0400 H   0  0  0  0  0  0  0  0  0  0  0  0
  -21.9450  -14.2540   21.8550 H   0  0  0  0  0  0  0  0  0  0  0  0
  -26.3540  -16.0440   19.8400 N   0  0  0  0  0  0  0  0  0  0  0  0
  -25.6520  -16.7720   19.9200 H   0  0  0  0  0  0  0  0  0  0  0  0
  -27.2800  -16.3760   19.6300 H   0  0  0  0  0  0  0  0  0  0  0  0
  -29.1400  -19.5940   19.1840 N   0  0  0  0  0  4  0  0  0  0  0  0
  -29.6540  -20.2300   18.5940 H   0  0  0  0  0  0  0  0  0  0  0  0
  -28.4800  -20.1650   19.6860 H   0  0  0  0  0  0  0  0  0  0  0  0
  -28.2760  -18.7750   18.2780 C   0  0  0  0  0  3  0  0  0  0  0  0
  -26.3260  -18.1190   19.8360 C   0  0  0  0  0  1  0  0  0  0  0  0
  -26.4630  -20.4870   19.1130 C   0  0  0  0  0  1  0  0  0  0  0  0
  -25.7420  -18.6670   17.5490 C   0  0  0  0  0  1  0  0  0  0  0  0
  -26.7470  -19.0320   18.6620 C   0  0  1  0  0  0  0  0  0  0  0  0
  -28.3370  -17.7370   15.8890 C   0  0  0  0  0  1  0  0  0  0  0  0
  -30.2730  -19.0690   16.6660 C   0  0  0  0  0  1  0  0  0  0  0  0
  -28.1420  -20.2150   16.0860 C   0  0  0  0  0  1  0  0  0  0  0  0
  -28.7290  -18.9570   16.7650 C   0  0  2  0  0  0  0  0  0  0  0  0
  -28.9810  -20.7370   22.0410 C   0  0  0  0  0  1  0  0  0  0  0  0
  -30.2560  -20.4140   21.2220 C   0  0  0  0  0  3  0  0  0  0  0  0
  -30.7090  -21.8350   20.5780 C   0  0  0  0  0  2  0  0  0  0  0  0
  -30.4430  -23.2060   21.3800 C   0  0  0  0  0  2  0  0  0  0  0  0
  -30.4140  -24.6170   20.6240 C   0  0  0  0  0  3  0  0  0  0  0  0
  -29.6520  -25.8060   21.3680 C   0  0  0  0  0  3  0  0  0  0  0  0
  -29.6270  -27.1590   20.7790 O   0  0  0  0  0  0  0  0  0  0  0  0
  -24.8890  -31.9770   23.3240 C   0  0  0  0  0  0  0  0  0  0  0  0
  -28.3940  -27.8090   20.6600 C   0  0  0  0  0  0  0  0  0  0  0  0
  -24.0540  -30.4130   21.5990 C   0  0  0  0  0  3  0  0  0  0  0  0
  -25.8400  -29.0560   20.3690 C   0  0  0  0  0  0  0  0  0  0  0  0
  -26.5290  -31.0790   21.6610 C   0  0  0  0  0  2  0  0  0  0  0  0
  -26.8630  -29.7190   21.0610 C   0  0  0  0  0  0  0  0  0  0  0  0
  -28.1440  -29.1080   21.1940 C   0  0  0  0  0  3  0  0  0  0  0  0
  -27.3450  -27.1810   19.9540 C   0  0  0  0  0  3  0  0  0  0  0  0
  -26.0810  -27.7890   19.8080 C   0  0  0  0  0  3  0  0  0  0  0  0
  -24.4970  -29.7550   20.2670 C   0  0  0  0  0  2  0  0  0  0  0  0
  -25.1670  -31.1770   22.2540 N   0  0  0  0  0  0  0  0  0  0  0  0
  -23.7310  -32.1180   23.7400 O   0  0  0  0  0  0  0  0  0  0  0  0
  -23.4330  -29.3310   22.5130 C   0  0  0  0  0  0  0  0  0  0  0  0
  -22.1450  -29.0190   22.2930 N   0  0  0  0  0  0  0  0  0  0  0  0
  -24.1140  -28.7700   23.3760 O   0  0  0  0  0  0  0  0  0  0  0  0
  -21.6490  -29.5290   21.5760 H   0  0  0  0  0  0  0  0  0  0  0  0
  -18.8590  -27.5440   22.6200 C   0  0  0  0  0  0  0  0  0  0  0  0
  -21.3750  -27.9980   23.0040 C   0  0  0  0  0  3  0  0  0  0  0  0
  -21.6150  -26.5960   22.3980 C   0  0  0  0  0  2  0  0  0  0  0  0
  -20.5860  -26.2170   21.3290 C   0  0  0  0  0  2  0  0  0  0  0  0
  -19.1710  -26.2340   21.9170 C   0  0  0  0  0  2  0  0  0  0  0  0
  -19.8960  -28.3800   23.1160 C   0  0  0  0  0  0  0  0  0  0  0  0
  -19.5530  -29.6040   23.7300 C   0  0  0  0  0  3  0  0  0  0  0  0
  -18.2060  -29.9960   23.8530 C   0  0  0  0  0  3  0  0  0  0  0  0
  -17.1850  -29.1580   23.3730 C   0  0  0  0  0  3  0  0  0  0  0  0
  -17.5110  -27.9350   22.7610 C   0  0  0  0  0  3  0  0  0  0  0  0
  -26.0110  -32.7770   24.0580 C   0  0  0  0  0  3  0  0  0  0  0  0
  -26.4950  -32.0880   25.3940 C   0  0  1  0  0  0  0  0  0  0  0  0
  -25.3370  -31.6620   26.3270 C   0  0  0  0  0  1  0  0  0  0  0  0
  -27.3430  -30.8300   25.0900 C   0  0  0  0  0  1  0  0  0  0  0  0
  -27.4070  -33.0570   26.1830 C   0  0  0  0  0  1  0  0  0  0  0  0
  -25.4910  -34.1250   24.3300 N   0  0  0  0  0  0  0  0  0  0  0  0
  -25.7490  -35.2060   23.5800 C   0  0  0  0  0  0  0  0  0  0  0  0
  -26.5200  -35.1830   22.6160 O   0  0  0  0  0  0  0  0  0  0  0  0
  -24.8100  -34.2090   25.0710 H   0  0  0  0  0  0  0  0  0  0  0  0
  -23.8410  -36.7480   23.0320 C   0  0  0  0  0  1  0  0  0  0  0  0
  -25.0440  -36.5200   23.9610 C   0  0  0  0  0  3  0  0  0  0  0  0
  -26.9730  -37.6780   24.9440 C   0  0  0  0  0  1  0  0  0  0  0  0
  -25.9340  -37.7000   23.9180 N   0  0  0  0  0  0  0  0  0  0  0  0
  -25.3990  -38.5570   24.0280 H   0  0  0  0  0  0  0  0  0  0  0  0
  1 43  1  0
  1 56  1  0
  2 14  1  0
  3  8  1  0
  4  5  1  0
  4  3  1  0
  6  5  1  0
  6 18  1  0
  6  7  1  0
  8  2  1  0
  8  7  1  0
  9  2  2  0
 11 10  1  0
 12 10  1  0
 13  1  1  0
 13 14  1  0
 13 11  1  0
 14 12  1  0
 15 16  2  0
 16 17  1  0
 16 35  1  0
 17 20  1  0
 18 15  1  0
 18 19  1  0
 19 17  2  0
 20 21  1  0
 21 22  2  0
 23 26  1  0
 23 22  1  0
 24 23  2  0
 25 24  1  0
 25 20  2  0
 26 27  1  0
 27 32  2  0
 27 28  1  0
 28 29  2  0
 29 30  1  0
 30 34  1  0
 31 30  2  0
 32 31  1  0
 33 32  1  0
 35 36  1  0
 36 39  1  0
 36 38  1  0
 37 35  2  0
 40 41  1  0
 40 15  1  0
 42 40  1  0
 43 45  1  0
 44 43  1  0
 46 50  1  0
 46 43  1  0
 50 49  1  6
 50 48  1  0
 50 47  1  0
 54 51  1  6
 52 54  1  0
 53 54  1  0
 54 46  1  0
 56 55  1  0
 57 56  1  0
 57 58  1  0
 59 60  2  0
 59 58  1  0
 61 60  1  0
 62 73  2  0
 63 61  1  0
 63 68  1  0
 64 72  1  0
 64 74  1  0
 65 67  1  0
 66 72  1  0
 67 68  2  0
 67 66  1  0
 69 63  2  0
 70 69  1  0
 70 65  2  0
 71 65  1  0
 71 64  1  0
 72 62  1  0
 74 76  2  0
 75 74  1  0
 77 75  1  0
 78 87  2  0
 78 83  1  0
 79 75  1  0
 79 83  1  0
 80 79  1  0
 81 82  1  0
 81 80  1  0
 82 78  1  0
 83 84  2  0
 84 85  1  0
 86 85  2  0
 87 86  1  0
 88 62  1  0
 88 93  1  0
 88 89  1  0
 89 92  1  1
 89 90  1  0
 91 89  1  0
 93 96  1  0
 94 98  1  0
 94 93  1  0
 95 94  2  0
 98 97  1  0
100 98  1  0
100101  1  0
100 99  1  0
M  ISO  4   2 100  14 100  60 101  61 101
M  END
>  <TORSDO>  (74) 
F 25

>  <SCORE>  (74) 
-2.989

>  <name>  (74) 
74

>  <ligand_id>  (74) 
74

>  <original_smiles>  (74) 
[H]c1c([H])c([H])c2c(c1[H])C([H])([H])C([H])([H])C([H])([H])C2([H])N([H])C(=O)C1([H])N(C(=O)C([H])(N([H])C(=O)C([H])(N([H])C([H])([H])[H])C([H])([H])[H])C(C([H])([H])[H])(C([H])([H])[H])C([H])([H])[H])C([H])([H])c2c([H])c(OC([H])([H])C([H])([H])C([H])([H])C([H])([H])C([H])(C([H])([H])[H])C([H])(C3([H])N(C(=O)N4C([H])([H])C([H])([H])C([H])([H])C([H])(n5nc(-c6c([H])c([H])c(Oc7c([H])c([H])c(F)c([H])c7F)c([H])c6[H])c(C(=O)N([H])[H])c5N([H])[H])C4([H])[H])C([H])([H])C([H])([H])C3([H])[H])[N+]([H])([H])C([H])(C(C([H])([H])[H])(C([H])([H])[H])C([H])([H])[H])C(C([H])([H])[H])(C([H])([H])[H])C([H])([H])[H])c([H])c([H])c2C1([H])[H]

>  <smiles>  (74) 
[H]c1c([H])c([H])c2c(c1[H])C([H])([H])C([H])([H])C([H])([H])C2([H])N([H])C(=O)C1([H])N(C(=O)C([H])(N([H])C(=O)C([H])(N([H])C([H])([H])[H])C([H])([H])[H])C(C([H])([H])[H])(C([H])([H])[H])C([H])([H])[H])C([H])([H])c2c([H])c(OC([H])([H])C([H])([H])C([H])([H])C([H])([H])C([H])(C([H])([H])[H])C([H])(C3([H])N(C(=O)N4C([H])([H])C([H])([H])C([H])([H])C([H])(n5nc(-c6c([H])c([H])c(Oc7c([H])c([H])c(F)c([H])c7F)c([H])c6[H])c(C(=O)N([H])[H])c5N([H])[H])C4([H])[H])C([H])([H])C([H])([H])C3([H])[H])[N+]([H])([H])C([H])(C(C([H])([H])[H])(C([H])([H])[H])C([H])([H])[H])C(C([H])([H])[H])(C([H])([H])[H])C([H])([H])[H])c([H])c([H])c2C1([H])[H]

$$$$
75:0:0
     RDKit          3D

104112  0  0  1  0  0  0  0  0999 V2000
  -28.4430  -19.6740   20.1750 C   0  0  0  0  0  0  0  0  0  0  0  0
  -27.2770  -22.4250   18.0230 C   0  0  0  0  0  2  0  0  0  0  0  0
  -27.1040  -21.0450   18.6470 C   0  0  0  0  0  2  0  0  0  0  0  0
  -29.2710  -21.8740   19.3190 C   0  0  0  0  0  2  0  0  0  0  0  0
  -28.7550  -22.8330   18.2330 C   0  0  0  0  0  3  0  0  0  0  0  0
  -28.3050  -20.7880   19.4330 N   0  0  0  0  0  0  0  0  0  0  0  0
  -27.4480  -19.0220   20.5130 O   0  0  0  0  0  0  0  0  0  0  0  0
  -29.7140  -24.8850   17.0680 C   0  0  0  0  0  1  0  0  0  0  0  0
  -30.1150  -24.6420   19.5300 C   0  0  0  0  0  1  0  0  0  0  0  0
  -29.0990  -24.3700   18.3850 C   0  0  2  0  0  0  0  0  0  0  0  0
  -27.8340  -25.2050   18.6620 C   0  0  0  0  0  2  0  0  0  0  0  0
  -28.0890  -26.5850   18.8950 O   0  0  0  0  0  0  0  0  0  0  0  0
  -25.1040  -31.2890   23.2340 C   0  0  0  0  0  0  0  0  0  0  0  0
  -26.9760  -27.3620   19.1120 C   0  0  0  0  0  0  0  0  0  0  0  0
  -23.6070  -30.3470   21.5060 C   0  0  0  0  0  3  0  0  0  0  0  0
  -24.7510  -29.0220   19.6550 C   0  0  0  0  0  0  0  0  0  0  0  0
  -26.1210  -30.5450   21.0840 C   0  0  0  0  0  2  0  0  0  0  0  0
  -26.0080  -29.3300   20.1890 C   0  0  0  0  0  0  0  0  0  0  0  0
  -27.1220  -28.5110   19.9100 C   0  0  0  0  0  3  0  0  0  0  0  0
  -25.6910  -27.0520   18.5960 C   0  0  0  0  0  3  0  0  0  0  0  0
  -24.5830  -27.8740   18.8620 C   0  0  0  0  0  3  0  0  0  0  0  0
  -23.6140  -29.9590   20.0040 C   0  0  0  0  0  2  0  0  0  0  0  0
  -24.9700  -30.7180   22.0030 N   0  0  0  0  0  0  0  0  0  0  0  0
  -24.1130  -31.5360   23.9360 O   0  0  0  0  0  0  0  0  0  0  0  0
  -22.9530  -29.2040   22.3140 C   0  0  0  0  0  0  0  0  0  0  0  0
  -21.6190  -29.0800   22.2130 N   0  0  0  0  0  0  0  0  0  0  0  0
  -23.6390  -28.4360   22.9940 O   0  0  0  0  0  0  0  0  0  0  0  0
  -21.1200  -29.7570   21.6550 H   0  0  0  0  0  0  0  0  0  0  0  0
  -18.2440  -27.8400   22.5400 C   0  0  0  0  0  0  0  0  0  0  0  0
  -20.8000  -28.0610   22.8670 C   0  0  0  0  0  3  0  0  0  0  0  0
  -20.9070  -26.7030   22.1340 C   0  0  0  0  0  2  0  0  0  0  0  0
  -19.8170  -26.4970   21.0780 C   0  0  0  0  0  2  0  0  0  0  0  0
  -18.4270  -26.5750   21.7180 C   0  0  0  0  0  2  0  0  0  0  0  0
  -19.3580  -28.5460   23.0640 C   0  0  0  0  0  0  0  0  0  0  0  0
  -19.1360  -29.7390   23.7850 C   0  0  0  0  0  3  0  0  0  0  0  0
  -17.8290  -30.2210   23.9940 C   0  0  0  0  0  3  0  0  0  0  0  0
  -16.7280  -29.5080   23.4870 C   0  0  0  0  0  3  0  0  0  0  0  0
  -16.9370  -28.3210   22.7620 C   0  0  0  0  0  3  0  0  0  0  0  0
  -26.5030  -31.6820   23.8020 C   0  0  0  0  0  3  0  0  0  0  0  0
  -27.0330  -30.6830   24.9010 C   0  0  1  0  0  0  0  0  0  0  0  0
  -26.0210  -30.4070   26.0350 C   0  0  0  0  0  1  0  0  0  0  0  0
  -27.4180  -29.3260   24.2630 C   0  0  0  0  0  1  0  0  0  0  0  0
  -28.3220  -31.2440   25.5480 C   0  0  0  0  0  1  0  0  0  0  0  0
  -26.3960  -33.0420   24.3460 N   0  0  0  0  0  0  0  0  0  0  0  0
  -26.8250  -34.1480   23.7230 C   0  0  0  0  0  0  0  0  0  0  0  0
  -27.4330  -34.1190   22.6470 O   0  0  0  0  0  0  0  0  0  0  0  0
  -25.8840  -33.1450   25.2100 H   0  0  0  0  0  0  0  0  0  0  0  0
  -25.3560  -36.1880   23.6930 C   0  0  0  0  0  1  0  0  0  0  0  0
  -26.5330  -35.5010   24.3990 C   0  0  0  0  0  3  0  0  0  0  0  0
  -28.7690  -35.9520   25.3020 C   0  0  0  0  0  1  0  0  0  0  0  0
  -27.6980  -36.4110   24.4230 N   0  0  0  0  0  0  0  0  0  0  0  0
  -27.4200  -37.3390   24.7290 H   0  0  0  0  0  0  0  0  0  0  0  0
  -29.8530  -19.1300   20.5110 C   0  0  0  0  0  3  0  0  0  0  0  0
  -32.1550  -20.0960   20.6780 C   0  0  0  0  0  0  0  0  0  0  0  0
  -30.8450  -20.1060   20.9920 N   0  0  0  0  0  0  0  0  0  0  0  0
  -32.6030  -19.3590   19.7960 O   0  0  0  0  0  0  0  0  0  0  0  0
  -30.5460  -20.7510   21.7080 H   0  0  0  0  0  0  0  0  0  0  0  0
  -32.8460  -20.7480   23.0010 C   0  0  0  0  0  1  0  0  0  0  0  0
  -32.8090  -22.4920   21.1850 C   0  0  0  0  0  1  0  0  0  0  0  0
  -33.1020  -21.0110   21.5010 C   0  0  2  0  0  0  0  0  0  0  0  0
  -35.1310  -21.0310   19.8220 C   0  0  0  0  0  1  0  0  0  0  0  0
  -34.6080  -20.6910   21.2280 C   0  0  0  0  0  2  0  0  0  0  0  0
  -29.8180  -17.9070   21.4720 C   0  0  0  0  0  2  0  0  0  0  0  0
  -31.1850  -17.2890   21.8320 C   0  0  0  0  0  2  0  0  0  0  0  0
  -31.7960  -14.2430   19.7260 C   0  0  0  0  0  0  0  0  0  0  0  0
  -31.2870  -11.9870   18.8590 C   0  0  0  0  0  2  0  0  0  0  0  0
  -30.2840  -12.0900   17.6930 C   0  0  0  0  0  2  0  0  0  0  0  0
  -28.8380  -12.0740   18.2260 C   0  0  0  0  0  2  0  0  0  0  0  0
  -28.6220  -13.1000   19.3660 C   0  0  0  0  0  3  0  0  0  0  0  0
  -29.7310  -12.9730   20.4350 C   0  0  0  0  0  2  0  0  0  0  0  0
  -31.0460  -13.1080   19.7790 N   0  0  0  0  0  0  0  0  0  0  0  0
  -32.7420  -14.3750   18.9400 O   0  0  0  0  0  0  0  0  0  0  0  0
  -31.7600  -16.4780   20.6660 C   0  0  0  0  0  0  0  0  0  0  0  0
  -31.4390  -15.1740   20.6330 N   0  0  0  0  0  0  0  0  0  0  0  0
  -32.4230  -17.0640   19.8060 O   0  0  0  0  0  0  0  0  0  0  0  0
  -30.8110  -14.8560   21.3510 H   0  0  0  0  0  0  0  0  0  0  0  0
  -26.3910  -13.9600   20.3290 C   0  0  0  0  0  0  0  0  0  0  0  0
  -25.2720  -13.3080   20.7650 C   0  0  0  0  0  0  0  0  0  0  0  0
  -25.5450  -11.9120   20.6160 C   0  0  0  0  0  0  0  0  0  0  0  0
  -27.2880  -12.9710   19.9510 N   0  0  0  0  0  0  0  0  0  0  0  0
  -26.7830  -11.7310   20.1730 N   0  0  0  0  0  0  0  0  0  0  0  0
  -24.6790  -10.7450   20.8140 C   0  0  0  0  0  0  0  0  0  0  0  0
  -25.0130   -9.7230   21.7330 C   0  0  0  0  0  3  0  0  0  0  0  0
  -24.1560   -8.6160   21.9170 C   0  0  0  0  0  3  0  0  0  0  0  0
  -22.9460   -8.5270   21.1860 C   0  0  0  0  0  0  0  0  0  0  0  0
  -22.6320   -9.5310   20.2530 C   0  0  0  0  0  3  0  0  0  0  0  0
  -23.4900  -10.6290   20.0680 C   0  0  0  0  0  3  0  0  0  0  0  0
  -22.0630   -7.4780   21.2800 O   0  0  0  0  0  0  0  0  0  0  0  0
  -21.8700   -6.8050   22.4610 C   0  0  0  0  0  0  0  0  0  0  0  0
  -21.4420   -7.4650   23.6340 C   0  0  0  0  0  3  0  0  0  0  0  0
  -21.1920   -6.7240   24.8060 C   0  0  0  0  0  3  0  0  0  0  0  0
  -21.3560   -5.3260   24.8050 C   0  0  0  0  0  0  0  0  0  0  0  0
  -21.7760   -4.6660   23.6370 C   0  0  0  0  0  3  0  0  0  0  0  0
  -22.0290   -5.4050   22.4680 C   0  0  0  0  0  0  0  0  0  0  0  0
  -22.4120   -4.7600   21.3390 F   0  0  0  0  0  0  0  0  0  0  0  0
  -21.1100   -4.6150   25.9290 F   0  0  0  0  0  0  0  0  0  0  0  0
  -23.9820  -13.9350   21.2110 C   0  0  0  0  0  0  0  0  0  0  0  0
  -23.2840  -13.2960   22.1410 N   0  0  0  0  0  0  0  0  0  0  0  0
  -23.6130  -15.0220   20.7660 O   0  0  0  0  0  0  0  0  0  0  0  0
  -23.6000  -12.4110   22.5110 H   0  0  0  0  0  0  0  0  0  0  0  0
  -22.4190  -13.6870   22.4860 H   0  0  0  0  0  0  0  0  0  0  0  0
  -26.7250  -15.3070   20.2030 N   0  0  0  0  0  0  0  0  0  0  0  0
  -26.0710  -16.0580   20.4080 H   0  0  0  0  0  0  0  0  0  0  0  0
  -27.5940  -15.6390   19.8030 H   0  0  0  0  0  0  0  0  0  0  0  0
  1 53  1  0
  1  7  2  0
  2  5  1  0
  2  3  1  0
  3  6  1  0
  4  6  1  0
  5 10  1  0
  5  4  1  0
  6  1  1  0
 10  8  1  6
 10 11  1  0
 10  9  1  0
 11 12  1  0
 12 14  1  0
 13 24  2  0
 14 19  1  0
 15 23  1  0
 15 25  1  0
 16 22  1  0
 16 18  1  0
 17 23  1  0
 18 17  1  0
 19 18  2  0
 20 21  1  0
 20 14  2  0
 21 16  2  0
 22 15  1  0
 23 13  1  0
 25 27  2  0
 26 25  1  0
 28 26  1  0
 29 38  2  0
 29 34  1  0
 30 26  1  0
 30 34  1  0
 31 30  1  0
 32 33  1  0
 32 31  1  0
 33 29  1  0
 34 35  2  0
 35 36  1  0
 37 36  2  0
 38 37  1  0
 39 13  1  0
 39 44  1  0
 39 40  1  0
 40 43  1  1
 40 41  1  0
 42 40  1  0
 44 47  1  0
 45 44  1  0
 45 49  1  0
 46 45  2  0
 49 48  1  0
 49 51  1  0
 51 52  1  0
 51 50  1  0
 53 55  1  0
 53 63  1  0
 54 55  1  0
 54 60  1  0
 55 57  1  0
 56 54  2  0
 60 59  1  1
 60 58  1  0
 61 62  1  0
 62 60  1  0
 63 64  1  0
 65 71  1  0
 65 74  1  0
 66 71  1  0
 67 68  1  0
 67 66  1  0
 69 68  1  0
 69 80  1  0
 69 70  1  0
 71 70  1  0
 72 65  2  0
 73 64  1  0
 74 73  1  0
 74 76  1  0
 75 73  2  0
 77 78  2  0
 78 97  1  0
 79 78  1  0
 79 82  1  0
 80 81  1  0
 80 77  1  0
 81 79  2  0
 82 83  1  0
 83 84  2  0
 85 88  1  0
 85 84  1  0
 86 85  2  0
 87 86  1  0
 87 82  2  0
 88 89  1  0
 89 94  2  0
 89 90  1  0
 90 91  2  0
 92 91  1  0
 92 96  1  0
 93 92  2  0
 94 93  1  0
 95 94  1  0
 97 98  1  0
 98101  1  0
 98100  1  0
 99 97  2  0
102 77  1  0
102103  1  0
104102  1  0
M  ISO  4  11 101  12 101  65 100  74 100
M  END
>  <TORSDO>  (75) 
F 24

>  <SCORE>  (75) 
-10.316

>  <name>  (75) 
75

>  <ligand_id>  (75) 
75

>  <original_smiles>  (75) 
[H]c1c([H])c([H])c2c(c1[H])C([H])([H])C([H])([H])C([H])([H])C2([H])N([H])C(=O)C1([H])N(C(=O)C([H])(N([H])C(=O)C([H])(N([H])C([H])([H])[H])C([H])([H])[H])C(C([H])([H])[H])(C([H])([H])[H])C([H])([H])[H])C([H])([H])c2c([H])c(OC([H])([H])C(C([H])([H])[H])(C([H])([H])[H])C3([H])C([H])([H])N(C(=O)C([H])(N([H])C(=O)C(C([H])([H])[H])(C([H])([H])[H])C([H])([H])C([H])([H])[H])C([H])([H])C([H])([H])C(=O)N([H])C(=O)N4C([H])([H])C([H])([H])C([H])([H])C([H])(n5nc(-c6c([H])c([H])c(Oc7c([H])c([H])c(F)c([H])c7F)c([H])c6[H])c(C(=O)N([H])[H])c5N([H])[H])C4([H])[H])C([H])([H])C3([H])[H])c([H])c([H])c2C1([H])[H]

>  <smiles>  (75) 
[H]c1c([H])c([H])c2c(c1[H])C([H])([H])C([H])([H])C([H])([H])C2([H])N([H])C(=O)C1([H])N(C(=O)C([H])(N([H])C(=O)C([H])(N([H])C([H])([H])[H])C([H])([H])[H])C(C([H])([H])[H])(C([H])([H])[H])C([H])([H])[H])C([H])([H])c2c([H])c(OC([H])([H])C(C([H])([H])[H])(C([H])([H])[H])C3([H])C([H])([H])N(C(=O)C([H])(N([H])C(=O)C(C([H])([H])[H])(C([H])([H])[H])C([H])([H])C([H])([H])[H])C([H])([H])C([H])([H])C(=O)N([H])C(=O)N4C([H])([H])C([H])([H])C([H])([H])C([H])(n5nc(-c6c([H])c([H])c(Oc7c([H])c([H])c(F)c([H])c7F)c([H])c6[H])c(C(=O)N([H])[H])c5N([H])[H])C4([H])[H])C([H])([H])C3([H])[H])c([H])c([H])c2C1([H])[H]

$$$$
76:0:0
     RDKit          3D

110118  0  0  1  0  0  0  0  0999 V2000
  -22.7640  -23.9810   25.3460 C   0  0  0  0  0  1  0  0  0  0  0  0
  -23.8280  -24.3360   24.2940 C   0  0  0  0  0  3  0  0  0  0  0  0
  -24.9860  -24.1510   21.3750 C   0  0  0  0  0  0  0  0  0  0  0  0
  -23.2560  -27.2160   22.5230 C   0  0  0  0  0  2  0  0  0  0  0  0
  -22.3740  -26.1010   23.0660 C   0  0  0  0  0  2  0  0  0  0  0  0
  -24.2050  -26.5180   21.5550 C   0  0  0  0  0  2  0  0  0  0  0  0
  -23.1940  -24.8120   22.9510 C   0  0  0  0  0  3  0  0  0  0  0  0
  -24.2130  -25.1030   21.9360 N   0  0  0  0  0  0  0  0  0  0  0  0
  -24.7370  -22.9470   21.4980 O   0  0  0  0  0  0  0  0  0  0  0  0
  -26.2630  -24.5800   20.6440 C   0  0  0  0  0  2  0  0  0  0  0  0
  -27.3820  -23.5430   20.7950 C   0  0  0  0  0  2  0  0  0  0  0  0
  -28.7670  -24.1760   20.6610 C   0  0  0  0  0  2  0  0  0  0  0  0
  -29.8580  -23.1050   20.6500 C   0  0  0  0  0  2  0  0  0  0  0  0
  -31.2610  -23.7050   20.7640 C   0  0  0  0  0  2  0  0  0  0  0  0
  -32.3340  -22.6860   20.3730 C   0  0  0  0  0  2  0  0  0  0  0  0
  -33.7570  -23.2140   20.6020 C   0  0  0  0  0  2  0  0  0  0  0  0
  -34.8190  -22.3580   19.8980 C   0  0  0  0  0  2  0  0  0  0  0  0
  -35.0790  -23.5860   17.7480 C   0  0  0  0  0  0  0  0  0  0  0  0
  -36.5800  -23.9720   15.8550 C   0  0  0  0  0  2  0  0  0  0  0  0
  -36.0700  -24.9220   14.7670 C   0  0  0  0  0  2  0  0  0  0  0  0
  -35.2420  -24.1470   13.7320 C   0  0  0  0  0  2  0  0  0  0  0  0
  -34.1290  -23.2920   14.3900 C   0  0  0  0  0  3  0  0  0  0  0  0
  -34.6840  -22.4360   15.5540 C   0  0  0  0  0  2  0  0  0  0  0  0
  -35.4400  -23.2970   16.4810 N   0  0  0  0  0  0  0  0  0  0  0  0
  -35.3320  -24.6530   18.3170 O   0  0  0  0  0  0  0  0  0  0  0  0
  -34.7580  -22.4900   18.4410 N   0  0  0  0  0  0  0  0  0  0  0  0
  -34.6590  -21.6390   17.9050 H   0  0  0  0  0  0  0  0  0  0  0  0
  -32.0840  -22.4070   13.0930 C   0  0  0  0  0  0  0  0  0  0  0  0
  -31.9750  -21.5540   12.0290 C   0  0  0  0  0  0  0  0  0  0  0  0
  -33.3070  -21.1400   11.7160 C   0  0  0  0  0  0  0  0  0  0  0  0
  -33.4370  -22.4770   13.3920 N   0  0  0  0  0  0  0  0  0  0  0  0
  -34.1650  -21.6650   12.5810 N   0  0  0  0  0  0  0  0  0  0  0  0
  -33.8180  -20.3230   10.6090 C   0  0  0  0  0  0  0  0  0  0  0  0
  -34.6910  -19.2370   10.8350 C   0  0  0  0  0  3  0  0  0  0  0  0
  -35.1560  -18.4530    9.7570 C   0  0  0  0  0  3  0  0  0  0  0  0
  -34.7440  -18.7490    8.4350 C   0  0  0  0  0  0  0  0  0  0  0  0
  -33.8930  -19.8450    8.2120 C   0  0  0  0  0  3  0  0  0  0  0  0
  -33.4360  -20.6280    9.2870 C   0  0  0  0  0  3  0  0  0  0  0  0
  -35.1640  -18.0590    7.3240 O   0  0  0  0  0  0  0  0  0  0  0  0
  -35.6190  -16.7670    7.4070 C   0  0  0  0  0  0  0  0  0  0  0  0
  -34.8310  -15.7340    7.9600 C   0  0  0  0  0  3  0  0  0  0  0  0
  -35.3100  -14.4090    7.9630 C   0  0  0  0  0  3  0  0  0  0  0  0
  -36.5680  -14.1120    7.4080 C   0  0  0  0  0  0  0  0  0  0  0  0
  -37.3520  -15.1400    6.8520 C   0  0  0  0  0  3  0  0  0  0  0  0
  -36.8770  -16.4620    6.8490 C   0  0  0  0  0  0  0  0  0  0  0  0
  -37.6270  -17.4440    6.2940 F   0  0  0  0  0  0  0  0  0  0  0  0
  -37.0250  -12.8380    7.4030 F   0  0  0  0  0  0  0  0  0  0  0  0
  -30.7190  -21.2110   11.2800 C   0  0  0  0  0  0  0  0  0  0  0  0
  -30.6370  -20.0000   10.7420 N   0  0  0  0  0  0  0  0  0  0  0  0
  -29.7800  -22.0030   11.2110 O   0  0  0  0  0  0  0  0  0  0  0  0
  -31.3990  -19.3410   10.8170 H   0  0  0  0  0  0  0  0  0  0  0  0
  -29.8000  -19.7260   10.2470 H   0  0  0  0  0  0  0  0  0  0  0  0
  -31.1530  -23.1440   13.8200 N   0  0  0  0  0  0  0  0  0  0  0  0
  -30.1660  -23.1490   13.5920 H   0  0  0  0  0  0  0  0  0  0  0  0
  -31.3860  -23.7620   14.5880 H   0  0  0  0  0  0  0  0  0  0  0  0
  -26.0010  -25.5490   24.4550 C   0  0  0  0  0  0  0  0  0  0  0  0
  -24.7350  -25.3500   24.8350 N   0  0  0  0  0  0  0  0  0  0  0  0
  -26.6360  -24.7990   23.7060 O   0  0  0  0  0  0  0  0  0  0  0  0
  -24.3560  -26.0570   25.4530 H   0  0  0  0  0  0  0  0  0  0  0  0
  -26.6260  -26.8740   24.9590 C   0  0  0  0  0  0  0  0  0  0  0  0
  -27.1880  -27.6050   23.9900 N   0  0  0  0  0  0  0  0  0  0  0  0
  -26.5680  -27.2010   26.1480 O   0  0  0  0  0  0  0  0  0  0  0  0
  -27.1680  -27.1820   23.0720 H   0  0  0  0  0  0  0  0  0  0  0  0
  -27.9020  -28.8670   24.1430 C   0  0  0  0  0  3  0  0  0  0  0  0
  -27.8000  -29.2310   21.5680 C   0  0  0  0  0  1  0  0  0  0  0  0
  -29.8610  -28.2740   22.6430 C   0  0  0  0  0  1  0  0  0  0  0  0
  -28.6660  -29.2250   22.8420 C   0  0  0  0  0  3  0  0  0  0  0  0
  -27.0240  -29.9930   24.7450 C   0  0  0  0  0  2  0  0  0  0  0  0
  -25.4960  -29.9530   24.4910 C   0  0  0  0  0  2  0  0  0  0  0  0
  -24.7950  -30.8860   25.3180 O   0  0  0  0  0  0  0  0  0  0  0  0
  -28.4220  -31.1460   31.4040 C   0  0  0  0  0  0  0  0  0  0  0  0
  -24.8210  -30.5750   26.6520 C   0  0  0  0  0  0  0  0  0  0  0  0
  -26.4300  -29.6760   31.4020 C   0  0  0  0  0  3  0  0  0  0  0  0
  -24.8820  -29.9160   29.3900 C   0  0  0  0  0  0  0  0  0  0  0  0
  -26.5430  -31.7260   29.8790 C   0  0  0  0  0  2  0  0  0  0  0  0
  -25.6600  -30.9740   28.9070 C   0  0  0  0  0  0  0  0  0  0  0  0
  -25.6170  -31.3200   27.5440 C   0  0  0  0  0  3  0  0  0  0  0  0
  -24.0410  -29.5080   27.1410 C   0  0  0  0  0  3  0  0  0  0  0  0
  -24.0670  -29.1780   28.5110 C   0  0  0  0  0  3  0  0  0  0  0  0
  -24.9720  -29.6240   30.8700 C   0  0  0  0  0  2  0  0  0  0  0  0
  -27.1940  -30.8590   30.8860 N   0  0  0  0  0  0  0  0  0  0  0  0
  -28.9010  -30.4730   32.3270 O   0  0  0  0  0  0  0  0  0  0  0  0
  -27.1100  -28.3250   31.0920 C   0  0  0  0  0  0  0  0  0  0  0  0
  -26.8610  -27.3240   31.9520 N   0  0  0  0  0  0  0  0  0  0  0  0
  -27.8140  -28.1850   30.0880 O   0  0  0  0  0  0  0  0  0  0  0  0
  -26.2850  -27.5230   32.7570 H   0  0  0  0  0  0  0  0  0  0  0  0
  -27.1200  -24.1580   33.6750 C   0  0  0  0  0  0  0  0  0  0  0  0
  -27.3490  -25.9520   31.8340 C   0  0  0  0  0  3  0  0  0  0  0  0
  -26.3630  -25.0910   31.0190 C   0  0  0  0  0  2  0  0  0  0  0  0
  -25.3550  -24.3240   31.8760 C   0  0  0  0  0  2  0  0  0  0  0  0
  -26.0810  -23.4070   32.8610 C   0  0  0  0  0  2  0  0  0  0  0  0
  -27.7060  -25.3600   33.2000 C   0  0  0  0  0  0  0  0  0  0  0  0
  -28.6430  -26.0350   34.0090 C   0  0  0  0  0  3  0  0  0  0  0  0
  -28.9960  -25.5310   35.2730 C   0  0  0  0  0  3  0  0  0  0  0  0
  -28.4250  -24.3330   35.7360 C   0  0  0  0  0  3  0  0  0  0  0  0
  -27.4940  -23.6480   34.9350 C   0  0  0  0  0  3  0  0  0  0  0  0
  -29.2700  -32.3480   30.8820 C   0  0  0  0  0  3  0  0  0  0  0  0
  -30.5690  -31.9020   30.1060 C   0  0  1  0  0  0  0  0  0  0  0  0
  -31.4460  -30.8950   30.8850 C   0  0  0  0  0  1  0  0  0  0  0  0
  -30.2000  -31.2560   28.7490 C   0  0  0  0  0  1  0  0  0  0  0  0
  -31.4380  -33.1430   29.7900 C   0  0  0  0  0  1  0  0  0  0  0  0
  -29.6130  -33.1820   32.0420 N   0  0  0  0  0  0  0  0  0  0  0  0
  -28.9510  -34.2890   32.4050 C   0  0  0  0  0  0  0  0  0  0  0  0
  -28.0170  -34.7570   31.7480 O   0  0  0  0  0  0  0  0  0  0  0  0
  -30.3310  -32.8260   32.6560 H   0  0  0  0  0  0  0  0  0  0  0  0
  -28.4570  -34.5720   34.8530 C   0  0  0  0  0  1  0  0  0  0  0  0
  -29.3930  -34.9840   33.7060 C   0  0  0  0  0  3  0  0  0  0  0  0
  -30.4660  -36.9450   32.6890 C   0  0  0  0  0  1  0  0  0  0  0  0
  -29.4330  -36.4590   33.6000 N   0  0  0  0  0  0  0  0  0  0  0  0
  -29.5940  -36.8790   34.5120 H   0  0  0  0  0  0  0  0  0  0  0  0
  2 57  1  0
  2  1  1  0
  3  9  2  0
  3  8  1  0
  4  5  1  0
  6  8  1  0
  6  4  1  0
  7  5  1  0
  7  2  1  0
  8  7  1  0
 10 11  1  0
 10  3  1  0
 12 11  1  0
 13 12  1  0
 13 14  1  0
 15 16  1  0
 15 14  1  0
 17 16  1  0
 18 25  2  0
 18 26  1  0
 19 24  1  0
 20 19  1  0
 21 22  1  0
 21 20  1  0
 22 31  1  0
 22 23  1  0
 23 24  1  0
 24 18  1  0
 26 17  1  0
 27 26  1  0
 28 31  1  0
 28 53  1  0
 29 28  2  0
 30 29  1  0
 30 32  2  0
 32 31  1  0
 33 34  1  0
 33 30  1  0
 35 34  2  0
 36 35  1  0
 37 36  2  0
 37 38  1  0
 38 33  2  0
 39 40  1  0
 39 36  1  0
 40 41  1  0
 41 42  2  0
 43 42  1  0
 44 43  2  0
 45 44  1  0
 45 40  2  0
 46 45  1  0
 47 43  1  0
 48 29  1  0
 49 51  1  0
 49 48  1  0
 50 48  2  0
 52 49  1  0
 53 55  1  0
 54 53  1  0
 56 57  1  0
 56 60  1  0
 57 59  1  0
 58 56  2  0
 60 62  2  0
 61 64  1  0
 61 60  1  0
 63 61  1  0
 64 68  1  0
 65 67  1  0
 66 67  1  0
 67 64  1  0
 69 68  1  0
 69 70  1  0
 70 72  1  0
 71 82  2  0
 72 78  2  0
 72 77  1  0
 73 83  1  0
 74 80  1  0
 75 81  1  0
 76 74  1  0
 76 75  1  0
 77 76  2  0
 78 79  1  0
 79 74  2  0
 80 73  1  0
 81 73  1  0
 81 71  1  0
 83 84  1  0
 84 86  1  0
 85 83  2  0
 87 96  1  0
 88 84  1  0
 88 92  1  0
 89 88  1  0
 89 90  1  0
 90 91  1  0
 91 87  1  0
 92 87  2  0
 92 93  1  0
 93 94  2  0
 94 95  1  0
 96 95  2  0
 97 71  1  0
 97102  1  0
 98 97  1  0
 98 99  1  1
100 98  1  0
101 98  1  0
102103  1  0
102105  1  0
103107  1  0
104103  2  0
107106  1  0
108109  1  0
109107  1  0
109110  1  0
M  ISO  4  18 100  26 100  69 101  70 101
M  END
>  <TORSDO>  (76) 
F 31

>  <SCORE>  (76) 
12.067

>  <name>  (76) 
76

>  <ligand_id>  (76) 
76

>  <original_smiles>  (76) 
[H]c1c([H])c([H])c2c(c1[H])C([H])([H])C([H])([H])C([H])([H])C2([H])N([H])C(=O)C1([H])N(C(=O)C([H])(N([H])C(=O)C([H])(N([H])C([H])([H])[H])C([H])([H])[H])C(C([H])([H])[H])(C([H])([H])[H])C([H])([H])[H])C([H])([H])c2c([H])c(OC([H])([H])C([H])([H])C([H])(N([H])C(=O)C(=O)N([H])C([H])(C([H])([H])[H])C3([H])N(C(=O)C([H])([H])C([H])([H])C([H])([H])C([H])([H])C([H])([H])C([H])([H])C([H])([H])C([H])([H])N([H])C(=O)N4C([H])([H])C([H])([H])C([H])([H])C([H])(n5nc(-c6c([H])c([H])c(Oc7c([H])c([H])c(F)c([H])c7F)c([H])c6[H])c(C(=O)N([H])[H])c5N([H])[H])C4([H])[H])C([H])([H])C([H])([H])C3([H])[H])C([H])(C([H])([H])[H])C([H])([H])[H])c([H])c([H])c2C1([H])[H]

>  <smiles>  (76) 
[H]c1c([H])c([H])c2c(c1[H])C([H])([H])C([H])([H])C([H])([H])C2([H])N([H])C(=O)C1([H])N(C(=O)C([H])(N([H])C(=O)C([H])(N([H])C([H])([H])[H])C([H])([H])[H])C(C([H])([H])[H])(C([H])([H])[H])C([H])([H])[H])C([H])([H])c2c([H])c(OC([H])([H])C([H])([H])C([H])(N([H])C(=O)C(=O)N([H])C([H])(C([H])([H])[H])C3([H])N(C(=O)C([H])([H])C([H])([H])C([H])([H])C([H])([H])C([H])([H])C([H])([H])C([H])([H])C([H])([H])N([H])C(=O)N4C([H])([H])C([H])([H])C([H])([H])C([H])(n5nc(-c6c([H])c([H])c(Oc7c([H])c([H])c(F)c([H])c7F)c([H])c6[H])c(C(=O)N([H])[H])c5N([H])[H])C4([H])[H])C([H])([H])C([H])([H])C3([H])[H])C([H])(C([H])([H])[H])C([H])([H])[H])c([H])c([H])c2C1([H])[H]

$$$$
77:0:0
     RDKit          3D

101108  0  0  1  0  0  0  0  0999 V2000
  -28.0430  -28.0780   18.9310 C   0  0  0  0  0  2  0  0  0  0  0  0
  -29.1190  -24.9810   18.2200 C   0  0  0  0  0  0  0  0  0  0  0  0
  -28.1900  -26.2840   18.3900 N   0  0  0  0  0  0  0  0  0  0  0  0
  -30.3170  -25.3060   18.2390 O   0  0  0  0  0  0  0  0  0  0  0  0
  -27.2650  -25.8970   18.3760 H   0  0  0  0  0  0  0  0  0  0  0  0
  -28.9860  -23.0570   17.9350 C   0  0  0  0  0  2  0  0  0  0  0  0
  -29.5790  -19.8030   18.1630 C   0  0  0  0  0  0  0  0  0  0  0  0
  -29.7400  -21.3890   18.3040 N   0  0  0  0  0  0  0  0  0  0  0  0
  -28.6110  -19.5240   17.4610 O   0  0  0  0  0  0  0  0  0  0  0  0
  -30.6710  -21.5470   18.6780 H   0  0  0  0  0  0  0  0  0  0  0  0
  -30.4240  -18.1350   18.6840 C   0  0  0  0  0  2  0  0  0  0  0  0
  -30.7000  -14.9090   19.4410 C   0  0  0  0  0  0  0  0  0  0  0  0
  -30.6570  -12.2560   19.0420 C   0  0  0  0  0  2  0  0  0  0  0  0
  -29.7010  -11.6640   17.9770 C   0  0  0  0  0  2  0  0  0  0  0  0
  -28.2930  -11.3990   18.5400 C   0  0  0  0  0  2  0  0  0  0  0  0
  -27.8350  -12.5070   19.5190 C   0  0  0  0  0  3  0  0  0  0  0  0
  -28.9700  -13.0350   20.4560 C   0  0  0  0  0  2  0  0  0  0  0  0
  -30.0660  -13.5760   19.5640 N   0  0  0  0  0  0  0  0  0  0  0  0
  -31.9170  -14.7140   19.6050 O   0  0  0  0  0  0  0  0  0  0  0  0
  -30.1200  -16.3190   18.9640 N   0  0  0  0  0  0  0  0  0  0  0  0
  -29.1730  -16.1530   18.6980 H   0  0  0  0  0  0  0  0  0  0  0  0
  -25.5440  -13.0860   20.4860 C   0  0  0  0  0  0  0  0  0  0  0  0
  -24.4800  -12.3400   20.9190 C   0  0  0  0  0  0  0  0  0  0  0  0
  -24.9100  -10.9770   20.8700 C   0  0  0  0  0  0  0  0  0  0  0  0
  -26.5580  -12.1920   20.1860 N   0  0  0  0  0  0  0  0  0  0  0  0
  -26.1860  -10.9140   20.4840 N   0  0  0  0  0  0  0  0  0  0  0  0
  -24.1420   -9.7390   21.1010 C   0  0  0  0  0  0  0  0  0  0  0  0
  -24.5730   -8.7650   22.0340 C   0  0  0  0  0  3  0  0  0  0  0  0
  -23.8070   -7.6010   22.2540 C   0  0  0  0  0  3  0  0  0  0  0  0
  -22.5970   -7.3970   21.5450 C   0  0  0  0  0  0  0  0  0  0  0  0
  -22.1830   -8.3590   20.6090 C   0  0  0  0  0  3  0  0  0  0  0  0
  -22.9470   -9.5170   20.3830 C   0  0  0  0  0  3  0  0  0  0  0  0
  -21.8000   -6.2850   21.6790 O   0  0  0  0  0  0  0  0  0  0  0  0
  -21.7850   -5.5440   22.8350 C   0  0  0  0  0  0  0  0  0  0  0  0
  -21.2800   -6.0640   24.0470 C   0  0  0  0  0  3  0  0  0  0  0  0
  -21.2140   -5.2450   25.1930 C   0  0  0  0  0  3  0  0  0  0  0  0
  -21.6470   -3.9070   25.1280 C   0  0  0  0  0  0  0  0  0  0  0  0
  -22.1430   -3.3860   23.9200 C   0  0  0  0  0  3  0  0  0  0  0  0
  -22.2090   -4.2000   22.7780 C   0  0  0  0  0  0  0  0  0  0  0  0
  -22.6690   -3.6820   21.6130 F   0  0  0  0  0  0  0  0  0  0  0  0
  -21.5780   -3.1210   26.2290 F   0  0  0  0  0  0  0  0  0  0  0  0
  -23.1100  -12.8610   21.2480 C   0  0  0  0  0  0  0  0  0  0  0  0
  -22.3860  -12.1870   22.1270 N   0  0  0  0  0  0  0  0  0  0  0  0
  -22.6940  -13.9040   20.7490 O   0  0  0  0  0  0  0  0  0  0  0  0
  -22.7390  -11.3450   22.5570 H   0  0  0  0  0  0  0  0  0  0  0  0
  -21.4690  -12.5210   22.3730 H   0  0  0  0  0  0  0  0  0  0  0  0
  -25.7340  -14.4550   20.2950 N   0  0  0  0  0  0  0  0  0  0  0  0
  -24.9790  -15.1230   20.4370 H   0  0  0  0  0  0  0  0  0  0  0  0
  -26.5800  -14.8770   19.9490 H   0  0  0  0  0  0  0  0  0  0  0  0
  -26.4500  -29.3430   19.8340 C   0  0  0  0  0  1  0  0  0  0  0  0
  -25.3680  -28.1820   22.5280 C   0  0  0  0  0  2  0  0  0  0  0  0
  -24.4210  -26.8380   22.7690 C   0  0  0  0  0  2  0  0  0  0  0  0
  -24.9880  -25.2850   22.7180 C   0  0  0  0  0  2  0  0  0  0  0  0
  -26.2140  -24.7490   21.9660 O   0  0  0  0  0  0  0  0  0  0  0  0
  -24.2850  -30.9440   22.6490 C   0  0  0  0  0  0  0  0  0  0  0  0
  -26.3560  -25.2500   20.7900 C   0  0  0  0  0  3  0  0  0  0  0  0
  -22.9970  -29.4360   20.8950 C   0  0  0  0  0  3  0  0  0  0  0  0
  -24.5620  -26.8230   19.9080 C   0  0  0  0  0  0  0  0  0  0  0  0
  -25.9670  -29.1610   21.5070 C   0  0  0  0  0  3  0  0  0  0  0  0
  -26.0280  -27.3100   20.7690 C   0  0  0  0  0  3  0  0  0  0  0  0
  -26.9340  -26.4400   21.1090 C   0  0  0  0  0  2  0  0  0  0  0  0
  -25.3020  -24.8000   19.9070 C   0  0  0  0  0  2  0  0  0  0  0  0
  -24.3690  -25.6210   19.3260 C   0  0  0  0  0  2  0  0  0  0  0  0
  -23.1340  -27.9610   19.8390 C   0  0  0  0  0  2  0  0  0  0  0  0
  -24.4530  -30.0550   21.5470 N   0  0  0  0  0  0  0  0  0  0  0  0
  -23.1710  -31.3480   23.0560 O   0  0  0  0  0  0  0  0  0  0  0  0
  -21.8850  -28.9590   22.0870 C   0  0  0  0  0  0  0  0  0  0  0  0
  -20.6070  -28.5940   21.8500 N   0  0  0  0  0  0  0  0  0  0  0  0
  -22.2500  -28.6900   23.2400 O   0  0  0  0  0  0  0  0  0  0  0  0
  -20.2570  -28.6830   20.9030 H   0  0  0  0  0  0  0  0  0  0  0  0
  -17.2140  -27.9430   22.8820 C   0  0  0  0  0  0  0  0  0  0  0  0
  -19.7810  -27.8100   22.8200 C   0  0  0  0  0  3  0  0  0  0  0  0
  -19.5960  -26.3580   22.3230 C   0  0  0  0  0  2  0  0  0  0  0  0
  -18.3500  -26.1970   21.4510 C   0  0  0  0  0  2  0  0  0  0  0  0
  -17.0870  -26.5860   22.2220 C   0  0  0  0  0  2  0  0  0  0  0  0
  -18.4710  -28.5150   23.1770 C   0  0  0  0  0  0  0  0  0  0  0  0
  -18.5220  -29.7810   23.8170 C   0  0  0  0  0  3  0  0  0  0  0  0
  -17.3500  -30.4700   24.1510 C   0  0  0  0  0  3  0  0  0  0  0  0
  -16.0940  -29.8900   23.8400 C   0  0  0  0  0  3  0  0  0  0  0  0
  -16.0300  -28.6430   23.2140 C   0  0  0  0  0  3  0  0  0  0  0  0
  -25.5030  -31.5340   23.4440 C   0  0  0  0  0  3  0  0  0  0  0  0
  -25.9750  -30.7650   24.7490 C   0  0  1  0  0  0  0  0  0  0  0  0
  -24.7830  -30.5030   25.7100 C   0  0  0  0  0  1  0  0  0  0  0  0
  -26.7170  -29.4600   24.4170 C   0  0  0  0  0  1  0  0  0  0  0  0
  -27.0550  -31.6120   25.4840 C   0  0  0  0  0  1  0  0  0  0  0  0
  -25.1930  -32.9130   23.8710 N   0  0  0  0  0  0  0  0  0  0  0  0
  -25.4450  -34.0230   23.1810 C   0  0  0  0  0  0  0  0  0  0  0  0
  -26.0950  -34.0200   22.1350 O   0  0  0  0  0  0  0  0  0  0  0  0
  -24.8580  -33.0370   24.8050 H   0  0  0  0  0  0  0  0  0  0  0  0
  -23.5890  -35.7000   23.0150 C   0  0  0  0  0  1  0  0  0  0  0  0
  -24.9020  -35.3510   23.7370 C   0  0  0  0  0  3  0  0  0  0  0  0
  -26.9520  -36.3570   24.6770 C   0  0  0  0  0  1  0  0  0  0  0  0
  -25.8680  -36.4670   23.6960 N   0  0  0  0  0  0  0  0  0  0  0  0
  -26.2580  -36.5800   22.7670 H   0  0  0  0  0  0  0  0  0  0  0  0
  -29.5650  -28.7860   18.8520 C   0  0  0  0  0  2  0  0  0  0  0  0
  -32.4550  -27.0660   20.7190 C   0  0  0  0  0  2  0  0  0  0  0  0
  -33.2200  -27.3370   19.4360 C   0  0  0  0  0  2  0  0  0  0  0  0
  -30.9660  -27.0700   20.2710 C   0  0  0  0  0  2  0  0  0  0  0  0
  -32.1800  -27.9640   18.4320 C   0  0  0  0  0  2  0  0  0  0  0  0
  -30.7920  -27.8150   19.0130 N   0  0  2  0  0  4  0  0  0  0  0  0
  -30.4800  -27.0860   18.3860 H   0  0  0  0  0  0  0  0  0  0  0  0
  2  4  2  0
  2  3  1  0
  3  1  1  0
  5  3  1  0
  6  2  1  0
  6  8  1  0
  7  8  1  0
  7 11  1  0
  8 10  1  0
  9  7  2  0
 11 20  1  0
 12 18  1  0
 12 19  2  0
 13 18  1  0
 14 15  1  0
 14 13  1  0
 16 15  1  0
 16 25  1  0
 16 17  1  0
 18 17  1  0
 20 12  1  0
 21 20  1  0
 22 23  2  0
 23 42  1  0
 24 23  1  0
 24 27  1  0
 25 26  1  0
 25 22  1  0
 26 24  2  0
 27 28  1  0
 28 29  2  0
 30 33  1  0
 30 29  1  0
 31 30  2  0
 32 31  1  0
 32 27  2  0
 33 34  1  0
 34 35  1  0
 35 36  2  0
 37 36  1  0
 37 41  1  0
 38 37  2  0
 39 34  2  0
 39 38  1  0
 40 39  1  0
 42 43  1  0
 43 46  1  0
 43 45  1  0
 44 42  2  0
 47 48  1  0
 47 22  1  0
 49 47  1  0
 51 52  1  0
 53 52  1  0
 54 53  1  0
 55 66  2  0
 56 62  1  0
 56 61  1  0
 56 54  1  0
 57 65  1  0
 57 67  1  0
 58 60  2  0
 59 50  1  0
 59 65  1  0
 59 51  1  0
 60 61  1  0
 63 62  1  0
 63 58  1  0
 64 58  1  0
 64 57  1  0
 65 55  1  0
 67 69  2  0
 68 67  1  0
 70 68  1  0
 71 76  2  0
 71 80  1  0
 72 68  1  0
 72 76  1  0
 73 72  1  0
 74 75  1  0
 74 73  1  0
 75 71  1  0
 76 77  1  0
 77 78  2  0
 79 78  1  0
 80 79  2  0
 81 55  1  0
 81 86  1  0
 81 82  1  0
 82 85  1  1
 82 83  1  0
 84 82  1  0
 86 89  1  0
 87 91  1  0
 87 86  1  0
 88 87  2  0
 91 90  1  0
 93 91  1  0
 93 92  1  0
 94 93  1  0
 95  1  1  0
 95100  1  0
 97 96  1  0
 98 96  1  0
 99100  1  0
 99 97  1  0
100 98  1  0
100101  1  6
M  ISO  4  12 100  20 100  53 101  54 101
M  END
>  <TORSDO>  (77) 
F 26

>  <SCORE>  (77) 
-9.889

>  <name>  (77) 
77

>  <ligand_id>  (77) 
77

>  <original_smiles>  (77) 
[H]c1c([H])c([H])c2c(c1[H])C([H])([H])C([H])([H])C([H])([H])C2([H])N([H])C(=O)C1([H])N(C(=O)C([H])(N([H])C(=O)C([H])(N([H])C([H])([H])[H])C([H])([H])[H])C(C([H])([H])[H])(C([H])([H])[H])C([H])([H])[H])C([H])([H])c2c([H])c(OC([H])([H])C([H])([H])C([H])([H])C([H])([H])C([H])(N([H])C(=O)C([H])([H])N([H])C(=O)C([H])([H])N([H])C(=O)N3C([H])([H])C([H])([H])C([H])([H])C([H])(n4nc(-c5c([H])c([H])c(Oc6c([H])c([H])c(F)c([H])c6F)c([H])c5[H])c(C(=O)N([H])[H])c4N([H])[H])C3([H])[H])C([H])([H])[N+]3([H])C([H])([H])C([H])([H])C([H])([H])C3([H])[H])c([H])c([H])c2C1([H])[H]

>  <smiles>  (77) 
[H]c1c([H])c([H])c2c(c1[H])C([H])([H])C([H])([H])C([H])([H])C2([H])N([H])C(=O)C1([H])N(C(=O)C([H])(N([H])C(=O)C([H])(N([H])C([H])([H])[H])C([H])([H])[H])C(C([H])([H])[H])(C([H])([H])[H])C([H])([H])[H])C([H])([H])c2c([H])c(OC([H])([H])C([H])([H])C([H])([H])C([H])([H])C([H])(N([H])C(=O)C([H])([H])N([H])C(=O)C([H])([H])N([H])C(=O)N3C([H])([H])C([H])([H])C([H])([H])C([H])(n4nc(-c5c([H])c([H])c(Oc6c([H])c([H])c(F)c([H])c6F)c([H])c5[H])c(C(=O)N([H])[H])c4N([H])[H])C3([H])[H])C([H])([H])[N+]3([H])C([H])([H])C([H])([H])C([H])([H])C3([H])[H])c([H])c([H])c2C1([H])[H]

$$$$
78:0:0
     RDKit          3D

 98106  0  0  1  0  0  0  0  0999 V2000
  -29.0270  -23.0440   18.5000 C   0  0  0  0  0  2  0  0  0  0  0  0
  -27.8140  -21.8370   16.6530 C   0  0  0  0  0  2  0  0  0  0  0  0
  -28.7260  -21.8540   19.4330 C   0  0  0  0  0  2  0  0  0  0  0  0
  -27.5170  -20.6900   17.6420 C   0  0  0  0  0  2  0  0  0  0  0  0
  -27.9760  -23.1890   17.3790 C   0  0  0  0  0  3  0  0  0  0  0  0
  -28.5920  -20.5890   18.6620 N   0  0  2  0  0  4  0  0  0  0  0  0
  -29.4430  -20.4740   18.1340 H   0  0  0  0  0  0  0  0  0  0  0  0
  -28.3050  -24.3470   16.4000 C   0  0  0  0  0  2  0  0  0  0  0  0
  -28.3410  -25.7420   17.0680 C   0  0  0  0  0  2  0  0  0  0  0  0
  -29.7590  -26.2920   17.3440 C   0  0  0  0  0  2  0  0  0  0  0  0
  -29.7860  -27.6200   18.1620 C   0  0  0  0  0  3  0  0  0  0  0  0
  -30.9350  -29.1120   16.3690 C   0  0  0  0  0  1  0  0  0  0  0  0
  -30.9950  -28.5070   17.7810 C   0  0  0  0  0  2  0  0  0  0  0  0
  -29.7980  -27.3750   19.6980 C   0  0  0  0  0  2  0  0  0  0  0  0
  -28.6230  -26.7170   20.1810 O   0  0  0  0  0  0  0  0  0  0  0  0
  -24.6990  -31.8690   23.2490 C   0  0  0  0  0  0  0  0  0  0  0  0
  -27.4610  -27.4540   20.2440 C   0  0  0  0  0  0  0  0  0  0  0  0
  -23.5290  -30.4340   21.6090 C   0  0  0  0  0  3  0  0  0  0  0  0
  -25.0240  -28.8870   20.2400 C   0  0  0  0  0  0  0  0  0  0  0  0
  -26.0540  -30.8210   21.4450 C   0  0  0  0  0  2  0  0  0  0  0  0
  -26.1670  -29.4490   20.8200 C   0  0  0  0  0  0  0  0  0  0  0  0
  -27.3900  -28.7440   20.8170 C   0  0  0  0  0  3  0  0  0  0  0  0
  -26.2840  -26.8740   19.7230 C   0  0  0  0  0  3  0  0  0  0  0  0
  -25.0720  -27.5920   19.6960 C   0  0  0  0  0  3  0  0  0  0  0  0
  -23.7700  -29.7300   20.2450 C   0  0  0  0  0  2  0  0  0  0  0  0
  -24.7770  -31.0530   22.1600 N   0  0  0  0  0  0  0  0  0  0  0  0
  -23.6060  -32.1420   23.7690 O   0  0  0  0  0  0  0  0  0  0  0  0
  -22.8730  -29.4200   22.5750 C   0  0  0  0  0  0  0  0  0  0  0  0
  -21.5480  -29.2380   22.4430 N   0  0  0  0  0  0  0  0  0  0  0  0
  -23.5540  -28.8010   23.3970 O   0  0  0  0  0  0  0  0  0  0  0  0
  -21.0620  -29.7900   21.7490 H   0  0  0  0  0  0  0  0  0  0  0  0
  -18.1680  -28.0760   22.9530 C   0  0  0  0  0  0  0  0  0  0  0  0
  -20.7270  -28.3060   23.2150 C   0  0  0  0  0  3  0  0  0  0  0  0
  -20.8140  -26.8740   22.6380 C   0  0  0  0  0  2  0  0  0  0  0  0
  -19.7060  -26.5610   21.6280 C   0  0  0  0  0  2  0  0  0  0  0  0
  -18.3280  -26.7250   22.2750 C   0  0  0  0  0  2  0  0  0  0  0  0
  -19.2940  -28.8270   23.3780 C   0  0  0  0  0  0  0  0  0  0  0  0
  -19.0900  -30.0950   23.9680 C   0  0  0  0  0  3  0  0  0  0  0  0
  -17.7900  -30.6080   24.1430 C   0  0  0  0  0  3  0  0  0  0  0  0
  -16.6770  -29.8530   23.7330 C   0  0  0  0  0  3  0  0  0  0  0  0
  -16.8680  -28.5900   23.1440 C   0  0  0  0  0  3  0  0  0  0  0  0
  -25.9700  -32.5180   23.8770 C   0  0  0  0  0  3  0  0  0  0  0  0
  -26.5000  -31.7530   25.1520 C   0  0  1  0  0  0  0  0  0  0  0  0
  -25.4070  -31.4860   26.2100 C   0  0  0  0  0  1  0  0  0  0  0  0
  -27.1130  -30.3890   24.7560 C   0  0  0  0  0  1  0  0  0  0  0  0
  -27.6340  -32.5670   25.8220 C   0  0  0  0  0  1  0  0  0  0  0  0
  -25.6360  -33.9110   24.2050 N   0  0  0  0  0  0  0  0  0  0  0  0
  -25.9560  -34.9670   23.4450 C   0  0  0  0  0  0  0  0  0  0  0  0
  -26.6360  -34.8730   22.4200 O   0  0  0  0  0  0  0  0  0  0  0  0
  -25.0360  -34.0610   25.0040 H   0  0  0  0  0  0  0  0  0  0  0  0
  -24.2050  -36.7350   23.0740 C   0  0  0  0  0  1  0  0  0  0  0  0
  -25.4450  -36.3500   23.8960 C   0  0  0  0  0  3  0  0  0  0  0  0
  -27.5590  -37.2650   24.7440 C   0  0  0  0  0  1  0  0  0  0  0  0
  -26.4610  -37.4190   23.7930 N   0  0  0  0  0  0  0  0  0  0  0  0
  -26.0400  -38.3320   23.9480 H   0  0  0  0  0  0  0  0  0  0  0  0
  -28.4840  -19.3830   19.5280 C   0  0  0  0  0  2  0  0  0  0  0  0
  -29.8770  -18.8490   19.9170 C   0  0  0  0  0  2  0  0  0  0  0  0
  -29.8360  -17.6820   20.9110 C   0  0  0  0  0  2  0  0  0  0  0  0
  -31.2570  -17.1970   21.2430 C   0  0  0  0  0  2  0  0  0  0  0  0
  -31.3080  -15.9020   22.0750 C   0  0  0  0  0  2  0  0  0  0  0  0
  -30.8570  -14.1730   20.3160 C   0  0  0  0  0  0  0  0  0  0  0  0
  -30.3340  -12.2160   18.9080 C   0  0  0  0  0  2  0  0  0  0  0  0
  -29.3440  -12.5530   17.7780 C   0  0  0  0  0  2  0  0  0  0  0  0
  -27.8900  -12.4400   18.2700 C   0  0  0  0  0  2  0  0  0  0  0  0
  -27.6520  -13.1990   19.6010 C   0  0  0  0  0  3  0  0  0  0  0  0
  -28.7380  -12.8430   20.6400 C   0  0  0  0  0  2  0  0  0  0  0  0
  -30.0640  -13.1050   20.0460 N   0  0  0  0  0  0  0  0  0  0  0  0
  -31.8160  -14.5040   19.6120 O   0  0  0  0  0  0  0  0  0  0  0  0
  -30.5730  -14.7950   21.4670 N   0  0  0  0  0  0  0  0  0  0  0  0
  -29.8000  -14.4170   21.9940 H   0  0  0  0  0  0  0  0  0  0  0  0
  -25.2860  -13.8520   20.3850 C   0  0  0  0  0  0  0  0  0  0  0  0
  -24.2180  -13.1010   20.7860 C   0  0  0  0  0  0  0  0  0  0  0  0
  -24.6480  -11.7390   20.7350 C   0  0  0  0  0  0  0  0  0  0  0  0
  -26.3070  -12.9510   20.1180 N   0  0  0  0  0  0  0  0  0  0  0  0
  -25.9260  -11.6740   20.3830 N   0  0  0  0  0  0  0  0  0  0  0  0
  -23.9060  -10.4920   20.9510 C   0  0  0  0  0  0  0  0  0  0  0  0
  -24.3350   -9.5260   21.8870 C   0  0  0  0  0  3  0  0  0  0  0  0
  -23.5920   -8.3430   22.0880 C   0  0  0  0  0  3  0  0  0  0  0  0
  -22.4070   -8.1160   21.3500 C   0  0  0  0  0  0  0  0  0  0  0  0
  -21.9970   -9.0700   20.4020 C   0  0  0  0  0  3  0  0  0  0  0  0
  -22.7400  -10.2450   20.2000 C   0  0  0  0  0  3  0  0  0  0  0  0
  -21.6360   -6.9840   21.4600 O   0  0  0  0  0  0  0  0  0  0  0  0
  -21.5810   -6.2590   22.6230 C   0  0  0  0  0  0  0  0  0  0  0  0
  -21.1610   -6.8380   23.8400 C   0  0  0  0  0  3  0  0  0  0  0  0
  -21.0520   -6.0400   24.9980 C   0  0  0  0  0  3  0  0  0  0  0  0
  -21.3530   -4.6660   24.9380 C   0  0  0  0  0  0  0  0  0  0  0  0
  -21.7640   -4.0870   23.7240 C   0  0  0  0  0  3  0  0  0  0  0  0
  -21.8750   -4.8810   22.5700 C   0  0  0  0  0  0  0  0  0  0  0  0
  -22.2520   -4.3140   21.3980 F   0  0  0  0  0  0  0  0  0  0  0  0
  -21.2410   -3.8970   26.0460 F   0  0  0  0  0  0  0  0  0  0  0  0
  -22.8400  -13.6030   21.1100 C   0  0  0  0  0  0  0  0  0  0  0  0
  -22.1300  -12.9170   21.9970 N   0  0  0  0  0  0  0  0  0  0  0  0
  -22.4050  -14.6410   20.6120 O   0  0  0  0  0  0  0  0  0  0  0  0
  -22.4970  -12.0770   22.4190 H   0  0  0  0  0  0  0  0  0  0  0  0
  -21.2080  -13.2350   22.2580 H   0  0  0  0  0  0  0  0  0  0  0  0
  -25.4750  -15.2200   20.2040 N   0  0  0  0  0  0  0  0  0  0  0  0
  -24.7290  -15.8910   20.3490 H   0  0  0  0  0  0  0  0  0  0  0  0
  -26.3340  -15.6410   19.8760 H   0  0  0  0  0  0  0  0  0  0  0  0
  1  3  1  0
  2  5  1  0
  2  4  1  0
  4  6  1  0
  5  8  1  0
  5  1  1  0
  6  3  1  0
  6 56  1  0
  6  7  1  6
  8  9  1  0
  9 10  1  0
 11 10  1  0
 11 14  1  0
 12 13  1  0
 13 11  1  0
 14 15  1  0
 15 17  1  0
 16 27  2  0
 17 22  1  0
 18 26  1  0
 18 28  1  0
 19 25  1  0
 19 21  1  0
 20 26  1  0
 21 20  1  0
 22 21  2  0
 23 17  2  0
 24 23  1  0
 24 19  2  0
 25 18  1  0
 26 16  1  0
 28 30  2  0
 29 28  1  0
 31 29  1  0
 32 41  2  0
 32 37  1  0
 33 29  1  0
 33 37  1  0
 34 33  1  0
 35 36  1  0
 35 34  1  0
 36 32  1  0
 37 38  2  0
 38 39  1  0
 40 39  2  0
 41 40  1  0
 42 16  1  0
 42 47  1  0
 42 43  1  0
 43 46  1  1
 43 44  1  0
 45 43  1  0
 47 50  1  0
 48 52  1  0
 48 47  1  0
 49 48  2  0
 52 51  1  0
 54 52  1  0
 54 55  1  0
 54 53  1  0
 56 57  1  0
 57 58  1  0
 58 59  1  0
 59 60  1  0
 61 69  1  0
 62 67  1  0
 63 64  1  0
 63 62  1  0
 65 64  1  0
 65 74  1  0
 65 66  1  0
 67 61  1  0
 67 66  1  0
 68 61  2  0
 69 70  1  0
 69 60  1  0
 71 72  2  0
 72 91  1  0
 73 72  1  0
 73 76  1  0
 74 75  1  0
 74 71  1  0
 75 73  2  0
 76 77  1  0
 77 78  2  0
 79 82  1  0
 79 78  1  0
 80 79  2  0
 81 80  1  0
 81 76  2  0
 82 83  1  0
 83 84  1  0
 84 85  2  0
 86 85  1  0
 86 90  1  0
 87 86  2  0
 88 83  2  0
 88 87  1  0
 89 88  1  0
 91 92  1  0
 92 95  1  0
 92 94  1  0
 93 91  2  0
 96 97  1  0
 96 71  1  0
 98 96  1  0
M  ISO  4  14 101  15 101  61 100  69 100
M  END
>  <TORSDO>  (78) 
F 27

>  <SCORE>  (78) 
-10.473

>  <name>  (78) 
78

>  <ligand_id>  (78) 
78

>  <original_smiles>  (78) 
[H]c1c([H])c([H])c2c(c1[H])C([H])([H])C([H])([H])C([H])([H])C2([H])N([H])C(=O)C1([H])N(C(=O)C([H])(N([H])C(=O)C([H])(N([H])C([H])([H])[H])C([H])([H])[H])C(C([H])([H])[H])(C([H])([H])[H])C([H])([H])[H])C([H])([H])c2c([H])c(OC([H])([H])C([H])(C([H])([H])C([H])([H])[H])C([H])([H])C([H])([H])C([H])([H])C3([H])C([H])([H])C([H])([H])[N+]([H])(C([H])([H])C([H])([H])C([H])([H])C([H])([H])C([H])([H])N([H])C(=O)N4C([H])([H])C([H])([H])C([H])([H])C([H])(n5nc(-c6c([H])c([H])c(Oc7c([H])c([H])c(F)c([H])c7F)c([H])c6[H])c(C(=O)N([H])[H])c5N([H])[H])C4([H])[H])C([H])([H])C3([H])[H])c([H])c([H])c2C1([H])[H]

>  <smiles>  (78) 
[H]c1c([H])c([H])c2c(c1[H])C([H])([H])C([H])([H])C([H])([H])C2([H])N([H])C(=O)C1([H])N(C(=O)C([H])(N([H])C(=O)C([H])(N([H])C([H])([H])[H])C([H])([H])[H])C(C([H])([H])[H])(C([H])([H])[H])C([H])([H])[H])C([H])([H])c2c([H])c(OC([H])([H])C([H])(C([H])([H])C([H])([H])[H])C([H])([H])C([H])([H])C([H])([H])C3([H])C([H])([H])C([H])([H])[N+]([H])(C([H])([H])C([H])([H])C([H])([H])C([H])([H])C([H])([H])N([H])C(=O)N4C([H])([H])C([H])([H])C([H])([H])C([H])(n5nc(-c6c([H])c([H])c(Oc7c([H])c([H])c(F)c([H])c7F)c([H])c6[H])c(C(=O)N([H])[H])c5N([H])[H])C4([H])[H])C([H])([H])C3([H])[H])c([H])c([H])c2C1([H])[H]

$$$$
79:0:0
     RDKit          3D

109117  0  0  1  0  0  0  0  0999 V2000
  -29.3760  -24.8780   19.8730 C   0  0  0  0  0  3  0  0  0  0  0  0
  -30.1750  -20.8680   22.7390 C   0  0  0  0  0  0  0  0  0  0  0  0
  -31.5280  -23.7910   20.8490 C   0  0  0  0  0  2  0  0  0  0  0  0
  -31.8030  -22.5490   21.7120 C   0  0  0  0  0  2  0  0  0  0  0  0
  -29.4870  -22.6790   21.2150 C   0  0  0  0  0  2  0  0  0  0  0  0
  -30.0410  -24.1090   21.0660 C   0  0  2  0  0  0  0  0  0  0  0  0
  -29.8740  -24.8750   22.4090 C   0  0  0  0  0  1  0  0  0  0  0  0
  -30.5000  -21.9230   21.9500 N   0  0  0  0  0  0  0  0  0  0  0  0
  -29.0340  -20.3950   22.6820 O   0  0  0  0  0  0  0  0  0  0  0  0
  -31.9270  -21.4360   24.4870 C   0  0  0  0  0  1  0  0  0  0  0  0
  -32.1440  -19.2470   23.1870 C   0  0  0  0  0  1  0  0  0  0  0  0
  -30.3650  -19.5490   24.8960 C   0  0  0  0  0  1  0  0  0  0  0  0
  -31.1670  -20.2840   23.7920 C   0  0  2  0  0  0  0  0  0  0  0  0
  -28.3120  -24.0010   19.3050 N   0  0  0  0  0  4  0  0  0  0  0  0
  -28.5910  -23.0470   19.4740 H   0  0  0  0  0  0  0  0  0  0  0  0
  -27.4630  -24.1660   19.8230 H   0  0  0  0  0  0  0  0  0  0  0  0
  -27.9440  -24.1080   17.8700 C   0  0  0  0  0  3  0  0  0  0  0  0
  -27.0900  -22.8820   17.4460 C   0  0  0  0  0  0  0  0  0  0  0  0
  -27.1350  -21.7630   18.1990 N   0  0  0  0  0  0  0  0  0  0  0  0
  -26.3950  -22.9520   16.4310 O   0  0  0  0  0  0  0  0  0  0  0  0
  -27.7400  -21.7320   19.0040 H   0  0  0  0  0  0  0  0  0  0  0  0
  -26.5210  -20.4760   17.8690 C   0  0  0  0  0  2  0  0  0  0  0  0
  -27.5960  -19.3700   17.8360 C   0  0  0  0  0  2  0  0  0  0  0  0
  -27.5570  -18.4120   19.0430 C   0  0  0  0  0  2  0  0  0  0  0  0
  -28.9600  -17.8910   19.4060 C   0  0  0  0  0  2  0  0  0  0  0  0
  -29.8930  -15.6960   20.0200 C   0  0  0  0  0  0  0  0  0  0  0  0
  -30.1060  -13.3220   19.4610 C   0  0  0  0  0  2  0  0  0  0  0  0
  -29.1850  -13.0440   18.2540 C   0  0  0  0  0  2  0  0  0  0  0  0
  -27.7600  -12.6990   18.7280 C   0  0  0  0  0  2  0  0  0  0  0  0
  -27.2060  -13.7060   19.7750 C   0  0  0  0  0  3  0  0  0  0  0  0
  -28.2490  -13.9920   20.8820 C   0  0  0  0  0  2  0  0  0  0  0  0
  -29.4990  -14.4150   20.2290 N   0  0  0  0  0  0  0  0  0  0  0  0
  -30.9920  -16.0010   19.5530 O   0  0  0  0  0  0  0  0  0  0  0  0
  -28.9110  -16.6040   20.1030 N   0  0  0  0  0  0  0  0  0  0  0  0
  -28.0250  -16.2950   20.4680 H   0  0  0  0  0  0  0  0  0  0  0  0
  -24.8280  -13.9890   20.7150 C   0  0  0  0  0  0  0  0  0  0  0  0
  -23.8830  -13.0790   21.1030 C   0  0  0  0  0  0  0  0  0  0  0  0
  -24.4770  -11.7920   20.9190 C   0  0  0  0  0  0  0  0  0  0  0  0
  -25.9360  -13.2490   20.3340 N   0  0  0  0  0  0  0  0  0  0  0  0
  -25.7340  -11.9190   20.5100 N   0  0  0  0  0  0  0  0  0  0  0  0
  -23.9050  -10.4470   21.0540 C   0  0  0  0  0  0  0  0  0  0  0  0
  -24.4050   -9.5240   22.0010 C   0  0  0  0  0  3  0  0  0  0  0  0
  -23.8230   -8.2430   22.1250 C   0  0  0  0  0  3  0  0  0  0  0  0
  -22.7330   -7.8750   21.3010 C   0  0  0  0  0  0  0  0  0  0  0  0
  -22.2560   -8.7900   20.3460 C   0  0  0  0  0  3  0  0  0  0  0  0
  -22.8370  -10.0630   20.2200 C   0  0  0  0  0  3  0  0  0  0  0  0
  -22.1240   -6.6440   21.3350 O   0  0  0  0  0  0  0  0  0  0  0  0
  -21.9880   -5.9390   22.5050 C   0  0  0  0  0  0  0  0  0  0  0  0
  -21.2900   -6.4620   23.6150 C   0  0  0  0  0  3  0  0  0  0  0  0
  -21.1140   -5.6760   24.7710 C   0  0  0  0  0  3  0  0  0  0  0  0
  -21.6280   -4.3660   24.8200 C   0  0  0  0  0  0  0  0  0  0  0  0
  -22.3190   -3.8410   23.7120 C   0  0  0  0  0  3  0  0  0  0  0  0
  -22.4960   -4.6240   22.5570 C   0  0  0  0  0  0  0  0  0  0  0  0
  -23.1430   -4.1060   21.4860 F   0  0  0  0  0  0  0  0  0  0  0  0
  -21.4550   -3.6060   25.9260 F   0  0  0  0  0  0  0  0  0  0  0  0
  -22.4720  -13.3770   21.5260 C   0  0  0  0  0  0  0  0  0  0  0  0
  -21.9080  -12.5450   22.3930 N   0  0  0  0  0  0  0  0  0  0  0  0
  -21.8810  -14.3780   21.1230 O   0  0  0  0  0  0  0  0  0  0  0  0
  -22.4050  -11.7370   22.7380 H   0  0  0  0  0  0  0  0  0  0  0  0
  -20.9660  -12.7170   22.7190 H   0  0  0  0  0  0  0  0  0  0  0  0
  -24.8360  -15.3790   20.6360 N   0  0  0  0  0  0  0  0  0  0  0  0
  -24.0160  -15.9360   20.8450 H   0  0  0  0  0  0  0  0  0  0  0  0
  -25.5950  -15.9210   20.2420 H   0  0  0  0  0  0  0  0  0  0  0  0
  -30.2550  -23.1360   17.1150 C   0  0  0  0  0  1  0  0  0  0  0  0
  -29.1820  -24.2310   16.9090 C   0  0  0  0  0  3  0  0  0  0  0  0
  -28.9410  -26.7980   16.5470 C   0  0  0  0  0  1  0  0  0  0  0  0
  -29.8740  -25.6130   16.8320 C   0  0  0  0  0  2  0  0  0  0  0  0
  -28.8230  -26.2590   20.3160 C   0  0  0  0  0  2  0  0  0  0  0  0
  -28.6940  -27.2470   19.2850 O   0  0  0  0  0  0  0  0  0  0  0  0
  -25.1020  -31.4050   23.7460 C   0  0  0  0  0  0  0  0  0  0  0  0
  -27.5270  -27.9390   19.4880 C   0  0  0  0  0  0  0  0  0  0  0  0
  -23.7510  -30.2150   22.0470 C   0  0  0  0  0  3  0  0  0  0  0  0
  -25.0630  -29.1440   20.1390 C   0  0  0  0  0  0  0  0  0  0  0  0
  -26.1730  -30.8780   21.5600 C   0  0  0  0  0  2  0  0  0  0  0  0
  -26.2560  -29.6730   20.6470 C   0  0  0  0  0  0  0  0  0  0  0  0
  -27.4940  -29.0780   20.3220 C   0  0  0  0  0  3  0  0  0  0  0  0
  -26.3230  -27.4280   18.9630 C   0  0  0  0  0  3  0  0  0  0  0  0
  -25.0900  -28.0220   19.2910 C   0  0  0  0  0  3  0  0  0  0  0  0
  -23.7800  -29.8330   20.5420 C   0  0  0  0  0  2  0  0  0  0  0  0
  -25.0350  -30.8370   22.5090 N   0  0  0  0  0  0  0  0  0  0  0  0
  -24.1070  -31.4560   24.4820 O   0  0  0  0  0  0  0  0  0  0  0  0
  -23.3450  -28.9700   22.8670 C   0  0  0  0  0  0  0  0  0  0  0  0
  -22.2310  -28.3310   22.4710 N   0  0  0  0  0  0  0  0  0  0  0  0
  -24.0350  -28.5830   23.8130 O   0  0  0  0  0  0  0  0  0  0  0  0
  -21.7160  -28.7170   21.6920 H   0  0  0  0  0  0  0  0  0  0  0  0
  -19.9740  -25.5710   21.8920 C   0  0  0  0  0  0  0  0  0  0  0  0
  -21.6780  -27.1160   23.0690 C   0  0  0  0  0  3  0  0  0  0  0  0
  -22.6720  -25.9380   22.9540 C   0  0  0  0  0  2  0  0  0  0  0  0
  -22.4500  -25.0800   21.7060 C   0  0  0  0  0  2  0  0  0  0  0  0
  -21.0330  -24.4980   21.6990 C   0  0  0  0  0  2  0  0  0  0  0  0
  -20.2810  -26.8060   22.5210 C   0  0  0  0  0  0  0  0  0  0  0  0
  -19.2680  -27.7820   22.6440 C   0  0  0  0  0  3  0  0  0  0  0  0
  -17.9710  -27.5390   22.1550 C   0  0  0  0  0  3  0  0  0  0  0  0
  -17.6690  -26.3100   21.5470 C   0  0  0  0  0  3  0  0  0  0  0  0
  -18.6670  -25.3260   21.4210 C   0  0  0  0  0  3  0  0  0  0  0  0
  -26.4220  -32.0390   24.2860 C   0  0  0  0  0  3  0  0  0  0  0  0
  -26.1190  -33.4200   24.6850 N   0  0  0  0  0  0  0  0  0  0  0  0
  -26.3870  -34.5020   23.9430 C   0  0  0  0  0  0  0  0  0  0  0  0
  -26.9900  -34.4450   22.8680 O   0  0  0  0  0  0  0  0  0  0  0  0
  -25.5750  -33.5360   25.5270 H   0  0  0  0  0  0  0  0  0  0  0  0
  -24.6330  -36.2940   23.7380 C   0  0  0  0  0  1  0  0  0  0  0  0
  -25.9100  -35.8660   24.4790 C   0  0  0  0  0  3  0  0  0  0  0  0
  -28.0710  -36.7340   25.2590 C   0  0  0  0  0  1  0  0  0  0  0  0
  -26.9310  -36.9310   24.3680 N   0  0  0  0  0  0  0  0  0  0  0  0
  -26.5250  -37.8410   24.5670 H   0  0  0  0  0  0  0  0  0  0  0  0
  -27.0530  -31.2340   25.4880 C   0  0  1  0  0  0  0  0  0  0  0  0
  -26.0550  -30.9370   26.6300 C   0  0  0  0  0  1  0  0  0  0  0  0
  -27.6290  -29.8840   24.9990 C   0  0  0  0  0  1  0  0  0  0  0  0
  -28.2390  -32.0290   26.0870 C   0  0  0  0  0  1  0  0  0  0  0  0
  1 68  1  0
  1  6  1  0
  2 13  1  0
  3  6  1  0
  3  4  1  0
  4  8  1  0
  5  8  1  0
  6  5  1  0
  6  7  1  1
  8  2  1  0
  9  2  2  0
 13 11  1  6
 13 10  1  0
 13 12  1  0
 14 15  1  0
 14 16  1  0
 14  1  1  0
 17 18  1  0
 17 14  1  0
 18 19  1  0
 19 21  1  0
 20 18  2  0
 22 19  1  0
 23 22  1  0
 23 24  1  0
 24 25  1  0
 25 34  1  0
 26 34  1  0
 26 32  1  0
 27 32  1  0
 28 29  1  0
 28 27  1  0
 30 29  1  0
 30 39  1  0
 30 31  1  0
 32 31  1  0
 33 26  2  0
 34 35  1  0
 36 37  2  0
 37 56  1  0
 38 41  1  0
 38 37  1  0
 39 40  1  0
 39 36  1  0
 40 38  2  0
 41 42  1  0
 42 43  2  0
 44 47  1  0
 44 43  1  0
 45 44  2  0
 46 45  1  0
 46 41  2  0
 47 48  1  0
 48 53  2  0
 48 49  1  0
 49 50  2  0
 50 51  1  0
 51 55  1  0
 52 51  2  0
 53 52  1  0
 54 53  1  0
 56 57  1  0
 57 60  1  0
 57 59  1  0
 58 56  2  0
 61 36  1  0
 61 62  1  0
 63 61  1  0
 65 64  1  0
 65 17  1  0
 66 67  1  0
 67 65  1  0
 69 71  1  0
 69 68  1  0
 70 81  2  0
 71 76  1  0
 72 80  1  0
 72 82  1  0
 73 79  1  0
 73 75  1  0
 74 80  1  0
 75 74  1  0
 76 75  2  0
 77 78  1  0
 77 71  2  0
 78 73  2  0
 79 72  1  0
 80 70  1  0
 82 84  2  0
 83 82  1  0
 85 83  1  0
 86 91  1  0
 87 83  1  0
 88 87  1  0
 89 88  1  0
 90 89  1  0
 90 86  1  0
 91 92  2  0
 91 87  1  0
 93 92  1  0
 94 93  2  0
 95 94  1  0
 95 86  2  0
 96 70  1  0
 96 97  1  0
 96106  1  0
 97100  1  0
 98102  1  0
 98 97  1  0
 99 98  2  0
102101  1  0
104102  1  0
104105  1  0
104103  1  0
106109  1  1
106107  1  0
108106  1  0
M  ISO  4  26 100  34 100  68 101  69 101
M  END
>  <TORSDO>  (79) 
F 28

>  <SCORE>  (79) 
-6.664

>  <name>  (79) 
79

>  <ligand_id>  (79) 
79

>  <original_smiles>  (79) 
[H]c1c([H])c([H])c2c(c1[H])C([H])([H])C([H])([H])C([H])([H])C2([H])N([H])C(=O)C1([H])N(C(=O)C([H])(N([H])C(=O)C([H])(N([H])C([H])([H])[H])C([H])([H])[H])C(C([H])([H])[H])(C([H])([H])[H])C([H])([H])[H])C([H])([H])c2c([H])c(OC([H])([H])C([H])(C3(C([H])([H])[H])C([H])([H])N(C(=O)C(C([H])([H])[H])(C([H])([H])[H])C([H])([H])[H])C([H])([H])C3([H])[H])[N+]([H])([H])C([H])(C(=O)N([H])C([H])([H])C([H])([H])C([H])([H])C([H])([H])N([H])C(=O)N3C([H])([H])C([H])([H])C([H])([H])C([H])(n4nc(-c5c([H])c([H])c(Oc6c([H])c([H])c(F)c([H])c6F)c([H])c5[H])c(C(=O)N([H])[H])c4N([H])[H])C3([H])[H])C([H])(C([H])([H])[H])C([H])([H])C([H])([H])[H])c([H])c([H])c2C1([H])[H]

>  <smiles>  (79) 
[H]c1c([H])c([H])c2c(c1[H])C([H])([H])C([H])([H])C([H])([H])C2([H])N([H])C(=O)C1([H])N(C(=O)C([H])(N([H])C(=O)C([H])(N([H])C([H])([H])[H])C([H])([H])[H])C(C([H])([H])[H])(C([H])([H])[H])C([H])([H])[H])C([H])([H])c2c([H])c(OC([H])([H])C([H])(C3(C([H])([H])[H])C([H])([H])N(C(=O)C(C([H])([H])[H])(C([H])([H])[H])C([H])([H])[H])C([H])([H])C3([H])[H])[N+]([H])([H])C([H])(C(=O)N([H])C([H])([H])C([H])([H])C([H])([H])C([H])([H])N([H])C(=O)N3C([H])([H])C([H])([H])C([H])([H])C([H])(n4nc(-c5c([H])c([H])c(Oc6c([H])c([H])c(F)c([H])c6F)c([H])c5[H])c(C(=O)N([H])[H])c4N([H])[H])C3([H])[H])C([H])(C([H])([H])[H])C([H])([H])C([H])([H])[H])c([H])c([H])c2C1([H])[H]

$$$$
80:0:0
     RDKit          3D

101109  0  0  1  0  0  0  0  0999 V2000
  -33.6190  -24.5790   19.9340 C   0  0  0  0  0  2  0  0  0  0  0  0
  -33.6090  -23.0440   20.0100 C   0  0  0  0  0  2  0  0  0  0  0  0
  -33.7590  -22.4680   21.4250 C   0  0  0  0  0  2  0  0  0  0  0  0
  -33.7670  -20.9330   21.3780 C   0  0  0  0  0  2  0  0  0  0  0  0
  -33.7440  -20.2590   22.7660 C   0  0  0  0  0  2  0  0  0  0  0  0
  -33.8240  -18.7150   22.7210 C   0  0  0  0  0  2  0  0  0  0  0  0
  -32.0540  -17.1140   21.8910 C   0  0  0  0  0  0  0  0  0  0  0  0
  -32.8720  -18.1710   21.7590 N   0  0  0  0  0  0  0  0  0  0  0  0
  -32.0720  -16.3450   22.8520 O   0  0  0  0  0  0  0  0  0  0  0  0
  -32.7450  -18.7240   20.9230 H   0  0  0  0  0  0  0  0  0  0  0  0
  -30.7710  -14.5400   20.4710 C   0  0  0  0  0  0  0  0  0  0  0  0
  -30.3890  -12.3420   19.4170 C   0  0  0  0  0  2  0  0  0  0  0  0
  -29.4510  -12.4600   18.2010 C   0  0  0  0  0  2  0  0  0  0  0  0
  -27.9930  -12.2660   18.6510 C   0  0  0  0  0  2  0  0  0  0  0  0
  -27.6210  -13.1760   19.8460 C   0  0  0  0  0  3  0  0  0  0  0  0
  -28.6930  -13.1160   20.9660 C   0  0  0  0  0  2  0  0  0  0  0  0
  -30.0050  -13.4070   20.3660 N   0  0  0  0  0  0  0  0  0  0  0  0
  -31.9680  -14.5160   20.1880 O   0  0  0  0  0  0  0  0  0  0  0  0
  -28.7770  -17.7020   20.2120 C   0  0  0  0  0  2  0  0  0  0  0  0
  -29.9720  -18.1330   21.0180 C   0  0  0  0  0  2  0  0  0  0  0  0
  -28.8380  -16.1750   20.2650 C   0  0  0  0  0  2  0  0  0  0  0  0
  -30.9980  -17.0160   20.7750 C   0  0  0  0  0  3  0  0  0  0  0  0
  -30.1990  -15.7700   20.6520 N   0  0  0  0  0  0  0  0  0  0  0  0
  -25.2420  -13.8060   20.5740 C   0  0  0  0  0  0  0  0  0  0  0  0
  -24.1690  -13.0390   20.9260 C   0  0  0  0  0  0  0  0  0  0  0  0
  -24.6230  -11.6840   20.8850 C   0  0  0  0  0  0  0  0  0  0  0  0
  -26.2810  -12.9170   20.3400 N   0  0  0  0  0  0  0  0  0  0  0  0
  -25.9140  -11.6380   20.5920 N   0  0  0  0  0  0  0  0  0  0  0  0
  -23.8930  -10.4240   21.0490 C   0  0  0  0  0  0  0  0  0  0  0  0
  -24.3510   -9.4140   21.9240 C   0  0  0  0  0  3  0  0  0  0  0  0
  -23.6200   -8.2170   22.0760 C   0  0  0  0  0  3  0  0  0  0  0  0
  -22.4200   -8.0220   21.3530 C   0  0  0  0  0  0  0  0  0  0  0  0
  -21.9840   -9.0200   20.4640 C   0  0  0  0  0  3  0  0  0  0  0  0
  -22.7150  -10.2080   20.3090 C   0  0  0  0  0  3  0  0  0  0  0  0
  -21.6570   -6.8830   21.4240 O   0  0  0  0  0  0  0  0  0  0  0  0
  -21.6800   -6.0690   22.5290 C   0  0  0  0  0  0  0  0  0  0  0  0
  -21.3990   -6.5620   23.8230 C   0  0  0  0  0  3  0  0  0  0  0  0
  -21.3640   -5.6770   24.9190 C   0  0  0  0  0  3  0  0  0  0  0  0
  -21.6040   -4.3040   24.7250 C   0  0  0  0  0  0  0  0  0  0  0  0
  -21.8810   -3.8120   23.4390 C   0  0  0  0  0  3  0  0  0  0  0  0
  -21.9180   -4.6920   22.3430 C   0  0  0  0  0  0  0  0  0  0  0  0
  -22.1650   -4.2120   21.1000 F   0  0  0  0  0  0  0  0  0  0  0  0
  -21.5620   -3.4540   25.7770 F   0  0  0  0  0  0  0  0  0  0  0  0
  -22.7720  -13.5200   21.1940 C   0  0  0  0  0  0  0  0  0  0  0  0
  -22.0360  -12.8190   22.0490 N   0  0  0  0  0  0  0  0  0  0  0  0
  -22.3430  -14.5530   20.6800 O   0  0  0  0  0  0  0  0  0  0  0  0
  -22.3950  -11.9810   22.4830 H   0  0  0  0  0  0  0  0  0  0  0  0
  -21.1010  -13.1260   22.2790 H   0  0  0  0  0  0  0  0  0  0  0  0
  -25.4120  -15.1800   20.4000 N   0  0  0  0  0  0  0  0  0  0  0  0
  -24.6500  -15.8420   20.5050 H   0  0  0  0  0  0  0  0  0  0  0  0
  -26.2640  -15.6130   20.0720 H   0  0  0  0  0  0  0  0  0  0  0  0
  -33.4790  -25.0280   18.4720 C   0  0  0  0  0  2  0  0  0  0  0  0
  -33.2570  -26.5330   18.2850 C   0  0  0  0  0  2  0  0  0  0  0  0
  -32.9360  -26.8750   16.8180 C   0  0  0  0  0  2  0  0  0  0  0  0
  -31.8430  -27.9440   16.6620 C   0  0  0  0  0  2  0  0  0  0  0  0
  -30.4100  -27.4040   16.9100 C   0  0  0  0  0  2  0  0  0  0  0  0
  -29.8550  -27.6360   18.3060 C   0  0  0  0  0  0  0  0  0  0  0  0
  -30.0670  -28.7180   18.9350 N   0  0  0  0  0  0  0  0  0  0  0  0
  -30.6300  -29.3400   18.3690 H   0  0  0  0  0  0  0  0  0  0  0  0
  -29.0110  -26.4910   18.8680 C   0  0  0  0  0  2  0  0  0  0  0  0
  -28.4220  -26.7900   20.1270 O   0  0  0  0  0  0  0  0  0  0  0  0
  -24.6070  -31.8710   23.2140 C   0  0  0  0  0  0  0  0  0  0  0  0
  -27.2450  -27.4930   20.1020 C   0  0  0  0  0  0  0  0  0  0  0  0
  -23.3970  -30.4910   21.5590 C   0  0  0  0  0  3  0  0  0  0  0  0
  -24.8450  -28.9690   20.1190 C   0  0  0  0  0  0  0  0  0  0  0  0
  -25.9180  -30.8570   21.3680 C   0  0  0  0  0  2  0  0  0  0  0  0
  -25.9950  -29.4940   20.7190 C   0  0  0  0  0  0  0  0  0  0  0  0
  -27.1910  -28.7580   20.7180 C   0  0  0  0  0  3  0  0  0  0  0  0
  -26.0810  -26.9650   19.5020 C   0  0  0  0  0  3  0  0  0  0  0  0
  -24.8790  -27.7020   19.5070 C   0  0  0  0  0  3  0  0  0  0  0  0
  -23.6040  -29.8250   20.1740 C   0  0  0  0  0  2  0  0  0  0  0  0
  -24.6570  -31.0890   22.1030 N   0  0  0  0  0  0  0  0  0  0  0  0
  -23.5250  -32.1450   23.7530 O   0  0  0  0  0  0  0  0  0  0  0  0
  -22.7380  -29.4650   22.5040 C   0  0  0  0  0  0  0  0  0  0  0  0
  -21.4110  -29.3000   22.3740 N   0  0  0  0  0  0  0  0  0  0  0  0
  -23.4160  -28.8190   23.3070 O   0  0  0  0  0  0  0  0  0  0  0  0
  -20.9300  -29.8530   21.6780 H   0  0  0  0  0  0  0  0  0  0  0  0
  -18.0250  -28.1450   22.8510 C   0  0  0  0  0  0  0  0  0  0  0  0
  -20.5850  -28.3680   23.1360 C   0  0  0  0  0  3  0  0  0  0  0  0
  -20.6780  -26.9410   22.5470 C   0  0  0  0  0  2  0  0  0  0  0  0
  -19.5740  -26.6430   21.5290 C   0  0  0  0  0  2  0  0  0  0  0  0
  -18.1900  -26.8030   22.1630 C   0  0  0  0  0  2  0  0  0  0  0  0
  -19.1510  -28.8880   23.2930 C   0  0  0  0  0  0  0  0  0  0  0  0
  -18.9430  -30.1500   23.8880 C   0  0  0  0  0  3  0  0  0  0  0  0
  -17.6430  -30.6610   24.0580 C   0  0  0  0  0  3  0  0  0  0  0  0
  -16.5320  -29.9120   23.6360 C   0  0  0  0  0  3  0  0  0  0  0  0
  -16.7240  -28.6580   23.0330 C   0  0  0  0  0  3  0  0  0  0  0  0
  -25.9010  -32.4810   23.8400 C   0  0  0  0  0  3  0  0  0  0  0  0
  -25.5940  -33.8610   24.2340 N   0  0  0  0  0  0  0  0  0  0  0  0
  -25.9080  -34.9440   23.5110 C   0  0  0  0  0  0  0  0  0  0  0  0
  -26.5610  -34.8850   22.4660 O   0  0  0  0  0  0  0  0  0  0  0  0
  -25.0230  -33.9870   25.0560 H   0  0  0  0  0  0  0  0  0  0  0  0
  -24.1510  -36.7230   23.2640 C   0  0  0  0  0  1  0  0  0  0  0  0
  -25.4140  -36.3080   24.0340 C   0  0  0  0  0  3  0  0  0  0  0  0
  -27.5600  -37.1770   24.8490 C   0  0  0  0  0  1  0  0  0  0  0  0
  -26.4320  -37.3750   23.9420 N   0  0  0  0  0  0  0  0  0  0  0  0
  -26.0230  -38.2850   24.1410 H   0  0  0  0  0  0  0  0  0  0  0  0
  -26.4530  -31.6550   25.0670 C   0  0  1  0  0  0  0  0  0  0  0  0
  -25.3800  -31.3650   26.1370 C   0  0  0  0  0  1  0  0  0  0  0  0
  -27.0380  -30.2980   24.6080 C   0  0  0  0  0  1  0  0  0  0  0  0
  -27.6100  -32.4290   25.7440 C   0  0  0  0  0  1  0  0  0  0  0  0
  1  2  1  0
  2  3  1  0
  4  3  1  0
  4  5  1  0
  6  5  1  0
  7  9  2  0
  8  7  1  0
  8  6  1  0
 10  8  1  0
 11 23  1  0
 12 17  1  0
 13 14  1  0
 13 12  1  0
 15 14  1  0
 15 27  1  0
 15 16  1  0
 17 11  1  0
 17 16  1  0
 18 11  2  0
 19 21  1  0
 19 20  1  0
 21 23  1  0
 22 20  1  0
 22  7  1  0
 23 22  1  0
 24 25  2  0
 25 44  1  0
 26 25  1  0
 26 29  1  0
 27 24  1  0
 27 28  1  0
 28 26  2  0
 29 30  1  0
 30 31  2  0
 32 35  1  0
 32 31  1  0
 33 32  2  0
 34 33  1  0
 34 29  2  0
 35 36  1  0
 36 37  1  0
 37 38  2  0
 39 38  1  0
 39 43  1  0
 40 39  2  0
 41 36  2  0
 41 40  1  0
 42 41  1  0
 44 45  1  0
 45 48  1  0
 45 47  1  0
 46 44  2  0
 49 50  1  0
 49 24  1  0
 51 49  1  0
 52  1  1  0
 53 52  1  0
 54 53  1  0
 55 54  1  0
 55 56  1  0
 56 57  1  0
 57 60  1  0
 57 58  2  0
 59 58  1  0
 60 61  1  0
 62 73  2  0
 63 61  1  0
 63 68  1  0
 64 72  1  0
 64 74  1  0
 65 71  1  0
 65 67  1  0
 66 72  1  0
 67 66  1  0
 68 67  2  0
 69 70  1  0
 69 63  2  0
 70 65  2  0
 71 64  1  0
 72 62  1  0
 74 76  2  0
 75 74  1  0
 77 75  1  0
 78 87  2  0
 78 83  1  0
 79 75  1  0
 79 83  1  0
 80 79  1  0
 81 82  1  0
 81 80  1  0
 82 78  1  0
 83 84  2  0
 84 85  1  0
 86 85  2  0
 87 86  1  0
 88 62  1  0
 88 89  1  0
 88 98  1  0
 89 92  1  0
 90 94  1  0
 90 89  1  0
 91 90  2  0
 94 93  1  0
 96 94  1  0
 96 97  1  0
 96 95  1  0
 98101  1  1
 98 99  1  0
100 98  1  0
M  ISO  4  11 100  23 100  60 101  61 101
M  END
>  <TORSDO>  (80) 
F 29

>  <SCORE>  (80) 
-5.447

>  <name>  (80) 
80

>  <ligand_id>  (80) 
80

>  <original_smiles>  (80) 
[H]N=C(C([H])([H])Oc1c([H])c([H])c2c(c1[H])C([H])([H])N(C(=O)C([H])(N([H])C(=O)C([H])(N([H])C([H])([H])[H])C([H])([H])[H])C(C([H])([H])[H])(C([H])([H])[H])C([H])([H])[H])C([H])(C(=O)N([H])C1([H])c3c([H])c([H])c([H])c([H])c3C([H])([H])C([H])([H])C1([H])[H])C2([H])[H])C([H])([H])C([H])([H])C([H])([H])C([H])([H])C([H])([H])C([H])([H])C([H])([H])C([H])([H])C([H])([H])C([H])([H])C([H])([H])N([H])C(=O)C1([H])N(C(=O)N2C([H])([H])C([H])([H])C([H])([H])C([H])(n3nc(-c4c([H])c([H])c(Oc5c([H])c([H])c(F)c([H])c5F)c([H])c4[H])c(C(=O)N([H])[H])c3N([H])[H])C2([H])[H])C([H])([H])C([H])([H])C1([H])[H]

>  <smiles>  (80) 
[H]N=C(C([H])([H])Oc1c([H])c([H])c2c(c1[H])C([H])([H])N(C(=O)C([H])(N([H])C(=O)C([H])(N([H])C([H])([H])[H])C([H])([H])[H])C(C([H])([H])[H])(C([H])([H])[H])C([H])([H])[H])C([H])(C(=O)N([H])C1([H])c3c([H])c([H])c([H])c([H])c3C([H])([H])C([H])([H])C1([H])[H])C2([H])[H])C([H])([H])C([H])([H])C([H])([H])C([H])([H])C([H])([H])C([H])([H])C([H])([H])C([H])([H])C([H])([H])C([H])([H])C([H])([H])N([H])C(=O)C1([H])N(C(=O)N2C([H])([H])C([H])([H])C([H])([H])C([H])(n3nc(-c4c([H])c([H])c(Oc5c([H])c([H])c(F)c([H])c5F)c([H])c4[H])c(C(=O)N([H])[H])c3N([H])[H])C2([H])[H])C([H])([H])C([H])([H])C1([H])[H]

$$$$
81:0:0
     RDKit          3D

 96104  0  0  1  0  0  0  0  0999 V2000
  -30.7970  -20.0350   22.5570 C   0  0  0  0  0  2  0  0  0  0  0  0
  -30.9730  -18.5290   22.1880 C   0  0  0  0  0  2  0  0  0  0  0  0
  -29.5690  -19.5290   20.6080 C   0  0  0  0  0  2  0  0  0  0  0  0
  -30.2530  -20.7280   21.2810 C   0  0  0  0  0  3  0  0  0  0  0  0
  -30.5900  -18.4470   20.7620 N   0  0  2  0  0  4  0  0  0  0  0  0
  -31.4020  -18.8090   20.2850 H   0  0  0  0  0  0  0  0  0  0  0  0
  -29.3930  -22.0090   21.5050 C   0  0  0  0  0  0  0  0  0  0  0  0
  -29.7880  -23.1500   20.8950 N   0  0  0  0  0  0  0  0  0  0  0  0
  -28.4270  -21.9790   22.2680 O   0  0  0  0  0  0  0  0  0  0  0  0
  -30.5590  -23.0720   20.2440 H   0  0  0  0  0  0  0  0  0  0  0  0
  -29.3800  -24.5430   21.2140 C   0  0  0  0  0  2  0  0  0  0  0  0
  -28.4610  -25.2170   20.1540 C   0  0  0  0  0  2  0  0  0  0  0  0
  -28.5750  -26.6660   20.1340 O   0  0  0  0  0  0  0  0  0  0  0  0
  -24.6100  -31.7620   23.1060 C   0  0  0  0  0  0  0  0  0  0  0  0
  -27.4050  -27.4060   20.0350 C   0  0  0  0  0  0  0  0  0  0  0  0
  -23.4650  -30.3590   21.4220 C   0  0  0  0  0  3  0  0  0  0  0  0
  -24.9770  -28.8810   19.9930 C   0  0  0  0  0  0  0  0  0  0  0  0
  -25.9840  -30.7830   21.2630 C   0  0  0  0  0  2  0  0  0  0  0  0
  -26.1140  -29.4210   20.6060 C   0  0  0  0  0  0  0  0  0  0  0  0
  -27.3320  -28.6970   20.6120 C   0  0  0  0  0  3  0  0  0  0  0  0
  -26.2550  -26.8980   19.3840 C   0  0  0  0  0  3  0  0  0  0  0  0
  -25.0480  -27.6250   19.3660 C   0  0  0  0  0  3  0  0  0  0  0  0
  -23.7110  -29.7110   20.0340 C   0  0  0  0  0  2  0  0  0  0  0  0
  -24.7030  -30.9820   21.9900 N   0  0  0  0  0  0  0  0  0  0  0  0
  -23.5150  -31.9960   23.6350 O   0  0  0  0  0  0  0  0  0  0  0  0
  -22.8250  -29.3050   22.3560 C   0  0  0  0  0  0  0  0  0  0  0  0
  -21.4960  -29.1380   22.2470 N   0  0  0  0  0  0  0  0  0  0  0  0
  -23.5180  -28.6480   23.1380 O   0  0  0  0  0  0  0  0  0  0  0  0
  -20.9980  -29.7260   21.5940 H   0  0  0  0  0  0  0  0  0  0  0  0
  -18.1160  -27.9880   22.8040 C   0  0  0  0  0  0  0  0  0  0  0  0
  -20.6860  -28.1770   22.9950 C   0  0  0  0  0  3  0  0  0  0  0  0
  -20.7340  -26.7760   22.3420 C   0  0  0  0  0  2  0  0  0  0  0  0
  -19.5900  -26.5310   21.3520 C   0  0  0  0  0  2  0  0  0  0  0  0
  -18.2350  -26.6720   22.0530 C   0  0  0  0  0  2  0  0  0  0  0  0
  -19.2660  -28.7000   23.2340 C   0  0  0  0  0  0  0  0  0  0  0  0
  -19.1000  -29.9330   23.9000 C   0  0  0  0  0  3  0  0  0  0  0  0
  -17.8160  -30.4560   24.1390 C   0  0  0  0  0  3  0  0  0  0  0  0
  -16.6780  -29.7390   23.7260 C   0  0  0  0  0  3  0  0  0  0  0  0
  -16.8290  -28.5070   23.0640 C   0  0  0  0  0  3  0  0  0  0  0  0
  -25.8690  -32.4130   23.7590 C   0  0  0  0  0  3  0  0  0  0  0  0
  -25.5160  -33.7960   24.1080 N   0  0  0  0  0  0  0  0  0  0  0  0
  -25.8560  -34.8730   23.3890 C   0  0  0  0  0  0  0  0  0  0  0  0
  -26.5710  -34.8090   22.3850 O   0  0  0  0  0  0  0  0  0  0  0  0
  -24.8780  -33.9180   24.8800 H   0  0  0  0  0  0  0  0  0  0  0  0
  -24.1240  -36.6560   22.9840 C   0  0  0  0  0  1  0  0  0  0  0  0
  -25.3180  -36.2390   23.8570 C   0  0  0  0  0  3  0  0  0  0  0  0
  -27.3810  -37.1320   24.8480 C   0  0  0  0  0  1  0  0  0  0  0  0
  -26.3380  -37.3100   23.8410 N   0  0  0  0  0  0  0  0  0  0  0  0
  -25.9070  -38.2190   23.9870 H   0  0  0  0  0  0  0  0  0  0  0  0
  -26.3860  -31.6310   25.0300 C   0  0  1  0  0  0  0  0  0  0  0  0
  -25.2890  -31.3510   26.0830 C   0  0  0  0  0  1  0  0  0  0  0  0
  -27.0040  -30.2730   24.6170 C   0  0  0  0  0  1  0  0  0  0  0  0
  -27.5030  -32.4440   25.7280 C   0  0  0  0  0  1  0  0  0  0  0  0
  -30.3880  -17.1290   20.0480 C   0  0  0  0  0  3  0  0  0  0  0  0
  -31.2140  -14.6930   20.6910 C   0  0  0  0  0  0  0  0  0  0  0  0
  -30.9870  -12.4210   19.7310 C   0  0  0  0  0  2  0  0  0  0  0  0
  -30.0950  -12.4330   18.4670 C   0  0  0  0  0  2  0  0  0  0  0  0
  -28.5980  -12.3870   18.8230 C   0  0  0  0  0  2  0  0  0  0  0  0
  -28.2040  -13.3540   19.9680 C   0  0  0  0  0  3  0  0  0  0  0  0
  -29.1940  -13.2470   21.1530 C   0  0  0  0  0  2  0  0  0  0  0  0
  -30.5490  -13.5000   20.6370 N   0  0  0  0  0  0  0  0  0  0  0  0
  -32.4140  -14.7850   20.4380 O   0  0  0  0  0  0  0  0  0  0  0  0
  -30.3950  -15.7860   20.7360 N   0  0  0  0  0  0  0  0  0  0  0  0
  -29.4700  -15.5200   21.0390 H   0  0  0  0  0  0  0  0  0  0  0  0
  -25.8030  -14.0760   20.5480 C   0  0  0  0  0  0  0  0  0  0  0  0
  -24.6860  -13.3530   20.8690 C   0  0  0  0  0  0  0  0  0  0  0  0
  -25.0950  -11.9840   20.8880 C   0  0  0  0  0  0  0  0  0  0  0  0
  -26.8220  -13.1480   20.3910 N   0  0  0  0  0  0  0  0  0  0  0  0
  -26.3970  -11.8900   20.6630 N   0  0  0  0  0  0  0  0  0  0  0  0
  -24.3130  -10.7530   21.0490 C   0  0  0  0  0  0  0  0  0  0  0  0
  -24.6590   -9.7810   22.0110 C   0  0  0  0  0  3  0  0  0  0  0  0
  -23.8800   -8.6140   22.1630 C   0  0  0  0  0  3  0  0  0  0  0  0
  -22.7380   -8.4110   21.3500 C   0  0  0  0  0  0  0  0  0  0  0  0
  -22.4120   -9.3730   20.3760 C   0  0  0  0  0  3  0  0  0  0  0  0
  -23.1930  -10.5310   20.2230 C   0  0  0  0  0  3  0  0  0  0  0  0
  -21.9350   -7.2960   21.4120 O   0  0  0  0  0  0  0  0  0  0  0  0
  -21.7980   -6.5740   22.5690 C   0  0  0  0  0  0  0  0  0  0  0  0
  -21.3080   -7.1560   23.7610 C   0  0  0  0  0  3  0  0  0  0  0  0
  -21.1080   -6.3550   24.9030 C   0  0  0  0  0  3  0  0  0  0  0  0
  -21.3920   -4.9780   24.8580 C   0  0  0  0  0  0  0  0  0  0  0  0
  -21.8720   -4.3950   23.6710 C   0  0  0  0  0  3  0  0  0  0  0  0
  -22.0700   -5.1920   22.5300 C   0  0  0  0  0  0  0  0  0  0  0  0
  -22.5090   -4.6220   21.3820 F   0  0  0  0  0  0  0  0  0  0  0  0
  -21.1920   -4.2090   25.9550 F   0  0  0  0  0  0  0  0  0  0  0  0
  -23.2950  -13.8850   21.0470 C   0  0  0  0  0  0  0  0  0  0  0  0
  -22.4950  -13.2380   21.8840 N   0  0  0  0  0  0  0  0  0  0  0  0
  -22.9280  -14.9120   20.4770 O   0  0  0  0  0  0  0  0  0  0  0  0
  -22.8070  -12.4060   22.3630 H   0  0  0  0  0  0  0  0  0  0  0  0
  -21.5600  -13.5810   22.0470 H   0  0  0  0  0  0  0  0  0  0  0  0
  -26.0300  -15.4350   20.3550 N   0  0  0  0  0  0  0  0  0  0  0  0
  -25.2640  -16.1020   20.3840 H   0  0  0  0  0  0  0  0  0  0  0  0
  -26.8770  -15.8330   19.9770 H   0  0  0  0  0  0  0  0  0  0  0  0
  -30.3170  -18.1250   17.6420 C   0  0  0  0  0  1  0  0  0  0  0  0
  -31.1280  -15.8290   17.9130 C   0  0  0  0  0  1  0  0  0  0  0  0
  -32.5340  -17.7450   18.7050 C   0  0  0  0  0  1  0  0  0  0  0  0
  -31.0890  -17.1970   18.6170 C   0  0  2  0  0  0  0  0  0  0  0  0
  2  1  1  0
  3  5  1  0
  3  4  1  0
  4  7  1  0
  4  1  1  0
  5  2  1  0
  5  6  1  6
  7  9  2  0
  8 11  1  0
  8  7  1  0
 10  8  1  0
 12 11  1  0
 13 12  1  0
 14 25  2  0
 15 13  1  0
 15 20  1  0
 16 24  1  0
 16 26  1  0
 17 23  1  0
 17 19  1  0
 18 24  1  0
 19 20  2  0
 19 18  1  0
 21 15  2  0
 22 21  1  0
 22 17  2  0
 23 16  1  0
 24 14  1  0
 26 28  2  0
 27 26  1  0
 29 27  1  0
 30 39  2  0
 30 35  1  0
 31 27  1  0
 31 35  1  0
 32 31  1  0
 33 34  1  0
 33 32  1  0
 34 30  1  0
 35 36  2  0
 36 37  1  0
 38 37  2  0
 39 38  1  0
 40 14  1  0
 40 41  1  0
 40 50  1  0
 41 44  1  0
 42 46  1  0
 42 41  1  0
 43 42  2  0
 46 45  1  0
 48 46  1  0
 48 49  1  0
 48 47  1  0
 50 53  1  1
 50 51  1  0
 52 50  1  0
 54 96  1  0
 54 63  1  0
 54  5  1  0
 55 63  1  0
 56 61  1  0
 57 58  1  0
 57 56  1  0
 59 58  1  0
 59 68  1  0
 59 60  1  0
 61 55  1  0
 61 60  1  0
 62 55  2  0
 63 64  1  0
 65 66  2  0
 66 67  1  0
 66 85  1  0
 67 70  1  0
 68 65  1  0
 68 69  1  0
 69 67  2  0
 70 71  1  0
 71 72  2  0
 73 76  1  0
 73 72  1  0
 74 73  2  0
 75 74  1  0
 75 70  2  0
 76 77  1  0
 77 78  1  0
 78 79  2  0
 80 79  1  0
 80 84  1  0
 81 80  2  0
 82 77  2  0
 82 81  1  0
 83 82  1  0
 85 86  1  0
 86 89  1  0
 86 88  1  0
 87 85  2  0
 90 91  1  0
 90 65  1  0
 92 90  1  0
 96 93  1  6
 94 96  1  0
 96 95  1  0
M  ISO  4  12 101  13 101  55 100  63 100
M  END
>  <TORSDO>  (81) 
F 21

>  <SCORE>  (81) 
-12.853

>  <name>  (81) 
81

>  <ligand_id>  (81) 
81

>  <original_smiles>  (81) 
[H]c1c([H])c([H])c2c(c1[H])C([H])([H])C([H])([H])C([H])([H])C2([H])N([H])C(=O)C1([H])N(C(=O)C([H])(N([H])C(=O)C([H])(N([H])C([H])([H])[H])C([H])([H])[H])C(C([H])([H])[H])(C([H])([H])[H])C([H])([H])[H])C([H])([H])c2c([H])c(OC([H])([H])C([H])([H])N([H])C(=O)C3([H])C([H])([H])C([H])([H])[N+]([H])(C([H])(N([H])C(=O)N4C([H])([H])C([H])([H])C([H])([H])C([H])(n5nc(-c6c([H])c([H])c(Oc7c([H])c([H])c(F)c([H])c7F)c([H])c6[H])c(C(=O)N([H])[H])c5N([H])[H])C4([H])[H])C(C([H])([H])[H])(C([H])([H])[H])C([H])([H])[H])C3([H])[H])c([H])c([H])c2C1([H])[H]

>  <smiles>  (81) 
[H]c1c([H])c([H])c2c(c1[H])C([H])([H])C([H])([H])C([H])([H])C2([H])N([H])C(=O)C1([H])N(C(=O)C([H])(N([H])C(=O)C([H])(N([H])C([H])([H])[H])C([H])([H])[H])C(C([H])([H])[H])(C([H])([H])[H])C([H])([H])[H])C([H])([H])c2c([H])c(OC([H])([H])C([H])([H])N([H])C(=O)C3([H])C([H])([H])C([H])([H])[N+]([H])(C([H])(N([H])C(=O)N4C([H])([H])C([H])([H])C([H])([H])C([H])(n5nc(-c6c([H])c([H])c(Oc7c([H])c([H])c(F)c([H])c7F)c([H])c6[H])c(C(=O)N([H])[H])c5N([H])[H])C4([H])[H])C(C([H])([H])[H])(C([H])([H])[H])C([H])([H])[H])C3([H])[H])c([H])c([H])c2C1([H])[H]

$$$$
82:0:0
     RDKit          3D

 90 95  0  0  1  0  0  0  0  0999 V2000
  -27.8130  -18.6320   20.1040 C   0  0  0  0  0  2  0  0  0  0  0  0
  -30.7990  -14.2470   19.1410 C   0  0  0  0  0  0  0  0  0  0  0  0
  -30.4770  -12.1270   18.9370 C   0  0  0  0  0  2  0  0  0  0  0  0
  -29.1080  -12.0640   17.8310 C   0  0  0  0  0  3  0  0  0  0  0  0
  -27.6340  -12.9600   18.0070 C   0  0  0  0  0  3  0  0  0  0  0  0
  -27.3100  -14.1430   19.3560 C   0  0  0  0  0  2  0  0  0  0  0  0
  -29.6090  -14.5100   20.9360 C   0  0  0  0  0  1  0  0  0  0  0  0
  -30.6640  -13.4320   20.0280 N   0  0  0  0  0  0  0  0  0  0  0  0
  -31.7760  -14.9270   18.8580 O   0  0  0  0  0  0  0  0  0  0  0  0
  -28.5490  -12.6600   20.4240 C   0  0  0  0  0 15  0  0  0  0  0  0
  -29.0520  -15.9280   18.9640 C   0  0  0  0  0  2  0  0  0  0  0  0
  -27.5430  -13.8630   21.7610 C   0  0  0  0  0  1  0  0  0  0  0  0
  -28.2340  -16.7600   20.3840 C   0  0  0  0  0  3  0  0  0  0  0  0
  -29.5110  -14.2370   18.8890 N   0  0  0  0  0  2  0  0  0  0  0  0
  -27.4120  -15.6280   21.4350 N   0  0  0  0  0  4  0  0  0  0  0  0
  -27.3430  -16.0790   22.3330 H   0  0  0  0  0  0  0  0  0  0  0  0
  -26.4550  -15.6710   21.0680 H   0  0  0  0  0  0  0  0  0  0  0  0
  -24.9200  -14.0230   20.1880 C   0  0  0  0  0  0  0  0  0  0  0  0
  -24.0300  -13.1290   20.6840 C   0  0  0  0  0  0  0  0  0  0  0  0
  -24.5940  -11.8250   20.5790 C   0  0  0  0  0  0  0  0  0  0  0  0
  -26.0190  -13.3530   19.7940 N   0  0  0  0  0  0  0  0  0  0  0  0
  -25.8290  -11.9790   20.0790 N   0  0  0  0  0  0  0  0  0  0  0  0
  -23.9500  -10.5010   20.8400 C   0  0  0  0  0  0  0  0  0  0  0  0
  -24.4180   -9.5480   21.7800 C   0  0  0  0  0  3  0  0  0  0  0  0
  -23.7010   -8.3460   22.0200 C   0  0  0  0  0  3  0  0  0  0  0  0
  -22.4970   -8.0750   21.3240 C   0  0  0  0  0  0  0  0  0  0  0  0
  -22.0440   -9.0130   20.3810 C   0  0  0  0  0  3  0  0  0  0  0  0
  -22.7590  -10.2010   20.1430 C   0  0  0  0  0  3  0  0  0  0  0  0
  -21.7500   -6.9250   21.4530 O   0  0  0  0  0  0  0  0  0  0  0  0
  -21.7060   -6.2030   22.6210 C   0  0  0  0  0  0  0  0  0  0  0  0
  -21.2950   -6.7850   23.8410 C   0  0  0  0  0  3  0  0  0  0  0  0
  -21.1960   -5.9920   25.0020 C   0  0  0  0  0  3  0  0  0  0  0  0
  -21.4990   -4.6190   24.9480 C   0  0  0  0  0  0  0  0  0  0  0  0
  -21.8960   -4.0340   23.7330 C   0  0  0  0  0  3  0  0  0  0  0  0
  -21.9940   -4.8230   22.5730 C   0  0  0  0  0  0  0  0  0  0  0  0
  -22.3550   -4.2470   21.4000 F   0  0  0  0  0  0  0  0  0  0  0  0
  -21.4040   -3.8570   26.0640 F   0  0  0  0  0  0  0  0  0  0  0  0
  -22.6620  -13.5230   21.0990 C   0  0  0  0  0  0  0  0  0  0  0  0
  -22.0600  -12.7990   22.0280 N   0  0  0  0  0  0  0  0  0  0  0  0
  -22.1580  -14.5420   20.6290 O   0  0  0  0  0  0  0  0  0  0  0  0
  -22.4990  -11.9790   22.4200 H   0  0  0  0  0  0  0  0  0  0  0  0
  -21.1400  -13.0620   22.3510 H   0  0  0  0  0  0  0  0  0  0  0  0
  -24.9240  -15.4050   20.0700 N   0  0  0  0  0  0  0  0  0  0  0  0
  -23.9840  -15.7490   20.2630 H   0  0  0  0  0  0  0  0  0  0  0  0
  -25.1630  -15.6920   19.1260 H   0  0  0  0  0  0  0  0  0  0  0  0
  -27.9840  -20.2340   20.7320 N   0  0  0  0  0  0  0  0  0  0  0  0
  -28.6120  -20.1700   21.5330 H   0  0  0  0  0  0  0  0  0  0  0  0
  -28.0700  -21.8700   20.1750 C   0  0  0  0  0  2  0  0  0  0  0  0
  -27.6750  -23.6700   20.7370 C   0  0  0  0  0  2  0  0  0  0  0  0
  -28.0640  -25.3560   20.4760 O   0  0  0  0  0  0  0  0  0  0  0  0
  -24.6030  -31.6970   23.1600 C   0  0  0  0  0  0  0  0  0  0  0  0
  -27.1870  -26.6080   20.3800 C   0  0  0  0  0  0  0  0  0  0  0  0
  -23.4980  -30.2740   21.4950 C   0  0  0  0  0  3  0  0  0  0  0  0
  -25.0010  -28.6480   20.1490 C   0  0  0  0  0  0  0  0  0  0  0  0
  -26.0750  -30.4450   21.4750 C   0  0  0  0  0  2  0  0  0  0  0  0
  -26.1630  -29.0090   20.8420 C   0  0  0  0  0  0  0  0  0  0  0  0
  -27.2620  -28.0120   20.9210 C   0  0  0  0  0  3  0  0  0  0  0  0
  -26.0250  -26.4640   19.5990 C   0  0  0  0  0  3  0  0  0  0  0  0
  -24.9740  -27.4090   19.4940 C   0  0  0  0  0  3  0  0  0  0  0  0
  -23.7950  -29.5900   20.1330 C   0  0  0  0  0  2  0  0  0  0  0  0
  -24.7470  -30.8410   22.0950 N   0  0  0  0  0  0  0  0  0  0  0  0
  -23.4870  -31.9840   23.6250 O   0  0  0  0  0  0  0  0  0  0  0  0
  -22.7710  -29.2790   22.4400 C   0  0  0  0  0  0  0  0  0  0  0  0
  -21.4430  -29.1160   22.2790 N   0  0  0  0  0  0  0  0  0  0  0  0
  -23.4100  -28.6570   23.2920 O   0  0  0  0  0  0  0  0  0  0  0  0
  -20.9780  -29.6690   21.5740 H   0  0  0  0  0  0  0  0  0  0  0  0
  -18.0470  -27.9060   22.7150 C   0  0  0  0  0  0  0  0  0  0  0  0
  -20.6010  -28.1770   23.0320 C   0  0  0  0  0  3  0  0  0  0  0  0
  -20.7150  -26.7460   22.4560 C   0  0  0  0  0  2  0  0  0  0  0  0
  -19.6360  -26.4240   21.4180 C   0  0  0  0  0  2  0  0  0  0  0  0
  -18.2400  -26.5620   22.0330 C   0  0  0  0  0  2  0  0  0  0  0  0
  -19.1540  -28.6710   23.1690 C   0  0  0  0  0  0  0  0  0  0  0  0
  -18.9170  -29.9270   23.7700 C   0  0  0  0  0  3  0  0  0  0  0  0
  -17.6060  -30.4190   23.9180 C   0  0  0  0  0  3  0  0  0  0  0  0
  -16.5140  -29.6520   23.4780 C   0  0  0  0  0  3  0  0  0  0  0  0
  -16.7350  -28.3970   22.8830 C   0  0  0  0  0  3  0  0  0  0  0  0
  -25.8310  -32.3740   23.8400 C   0  0  0  0  0  3  0  0  0  0  0  0
  -26.2910  -31.6340   25.1580 C   0  0  1  0  0  0  0  0  0  0  0  0
  -25.1490  -31.4000   26.1750 C   0  0  0  0  0  1  0  0  0  0  0  0
  -26.9130  -30.2570   24.8350 C   0  0  0  0  0  1  0  0  0  0  0  0
  -27.3960  -32.4580   25.8620 C   0  0  0  0  0  1  0  0  0  0  0  0
  -25.4700  -33.7700   24.1510 N   0  0  0  0  0  0  0  0  0  0  0  0
  -25.8040  -34.8370   23.4110 C   0  0  0  0  0  0  0  0  0  0  0  0
  -26.5090  -34.7490   22.4020 O   0  0  0  0  0  0  0  0  0  0  0  0
  -24.8460  -33.9090   24.9310 H   0  0  0  0  0  0  0  0  0  0  0  0
  -24.0440  -36.5990   23.0270 C   0  0  0  0  0  1  0  0  0  0  0  0
  -25.2790  -36.2180   23.8580 C   0  0  0  0  0  3  0  0  0  0  0  0
  -27.3770  -37.1580   24.7250 C   0  0  0  0  0  1  0  0  0  0  0  0
  -26.2890  -37.2950   23.7620 N   0  0  0  0  0  0  0  0  0  0  0  0
  -25.8580  -38.2070   23.8990 H   0  0  0  0  0  0  0  0  0  0  0  0
  1 13  1  0
  1 46  1  0
  2  8  1  0
  3  8  1  0
  4  5  2  0
  4  3  1  0
  5  6  1  0
  6 21  1  0
  8  7  1  0
  9  2  2  0
 13 11  1  0
 13 15  1  0
 14 11  1  0
 14  2  1  0
 15 12  1  0
 15 16  1  0
 17 15  1  0
 18 19  2  0
 19 38  1  0
 20 19  1  0
 20 23  1  0
 21 22  1  0
 21 18  1  0
 22 20  2  0
 23 24  1  0
 24 25  2  0
 26 29  1  0
 26 25  1  0
 27 26  2  0
 28 27  1  0
 28 23  2  0
 29 30  1  0
 30 31  1  0
 31 32  2  0
 33 32  1  0
 33 37  1  0
 34 33  2  0
 35 30  2  0
 35 34  1  0
 36 35  1  0
 38 39  1  0
 39 42  1  0
 39 41  1  0
 40 38  2  0
 43 18  1  0
 43 44  1  0
 45 43  1  0
 46 47  1  0
 48 46  1  0
 48 49  1  0
 50 49  1  0
 51 62  2  0
 52 50  1  0
 52 57  1  0
 53 61  1  0
 53 63  1  0
 54 56  1  0
 55 61  1  0
 56 57  2  0
 56 55  1  0
 58 52  2  0
 59 58  1  0
 59 54  2  0
 60 54  1  0
 60 53  1  0
 61 51  1  0
 63 65  2  0
 64 63  1  0
 66 64  1  0
 67 76  2  0
 67 72  1  0
 68 64  1  0
 68 72  1  0
 69 68  1  0
 70 71  1  0
 70 69  1  0
 71 67  1  0
 72 73  2  0
 73 74  1  0
 75 74  2  0
 76 75  1  0
 77 51  1  0
 77 82  1  0
 77 78  1  0
 78 81  1  1
 78 79  1  0
 80 78  1  0
 82 85  1  0
 83 87  1  0
 83 82  1  0
 84 83  2  0
 87 86  1  0
 89 87  1  0
 89 90  1  0
 89 88  1  0
M  ISO  4   2 100  14 100  49 101  50 101
M  END
>  <TORSDO>  (82) 
F 19

>  <SCORE>  (82) 
-14.898

>  <name>  (82) 
82

>  <ligand_id>  (82) 
82

>  <original_smiles>  (82) 
[H]c1c([H])c([H])c2c(c1[H])C([H])([H])C([H])([H])C([H])([H])C2([H])N([H])C(=O)C1([H])N(C(=O)C([H])(N([H])C(=O)C([H])(N([H])C([H])([H])[H])C([H])([H])[H])C(C([H])([H])[H])(C([H])([H])[H])C([H])([H])[H])C([H])([H])c2c([H])c(OC([H])([H])C([H])([H])N([H])C([H])([H])C3([H])C([H])([H])N(C(=O)N4C([H])([H])C([H])([H])C([H])([H])C([H])(n5nc(-c6c([H])c([H])c(Oc7c([H])c([H])c(F)c([H])c7F)c([H])c6[H])c(C(=O)N([H])[H])c5N([H])[H])C4([H])[H])C([H])([H])C([H])([H])[N+]3([H])[H])c([H])c([H])c2C1([H])[H]

>  <smiles>  (82) 
[H]c1c([H])c([H])c2c(c1[H])C([H])([H])C([H])([H])C([H])([H])C2([H])N([H])C(=O)C1([H])N(C(=O)C([H])(N([H])C(=O)C([H])(N([H])C([H])([H])[H])C([H])([H])[H])C(C([H])([H])[H])(C([H])([H])[H])C([H])([H])[H])C([H])([H])c2c([H])c(OC([H])([H])C([H])([H])N([H])C([H])([H])C3([H])C([H])([H])N(C(=O)N4C([H])([H])C([H])([H])C([H])([H])C([H])(n5nc(-c6c([H])c([H])c(Oc7c([H])c([H])c(F)c([H])c7F)c([H])c6[H])c(C(=O)N([H])[H])c5N([H])[H])C4([H])[H])C([H])([H])C([H])([H])[N+]3([H])[H])c([H])c([H])c2C1([H])[H]

$$$$
83:0:0
     RDKit          3D

109116  0  0  1  0  0  0  0  0999 V2000
  -31.4210  -22.1600   19.9770 C   0  0  0  0  0  2  0  0  0  0  0  0
  -32.0980  -20.9060   20.3640 N   0  0  0  0  0  4  0  0  0  0  0  0
  -32.7280  -21.0970   21.1270 H   0  0  0  0  0  0  0  0  0  0  0  0
  -32.6540  -20.6120   19.5800 H   0  0  0  0  0  0  0  0  0  0  0  0
  -31.1780  -19.8080   20.7510 C   0  0  0  0  0  3  0  0  0  0  0  0
  -31.4670  -19.3820   22.2130 C   0  0  0  0  0  2  0  0  0  0  0  0
  -31.3430  -20.1940   24.6300 C   0  0  0  0  0  1  0  0  0  0  0  0
  -30.6160  -20.0940   23.2830 C   0  0  0  0  0  2  0  0  0  0  0  0
  -31.2930  -18.6240   19.7600 C   0  0  0  0  0  2  0  0  0  0  0  0
  -32.3760  -18.7800   18.6570 C   0  0  0  0  0  3  0  0  0  0  0  0
  -32.6390  -20.0810   16.5360 C   0  0  0  0  0  0  0  0  0  0  0  0
  -32.1640  -20.7450   14.2150 C   0  0  0  0  0  2  0  0  0  0  0  0
  -32.8690  -22.0330   13.7630 C   0  0  0  0  0  2  0  0  0  0  0  0
  -32.0260  -23.2640   14.1330 C   0  0  0  0  0  2  0  0  0  0  0  0
  -31.5960  -23.2570   15.6210 C   0  0  0  0  0  3  0  0  0  0  0  0
  -30.9790  -21.8980   16.0200 C   0  0  0  0  0  2  0  0  0  0  0  0
  -31.9140  -20.8150   15.6610 N   0  0  0  0  0  0  0  0  0  0  0  0
  -33.6950  -19.5120   16.2480 O   0  0  0  0  0  0  0  0  0  0  0  0
  -31.9920  -19.8120   17.6790 N   0  0  0  0  0  0  0  0  0  0  0  0
  -31.0910  -20.2580   17.7810 H   0  0  0  0  0  0  0  0  0  0  0  0
  -30.9870  -25.6990   16.1770 C   0  0  0  0  0  0  0  0  0  0  0  0
  -29.7800  -26.3330   16.3110 C   0  0  0  0  0  0  0  0  0  0  0  0
  -28.7830  -25.3310   16.1090 C   0  0  0  0  0  0  0  0  0  0  0  0
  -30.6920  -24.3700   15.9140 N   0  0  0  0  0  0  0  0  0  0  0  0
  -29.3530  -24.1460   15.9260 N   0  0  0  0  0  0  0  0  0  0  0  0
  -27.3210  -25.4410   16.0230 C   0  0  0  0  0  0  0  0  0  0  0  0
  -26.4740  -24.7060   16.8830 C   0  0  0  0  0  3  0  0  0  0  0  0
  -25.0720  -24.8420   16.7930 C   0  0  0  0  0  3  0  0  0  0  0  0
  -24.5040  -25.7210   15.8400 C   0  0  0  0  0  0  0  0  0  0  0  0
  -25.3500  -26.4300   14.9720 C   0  0  0  0  0  3  0  0  0  0  0  0
  -26.7450  -26.2900   15.0580 C   0  0  0  0  0  3  0  0  0  0  0  0
  -23.1520  -25.8960   15.6640 O   0  0  0  0  0  0  0  0  0  0  0  0
  -22.2320  -25.1260   16.3300 C   0  0  0  0  0  0  0  0  0  0  0  0
  -22.6120  -24.2320   17.3550 C   0  0  0  0  0  3  0  0  0  0  0  0
  -21.6280  -23.5120   18.0600 C   0  0  0  0  0  3  0  0  0  0  0  0
  -20.2660  -23.6870   17.7490 C   0  0  0  0  0  0  0  0  0  0  0  0
  -19.8870  -24.5820   16.7320 C   0  0  0  0  0  3  0  0  0  0  0  0
  -20.8680  -25.3000   16.0270 C   0  0  0  0  0  0  0  0  0  0  0  0
  -20.4940  -26.1750   15.0620 F   0  0  0  0  0  0  0  0  0  0  0  0
  -19.3200  -23.0020   18.4310 F   0  0  0  0  0  0  0  0  0  0  0  0
  -29.5600  -27.8040   16.5210 C   0  0  0  0  0  0  0  0  0  0  0  0
  -28.6990  -28.1650   17.4670 N   0  0  0  0  0  0  0  0  0  0  0  0
  -30.1900  -28.6430   15.8790 O   0  0  0  0  0  0  0  0  0  0  0  0
  -28.1980  -27.4760   18.0070 H   0  0  0  0  0  0  0  0  0  0  0  0
  -28.5400  -29.1450   17.6530 H   0  0  0  0  0  0  0  0  0  0  0  0
  -32.3050  -26.1410   16.2370 N   0  0  0  0  0  0  0  0  0  0  0  0
  -32.5430  -27.1180   16.3650 H   0  0  0  0  0  0  0  0  0  0  0  0
  -33.1120  -25.5540   16.0640 H   0  0  0  0  0  0  0  0  0  0  0  0
  -32.6360  -17.4090   17.9790 C   0  0  0  0  0  0  0  0  0  0  0  0
  -33.6760  -16.7750   18.1830 O   0  0  0  0  0  0  0  0  0  0  0  0
  -31.5600  -16.8380   17.0430 C   0  0  0  0  0  2  0  0  0  0  0  0
  -32.0300  -15.5600   16.4760 N   0  0  0  0  0  4  0  0  0  0  0  0
  -32.8940  -15.7070   15.9850 H   0  0  0  0  0  0  0  0  0  0  0  0
  -31.3500  -15.1720   15.8490 H   0  0  0  0  0  0  0  0  0  0  0  0
  -32.2070  -14.9080   17.2190 H   0  0  0  0  0  0  0  0  0  0  0  0
  -32.3940  -23.3600   19.9710 C   0  0  0  0  0  3  0  0  0  0  0  0
  -31.6350  -24.5660   19.6900 N   0  0  0  0  0  0  0  0  0  0  0  0
  -31.3330  -24.5630   18.7210 H   0  0  0  0  0  0  0  0  0  0  0  0
  -32.2590  -25.3630   19.7570 H   0  0  0  0  0  0  0  0  0  0  0  0
  -33.5400  -23.2090   18.9440 C   0  0  0  0  0  2  0  0  0  0  0  0
  -34.6950  -24.2230   19.0960 C   0  0  0  0  0  2  0  0  0  0  0  0
  -35.6360  -23.9380   20.2830 C   0  0  0  0  0  2  0  0  0  0  0  0
  -36.3820  -25.1860   20.7950 C   0  0  0  0  0  2  0  0  0  0  0  0
  -34.2740  -26.4890   21.0480 C   0  0  0  0  0  0  0  0  0  0  0  0
  -35.5650  -26.3950   20.7110 N   0  0  0  0  0  0  0  0  0  0  0  0
  -33.6460  -25.5530   21.5520 O   0  0  0  0  0  0  0  0  0  0  0  0
  -36.0050  -27.2240   20.3310 H   0  0  0  0  0  0  0  0  0  0  0  0
  -33.5770  -27.8260   20.7890 C   0  0  0  0  0  2  0  0  0  0  0  0
  -32.9740  -28.2510   22.0050 O   0  0  0  0  0  0  0  0  0  0  0  0
  -26.9750  -29.1540   25.6630 C   0  0  0  0  0  0  0  0  0  0  0  0
  -31.6720  -28.6880   21.9510 C   0  0  0  0  0  0  0  0  0  0  0  0
  -26.7980  -29.5160   23.2210 C   0  0  0  0  0  3  0  0  0  0  0  0
  -29.0070  -29.6210   21.9530 C   0  0  0  0  0  0  0  0  0  0  0  0
  -29.0120  -29.9050   24.4400 C   0  0  0  0  0  2  0  0  0  0  0  0
  -29.7150  -29.5160   23.1570 C   0  0  0  0  0  0  0  0  0  0  0  0
  -31.0470  -29.0560   23.1600 C   0  0  0  0  0  3  0  0  0  0  0  0
  -30.9470  -28.7960   20.7410 C   0  0  0  0  0  3  0  0  0  0  0  0
  -29.6190  -29.2590   20.7400 C   0  0  0  0  0  3  0  0  0  0  0  0
  -27.5900  -30.1380   22.0390 C   0  0  0  0  0  2  0  0  0  0  0  0
  -27.5900  -29.4890   24.4940 N   0  0  0  0  0  0  0  0  0  0  0  0
  -25.7600  -28.9140   25.7010 O   0  0  0  0  0  0  0  0  0  0  0  0
  -26.2840  -28.1240   22.7910 C   0  0  0  0  0  0  0  0  0  0  0  0
  -25.1920  -28.1030   22.0100 N   0  0  0  0  0  0  0  0  0  0  0  0
  -26.8770  -27.0970   23.1340 O   0  0  0  0  0  0  0  0  0  0  0  0
  -24.7560  -28.9860   21.7840 H   0  0  0  0  0  0  0  0  0  0  0  0
  -22.0130  -26.6970   21.0330 C   0  0  0  0  0  0  0  0  0  0  0  0
  -24.5540  -26.9110   21.4530 C   0  0  0  0  0  3  0  0  0  0  0  0
  -24.7110  -26.8610   19.9160 C   0  0  0  0  0  2  0  0  0  0  0  0
  -23.5320  -27.4920   19.1700 C   0  0  0  0  0  2  0  0  0  0  0  0
  -22.2250  -26.7800   19.5300 C   0  0  0  0  0  2  0  0  0  0  0  0
  -23.1050  -26.7750   21.9360 C   0  0  0  0  0  0  0  0  0  0  0  0
  -22.8500  -26.7320   23.3230 C   0  0  0  0  0  3  0  0  0  0  0  0
  -21.5350  -26.6080   23.8110 C   0  0  0  0  0  3  0  0  0  0  0  0
  -20.4590  -26.5150   22.9130 C   0  0  0  0  0  3  0  0  0  0  0  0
  -20.6990  -26.5570   21.5270 C   0  0  0  0  0  3  0  0  0  0  0  0
  -27.7600  -29.0840   27.0100 C   0  0  0  0  0  3  0  0  0  0  0  0
  -26.8280  -28.8740   28.2660 C   0  0  1  0  0  0  0  0  0  0  0  0
  -25.6720  -29.8960   28.3570 C   0  0  0  0  0  1  0  0  0  0  0  0
  -26.2130  -27.4570   28.2540 C   0  0  0  0  0  1  0  0  0  0  0  0
  -27.6640  -28.9900   29.5640 C   0  0  0  0  0  1  0  0  0  0  0  0
  -28.5320  -30.3260   27.1370 N   0  0  0  0  0  0  0  0  0  0  0  0
  -29.8590  -30.4180   26.9710 C   0  0  0  0  0  0  0  0  0  0  0  0
  -30.5770  -29.4380   26.7600 O   0  0  0  0  0  0  0  0  0  0  0  0
  -28.0040  -31.1780   27.2570 H   0  0  0  0  0  0  0  0  0  0  0  0
  -30.8040  -32.3230   25.6290 C   0  0  0  0  0  1  0  0  0  0  0  0
  -30.4860  -31.8230   27.0490 C   0  0  0  0  0  3  0  0  0  0  0  0
  -31.4590  -31.5830   29.2890 C   0  0  0  0  0  1  0  0  0  0  0  0
  -31.7080  -31.8760   27.8800 N   0  0  0  0  0  0  0  0  0  0  0  0
  -32.1440  -32.7930   27.8200 H   0  0  0  0  0  0  0  0  0  0  0  0
  1  2  1  0
  2  5  1  0
  2  3  1  0
  4  2  1  0
  5  9  1  0
  5  6  1  0
  6  8  1  0
  8  7  1  0
 10  9  1  0
 11 19  1  0
 12 17  1  0
 13 14  1  0
 13 12  1  0
 15 14  1  0
 15 24  1  0
 15 16  1  0
 17 16  1  0
 17 11  1  0
 18 11  2  0
 19 20  1  0
 19 10  1  0
 21 46  1  0
 21 22  2  0
 22 41  1  0
 23 22  1  0
 24 25  1  0
 24 21  1  0
 25 23  2  0
 26 23  1  0
 26 27  1  0
 28 27  2  0
 29 28  1  0
 30 31  1  0
 30 29  2  0
 31 26  2  0
 32 29  1  0
 32 33  1  0
 33 34  1  0
 34 35  2  0
 36 35  1  0
 36 40  1  0
 37 36  2  0
 38 33  2  0
 38 37  1  0
 39 38  1  0
 41 42  1  0
 42 45  1  0
 42 44  1  0
 43 41  2  0
 46 47  1  0
 48 46  1  0
 49 50  2  0
 49 10  1  0
 51 49  1  0
 52 51  1  0
 52 55  1  0
 53 52  1  0
 54 52  1  0
 56 60  1  0
 56  1  1  0
 57 59  1  0
 57 56  1  0
 58 57  1  0
 60 61  1  0
 61 62  1  0
 62 63  1  0
 64 66  2  0
 65 63  1  0
 65 64  1  0
 67 65  1  0
 68 64  1  0
 68 69  1  0
 70 81  2  0
 71 69  1  0
 71 76  1  0
 72 82  1  0
 72 80  1  0
 73 79  1  0
 73 75  1  0
 74 80  1  0
 75 76  2  0
 75 74  1  0
 77 71  2  0
 78 77  1  0
 78 73  2  0
 79 72  1  0
 80 70  1  0
 82 84  2  0
 83 82  1  0
 85 83  1  0
 86 95  2  0
 86 91  1  0
 87 91  1  0
 87 83  1  0
 88 87  1  0
 89 90  1  0
 89 88  1  0
 90 86  1  0
 91 92  2  0
 92 93  1  0
 94 93  2  0
 95 94  1  0
 96 70  1  0
 96101  1  0
 96 97  1  0
 97 98  1  1
 97100  1  0
 99 97  1  0
101104  1  0
102106  1  0
102101  1  0
103102  2  0
106105  1  0
106108  1  0
108107  1  0
109108  1  0
M  ISO  4  11 100  19 100  68 101  69 101
M  END
>  <TORSDO>  (83) 
F 33

>  <SCORE>  (83) 
-1.822

>  <name>  (83) 
83

>  <ligand_id>  (83) 
83

>  <original_smiles>  (83) 
[H]c1c([H])c([H])c2c(c1[H])C([H])([H])C([H])([H])C([H])([H])C2([H])N([H])C(=O)C1([H])N(C(=O)C([H])(N([H])C(=O)C([H])(N([H])C([H])([H])[H])C([H])([H])[H])C(C([H])([H])[H])(C([H])([H])[H])C([H])([H])[H])C([H])([H])c2c([H])c(OC([H])([H])C(=O)N([H])C([H])([H])C([H])([H])C([H])([H])C([H])([H])C([H])(N([H])[H])C([H])([H])[N+]([H])([H])C([H])(C([H])([H])C([H])(C(=O)C([H])([H])[N+]([H])([H])[H])N([H])C(=O)N3C([H])([H])C([H])([H])C([H])([H])C([H])(n4nc(-c5c([H])c([H])c(Oc6c([H])c([H])c(F)c([H])c6F)c([H])c5[H])c(C(=O)N([H])[H])c4N([H])[H])C3([H])[H])C([H])([H])C([H])([H])C([H])([H])[H])c([H])c([H])c2C1([H])[H]

>  <smiles>  (83) 
[H]c1c([H])c([H])c2c(c1[H])C([H])([H])C([H])([H])C([H])([H])C2([H])N([H])C(=O)C1([H])N(C(=O)C([H])(N([H])C(=O)C([H])(N([H])C([H])([H])[H])C([H])([H])[H])C(C([H])([H])[H])(C([H])([H])[H])C([H])([H])[H])C([H])([H])c2c([H])c(OC([H])([H])C(=O)N([H])C([H])([H])C([H])([H])C([H])([H])C([H])([H])C([H])(N([H])[H])C([H])([H])[N+]([H])([H])C([H])(C([H])([H])C([H])(C(=O)C([H])([H])[N+]([H])([H])[H])N([H])C(=O)N3C([H])([H])C([H])([H])C([H])([H])C([H])(n4nc(-c5c([H])c([H])c(Oc6c([H])c([H])c(F)c([H])c6F)c([H])c5[H])c(C(=O)N([H])[H])c4N([H])[H])C3([H])[H])C([H])([H])C([H])([H])C([H])([H])[H])c([H])c([H])c2C1([H])[H]

$$$$
84:0:0
     RDKit          3D

 95102  0  0  1  0  0  0  0  0999 V2000
  -28.8000  -21.1370   20.0880 N   0  0  0  0  0  4  0  0  0  0  0  0
  -28.4780  -21.4480   19.1890 H   0  0  0  0  0  0  0  0  0  0  0  0
  -27.9990  -20.7130   20.5290 H   0  0  0  0  0  0  0  0  0  0  0  0
  -29.1650  -22.3710   20.9340 C   0  0  0  0  0  2  0  0  0  0  0  0
  -29.8460  -23.9410   18.9110 C   0  0  0  0  0  1  0  0  0  0  0  0
  -30.4030  -24.5510   21.2530 C   0  0  0  0  0  1  0  0  0  0  0  0
  -29.3180  -23.9100   20.3590 C   0  0  2  0  0  0  0  0  0  0  0  0
  -28.0780  -24.9430   20.4590 C   0  0  0  0  0  2  0  0  0  0  0  0
  -28.3130  -26.4210   20.2740 O   0  0  0  0  0  0  0  0  0  0  0  0
  -24.5950  -31.8990   23.2460 C   0  0  0  0  0  0  0  0  0  0  0  0
  -27.2050  -27.2950   20.2270 C   0  0  0  0  0  0  0  0  0  0  0  0
  -23.3980  -30.4920   21.6130 C   0  0  0  0  0  3  0  0  0  0  0  0
  -24.8500  -28.9380   20.1910 C   0  0  0  0  0  0  0  0  0  0  0  0
  -25.9400  -30.8050   21.4340 C   0  0  0  0  0  2  0  0  0  0  0  0
  -26.0210  -29.4230   20.7890 C   0  0  0  0  0  0  0  0  0  0  0  0
  -27.2040  -28.6170   20.7860 C   0  0  0  0  0  3  0  0  0  0  0  0
  -26.0110  -26.8800   19.5960 C   0  0  0  0  0  3  0  0  0  0  0  0
  -24.8520  -27.6770   19.5800 C   0  0  0  0  0  3  0  0  0  0  0  0
  -23.6120  -29.8100   20.2360 C   0  0  0  0  0  2  0  0  0  0  0  0
  -24.6640  -31.0820   22.1550 N   0  0  0  0  0  0  0  0  0  0  0  0
  -23.5080  -32.1830   23.7710 O   0  0  0  0  0  0  0  0  0  0  0  0
  -22.7290  -29.4820   22.5750 C   0  0  0  0  0  0  0  0  0  0  0  0
  -21.4040  -29.3030   22.4410 N   0  0  0  0  0  0  0  0  0  0  0  0
  -23.4010  -28.8610   23.4030 O   0  0  0  0  0  0  0  0  0  0  0  0
  -20.9200  -29.8500   21.7420 H   0  0  0  0  0  0  0  0  0  0  0  0
  -18.0220  -28.1110   22.9300 C   0  0  0  0  0  0  0  0  0  0  0  0
  -20.5800  -28.3690   23.2100 C   0  0  0  0  0  3  0  0  0  0  0  0
  -20.6830  -26.9370   22.6380 C   0  0  0  0  0  2  0  0  0  0  0  0
  -19.5860  -26.6090   21.6210 C   0  0  0  0  0  2  0  0  0  0  0  0
  -18.2000  -26.7600   22.2570 C   0  0  0  0  0  2  0  0  0  0  0  0
  -19.1390  -28.8740   23.3630 C   0  0  0  0  0  0  0  0  0  0  0  0
  -18.9200  -30.1370   23.9500 C   0  0  0  0  0  3  0  0  0  0  0  0
  -17.6150  -30.6420   24.1090 C   0  0  0  0  0  3  0  0  0  0  0  0
  -16.5110  -29.8740   23.6970 C   0  0  0  0  0  3  0  0  0  0  0  0
  -16.7150  -28.6120   23.1140 C   0  0  0  0  0  3  0  0  0  0  0  0
  -25.8760  -32.5320   23.8730 C   0  0  0  0  0  3  0  0  0  0  0  0
  -25.5690  -33.9330   24.1960 N   0  0  0  0  0  0  0  0  0  0  0  0
  -25.9010  -34.9810   23.4330 C   0  0  0  0  0  0  0  0  0  0  0  0
  -26.5720  -34.8720   22.4030 O   0  0  0  0  0  0  0  0  0  0  0  0
  -24.9760  -34.0940   24.9970 H   0  0  0  0  0  0  0  0  0  0  0  0
  -24.1790  -36.7750   23.0700 C   0  0  0  0  0  1  0  0  0  0  0  0
  -25.4170  -36.3720   23.8860 C   0  0  0  0  0  3  0  0  0  0  0  0
  -27.5470  -37.2540   24.7230 C   0  0  0  0  0  1  0  0  0  0  0  0
  -26.4510  -37.4220   23.7730 N   0  0  0  0  0  0  0  0  0  0  0  0
  -26.0460  -38.3430   23.9150 H   0  0  0  0  0  0  0  0  0  0  0  0
  -26.3830  -31.7680   25.1570 C   0  0  1  0  0  0  0  0  0  0  0  0
  -25.2790  -31.5350   26.2170 C   0  0  0  0  0  1  0  0  0  0  0  0
  -26.9680  -30.3910   24.7750 C   0  0  0  0  0  1  0  0  0  0  0  0
  -27.5340  -32.5620   25.8210 C   0  0  0  0  0  1  0  0  0  0  0  0
  -29.7700  -19.9610   19.8650 C   0  0  0  0  0  3  0  0  0  0  0  0
  -29.2620  -18.5080   20.3760 C   0  0  0  0  0  0  0  0  0  0  0  0
  -28.0810  -18.3060   20.6720 O   0  0  0  0  0  0  0  0  0  0  0  0
  -30.2950  -17.2880   20.4760 C   0  0  0  0  0  2  0  0  0  0  0  0
  -30.5560  -14.7100   20.3510 C   0  0  0  0  0  0  0  0  0  0  0  0
  -30.3600  -12.4370   19.3500 C   0  0  0  0  0  2  0  0  0  0  0  0
  -29.4380  -12.5330   18.1170 C   0  0  0  0  0  2  0  0  0  0  0  0
  -27.9600  -12.3750   18.5340 C   0  0  0  0  0  2  0  0  0  0  0  0
  -27.5800  -13.2650   19.7530 C   0  0  0  0  0  3  0  0  0  0  0  0
  -28.6250  -13.1560   20.8830 C   0  0  0  0  0  2  0  0  0  0  0  0
  -29.9270  -13.4920   20.2960 N   0  0  0  0  0  0  0  0  0  0  0  0
  -31.7440  -14.8100   20.0280 O   0  0  0  0  0  0  0  0  0  0  0  0
  -29.8030  -15.8470   20.5600 N   0  0  0  0  0  0  0  0  0  0  0  0
  -28.8210  -15.7240   20.7670 H   0  0  0  0  0  0  0  0  0  0  0  0
  -25.1900  -13.8620   20.4760 C   0  0  0  0  0  0  0  0  0  0  0  0
  -24.1220  -13.0900   20.8480 C   0  0  0  0  0  0  0  0  0  0  0  0
  -24.5830  -11.7390   20.8220 C   0  0  0  0  0  0  0  0  0  0  0  0
  -26.2330  -12.9830   20.2400 N   0  0  0  0  0  0  0  0  0  0  0  0
  -25.8740  -11.7010   20.5120 N   0  0  0  0  0  0  0  0  0  0  0  0
  -23.8560  -10.4780   21.0130 C   0  0  0  0  0  0  0  0  0  0  0  0
  -24.2790   -9.5160   21.9580 C   0  0  0  0  0  3  0  0  0  0  0  0
  -23.5520   -8.3180   22.1380 C   0  0  0  0  0  3  0  0  0  0  0  0
  -22.3850   -8.0760   21.3730 C   0  0  0  0  0  0  0  0  0  0  0  0
  -21.9810   -9.0260   20.4170 C   0  0  0  0  0  3  0  0  0  0  0  0
  -22.7100  -10.2130   20.2340 C   0  0  0  0  0  3  0  0  0  0  0  0
  -21.6260   -6.9350   21.4650 O   0  0  0  0  0  0  0  0  0  0  0  0
  -21.5570   -6.2010   22.6230 C   0  0  0  0  0  0  0  0  0  0  0  0
  -21.0970   -6.7600   23.8350 C   0  0  0  0  0  3  0  0  0  0  0  0
  -20.9790   -5.9500   24.9830 C   0  0  0  0  0  3  0  0  0  0  0  0
  -21.3110   -4.5840   24.9190 C   0  0  0  0  0  0  0  0  0  0  0  0
  -21.7650   -4.0250   23.7120 C   0  0  0  0  0  3  0  0  0  0  0  0
  -21.8840   -4.8300   22.5660 C   0  0  0  0  0  0  0  0  0  0  0  0
  -22.3010   -4.2790   21.4010 F   0  0  0  0  0  0  0  0  0  0  0  0
  -21.1900   -3.8060   26.0200 F   0  0  0  0  0  0  0  0  0  0  0  0
  -22.7230  -13.5670   21.1150 C   0  0  0  0  0  0  0  0  0  0  0  0
  -21.9880  -12.8700   21.9760 N   0  0  0  0  0  0  0  0  0  0  0  0
  -22.2900  -14.5960   20.5950 O   0  0  0  0  0  0  0  0  0  0  0  0
  -22.3460  -12.0390   22.4220 H   0  0  0  0  0  0  0  0  0  0  0  0
  -21.0470  -13.1710   22.1890 H   0  0  0  0  0  0  0  0  0  0  0  0
  -25.3520  -15.2320   20.2950 N   0  0  0  0  0  0  0  0  0  0  0  0
  -24.5800  -15.8790   20.4100 H   0  0  0  0  0  0  0  0  0  0  0  0
  -26.1960  -15.6830   19.9610 H   0  0  0  0  0  0  0  0  0  0  0  0
  -30.0360  -19.8350   18.3370 C   0  0  0  0  0  2  0  0  0  0  0  0
  -32.5260  -19.8570   17.7140 C   0  0  0  0  0  1  0  0  0  0  0  0
  -30.8680  -21.3160   16.4550 C   0  0  0  0  0  1  0  0  0  0  0  0
  -31.2230  -20.6740   17.8080 C   0  0  0  0  0  3  0  0  0  0  0  0
  1  3  1  0
  1  4  1  0
  2  1  1  0
  7  5  1  6
  7  8  1  0
  7  4  1  0
  7  6  1  0
  9  8  1  0
 10 21  2  0
 11  9  1  0
 11 16  1  0
 12 20  1  0
 12 22  1  0
 13 19  1  0
 13 15  1  0
 14 20  1  0
 15 14  1  0
 16 15  2  0
 17 11  2  0
 18 17  1  0
 18 13  2  0
 19 12  1  0
 20 10  1  0
 22 24  2  0
 23 22  1  0
 25 23  1  0
 26 35  2  0
 26 31  1  0
 27 23  1  0
 27 31  1  0
 28 27  1  0
 29 30  1  0
 29 28  1  0
 30 26  1  0
 31 32  2  0
 32 33  1  0
 34 33  2  0
 35 34  1  0
 36 10  1  0
 36 37  1  0
 36 46  1  0
 37 40  1  0
 38 42  1  0
 38 37  1  0
 39 38  2  0
 42 41  1  0
 44 42  1  0
 44 45  1  0
 44 43  1  0
 46 49  1  1
 46 47  1  0
 48 46  1  0
 50 92  1  0
 50  1  1  0
 50 51  1  0
 51 53  1  0
 51 52  2  0
 53 62  1  0
 54 62  1  0
 55 60  1  0
 56 57  1  0
 56 55  1  0
 58 57  1  0
 58 67  1  0
 58 59  1  0
 60 54  1  0
 60 59  1  0
 61 54  2  0
 62 63  1  0
 64 65  2  0
 65 84  1  0
 66 65  1  0
 66 69  1  0
 67 64  1  0
 67 68  1  0
 68 66  2  0
 69 70  1  0
 70 71  2  0
 72 75  1  0
 72 71  1  0
 73 72  2  0
 74 73  1  0
 74 69  2  0
 75 76  1  0
 76 77  1  0
 77 78  2  0
 79 78  1  0
 79 83  1  0
 80 79  2  0
 81 76  2  0
 81 80  1  0
 82 81  1  0
 84 85  1  0
 85 88  1  0
 85 87  1  0
 86 84  2  0
 89 90  1  0
 89 64  1  0
 91 89  1  0
 93 95  1  0
 94 95  1  0
 95 92  1  0
M  ISO  4   8 101   9 101  54 100  62 100
M  END
>  <TORSDO>  (84) 
F 24

>  <SCORE>  (84) 
-12.591

>  <name>  (84) 
84

>  <ligand_id>  (84) 
84

>  <original_smiles>  (84) 
[H]c1c([H])c([H])c2c(c1[H])C([H])([H])C([H])([H])C([H])([H])C2([H])N([H])C(=O)C1([H])N(C(=O)C([H])(N([H])C(=O)C([H])(N([H])C([H])([H])[H])C([H])([H])[H])C(C([H])([H])[H])(C([H])([H])[H])C([H])([H])[H])C([H])([H])c2c([H])c(OC([H])([H])C(C([H])([H])[H])(C([H])([H])[H])C([H])([H])[N+]([H])([H])C([H])(C(=O)C([H])([H])N([H])C(=O)N3C([H])([H])C([H])([H])C([H])([H])C([H])(n4nc(-c5c([H])c([H])c(Oc6c([H])c([H])c(F)c([H])c6F)c([H])c5[H])c(C(=O)N([H])[H])c4N([H])[H])C3([H])[H])C([H])([H])C([H])(C([H])([H])[H])C([H])([H])[H])c([H])c([H])c2C1([H])[H]

>  <smiles>  (84) 
[H]c1c([H])c([H])c2c(c1[H])C([H])([H])C([H])([H])C([H])([H])C2([H])N([H])C(=O)C1([H])N(C(=O)C([H])(N([H])C(=O)C([H])(N([H])C([H])([H])[H])C([H])([H])[H])C(C([H])([H])[H])(C([H])([H])[H])C([H])([H])[H])C([H])([H])c2c([H])c(OC([H])([H])C(C([H])([H])[H])(C([H])([H])[H])C([H])([H])[N+]([H])([H])C([H])(C(=O)C([H])([H])N([H])C(=O)N3C([H])([H])C([H])([H])C([H])([H])C([H])(n4nc(-c5c([H])c([H])c(Oc6c([H])c([H])c(F)c([H])c6F)c([H])c5[H])c(C(=O)N([H])[H])c4N([H])[H])C3([H])[H])C([H])([H])C([H])(C([H])([H])[H])C([H])([H])[H])c([H])c([H])c2C1([H])[H]

$$$$
85:0:0
     RDKit          3D

 96103  0  0  1  0  0  0  0  0999 V2000
  -30.0730  -18.5240   21.0540 C   0  0  0  0  0  0  0  0  0  0  0  0
  -29.8940  -19.7800   20.5280 N   0  0  0  0  0  0  0  0  0  0  0  0
  -30.0650  -18.3520   22.2760 O   0  0  0  0  0  0  0  0  0  0  0  0
  -29.8640  -19.8020   19.5170 H   0  0  0  0  0  0  0  0  0  0  0  0
  -29.7510  -21.1230   21.2200 C   0  0  0  0  0  3  0  0  0  0  0  0
  -29.2170  -22.3740   20.3630 C   0  0  0  0  0  3  0  0  0  0  0  0
  -29.3390  -23.8840   20.9260 C   0  0  0  0  0  3  0  0  0  0  0  0
  -28.4970  -25.0380   20.2000 C   0  0  0  0  0  3  0  0  0  0  0  0
  -28.6770  -26.4940   20.4980 O   0  0  0  0  0  0  0  0  0  0  0  0
  -24.8030  -31.8230   23.4430 C   0  0  0  0  0  0  0  0  0  0  0  0
  -27.5650  -27.3560   20.3820 C   0  0  0  0  0  0  0  0  0  0  0  0
  -23.6630  -30.4290   21.7540 C   0  0  0  0  0  3  0  0  0  0  0  0
  -25.1750  -28.9400   20.3260 C   0  0  0  0  0  0  0  0  0  0  0  0
  -26.1980  -30.7990   21.6330 C   0  0  0  0  0  2  0  0  0  0  0  0
  -26.3180  -29.4330   20.9660 C   0  0  0  0  0  0  0  0  0  0  0  0
  -27.5140  -28.6510   20.9890 C   0  0  0  0  0  3  0  0  0  0  0  0
  -26.4070  -26.9380   19.6870 C   0  0  0  0  0  3  0  0  0  0  0  0
  -25.2240  -27.7010   19.6710 C   0  0  0  0  0  3  0  0  0  0  0  0
  -23.9170  -29.7840   20.3670 C   0  0  0  0  0  2  0  0  0  0  0  0
  -24.9050  -31.0360   22.3330 N   0  0  0  0  0  0  0  0  0  0  0  0
  -23.7030  -32.0700   23.9600 O   0  0  0  0  0  0  0  0  0  0  0  0
  -23.0030  -29.3820   22.6840 C   0  0  0  0  0  0  0  0  0  0  0  0
  -21.7040  -29.1140   22.4680 N   0  0  0  0  0  0  0  0  0  0  0  0
  -23.6610  -28.8140   23.5580 O   0  0  0  0  0  0  0  0  0  0  0  0
  -21.2310  -29.6300   21.7400 H   0  0  0  0  0  0  0  0  0  0  0  0
  -18.3880  -27.6890   22.7320 C   0  0  0  0  0  0  0  0  0  0  0  0
  -20.8930  -28.1330   23.1920 C   0  0  0  0  0  3  0  0  0  0  0  0
  -21.1380  -26.7030   22.6570 C   0  0  0  0  0  2  0  0  0  0  0  0
  -20.1450  -26.2880   21.5680 C   0  0  0  0  0  2  0  0  0  0  0  0
  -18.7090  -26.3450   22.1010 C   0  0  0  0  0  2  0  0  0  0  0  0
  -19.4140  -28.5370   23.2280 C   0  0  0  0  0  0  0  0  0  0  0  0
  -19.0630  -29.7920   23.7720 C   0  0  0  0  0  3  0  0  0  0  0  0
  -17.7180  -30.2020   23.8270 C   0  0  0  0  0  3  0  0  0  0  0  0
  -16.7040  -29.3530   23.3500 C   0  0  0  0  0  3  0  0  0  0  0  0
  -17.0400  -28.0980   22.8080 C   0  0  0  0  0  3  0  0  0  0  0  0
  -26.0600  -32.4690   24.1040 C   0  0  0  0  0  3  0  0  0  0  0  0
  -26.5490  -31.6990   25.3920 C   0  0  1  0  0  0  0  0  0  0  0  0
  -25.4170  -31.3800   26.3980 C   0  0  0  0  0  1  0  0  0  0  0  0
  -27.2260  -30.3640   25.0070 C   0  0  0  0  0  1  0  0  0  0  0  0
  -27.6190  -32.5380   26.1290 C   0  0  0  0  0  1  0  0  0  0  0  0
  -25.7230  -33.8620   24.4320 N   0  0  0  0  0  0  0  0  0  0  0  0
  -26.0380  -34.9210   23.6740 C   0  0  0  0  0  0  0  0  0  0  0  0
  -26.7150  -34.8310   22.6450 O   0  0  0  0  0  0  0  0  0  0  0  0
  -25.1260  -34.0040   25.2320 H   0  0  0  0  0  0  0  0  0  0  0  0
  -24.2740  -36.6790   23.3180 C   0  0  0  0  0  1  0  0  0  0  0  0
  -25.5220  -36.3010   24.1300 C   0  0  0  0  0  3  0  0  0  0  0  0
  -27.6360  -37.2340   24.9600 C   0  0  0  0  0  1  0  0  0  0  0  0
  -26.5330  -37.3750   24.0150 N   0  0  0  0  0  0  0  0  0  0  0  0
  -26.1060  -38.2870   24.1570 H   0  0  0  0  0  0  0  0  0  0  0  0
  -30.3390  -17.2580   20.1270 C   0  0  0  0  0  3  0  0  0  0  0  0
  -31.1290  -14.7860   20.4460 C   0  0  0  0  0  0  0  0  0  0  0  0
  -30.8780  -12.5610   19.3600 C   0  0  0  0  0  2  0  0  0  0  0  0
  -29.9650  -12.7530   18.1270 C   0  0  0  0  0  2  0  0  0  0  0  0
  -28.4780  -12.6360   18.5230 C   0  0  0  0  0  2  0  0  0  0  0  0
  -28.1250  -13.4730   19.7800 C   0  0  0  0  0  3  0  0  0  0  0  0
  -29.1590  -13.2510   20.9080 C   0  0  0  0  0  2  0  0  0  0  0  0
  -30.4880  -13.5730   20.3680 N   0  0  0  0  0  0  0  0  0  0  0  0
  -32.2820  -14.9120   20.0200 O   0  0  0  0  0  0  0  0  0  0  0  0
  -30.3700  -15.8850   20.7840 N   0  0  0  0  0  0  0  0  0  0  0  0
  -29.5290  -15.6680   21.2950 H   0  0  0  0  0  0  0  0  0  0  0  0
  -25.7430  -14.1250   20.4850 C   0  0  0  0  0  0  0  0  0  0  0  0
  -24.6440  -13.3780   20.8140 C   0  0  0  0  0  0  0  0  0  0  0  0
  -25.0600  -12.0120   20.7380 C   0  0  0  0  0  0  0  0  0  0  0  0
  -26.7600  -13.2190   20.2310 N   0  0  0  0  0  0  0  0  0  0  0  0
  -26.3530  -11.9400   20.4410 N   0  0  0  0  0  0  0  0  0  0  0  0
  -24.2850  -10.7730   20.8750 C   0  0  0  0  0  0  0  0  0  0  0  0
  -24.6430   -9.7750   21.8100 C   0  0  0  0  0  3  0  0  0  0  0  0
  -23.8680   -8.6020   21.9360 C   0  0  0  0  0  3  0  0  0  0  0  0
  -22.7200   -8.4170   21.1290 C   0  0  0  0  0  0  0  0  0  0  0  0
  -22.3820   -9.4030   20.1850 C   0  0  0  0  0  3  0  0  0  0  0  0
  -23.1570  -10.5680   20.0550 C   0  0  0  0  0  3  0  0  0  0  0  0
  -21.9250   -7.2960   21.1640 O   0  0  0  0  0  0  0  0  0  0  0  0
  -21.7710   -6.5610   22.3130 C   0  0  0  0  0  0  0  0  0  0  0  0
  -21.2610   -7.1330   23.4990 C   0  0  0  0  0  3  0  0  0  0  0  0
  -21.0540   -6.3260   24.6360 C   0  0  0  0  0  3  0  0  0  0  0  0
  -21.3420   -4.9490   24.5850 C   0  0  0  0  0  0  0  0  0  0  0  0
  -21.8390   -4.3760   23.4020 C   0  0  0  0  0  3  0  0  0  0  0  0
  -22.0540   -5.1810   22.2680 C   0  0  0  0  0  0  0  0  0  0  0  0
  -22.5160   -4.6210   21.1240 F   0  0  0  0  0  0  0  0  0  0  0  0
  -21.1350   -4.1720   25.6740 F   0  0  0  0  0  0  0  0  0  0  0  0
  -23.2630  -13.8960   21.0900 C   0  0  0  0  0  0  0  0  0  0  0  0
  -22.5170  -13.2270   21.9640 N   0  0  0  0  0  0  0  0  0  0  0  0
  -22.8530  -14.9330   20.5690 O   0  0  0  0  0  0  0  0  0  0  0  0
  -22.8570  -12.3910   22.4120 H   0  0  0  0  0  0  0  0  0  0  0  0
  -21.5920  -13.5630   22.1950 H   0  0  0  0  0  0  0  0  0  0  0  0
  -25.9530  -15.4950   20.3670 N   0  0  0  0  0  0  0  0  0  0  0  0
  -25.1980  -16.1560   20.5130 H   0  0  0  0  0  0  0  0  0  0  0  0
  -26.8060  -15.9300   20.0480 H   0  0  0  0  0  0  0  0  0  0  0  0
  -29.3960  -17.1250   18.8800 C   0  0  0  0  0  2  0  0  0  0  0  0
  -30.8660  -17.7620   16.8830 C   0  0  0  0  0  1  0  0  0  0  0  0
  -29.5400  -18.0200   17.6140 C   0  0  0  0  0  3  0  0  0  0  0  0
  -29.2030  -19.5390   17.7160 C   0  0  0  0  0  2  0  0  0  0  0  0
  -27.7190  -21.5590   17.5200 C   0  0  0  0  0  1  0  0  0  0  0  0
  -26.9230  -19.4280   16.4890 C   0  0  0  0  0  1  0  0  0  0  0  0
  -26.9850  -19.6870   18.9880 C   0  0  0  0  0  1  0  0  0  0  0  0
  -27.7160  -20.0210   17.6730 C   0  0  1  0  0  0  0  0  0  0  0  0
  1  3  2  0
  2  1  1  0
  2  5  1  0
  4  2  1  0
  6  7  1  0
  6  5  2  0
  8  9  1  0
  8  7  2  0
 10 21  2  0
 11  9  1  0
 11 16  1  0
 12 20  1  0
 12 22  1  0
 13 19  1  0
 13 15  1  0
 14 20  1  0
 15 16  2  0
 15 14  1  0
 17 11  2  0
 18 17  1  0
 18 13  2  0
 19 12  1  0
 20 10  1  0
 22 24  2  0
 23 22  1  0
 25 23  1  0
 26 35  2  0
 26 31  1  0
 27 23  1  0
 27 31  1  0
 28 27  1  0
 29 30  1  0
 29 28  1  0
 30 26  1  0
 31 32  2  0
 32 33  1  0
 34 33  2  0
 35 34  1  0
 36 10  1  0
 36 41  1  0
 36 37  1  0
 37 40  1  1
 37 38  1  0
 39 37  1  0
 41 44  1  0
 42 46  1  0
 42 41  1  0
 43 42  2  0
 46 45  1  0
 48 46  1  0
 48 49  1  0
 48 47  1  0
 50 89  1  0
 50 59  1  0
 50  1  1  0
 51 59  1  0
 52 57  1  0
 53 54  1  0
 53 52  1  0
 55 54  1  0
 55 64  1  0
 55 56  1  0
 57 51  1  0
 57 56  1  0
 58 51  2  0
 59 60  1  0
 61 62  2  0
 62 81  1  0
 63 62  1  0
 63 66  1  0
 64 65  1  0
 64 61  1  0
 65 63  2  0
 66 67  1  0
 67 68  2  0
 69 72  1  0
 69 68  1  0
 70 69  2  0
 71 70  1  0
 71 66  2  0
 72 73  1  0
 73 74  1  0
 74 75  2  0
 76 75  1  0
 76 80  1  0
 77 76  2  0
 78 73  2  0
 78 77  1  0
 79 78  1  0
 81 82  1  0
 82 85  1  0
 82 84  1  0
 83 81  2  0
 86 61  1  0
 86 87  1  0
 88 86  1  0
 91 90  1  0
 91 92  1  0
 91 89  1  0
 96 93  1  6
 94 96  1  0
 96 92  1  0
 96 95  1  0
M  ISO  4   8 101   9 101  51 100  59 100
M  END
>  <TORSDO>  (85) 
F 25

>  <SCORE>  (85) 
-10.855

>  <name>  (85) 
85

>  <ligand_id>  (85) 
85

>  <original_smiles>  (85) 
[H]c1c([H])c([H])c2c(c1[H])C([H])([H])C([H])([H])C([H])([H])C2([H])N([H])C(=O)C1([H])N(C(=O)C([H])(N([H])C(=O)C([H])(N([H])C([H])([H])[H])C([H])([H])[H])C(C([H])([H])[H])(C([H])([H])[H])C([H])([H])[H])C([H])([H])c2c([H])c(OC([H])([H])C([H])([H])C([H])([H])C([H])([H])N([H])C(=O)C([H])(N([H])C(=O)N3C([H])([H])C([H])([H])C([H])([H])C([H])(n4nc(-c5c([H])c([H])c(Oc6c([H])c([H])c(F)c([H])c6F)c([H])c5[H])c(C(=O)N([H])[H])c4N([H])[H])C3([H])[H])C([H])([H])C([H])(C([H])([H])[H])C([H])([H])C(C([H])([H])[H])(C([H])([H])[H])C([H])([H])[H])c([H])c([H])c2C1([H])[H]

>  <smiles>  (85) 
[H]c1c([H])c([H])c2c(c1[H])C([H])([H])C([H])([H])C([H])([H])C2([H])N([H])C(=O)C1([H])N(C(=O)C([H])(N([H])C(=O)C([H])(N([H])C([H])([H])[H])C([H])([H])[H])C(C([H])([H])[H])(C([H])([H])[H])C([H])([H])[H])C([H])([H])c2c([H])c(OC([H])([H])C([H])([H])C([H])([H])C([H])([H])N([H])C(=O)C([H])(N([H])C(=O)N3C([H])([H])C([H])([H])C([H])([H])C([H])(n4nc(-c5c([H])c([H])c(Oc6c([H])c([H])c(F)c([H])c6F)c([H])c5[H])c(C(=O)N([H])[H])c4N([H])[H])C3([H])[H])C([H])([H])C([H])(C([H])([H])[H])C([H])([H])C(C([H])([H])[H])(C([H])([H])[H])C([H])([H])[H])c([H])c([H])c2C1([H])[H]

$$$$
86:0:0
     RDKit          3D

106115  0  0  1  0  0  0  0  0999 V2000
  -29.7900  -20.6340   14.9550 C   0  0  0  0  0  2  0  0  0  0  0  0
  -30.9090  -19.6760   15.0370 N   0  0  0  0  0  4  0  0  0  0  0  0
  -31.0820  -19.6190   16.0360 H   0  0  0  0  0  0  0  0  0  0  0  0
  -31.7340  -20.0310   14.5820 H   0  0  0  0  0  0  0  0  0  0  0  0
  -30.7560  -18.0680   13.1440 C   0  0  0  0  0  1  0  0  0  0  0  0
  -30.6050  -18.2820   14.6590 C   0  0  0  0  0  3  0  0  0  0  0  0
  -30.3320  -17.8300   17.7230 C   0  0  0  0  0  0  0  0  0  0  0  0
  -33.5030  -16.4770   16.4550 C   0  0  0  0  0  2  0  0  0  0  0  0
  -32.9640  -17.3010   15.2850 C   0  0  0  0  0  2  0  0  0  0  0  0
  -32.4380  -16.5760   17.5570 C   0  0  0  0  0  2  0  0  0  0  0  0
  -31.4460  -17.2730   15.4950 C   0  0  0  0  0  3  0  0  0  0  0  0
  -31.2840  -17.2490   16.9620 N   0  0  0  0  0  0  0  0  0  0  0  0
  -29.8890  -18.9540   17.4840 O   0  0  0  0  0  0  0  0  0  0  0  0
  -28.1270  -17.1450   18.7630 C   0  0  0  0  0  1  0  0  0  0  0  0
  -29.6660  -16.9810   18.8150 C   0  0  0  0  0  3  0  0  0  0  0  0
  -30.2640  -17.2260   20.2290 C   0  0  0  0  0  2  0  0  0  0  0  0
  -30.9030  -15.0260   21.1290 C   0  0  0  0  0  0  0  0  0  0  0  0
  -30.8210  -12.7620   20.2210 C   0  0  0  0  0  2  0  0  0  0  0  0
  -30.0280  -12.8150   18.8950 C   0  0  0  0  0  2  0  0  0  0  0  0
  -28.5130  -12.6900   19.1500 C   0  0  0  0  0  2  0  0  0  0  0  0
  -28.0030  -13.6150   20.2850 C   0  0  0  0  0  3  0  0  0  0  0  0
  -28.9190  -13.5280   21.5260 C   0  0  0  0  0  2  0  0  0  0  0  0
  -30.2960  -13.8160   21.0950 N   0  0  0  0  0  0  0  0  0  0  0  0
  -32.0950  -15.2040   20.8710 O   0  0  0  0  0  0  0  0  0  0  0  0
  -30.0480  -16.0560   21.0890 N   0  0  0  0  0  0  0  0  0  0  0  0
  -29.0990  -15.8560   21.3650 H   0  0  0  0  0  0  0  0  0  0  0  0
  -25.5380  -14.2140   20.7450 C   0  0  0  0  0  0  0  0  0  0  0  0
  -24.4400  -13.4330   20.9740 C   0  0  0  0  0  0  0  0  0  0  0  0
  -24.9060  -12.0830   20.9510 C   0  0  0  0  0  0  0  0  0  0  0  0
  -26.6060  -13.3410   20.6070 N   0  0  0  0  0  0  0  0  0  0  0  0
  -26.2210  -12.0520   20.7840 N   0  0  0  0  0  0  0  0  0  0  0  0
  -24.1710  -10.8140   21.0250 C   0  0  0  0  0  0  0  0  0  0  0  0
  -24.5120   -9.8210   21.9700 C   0  0  0  0  0  3  0  0  0  0  0  0
  -23.7830   -8.6140   22.0320 C   0  0  0  0  0  3  0  0  0  0  0  0
  -22.6960   -8.3940   21.1510 C   0  0  0  0  0  0  0  0  0  0  0  0
  -22.3770   -9.3750   20.1960 C   0  0  0  0  0  3  0  0  0  0  0  0
  -23.1070  -10.5730   20.1330 C   0  0  0  0  0  3  0  0  0  0  0  0
  -21.9480   -7.2410   21.1240 O   0  0  0  0  0  0  0  0  0  0  0  0
  -21.7680   -6.4780   22.2490 C   0  0  0  0  0  0  0  0  0  0  0  0
  -21.1960   -7.0080   23.4270 C   0  0  0  0  0  3  0  0  0  0  0  0
  -20.9680   -6.1700   24.5360 C   0  0  0  0  0  3  0  0  0  0  0  0
  -21.2960   -4.8030   24.4670 C   0  0  0  0  0  0  0  0  0  0  0  0
  -21.8540   -4.2730   23.2920 C   0  0  0  0  0  3  0  0  0  0  0  0
  -22.0870   -5.1080   22.1850 C   0  0  0  0  0  0  0  0  0  0  0  0
  -22.6110   -4.5900   21.0480 F   0  0  0  0  0  0  0  0  0  0  0  0
  -21.0660   -3.9960   25.5290 F   0  0  0  0  0  0  0  0  0  0  0  0
  -23.0180  -13.8990   21.1090 C   0  0  0  0  0  0  0  0  0  0  0  0
  -22.2130  -13.1780   21.8780 N   0  0  0  0  0  0  0  0  0  0  0  0
  -22.6290  -14.9340   20.5680 O   0  0  0  0  0  0  0  0  0  0  0  0
  -22.5380  -12.3370   22.3280 H   0  0  0  0  0  0  0  0  0  0  0  0
  -21.2550  -13.4680   22.0140 H   0  0  0  0  0  0  0  0  0  0  0  0
  -25.7190  -15.5890   20.6270 N   0  0  0  0  0  0  0  0  0  0  0  0
  -24.9420  -16.2380   20.6680 H   0  0  0  0  0  0  0  0  0  0  0  0
  -26.5950  -16.0300   20.3840 H   0  0  0  0  0  0  0  0  0  0  0  0
  -30.1050  -21.8470   15.8410 C   0  0  0  0  0  2  0  0  0  0  0  0
  -28.8840  -22.3530   16.6180 C   0  0  0  0  0  2  0  0  0  0  0  0
  -29.2630  -23.4580   17.6200 C   0  0  0  0  0  2  0  0  0  0  0  0
  -28.4080  -23.4690   18.8990 C   0  0  0  0  0  0  0  0  0  0  0  0
  -27.8250  -25.1350   21.8590 C   0  0  0  0  0  2  0  0  0  0  0  0
  -30.1540  -25.8370   21.1240 C   0  0  0  0  0  2  0  0  0  0  0  0
  -28.3110  -23.7610   21.3530 C   0  0  0  0  0  2  0  0  0  0  0  0
  -30.2440  -24.6530   20.1310 C   0  0  0  0  0  2  0  0  0  0  0  0
  -28.7090  -26.3120   21.3600 C   0  0  0  0  0  3  0  0  0  0  0  0
  -28.9770  -23.8970   20.0520 N   0  0  0  0  0  0  0  0  0  0  0  0
  -27.2470  -23.0490   18.8500 O   0  0  0  0  0  0  0  0  0  0  0  0
  -28.2450  -26.8150   20.1080 O   0  0  0  0  0  0  0  0  0  0  0  0
  -24.5420  -31.9850   23.3140 C   0  0  0  0  0  0  0  0  0  0  0  0
  -27.1030  -27.5720   20.1680 C   0  0  0  0  0  0  0  0  0  0  0  0
  -23.2970  -30.6000   21.6830 C   0  0  0  0  0  3  0  0  0  0  0  0
  -24.7130  -29.0600   20.2300 C   0  0  0  0  0  0  0  0  0  0  0  0
  -25.8130  -30.9550   21.4380 C   0  0  0  0  0  2  0  0  0  0  0  0
  -25.8810  -29.5830   20.8010 C   0  0  0  0  0  0  0  0  0  0  0  0
  -27.0810  -28.8440   20.7770 C   0  0  0  0  0  3  0  0  0  0  0  0
  -25.9300  -27.0590   19.5780 C   0  0  0  0  0  3  0  0  0  0  0  0
  -24.7310  -27.7920   19.6160 C   0  0  0  0  0  3  0  0  0  0  0  0
  -23.4770  -29.9250   20.2980 C   0  0  0  0  0  2  0  0  0  0  0  0
  -24.5710  -31.1920   22.2050 N   0  0  0  0  0  0  0  0  0  0  0  0
  -23.4750  -32.2620   23.8750 O   0  0  0  0  0  0  0  0  0  0  0  0
  -22.6540  -29.5790   22.6480 C   0  0  0  0  0  0  0  0  0  0  0  0
  -21.3340  -29.3800   22.5130 N   0  0  0  0  0  0  0  0  0  0  0  0
  -23.3420  -28.9670   23.4710 O   0  0  0  0  0  0  0  0  0  0  0  0
  -20.8400  -29.9340   21.8240 H   0  0  0  0  0  0  0  0  0  0  0  0
  -17.9830  -28.1110   22.9580 C   0  0  0  0  0  0  0  0  0  0  0  0
  -20.5240  -28.4380   23.2850 C   0  0  0  0  0  3  0  0  0  0  0  0
  -20.6750  -26.9980   22.7430 C   0  0  0  0  0  2  0  0  0  0  0  0
  -19.6070  -26.6250   21.7100 C   0  0  0  0  0  2  0  0  0  0  0  0
  -18.2080  -26.7500   22.3200 C   0  0  0  0  0  2  0  0  0  0  0  0
  -19.0720  -28.9110   23.3960 C   0  0  0  0  0  0  0  0  0  0  0  0
  -18.8070  -30.1830   23.9480 C   0  0  0  0  0  3  0  0  0  0  0  0
  -17.4870  -30.6540   24.0760 C   0  0  0  0  0  3  0  0  0  0  0  0
  -16.4120  -29.8520   23.6500 C   0  0  0  0  0  3  0  0  0  0  0  0
  -16.6610  -28.5840   23.0970 C   0  0  0  0  0  3  0  0  0  0  0  0
  -25.8450  -32.6010   23.9130 C   0  0  0  0  0  3  0  0  0  0  0  0
  -26.3670  -31.8260   25.1860 C   0  0  1  0  0  0  0  0  0  0  0  0
  -25.2840  -31.6040   26.2640 C   0  0  0  0  0  1  0  0  0  0  0  0
  -26.9270  -30.4410   24.7900 C   0  0  0  0  0  1  0  0  0  0  0  0
  -27.5370  -32.6020   25.8360 C   0  0  0  0  0  1  0  0  0  0  0  0
  -25.5580  -34.0050   24.2400 N   0  0  0  0  0  0  0  0  0  0  0  0
  -25.8990  -35.0490   23.4700 C   0  0  0  0  0  0  0  0  0  0  0  0
  -26.5620  -34.9280   22.4350 O   0  0  0  0  0  0  0  0  0  0  0  0
  -24.9670  -34.1700   25.0400 H   0  0  0  0  0  0  0  0  0  0  0  0
  -24.1930  -36.8610   23.1050 C   0  0  0  0  0  1  0  0  0  0  0  0
  -25.4330  -36.4460   23.9150 C   0  0  0  0  0  3  0  0  0  0  0  0
  -27.5850  -37.3080   24.7250 C   0  0  0  0  0  1  0  0  0  0  0  0
  -26.4790  -37.4830   23.7890 N   0  0  0  0  0  0  0  0  0  0  0  0
  -26.0870  -38.4110   23.9340 H   0  0  0  0  0  0  0  0  0  0  0  0
  1  2  1  0
  1 55  1  0
  2  3  1  0
  4  2  1  0
  6  5  1  0
  6  2  1  0
  7 15  1  0
  8 10  1  0
  9 11  1  0
  9  8  1  0
 11  6  1  0
 11 12  1  0
 12 10  1  0
 12  7  1  0
 13  7  2  0
 15 14  1  0
 15 16  1  0
 16 25  1  0
 18 23  1  0
 19 20  1  0
 19 18  1  0
 21 20  1  0
 21 30  1  0
 21 22  1  0
 23 17  1  0
 23 22  1  0
 24 17  2  0
 25 17  1  0
 25 26  1  0
 27 28  2  0
 28 47  1  0
 29 28  1  0
 29 32  1  0
 30 27  1  0
 30 31  1  0
 31 29  2  0
 32 33  1  0
 33 34  2  0
 35 34  1  0
 36 35  2  0
 37 36  1  0
 37 32  2  0
 38 35  1  0
 38 39  1  0
 39 40  1  0
 40 41  2  0
 42 41  1  0
 42 46  1  0
 43 42  2  0
 44 39  2  0
 44 43  1  0
 45 44  1  0
 47 48  1  0
 48 51  1  0
 48 50  1  0
 49 47  2  0
 52 53  1  0
 52 27  1  0
 54 52  1  0
 55 56  1  0
 56 57  1  0
 57 58  1  0
 58 64  1  0
 60 63  1  0
 61 59  1  0
 62 60  1  0
 63 66  1  0
 63 59  1  0
 64 62  1  0
 64 61  1  0
 65 58  2  0
 66 68  1  0
 67 78  2  0
 68 73  1  0
 69 77  1  0
 69 79  1  0
 70 76  1  0
 70 72  1  0
 71 77  1  0
 72 71  1  0
 73 72  2  0
 74 75  1  0
 74 68  2  0
 75 70  2  0
 76 69  1  0
 77 67  1  0
 79 81  2  0
 80 79  1  0
 82 80  1  0
 83 92  2  0
 83 88  1  0
 84 80  1  0
 84 88  1  0
 85 84  1  0
 86 87  1  0
 86 85  1  0
 87 83  1  0
 88 89  2  0
 89 90  1  0
 91 90  2  0
 92 91  1  0
 93 67  1  0
 93 98  1  0
 93 94  1  0
 94 97  1  1
 94 95  1  0
 96 94  1  0
 98101  1  0
 99103  1  0
 99 98  1  0
100 99  2  0
103102  1  0
105103  1  0
105106  1  0
105104  1  0
M  ISO  4  17 100  25 100  63 101  66 101
M  END
>  <TORSDO>  (86) 
F 25

>  <SCORE>  (86) 
-11.587

>  <name>  (86) 
86

>  <ligand_id>  (86) 
86

>  <original_smiles>  (86) 
[H]c1c([H])c([H])c2c(c1[H])C([H])([H])C([H])([H])C([H])([H])C2([H])N([H])C(=O)C1([H])N(C(=O)C([H])(N([H])C(=O)C([H])(N([H])C([H])([H])[H])C([H])([H])[H])C(C([H])([H])[H])(C([H])([H])[H])C([H])([H])[H])C([H])([H])c2c([H])c(OC3([H])C([H])([H])C([H])([H])N(C(=O)C([H])([H])C([H])([H])C([H])([H])C([H])([H])[N+]([H])([H])C([H])(C([H])([H])[H])C4([H])N(C(=O)C([H])(C([H])([H])[H])C([H])([H])N([H])C(=O)N5C([H])([H])C([H])([H])C([H])([H])C([H])(n6nc(-c7c([H])c([H])c(Oc8c([H])c([H])c(F)c([H])c8F)c([H])c7[H])c(C(=O)N([H])[H])c6N([H])[H])C5([H])[H])C([H])([H])C([H])([H])C4([H])[H])C([H])([H])C3([H])[H])c([H])c([H])c2C1([H])[H]

>  <smiles>  (86) 
[H]c1c([H])c([H])c2c(c1[H])C([H])([H])C([H])([H])C([H])([H])C2([H])N([H])C(=O)C1([H])N(C(=O)C([H])(N([H])C(=O)C([H])(N([H])C([H])([H])[H])C([H])([H])[H])C(C([H])([H])[H])(C([H])([H])[H])C([H])([H])[H])C([H])([H])c2c([H])c(OC3([H])C([H])([H])C([H])([H])N(C(=O)C([H])([H])C([H])([H])C([H])([H])C([H])([H])[N+]([H])([H])C([H])(C([H])([H])[H])C4([H])N(C(=O)C([H])(C([H])([H])[H])C([H])([H])N([H])C(=O)N5C([H])([H])C([H])([H])C([H])([H])C([H])(n6nc(-c7c([H])c([H])c(Oc8c([H])c([H])c(F)c([H])c8F)c([H])c7[H])c(C(=O)N([H])[H])c6N([H])[H])C5([H])[H])C([H])([H])C([H])([H])C4([H])[H])C([H])([H])C3([H])[H])c([H])c([H])c2C1([H])[H]

$$$$
87:0:0
     RDKit          3D

110117  0  0  1  0  0  0  0  0999 V2000
  -24.5960  -21.0460   18.7040 C   0  0  0  0  0  0  0  0  0  0  0  0
  -24.6040  -21.9430   19.7060 N   0  0  0  0  0  4  0  0  0  0  0  0
  -25.6380  -20.2250   18.4640 N   0  0  0  0  0  0  0  0  0  0  0  0
  -23.8020  -22.5370   19.8660 H   0  0  0  0  0  0  0  0  0  0  0  0
  -25.3530  -22.0150   20.3760 H   0  0  0  0  0  0  0  0  0  0  0  0
  -25.5530  -19.6220   17.6550 H   0  0  0  0  0  0  0  0  0  0  0  0
  -26.9380  -20.1450   19.1480 C   0  0  0  0  0  2  0  0  0  0  0  0
  -27.3110  -18.6760   19.4250 C   0  0  0  0  0  2  0  0  0  0  0  0
  -28.8230  -18.3650   19.3630 C   0  0  0  0  0  2  0  0  0  0  0  0
  -29.1270  -16.9700   19.9440 C   0  0  0  0  0  2  0  0  0  0  0  0
  -30.5470  -16.4030   19.6810 C   0  0  0  0  0  3  0  0  0  0  0  0
  -31.2150  -14.0200   19.6440 C   0  0  0  0  0  0  0  0  0  0  0  0
  -30.9550  -11.6360   19.0820 C   0  0  0  0  0  2  0  0  0  0  0  0
  -29.9270  -11.4840   17.9390 C   0  0  0  0  0  2  0  0  0  0  0  0
  -28.4830  -11.4480   18.4800 C   0  0  0  0  0  2  0  0  0  0  0  0
  -28.1920  -12.5930   19.4840 C   0  0  0  0  0  3  0  0  0  0  0  0
  -29.3070  -12.6550   20.5510 C   0  0  0  0  0  2  0  0  0  0  0  0
  -30.6020  -12.8290   19.8590 N   0  0  0  0  0  0  0  0  0  0  0  0
  -32.2170  -14.1710   18.9350 O   0  0  0  0  0  0  0  0  0  0  0  0
  -30.5600  -15.0460   20.1810 N   0  0  0  0  0  0  0  0  0  0  0  0
  -29.8120  -14.8050   20.8080 H   0  0  0  0  0  0  0  0  0  0  0  0
  -25.9430  -13.4270   20.4330 C   0  0  0  0  0  0  0  0  0  0  0  0
  -24.8490  -12.7570   20.9100 C   0  0  0  0  0  0  0  0  0  0  0  0
  -25.1660  -11.3690   20.8110 C   0  0  0  0  0  0  0  0  0  0  0  0
  -26.8690  -12.4530   20.0880 N   0  0  0  0  0  0  0  0  0  0  0  0
  -26.4050  -11.2090   20.3660 N   0  0  0  0  0  0  0  0  0  0  0  0
  -24.3420  -10.1790   21.0600 C   0  0  0  0  0  0  0  0  0  0  0  0
  -24.7430   -9.1820   21.9760 C   0  0  0  0  0  3  0  0  0  0  0  0
  -23.9270   -8.0550   22.2100 C   0  0  0  0  0  3  0  0  0  0  0  0
  -22.6920   -7.9190   21.5300 C   0  0  0  0  0  0  0  0  0  0  0  0
  -22.3090   -8.9030   20.6010 C   0  0  0  0  0  3  0  0  0  0  0  0
  -23.1260  -10.0210   20.3660 C   0  0  0  0  0  3  0  0  0  0  0  0
  -21.8460   -6.8490   21.6770 O   0  0  0  0  0  0  0  0  0  0  0  0
  -21.7870   -6.1320   22.8450 C   0  0  0  0  0  0  0  0  0  0  0  0
  -21.4190   -6.7310   24.0700 C   0  0  0  0  0  3  0  0  0  0  0  0
  -21.3040   -5.9440   25.2320 C   0  0  0  0  0  3  0  0  0  0  0  0
  -21.5470   -4.5580   25.1720 C   0  0  0  0  0  0  0  0  0  0  0  0
  -21.9080   -3.9590   23.9510 C   0  0  0  0  0  3  0  0  0  0  0  0
  -22.0250   -4.7440   22.7910 C   0  0  0  0  0  0  0  0  0  0  0  0
  -22.3530   -4.1590   21.6150 F   0  0  0  0  0  0  0  0  0  0  0  0
  -21.4280   -3.7990   26.2850 F   0  0  0  0  0  0  0  0  0  0  0  0
  -23.5420  -13.3630   21.3370 C   0  0  0  0  0  0  0  0  0  0  0  0
  -22.8490  -12.7260   22.2740 N   0  0  0  0  0  0  0  0  0  0  0  0
  -23.1510  -14.4330   20.8740 O   0  0  0  0  0  0  0  0  0  0  0  0
  -23.1840  -11.8590   22.6690 H   0  0  0  0  0  0  0  0  0  0  0  0
  -21.9730  -13.1110   22.6020 H   0  0  0  0  0  0  0  0  0  0  0  0
  -26.2190  -14.7780   20.2470 N   0  0  0  0  0  0  0  0  0  0  0  0
  -25.5200  -15.4880   20.4260 H   0  0  0  0  0  0  0  0  0  0  0  0
  -27.0200  -15.1200   19.7350 H   0  0  0  0  0  0  0  0  0  0  0  0
  -31.6510  -17.1640   20.3630 C   0  0  0  0  0  0  0  0  0  0  0  0
  -32.9050  -16.9750   19.9310 N   0  0  0  0  0  4  0  0  0  0  0  0
  -31.4050  -17.9540   21.4170 N   0  0  0  0  0  0  0  0  0  0  0  0
  -33.0740  -16.3000   19.1930 H   0  0  0  0  0  0  0  0  0  0  0  0
  -33.7120  -17.4400   20.3170 H   0  0  0  0  0  0  0  0  0  0  0  0
  -30.4590  -18.0500   21.7620 H   0  0  0  0  0  0  0  0  0  0  0  0
  -32.1240  -18.4530   21.9180 H   0  0  0  0  0  0  0  0  0  0  0  0
  -23.4020  -20.9500   17.7970 C   0  0  0  0  0  2  0  0  0  0  0  0
  -23.5180  -21.9890   16.6670 C   0  0  0  0  0  2  0  0  0  0  0  0
  -22.4880  -24.3090   16.7300 C   0  0  0  0  0  1  0  0  0  0  0  0
  -23.6870  -23.4480   17.1610 C   0  0  0  0  0  3  0  0  0  0  0  0
  -25.0140  -24.0700   16.6790 C   0  0  0  0  0  2  0  0  0  0  0  0
  -26.2400  -23.5470   17.4510 C   0  0  0  0  0  2  0  0  0  0  0  0
  -27.5090  -23.4980   16.5870 C   0  0  0  0  0  2  0  0  0  0  0  0
  -28.8040  -23.3670   17.4110 C   0  0  0  0  0  2  0  0  0  0  0  0
  -29.3590  -24.6860   17.7800 N   0  0  0  0  0  4  0  0  0  0  0  0
  -28.8790  -25.3920   17.2430 H   0  0  0  0  0  0  0  0  0  0  0  0
  -30.3240  -24.6990   17.4810 H   0  0  0  0  0  0  0  0  0  0  0  0
  -29.2970  -25.0240   19.2220 C   0  0  0  0  0  2  0  0  0  0  0  0
  -29.6540  -26.5040   19.4650 C   0  0  0  0  0  2  0  0  0  0  0  0
  -29.1440  -26.9880   20.7090 O   0  0  0  0  0  0  0  0  0  0  0  0
  -24.6690  -31.7300   23.5670 C   0  0  0  0  0  0  0  0  0  0  0  0
  -27.8940  -27.5600   20.6690 C   0  0  0  0  0  0  0  0  0  0  0  0
  -23.6940  -30.2120   21.8750 C   0  0  0  0  0  3  0  0  0  0  0  0
  -25.3640  -28.8070   20.5570 C   0  0  0  0  0  0  0  0  0  0  0  0
  -26.1800  -30.8040   21.8180 C   0  0  0  0  0  2  0  0  0  0  0  0
  -26.4280  -29.4420   21.2080 C   0  0  0  0  0  0  0  0  0  0  0  0
  -27.6910  -28.8170   21.2790 C   0  0  0  0  0  3  0  0  0  0  0  0
  -26.8060  -26.9220   20.0320 C   0  0  0  0  0  3  0  0  0  0  0  0
  -25.5430  -27.5400   19.9750 C   0  0  0  0  0  3  0  0  0  0  0  0
  -24.0450  -29.5450   20.5180 C   0  0  0  0  0  2  0  0  0  0  0  0
  -24.8610  -30.9310   22.4800 N   0  0  0  0  0  0  0  0  0  0  0  0
  -23.5370  -31.9040   24.0430 O   0  0  0  0  0  0  0  0  0  0  0  0
  -23.0870  -29.1390   22.8060 C   0  0  0  0  0  0  0  0  0  0  0  0
  -21.9020  -28.6280   22.4360 N   0  0  0  0  0  0  0  0  0  0  0  0
  -23.6880  -28.7660   23.8180 O   0  0  0  0  0  0  0  0  0  0  0  0
  -21.4710  -28.9920   21.5970 H   0  0  0  0  0  0  0  0  0  0  0  0
  -19.0010  -26.4850   22.2330 C   0  0  0  0  0  0  0  0  0  0  0  0
  -21.1600  -27.5810   23.1370 C   0  0  0  0  0  3  0  0  0  0  0  0
  -21.8240  -26.1990   22.9360 C   0  0  0  0  0  2  0  0  0  0  0  0
  -21.2450  -25.4170   21.7540 C   0  0  0  0  0  2  0  0  0  0  0  0
  -19.7420  -25.1900   21.9440 C   0  0  0  0  0  2  0  0  0  0  0  0
  -19.6710  -27.6120   22.7780 C   0  0  0  0  0  0  0  0  0  0  0  0
  -18.9430  -28.8030   22.9950 C   0  0  0  0  0  3  0  0  0  0  0  0
  -17.5740  -28.8770   22.6780 C   0  0  0  0  0  3  0  0  0  0  0  0
  -16.9120  -27.7530   22.1520 C   0  0  0  0  0  3  0  0  0  0  0  0
  -17.6230  -26.5600   21.9360 C   0  0  0  0  0  3  0  0  0  0  0  0
  -25.8530  -32.4790   24.2520 C   0  0  0  0  0  3  0  0  0  0  0  0
  -25.4400  -33.8750   24.4490 N   0  0  0  0  0  0  0  0  0  0  0  0
  -25.7750  -34.8870   23.6390 C   0  0  0  0  0  0  0  0  0  0  0  0
  -26.5350  -34.7510   22.6760 O   0  0  0  0  0  0  0  0  0  0  0  0
  -24.7740  -34.0500   25.1870 H   0  0  0  0  0  0  0  0  0  0  0  0
  -23.9800  -36.5300   23.0070 C   0  0  0  0  0  1  0  0  0  0  0  0
  -25.1700  -36.2710   23.9440 C   0  0  0  0  0  3  0  0  0  0  0  0
  -27.1730  -37.3490   24.8680 C   0  0  0  0  0  1  0  0  0  0  0  0
  -26.1450  -37.3770   23.8300 N   0  0  0  0  0  0  0  0  0  0  0  0
  -25.6760  -38.2780   23.8740 H   0  0  0  0  0  0  0  0  0  0  0  0
  -26.2940  -31.8290   25.6220 C   0  0  1  0  0  0  0  0  0  0  0  0
  -25.1140  -31.5420   26.5800 C   0  0  0  0  0  1  0  0  0  0  0  0
  -27.0380  -30.4950   25.3760 C   0  0  0  0  0  1  0  0  0  0  0  0
  -27.2870  -32.7630   26.3510 C   0  0  0  0  0  1  0  0  0  0  0  0
  1  2  2  0
  2  4  1  0
  2  5  1  0
  3  1  1  0
  3  7  1  0
  6  3  1  0
  7  8  1  0
  9  8  1  0
  9 10  1  0
 11 10  1  0
 11 20  1  0
 11 50  1  0
 12 18  1  0
 12 20  1  0
 13 18  1  0
 14 15  1  0
 14 13  1  0
 16 15  1  0
 16 25  1  0
 16 17  1  0
 18 17  1  0
 19 12  2  0
 20 21  1  0
 22 23  2  0
 23 42  1  0
 24 23  1  0
 24 27  1  0
 25 26  1  0
 25 22  1  0
 26 24  2  0
 27 28  1  0
 28 29  2  0
 30 33  1  0
 30 29  1  0
 31 30  2  0
 32 31  1  0
 32 27  2  0
 33 34  1  0
 34 35  1  0
 35 36  2  0
 37 36  1  0
 37 41  1  0
 38 37  2  0
 39 34  2  0
 39 38  1  0
 40 39  1  0
 42 43  1  0
 43 46  1  0
 43 45  1  0
 44 42  2  0
 47 48  1  0
 47 22  1  0
 49 47  1  0
 50 52  1  0
 51 54  1  0
 51 50  2  0
 52 55  1  0
 52 56  1  0
 53 51  1  0
 57  1  1  0
 58 60  1  0
 58 57  1  0
 60 59  1  0
 61 60  1  0
 61 62  1  0
 63 64  1  0
 63 62  1  0
 64 65  1  0
 65 68  1  0
 66 65  1  0
 67 65  1  0
 68 69  1  0
 69 70  1  0
 71 82  2  0
 72 70  1  0
 72 77  1  0
 73 81  1  0
 73 83  1  0
 74 76  1  0
 75 81  1  0
 76 77  2  0
 76 75  1  0
 78 72  2  0
 79 78  1  0
 79 74  2  0
 80 74  1  0
 80 73  1  0
 81 71  1  0
 83 85  2  0
 84 83  1  0
 86 84  1  0
 87 92  1  0
 88 84  1  0
 89 88  1  0
 90 91  1  0
 90 89  1  0
 91 87  1  0
 92 93  2  0
 92 88  1  0
 94 93  1  0
 95 94  2  0
 96 95  1  0
 96 87  2  0
 97 71  1  0
 97 98  1  0
 97107  1  0
 98101  1  0
 99103  1  0
 99 98  1  0
100 99  2  0
103102  1  0
105106  1  0
105103  1  0
105104  1  0
107110  1  1
107108  1  0
109107  1  0
M  ISO  4  12 100  20 100  69 101  70 101
M  END
>  <TORSDO>  (87) 
F 32

>  <SCORE>  (87) 
-6.899

>  <name>  (87) 
87

>  <ligand_id>  (87) 
87

>  <original_smiles>  (87) 
[H]c1c([H])c([H])c2c(c1[H])C([H])([H])C([H])([H])C([H])([H])C2([H])N([H])C(=O)C1([H])N(C(=O)C([H])(N([H])C(=O)C([H])(N([H])C([H])([H])[H])C([H])([H])[H])C(C([H])([H])[H])(C([H])([H])[H])C([H])([H])[H])C([H])([H])c2c([H])c(OC([H])([H])C([H])([H])[N+]([H])([H])C([H])([H])C([H])([H])C([H])([H])C([H])([H])C([H])(C([H])([H])[H])C([H])([H])C([H])([H])C(N([H])[H])=[N+]([H])C([H])([H])C([H])([H])C([H])([H])C([H])([H])C([H])(C(N([H])[H])=[N+]([H])[H])N([H])C(=O)N3C([H])([H])C([H])([H])C([H])([H])C([H])(n4nc(-c5c([H])c([H])c(Oc6c([H])c([H])c(F)c([H])c6F)c([H])c5[H])c(C(=O)N([H])[H])c4N([H])[H])C3([H])[H])c([H])c([H])c2C1([H])[H]

>  <smiles>  (87) 
[H]c1c([H])c([H])c2c(c1[H])C([H])([H])C([H])([H])C([H])([H])C2([H])N([H])C(=O)C1([H])N(C(=O)C([H])(N([H])C(=O)C([H])(N([H])C([H])([H])[H])C([H])([H])[H])C(C([H])([H])[H])(C([H])([H])[H])C([H])([H])[H])C([H])([H])c2c([H])c(OC([H])([H])C([H])([H])[N+]([H])([H])C([H])([H])C([H])([H])C([H])([H])C([H])([H])C([H])(C([H])([H])[H])C([H])([H])C([H])([H])C(N([H])[H])=[N+]([H])C([H])([H])C([H])([H])C([H])([H])C([H])([H])C([H])(C(N([H])[H])=[N+]([H])[H])N([H])C(=O)N3C([H])([H])C([H])([H])C([H])([H])C([H])(n4nc(-c5c([H])c([H])c(Oc6c([H])c([H])c(F)c([H])c6F)c([H])c5[H])c(C(=O)N([H])[H])c4N([H])[H])C3([H])[H])c([H])c([H])c2C1([H])[H]

$$$$
89:0:0
     RDKit          3D

 99106  0  0  1  0  0  0  0  0999 V2000
  -28.0960  -21.1850   20.0380 C   0  0  0  0  0  3  0  0  0  0  0  0
  -27.9330  -21.8510   21.4130 C   0  0  0  0  0  0  0  0  0  0  0  0
  -26.7480  -22.3570   21.7270 N   0  0  0  0  0  0  0  0  0  0  0  0
  -28.8890  -21.9260   22.1850 O   0  0  0  0  0  0  0  0  0  0  0  0
  -25.9570  -22.2620   21.1030 H   0  0  0  0  0  0  0  0  0  0  0  0
  -26.6090  -22.7900   22.6290 H   0  0  0  0  0  0  0  0  0  0  0  0
  -29.3280  -20.3660   20.0060 N   0  0  0  0  0  4  0  0  0  0  0  0
  -29.7660  -20.4510   19.1040 H   0  0  0  0  0  0  0  0  0  0  0  0
  -29.9360  -20.7500   20.7140 H   0  0  0  0  0  0  0  0  0  0  0  0
  -29.0730  -18.9350   20.3110 C   0  0  0  0  0  2  0  0  0  0  0  0
  -30.3400  -18.0620   20.3870 C   0  0  0  0  0  2  0  0  0  0  0  0
  -29.9790  -16.6310   20.8340 C   0  0  0  0  0  2  0  0  0  0  0  0
  -31.4970  -14.8440   20.0500 C   0  0  0  0  0  0  0  0  0  0  0  0
  -31.1040  -12.6050   19.0920 C   0  0  0  0  0  2  0  0  0  0  0  0
  -30.1490  -12.6500   17.8830 C   0  0  0  0  0  2  0  0  0  0  0  0
  -28.6800  -12.5720   18.3410 C   0  0  0  0  0  2  0  0  0  0  0  0
  -28.3620  -13.5820   19.4720 C   0  0  0  0  0  3  0  0  0  0  0  0
  -29.4190  -13.4950   20.5970 C   0  0  0  0  0  2  0  0  0  0  0  0
  -30.7520  -13.7070   20.0030 N   0  0  0  0  0  0  0  0  0  0  0  0
  -32.5370  -14.9960   19.4080 O   0  0  0  0  0  0  0  0  0  0  0  0
  -31.1530  -15.7680   20.9600 N   0  0  0  0  0  0  0  0  0  0  0  0
  -31.9600  -16.2800   21.2830 H   0  0  0  0  0  0  0  0  0  0  0  0
  -26.0410  -14.3550   20.2770 C   0  0  0  0  0  0  0  0  0  0  0  0
  -24.9300  -13.6560   20.6670 C   0  0  0  0  0  0  0  0  0  0  0  0
  -25.2860  -12.2750   20.5870 C   0  0  0  0  0  0  0  0  0  0  0  0
  -27.0060  -13.4030   19.9890 N   0  0  0  0  0  0  0  0  0  0  0  0
  -26.5560  -12.1450   20.2310 N   0  0  0  0  0  0  0  0  0  0  0  0
  -24.4750  -11.0670   20.7720 C   0  0  0  0  0  0  0  0  0  0  0  0
  -24.8340  -10.0750   21.7110 C   0  0  0  0  0  3  0  0  0  0  0  0
  -24.0310   -8.9270   21.8830 C   0  0  0  0  0  3  0  0  0  0  0  0
  -22.8540   -8.7650   21.1140 C   0  0  0  0  0  0  0  0  0  0  0  0
  -22.5130   -9.7430   20.1630 C   0  0  0  0  0  3  0  0  0  0  0  0
  -23.3170  -10.8830   19.9900 C   0  0  0  0  0  3  0  0  0  0  0  0
  -22.0260   -7.6710   21.1940 O   0  0  0  0  0  0  0  0  0  0  0  0
  -21.8710   -6.9690   22.3620 C   0  0  0  0  0  0  0  0  0  0  0  0
  -21.4080   -7.5840   23.5460 C   0  0  0  0  0  3  0  0  0  0  0  0
  -21.1980   -6.8090   24.7050 C   0  0  0  0  0  3  0  0  0  0  0  0
  -21.4410   -5.4240   24.6800 C   0  0  0  0  0  0  0  0  0  0  0  0
  -21.8980   -4.8090   23.5020 C   0  0  0  0  0  3  0  0  0  0  0  0
  -22.1090   -5.5800   22.3450 C   0  0  0  0  0  0  0  0  0  0  0  0
  -22.5300   -4.9800   21.2050 F   0  0  0  0  0  0  0  0  0  0  0  0
  -21.2340   -4.6780   25.7910 F   0  0  0  0  0  0  0  0  0  0  0  0
  -23.5830  -14.2270   20.9990 C   0  0  0  0  0  0  0  0  0  0  0  0
  -22.8410  -13.5710   21.8850 N   0  0  0  0  0  0  0  0  0  0  0  0
  -23.1970  -15.2880   20.5080 O   0  0  0  0  0  0  0  0  0  0  0  0
  -23.1660  -12.7110   22.3040 H   0  0  0  0  0  0  0  0  0  0  0  0
  -21.9350  -13.9340   22.1470 H   0  0  0  0  0  0  0  0  0  0  0  0
  -26.3040  -15.7130   20.1220 N   0  0  0  0  0  0  0  0  0  0  0  0
  -25.5850  -16.4180   20.2390 H   0  0  0  0  0  0  0  0  0  0  0  0
  -27.1450  -16.0730   19.6890 H   0  0  0  0  0  0  0  0  0  0  0  0
  -28.0020  -22.2200   18.8870 C   0  0  0  0  0  2  0  0  0  0  0  0
  -28.8960  -23.4900   18.9580 C   0  0  0  0  0  2  0  0  0  0  0  0
  -28.0680  -24.7920   18.7890 C   0  0  0  0  0  3  0  0  0  0  0  0
  -27.0670  -24.9080   19.8820 N   0  0  0  0  0  4  0  0  0  0  0  0
  -27.5040  -24.9570   20.7870 H   0  0  0  0  0  0  0  0  0  0  0  0
  -26.4220  -24.1360   19.8860 H   0  0  0  0  0  0  0  0  0  0  0  0
  -26.5230  -25.7500   19.7650 H   0  0  0  0  0  0  0  0  0  0  0  0
  -28.9250  -26.0880   18.6890 C   0  0  0  0  0  2  0  0  0  0  0  0
  -28.3650  -27.0770   17.8120 O   0  0  0  0  0  0  0  0  0  0  0  0
  -24.7020  -30.8840   22.6000 C   0  0  0  0  0  0  0  0  0  0  0  0
  -27.1650  -27.6290   18.1920 C   0  0  0  0  0  0  0  0  0  0  0  0
  -23.3640  -29.7640   20.8440 C   0  0  0  0  0  3  0  0  0  0  0  0
  -24.6910  -28.7820   18.9030 C   0  0  0  0  0  0  0  0  0  0  0  0
  -25.7840  -30.4550   20.4000 C   0  0  0  0  0  2  0  0  0  0  0  0
  -25.8810  -29.2840   19.4470 C   0  0  0  0  0  0  0  0  0  0  0  0
  -27.1210  -28.7080   19.1010 C   0  0  0  0  0  3  0  0  0  0  0  0
  -25.9630  -27.1650   17.6160 C   0  0  0  0  0  3  0  0  0  0  0  0
  -24.7250  -27.7160   17.9900 C   0  0  0  0  0  3  0  0  0  0  0  0
  -23.4030  -29.4500   19.3260 C   0  0  0  0  0  2  0  0  0  0  0  0
  -24.6430  -30.3710   21.3390 N   0  0  0  0  0  0  0  0  0  0  0  0
  -23.7040  -30.8950   23.3350 O   0  0  0  0  0  0  0  0  0  0  0  0
  -22.9640  -28.4780   21.6020 C   0  0  0  0  0  0  0  0  0  0  0  0
  -21.6770  -28.1070   21.5120 N   0  0  0  0  0  0  0  0  0  0  0  0
  -23.8060  -27.8240   22.2240 O   0  0  0  0  0  0  0  0  0  0  0  0
  -21.0480  -28.6990   20.9880 H   0  0  0  0  0  0  0  0  0  0  0  0
  -18.6170  -26.2130   21.7990 C   0  0  0  0  0  0  0  0  0  0  0  0
  -21.0840  -26.9140   22.1140 C   0  0  0  0  0  3  0  0  0  0  0  0
  -21.4430  -25.6440   21.3060 C   0  0  0  0  0  2  0  0  0  0  0  0
  -20.3920  -25.2820   20.2520 C   0  0  0  0  0  2  0  0  0  0  0  0
  -19.0290  -25.0520   20.9100 C   0  0  0  0  0  2  0  0  0  0  0  0
  -19.5820  -27.0960   22.3520 C   0  0  0  0  0  0  0  0  0  0  0  0
  -19.1430  -28.1790   23.1440 C   0  0  0  0  0  3  0  0  0  0  0  0
  -17.7720  -28.3840   23.3890 C   0  0  0  0  0  3  0  0  0  0  0  0
  -16.8240  -27.4960   22.8540 C   0  0  0  0  0  3  0  0  0  0  0  0
  -17.2460  -26.4120   22.0640 C   0  0  0  0  0  3  0  0  0  0  0  0
  -26.0160  -31.5000   23.1700 C   0  0  0  0  0  3  0  0  0  0  0  0
  -26.7920  -30.5260   24.1390 C   0  0  1  0  0  0  0  0  0  0  0  0
  -25.9100  -29.9340   25.2620 C   0  0  0  0  0  1  0  0  0  0  0  0
  -27.4060  -29.3450   23.3500 C   0  0  0  0  0  1  0  0  0  0  0  0
  -27.9730  -31.2760   24.8010 C   0  0  0  0  0  1  0  0  0  0  0  0
  -25.6580  -32.7470   23.8600 N   0  0  0  0  0  0  0  0  0  0  0  0
  -25.8340  -33.9730   23.3530 C   0  0  0  0  0  0  0  0  0  0  0  0
  -26.3900  -34.1780   22.2700 O   0  0  0  0  0  0  0  0  0  0  0  0
  -25.1490  -32.6550   24.7280 H   0  0  0  0  0  0  0  0  0  0  0  0
  -23.9630  -35.6340   23.6030 C   0  0  0  0  0  1  0  0  0  0  0  0
  -25.3090  -35.1640   24.1780 C   0  0  0  0  0  3  0  0  0  0  0  0
  -27.4560  -36.0130   25.0090 C   0  0  0  0  0  1  0  0  0  0  0  0
  -26.2520  -36.3010   24.2350 N   0  0  0  0  0  0  0  0  0  0  0  0
  -25.8060  -37.1210   24.6370 H   0  0  0  0  0  0  0  0  0  0  0  0
  1 51  1  0
  1  2  1  0
  2  3  1  0
  2  4  2  0
  3  6  1  0
  5  3  1  0
  7  1  1  0
  7 10  1  0
  7  9  1  0
  8  7  1  0
 10 11  1  0
 11 12  1  0
 12 21  1  0
 13 21  1  0
 14 19  1  0
 15 16  1  0
 15 14  1  0
 17 16  1  0
 17 26  1  0
 17 18  1  0
 19 13  1  0
 19 18  1  0
 20 13  2  0
 21 22  1  0
 23 24  2  0
 24 43  1  0
 25 24  1  0
 25 28  1  0
 26 27  1  0
 26 23  1  0
 27 25  2  0
 28 29  1  0
 29 30  2  0
 31 34  1  0
 31 30  1  0
 32 31  2  0
 33 32  1  0
 33 28  2  0
 34 35  1  0
 35 36  1  0
 36 37  2  0
 38 37  1  0
 38 42  1  0
 39 38  2  0
 40 35  2  0
 40 39  1  0
 41 40  1  0
 43 44  1  0
 44 47  1  0
 44 46  1  0
 45 43  2  0
 48 49  1  0
 48 23  1  0
 50 48  1  0
 51 52  1  0
 53 58  1  0
 53 52  1  0
 53 54  1  0
 54 56  1  0
 54 55  1  0
 57 54  1  0
 59 61  1  0
 59 58  1  0
 60 71  2  0
 61 66  1  0
 62 70  1  0
 62 72  1  0
 63 69  1  0
 63 65  1  0
 64 70  1  0
 65 64  1  0
 66 65  2  0
 67 68  1  0
 67 61  2  0
 68 63  2  0
 69 62  1  0
 70 60  1  0
 72 74  2  0
 73 72  1  0
 75 73  1  0
 76 85  2  0
 76 81  1  0
 77 73  1  0
 77 81  1  0
 78 77  1  0
 79 80  1  0
 79 78  1  0
 80 76  1  0
 81 82  2  0
 82 83  1  0
 84 83  2  0
 85 84  1  0
 86 60  1  0
 86 91  1  0
 86 87  1  0
 87 90  1  1
 87 88  1  0
 89 87  1  0
 91 94  1  0
 92 91  1  0
 92 96  1  0
 93 92  2  0
 96 95  1  0
 96 98  1  0
 98 99  1  0
 98 97  1  0
M  ISO  4  13 100  21 100  58 101  59 101
M  END
>  <TORSDO>  (88) 
F 26

>  <SCORE>  (88) 
-8.583

>  <name>  (88) 
89

>  <ligand_id>  (88) 
89

>  <original_smiles>  (88) 
[H]c1c([H])c([H])c2c(c1[H])C([H])([H])C([H])([H])C([H])([H])C2([H])N([H])C(=O)C1([H])N(C(=O)C([H])(N([H])C(=O)C([H])(N([H])C([H])([H])[H])C([H])([H])[H])C(C([H])([H])[H])(C([H])([H])[H])C([H])([H])[H])C([H])([H])c2c([H])c(OC([H])([H])C([H])(C([H])([H])C([H])([H])C([H])(C(=O)N([H])[H])[N+]([H])([H])C([H])([H])C([H])([H])C([H])([H])N([H])C(=O)N3C([H])([H])C([H])([H])C([H])([H])C([H])(n4nc(-c5c([H])c([H])c(Oc6c([H])c([H])c(F)c([H])c6F)c([H])c5[H])c(C(=O)N([H])[H])c4N([H])[H])C3([H])[H])[N+]([H])([H])[H])c([H])c([H])c2C1([H])[H]

>  <smiles>  (88) 
[H]c1c([H])c([H])c2c(c1[H])C([H])([H])C([H])([H])C([H])([H])C2([H])N([H])C(=O)C1([H])N(C(=O)C([H])(N([H])C(=O)C([H])(N([H])C([H])([H])[H])C([H])([H])[H])C(C([H])([H])[H])(C([H])([H])[H])C([H])([H])[H])C([H])([H])c2c([H])c(OC([H])([H])C([H])(C([H])([H])C([H])([H])C([H])(C(=O)N([H])[H])[N+]([H])([H])C([H])([H])C([H])([H])C([H])([H])N([H])C(=O)N3C([H])([H])C([H])([H])C([H])([H])C([H])(n4nc(-c5c([H])c([H])c(Oc6c([H])c([H])c(F)c([H])c6F)c([H])c5[H])c(C(=O)N([H])[H])c4N([H])[H])C3([H])[H])[N+]([H])([H])[H])c([H])c([H])c2C1([H])[H]

$$$$
90:0:0
     RDKit          3D

103110  0  0  1  0  0  0  0  0999 V2000
  -27.5440  -22.5850   19.7980 C   0  0  0  0  0  0  0  0  0  0  0  0
  -26.4180  -22.4650   20.5230 N   0  0  0  0  0  4  0  0  0  0  0  0
  -28.0840  -21.5330   19.1530 N   0  0  0  0  0  0  0  0  0  0  0  0
  -26.0140  -23.2610   20.9980 H   0  0  0  0  0  0  0  0  0  0  0  0
  -25.9040  -21.5990   20.6040 H   0  0  0  0  0  0  0  0  0  0  0  0
  -28.8950  -21.7140   18.5740 H   0  0  0  0  0  0  0  0  0  0  0  0
  -28.2110  -23.9280   19.7020 C   0  0  0  0  0  2  0  0  0  0  0  0
  -29.3190  -24.0790   20.7670 C   0  0  0  0  0  2  0  0  0  0  0  0
  -30.1260  -25.4100   20.7030 C   0  0  0  0  0  3  0  0  0  0  0  0
  -31.2630  -25.3830   21.6530 N   0  0  0  0  0  4  0  0  0  0  0  0
  -30.9540  -25.2220   22.5960 H   0  0  0  0  0  0  0  0  0  0  0  0
  -31.7750  -26.2490   21.6370 H   0  0  0  0  0  0  0  0  0  0  0  0
  -31.9110  -24.6540   21.4110 H   0  0  0  0  0  0  0  0  0  0  0  0
  -29.2700  -26.6830   20.9240 C   0  0  0  0  0  2  0  0  0  0  0  0
  -28.4670  -26.8650   19.7680 O   0  0  0  0  0  0  0  0  0  0  0  0
  -24.7460  -31.9250   23.1880 C   0  0  0  0  0  0  0  0  0  0  0  0
  -27.3230  -27.6070   19.9110 C   0  0  0  0  0  0  0  0  0  0  0  0
  -23.5000  -30.5750   21.5270 C   0  0  0  0  0  3  0  0  0  0  0  0
  -24.9230  -29.0760   20.0370 C   0  0  0  0  0  0  0  0  0  0  0  0
  -26.0200  -30.9360   21.2940 C   0  0  0  0  0  2  0  0  0  0  0  0
  -26.0880  -29.5870   20.6210 C   0  0  0  0  0  0  0  0  0  0  0  0
  -27.2920  -28.8520   20.5740 C   0  0  0  0  0  3  0  0  0  0  0  0
  -26.1470  -27.1060   19.3180 C   0  0  0  0  0  3  0  0  0  0  0  0
  -24.9430  -27.8280   19.3920 C   0  0  0  0  0  3  0  0  0  0  0  0
  -23.6820  -29.9330   20.1270 C   0  0  0  0  0  2  0  0  0  0  0  0
  -24.7730  -31.1590   22.0610 N   0  0  0  0  0  0  0  0  0  0  0  0
  -23.6760  -32.1830   23.7580 O   0  0  0  0  0  0  0  0  0  0  0  0
  -22.8690  -29.5260   22.4700 C   0  0  0  0  0  0  0  0  0  0  0  0
  -21.5450  -29.3350   22.3470 N   0  0  0  0  0  0  0  0  0  0  0  0
  -23.5640  -28.8890   23.2650 O   0  0  0  0  0  0  0  0  0  0  0  0
  -21.0460  -29.9090   21.6820 H   0  0  0  0  0  0  0  0  0  0  0  0
  -18.1900  -28.0780   22.8070 C   0  0  0  0  0  0  0  0  0  0  0  0
  -20.7410  -28.3740   23.1010 C   0  0  0  0  0  3  0  0  0  0  0  0
  -20.8710  -26.9500   22.5090 C   0  0  0  0  0  2  0  0  0  0  0  0
  -19.7810  -26.6210   21.4820 C   0  0  0  0  0  2  0  0  0  0  0  0
  -18.3920  -26.7380   22.1190 C   0  0  0  0  0  2  0  0  0  0  0  0
  -19.2940  -28.8520   23.2540 C   0  0  0  0  0  0  0  0  0  0  0  0
  -19.0520  -30.1060   23.8560 C   0  0  0  0  0  3  0  0  0  0  0  0
  -17.7400  -30.5860   24.0180 C   0  0  0  0  0  3  0  0  0  0  0  0
  -16.6490  -29.8070   23.5940 C   0  0  0  0  0  3  0  0  0  0  0  0
  -16.8750  -28.5560   22.9930 C   0  0  0  0  0  3  0  0  0  0  0  0
  -26.0470  -32.5340   23.7980 C   0  0  0  0  0  3  0  0  0  0  0  0
  -26.5810  -31.7350   25.0530 C   0  0  1  0  0  0  0  0  0  0  0  0
  -25.5070  -31.4840   26.1370 C   0  0  0  0  0  1  0  0  0  0  0  0
  -27.1490  -30.3610   24.6230 C   0  0  0  0  0  1  0  0  0  0  0  0
  -27.7440  -32.5130   25.7110 C   0  0  0  0  0  1  0  0  0  0  0  0
  -25.7570  -33.9270   24.1550 N   0  0  0  0  0  0  0  0  0  0  0  0
  -26.0810  -34.9880   23.4040 C   0  0  0  0  0  0  0  0  0  0  0  0
  -26.7260  -34.8960   22.3560 O   0  0  0  0  0  0  0  0  0  0  0  0
  -25.1830  -34.0740   24.9730 H   0  0  0  0  0  0  0  0  0  0  0  0
  -24.3460  -36.7880   23.1280 C   0  0  0  0  0  1  0  0  0  0  0  0
  -25.6130  -36.3720   23.8910 C   0  0  0  0  0  3  0  0  0  0  0  0
  -27.7770  -37.2430   24.6580 C   0  0  0  0  0  1  0  0  0  0  0  0
  -26.6430  -37.4240   23.7540 N   0  0  0  0  0  0  0  0  0  0  0  0
  -26.2430  -38.3420   23.9320 H   0  0  0  0  0  0  0  0  0  0  0  0
  -27.5260  -20.1740   19.0500 C   0  0  0  0  0  2  0  0  0  0  0  0
  -28.5900  -19.1590   18.5970 C   0  0  0  0  0  2  0  0  0  0  0  0
  -29.2720  -18.4230   19.7660 C   0  0  0  0  0  2  0  0  0  0  0  0
  -30.6450  -17.8330   19.3850 C   0  0  0  0  0  2  0  0  0  0  0  0
  -31.2990  -16.9070   20.4410 C   0  0  0  0  0  3  0  0  0  0  0  0
  -31.2840  -14.5150   19.7630 C   0  0  0  0  0  0  0  0  0  0  0  0
  -30.9730  -12.1660   19.0910 C   0  0  0  0  0  2  0  0  0  0  0  0
  -30.0200  -12.0840   17.8810 C   0  0  0  0  0  2  0  0  0  0  0  0
  -28.5540  -12.0290   18.3520 C   0  0  0  0  0  2  0  0  0  0  0  0
  -28.2170  -13.1380   19.3830 C   0  0  0  0  0  3  0  0  0  0  0  0
  -29.2770  -13.1820   20.5060 C   0  0  0  0  0  2  0  0  0  0  0  0
  -30.6010  -13.3480   19.8800 N   0  0  0  0  0  0  0  0  0  0  0  0
  -32.3270  -14.6280   19.1090 O   0  0  0  0  0  0  0  0  0  0  0  0
  -30.7400  -15.5620   20.3890 N   0  0  0  0  0  0  0  0  0  0  0  0
  -29.9180  -15.4090   20.9540 H   0  0  0  0  0  0  0  0  0  0  0  0
  -25.9130  -13.9310   20.2130 C   0  0  0  0  0  0  0  0  0  0  0  0
  -24.8030  -13.2420   20.6280 C   0  0  0  0  0  0  0  0  0  0  0  0
  -25.1500  -11.8580   20.5580 C   0  0  0  0  0  0  0  0  0  0  0  0
  -26.8690  -12.9710   19.9230 N   0  0  0  0  0  0  0  0  0  0  0  0
  -26.4140  -11.7170   20.1850 N   0  0  0  0  0  0  0  0  0  0  0  0
  -24.3340  -10.6560   20.7740 C   0  0  0  0  0  0  0  0  0  0  0  0
  -24.7000   -9.6760   21.7220 C   0  0  0  0  0  3  0  0  0  0  0  0
  -23.8910   -8.5370   21.9220 C   0  0  0  0  0  3  0  0  0  0  0  0
  -22.7010   -8.3720   21.1740 C   0  0  0  0  0  0  0  0  0  0  0  0
  -22.3550   -9.3390   20.2140 C   0  0  0  0  0  3  0  0  0  0  0  0
  -23.1640  -10.4690   20.0120 C   0  0  0  0  0  3  0  0  0  0  0  0
  -21.8670   -7.2850   21.2820 O   0  0  0  0  0  0  0  0  0  0  0  0
  -21.7210   -6.6060   22.4640 C   0  0  0  0  0  0  0  0  0  0  0  0
  -21.2780   -7.2450   23.6430 C   0  0  0  0  0  3  0  0  0  0  0  0
  -21.0760   -6.4940   24.8180 C   0  0  0  0  0  3  0  0  0  0  0  0
  -21.3060   -5.1040   24.8150 C   0  0  0  0  0  0  0  0  0  0  0  0
  -21.7420   -4.4660   23.6420 C   0  0  0  0  0  3  0  0  0  0  0  0
  -21.9450   -5.2130   22.4680 C   0  0  0  0  0  0  0  0  0  0  0  0
  -22.3450   -4.5890   21.3340 F   0  0  0  0  0  0  0  0  0  0  0  0
  -21.1040   -4.3820   25.9420 F   0  0  0  0  0  0  0  0  0  0  0  0
  -23.4660  -13.8280   20.9790 C   0  0  0  0  0  0  0  0  0  0  0  0
  -22.7400  -13.1910   21.8930 N   0  0  0  0  0  0  0  0  0  0  0  0
  -23.0770  -14.8820   20.4800 O   0  0  0  0  0  0  0  0  0  0  0  0
  -23.0680  -12.3360   22.3160 H   0  0  0  0  0  0  0  0  0  0  0  0
  -21.8460  -13.5660   22.1740 H   0  0  0  0  0  0  0  0  0  0  0  0
  -26.1780  -15.2860   20.0400 N   0  0  0  0  0  0  0  0  0  0  0  0
  -25.4730  -15.9990   20.1940 H   0  0  0  0  0  0  0  0  0  0  0  0
  -27.0510  -15.6560   19.6860 H   0  0  0  0  0  0  0  0  0  0  0  0
  -31.2740  -17.4170   21.8860 C   0  0  0  0  0  0  0  0  0  0  0  0
  -32.0150  -18.4770   22.1700 N   0  0  0  0  0  0  0  0  0  0  0  0
  -30.5910  -16.8570   22.7440 O   0  0  0  0  0  0  0  0  0  0  0  0
  -32.5700  -18.9190   21.4500 H   0  0  0  0  0  0  0  0  0  0  0  0
  -32.0390  -18.8460   23.1100 H   0  0  0  0  0  0  0  0  0  0  0  0
  1  2  2  0
  2  5  1  0
  2  4  1  0
  3  1  1  0
  6  3  1  0
  7  1  1  0
  7  8  1  0
  9  8  1  0
  9 14  1  0
  9 10  1  0
 10 11  1  0
 12 10  1  0
 13 10  1  0
 15 17  1  0
 15 14  1  0
 16 27  2  0
 17 22  1  0
 18 26  1  0
 18 28  1  0
 19 25  1  0
 19 21  1  0
 20 26  1  0
 21 20  1  0
 22 21  2  0
 23 24  1  0
 23 17  2  0
 24 19  2  0
 25 18  1  0
 26 16  1  0
 28 30  2  0
 29 28  1  0
 31 29  1  0
 32 41  2  0
 32 37  1  0
 33 29  1  0
 33 37  1  0
 34 33  1  0
 35 36  1  0
 35 34  1  0
 36 32  1  0
 37 38  2  0
 38 39  1  0
 40 39  2  0
 41 40  1  0
 42 16  1  0
 42 47  1  0
 42 43  1  0
 43 46  1  1
 43 44  1  0
 45 43  1  0
 47 50  1  0
 48 52  1  0
 48 47  1  0
 49 48  2  0
 52 51  1  0
 54 52  1  0
 54 55  1  0
 54 53  1  0
 56  3  1  0
 57 56  1  0
 57 58  1  0
 59 58  1  0
 60 59  1  0
 60 99  1  0
 61 67  1  0
 61 69  1  0
 62 67  1  0
 63 64  1  0
 63 62  1  0
 65 64  1  0
 65 74  1  0
 65 66  1  0
 67 66  1  0
 68 61  2  0
 69 60  1  0
 69 70  1  0
 71 72  2  0
 72 91  1  0
 73 72  1  0
 73 76  1  0
 74 75  1  0
 74 71  1  0
 75 73  2  0
 76 77  1  0
 77 78  2  0
 79 82  1  0
 79 78  1  0
 80 79  2  0
 81 80  1  0
 81 76  2  0
 82 83  1  0
 83 88  2  0
 83 84  1  0
 84 85  2  0
 86 85  1  0
 86 90  1  0
 87 86  2  0
 88 87  1  0
 89 88  1  0
 91 92  1  0
 92 95  1  0
 92 94  1  0
 93 91  2  0
 96 97  1  0
 96 71  1  0
 98 96  1  0
 99100  1  0
 99101  2  0
100103  1  0
102100  1  0
M  ISO  4  14 101  15 101  61 100  69 100
M  END
>  <TORSDO>  (89) 
F 27

>  <SCORE>  (89) 
-11.574

>  <name>  (89) 
90

>  <ligand_id>  (89) 
90

>  <original_smiles>  (89) 
[H]c1c([H])c([H])c2c(c1[H])C([H])([H])C([H])([H])C([H])([H])C2([H])N([H])C(=O)C1([H])N(C(=O)C([H])(N([H])C(=O)C([H])(N([H])C([H])([H])[H])C([H])([H])[H])C(C([H])([H])[H])(C([H])([H])[H])C([H])([H])[H])C([H])([H])c2c([H])c(OC([H])([H])C([H])(C([H])([H])C([H])([H])C(N([H])[H])=[N+]([H])C([H])([H])C([H])([H])C([H])([H])C([H])([H])C([H])(C(=O)N([H])[H])N([H])C(=O)N3C([H])([H])C([H])([H])C([H])([H])C([H])(n4nc(-c5c([H])c([H])c(Oc6c([H])c([H])c(F)c([H])c6F)c([H])c5[H])c(C(=O)N([H])[H])c4N([H])[H])C3([H])[H])[N+]([H])([H])[H])c([H])c([H])c2C1([H])[H]

>  <smiles>  (89) 
[H]c1c([H])c([H])c2c(c1[H])C([H])([H])C([H])([H])C([H])([H])C2([H])N([H])C(=O)C1([H])N(C(=O)C([H])(N([H])C(=O)C([H])(N([H])C([H])([H])[H])C([H])([H])[H])C(C([H])([H])[H])(C([H])([H])[H])C([H])([H])[H])C([H])([H])c2c([H])c(OC([H])([H])C([H])(C([H])([H])C([H])([H])C(N([H])[H])=[N+]([H])C([H])([H])C([H])([H])C([H])([H])C([H])([H])C([H])(C(=O)N([H])[H])N([H])C(=O)N3C([H])([H])C([H])([H])C([H])([H])C([H])(n4nc(-c5c([H])c([H])c(Oc6c([H])c([H])c(F)c([H])c6F)c([H])c5[H])c(C(=O)N([H])[H])c4N([H])[H])C3([H])[H])[N+]([H])([H])[H])c([H])c([H])c2C1([H])[H]

$$$$
91:0:0
     RDKit          3D

101109  0  0  1  0  0  0  0  0999 V2000
  -29.5700  -19.6020   19.9060 C   0  0  0  0  0  3  0  0  0  0  0  0
  -29.6860  -19.4390   21.3750 N   0  0  0  0  0  4  0  0  0  0  0  0
  -29.5710  -20.3300   21.8300 H   0  0  0  0  0  0  0  0  0  0  0  0
  -28.9170  -18.8580   21.6720 H   0  0  0  0  0  0  0  0  0  0  0  0
  -30.9560  -18.8350   21.8390 C   0  0  0  0  0  2  0  0  0  0  0  0
  -34.6850  -20.9530   22.8670 C   0  0  0  0  0  2  0  0  0  0  0  0
  -33.3430  -21.6170   23.2180 C   0  0  0  0  0  2  0  0  0  0  0  0
  -34.6030  -20.1930   21.5360 C   0  0  0  0  0  2  0  0  0  0  0  0
  -32.1920  -20.5980   23.2060 C   0  0  0  0  0  2  0  0  0  0  0  0
  -33.4620  -19.1660   21.5630 C   0  0  0  0  0  2  0  0  0  0  0  0
  -32.1130  -19.8520   21.8580 C   0  0  0  0  0  3  0  0  0  0  0  0
  -29.1890  -18.1350   19.3570 C   0  0  0  0  0  0  0  0  0  0  0  0
  -28.0240  -17.8370   19.0870 O   0  0  0  0  0  0  0  0  0  0  0  0
  -30.2830  -16.9940   19.2400 C   0  0  0  0  0  2  0  0  0  0  0  0
  -30.5650  -14.4400   19.1550 C   0  0  0  0  0  0  0  0  0  0  0  0
  -30.2580  -12.1000   18.3940 C   0  0  0  0  0  2  0  0  0  0  0  0
  -29.1410  -12.0580   17.3290 C   0  0  0  0  0  2  0  0  0  0  0  0
  -27.7560  -11.9260   17.9920 C   0  0  0  0  0  2  0  0  0  0  0  0
  -27.5510  -12.9180   19.1670 C   0  0  0  0  0  3  0  0  0  0  0  0
  -28.7700  -12.9380   20.1170 C   0  0  0  0  0  2  0  0  0  0  0  0
  -29.9570  -13.2220   19.3030 N   0  0  0  0  0  0  0  0  0  0  0  0
  -31.6670  -14.5370   18.6110 O   0  0  0  0  0  0  0  0  0  0  0  0
  -29.8360  -15.5640   19.4420 N   0  0  0  0  0  0  0  0  0  0  0  0
  -28.9050  -15.4340   19.8120 H   0  0  0  0  0  0  0  0  0  0  0  0
  -25.3960  -13.5720   20.3990 C   0  0  0  0  0  0  0  0  0  0  0  0
  -24.3680  -12.8280   20.9100 C   0  0  0  0  0  0  0  0  0  0  0  0
  -24.7130  -11.4610   20.6730 C   0  0  0  0  0  0  0  0  0  0  0  0
  -26.3060  -12.6620   19.8860 N   0  0  0  0  0  0  0  0  0  0  0  0
  -25.9130  -11.3810   20.1110 N   0  0  0  0  0  0  0  0  0  0  0  0
  -23.9440  -10.2300   20.9000 C   0  0  0  0  0  0  0  0  0  0  0  0
  -24.3840   -9.2420   21.8080 C   0  0  0  0  0  3  0  0  0  0  0  0
  -23.6180   -8.0750   22.0230 C   0  0  0  0  0  3  0  0  0  0  0  0
  -22.4000   -7.8870   21.3310 C   0  0  0  0  0  0  0  0  0  0  0  0
  -21.9790   -8.8630   20.4080 C   0  0  0  0  0  3  0  0  0  0  0  0
  -22.7430  -10.0220   20.1920 C   0  0  0  0  0  3  0  0  0  0  0  0
  -21.6040   -6.7750   21.4560 O   0  0  0  0  0  0  0  0  0  0  0  0
  -21.4910   -6.0970   22.6430 C   0  0  0  0  0  0  0  0  0  0  0  0
  -20.9280   -6.6950   23.7900 C   0  0  0  0  0  3  0  0  0  0  0  0
  -20.7670   -5.9420   24.9700 C   0  0  0  0  0  3  0  0  0  0  0  0
  -21.1610   -4.5910   25.0020 C   0  0  0  0  0  0  0  0  0  0  0  0
  -21.7170   -3.9920   23.8590 C   0  0  0  0  0  3  0  0  0  0  0  0
  -21.8770   -4.7420   22.6810 C   0  0  0  0  0  0  0  0  0  0  0  0
  -22.3950   -4.1550   21.5750 F   0  0  0  0  0  0  0  0  0  0  0  0
  -21.0000   -3.8640   26.1330 F   0  0  0  0  0  0  0  0  0  0  0  0
  -23.0880  -13.3550   21.4930 C   0  0  0  0  0  0  0  0  0  0  0  0
  -22.4800  -12.6120   22.4110 N   0  0  0  0  0  0  0  0  0  0  0  0
  -22.6420  -14.4550   21.1670 O   0  0  0  0  0  0  0  0  0  0  0  0
  -22.8600  -11.7220   22.6970 H   0  0  0  0  0  0  0  0  0  0  0  0
  -21.6270  -12.9420   22.8400 H   0  0  0  0  0  0  0  0  0  0  0  0
  -25.6250  -14.9420   20.3090 N   0  0  0  0  0  0  0  0  0  0  0  0
  -24.9410  -15.6250   20.6180 H   0  0  0  0  0  0  0  0  0  0  0  0
  -26.4180  -15.3650   19.8440 H   0  0  0  0  0  0  0  0  0  0  0  0
  -28.5880  -20.8250   19.5340 C   0  0  0  0  0  2  0  0  0  0  0  0
  -28.8160  -22.2660   20.2120 C   0  0  0  0  0  2  0  0  0  0  0  0
  -28.3430  -23.6210   19.4750 C   0  0  0  0  0  3  0  0  0  0  0  0
  -29.3420  -24.0290   18.4630 N   0  0  0  0  0  4  0  0  0  0  0  0
  -30.2090  -24.3090   18.8920 H   0  0  0  0  0  0  0  0  0  0  0  0
  -29.0020  -24.8200   17.9400 H   0  0  0  0  0  0  0  0  0  0  0  0
  -29.5340  -23.2950   17.8050 H   0  0  0  0  0  0  0  0  0  0  0  0
  -28.0010  -24.8840   20.3970 C   0  0  0  0  0  2  0  0  0  0  0  0
  -28.1800  -26.2490   19.8500 O   0  0  0  0  0  0  0  0  0  0  0  0
  -24.5870  -31.5210   23.2100 C   0  0  0  0  0  0  0  0  0  0  0  0
  -27.0800  -27.1080   19.8920 C   0  0  0  0  0  0  0  0  0  0  0  0
  -23.3430  -30.2480   21.4990 C   0  0  0  0  0  3  0  0  0  0  0  0
  -24.7500  -28.7490   19.9780 C   0  0  0  0  0  0  0  0  0  0  0  0
  -25.8870  -30.5260   21.3150 C   0  0  0  0  0  2  0  0  0  0  0  0
  -25.9320  -29.1890   20.5890 C   0  0  0  0  0  0  0  0  0  0  0  0
  -27.1060  -28.3840   20.5270 C   0  0  0  0  0  3  0  0  0  0  0  0
  -25.8820  -26.7110   19.2650 C   0  0  0  0  0  3  0  0  0  0  0  0
  -24.7260  -27.5160   19.3030 C   0  0  0  0  0  3  0  0  0  0  0  0
  -23.5340  -29.6470   20.0810 C   0  0  0  0  0  2  0  0  0  0  0  0
  -24.6250  -30.7800   22.0640 N   0  0  0  0  0  0  0  0  0  0  0  0
  -23.5130  -31.7920   23.7660 O   0  0  0  0  0  0  0  0  0  0  0  0
  -22.6640  -29.1920   22.4010 C   0  0  0  0  0  0  0  0  0  0  0  0
  -21.3360  -29.0420   22.2610 N   0  0  0  0  0  0  0  0  0  0  0  0
  -23.3300  -28.5120   23.1870 O   0  0  0  0  0  0  0  0  0  0  0  0
  -20.8580  -29.6450   21.6050 H   0  0  0  0  0  0  0  0  0  0  0  0
  -17.9330  -27.9020   22.7150 C   0  0  0  0  0  0  0  0  0  0  0  0
  -20.4990  -28.0790   22.9780 C   0  0  0  0  0  3  0  0  0  0  0  0
  -20.5590  -26.6840   22.3130 C   0  0  0  0  0  2  0  0  0  0  0  0
  -19.4410  -26.4530   21.2900 C   0  0  0  0  0  2  0  0  0  0  0  0
  -18.0690  -26.5930   21.9540 C   0  0  0  0  0  2  0  0  0  0  0  0
  -19.0750  -28.6060   23.1820 C   0  0  0  0  0  0  0  0  0  0  0  0
  -18.8930  -29.8350   23.8530 C   0  0  0  0  0  3  0  0  0  0  0  0
  -17.6050  -30.3580   24.0610 C   0  0  0  0  0  3  0  0  0  0  0  0
  -16.4770  -29.6510   23.6120 C   0  0  0  0  0  3  0  0  0  0  0  0
  -16.6420  -28.4220   22.9450 C   0  0  0  0  0  3  0  0  0  0  0  0
  -25.8870  -32.0840   23.8610 C   0  0  0  0  0  3  0  0  0  0  0  0
  -26.3810  -31.2380   25.0980 C   0  0  1  0  0  0  0  0  0  0  0  0
  -25.2780  -30.9740   26.1500 C   0  0  0  0  0  1  0  0  0  0  0  0
  -26.9340  -29.8680   24.6390 C   0  0  0  0  0  1  0  0  0  0  0  0
  -27.5470  -31.9720   25.8020 C   0  0  0  0  0  1  0  0  0  0  0  0
  -25.6180  -33.4730   24.2610 N   0  0  0  0  0  0  0  0  0  0  0  0
  -25.9750  -34.5530   23.5540 C   0  0  0  0  0  0  0  0  0  0  0  0
  -26.6350  -34.4830   22.5140 O   0  0  0  0  0  0  0  0  0  0  0  0
  -25.0290  -33.6050   25.0720 H   0  0  0  0  0  0  0  0  0  0  0  0
  -24.2980  -36.4100   23.2960 C   0  0  0  0  0  1  0  0  0  0  0  0
  -25.5270  -35.9290   24.0830 C   0  0  0  0  0  3  0  0  0  0  0  0
  -27.6700  -36.7270   24.9770 C   0  0  0  0  0  1  0  0  0  0  0  0
  -26.5880  -36.9570   24.0230 N   0  0  0  0  0  0  0  0  0  0  0  0
  -26.2040  -37.8830   24.1910 H   0  0  0  0  0  0  0  0  0  0  0  0
  1 53  1  0
  1  2  1  0
  2  4  1  0
  2  3  1  0
  2  5  1  0
  5 11  1  0
  6  7  1  0
  8 10  1  0
  8  6  1  0
  9  7  1  0
 10 11  1  0
 11  9  1  0
 12  1  1  0
 13 12  2  0
 14 12  1  0
 14 23  1  0
 15 21  1  0
 15 23  1  0
 16 21  1  0
 17 18  1  0
 17 16  1  0
 19 18  1  0
 19 28  1  0
 19 20  1  0
 21 20  1  0
 22 15  2  0
 23 24  1  0
 25 26  2  0
 26 45  1  0
 27 30  1  0
 27 26  1  0
 28 29  1  0
 28 25  1  0
 29 27  2  0
 30 31  1  0
 31 32  2  0
 33 36  1  0
 33 32  1  0
 34 33  2  0
 35 34  1  0
 35 30  2  0
 36 37  1  0
 37 42  2  0
 37 38  1  0
 38 39  2  0
 39 40  1  0
 40 44  1  0
 41 40  2  0
 42 41  1  0
 43 42  1  0
 45 46  1  0
 46 48  1  0
 46 49  1  0
 47 45  2  0
 50 25  1  0
 50 51  1  0
 52 50  1  0
 53 54  1  0
 55 54  1  0
 55 60  1  0
 56 57  1  0
 56 55  1  0
 58 56  1  0
 59 56  1  0
 61 63  1  0
 61 60  1  0
 62 73  2  0
 63 68  1  0
 64 72  1  0
 64 74  1  0
 65 71  1  0
 65 67  1  0
 66 72  1  0
 67 66  1  0
 68 67  2  0
 69 70  1  0
 69 63  2  0
 70 65  2  0
 71 64  1  0
 72 62  1  0
 74 76  2  0
 75 74  1  0
 77 75  1  0
 78 87  2  0
 78 83  1  0
 79 75  1  0
 79 83  1  0
 80 79  1  0
 81 82  1  0
 81 80  1  0
 82 78  1  0
 83 84  2  0
 84 85  1  0
 86 85  2  0
 87 86  1  0
 88 62  1  0
 88 93  1  0
 88 89  1  0
 89 92  1  1
 89 90  1  0
 91 89  1  0
 93 96  1  0
 94 98  1  0
 94 93  1  0
 95 94  2  0
 98 97  1  0
100 98  1  0
100101  1  0
100 99  1  0
M  ISO  4  15 100  23 100  60 101  61 101
M  END
>  <TORSDO>  (90) 
F 26

>  <SCORE>  (90) 
-10.293

>  <name>  (90) 
91

>  <ligand_id>  (90) 
91

>  <original_smiles>  (90) 
[H]c1c([H])c([H])c2c(c1[H])C([H])([H])C([H])([H])C([H])([H])C2([H])N([H])C(=O)C1([H])N(C(=O)C([H])(N([H])C(=O)C([H])(N([H])C([H])([H])[H])C([H])([H])[H])C(C([H])([H])[H])(C([H])([H])[H])C([H])([H])[H])C([H])([H])c2c([H])c(OC([H])([H])C([H])(C([H])([H])C([H])([H])C([H])(C(=O)C([H])([H])N([H])C(=O)N3C([H])([H])C([H])([H])C([H])([H])C([H])(n4nc(-c5c([H])c([H])c(Oc6c([H])c([H])c(F)c([H])c6F)c([H])c5[H])c(C(=O)N([H])[H])c4N([H])[H])C3([H])[H])[N+]([H])([H])C([H])([H])C3([H])C([H])([H])C([H])([H])C([H])([H])C([H])([H])C3([H])[H])[N+]([H])([H])[H])c([H])c([H])c2C1([H])[H]

>  <smiles>  (90) 
[H]c1c([H])c([H])c2c(c1[H])C([H])([H])C([H])([H])C([H])([H])C2([H])N([H])C(=O)C1([H])N(C(=O)C([H])(N([H])C(=O)C([H])(N([H])C([H])([H])[H])C([H])([H])[H])C(C([H])([H])[H])(C([H])([H])[H])C([H])([H])[H])C([H])([H])c2c([H])c(OC([H])([H])C([H])(C([H])([H])C([H])([H])C([H])(C(=O)C([H])([H])N([H])C(=O)N3C([H])([H])C([H])([H])C([H])([H])C([H])(n4nc(-c5c([H])c([H])c(Oc6c([H])c([H])c(F)c([H])c6F)c([H])c5[H])c(C(=O)N([H])[H])c4N([H])[H])C3([H])[H])[N+]([H])([H])C([H])([H])C3([H])C([H])([H])C([H])([H])C([H])([H])C([H])([H])C3([H])[H])[N+]([H])([H])[H])c([H])c([H])c2C1([H])[H]

$$$$
92:0:0
     RDKit          3D

 99106  0  0  1  0  0  0  0  0999 V2000
  -30.6550  -19.7460   23.0750 C   0  0  0  0  0  3  0  0  0  0  0  0
  -30.9250  -20.8200   21.9980 C   0  0  0  0  0  0  0  0  0  0  0  0
  -32.0730  -21.0470   21.6070 O   0  0  0  0  0  0  0  0  0  0  0  0
  -29.7240  -21.6080   21.4490 C   0  0  0  0  0  2  0  0  0  0  0  0
  -30.1080  -22.8460   20.6080 C   0  0  0  0  0  2  0  0  0  0  0  0
  -28.8800  -23.5990   20.0710 C   0  0  0  0  0  2  0  0  0  0  0  0
  -29.2070  -25.0170   19.5650 C   0  0  0  0  0  2  0  0  0  0  0  0
  -27.9570  -25.7460   19.0530 C   0  0  0  0  0  2  0  0  0  0  0  0
  -28.1590  -27.1590   19.0520 O   0  0  0  0  0  0  0  0  0  0  0  0
  -24.8060  -31.5630   23.4900 C   0  0  0  0  0  0  0  0  0  0  0  0
  -27.0290  -27.9150   19.2690 C   0  0  0  0  0  0  0  0  0  0  0  0
  -23.4380  -30.6660   21.6340 C   0  0  0  0  0  3  0  0  0  0  0  0
  -24.7260  -29.4650   19.7910 C   0  0  0  0  0  0  0  0  0  0  0  0
  -25.9680  -30.9510   21.3730 C   0  0  0  0  0  2  0  0  0  0  0  0
  -25.9400  -29.7810   20.4130 C   0  0  0  0  0  0  0  0  0  0  0  0
  -27.0960  -29.0160   20.1470 C   0  0  0  0  0  3  0  0  0  0  0  0
  -25.7980  -27.6110   18.6410 C   0  0  0  0  0  3  0  0  0  0  0  0
  -24.6480  -28.3790   18.9010 C   0  0  0  0  0  3  0  0  0  0  0  0
  -23.5380  -30.3380   20.1210 C   0  0  0  0  0  2  0  0  0  0  0  0
  -24.7590  -31.0580   22.2240 N   0  0  0  0  0  0  0  0  0  0  0  0
  -23.7710  -31.7440   24.1460 O   0  0  0  0  0  0  0  0  0  0  0  0
  -22.7770  -29.4690   22.3550 C   0  0  0  0  0  0  0  0  0  0  0  0
  -21.4450  -29.3560   22.2240 N   0  0  0  0  0  0  0  0  0  0  0  0
  -23.4560  -28.6580   22.9880 O   0  0  0  0  0  0  0  0  0  0  0  0
  -20.9600  -30.0660   21.6940 H   0  0  0  0  0  0  0  0  0  0  0  0
  -18.0480  -28.1550   22.4890 C   0  0  0  0  0  0  0  0  0  0  0  0
  -20.6120  -28.2910   22.7830 C   0  0  0  0  0  3  0  0  0  0  0  0
  -20.6790  -27.0170   21.9080 C   0  0  0  0  0  2  0  0  0  0  0  0
  -19.5630  -26.9470   20.8610 C   0  0  0  0  0  2  0  0  0  0  0  0
  -18.1880  -26.9790   21.5370 C   0  0  0  0  0  2  0  0  0  0  0  0
  -19.1870  -28.7820   23.0620 C   0  0  0  0  0  0  0  0  0  0  0  0
  -19.0020  -29.8940   23.9110 C   0  0  0  0  0  3  0  0  0  0  0  0
  -17.7120  -30.3750   24.1970 C   0  0  0  0  0  3  0  0  0  0  0  0
  -16.5870  -29.7410   23.6420 C   0  0  0  0  0  3  0  0  0  0  0  0
  -16.7560  -28.6320   22.7930 C   0  0  0  0  0  3  0  0  0  0  0  0
  -26.1570  -31.9600   24.1630 C   0  0  0  0  0  3  0  0  0  0  0  0
  -26.6680  -30.8950   25.2080 C   0  0  1  0  0  0  0  0  0  0  0  0
  -25.6050  -30.4960   26.2570 C   0  0  0  0  0  1  0  0  0  0  0  0
  -27.1320  -29.6060   24.4900 C   0  0  0  0  0  1  0  0  0  0  0  0
  -27.9000  -31.4480   25.9600 C   0  0  0  0  0  1  0  0  0  0  0  0
  -25.9630  -33.2670   24.8030 N   0  0  0  0  0  0  0  0  0  0  0  0
  -26.3790  -34.4340   24.2920 C   0  0  0  0  0  0  0  0  0  0  0  0
  -27.0370  -34.5130   23.2510 O   0  0  0  0  0  0  0  0  0  0  0  0
  -25.3820  -33.2840   25.6290 H   0  0  0  0  0  0  0  0  0  0  0  0
  -24.8080  -36.3960   24.3690 C   0  0  0  0  0  1  0  0  0  0  0  0
  -26.0040  -35.7170   25.0570 C   0  0  0  0  0  3  0  0  0  0  0  0
  -28.1910  -36.2140   26.0560 C   0  0  0  0  0  1  0  0  0  0  0  0
  -27.1220  -36.6780   25.1760 N   0  0  0  0  0  0  0  0  0  0  0  0
  -26.7910  -37.5740   25.5240 H   0  0  0  0  0  0  0  0  0  0  0  0
  -31.4170  -20.0540   24.3940 C   0  0  0  0  0  2  0  0  0  0  0  0
  -31.3740  -21.4720   24.8130 N   0  0  0  0  0  4  0  0  0  0  0  0
  -31.8690  -22.0650   24.1700 H   0  0  0  0  0  0  0  0  0  0  0  0
  -31.8190  -21.5670   25.7090 H   0  0  0  0  0  0  0  0  0  0  0  0
  -30.4290  -21.7980   24.9090 H   0  0  0  0  0  0  0  0  0  0  0  0
  -31.0190  -18.3230   22.5600 C   0  0  0  0  0  2  0  0  0  0  0  0
  -30.1850  -17.8540   21.3490 C   0  0  0  0  0  2  0  0  0  0  0  0
  -30.8540  -16.7870   20.4510 C   0  0  0  0  0  3  0  0  0  0  0  0
  -31.1850  -14.3120   20.5940 C   0  0  0  0  0  0  0  0  0  0  0  0
  -30.8860  -12.0390   19.7030 C   0  0  0  0  0  2  0  0  0  0  0  0
  -30.0290  -12.1080   18.4230 C   0  0  0  0  0  2  0  0  0  0  0  0
  -28.5280  -12.0550   18.7690 C   0  0  0  0  0  2  0  0  0  0  0  0
  -28.1310  -13.0480   19.8930 C   0  0  0  0  0  3  0  0  0  0  0  0
  -29.1100  -12.9620   21.0870 C   0  0  0  0  0  2  0  0  0  0  0  0
  -30.4770  -13.1520   20.5740 N   0  0  0  0  0  0  0  0  0  0  0  0
  -32.3540  -14.3880   20.2090 O   0  0  0  0  0  0  0  0  0  0  0  0
  -30.4710  -15.4210   20.8500 N   0  0  0  0  0  0  0  0  0  0  0  0
  -29.5170  -15.2810   21.1490 H   0  0  0  0  0  0  0  0  0  0  0  0
  -25.7320  -13.7910   20.4690 C   0  0  0  0  0  0  0  0  0  0  0  0
  -24.6100  -13.0820   20.8030 C   0  0  0  0  0  0  0  0  0  0  0  0
  -25.0050  -11.7090   20.8270 C   0  0  0  0  0  0  0  0  0  0  0  0
  -26.7430  -12.8540   20.3120 N   0  0  0  0  0  0  0  0  0  0  0  0
  -26.3050  -11.5990   20.5850 N   0  0  0  0  0  0  0  0  0  0  0  0
  -24.2070  -10.4910   21.0110 C   0  0  0  0  0  0  0  0  0  0  0  0
  -24.5400   -9.5320   21.9940 C   0  0  0  0  0  3  0  0  0  0  0  0
  -23.7480   -8.3770   22.1630 C   0  0  0  0  0  3  0  0  0  0  0  0
  -22.6090   -8.1710   21.3480 C   0  0  0  0  0  0  0  0  0  0  0  0
  -22.2960   -9.1160   20.3560 C   0  0  0  0  0  3  0  0  0  0  0  0
  -23.0880  -10.2650   20.1850 C   0  0  0  0  0  3  0  0  0  0  0  0
  -21.7950   -7.0660   21.4240 O   0  0  0  0  0  0  0  0  0  0  0  0
  -21.6300   -6.3750   22.5970 C   0  0  0  0  0  0  0  0  0  0  0  0
  -21.1140   -6.9900   23.7590 C   0  0  0  0  0  3  0  0  0  0  0  0
  -20.8940   -6.2250   24.9210 C   0  0  0  0  0  3  0  0  0  0  0  0
  -21.1800   -4.8460   24.9230 C   0  0  0  0  0  0  0  0  0  0  0  0
  -21.6900   -4.2320   23.7650 C   0  0  0  0  0  3  0  0  0  0  0  0
  -21.9110   -4.9930   22.6050 C   0  0  0  0  0  0  0  0  0  0  0  0
  -22.3810   -4.3920   21.4860 F   0  0  0  0  0  0  0  0  0  0  0  0
  -20.9630   -4.1100   26.0370 F   0  0  0  0  0  0  0  0  0  0  0  0
  -23.2270  -13.6350   20.9920 C   0  0  0  0  0  0  0  0  0  0  0  0
  -22.4270  -13.0060   21.8480 N   0  0  0  0  0  0  0  0  0  0  0  0
  -22.8630  -14.6600   20.4180 O   0  0  0  0  0  0  0  0  0  0  0  0
  -22.7320  -12.1770   22.3350 H   0  0  0  0  0  0  0  0  0  0  0  0
  -21.4960  -13.3610   22.0180 H   0  0  0  0  0  0  0  0  0  0  0  0
  -25.9640  -15.1460   20.2690 N   0  0  0  0  0  0  0  0  0  0  0  0
  -25.2180  -15.8310   20.3240 H   0  0  0  0  0  0  0  0  0  0  0  0
  -26.8410  -15.5380   19.9550 H   0  0  0  0  0  0  0  0  0  0  0  0
  -29.0690  -16.7790   18.5950 C   0  0  0  0  0  1  0  0  0  0  0  0
  -30.5380  -17.0650   18.9480 C   0  0  0  0  0  3  0  0  0  0  0  0
  -32.9160  -16.8330   17.9520 C   0  0  0  0  0  1  0  0  0  0  0  0
  -31.4630  -16.3400   17.9450 C   0  0  0  0  0  2  0  0  0  0  0  0
  1 55  1  0
  1 50  1  0
  2  1  1  0
  3  2  2  0
  4  2  1  0
  5  4  1  0
  6  5  1  0
  7  6  1  0
  8  7  1  0
  9  8  1  0
  9 11  1  0
 10 21  2  0
 11 16  1  0
 12 20  1  0
 12 22  1  0
 13 19  1  0
 13 15  1  0
 14 20  1  0
 15 14  1  0
 16 15  2  0
 17 18  1  0
 17 11  2  0
 18 13  2  0
 19 12  1  0
 20 10  1  0
 22 24  2  0
 23 22  1  0
 25 23  1  0
 26 35  2  0
 26 31  1  0
 27 23  1  0
 27 31  1  0
 28 27  1  0
 29 30  1  0
 29 28  1  0
 30 26  1  0
 31 32  2  0
 32 33  1  0
 34 33  2  0
 35 34  1  0
 36 10  1  0
 36 41  1  0
 36 37  1  0
 37 40  1  1
 37 38  1  0
 39 37  1  0
 41 44  1  0
 42 41  1  0
 42 46  1  0
 43 42  2  0
 46 45  1  0
 46 48  1  0
 48 49  1  0
 48 47  1  0
 50 51  1  0
 51 54  1  0
 51 53  1  0
 52 51  1  0
 56 55  1  0
 57 66  1  0
 57 56  1  0
 58 66  1  0
 59 64  1  0
 60 61  1  0
 60 59  1  0
 62 61  1  0
 62 71  1  0
 62 63  1  0
 64 58  1  0
 64 63  1  0
 65 58  2  0
 66 67  1  0
 68 69  2  0
 69 70  1  0
 69 88  1  0
 70 73  1  0
 71 68  1  0
 71 72  1  0
 72 70  2  0
 73 74  1  0
 74 75  2  0
 76 79  1  0
 76 75  1  0
 77 76  2  0
 78 77  1  0
 78 73  2  0
 79 80  1  0
 80 85  2  0
 80 81  1  0
 81 82  2  0
 82 83  1  0
 83 87  1  0
 84 83  2  0
 85 84  1  0
 86 85  1  0
 88 89  1  0
 89 92  1  0
 89 91  1  0
 90 88  2  0
 93 94  1  0
 93 68  1  0
 95 93  1  0
 97 96  1  0
 97 57  1  0
 99 98  1  0
 99 97  1  0
M  ISO  4   8 101   9 101  58 100  66 100
M  END
>  <TORSDO>  (91) 
F 29

>  <SCORE>  (91) 
-9.232

>  <name>  (91) 
92

>  <ligand_id>  (91) 
92

>  <original_smiles>  (91) 
[H]c1c([H])c([H])c2c(c1[H])C([H])([H])C([H])([H])C([H])([H])C2([H])N([H])C(=O)C1([H])N(C(=O)C([H])(N([H])C(=O)C([H])(N([H])C([H])([H])[H])C([H])([H])[H])C(C([H])([H])[H])(C([H])([H])[H])C([H])([H])[H])C([H])([H])c2c([H])c(OC([H])([H])C([H])([H])C([H])([H])C([H])([H])C([H])([H])C(=O)C([H])(C([H])([H])C([H])([H])C([H])(N([H])C(=O)N3C([H])([H])C([H])([H])C([H])([H])C([H])(n4nc(-c5c([H])c([H])c(Oc6c([H])c([H])c(F)c([H])c6F)c([H])c5[H])c(C(=O)N([H])[H])c4N([H])[H])C3([H])[H])C([H])(C([H])([H])[H])C([H])([H])C([H])([H])[H])C([H])([H])[N+]([H])([H])[H])c([H])c([H])c2C1([H])[H]

>  <smiles>  (91) 
[H]c1c([H])c([H])c2c(c1[H])C([H])([H])C([H])([H])C([H])([H])C2([H])N([H])C(=O)C1([H])N(C(=O)C([H])(N([H])C(=O)C([H])(N([H])C([H])([H])[H])C([H])([H])[H])C(C([H])([H])[H])(C([H])([H])[H])C([H])([H])[H])C([H])([H])c2c([H])c(OC([H])([H])C([H])([H])C([H])([H])C([H])([H])C([H])([H])C(=O)C([H])(C([H])([H])C([H])([H])C([H])(N([H])C(=O)N3C([H])([H])C([H])([H])C([H])([H])C([H])(n4nc(-c5c([H])c([H])c(Oc6c([H])c([H])c(F)c([H])c6F)c([H])c5[H])c(C(=O)N([H])[H])c4N([H])[H])C3([H])[H])C([H])(C([H])([H])[H])C([H])([H])C([H])([H])[H])C([H])([H])[N+]([H])([H])[H])c([H])c([H])c2C1([H])[H]

$$$$
93:0:0
     RDKit          3D

 97105  0  0  1  0  0  0  0  0999 V2000
  -30.2840  -22.7540   21.8640 C   0  0  0  0  0  2  0  0  0  0  0  0
  -29.8750  -21.3480   21.4540 C   0  0  0  0  0  2  0  0  0  0  0  0
  -30.3810  -23.4620   20.5170 C   0  0  0  0  0  2  0  0  0  0  0  0
  -29.0020  -21.5350   20.1920 C   0  0  0  0  0  3  0  0  0  0  0  0
  -29.2380  -22.9530   19.7160 N   0  0  1  0  0  4  0  0  0  0  0  0
  -29.5340  -22.9060   18.7500 H   0  0  0  0  0  0  0  0  0  0  0  0
  -29.2860  -20.4260   19.1090 C   0  0  0  0  0  2  0  0  0  0  0  0
  -29.8280  -17.9250   19.0880 C   0  0  0  0  0  0  0  0  0  0  0  0
  -29.8370  -19.1570   19.6500 N   0  0  0  0  0  0  0  0  0  0  0  0
  -29.1720  -17.6800   18.0740 O   0  0  0  0  0  0  0  0  0  0  0  0
  -30.3910  -19.2420   20.4910 H   0  0  0  0  0  0  0  0  0  0  0  0
  -30.7220  -16.8130   19.7300 C   0  0  0  0  0  3  0  0  0  0  0  0
  -30.8480  -14.4010   18.8850 C   0  0  0  0  0  0  0  0  0  0  0  0
  -30.3550  -12.1620   17.9410 C   0  0  0  0  0  2  0  0  0  0  0  0
  -29.1750  -12.2720   16.9520 C   0  0  0  0  0  2  0  0  0  0  0  0
  -27.8260  -12.1740   17.6920 C   0  0  0  0  0  2  0  0  0  0  0  0
  -27.7530  -13.1030   18.9330 C   0  0  0  0  0  3  0  0  0  0  0  0
  -29.0140  -12.9380   19.8080 C   0  0  0  0  0  2  0  0  0  0  0  0
  -30.1820  -13.2150   18.9550 N   0  0  0  0  0  0  0  0  0  0  0  0
  -31.8780  -14.5490   18.2200 O   0  0  0  0  0  0  0  0  0  0  0  0
  -30.2280  -15.4390   19.4860 N   0  0  0  0  0  0  0  0  0  0  0  0
  -29.3310  -15.2310   19.8940 H   0  0  0  0  0  0  0  0  0  0  0  0
  -25.6960  -13.8100   20.3070 C   0  0  0  0  0  0  0  0  0  0  0  0
  -24.6530  -13.0920   20.8270 C   0  0  0  0  0  0  0  0  0  0  0  0
  -24.9080  -11.7270   20.4930 C   0  0  0  0  0  0  0  0  0  0  0  0
  -26.5280  -12.8830   19.6990 N   0  0  0  0  0  0  0  0  0  0  0  0
  -26.0720  -11.6160   19.8660 N   0  0  0  0  0  0  0  0  0  0  0  0
  -24.0860  -10.5260   20.6850 C   0  0  0  0  0  0  0  0  0  0  0  0
  -24.4600   -9.5130   21.5960 C   0  0  0  0  0  3  0  0  0  0  0  0
  -23.6450   -8.3750   21.7760 C   0  0  0  0  0  3  0  0  0  0  0  0
  -22.4400   -8.2430   21.0460 C   0  0  0  0  0  0  0  0  0  0  0  0
  -22.0820   -9.2440   20.1250 C   0  0  0  0  0  3  0  0  0  0  0  0
  -22.8980  -10.3730   19.9420 C   0  0  0  0  0  3  0  0  0  0  0  0
  -21.5980   -7.1610   21.1370 O   0  0  0  0  0  0  0  0  0  0  0  0
  -21.3340   -6.5530   22.3370 C   0  0  0  0  0  0  0  0  0  0  0  0
  -20.7790   -7.2630   23.4240 C   0  0  0  0  0  3  0  0  0  0  0  0
  -20.4590   -6.5850   24.6180 C   0  0  0  0  0  3  0  0  0  0  0  0
  -20.6830   -5.1990   24.7220 C   0  0  0  0  0  0  0  0  0  0  0  0
  -21.2290   -4.4890   23.6380 C   0  0  0  0  0  3  0  0  0  0  0  0
  -21.5510   -5.1650   22.4480 C   0  0  0  0  0  0  0  0  0  0  0  0
  -22.0570   -4.4730   21.3990 F   0  0  0  0  0  0  0  0  0  0  0  0
  -20.3680   -4.5450   25.8640 F   0  0  0  0  0  0  0  0  0  0  0  0
  -23.4360  -13.6480   21.5070 C   0  0  0  0  0  0  0  0  0  0  0  0
  -22.8780  -12.9130   22.4610 N   0  0  0  0  0  0  0  0  0  0  0  0
  -23.0010  -14.7650   21.2280 O   0  0  0  0  0  0  0  0  0  0  0  0
  -23.2460  -12.0040   22.7020 H   0  0  0  0  0  0  0  0  0  0  0  0
  -22.0710  -13.2620   22.9580 H   0  0  0  0  0  0  0  0  0  0  0  0
  -25.9990  -15.1680   20.2840 N   0  0  0  0  0  0  0  0  0  0  0  0
  -25.3710  -15.8640   20.6680 H   0  0  0  0  0  0  0  0  0  0  0  0
  -26.7840  -15.5730   19.7900 H   0  0  0  0  0  0  0  0  0  0  0  0
  -29.5540  -17.2430   22.0060 C   0  0  0  0  0  1  0  0  0  0  0  0
  -30.8910  -16.9900   21.2740 C   0  0  0  0  0  3  0  0  0  0  0  0
  -32.8880  -15.3490   21.1910 C   0  0  0  0  0  1  0  0  0  0  0  0
  -31.6350  -15.8120   21.9450 C   0  0  0  0  0  2  0  0  0  0  0  0
  -28.0690  -23.9050   19.7790 C   0  0  0  0  0  2  0  0  0  0  0  0
  -28.2650  -25.2260   18.9450 C   0  0  0  0  0  2  0  0  0  0  0  0
  -28.2030  -26.4760   19.6830 O   0  0  0  0  0  0  0  0  0  0  0  0
  -24.5410  -31.3660   23.3760 C   0  0  0  0  0  0  0  0  0  0  0  0
  -27.0480  -27.2450   19.7380 C   0  0  0  0  0  0  0  0  0  0  0  0
  -23.3090  -30.2560   21.5430 C   0  0  0  0  0  3  0  0  0  0  0  0
  -24.7210  -28.8680   19.9330 C   0  0  0  0  0  0  0  0  0  0  0  0
  -25.8510  -30.5250   21.4200 C   0  0  0  0  0  2  0  0  0  0  0  0
  -25.8910  -29.2490   20.5990 C   0  0  0  0  0  0  0  0  0  0  0  0
  -27.0530  -28.4440   20.4990 C   0  0  0  0  0  3  0  0  0  0  0  0
  -25.8490  -26.8830   19.0800 C   0  0  0  0  0  3  0  0  0  0  0  0
  -24.6950  -27.6860   19.1750 C   0  0  0  0  0  3  0  0  0  0  0  0
  -23.5130  -29.7670   20.0850 C   0  0  0  0  0  2  0  0  0  0  0  0
  -24.5870  -30.7220   22.1740 N   0  0  0  0  0  0  0  0  0  0  0  0
  -23.4630  -31.6050   23.9360 O   0  0  0  0  0  0  0  0  0  0  0  0
  -22.6020  -29.1400   22.3450 C   0  0  0  0  0  0  0  0  0  0  0  0
  -21.2750  -29.0220   22.1710 N   0  0  0  0  0  0  0  0  0  0  0  0
  -23.2460  -28.3870   23.0810 O   0  0  0  0  0  0  0  0  0  0  0  0
  -20.8170  -29.6830   21.5590 H   0  0  0  0  0  0  0  0  0  0  0  0
  -17.8610  -27.8620   22.4040 C   0  0  0  0  0  0  0  0  0  0  0  0
  -20.4120  -28.0190   22.7920 C   0  0  0  0  0  3  0  0  0  0  0  0
  -20.5040  -26.6660   22.0480 C   0  0  0  0  0  2  0  0  0  0  0  0
  -19.4340  -26.4990   20.9650 C   0  0  0  0  0  2  0  0  0  0  0  0
  -18.0320  -26.6000   21.5750 C   0  0  0  0  0  2  0  0  0  0  0  0
  -18.9800  -28.5360   22.9620 C   0  0  0  0  0  0  0  0  0  0  0  0
  -18.7680  -29.7230   23.6960 C   0  0  0  0  0  3  0  0  0  0  0  0
  -17.4690  -30.2370   23.8780 C   0  0  0  0  0  3  0  0  0  0  0  0
  -16.3650  -29.5580   23.3360 C   0  0  0  0  0  3  0  0  0  0  0  0
  -16.5610  -28.3720   22.6060 C   0  0  0  0  0  3  0  0  0  0  0  0
  -25.8400  -31.8540   24.0910 C   0  0  0  0  0  3  0  0  0  0  0  0
  -26.2010  -31.0050   25.3720 C   0  0  1  0  0  0  0  0  0  0  0  0
  -25.0040  -30.7700   26.3220 C   0  0  0  0  0  1  0  0  0  0  0  0
  -26.7610  -29.6220   24.9670 C   0  0  0  0  0  1  0  0  0  0  0  0
  -27.3190  -31.7120   26.1750 C   0  0  0  0  0  1  0  0  0  0  0  0
  -25.6520  -33.2670   24.4430 N   0  0  0  0  0  0  0  0  0  0  0  0
  -26.1390  -34.2980   23.7400 C   0  0  0  0  0  0  0  0  0  0  0  0
  -26.8630  -34.1520   22.7510 O   0  0  0  0  0  0  0  0  0  0  0  0
  -25.0290  -33.4640   25.2120 H   0  0  0  0  0  0  0  0  0  0  0  0
  -24.6340  -36.2660   23.3160 C   0  0  0  0  0  1  0  0  0  0  0  0
  -25.7600  -35.7160   24.2050 C   0  0  0  0  0  3  0  0  0  0  0  0
  -27.8970  -36.3590   25.2260 C   0  0  0  0  0  1  0  0  0  0  0  0
  -26.8990  -36.6590   24.2050 N   0  0  0  0  0  0  0  0  0  0  0  0
  -26.5760  -37.6120   24.3470 H   0  0  0  0  0  0  0  0  0  0  0  0
  2  1  1  0
  3  1  1  0
  4  7  1  0
  4  2  1  0
  5 55  1  0
  5  4  1  0
  5  3  1  0
  5  6  1  6
  7  9  1  0
  8  9  1  0
  9 11  1  0
 10  8  2  0
 12  8  1  0
 12 52  1  0
 13 19  1  0
 13 21  1  0
 14 19  1  0
 15 16  1  0
 15 14  1  0
 17 16  1  0
 17 26  1  0
 17 18  1  0
 19 18  1  0
 20 13  2  0
 21 12  1  0
 21 22  1  0
 23 24  2  0
 24 43  1  0
 25 28  1  0
 25 24  1  0
 26 27  1  0
 26 23  1  0
 27 25  2  0
 28 29  1  0
 29 30  2  0
 31 34  1  0
 31 30  1  0
 32 31  2  0
 33 32  1  0
 33 28  2  0
 34 35  1  0
 35 40  2  0
 35 36  1  0
 36 37  2  0
 37 38  1  0
 38 42  1  0
 39 38  2  0
 40 39  1  0
 41 40  1  0
 43 44  1  0
 44 46  1  0
 44 47  1  0
 45 43  2  0
 48 23  1  0
 48 49  1  0
 50 48  1  0
 52 54  1  0
 52 51  1  0
 53 54  1  0
 56 57  1  0
 56 55  1  0
 57 59  1  0
 58 69  2  0
 59 64  1  0
 60 68  1  0
 60 70  1  0
 61 67  1  0
 61 63  1  0
 62 68  1  0
 63 62  1  0
 64 63  2  0
 65 66  1  0
 65 59  2  0
 66 61  2  0
 67 60  1  0
 68 58  1  0
 70 72  2  0
 71 70  1  0
 73 71  1  0
 74 83  2  0
 74 79  1  0
 75 71  1  0
 75 79  1  0
 76 75  1  0
 77 78  1  0
 77 76  1  0
 78 74  1  0
 79 80  2  0
 80 81  1  0
 82 81  2  0
 83 82  1  0
 84 58  1  0
 84 89  1  0
 84 85  1  0
 85 88  1  1
 85 86  1  0
 87 85  1  0
 89 92  1  0
 90 94  1  0
 90 89  1  0
 91 90  2  0
 94 93  1  0
 96 94  1  0
 96 97  1  0
 96 95  1  0
M  ISO  4  13 100  21 100  56 101  57 101
M  END
>  <TORSDO>  (92) 
F 23

>  <SCORE>  (92) 
-7.520

>  <name>  (92) 
93

>  <ligand_id>  (92) 
93

>  <original_smiles>  (92) 
[H]c1c([H])c([H])c2c(c1[H])C([H])([H])C([H])([H])C([H])([H])C2([H])N([H])C(=O)C1([H])N(C(=O)C([H])(N([H])C(=O)C([H])(N([H])C([H])([H])[H])C([H])([H])[H])C(C([H])([H])[H])(C([H])([H])[H])C([H])([H])[H])C([H])([H])c2c([H])c(OC([H])([H])C([H])([H])[N+]3([H])C([H])([H])C([H])([H])C([H])([H])C3([H])C([H])([H])N([H])C(=O)C([H])(N([H])C(=O)N3C([H])([H])C([H])([H])C([H])([H])C([H])(n4nc(-c5c([H])c([H])c(Oc6c([H])c([H])c(F)c([H])c6F)c([H])c5[H])c(C(=O)N([H])[H])c4N([H])[H])C3([H])[H])C([H])(C([H])([H])[H])C([H])([H])C([H])([H])[H])c([H])c([H])c2C1([H])[H]

>  <smiles>  (92) 
[H]c1c([H])c([H])c2c(c1[H])C([H])([H])C([H])([H])C([H])([H])C2([H])N([H])C(=O)C1([H])N(C(=O)C([H])(N([H])C(=O)C([H])(N([H])C([H])([H])[H])C([H])([H])[H])C(C([H])([H])[H])(C([H])([H])[H])C([H])([H])[H])C([H])([H])c2c([H])c(OC([H])([H])C([H])([H])[N+]3([H])C([H])([H])C([H])([H])C([H])([H])C3([H])C([H])([H])N([H])C(=O)C([H])(N([H])C(=O)N3C([H])([H])C([H])([H])C([H])([H])C([H])(n4nc(-c5c([H])c([H])c(Oc6c([H])c([H])c(F)c([H])c6F)c([H])c5[H])c(C(=O)N([H])[H])c4N([H])[H])C3([H])[H])C([H])(C([H])([H])[H])C([H])([H])C([H])([H])[H])c([H])c([H])c2C1([H])[H]

$$$$
94:0:0
     RDKit          3D

109117  0  0  1  0  0  0  0  0999 V2000
  -30.6110  -21.3690   20.6530 C   0  0  0  0  0  3  0  0  0  0  0  0
  -30.6630  -22.9210   20.7290 C   0  0  0  0  0  0  0  0  0  0  0  0
  -29.4740  -23.5530   20.7980 N   0  0  0  0  0  0  0  0  0  0  0  0
  -31.7350  -23.5270   20.6580 O   0  0  0  0  0  0  0  0  0  0  0  0
  -28.6580  -22.9680   20.9100 H   0  0  0  0  0  0  0  0  0  0  0  0
  -29.1770  -24.9960   20.8530 C   0  0  0  0  0  3  0  0  0  0  0  0
  -29.3030  -25.7160   19.4890 C   0  0  0  0  0  2  0  0  0  0  0  0
  -29.2920  -27.1340   19.7180 O   0  0  0  0  0  0  0  0  0  0  0  0
  -25.3120  -31.5070   23.7120 C   0  0  0  0  0  0  0  0  0  0  0  0
  -28.0890  -27.8040   19.8390 C   0  0  0  0  0  0  0  0  0  0  0  0
  -24.1820  -30.5110   21.7510 C   0  0  0  0  0  3  0  0  0  0  0  0
  -25.6930  -29.2850   20.1010 C   0  0  0  0  0  0  0  0  0  0  0  0
  -26.7240  -30.8300   21.7800 C   0  0  0  0  0  2  0  0  0  0  0  0
  -26.8240  -29.6470   20.8440 C   0  0  0  0  0  0  0  0  0  0  0  0
  -28.0240  -28.9100   20.7130 C   0  0  0  0  0  3  0  0  0  0  0  0
  -26.9360  -27.4490   19.1030 C   0  0  0  0  0  3  0  0  0  0  0  0
  -25.7410  -28.1800   19.2350 C   0  0  0  0  0  3  0  0  0  0  0  0
  -24.4580  -30.1410   20.2700 C   0  0  0  0  0  2  0  0  0  0  0  0
  -25.4200  -30.9530   22.4730 N   0  0  0  0  0  0  0  0  0  0  0  0
  -24.2040  -31.6880   24.2370 O   0  0  0  0  0  0  0  0  0  0  0  0
  -23.4710  -29.3210   22.4330 C   0  0  0  0  0  0  0  0  0  0  0  0
  -22.1470  -29.2230   22.2380 N   0  0  0  0  0  0  0  0  0  0  0  0
  -24.1100  -28.4980   23.0920 O   0  0  0  0  0  0  0  0  0  0  0  0
  -21.6950  -29.9420   21.6920 H   0  0  0  0  0  0  0  0  0  0  0  0
  -18.7120  -28.1310   22.4350 C   0  0  0  0  0  0  0  0  0  0  0  0
  -21.2760  -28.1680   22.7540 C   0  0  0  0  0  3  0  0  0  0  0  0
  -21.3050  -26.9230   21.8390 C   0  0  0  0  0  2  0  0  0  0  0  0
  -20.1980  -26.9260   20.7810 C   0  0  0  0  0  2  0  0  0  0  0  0
  -18.8200  -26.9840   21.4450 C   0  0  0  0  0  2  0  0  0  0  0  0
  -19.8660  -28.6990   23.0370 C   0  0  0  0  0  0  0  0  0  0  0  0
  -19.7100  -29.7920   23.9200 C   0  0  0  0  0  3  0  0  0  0  0  0
  -18.4320  -30.3090   24.2060 C   0  0  0  0  0  3  0  0  0  0  0  0
  -17.2920  -29.7300   23.6220 C   0  0  0  0  0  3  0  0  0  0  0  0
  -17.4320  -28.6420   22.7420 C   0  0  0  0  0  3  0  0  0  0  0  0
  -26.5700  -31.9630   24.5140 C   0  0  0  0  0  3  0  0  0  0  0  0
  -27.0040  -30.9380   25.6340 C   0  0  1  0  0  0  0  0  0  0  0  0
  -25.8490  -30.5140   26.5700 C   0  0  0  0  0  1  0  0  0  0  0  0
  -27.5970  -29.6550   25.0060 C   0  0  0  0  0  1  0  0  0  0  0  0
  -28.1210  -31.5620   26.5030 C   0  0  0  0  0  1  0  0  0  0  0  0
  -26.2670  -33.2750   25.0980 N   0  0  0  0  0  0  0  0  0  0  0  0
  -26.6770  -34.4470   24.5930 C   0  0  0  0  0  0  0  0  0  0  0  0
  -27.4220  -34.5320   23.6130 O   0  0  0  0  0  0  0  0  0  0  0  0
  -25.6220  -33.2860   25.8740 H   0  0  0  0  0  0  0  0  0  0  0  0
  -25.0140  -36.3260   24.4860 C   0  0  0  0  0  1  0  0  0  0  0  0
  -26.1820  -35.7300   25.2870 C   0  0  0  0  0  3  0  0  0  0  0  0
  -28.2700  -36.3520   26.4200 C   0  0  0  0  0  1  0  0  0  0  0  0
  -27.2390  -36.7500   25.4640 N   0  0  0  0  0  0  0  0  0  0  0  0
  -26.8420  -37.6320   25.7760 H   0  0  0  0  0  0  0  0  0  0  0  0
  -27.7380  -25.1900   21.3890 C   0  0  0  0  0  2  0  0  0  0  0  0
  -27.6250  -25.5050   22.8810 C   0  0  0  0  0  2  0  0  0  0  0  0
  -26.1460  -26.6210   24.6420 C   0  0  0  0  0  1  0  0  0  0  0  0
  -26.2270  -26.0470   23.2260 C   0  0  0  0  0  2  0  0  0  0  0  0
  -30.4260  -21.0380   19.2130 N   0  0  0  0  0  4  0  0  0  0  0  0
  -31.1040  -21.5750   18.6960 H   0  0  0  0  0  0  0  0  0  0  0  0
  -29.5240  -21.4050   18.9570 H   0  0  0  0  0  0  0  0  0  0  0  0
  -30.4830  -19.6380   18.7070 C   0  0  0  0  0  3  0  0  0  0  0  0
  -33.1230  -20.8420   15.2610 C   0  0  0  0  0  2  0  0  0  0  0  0
  -31.6630  -20.4860   14.9780 C   0  0  0  0  0  2  0  0  0  0  0  0
  -33.6850  -19.9180   16.3460 C   0  0  0  0  0  2  0  0  0  0  0  0
  -30.8060  -20.5620   16.2470 C   0  0  0  0  0  2  0  0  0  0  0  0
  -32.8350  -19.9840   17.6290 C   0  0  0  0  0  2  0  0  0  0  0  0
  -31.3390  -19.6410   17.3790 C   0  0  0  0  0  3  0  0  0  0  0  0
  -29.0150  -17.8220   17.5790 C   0  0  0  0  0  1  0  0  0  0  0  0
  -27.9510  -19.9960   18.2550 C   0  0  0  0  0  1  0  0  0  0  0  0
  -29.0480  -18.9640   18.6290 C   0  0  2  0  0  0  0  0  0  0  0  0
  -27.2460  -18.3290   20.4690 C   0  0  0  0  0  1  0  0  0  0  0  0
  -28.7030  -18.2750   19.9880 C   0  0  0  0  0  2  0  0  0  0  0  0
  -31.8410  -20.6400   21.3130 C   0  0  0  0  0  2  0  0  0  0  0  0
  -31.5530  -19.4520   22.2880 C   0  0  0  0  0  2  0  0  0  0  0  0
  -31.6330  -18.0280   21.6590 C   0  0  0  0  0  2  0  0  0  0  0  0
  -31.0550  -16.8890   22.5470 C   0  0  0  0  0  2  0  0  0  0  0  0
  -31.0200  -14.9440   20.8980 C   0  0  0  0  0  0  0  0  0  0  0  0
  -30.6920  -12.9270   19.4970 C   0  0  0  0  0  2  0  0  0  0  0  0
  -29.8120  -13.2570   18.2770 C   0  0  0  0  0  2  0  0  0  0  0  0
  -28.3150  -13.1220   18.6350 C   0  0  0  0  0  2  0  0  0  0  0  0
  -27.9330  -13.8120   19.9730 C   0  0  0  0  0  3  0  0  0  0  0  0
  -28.9520  -13.4910   21.0900 C   0  0  0  0  0  2  0  0  0  0  0  0
  -30.3050  -13.8250   20.5950 N   0  0  0  0  0  0  0  0  0  0  0  0
  -32.0980  -15.2230   20.3600 O   0  0  0  0  0  0  0  0  0  0  0  0
  -30.4700  -15.7390   21.8320 N   0  0  0  0  0  0  0  0  0  0  0  0
  -29.5850  -15.4090   22.1900 H   0  0  0  0  0  0  0  0  0  0  0  0
  -25.5060  -14.3170   20.6680 C   0  0  0  0  0  0  0  0  0  0  0  0
  -24.4380  -13.5090   20.9350 C   0  0  0  0  0  0  0  0  0  0  0  0
  -24.9060  -12.1680   20.7720 C   0  0  0  0  0  0  0  0  0  0  0  0
  -26.5660  -13.4740   20.3730 N   0  0  0  0  0  0  0  0  0  0  0  0
  -26.2050  -12.1660   20.4890 N   0  0  0  0  0  0  0  0  0  0  0  0
  -24.1770  -10.8900   20.8150 C   0  0  0  0  0  0  0  0  0  0  0  0
  -24.5600   -9.8470   21.6900 C   0  0  0  0  0  3  0  0  0  0  0  0
  -23.8280   -8.6410   21.7230 C   0  0  0  0  0  3  0  0  0  0  0  0
  -22.7020   -8.4700   20.8830 C   0  0  0  0  0  0  0  0  0  0  0  0
  -22.3400   -9.5000   20.0000 C   0  0  0  0  0  3  0  0  0  0  0  0
  -23.0690  -10.6980   19.9630 C   0  0  0  0  0  3  0  0  0  0  0  0
  -21.9520   -7.3210   20.8270 O   0  0  0  0  0  0  0  0  0  0  0  0
  -21.7330   -6.5520   21.9410 C   0  0  0  0  0  0  0  0  0  0  0  0
  -21.1460   -7.0830   23.1110 C   0  0  0  0  0  3  0  0  0  0  0  0
  -20.8790   -6.2410   24.2080 C   0  0  0  0  0  3  0  0  0  0  0  0
  -21.1860   -4.8680   24.1320 C   0  0  0  0  0  0  0  0  0  0  0  0
  -21.7650   -4.3360   22.9650 C   0  0  0  0  0  3  0  0  0  0  0  0
  -22.0360   -5.1760   21.8740 C   0  0  0  0  0  0  0  0  0  0  0  0
  -22.5770   -4.6600   20.7430 F   0  0  0  0  0  0  0  0  0  0  0  0
  -20.9210   -4.0550   25.1810 F   0  0  0  0  0  0  0  0  0  0  0  0
  -23.0330  -13.9540   21.2290 C   0  0  0  0  0  0  0  0  0  0  0  0
  -22.3040  -13.1930   22.0330 N   0  0  0  0  0  0  0  0  0  0  0  0
  -22.5920  -15.0140   20.7830 O   0  0  0  0  0  0  0  0  0  0  0  0
  -22.6660  -12.3260   22.4030 H   0  0  0  0  0  0  0  0  0  0  0  0
  -21.3650  -13.4730   22.2810 H   0  0  0  0  0  0  0  0  0  0  0  0
  -25.6520  -15.7000   20.6240 N   0  0  0  0  0  0  0  0  0  0  0  0
  -24.8360  -16.2930   20.7310 H   0  0  0  0  0  0  0  0  0  0  0  0
  -26.4530  -16.1790   20.2350 H   0  0  0  0  0  0  0  0  0  0  0  0
  1  2  1  0
  1 68  1  0
  2  3  1  0
  3  6  1  0
  3  5  1  0
  4  2  2  0
  6  7  1  0
  6 49  1  0
  7  8  1  0
  8 10  1  0
  9 20  2  0
 10 15  1  0
 11 21  1  0
 11 19  1  0
 12 18  1  0
 12 14  1  0
 13 19  1  0
 14 13  1  0
 15 14  2  0
 16 17  1  0
 16 10  2  0
 17 12  2  0
 18 11  1  0
 19  9  1  0
 21 23  2  0
 22 21  1  0
 24 22  1  0
 25 34  2  0
 25 30  1  0
 26 22  1  0
 26 30  1  0
 27 26  1  0
 28 29  1  0
 28 27  1  0
 29 25  1  0
 30 31  2  0
 31 32  1  0
 33 32  2  0
 34 33  1  0
 35  9  1  0
 35 40  1  0
 35 36  1  0
 36 39  1  1
 36 37  1  0
 38 36  1  0
 40 43  1  0
 41 40  1  0
 41 45  1  0
 42 41  2  0
 45 44  1  0
 45 47  1  0
 47 48  1  0
 47 46  1  0
 49 50  1  0
 50 52  1  0
 52 51  1  0
 53  1  1  0
 54 53  1  0
 55 53  1  0
 56 65  1  0
 56 53  1  0
 57 59  1  0
 58 57  1  0
 58 60  1  0
 59 61  1  0
 60 62  1  0
 62 61  1  0
 62 56  1  0
 65 63  1  6
 64 65  1  0
 65 67  1  0
 67 66  1  0
 68 69  1  0
 70 69  1  0
 70 71  1  0
 72 80  1  0
 73 78  1  0
 74 75  1  0
 74 73  1  0
 76 75  1  0
 76 85  1  0
 76 77  1  0
 78 72  1  0
 78 77  1  0
 79 72  2  0
 80 81  1  0
 80 71  1  0
 82 83  2  0
 83102  1  0
 84 87  1  0
 84 83  1  0
 85 86  1  0
 85 82  1  0
 86 84  2  0
 87 88  1  0
 88 89  2  0
 90 89  1  0
 91 90  2  0
 92 91  1  0
 92 87  2  0
 93 90  1  0
 93 94  1  0
 94 95  1  0
 95 96  2  0
 97 96  1  0
 97101  1  0
 98 97  2  0
 99 94  2  0
 99 98  1  0
100 99  1  0
102103  1  0
103106  1  0
103105  1  0
104102  2  0
107 82  1  0
107108  1  0
109107  1  0
M  ISO  4   7 101   8 101  72 100  80 100
M  END
>  <TORSDO>  (93) 
F 31

>  <SCORE>  (93) 
-8.495

>  <name>  (93) 
94

>  <ligand_id>  (93) 
94

>  <original_smiles>  (93) 
[H]c1c([H])c([H])c2c(c1[H])C([H])([H])C([H])([H])C([H])([H])C2([H])N([H])C(=O)C1([H])N(C(=O)C([H])(N([H])C(=O)C([H])(N([H])C([H])([H])[H])C([H])([H])[H])C(C([H])([H])[H])(C([H])([H])[H])C([H])([H])[H])C([H])([H])c2c([H])c(OC([H])([H])C([H])(N([H])C(=O)C([H])(C([H])([H])C([H])([H])C([H])([H])C([H])([H])N([H])C(=O)N3C([H])([H])C([H])([H])C([H])([H])C([H])(n4nc(-c5c([H])c([H])c(Oc6c([H])c([H])c(F)c([H])c6F)c([H])c5[H])c(C(=O)N([H])[H])c4N([H])[H])C3([H])[H])[N+]([H])([H])C([H])(C3([H])C([H])([H])C([H])([H])C([H])([H])C([H])([H])C3([H])[H])C(C([H])([H])[H])(C([H])([H])[H])C([H])([H])C([H])([H])[H])C([H])([H])C([H])([H])C([H])([H])C([H])([H])[H])c([H])c([H])c2C1([H])[H]

>  <smiles>  (93) 
[H]c1c([H])c([H])c2c(c1[H])C([H])([H])C([H])([H])C([H])([H])C2([H])N([H])C(=O)C1([H])N(C(=O)C([H])(N([H])C(=O)C([H])(N([H])C([H])([H])[H])C([H])([H])[H])C(C([H])([H])[H])(C([H])([H])[H])C([H])([H])[H])C([H])([H])c2c([H])c(OC([H])([H])C([H])(N([H])C(=O)C([H])(C([H])([H])C([H])([H])C([H])([H])C([H])([H])N([H])C(=O)N3C([H])([H])C([H])([H])C([H])([H])C([H])(n4nc(-c5c([H])c([H])c(Oc6c([H])c([H])c(F)c([H])c6F)c([H])c5[H])c(C(=O)N([H])[H])c4N([H])[H])C3([H])[H])[N+]([H])([H])C([H])(C3([H])C([H])([H])C([H])([H])C([H])([H])C([H])([H])C3([H])[H])C(C([H])([H])[H])(C([H])([H])[H])C([H])([H])C([H])([H])[H])C([H])([H])C([H])([H])C([H])([H])C([H])([H])[H])c([H])c([H])c2C1([H])[H]

$$$$
95:0:0
     RDKit          3D

 96104  0  0  1  0  0  0  0  0999 V2000
  -29.7520  -22.1670   21.5200 C   0  0  0  0  0  2  0  0  0  0  0  0
  -31.1850  -21.6440   21.8160 C   0  0  0  0  0  2  0  0  0  0  0  0
  -31.2810  -20.1980   22.3800 C   0  0  0  0  0  2  0  0  0  0  0  0
  -30.9350  -17.9230   21.2900 C   0  0  0  0  0  0  0  0  0  0  0  0
  -31.2940  -19.2230   21.2870 N   0  0  0  0  0  0  0  0  0  0  0  0
  -30.6190  -17.3170   22.3180 O   0  0  0  0  0  0  0  0  0  0  0  0
  -31.5300  -19.5920   20.3760 H   0  0  0  0  0  0  0  0  0  0  0  0
  -30.7330  -14.7320   20.2000 C   0  0  0  0  0  0  0  0  0  0  0  0
  -30.4010  -12.4910   19.2430 C   0  0  0  0  0  2  0  0  0  0  0  0
  -29.4520  -12.4990   18.0290 C   0  0  0  0  0  2  0  0  0  0  0  0
  -27.9800  -12.3830   18.4780 C   0  0  0  0  0  2  0  0  0  0  0  0
  -27.6060  -13.2870   19.6830 C   0  0  0  0  0  3  0  0  0  0  0  0
  -28.6990  -13.3060   20.7780 C   0  0  0  0  0  2  0  0  0  0  0  0
  -29.9890  -13.5900   20.1300 N   0  0  0  0  0  0  0  0  0  0  0  0
  -31.9620  -14.6870   20.1980 O   0  0  0  0  0  0  0  0  0  0  0  0
  -29.1750  -17.3520   18.1440 C   0  0  0  0  0  2  0  0  0  0  0  0
  -30.1200  -18.1990   18.9550 C   0  0  0  0  0  2  0  0  0  0  0  0
  -29.0510  -16.0550   18.9220 C   0  0  0  0  0  2  0  0  0  0  0  0
  -30.8970  -17.2350   19.8970 C   0  0  0  0  0  3  0  0  0  0  0  0
  -30.1550  -15.9380   19.8800 N   0  0  0  0  0  0  0  0  0  0  0  0
  -25.2370  -13.9190   20.4370 C   0  0  0  0  0  0  0  0  0  0  0  0
  -24.1730  -13.1510   20.8100 C   0  0  0  0  0  0  0  0  0  0  0  0
  -24.6410  -11.8010   20.7990 C   0  0  0  0  0  0  0  0  0  0  0  0
  -26.2800  -13.0280   20.2080 N   0  0  0  0  0  0  0  0  0  0  0  0
  -25.9310  -11.7550   20.4990 N   0  0  0  0  0  0  0  0  0  0  0  0
  -23.9240  -10.5390   20.9920 C   0  0  0  0  0  0  0  0  0  0  0  0
  -24.3720   -9.5850   21.9290 C   0  0  0  0  0  3  0  0  0  0  0  0
  -23.6600   -8.3810   22.1200 C   0  0  0  0  0  3  0  0  0  0  0  0
  -22.4890   -8.1290   21.3700 C   0  0  0  0  0  0  0  0  0  0  0  0
  -22.0560   -9.0720   20.4220 C   0  0  0  0  0  3  0  0  0  0  0  0
  -22.7710  -10.2660   20.2270 C   0  0  0  0  0  3  0  0  0  0  0  0
  -21.7490   -6.9790   21.4710 O   0  0  0  0  0  0  0  0  0  0  0  0
  -21.7230   -6.2420   22.6260 C   0  0  0  0  0  0  0  0  0  0  0  0
  -21.3090   -6.8010   23.8530 C   0  0  0  0  0  3  0  0  0  0  0  0
  -21.2090   -5.9860   24.9980 C   0  0  0  0  0  3  0  0  0  0  0  0
  -21.5270   -4.6180   24.9190 C   0  0  0  0  0  0  0  0  0  0  0  0
  -21.9470   -4.0610   23.6990 C   0  0  0  0  0  3  0  0  0  0  0  0
  -22.0390   -4.8700   22.5520 C   0  0  0  0  0  0  0  0  0  0  0  0
  -22.4100   -4.3210   21.3730 F   0  0  0  0  0  0  0  0  0  0  0  0
  -21.4380   -3.8390   26.0220 F   0  0  0  0  0  0  0  0  0  0  0  0
  -22.7740  -13.6270   21.0670 C   0  0  0  0  0  0  0  0  0  0  0  0
  -22.0390  -12.9430   21.9350 N   0  0  0  0  0  0  0  0  0  0  0  0
  -22.3360  -14.6460   20.5360 O   0  0  0  0  0  0  0  0  0  0  0  0
  -22.4030  -12.1270   22.4070 H   0  0  0  0  0  0  0  0  0  0  0  0
  -21.0980  -13.2470   22.1390 H   0  0  0  0  0  0  0  0  0  0  0  0
  -25.3890  -15.2910   20.2480 N   0  0  0  0  0  0  0  0  0  0  0  0
  -24.6130  -15.9340   20.3780 H   0  0  0  0  0  0  0  0  0  0  0  0
  -26.2440  -15.7610   19.9850 H   0  0  0  0  0  0  0  0  0  0  0  0
  -29.5980  -23.0990   20.2730 C   0  0  0  0  0  2  0  0  0  0  0  0
  -29.7670  -24.6630   20.4280 C   0  0  0  0  0  3  0  0  0  0  0  0
  -32.3290  -24.5440   20.2370 C   0  0  0  0  0  1  0  0  0  0  0  0
  -30.9970  -25.0830   18.1700 C   0  0  0  0  0  1  0  0  0  0  0  0
  -31.2750  -26.7490   20.0200 C   0  0  0  0  0  1  0  0  0  0  0  0
  -31.0560  -25.2450   19.7110 C   0  0  1  0  0  0  0  0  0  0  0  0
  -28.4130  -25.3530   20.0150 C   0  0  0  0  0  2  0  0  0  0  0  0
  -28.3770  -26.7720   20.1920 O   0  0  0  0  0  0  0  0  0  0  0  0
  -24.5450  -31.8880   23.2400 C   0  0  0  0  0  0  0  0  0  0  0  0
  -27.1700  -27.4470   20.1570 C   0  0  0  0  0  0  0  0  0  0  0  0
  -23.3170  -30.4810   21.6110 C   0  0  0  0  0  3  0  0  0  0  0  0
  -24.7580  -28.9320   20.1810 C   0  0  0  0  0  0  0  0  0  0  0  0
  -25.8340  -30.8480   21.3780 C   0  0  0  0  0  2  0  0  0  0  0  0
  -25.9160  -29.4720   20.7470 C   0  0  0  0  0  0  0  0  0  0  0  0
  -27.1230  -28.7370   20.7290 C   0  0  0  0  0  3  0  0  0  0  0  0
  -25.9930  -26.9160   19.5810 C   0  0  0  0  0  3  0  0  0  0  0  0
  -24.7880  -27.6540   19.5940 C   0  0  0  0  0  3  0  0  0  0  0  0
  -23.5090  -29.7850   20.2360 C   0  0  0  0  0  2  0  0  0  0  0  0
  -24.5840  -31.0870   22.1380 N   0  0  0  0  0  0  0  0  0  0  0  0
  -23.4710  -32.1620   23.7930 O   0  0  0  0  0  0  0  0  0  0  0  0
  -22.6740  -29.4690   22.5870 C   0  0  0  0  0  0  0  0  0  0  0  0
  -21.3500  -29.2810   22.4670 N   0  0  0  0  0  0  0  0  0  0  0  0
  -23.3620  -28.8540   23.4060 O   0  0  0  0  0  0  0  0  0  0  0  0
  -20.8550  -29.8350   21.7820 H   0  0  0  0  0  0  0  0  0  0  0  0
  -17.9850  -28.0560   22.9570 C   0  0  0  0  0  0  0  0  0  0  0  0
  -20.5370  -28.3440   23.2450 C   0  0  0  0  0  3  0  0  0  0  0  0
  -20.6580  -26.9060   22.6880 C   0  0  0  0  0  2  0  0  0  0  0  0
  -19.5680  -26.5580   21.6700 C   0  0  0  0  0  2  0  0  0  0  0  0
  -18.1810  -26.6990   22.3030 C   0  0  0  0  0  2  0  0  0  0  0  0
  -19.0930  -28.8350   23.3840 C   0  0  0  0  0  0  0  0  0  0  0  0
  -18.8570  -30.1060   23.9540 C   0  0  0  0  0  3  0  0  0  0  0  0
  -17.5470  -30.5970   24.1010 C   0  0  0  0  0  3  0  0  0  0  0  0
  -16.4520  -29.8140   23.6900 C   0  0  0  0  0  3  0  0  0  0  0  0
  -16.6730  -28.5460   23.1250 C   0  0  0  0  0  3  0  0  0  0  0  0
  -25.8380  -32.5170   23.8460 C   0  0  0  0  0  3  0  0  0  0  0  0
  -25.5410  -33.9170   24.1750 N   0  0  0  0  0  0  0  0  0  0  0  0
  -25.8820  -34.9650   23.4130 C   0  0  0  0  0  0  0  0  0  0  0  0
  -26.5500  -34.8540   22.3810 O   0  0  0  0  0  0  0  0  0  0  0  0
  -24.9500  -34.0790   24.9770 H   0  0  0  0  0  0  0  0  0  0  0  0
  -24.1710  -36.7700   23.0490 C   0  0  0  0  0  1  0  0  0  0  0  0
  -25.4060  -36.3580   23.8670 C   0  0  0  0  0  3  0  0  0  0  0  0
  -27.5480  -37.2200   24.7040 C   0  0  0  0  0  1  0  0  0  0  0  0
  -26.4490  -37.4020   23.7580 N   0  0  0  0  0  0  0  0  0  0  0  0
  -26.0520  -38.3260   23.9070 H   0  0  0  0  0  0  0  0  0  0  0  0
  -26.3680  -31.7460   25.1160 C   0  0  1  0  0  0  0  0  0  0  0  0
  -25.2900  -31.5140   26.2000 C   0  0  0  0  0  1  0  0  0  0  0  0
  -26.9360  -30.3670   24.7110 C   0  0  0  0  0  1  0  0  0  0  0  0
  -27.5330  -32.5330   25.7620 C   0  0  0  0  0  1  0  0  0  0  0  0
  1  2  1  0
  2  3  1  0
  4  6  2  0
  5  4  1  0
  5  3  1  0
  7  5  1  0
  9 14  1  0
 10 11  1  0
 10  9  1  0
 12 11  1  0
 12 24  1  0
 12 13  1  0
 14  8  1  0
 14 13  1  0
 15  8  2  0
 16 18  1  0
 16 17  1  0
 17 19  1  0
 18 20  1  0
 19  4  1  0
 20 19  1  0
 20  8  1  0
 21 22  2  0
 22 41  1  0
 23 22  1  0
 23 26  1  0
 24 21  1  0
 24 25  1  0
 25 23  2  0
 26 27  1  0
 27 28  2  0
 29 32  1  0
 29 28  1  0
 30 29  2  0
 31 30  1  0
 31 26  2  0
 32 33  1  0
 33 34  1  0
 34 35  2  0
 36 35  1  0
 36 40  1  0
 37 36  2  0
 38 33  2  0
 38 37  1  0
 39 38  1  0
 41 42  1  0
 42 45  1  0
 42 44  1  0
 43 41  2  0
 46 47  1  0
 46 21  1  0
 48 46  1  0
 49 50  1  0
 49  1  1  0
 50 55  1  0
 54 52  1  6
 54 53  1  0
 54 51  1  0
 54 50  1  0
 55 56  1  0
 57 68  2  0
 58 56  1  0
 58 63  1  0
 59 67  1  0
 59 69  1  0
 60 66  1  0
 60 62  1  0
 61 67  1  0
 62 61  1  0
 63 62  2  0
 64 65  1  0
 64 58  2  0
 65 60  2  0
 66 59  1  0
 67 57  1  0
 69 71  2  0
 70 69  1  0
 72 70  1  0
 73 82  2  0
 73 78  1  0
 74 70  1  0
 74 78  1  0
 75 74  1  0
 76 77  1  0
 76 75  1  0
 77 73  1  0
 78 79  2  0
 79 80  1  0
 81 80  2  0
 82 81  1  0
 83 57  1  0
 83 84  1  0
 83 93  1  0
 84 87  1  0
 85 89  1  0
 85 84  1  0
 86 85  2  0
 89 88  1  0
 91 89  1  0
 91 92  1  0
 91 90  1  0
 93 96  1  1
 93 94  1  0
 95 93  1  0
M  ISO  4   8 100  20 100  55 101  56 101
M  END
>  <TORSDO>  (94) 
F 23

>  <SCORE>  (94) 
-12.764

>  <name>  (94) 
95

>  <ligand_id>  (94) 
95

>  <original_smiles>  (94) 
[H]c1c([H])c([H])c2c(c1[H])C([H])([H])C([H])([H])C([H])([H])C2([H])N([H])C(=O)C1([H])N(C(=O)C([H])(N([H])C(=O)C([H])(N([H])C([H])([H])[H])C([H])([H])[H])C(C([H])([H])[H])(C([H])([H])[H])C([H])([H])[H])C([H])([H])c2c([H])c(OC([H])([H])C([H])(C([H])([H])C([H])([H])C([H])([H])C([H])([H])N([H])C(=O)C3([H])N(C(=O)N4C([H])([H])C([H])([H])C([H])([H])C([H])(n5nc(-c6c([H])c([H])c(Oc7c([H])c([H])c(F)c([H])c7F)c([H])c6[H])c(C(=O)N([H])[H])c5N([H])[H])C4([H])[H])C([H])([H])C([H])([H])C3([H])[H])C(C([H])([H])[H])(C([H])([H])[H])C([H])([H])[H])c([H])c([H])c2C1([H])[H]

>  <smiles>  (94) 
[H]c1c([H])c([H])c2c(c1[H])C([H])([H])C([H])([H])C([H])([H])C2([H])N([H])C(=O)C1([H])N(C(=O)C([H])(N([H])C(=O)C([H])(N([H])C([H])([H])[H])C([H])([H])[H])C(C([H])([H])[H])(C([H])([H])[H])C([H])([H])[H])C([H])([H])c2c([H])c(OC([H])([H])C([H])(C([H])([H])C([H])([H])C([H])([H])C([H])([H])N([H])C(=O)C3([H])N(C(=O)N4C([H])([H])C([H])([H])C([H])([H])C([H])(n5nc(-c6c([H])c([H])c(Oc7c([H])c([H])c(F)c([H])c7F)c([H])c6[H])c(C(=O)N([H])[H])c5N([H])[H])C4([H])[H])C([H])([H])C([H])([H])C3([H])[H])C(C([H])([H])[H])(C([H])([H])[H])C([H])([H])[H])c([H])c([H])c2C1([H])[H]

$$$$
