0:0:0
     RDKit          3D

 96103  0  0  1  0  0  0  0  0999 V2000
  -30.7470  -20.5140   20.3320 C   0  0  0  0  0  0  0  0  0  0  0  0
  -30.4720  -19.3400   20.9490 N   0  0  0  0  0  0  0  0  0  0  0  0
  -31.4860  -20.5690   19.3490 O   0  0  0  0  0  0  0  0  0  0  0  0
  -29.8370  -19.4240   21.7300 H   0  0  0  0  0  0  0  0  0  0  0  0
  -31.6530  -17.5200   22.0520 C   0  0  0  0  0  1  0  0  0  0  0  0
  -31.0120  -17.9730   20.7300 C   0  0  0  0  0  3  0  0  0  0  0  0
  -29.9550  -16.9290   20.1790 C   0  0  0  0  0  3  0  0  0  0  0  0
  -30.7740  -14.5010   20.1620 C   0  0  0  0  0  0  0  0  0  0  0  0
  -30.4390  -12.3070   19.0820 C   0  0  0  0  0  2  0  0  0  0  0  0
  -29.4630  -12.5100   17.9020 C   0  0  0  0  0  2  0  0  0  0  0  0
  -27.9980  -12.4030   18.3730 C   0  0  0  0  0  2  0  0  0  0  0  0
  -27.7120  -13.2450   19.6460 C   0  0  0  0  0  3  0  0  0  0  0  0
  -28.8010  -13.0160   20.7220 C   0  0  0  0  0  2  0  0  0  0  0  0
  -30.1150  -13.3070   20.1140 N   0  0  0  0  0  0  0  0  0  0  0  0
  -31.8630  -14.6840   19.6100 O   0  0  0  0  0  0  0  0  0  0  0  0
  -30.0620  -15.5280   20.6770 N   0  0  0  0  0  0  0  0  0  0  0  0
  -29.2660  -15.2260   21.2150 H   0  0  0  0  0  0  0  0  0  0  0  0
  -25.3490  -13.8910   20.4370 C   0  0  0  0  0  0  0  0  0  0  0  0
  -24.2780  -13.1440   20.8390 C   0  0  0  0  0  0  0  0  0  0  0  0
  -24.7060  -11.7840   20.7790 C   0  0  0  0  0  0  0  0  0  0  0  0
  -26.3690  -12.9910   20.1660 N   0  0  0  0  0  0  0  0  0  0  0  0
  -25.9840  -11.7160   20.4260 N   0  0  0  0  0  0  0  0  0  0  0  0
  -23.9550  -10.5380   20.9830 C   0  0  0  0  0  0  0  0  0  0  0  0
  -24.3940   -9.5520   21.8950 C   0  0  0  0  0  3  0  0  0  0  0  0
  -23.6460   -8.3720   22.0870 C   0  0  0  0  0  3  0  0  0  0  0  0
  -22.4430   -8.1690   21.3700 C   0  0  0  0  0  0  0  0  0  0  0  0
  -22.0220   -9.1430   20.4480 C   0  0  0  0  0  3  0  0  0  0  0  0
  -22.7700  -10.3150   20.2530 C   0  0  0  0  0  3  0  0  0  0  0  0
  -21.6660   -7.0400   21.4750 O   0  0  0  0  0  0  0  0  0  0  0  0
  -21.6350   -6.2910   22.6230 C   0  0  0  0  0  0  0  0  0  0  0  0
  -21.2540   -6.8460   23.8640 C   0  0  0  0  0  3  0  0  0  0  0  0
  -21.1680   -6.0240   25.0060 C   0  0  0  0  0  3  0  0  0  0  0  0
  -21.4510   -4.6490   24.9070 C   0  0  0  0  0  0  0  0  0  0  0  0
  -21.8250   -4.0940   23.6700 C   0  0  0  0  0  3  0  0  0  0  0  0
  -21.9140   -4.9140   22.5310 C   0  0  0  0  0  0  0  0  0  0  0  0
  -22.2520   -4.3700   21.3380 F   0  0  0  0  0  0  0  0  0  0  0  0
  -21.3610   -3.8580   26.0010 F   0  0  0  0  0  0  0  0  0  0  0  0
  -22.9030  -13.6540   21.1650 C   0  0  0  0  0  0  0  0  0  0  0  0
  -22.1890  -12.9730   22.0540 N   0  0  0  0  0  0  0  0  0  0  0  0
  -22.4700  -14.6930   20.6660 O   0  0  0  0  0  0  0  0  0  0  0  0
  -22.5490  -12.1320   22.4810 H   0  0  0  0  0  0  0  0  0  0  0  0
  -21.2680  -13.2980   22.3140 H   0  0  0  0  0  0  0  0  0  0  0  0
  -25.5320  -15.2550   20.2600 N   0  0  0  0  0  0  0  0  0  0  0  0
  -24.7730  -15.9130   20.3890 H   0  0  0  0  0  0  0  0  0  0  0  0
  -26.3720  -15.6830   19.8990 H   0  0  0  0  0  0  0  0  0  0  0  0
  -28.4750  -17.3790   20.3740 C   0  0  0  0  0  2  0  0  0  0  0  0
  -28.3740  -18.7630   18.1640 C   0  0  0  0  0  1  0  0  0  0  0  0
  -26.2930  -18.2570   19.4480 C   0  0  0  0  0  1  0  0  0  0  0  0
  -27.6930  -17.7400   19.0870 C   0  0  0  0  0  3  0  0  0  0  0  0
  -29.1320  -21.5430   22.0620 C   0  0  0  0  0  1  0  0  0  0  0  0
  -30.1530  -21.8350   20.9380 C   0  0  0  0  0  3  0  0  0  0  0  0
  -29.5560  -22.8730   19.9050 C   0  0  0  0  0  2  0  0  0  0  0  0
  -30.2890  -24.8360   21.5230 C   0  0  0  0  0  1  0  0  0  0  0  0
  -29.6430  -24.4370   20.1820 C   0  0  0  0  0  3  0  0  0  0  0  0
  -28.2870  -25.1990   19.9710 C   0  0  0  0  0  2  0  0  0  0  0  0
  -28.3560  -26.6410   20.1510 O   0  0  0  0  0  0  0  0  0  0  0  0
  -24.5530  -31.8690   23.2310 C   0  0  0  0  0  0  0  0  0  0  0  0
  -27.1740  -27.3800   20.1460 C   0  0  0  0  0  0  0  0  0  0  0  0
  -23.3350  -30.4760   21.5910 C   0  0  0  0  0  3  0  0  0  0  0  0
  -24.7790  -28.9220   20.1670 C   0  0  0  0  0  0  0  0  0  0  0  0
  -25.8660  -30.8110   21.3890 C   0  0  0  0  0  2  0  0  0  0  0  0
  -25.9450  -29.4360   20.7470 C   0  0  0  0  0  0  0  0  0  0  0  0
  -27.1430  -28.6750   20.7260 C   0  0  0  0  0  3  0  0  0  0  0  0
  -25.9810  -26.8870   19.5680 C   0  0  0  0  0  3  0  0  0  0  0  0
  -24.7950  -27.6490   19.5730 C   0  0  0  0  0  3  0  0  0  0  0  0
  -23.5400  -29.7920   20.2130 C   0  0  0  0  0  2  0  0  0  0  0  0
  -24.6040  -31.0670   22.1290 N   0  0  0  0  0  0  0  0  0  0  0  0
  -23.4740  -32.1500   23.7720 O   0  0  0  0  0  0  0  0  0  0  0  0
  -22.6740  -29.4640   22.5530 C   0  0  0  0  0  0  0  0  0  0  0  0
  -21.3480  -29.2970   22.4290 N   0  0  0  0  0  0  0  0  0  0  0  0
  -23.3510  -28.8300   23.3670 O   0  0  0  0  0  0  0  0  0  0  0  0
  -20.8630  -29.8530   21.7400 H   0  0  0  0  0  0  0  0  0  0  0  0
  -17.9610  -28.1460   22.9430 C   0  0  0  0  0  0  0  0  0  0  0  0
  -20.5240  -28.3660   23.2010 C   0  0  0  0  0  3  0  0  0  0  0  0
  -20.6020  -26.9380   22.6130 C   0  0  0  0  0  2  0  0  0  0  0  0
  -19.4880  -26.6390   21.6050 C   0  0  0  0  0  2  0  0  0  0  0  0
  -18.1130  -26.7980   22.2590 C   0  0  0  0  0  2  0  0  0  0  0  0
  -19.0930  -28.8890   23.3700 C   0  0  0  0  0  0  0  0  0  0  0  0
  -18.8950  -30.1520   23.9680 C   0  0  0  0  0  3  0  0  0  0  0  0
  -17.6000  -30.6700   24.1470 C   0  0  0  0  0  3  0  0  0  0  0  0
  -16.4820  -29.9230   23.7370 C   0  0  0  0  0  3  0  0  0  0  0  0
  -16.6630  -28.6640   23.1390 C   0  0  0  0  0  3  0  0  0  0  0  0
  -25.8430  -32.4910   23.8490 C   0  0  0  0  0  3  0  0  0  0  0  0
  -26.3540  -31.7160   25.1250 C   0  0  1  0  0  0  0  0  0  0  0  0
  -25.2600  -31.4890   26.1940 C   0  0  0  0  0  1  0  0  0  0  0  0
  -26.9280  -30.3340   24.7340 C   0  0  0  0  0  1  0  0  0  0  0  0
  -27.5100  -32.5030   25.7870 C   0  0  0  0  0  1  0  0  0  0  0  0
  -25.5470  -33.8910   24.1780 N   0  0  0  0  0  0  0  0  0  0  0  0
  -25.8940  -34.9400   23.4200 C   0  0  0  0  0  0  0  0  0  0  0  0
  -26.5710  -34.8290   22.3940 O   0  0  0  0  0  0  0  0  0  0  0  0
  -24.9450  -34.0500   24.9720 H   0  0  0  0  0  0  0  0  0  0  0  0
  -24.1920  -36.7520   23.0470 C   0  0  0  0  0  1  0  0  0  0  0  0
  -25.4180  -36.3330   23.8740 C   0  0  0  0  0  3  0  0  0  0  0  0
  -27.5500  -37.1930   24.7360 C   0  0  0  0  0  1  0  0  0  0  0  0
  -26.4650  -37.3750   23.7770 N   0  0  0  0  0  0  0  0  0  0  0  0
  -26.0660  -38.2990   23.9190 H   0  0  0  0  0  0  0  0  0  0  0  0
  1 51  1  0
  1  2  1  0
  2  4  1  0
  3  1  2  0
  6  2  1  0
  6  5  1  0
  7 46  1  0
  7 16  1  0
  7  6  1  0
  8 16  1  0
  9 14  1  0
 10 11  1  0
 10  9  1  0
 12 11  1  0
 12 21  1  0
 12 13  1  0
 14  8  1  0
 14 13  1  0
 15  8  2  0
 16 17  1  0
 18 19  2  0
 19 38  1  0
 20 19  1  0
 20 23  1  0
 21 22  1  0
 21 18  1  0
 22 20  2  0
 23 24  1  0
 24 25  2  0
 26 29  1  0
 26 25  1  0
 27 26  2  0
 28 27  1  0
 28 23  2  0
 29 30  1  0
 30 31  1  0
 31 32  2  0
 33 32  1  0
 33 37  1  0
 34 33  2  0
 35 30  2  0
 35 34  1  0
 36 35  1  0
 38 39  1  0
 39 42  1  0
 39 41  1  0
 40 38  2  0
 43 44  1  0
 43 18  1  0
 45 43  1  0
 47 49  1  0
 49 48  1  0
 49 46  1  0
 51 50  1  0
 52 54  1  0
 52 51  1  0
 54 53  1  0
 55 56  1  0
 55 54  1  0
 57 68  2  0
 58 56  1  0
 58 63  1  0
 59 67  1  0
 59 69  1  0
 60 66  1  0
 60 62  1  0
 61 67  1  0
 62 61  1  0
 63 62  2  0
 64 65  1  0
 64 58  2  0
 65 60  2  0
 66 59  1  0
 67 57  1  0
 69 71  2  0
 70 69  1  0
 72 70  1  0
 73 82  2  0
 73 78  1  0
 74 70  1  0
 74 78  1  0
 75 74  1  0
 76 77  1  0
 76 75  1  0
 77 73  1  0
 78 79  2  0
 79 80  1  0
 81 80  2  0
 82 81  1  0
 83 57  1  0
 83 88  1  0
 83 84  1  0
 84 87  1  1
 84 85  1  0
 86 84  1  0
 88 91  1  0
 89 93  1  0
 89 88  1  0
 90 89  2  0
 93 92  1  0
 95 93  1  0
 95 96  1  0
 95 94  1  0
M  ISO  4   8 100  16 100  55 101  56 101
M  END
>  <TORSDO>  (1) 
F 24

>  <SCORE>  (1) 
-12.449

>  <name>  (1) 
0

>  <ligand_id>  (1) 
0

>  <original_smiles>  (1) 
[H]c1c([H])c([H])c2c(c1[H])C([H])([H])C([H])([H])C([H])([H])C2([H])N([H])C(=O)C1([H])N(C(=O)C([H])(N([H])C(=O)C([H])(N([H])C([H])([H])[H])C([H])([H])[H])C(C([H])([H])[H])(C([H])([H])[H])C([H])([H])[H])C([H])([H])c2c([H])c(OC([H])([H])C([H])(C([H])([H])[H])C([H])([H])C([H])(C(=O)N([H])C([H])(C([H])([H])[H])C([H])(N([H])C(=O)N3C([H])([H])C([H])([H])C([H])([H])C([H])(n4nc(-c5c([H])c([H])c(Oc6c([H])c([H])c(F)c([H])c6F)c([H])c5[H])c(C(=O)N([H])[H])c4N([H])[H])C3([H])[H])C([H])([H])C([H])(C([H])([H])[H])C([H])([H])[H])C([H])([H])[H])c([H])c([H])c2C1([H])[H]

>  <smiles>  (1) 
[H]c1c([H])c([H])c2c(c1[H])C([H])([H])C([H])([H])C([H])([H])C2([H])N([H])C(=O)C1([H])N(C(=O)C([H])(N([H])C(=O)C([H])(N([H])C([H])([H])[H])C([H])([H])[H])C(C([H])([H])[H])(C([H])([H])[H])C([H])([H])[H])C([H])([H])c2c([H])c(OC([H])([H])C([H])(C([H])([H])[H])C([H])([H])C([H])(C(=O)N([H])C([H])(C([H])([H])[H])C([H])(N([H])C(=O)N3C([H])([H])C([H])([H])C([H])([H])C([H])(n4nc(-c5c([H])c([H])c(Oc6c([H])c([H])c(F)c([H])c6F)c([H])c5[H])c(C(=O)N([H])[H])c4N([H])[H])C3([H])[H])C([H])([H])C([H])(C([H])([H])[H])C([H])([H])[H])C([H])([H])[H])c([H])c([H])c2C1([H])[H]

$$$$
1:0:0
     RDKit          3D

 94102  0  0  1  0  0  0  0  0999 V2000
  -29.4670  -19.9970   19.9860 C   0  0  0  0  0  3  0  0  0  0  0  0
  -30.1160  -18.7250   20.7610 C   0  0  0  0  0  2  0  0  0  0  0  0
  -30.4370  -17.3370   19.9680 C   0  0  0  0  0  0  0  0  0  0  0  0
  -31.2030  -14.8580   20.6810 C   0  0  0  0  0  0  0  0  0  0  0  0
  -30.9960  -12.5470   19.7350 C   0  0  0  0  0  2  0  0  0  0  0  0
  -30.1480  -12.5090   18.4430 C   0  0  0  0  0  2  0  0  0  0  0  0
  -28.6300  -12.5530   18.7260 C   0  0  0  0  0  2  0  0  0  0  0  0
  -28.2050  -13.4900   19.8960 C   0  0  0  0  0  3  0  0  0  0  0  0
  -29.1770  -13.3790   21.0910 C   0  0  0  0  0  2  0  0  0  0  0  0
  -30.5330  -13.6570   20.6010 N   0  0  0  0  0  0  0  0  0  0  0  0
  -32.4100  -14.9140   20.4490 O   0  0  0  0  0  0  0  0  0  0  0  0
  -30.4210  -16.0020   20.7360 N   0  0  0  0  0  4  0  0  0  0  0  0
  -29.4980  -15.7790   21.0780 H   0  0  0  0  0  0  0  0  0  0  0  0
  -25.7950  -14.1750   20.4890 C   0  0  0  0  0  0  0  0  0  0  0  0
  -24.6780  -13.4440   20.7810 C   0  0  0  0  0  0  0  0  0  0  0  0
  -25.0860  -12.0740   20.7690 C   0  0  0  0  0  0  0  0  0  0  0  0
  -26.8200  -13.2560   20.3070 N   0  0  0  0  0  0  0  0  0  0  0  0
  -26.3940  -11.9880   20.5470 N   0  0  0  0  0  0  0  0  0  0  0  0
  -24.2980  -10.8410   20.9050 C   0  0  0  0  0  0  0  0  0  0  0  0
  -24.6480   -9.8450   21.8460 C   0  0  0  0  0  3  0  0  0  0  0  0
  -23.8690   -8.6750   21.9710 C   0  0  0  0  0  3  0  0  0  0  0  0
  -22.7250   -8.4910   21.1560 C   0  0  0  0  0  0  0  0  0  0  0  0
  -22.3940   -9.4750   20.2090 C   0  0  0  0  0  3  0  0  0  0  0  0
  -23.1710  -10.6380   20.0810 C   0  0  0  0  0  3  0  0  0  0  0  0
  -21.9260   -7.3750   21.1880 O   0  0  0  0  0  0  0  0  0  0  0  0
  -21.7730   -6.6340   22.3320 C   0  0  0  0  0  0  0  0  0  0  0  0
  -21.3130   -7.2080   23.5380 C   0  0  0  0  0  3  0  0  0  0  0  0
  -21.1000   -6.3960   24.6700 C   0  0  0  0  0  3  0  0  0  0  0  0
  -21.3400   -5.0110   24.5970 C   0  0  0  0  0  0  0  0  0  0  0  0
  -21.7930   -4.4350   23.3970 C   0  0  0  0  0  3  0  0  0  0  0  0
  -22.0050   -5.2450   22.2670 C   0  0  0  0  0  0  0  0  0  0  0  0
  -22.4200   -4.6860   21.1060 F   0  0  0  0  0  0  0  0  0  0  0  0
  -21.1290   -4.2260   25.6800 F   0  0  0  0  0  0  0  0  0  0  0  0
  -23.2820  -13.9690   20.9610 C   0  0  0  0  0  0  0  0  0  0  0  0
  -22.4770  -13.3090   21.7830 N   0  0  0  0  0  0  0  0  0  0  0  0
  -22.9090  -15.0020   20.4010 O   0  0  0  0  0  0  0  0  0  0  0  0
  -22.7850  -12.4750   22.2610 H   0  0  0  0  0  0  0  0  0  0  0  0
  -21.5350  -13.6380   21.9400 H   0  0  0  0  0  0  0  0  0  0  0  0
  -26.0190  -15.5430   20.3400 N   0  0  0  0  0  0  0  0  0  0  0  0
  -25.2560  -16.2080   20.4050 H   0  0  0  0  0  0  0  0  0  0  0  0
  -26.8990  -15.9650   20.0720 H   0  0  0  0  0  0  0  0  0  0  0  0
  -32.5610  -17.2160   15.9920 C   0  0  0  0  0  2  0  0  0  0  0  0
  -32.4350  -15.9740   16.8710 C   0  0  0  0  0  2  0  0  0  0  0  0
  -32.7840  -18.4560   16.8740 C   0  0  0  0  0  2  0  0  0  0  0  0
  -31.2820  -16.1690   17.8610 C   0  0  0  0  0  2  0  0  0  0  0  0
  -31.6950  -18.6030   17.9650 C   0  0  0  0  0  2  0  0  0  0  0  0
  -31.5470  -17.3340   18.8450 C   0  0  0  0  0  3  0  0  0  0  0  0
  -28.8460  -21.2940   20.7160 C   0  0  0  0  0  3  0  0  0  0  0  0
  -28.5150  -22.4800   19.8060 N   0  0  0  0  0  4  0  0  0  0  0  0
  -27.6950  -22.2270   19.2730 H   0  0  0  0  0  0  0  0  0  0  0  0
  -29.2720  -22.5560   19.1460 H   0  0  0  0  0  0  0  0  0  0  0  0
  -28.2650  -23.8710   20.4030 C   0  0  0  0  0  3  0  0  0  0  0  0
  -28.2760  -25.1130   19.3930 C   0  0  0  0  0  3  0  0  0  0  0  0
  -28.2100  -26.4970   19.9250 O   0  0  0  0  0  0  0  0  0  0  0  0
  -24.5180  -31.7860   23.1260 C   0  0  0  0  0  0  0  0  0  0  0  0
  -27.0520  -27.2900   19.9120 C   0  0  0  0  0  0  0  0  0  0  0  0
  -23.2740  -30.4280   21.4810 C   0  0  0  0  0  3  0  0  0  0  0  0
  -24.6860  -28.8980   19.9960 C   0  0  0  0  0  0  0  0  0  0  0  0
  -25.8070  -30.7410   21.2480 C   0  0  0  0  0  2  0  0  0  0  0  0
  -25.8670  -29.3740   20.5790 C   0  0  0  0  0  0  0  0  0  0  0  0
  -27.0460  -28.5790   20.5310 C   0  0  0  0  0  3  0  0  0  0  0  0
  -25.8440  -26.8580   19.3180 C   0  0  0  0  0  3  0  0  0  0  0  0
  -24.6770  -27.6450   19.3610 C   0  0  0  0  0  3  0  0  0  0  0  0
  -23.4600  -29.7820   20.0810 C   0  0  0  0  0  2  0  0  0  0  0  0
  -24.5540  -30.9970   22.0130 N   0  0  0  0  0  0  0  0  0  0  0  0
  -23.4470  -32.0640   23.6830 O   0  0  0  0  0  0  0  0  0  0  0  0
  -22.6300  -29.3900   22.4340 C   0  0  0  0  0  0  0  0  0  0  0  0
  -21.3010  -29.2240   22.3250 N   0  0  0  0  0  0  0  0  0  0  0  0
  -23.3180  -28.7450   23.2300 O   0  0  0  0  0  0  0  0  0  0  0  0
  -20.8100  -29.8060   21.6620 H   0  0  0  0  0  0  0  0  0  0  0  0
  -17.9220  -28.0370   22.8170 C   0  0  0  0  0  0  0  0  0  0  0  0
  -20.4840  -28.2780   23.0840 C   0  0  0  0  0  3  0  0  0  0  0  0
  -20.5780  -26.8550   22.4810 C   0  0  0  0  0  2  0  0  0  0  0  0
  -19.4700  -26.5550   21.4690 C   0  0  0  0  0  2  0  0  0  0  0  0
  -18.0920  -26.6970   22.1210 C   0  0  0  0  0  2  0  0  0  0  0  0
  -19.0480  -28.7860   23.2530 C   0  0  0  0  0  0  0  0  0  0  0  0
  -18.8390  -30.0430   23.8600 C   0  0  0  0  0  3  0  0  0  0  0  0
  -17.5380  -30.5460   24.0470 C   0  0  0  0  0  3  0  0  0  0  0  0
  -16.4270  -29.7910   23.6320 C   0  0  0  0  0  3  0  0  0  0  0  0
  -16.6200  -28.5420   23.0170 C   0  0  0  0  0  3  0  0  0  0  0  0
  -25.8190  -32.3950   23.7350 C   0  0  0  0  0  3  0  0  0  0  0  0
  -25.5310  -33.7910   24.0940 N   0  0  0  0  0  0  0  0  0  0  0  0
  -25.8900  -34.8550   23.3630 C   0  0  0  0  0  0  0  0  0  0  0  0
  -26.5680  -34.7630   22.3350 O   0  0  0  0  0  0  0  0  0  0  0  0
  -24.9300  -33.9410   24.8890 H   0  0  0  0  0  0  0  0  0  0  0  0
  -24.2020  -36.6900   23.0320 C   0  0  0  0  0  1  0  0  0  0  0  0
  -25.4230  -36.2400   23.8490 C   0  0  0  0  0  3  0  0  0  0  0  0
  -27.5620  -37.0620   24.7310 C   0  0  0  0  0  1  0  0  0  0  0  0
  -26.4770  -37.2750   23.7770 N   0  0  0  0  0  0  0  0  0  0  0  0
  -26.0860  -38.1990   23.9450 H   0  0  0  0  0  0  0  0  0  0  0  0
  -26.3440  -31.5990   24.9900 C   0  0  1  0  0  0  0  0  0  0  0  0
  -25.2650  -31.3700   26.0770 C   0  0  0  0  0  1  0  0  0  0  0  0
  -26.8960  -30.2190   24.5590 C   0  0  0  0  0  1  0  0  0  0  0  0
  -27.5200  -32.3640   25.6430 C   0  0  0  0  0  1  0  0  0  0  0  0
  1 48  2  0
  1  2  1  0
  3 12  2  0
  3  2  1  0
  4 12  1  0
  5 10  1  0
  6  7  1  0
  6  5  1  0
  8  7  1  0
  8 17  1  0
  8  9  1  0
 10  4  1  0
 10  9  1  0
 11  4  2  0
 12 13  1  0
 14 15  2  0
 15 34  1  0
 16 15  1  0
 16 19  1  0
 17 14  1  0
 17 18  1  0
 18 16  2  0
 19 20  1  0
 20 21  2  0
 22 25  1  0
 22 21  1  0
 23 22  2  0
 24 23  1  0
 24 19  2  0
 25 26  1  0
 26 27  1  0
 27 28  2  0
 29 28  1  0
 29 33  1  0
 30 29  2  0
 31 26  2  0
 31 30  1  0
 32 31  1  0
 34 35  1  0
 35 38  1  0
 35 37  1  0
 36 34  2  0
 39 40  1  0
 39 14  1  0
 41 39  1  0
 42 43  1  0
 42 44  1  0
 43 45  1  0
 44 46  1  0
 45 47  1  0
 46 47  1  0
 47  3  1  0
 49 52  1  0
 49 48  1  0
 50 49  1  0
 51 49  1  0
 53 54  1  0
 53 52  2  0
 55 66  2  0
 56 54  1  0
 56 61  1  0
 57 65  1  0
 57 67  1  0
 58 64  1  0
 58 60  1  0
 59 65  1  0
 60 59  1  0
 61 60  2  0
 62 63  1  0
 62 56  2  0
 63 58  2  0
 64 57  1  0
 65 55  1  0
 67 69  2  0
 68 67  1  0
 70 68  1  0
 71 80  2  0
 71 76  1  0
 72 68  1  0
 72 76  1  0
 73 72  1  0
 74 75  1  0
 74 73  1  0
 75 71  1  0
 76 77  2  0
 77 78  1  0
 79 78  2  0
 80 79  1  0
 81 55  1  0
 81 82  1  0
 81 91  1  0
 82 85  1  0
 83 87  1  0
 83 82  1  0
 84 83  2  0
 87 86  1  0
 89 87  1  0
 89 90  1  0
 89 88  1  0
 91 94  1  1
 91 92  1  0
 93 91  1  0
M  ISO  4   4 100  12 100  53 101  54 101
M  END
>  <TORSDO>  (2) 
F 23

>  <SCORE>  (2) 
-12.151

>  <name>  (2) 
1

>  <ligand_id>  (2) 
1

>  <original_smiles>  (2) 
[H]c1c([H])c([H])c2c(c1[H])C([H])([H])C([H])([H])C([H])([H])C2([H])N([H])C(=O)C1([H])N(C(=O)C([H])(N([H])C(=O)C([H])(N([H])C([H])([H])[H])C([H])([H])[H])C(C([H])([H])[H])(C([H])([H])[H])C([H])([H])[H])C([H])([H])c2c([H])c(OC([H])([H])C([H])([H])[N+]([H])([H])C([H])([H])C([H])([H])C([H])([H])C([H])(N([H])C(=O)N3C([H])([H])C([H])([H])C([H])([H])C([H])(n4nc(-c5c([H])c([H])c(Oc6c([H])c([H])c(F)c([H])c6F)c([H])c5[H])c(C(=O)N([H])[H])c4N([H])[H])C3([H])[H])C3([H])C([H])([H])C([H])([H])C([H])([H])C([H])([H])C3([H])[H])c([H])c([H])c2C1([H])[H]

>  <smiles>  (2) 
[H]c1c([H])c([H])c2c(c1[H])C([H])([H])C([H])([H])C([H])([H])C2([H])N([H])C(=O)C1([H])N(C(=O)C([H])(N([H])C(=O)C([H])(N([H])C([H])([H])[H])C([H])([H])[H])C(C([H])([H])[H])(C([H])([H])[H])C([H])([H])[H])C([H])([H])c2c([H])c(OC([H])([H])C([H])([H])[N+]([H])([H])C([H])([H])C([H])([H])C([H])([H])C([H])(N([H])C(=O)N3C([H])([H])C([H])([H])C([H])([H])C([H])(n4nc(-c5c([H])c([H])c(Oc6c([H])c([H])c(F)c([H])c6F)c([H])c5[H])c(C(=O)N([H])[H])c4N([H])[H])C3([H])[H])C3([H])C([H])([H])C([H])([H])C([H])([H])C([H])([H])C3([H])[H])c([H])c([H])c2C1([H])[H]

$$$$
2:0:0
     RDKit          3D

106113  0  0  1  0  0  0  0  0999 V2000
  -28.7860  -21.7250   21.5090 C   0  0  0  0  0  0  0  0  0  0  0  0
  -27.3630  -23.9560   21.7390 C   0  0  0  0  0  0  0  0  0  0  0  0
  -27.6330  -22.6500   21.5250 N   0  0  0  0  0  4  0  0  0  0  0  0
  -26.1880  -24.2930   21.6110 O   0  0  0  0  0  0  0  0  0  0  0  0
  -26.7910  -22.1820   21.2190 H   0  0  0  0  0  0  0  0  0  0  0  0
  -28.3390  -25.0390   22.2760 C   0  0  0  0  0  3  0  0  0  0  0  0
  -27.6200  -25.8330   23.2040 O   0  0  0  0  0  0  0  0  0  0  0  0
  -26.7930  -26.0240   22.7690 H   0  0  0  0  0  0  0  0  0  0  0  0
  -29.0030  -26.0180   21.2430 C   0  0  0  0  0  2  0  0  0  0  0  0
  -28.3070  -26.3740   20.0370 O   0  0  0  0  0  0  0  0  0  0  0  0
  -24.6170  -31.6980   23.1290 C   0  0  0  0  0  0  0  0  0  0  0  0
  -27.1950  -27.1830   20.1060 C   0  0  0  0  0  0  0  0  0  0  0  0
  -23.3960  -30.2990   21.4950 C   0  0  0  0  0  3  0  0  0  0  0  0
  -24.8340  -28.7320   20.0850 C   0  0  0  0  0  0  0  0  0  0  0  0
  -25.9250  -30.6150   21.3060 C   0  0  0  0  0  2  0  0  0  0  0  0
  -25.9950  -29.2330   20.6920 C   0  0  0  0  0  0  0  0  0  0  0  0
  -27.1820  -28.4550   20.7230 C   0  0  0  0  0  3  0  0  0  0  0  0
  -26.0360  -26.7230   19.4540 C   0  0  0  0  0  3  0  0  0  0  0  0
  -24.8480  -27.4730   19.4650 C   0  0  0  0  0  3  0  0  0  0  0  0
  -23.5960  -29.6020   20.1210 C   0  0  0  0  0  2  0  0  0  0  0  0
  -24.6620  -30.8860   22.0340 N   0  0  0  0  0  0  0  0  0  0  0  0
  -23.5370  -31.9820   23.6680 O   0  0  0  0  0  0  0  0  0  0  0  0
  -22.7300  -29.2920   22.4620 C   0  0  0  0  0  0  0  0  0  0  0  0
  -21.4050  -29.1140   22.3250 N   0  0  0  0  0  0  0  0  0  0  0  0
  -23.4030  -28.6730   23.2920 O   0  0  0  0  0  0  0  0  0  0  0  0
  -20.9250  -29.6540   21.6170 H   0  0  0  0  0  0  0  0  0  0  0  0
  -18.0290  -27.9060   22.7850 C   0  0  0  0  0  0  0  0  0  0  0  0
  -20.5780  -28.1880   23.1010 C   0  0  0  0  0  3  0  0  0  0  0  0
  -20.7050  -26.7460   22.5600 C   0  0  0  0  0  2  0  0  0  0  0  0
  -19.6270  -26.3910   21.5320 C   0  0  0  0  0  2  0  0  0  0  0  0
  -18.2300  -26.5430   22.1430 C   0  0  0  0  0  2  0  0  0  0  0  0
  -19.1350  -28.6860   23.2180 C   0  0  0  0  0  0  0  0  0  0  0  0
  -18.8980  -29.9600   23.7770 C   0  0  0  0  0  3  0  0  0  0  0  0
  -17.5880  -30.4630   23.8990 C   0  0  0  0  0  3  0  0  0  0  0  0
  -16.4940  -29.6800   23.4880 C   0  0  0  0  0  3  0  0  0  0  0  0
  -16.7160  -28.4020   22.9380 C   0  0  0  0  0  3  0  0  0  0  0  0
  -25.9090  -32.3220   23.7380 C   0  0  0  0  0  3  0  0  0  0  0  0
  -25.5960  -33.7080   24.1110 N   0  0  0  0  0  0  0  0  0  0  0  0
  -25.9120  -34.7840   23.3800 C   0  0  0  0  0  0  0  0  0  0  0  0
  -26.5650  -34.7160   22.3360 O   0  0  0  0  0  0  0  0  0  0  0  0
  -25.0140  -33.8330   24.9260 H   0  0  0  0  0  0  0  0  0  0  0  0
  -24.1720  -36.5770   23.1120 C   0  0  0  0  0  1  0  0  0  0  0  0
  -25.4300  -36.1570   23.8870 C   0  0  0  0  0  3  0  0  0  0  0  0
  -27.5830  -37.0300   24.6890 C   0  0  0  0  0  1  0  0  0  0  0  0
  -26.4570  -37.2190   23.7760 N   0  0  0  0  0  0  0  0  0  0  0  0
  -26.0510  -38.1320   23.9610 H   0  0  0  0  0  0  0  0  0  0  0  0
  -26.4560  -31.5130   24.9740 C   0  0  1  0  0  0  0  0  0  0  0  0
  -25.3910  -31.2370   26.0630 C   0  0  0  0  0  1  0  0  0  0  0  0
  -27.0350  -30.1530   24.5170 C   0  0  0  0  0  1  0  0  0  0  0  0
  -27.6190  -32.2890   25.6250 C   0  0  0  0  0  1  0  0  0  0  0  0
  -30.0690  -22.1760   22.2570 C   0  0  0  0  0  2  0  0  0  0  0  0
  -29.8230  -20.7180   24.3710 C   0  0  0  0  0  1  0  0  0  0  0  0
  -31.2420  -22.7760   24.4220 C   0  0  0  0  0  1  0  0  0  0  0  0
  -29.9840  -22.1430   23.8070 C   0  0  0  0  0  3  0  0  0  0  0  0
  -28.9700  -21.0660   20.1020 C   0  0  0  0  0  3  0  0  0  0  0  0
  -29.1110  -22.0890   18.9450 C   0  0  0  0  0  2  0  0  0  0  0  0
  -28.8110  -21.5040   17.5480 C   0  0  0  0  0  2  0  0  0  0  0  0
  -27.5300  -20.7160   17.5830 C   0  0  0  0  0  0  0  0  0  0  0  0
  -27.5590  -19.3790   17.4700 N   0  0  0  0  0  4  0  0  0  0  0  0
  -26.3670  -21.3610   17.7550 N   0  0  0  0  0  0  0  0  0  0  0  0
  -28.4330  -18.8950   17.3230 H   0  0  0  0  0  0  0  0  0  0  0  0
  -26.7370  -18.7970   17.5170 H   0  0  0  0  0  0  0  0  0  0  0  0
  -26.3500  -22.3720   17.7980 H   0  0  0  0  0  0  0  0  0  0  0  0
  -25.4710  -20.8940   17.7870 H   0  0  0  0  0  0  0  0  0  0  0  0
  -30.0790  -19.9730   20.0270 C   0  0  0  0  0  2  0  0  0  0  0  0
  -29.8950  -18.7250   20.9280 C   0  0  0  0  0  2  0  0  0  0  0  0
  -31.0340  -17.6940   20.7390 C   0  0  0  0  0  2  0  0  0  0  0  0
  -30.9940  -16.4800   21.6990 C   0  0  0  0  0  2  0  0  0  0  0  0
  -30.9190  -14.3420   20.3860 C   0  0  0  0  0  0  0  0  0  0  0  0
  -30.5510  -12.1860   19.2380 C   0  0  0  0  0  2  0  0  0  0  0  0
  -29.5890  -12.3570   18.0450 C   0  0  0  0  0  2  0  0  0  0  0  0
  -28.1200  -12.2490   18.5010 C   0  0  0  0  0  2  0  0  0  0  0  0
  -27.8140  -13.1330   19.7380 C   0  0  0  0  0  3  0  0  0  0  0  0
  -28.8820  -12.9210   20.8360 C   0  0  0  0  0  2  0  0  0  0  0  0
  -30.2050  -13.1960   20.2450 N   0  0  0  0  0  0  0  0  0  0  0  0
  -32.0040  -14.5350   19.8270 O   0  0  0  0  0  0  0  0  0  0  0  0
  -30.3520  -15.2750   21.1630 N   0  0  0  0  0  0  0  0  0  0  0  0
  -29.4520  -15.0310   21.5510 H   0  0  0  0  0  0  0  0  0  0  0  0
  -25.4500  -13.8100   20.5010 C   0  0  0  0  0  0  0  0  0  0  0  0
  -24.3660  -13.0690   20.8810 C   0  0  0  0  0  0  0  0  0  0  0  0
  -24.7790  -11.7020   20.8260 C   0  0  0  0  0  0  0  0  0  0  0  0
  -26.4610  -12.8980   20.2390 N   0  0  0  0  0  0  0  0  0  0  0  0
  -26.0620  -11.6260   20.4910 N   0  0  0  0  0  0  0  0  0  0  0  0
  -24.0190  -10.4630   21.0150 C   0  0  0  0  0  0  0  0  0  0  0  0
  -24.4270   -9.4790   21.9430 C   0  0  0  0  0  3  0  0  0  0  0  0
  -23.6660   -8.3040   22.1210 C   0  0  0  0  0  3  0  0  0  0  0  0
  -22.4850   -8.1020   21.3690 C   0  0  0  0  0  0  0  0  0  0  0  0
  -22.0970   -9.0720   20.4290 C   0  0  0  0  0  3  0  0  0  0  0  0
  -22.8570  -10.2410   20.2500 C   0  0  0  0  0  3  0  0  0  0  0  0
  -21.6980   -6.9790   21.4570 O   0  0  0  0  0  0  0  0  0  0  0  0
  -21.6170   -6.2460   22.6130 C   0  0  0  0  0  0  0  0  0  0  0  0
  -21.1930   -6.8210   23.8320 C   0  0  0  0  0  3  0  0  0  0  0  0
  -21.0560   -6.0160   24.9800 C   0  0  0  0  0  3  0  0  0  0  0  0
  -21.3300   -4.6370   24.9090 C   0  0  0  0  0  0  0  0  0  0  0  0
  -21.7490   -4.0620   23.6970 C   0  0  0  0  0  3  0  0  0  0  0  0
  -21.8860   -4.8640   22.5500 C   0  0  0  0  0  0  0  0  0  0  0  0
  -22.2680   -4.3010   21.3780 F   0  0  0  0  0  0  0  0  0  0  0  0
  -21.1930   -3.8600   26.0110 F   0  0  0  0  0  0  0  0  0  0  0  0
  -22.9900  -13.5860   21.1870 C   0  0  0  0  0  0  0  0  0  0  0  0
  -22.2580  -12.9030   22.0610 N   0  0  0  0  0  0  0  0  0  0  0  0
  -22.5730  -14.6310   20.6870 O   0  0  0  0  0  0  0  0  0  0  0  0
  -22.6100  -12.0560   22.4850 H   0  0  0  0  0  0  0  0  0  0  0  0
  -21.3350  -13.2300   22.3100 H   0  0  0  0  0  0  0  0  0  0  0  0
  -25.6560  -15.1770   20.3350 N   0  0  0  0  0  0  0  0  0  0  0  0
  -24.9170  -15.8560   20.4740 H   0  0  0  0  0  0  0  0  0  0  0  0
  -26.5170  -15.5900   20.0010 H   0  0  0  0  0  0  0  0  0  0  0  0
  1  3  2  0
  1 51  1  0
  2  6  1  0
  3  2  1  0
  4  2  2  0
  5  3  1  0
  6  9  1  0
  6  7  1  0
  8  7  1  0
 10 12  1  0
 10  9  1  0
 11 22  2  0
 12 17  1  0
 13 21  1  0
 13 23  1  0
 14 20  1  0
 14 16  1  0
 15 21  1  0
 16 17  2  0
 16 15  1  0
 18 19  1  0
 18 12  2  0
 19 14  2  0
 20 13  1  0
 21 11  1  0
 23 25  2  0
 24 23  1  0
 26 24  1  0
 27 36  2  0
 27 32  1  0
 28 24  1  0
 28 32  1  0
 29 28  1  0
 30 31  1  0
 30 29  1  0
 31 27  1  0
 32 33  2  0
 33 34  1  0
 35 34  2  0
 36 35  1  0
 37 11  1  0
 37 38  1  0
 37 47  1  0
 38 41  1  0
 39 43  1  0
 39 38  1  0
 40 39  2  0
 43 42  1  0
 45 43  1  0
 45 46  1  0
 45 44  1  0
 47 50  1  1
 47 48  1  0
 49 47  1  0
 51 54  1  0
 54 52  1  0
 54 53  1  0
 55 56  1  0
 55  1  1  0
 57 58  1  0
 57 56  1  0
 58 60  1  0
 59 62  1  0
 59 58  2  0
 60 64  1  0
 60 63  1  0
 61 59  1  0
 65 55  1  0
 65 66  1  0
 67 66  1  0
 67 68  1  0
 69 77  1  0
 70 75  1  0
 71 72  1  0
 71 70  1  0
 73 72  1  0
 73 82  1  0
 73 74  1  0
 75 69  1  0
 75 74  1  0
 76 69  2  0
 77 78  1  0
 77 68  1  0
 79 80  2  0
 80 99  1  0
 81 80  1  0
 81 84  1  0
 82 83  1  0
 82 79  1  0
 83 81  2  0
 84 85  1  0
 85 86  2  0
 87 90  1  0
 87 86  1  0
 88 87  2  0
 89 88  1  0
 89 84  2  0
 90 91  1  0
 91 92  1  0
 92 93  2  0
 94 93  1  0
 94 98  1  0
 95 94  2  0
 96 91  2  0
 96 95  1  0
 97 96  1  0
 99100  1  0
100103  1  0
100102  1  0
101 99  2  0
104105  1  0
104 79  1  0
106104  1  0
M  ISO  4   9 101  10 101  69 100  77 100
M  END
>  <TORSDO>  (3) 
F 30

>  <SCORE>  (3) 
-10.567

>  <name>  (3) 
2

>  <ligand_id>  (3) 
2

>  <original_smiles>  (3) 
[H]OC([H])(C(=O)N([H])C([H])(C([H])([H])C([H])(C([H])([H])[H])C([H])([H])[H])C([H])(C([H])([H])C([H])([H])C(N([H])[H])=[N+]([H])[H])C([H])([H])C([H])([H])C([H])([H])C([H])([H])N([H])C(=O)N1C([H])([H])C([H])([H])C([H])([H])C([H])(n2nc(-c3c([H])c([H])c(Oc4c([H])c([H])c(F)c([H])c4F)c([H])c3[H])c(C(=O)N([H])[H])c2N([H])[H])C1([H])[H])C([H])([H])Oc1c([H])c([H])c2c(c1[H])C([H])([H])N(C(=O)C([H])(N([H])C(=O)C([H])(N([H])C([H])([H])[H])C([H])([H])[H])C(C([H])([H])[H])(C([H])([H])[H])C([H])([H])[H])C([H])(C(=O)N([H])C1([H])c3c([H])c([H])c([H])c([H])c3C([H])([H])C([H])([H])C1([H])[H])C2([H])[H]

>  <smiles>  (3) 
[H]OC([H])(C(=O)N([H])C([H])(C([H])([H])C([H])(C([H])([H])[H])C([H])([H])[H])C([H])(C([H])([H])C([H])([H])C(N([H])[H])=[N+]([H])[H])C([H])([H])C([H])([H])C([H])([H])C([H])([H])N([H])C(=O)N1C([H])([H])C([H])([H])C([H])([H])C([H])(n2nc(-c3c([H])c([H])c(Oc4c([H])c([H])c(F)c([H])c4F)c([H])c3[H])c(C(=O)N([H])[H])c2N([H])[H])C1([H])[H])C([H])([H])Oc1c([H])c([H])c2c(c1[H])C([H])([H])N(C(=O)C([H])(N([H])C(=O)C([H])(N([H])C([H])([H])[H])C([H])([H])[H])C(C([H])([H])[H])(C([H])([H])[H])C([H])([H])[H])C([H])(C(=O)N([H])C1([H])c3c([H])c([H])c([H])c([H])c3C([H])([H])C([H])([H])C1([H])[H])C2([H])[H]

$$$$
3:0:0
     RDKit          3D

 98105  0  0  1  0  0  0  0  0999 V2000
  -29.3670  -19.1930   20.5990 C   0  0  0  0  0  3  0  0  0  0  0  0
  -30.6550  -19.5790   21.3830 C   0  0  0  0  0  2  0  0  0  0  0  0
  -30.5430  -19.4280   22.9260 C   0  0  0  0  0  2  0  0  0  0  0  0
  -30.5110  -20.7400   23.6960 C   0  0  0  0  0  0  0  0  0  0  0  0
  -30.6270  -20.7140   25.0360 N   0  0  0  0  0  0  0  0  0  0  0  0
  -30.3290  -21.9250   23.0950 N   0  0  0  0  0  4  0  0  0  0  0  0
  -30.7550  -19.8400   25.5330 H   0  0  0  0  0  0  0  0  0  0  0  0
  -30.5860  -21.5480   25.6070 H   0  0  0  0  0  0  0  0  0  0  0  0
  -30.2510  -21.9790   22.0880 H   0  0  0  0  0  0  0  0  0  0  0  0
  -30.2370  -22.7990   23.5940 H   0  0  0  0  0  0  0  0  0  0  0  0
  -28.8250  -20.5280   19.7190 C   0  0  0  0  0  3  0  0  0  0  0  0
  -28.4690  -22.0620   20.3070 C   0  0  0  0  0  3  0  0  0  0  0  0
  -28.0860  -23.4070   19.3750 C   0  0  0  0  0  3  0  0  0  0  0  0
  -27.5790  -24.9010   19.9420 C   0  0  0  0  0  3  0  0  0  0  0  0
  -27.5970  -26.2640   19.2080 O   0  0  0  0  0  0  0  0  0  0  0  0
  -24.5260  -31.7500   23.0180 C   0  0  0  0  0  0  0  0  0  0  0  0
  -26.5700  -27.2490   19.3790 C   0  0  0  0  0  0  0  0  0  0  0  0
  -23.1020  -30.5480   21.4030 C   0  0  0  0  0  3  0  0  0  0  0  0
  -24.3240  -29.0470   19.7210 C   0  0  0  0  0  0  0  0  0  0  0  0
  -25.6350  -30.7460   20.9950 C   0  0  0  0  0  2  0  0  0  0  0  0
  -25.5790  -29.4130   20.2270 C   0  0  0  0  0  0  0  0  0  0  0  0
  -26.7010  -28.5320   20.0360 C   0  0  0  0  0  3  0  0  0  0  0  0
  -25.2940  -26.9730   18.8480 C   0  0  0  0  0  3  0  0  0  0  0  0
  -24.1920  -27.8400   19.0170 C   0  0  0  0  0  3  0  0  0  0  0  0
  -23.1490  -29.9780   19.9600 C   0  0  0  0  0  2  0  0  0  0  0  0
  -24.4470  -31.0310   21.8590 N   0  0  0  0  0  0  0  0  0  0  0  0
  -23.5110  -32.0350   23.6760 O   0  0  0  0  0  0  0  0  0  0  0  0
  -22.4790  -29.4900   22.3470 C   0  0  0  0  0  0  0  0  0  0  0  0
  -21.1490  -29.3060   22.2580 N   0  0  0  0  0  0  0  0  0  0  0  0
  -23.1900  -28.8350   23.1120 O   0  0  0  0  0  0  0  0  0  0  0  0
  -20.6340  -29.8830   21.6100 H   0  0  0  0  0  0  0  0  0  0  0  0
  -17.8170  -27.9920   22.7950 C   0  0  0  0  0  0  0  0  0  0  0  0
  -20.3720  -28.3260   23.0190 C   0  0  0  0  0  3  0  0  0  0  0  0
  -20.5050  -26.9160   22.4030 C   0  0  0  0  0  2  0  0  0  0  0  0
  -19.3940  -26.5830   21.4010 C   0  0  0  0  0  2  0  0  0  0  0  0
  -18.0200  -26.6680   22.0740 C   0  0  0  0  0  2  0  0  0  0  0  0
  -18.9210  -28.7780   23.2220 C   0  0  0  0  0  0  0  0  0  0  0  0
  -18.6780  -30.0140   23.8570 C   0  0  0  0  0  3  0  0  0  0  0  0
  -17.3630  -30.4710   24.0650 C   0  0  0  0  0  3  0  0  0  0  0  0
  -16.2720  -29.6840   23.6570 C   0  0  0  0  0  3  0  0  0  0  0  0
  -16.5010  -28.4460   23.0330 C   0  0  0  0  0  3  0  0  0  0  0  0
  -25.8890  -32.2820   23.5600 C   0  0  0  0  0  3  0  0  0  0  0  0
  -26.4960  -31.3860   24.7100 C   0  0  1  0  0  0  0  0  0  0  0  0
  -25.4900  -31.0510   25.8380 C   0  0  0  0  0  1  0  0  0  0  0  0
  -27.0260  -30.0460   24.1480 C   0  0  0  0  0  1  0  0  0  0  0  0
  -27.7090  -32.1030   25.3480 C   0  0  0  0  0  1  0  0  0  0  0  0
  -25.6770  -33.6560   24.0390 N   0  0  0  0  0  0  0  0  0  0  0  0
  -26.0100  -34.7650   23.3610 C   0  0  0  0  0  0  0  0  0  0  0  0
  -26.5930  -34.7300   22.2760 O   0  0  0  0  0  0  0  0  0  0  0  0
  -25.1650  -33.7580   24.9020 H   0  0  0  0  0  0  0  0  0  0  0  0
  -24.3570  -36.6610   23.3160 C   0  0  0  0  0  1  0  0  0  0  0  0
  -25.6300  -36.1210   23.9860 C   0  0  0  0  0  3  0  0  0  0  0  0
  -27.8630  -36.8120   24.7320 C   0  0  0  0  0  1  0  0  0  0  0  0
  -26.7060  -37.1310   23.9010 N   0  0  0  0  0  0  0  0  0  0  0  0
  -26.3630  -38.0470   24.1780 H   0  0  0  0  0  0  0  0  0  0  0  0
  -29.4980  -17.6590   19.9110 C   0  0  0  0  0  0  0  0  0  0  0  0
  -30.6980  -15.1920   20.4730 C   0  0  0  0  0  0  0  0  0  0  0  0
  -30.7250  -12.7770   19.7260 C   0  0  0  0  0  2  0  0  0  0  0  0
  -29.8620  -12.6580   18.4440 C   0  0  0  0  0  2  0  0  0  0  0  0
  -28.3720  -12.4640   18.7900 C   0  0  0  0  0  2  0  0  0  0  0  0
  -27.8970  -13.4370   19.9020 C   0  0  0  0  0  3  0  0  0  0  0  0
  -28.8860  -13.5030   21.0880 C   0  0  0  0  0  2  0  0  0  0  0  0
  -30.1870  -13.8990   20.5370 N   0  0  0  0  0  0  0  0  0  0  0  0
  -31.8770  -15.3340   20.1290 O   0  0  0  0  0  0  0  0  0  0  0  0
  -29.8120  -16.2840   20.6270 N   0  0  0  0  0  4  0  0  0  0  0  0
  -28.9730  -15.9490   21.0790 H   0  0  0  0  0  0  0  0  0  0  0  0
  -25.4970  -14.0320   20.5660 C   0  0  0  0  0  0  0  0  0  0  0  0
  -24.4140  -13.2620   20.8930 C   0  0  0  0  0  0  0  0  0  0  0  0
  -24.8630  -11.9060   20.8500 C   0  0  0  0  0  0  0  0  0  0  0  0
  -26.5360  -13.1440   20.3430 N   0  0  0  0  0  0  0  0  0  0  0  0
  -26.1620  -11.8580   20.5770 N   0  0  0  0  0  0  0  0  0  0  0  0
  -24.1170  -10.6530   20.9960 C   0  0  0  0  0  0  0  0  0  0  0  0
  -24.4640   -9.6910   21.9710 C   0  0  0  0  0  3  0  0  0  0  0  0
  -23.7170   -8.5010   22.1000 C   0  0  0  0  0  3  0  0  0  0  0  0
  -22.6090   -8.2620   21.2540 C   0  0  0  0  0  0  0  0  0  0  0  0
  -22.2810   -9.2140   20.2700 C   0  0  0  0  0  3  0  0  0  0  0  0
  -23.0270  -10.3970   20.1400 C   0  0  0  0  0  3  0  0  0  0  0  0
  -21.8390   -7.1240   21.2960 O   0  0  0  0  0  0  0  0  0  0  0  0
  -21.6210   -6.4410   22.4650 C   0  0  0  0  0  0  0  0  0  0  0  0
  -21.0180   -7.0510   23.5880 C   0  0  0  0  0  3  0  0  0  0  0  0
  -20.7520   -6.2930   24.7460 C   0  0  0  0  0  3  0  0  0  0  0  0
  -21.0780   -4.9240   24.7840 C   0  0  0  0  0  0  0  0  0  0  0  0
  -21.6670   -4.3120   23.6630 C   0  0  0  0  0  3  0  0  0  0  0  0
  -21.9390   -5.0680   22.5090 C   0  0  0  0  0  0  0  0  0  0  0  0
  -22.4900   -4.4690   21.4260 F   0  0  0  0  0  0  0  0  0  0  0  0
  -20.8210   -4.1900   25.8920 F   0  0  0  0  0  0  0  0  0  0  0  0
  -23.0180  -13.7550   21.1300 C   0  0  0  0  0  0  0  0  0  0  0  0
  -22.2690  -13.0770   21.9880 N   0  0  0  0  0  0  0  0  0  0  0  0
  -22.6030  -14.7800   20.5910 O   0  0  0  0  0  0  0  0  0  0  0  0
  -22.6070  -12.2410   22.4470 H   0  0  0  0  0  0  0  0  0  0  0  0
  -21.3390  -13.4060   22.1940 H   0  0  0  0  0  0  0  0  0  0  0  0
  -25.6820  -15.4030   20.4180 N   0  0  0  0  0  0  0  0  0  0  0  0
  -24.9200  -16.0650   20.5200 H   0  0  0  0  0  0  0  0  0  0  0  0
  -26.5160  -15.8340   20.0480 H   0  0  0  0  0  0  0  0  0  0  0  0
  -29.9980  -17.6460   18.4400 C   0  0  0  0  0  2  0  0  0  0  0  0
  -29.0070  -18.2840   17.4310 C   0  0  0  0  0  2  0  0  0  0  0  0
  -28.6520  -19.2110   15.0560 C   0  0  0  0  0  1  0  0  0  0  0  0
  -29.6320  -18.5550   16.0470 C   0  0  0  0  0  2  0  0  0  0  0  0
  1 11  1  0
  1  2  1  0
  2  3  1  0
  3  4  1  0
  4  5  1  0
  5  7  1  0
  5  8  1  0
  6 10  1  0
  6  4  2  0
  9  6  1  0
 11 12  2  0
 13 14  2  0
 13 12  1  0
 15 17  1  0
 15 14  1  0
 16 27  2  0
 17 22  1  0
 18 26  1  0
 18 28  1  0
 19 25  1  0
 19 21  1  0
 20 26  1  0
 21 20  1  0
 22 21  2  0
 23 24  1  0
 23 17  2  0
 24 19  2  0
 25 18  1  0
 26 16  1  0
 28 30  2  0
 29 28  1  0
 31 29  1  0
 32 41  2  0
 32 37  1  0
 33 29  1  0
 33 37  1  0
 34 33  1  0
 35 36  1  0
 35 34  1  0
 36 32  1  0
 37 38  2  0
 38 39  1  0
 40 39  2  0
 41 40  1  0
 42 16  1  0
 42 47  1  0
 42 43  1  0
 43 46  1  1
 43 44  1  0
 45 43  1  0
 47 50  1  0
 48 52  1  0
 48 47  1  0
 49 48  2  0
 52 51  1  0
 54 52  1  0
 54 55  1  0
 54 53  1  0
 56  1  1  0
 56 65  2  0
 57 63  1  0
 57 65  1  0
 58 63  1  0
 59 60  1  0
 59 58  1  0
 61 60  1  0
 61 70  1  0
 61 62  1  0
 63 62  1  0
 64 57  2  0
 65 66  1  0
 67 68  2  0
 68 87  1  0
 69 68  1  0
 69 72  1  0
 70 67  1  0
 70 71  1  0
 71 69  2  0
 72 73  1  0
 73 74  2  0
 75 78  1  0
 75 74  1  0
 76 75  2  0
 77 76  1  0
 77 72  2  0
 78 79  1  0
 79 84  2  0
 79 80  1  0
 80 81  2  0
 81 82  1  0
 82 86  1  0
 83 82  2  0
 84 83  1  0
 85 84  1  0
 87 88  1  0
 88 91  1  0
 88 90  1  0
 89 87  2  0
 92 93  1  0
 92 67  1  0
 94 92  1  0
 95 56  1  0
 96 95  1  0
 97 98  1  0
 98 96  1  0
M  ISO  4  14 101  15 101  57 100  65 100
M  END
>  <TORSDO>  (4) 
F 27

>  <SCORE>  (4) 
-10.397

>  <name>  (4) 
3

>  <ligand_id>  (4) 
3

>  <original_smiles>  (4) 
[H]c1c([H])c([H])c2c(c1[H])C([H])([H])C([H])([H])C([H])([H])C2([H])N([H])C(=O)C1([H])N(C(=O)C([H])(N([H])C(=O)C([H])(N([H])C([H])([H])[H])C([H])([H])[H])C(C([H])([H])[H])(C([H])([H])[H])C([H])([H])[H])C([H])([H])c2c([H])c(OC([H])([H])C([H])([H])C([H])([H])C([H])([H])C([H])(C([H])([H])C([H])([H])C(N([H])[H])=[N+]([H])[H])C([H])(N([H])C(=O)N3C([H])([H])C([H])([H])C([H])([H])C([H])(n4nc(-c5c([H])c([H])c(Oc6c([H])c([H])c(F)c([H])c6F)c([H])c5[H])c(C(=O)N([H])[H])c4N([H])[H])C3([H])[H])C([H])([H])C([H])([H])C([H])([H])C([H])([H])[H])c([H])c([H])c2C1([H])[H]

>  <smiles>  (4) 
[H]c1c([H])c([H])c2c(c1[H])C([H])([H])C([H])([H])C([H])([H])C2([H])N([H])C(=O)C1([H])N(C(=O)C([H])(N([H])C(=O)C([H])(N([H])C([H])([H])[H])C([H])([H])[H])C(C([H])([H])[H])(C([H])([H])[H])C([H])([H])[H])C([H])([H])c2c([H])c(OC([H])([H])C([H])([H])C([H])([H])C([H])([H])C([H])(C([H])([H])C([H])([H])C(N([H])[H])=[N+]([H])[H])C([H])(N([H])C(=O)N3C([H])([H])C([H])([H])C([H])([H])C([H])(n4nc(-c5c([H])c([H])c(Oc6c([H])c([H])c(F)c([H])c6F)c([H])c5[H])c(C(=O)N([H])[H])c4N([H])[H])C3([H])[H])C([H])([H])C([H])([H])C([H])([H])C([H])([H])[H])c([H])c([H])c2C1([H])[H]

$$$$
4:0:0
     RDKit          3D

 98106  0  0  1  0  0  0  0  0999 V2000
  -30.5630  -19.5950   16.6070 C   0  0  0  0  0  2  0  0  0  0  0  0
  -31.2550  -18.2450   16.6930 C   0  0  0  0  0  2  0  0  0  0  0  0
  -31.0030  -20.4820   17.7670 C   0  0  0  0  0  2  0  0  0  0  0  0
  -30.9850  -17.5970   18.0580 C   0  0  0  0  0  2  0  0  0  0  0  0
  -30.7150  -19.9080   19.1930 C   0  0  0  0  0  3  0  0  0  0  0  0
  -31.4970  -18.4350   19.2720 C   0  0  0  0  0  3  0  0  0  0  0  0
  -30.9300  -21.2220   20.0950 C   0  0  0  0  0  0  0  0  0  0  0  0
  -30.0740  -22.3040   19.9340 N   0  0  0  0  0  0  0  0  0  0  0  0
  -31.9130  -21.2940   20.8360 O   0  0  0  0  0  0  0  0  0  0  0  0
  -29.2820  -22.1090   19.3360 H   0  0  0  0  0  0  0  0  0  0  0  0
  -30.2110  -23.7830   20.3050 C   0  0  0  0  0  3  0  0  0  0  0  0
  -29.0320  -24.8050   19.8580 C   0  0  0  0  0  3  0  0  0  0  0  0
  -29.0580  -26.2810   20.1660 O   0  0  0  0  0  0  0  0  0  0  0  0
  -24.8030  -31.3400   23.1440 C   0  0  0  0  0  0  0  0  0  0  0  0
  -27.8790  -27.0650   20.0700 C   0  0  0  0  0  0  0  0  0  0  0  0
  -23.7720  -29.9040   21.4210 C   0  0  0  0  0  3  0  0  0  0  0  0
  -25.3900  -28.5110   20.0040 C   0  0  0  0  0  0  0  0  0  0  0  0
  -26.2860  -30.4160   21.3450 C   0  0  0  0  0  2  0  0  0  0  0  0
  -26.4960  -29.0700   20.6520 C   0  0  0  0  0  0  0  0  0  0  0  0
  -27.7370  -28.3580   20.6760 C   0  0  0  0  0  3  0  0  0  0  0  0
  -26.7450  -26.5780   19.3780 C   0  0  0  0  0  3  0  0  0  0  0  0
  -25.5160  -27.2720   19.3550 C   0  0  0  0  0  3  0  0  0  0  0  0
  -24.0830  -29.2820   20.0350 C   0  0  0  0  0  2  0  0  0  0  0  0
  -24.9690  -30.5740   22.0240 N   0  0  0  0  0  0  0  0  0  0  0  0
  -23.6810  -31.5160   23.6470 O   0  0  0  0  0  0  0  0  0  0  0  0
  -23.1550  -28.8150   22.3340 C   0  0  0  0  0  0  0  0  0  0  0  0
  -21.8670  -28.4970   22.1110 N   0  0  0  0  0  0  0  0  0  0  0  0
  -23.8360  -28.2600   23.1990 O   0  0  0  0  0  0  0  0  0  0  0  0
  -21.3730  -28.9950   21.3850 H   0  0  0  0  0  0  0  0  0  0  0  0
  -18.6290  -26.8900   22.3340 C   0  0  0  0  0  0  0  0  0  0  0  0
  -21.1040  -27.4670   22.8190 C   0  0  0  0  0  3  0  0  0  0  0  0
  -21.4290  -26.0570   22.2690 C   0  0  0  0  0  2  0  0  0  0  0  0
  -20.4670  -25.6030   21.1670 C   0  0  0  0  0  2  0  0  0  0  0  0
  -19.0280  -25.5750   21.6870 C   0  0  0  0  0  2  0  0  0  0  0  0
  -19.6030  -27.7870   22.8490 C   0  0  0  0  0  0  0  0  0  0  0  0
  -19.1780  -29.0140   23.4030 C   0  0  0  0  0  3  0  0  0  0  0  0
  -17.8120  -29.3490   23.4490 C   0  0  0  0  0  3  0  0  0  0  0  0
  -16.8520  -28.4520   22.9480 C   0  0  0  0  0  3  0  0  0  0  0  0
  -17.2620  -27.2230   22.4020 C   0  0  0  0  0  3  0  0  0  0  0  0
  -26.0060  -32.0520   23.8330 C   0  0  0  0  0  3  0  0  0  0  0  0
  -25.5890  -33.4280   24.1460 N   0  0  0  0  0  0  0  0  0  0  0  0
  -25.8920  -34.5010   23.4050 C   0  0  0  0  0  0  0  0  0  0  0  0
  -26.6230  -34.4430   22.4120 O   0  0  0  0  0  0  0  0  0  0  0  0
  -24.9340  -33.5340   24.9070 H   0  0  0  0  0  0  0  0  0  0  0  0
  -24.0740  -36.1840   22.9600 C   0  0  0  0  0  1  0  0  0  0  0  0
  -25.2960  -35.8570   23.8350 C   0  0  0  0  0  3  0  0  0  0  0  0
  -27.3280  -36.8720   24.7720 C   0  0  0  0  0  1  0  0  0  0  0  0
  -26.2680  -36.9720   23.7730 N   0  0  0  0  0  0  0  0  0  0  0  0
  -25.7980  -37.8670   23.8940 H   0  0  0  0  0  0  0  0  0  0  0  0
  -26.4960  -31.3140   25.1410 C   0  0  1  0  0  0  0  0  0  0  0  0
  -25.3670  -31.0090   26.1540 C   0  0  0  0  0  1  0  0  0  0  0  0
  -27.1800  -29.9720   24.7910 C   0  0  0  0  0  1  0  0  0  0  0  0
  -27.5600  -32.1800   25.8580 C   0  0  0  0  0  1  0  0  0  0  0  0
  -31.5870  -17.4240   20.5520 C   0  0  0  0  0  3  0  0  0  0  0  0
  -32.2020  -14.7550   20.1290 C   0  0  0  0  0  0  0  0  0  0  0  0
  -31.8030  -12.5070   19.0830 C   0  0  0  0  0  2  0  0  0  0  0  0
  -30.8720  -12.7010   17.8610 C   0  0  0  0  0  2  0  0  0  0  0  0
  -29.3860  -12.7160   18.2750 C   0  0  0  0  0  2  0  0  0  0  0  0
  -29.1170  -13.6240   19.5030 C   0  0  0  0  0  3  0  0  0  0  0  0
  -30.1460  -13.3580   20.6230 C   0  0  0  0  0  2  0  0  0  0  0  0
  -31.4810  -13.5830   20.0510 N   0  0  0  0  0  0  0  0  0  0  0  0
  -33.3910  -14.7880   19.8010 O   0  0  0  0  0  0  0  0  0  0  0  0
  -31.4490  -15.8910   20.3880 N   0  0  0  0  0  0  0  0  0  0  0  0
  -30.5090  -15.5890   20.5920 H   0  0  0  0  0  0  0  0  0  0  0  0
  -26.8160  -14.5150   20.1990 C   0  0  0  0  0  0  0  0  0  0  0  0
  -25.6570  -13.8860   20.5580 C   0  0  0  0  0  0  0  0  0  0  0  0
  -25.9440  -12.4860   20.5390 C   0  0  0  0  0  0  0  0  0  0  0  0
  -27.7420  -13.5090   19.9740 N   0  0  0  0  0  0  0  0  0  0  0  0
  -27.2210  -12.2830   20.2400 N   0  0  0  0  0  0  0  0  0  0  0  0
  -25.0620  -11.3280   20.7360 C   0  0  0  0  0  0  0  0  0  0  0  0
  -25.3220  -10.3700   21.7390 C   0  0  0  0  0  3  0  0  0  0  0  0
  -24.4560   -9.2700   21.9260 C   0  0  0  0  0  3  0  0  0  0  0  0
  -23.3100   -9.1220   21.1060 C   0  0  0  0  0  0  0  0  0  0  0  0
  -23.0640  -10.0720   20.0980 C   0  0  0  0  0  3  0  0  0  0  0  0
  -23.9290  -11.1640   19.9130 C   0  0  0  0  0  3  0  0  0  0  0  0
  -22.4250   -8.0750   21.1960 O   0  0  0  0  0  0  0  0  0  0  0  0
  -22.1510   -7.4650   22.3940 C   0  0  0  0  0  0  0  0  0  0  0  0
  -21.6570   -8.1860   23.5040 C   0  0  0  0  0  3  0  0  0  0  0  0
  -21.3280   -7.5040   24.6930 C   0  0  0  0  0  3  0  0  0  0  0  0
  -21.4760   -6.1080   24.7700 C   0  0  0  0  0  0  0  0  0  0  0  0
  -21.9650   -5.3890   23.6670 C   0  0  0  0  0  3  0  0  0  0  0  0
  -22.3020   -6.0660   22.4810 C   0  0  0  0  0  0  0  0  0  0  0  0
  -22.7490   -5.3650   21.4110 F   0  0  0  0  0  0  0  0  0  0  0  0
  -21.1520   -5.4540   25.9110 F   0  0  0  0  0  0  0  0  0  0  0  0
  -24.3300  -14.5360   20.8030 C   0  0  0  0  0  0  0  0  0  0  0  0
  -23.5280  -13.9580   21.6860 N   0  0  0  0  0  0  0  0  0  0  0  0
  -24.0180  -15.5890   20.2480 O   0  0  0  0  0  0  0  0  0  0  0  0
  -23.8070  -13.1080   22.1470 H   0  0  0  0  0  0  0  0  0  0  0  0
  -22.6300  -14.3650   21.8980 H   0  0  0  0  0  0  0  0  0  0  0  0
  -27.1630  -15.8490   20.0230 N   0  0  0  0  0  0  0  0  0  0  0  0
  -26.4820  -16.5940   20.1320 H   0  0  0  0  0  0  0  0  0  0  0  0
  -28.0500  -16.1630   19.6530 H   0  0  0  0  0  0  0  0  0  0  0  0
  -30.5560  -17.8130   21.6650 C   0  0  0  0  0  2  0  0  0  0  0  0
  -30.8330  -19.1040   22.4620 C   0  0  0  0  0  0  0  0  0  0  0  0
  -29.8340  -19.9690   22.6200 N   0  0  0  0  0  0  0  0  0  0  0  0
  -31.9280  -19.3020   22.9850 O   0  0  0  0  0  0  0  0  0  0  0  0
  -28.9130  -19.7840   22.2480 H   0  0  0  0  0  0  0  0  0  0  0  0
  -29.9770  -20.8130   23.1610 H   0  0  0  0  0  0  0  0  0  0  0  0
  1  2  1  0
  1  3  1  0
  2  4  1  0
  3  5  1  0
  4  6  1  0
  5  6  1  0
  5  7  1  0
  6 54  1  0
  7  9  2  0
  8  7  1  0
  8 11  1  0
 10  8  1  0
 12 13  1  0
 12 11  2  0
 14 25  2  0
 15 13  1  0
 15 20  1  0
 16 24  1  0
 16 26  1  0
 17 23  1  0
 17 19  1  0
 18 24  1  0
 19 20  2  0
 19 18  1  0
 21 15  2  0
 22 21  1  0
 22 17  2  0
 23 16  1  0
 24 14  1  0
 26 28  2  0
 27 26  1  0
 29 27  1  0
 30 39  2  0
 30 35  1  0
 31 27  1  0
 31 35  1  0
 32 31  1  0
 33 34  1  0
 33 32  1  0
 34 30  1  0
 35 36  2  0
 36 37  1  0
 38 37  2  0
 39 38  1  0
 40 14  1  0
 40 41  1  0
 40 50  1  0
 41 44  1  0
 42 46  1  0
 42 41  1  0
 43 42  2  0
 46 45  1  0
 48 46  1  0
 48 49  1  0
 48 47  1  0
 50 53  1  1
 50 51  1  0
 52 50  1  0
 54 93  1  0
 55 63  1  0
 56 61  1  0
 57 58  1  0
 57 56  1  0
 59 58  1  0
 59 68  1  0
 59 60  1  0
 61 55  1  0
 61 60  1  0
 62 55  2  0
 63 54  1  0
 63 64  1  0
 65 66  2  0
 66 85  1  0
 67 66  1  0
 67 70  1  0
 68 65  1  0
 68 69  1  0
 69 67  2  0
 70 71  1  0
 71 72  2  0
 73 76  1  0
 73 72  1  0
 74 73  2  0
 75 74  1  0
 75 70  2  0
 76 77  1  0
 77 82  2  0
 77 78  1  0
 78 79  2  0
 79 80  1  0
 80 84  1  0
 81 80  2  0
 82 81  1  0
 83 82  1  0
 85 86  1  0
 86 89  1  0
 86 88  1  0
 87 85  2  0
 90 91  1  0
 90 65  1  0
 92 90  1  0
 93 94  1  0
 94 95  1  0
 94 96  2  0
 95 98  1  0
 97 95  1  0
M  ISO  4  12 101  13 101  55 100  63 100
M  END
>  <TORSDO>  (5) 
F 22

>  <SCORE>  (5) 
-9.840

>  <name>  (5) 
4

>  <ligand_id>  (5) 
4

>  <original_smiles>  (5) 
[H]c1c([H])c([H])c2c(c1[H])C([H])([H])C([H])([H])C([H])([H])C2([H])N([H])C(=O)C1([H])N(C(=O)C([H])(N([H])C(=O)C([H])(N([H])C([H])([H])[H])C([H])([H])[H])C(C([H])([H])[H])(C([H])([H])[H])C([H])([H])[H])C([H])([H])c2c([H])c(OC([H])([H])C([H])([H])N([H])C(=O)C3([H])C([H])([H])C([H])([H])C([H])([H])C([H])([H])C3([H])C([H])(N([H])C(=O)N3C([H])([H])C([H])([H])C([H])([H])C([H])(n4nc(-c5c([H])c([H])c(Oc6c([H])c([H])c(F)c([H])c6F)c([H])c5[H])c(C(=O)N([H])[H])c4N([H])[H])C3([H])[H])C([H])([H])C(=O)N([H])[H])c([H])c([H])c2C1([H])[H]

>  <smiles>  (5) 
[H]c1c([H])c([H])c2c(c1[H])C([H])([H])C([H])([H])C([H])([H])C2([H])N([H])C(=O)C1([H])N(C(=O)C([H])(N([H])C(=O)C([H])(N([H])C([H])([H])[H])C([H])([H])[H])C(C([H])([H])[H])(C([H])([H])[H])C([H])([H])[H])C([H])([H])c2c([H])c(OC([H])([H])C([H])([H])N([H])C(=O)C3([H])C([H])([H])C([H])([H])C([H])([H])C([H])([H])C3([H])C([H])(N([H])C(=O)N3C([H])([H])C([H])([H])C([H])([H])C([H])(n4nc(-c5c([H])c([H])c(Oc6c([H])c([H])c(F)c([H])c6F)c([H])c5[H])c(C(=O)N([H])[H])c4N([H])[H])C3([H])[H])C([H])([H])C(=O)N([H])[H])c([H])c([H])c2C1([H])[H]

$$$$
5:0:0
     RDKit          3D

 95102  0  0  1  0  0  0  0  0999 V2000
  -29.3210  -21.9820   20.0850 C   0  0  0  0  0  3  0  0  0  0  0  0
  -28.6860  -20.5520   19.7880 N   0  0  0  0  0  4  0  0  0  0  0  0
  -27.7200  -20.6940   20.0340 H   0  0  0  0  0  0  0  0  0  0  0  0
  -28.6950  -20.4610   18.7860 H   0  0  0  0  0  0  0  0  0  0  0  0
  -29.0150  -19.1050   20.3990 C   0  0  0  0  0  2  0  0  0  0  0  0
  -29.7480  -17.7740   19.6210 C   0  0  0  0  0  3  0  0  0  0  0  0
  -30.3700  -15.0510   19.9290 C   0  0  0  0  0  0  0  0  0  0  0  0
  -30.2330  -12.6690   19.0680 C   0  0  0  0  0  2  0  0  0  0  0  0
  -29.2430  -12.5800   17.8830 C   0  0  0  0  0  2  0  0  0  0  0  0
  -27.8160  -12.3360   18.4020 C   0  0  0  0  0  2  0  0  0  0  0  0
  -27.4460  -13.2800   19.5740 C   0  0  0  0  0  3  0  0  0  0  0  0
  -28.5580  -13.3590   20.6420 C   0  0  0  0  0  2  0  0  0  0  0  0
  -29.7870  -13.7820   19.9610 N   0  0  0  0  0  0  0  0  0  0  0  0
  -31.5410  -15.0920   19.5430 O   0  0  0  0  0  0  0  0  0  0  0  0
  -29.6060  -16.2510   20.1100 N   0  0  0  0  0  0  0  0  0  0  0  0
  -28.6920  -16.0500   20.4900 H   0  0  0  0  0  0  0  0  0  0  0  0
  -25.1170  -13.8080   20.4930 C   0  0  0  0  0  0  0  0  0  0  0  0
  -24.0890  -13.0070   20.9120 C   0  0  0  0  0  0  0  0  0  0  0  0
  -24.5650  -11.6650   20.8090 C   0  0  0  0  0  0  0  0  0  0  0  0
  -26.1500  -12.9510   20.1560 N   0  0  0  0  0  0  0  0  0  0  0  0
  -25.8320  -11.6550   20.4100 N   0  0  0  0  0  0  0  0  0  0  0  0
  -23.8640  -10.3890   21.0050 C   0  0  0  0  0  0  0  0  0  0  0  0
  -24.3430   -9.4140   21.9080 C   0  0  0  0  0  3  0  0  0  0  0  0
  -23.6370   -8.2070   22.0970 C   0  0  0  0  0  3  0  0  0  0  0  0
  -22.4400   -7.9640   21.3820 C   0  0  0  0  0  0  0  0  0  0  0  0
  -21.9800   -8.9300   20.4690 C   0  0  0  0  0  3  0  0  0  0  0  0
  -22.6850  -10.1290   20.2790 C   0  0  0  0  0  3  0  0  0  0  0  0
  -21.7020   -6.8090   21.4820 O   0  0  0  0  0  0  0  0  0  0  0  0
  -21.6750   -6.0710   22.6380 C   0  0  0  0  0  0  0  0  0  0  0  0
  -21.2640   -6.6290   23.8690 C   0  0  0  0  0  3  0  0  0  0  0  0
  -21.1810   -5.8160   25.0160 C   0  0  0  0  0  3  0  0  0  0  0  0
  -21.5020   -4.4480   24.9370 C   0  0  0  0  0  0  0  0  0  0  0  0
  -21.9020   -3.8880   23.7120 C   0  0  0  0  0  3  0  0  0  0  0  0
  -21.9850   -4.6980   22.5640 C   0  0  0  0  0  0  0  0  0  0  0  0
  -22.3550   -4.1500   21.3810 F   0  0  0  0  0  0  0  0  0  0  0  0
  -21.4140   -3.6660   26.0380 F   0  0  0  0  0  0  0  0  0  0  0  0
  -22.7090  -13.4610   21.2890 C   0  0  0  0  0  0  0  0  0  0  0  0
  -22.0550  -12.7410   22.1920 N   0  0  0  0  0  0  0  0  0  0  0  0
  -22.2260  -14.4900   20.8210 O   0  0  0  0  0  0  0  0  0  0  0  0
  -22.4590  -11.9050   22.5880 H   0  0  0  0  0  0  0  0  0  0  0  0
  -21.1330  -13.0280   22.4910 H   0  0  0  0  0  0  0  0  0  0  0  0
  -25.2510  -15.1850   20.3450 N   0  0  0  0  0  0  0  0  0  0  0  0
  -24.4720  -15.8140   20.5020 H   0  0  0  0  0  0  0  0  0  0  0  0
  -26.0540  -15.6470   19.9370 H   0  0  0  0  0  0  0  0  0  0  0  0
  -31.2440  -18.1110   19.3870 C   0  0  0  0  0  2  0  0  0  0  0  0
  -32.0020  -18.5250   20.6650 C   0  0  0  0  0  2  0  0  0  0  0  0
  -34.0480  -19.6760   21.6250 C   0  0  0  0  0  1  0  0  0  0  0  0
  -33.4470  -18.9710   20.4030 C   0  0  0  0  0  2  0  0  0  0  0  0
  -31.8510  -22.2250   19.7800 C   0  0  0  0  0  1  0  0  0  0  0  0
  -30.4770  -21.3950   17.7890 C   0  0  0  0  0  1  0  0  0  0  0  0
  -30.4860  -22.2560   19.0760 C   0  0  0  0  0  3  0  0  0  0  0  0
  -28.3400  -23.3820   20.3260 C   0  0  0  0  0  0  0  0  0  0  0  0
  -27.4070  -23.2760   21.1290 O   0  0  0  0  0  0  0  0  0  0  0  0
  -28.4740  -24.8940   19.6100 C   0  0  0  0  0  2  0  0  0  0  0  0
  -28.2850  -26.2820   20.3080 O   0  0  0  0  0  0  0  0  0  0  0  0
  -24.5990  -31.9330   23.2210 C   0  0  0  0  0  0  0  0  0  0  0  0
  -27.2160  -27.2420   20.1650 C   0  0  0  0  0  0  0  0  0  0  0  0
  -23.4040  -30.5180   21.5940 C   0  0  0  0  0  3  0  0  0  0  0  0
  -24.8610  -28.9610   20.1420 C   0  0  0  0  0  0  0  0  0  0  0  0
  -25.9480  -30.8130   21.4030 C   0  0  0  0  0  2  0  0  0  0  0  0
  -26.0330  -29.4220   20.7510 C   0  0  0  0  0  0  0  0  0  0  0  0
  -27.2030  -28.5710   20.7580 C   0  0  0  0  0  3  0  0  0  0  0  0
  -26.0190  -26.8830   19.5090 C   0  0  0  0  0  3  0  0  0  0  0  0
  -24.8670  -27.7060   19.5030 C   0  0  0  0  0  3  0  0  0  0  0  0
  -23.6150  -29.8360   20.2120 C   0  0  0  0  0  2  0  0  0  0  0  0
  -24.6720  -31.1140   22.1280 N   0  0  0  0  0  0  0  0  0  0  0  0
  -23.5150  -32.2070   23.7580 O   0  0  0  0  0  0  0  0  0  0  0  0
  -22.7420  -29.5120   22.5640 C   0  0  0  0  0  0  0  0  0  0  0  0
  -21.4160  -29.3220   22.4470 N   0  0  0  0  0  0  0  0  0  0  0  0
  -23.4240  -28.8970   23.3880 O   0  0  0  0  0  0  0  0  0  0  0  0
  -20.9240  -29.8640   21.7500 H   0  0  0  0  0  0  0  0  0  0  0  0
  -18.0570  -28.0680   22.9640 C   0  0  0  0  0  0  0  0  0  0  0  0
  -20.6140  -28.3770   23.2250 C   0  0  0  0  0  3  0  0  0  0  0  0
  -20.7410  -26.9450   22.6580 C   0  0  0  0  0  2  0  0  0  0  0  0
  -19.6430  -26.6000   21.6490 C   0  0  0  0  0  2  0  0  0  0  0  0
  -18.2580  -26.7210   22.2930 C   0  0  0  0  0  2  0  0  0  0  0  0
  -19.1640  -28.8530   23.3860 C   0  0  0  0  0  0  0  0  0  0  0  0
  -18.9240  -30.1110   23.9780 C   0  0  0  0  0  3  0  0  0  0  0  0
  -17.6120  -30.5920   24.1470 C   0  0  0  0  0  3  0  0  0  0  0  0
  -16.5190  -29.8050   23.7400 C   0  0  0  0  0  3  0  0  0  0  0  0
  -16.7440  -28.5450   23.1550 C   0  0  0  0  0  3  0  0  0  0  0  0
  -25.8750  -32.5850   23.8370 C   0  0  0  0  0  3  0  0  0  0  0  0
  -26.4050  -31.8190   25.1100 C   0  0  1  0  0  0  0  0  0  0  0  0
  -25.3190  -31.5610   26.1840 C   0  0  0  0  0  1  0  0  0  0  0  0
  -27.0030  -30.4500   24.7140 C   0  0  0  0  0  1  0  0  0  0  0  0
  -27.5540  -32.6230   25.7640 C   0  0  0  0  0  1  0  0  0  0  0  0
  -25.5470  -33.9790   24.1780 N   0  0  0  0  0  0  0  0  0  0  0  0
  -25.8620  -35.0440   23.4310 C   0  0  0  0  0  0  0  0  0  0  0  0
  -26.5300  -34.9580   22.3970 O   0  0  0  0  0  0  0  0  0  0  0  0
  -24.9420  -34.1180   24.9740 H   0  0  0  0  0  0  0  0  0  0  0  0
  -24.1070  -36.8190   23.1180 C   0  0  0  0  0  1  0  0  0  0  0  0
  -25.3650  -36.4270   23.9050 C   0  0  0  0  0  3  0  0  0  0  0  0
  -27.5060  -37.3260   24.7050 C   0  0  0  0  0  1  0  0  0  0  0  0
  -26.3850  -37.4920   23.7820 N   0  0  0  0  0  0  0  0  0  0  0  0
  -25.9750  -38.4080   23.9420 H   0  0  0  0  0  0  0  0  0  0  0  0
  1 51  1  0
  1 52  1  0
  2  3  1  0
  2  1  1  0
  2  5  1  0
  4  2  1  0
  6 45  1  0
  6 15  1  0
  6  5  1  0
  7 13  1  0
  7 15  1  0
  8 13  1  0
  9 10  1  0
  9  8  1  0
 11 10  1  0
 11 20  1  0
 11 12  1  0
 13 12  1  0
 14  7  2  0
 15 16  1  0
 17 18  2  0
 18 37  1  0
 19 18  1  0
 19 22  1  0
 20 21  1  0
 20 17  1  0
 21 19  2  0
 22 23  1  0
 23 24  2  0
 25 28  1  0
 25 24  1  0
 26 25  2  0
 27 26  1  0
 27 22  2  0
 28 29  1  0
 29 30  1  0
 30 31  2  0
 32 31  1  0
 32 36  1  0
 33 32  2  0
 34 29  2  0
 34 33  1  0
 35 34  1  0
 37 38  1  0
 38 41  1  0
 38 40  1  0
 39 37  2  0
 42 17  1  0
 42 43  1  0
 44 42  1  0
 45 46  1  0
 48 46  1  0
 48 47  1  0
 50 51  1  0
 51 49  1  0
 52 53  2  0
 54 55  1  0
 54 52  1  0
 56 67  2  0
 57 55  1  0
 57 62  1  0
 58 66  1  0
 58 68  1  0
 59 65  1  0
 59 61  1  0
 60 66  1  0
 61 62  2  0
 61 60  1  0
 63 57  2  0
 64 63  1  0
 64 59  2  0
 65 58  1  0
 66 56  1  0
 68 70  2  0
 69 68  1  0
 71 69  1  0
 72 81  2  0
 72 77  1  0
 73 69  1  0
 73 77  1  0
 74 73  1  0
 75 76  1  0
 75 74  1  0
 76 72  1  0
 77 78  2  0
 78 79  1  0
 80 79  2  0
 81 80  1  0
 82 56  1  0
 82 87  1  0
 82 83  1  0
 83 86  1  1
 83 84  1  0
 85 83  1  0
 87 90  1  0
 88 92  1  0
 88 87  1  0
 89 88  2  0
 92 91  1  0
 94 92  1  0
 94 95  1  0
 94 93  1  0
M  ISO  4   7 100  15 100  54 101  55 101
M  END
>  <TORSDO>  (6) 
F 25

>  <SCORE>  (6) 
-13.122

>  <name>  (6) 
5

>  <ligand_id>  (6) 
5

>  <original_smiles>  (6) 
[H]c1c([H])c([H])c2c(c1[H])C([H])([H])C([H])([H])C([H])([H])C2([H])N([H])C(=O)C1([H])N(C(=O)C([H])(N([H])C(=O)C([H])(N([H])C([H])([H])[H])C([H])([H])[H])C(C([H])([H])[H])(C([H])([H])[H])C([H])([H])[H])C([H])([H])c2c([H])c(OC([H])([H])C(=O)C([H])(C([H])(C([H])([H])[H])C([H])([H])[H])[N+]([H])([H])C([H])([H])C([H])(N([H])C(=O)N3C([H])([H])C([H])([H])C([H])([H])C([H])(n4nc(-c5c([H])c([H])c(Oc6c([H])c([H])c(F)c([H])c6F)c([H])c5[H])c(C(=O)N([H])[H])c4N([H])[H])C3([H])[H])C([H])([H])C([H])([H])C([H])([H])C([H])([H])[H])c([H])c([H])c2C1([H])[H]

>  <smiles>  (6) 
[H]c1c([H])c([H])c2c(c1[H])C([H])([H])C([H])([H])C([H])([H])C2([H])N([H])C(=O)C1([H])N(C(=O)C([H])(N([H])C(=O)C([H])(N([H])C([H])([H])[H])C([H])([H])[H])C(C([H])([H])[H])(C([H])([H])[H])C([H])([H])[H])C([H])([H])c2c([H])c(OC([H])([H])C(=O)C([H])(C([H])(C([H])([H])[H])C([H])([H])[H])[N+]([H])([H])C([H])([H])C([H])(N([H])C(=O)N3C([H])([H])C([H])([H])C([H])([H])C([H])(n4nc(-c5c([H])c([H])c(Oc6c([H])c([H])c(F)c([H])c6F)c([H])c5[H])c(C(=O)N([H])[H])c4N([H])[H])C3([H])[H])C([H])([H])C([H])([H])C([H])([H])C([H])([H])[H])c([H])c([H])c2C1([H])[H]

$$$$
6:0:0
     RDKit          3D

 99107  0  0  1  0  0  0  0  0999 V2000
  -27.9380  -18.8880   20.7210 C   0  0  0  0  0  3  0  0  0  0  0  0
  -29.3560  -16.8420   21.0280 C   0  0  0  0  0  0  0  0  0  0  0  0
  -29.1060  -18.0240   20.4210 N   0  0  0  0  0  0  0  0  0  0  0  0
  -28.5950  -16.3800   21.8820 O   0  0  0  0  0  0  0  0  0  0  0  0
  -29.7740  -18.3610   19.7410 H   0  0  0  0  0  0  0  0  0  0  0  0
  -30.6150  -16.0220   20.6640 C   0  0  0  0  0  2  0  0  0  0  0  0
  -31.3690  -13.6700   21.2940 C   0  0  0  0  0  0  0  0  0  0  0  0
  -31.4870  -11.2240   20.9560 C   0  0  0  0  0  2  0  0  0  0  0  0
  -31.0120  -10.9270   19.5160 C   0  0  0  0  0  2  0  0  0  0  0  0
  -29.4750  -10.7960   19.4520 C   0  0  0  0  0  2  0  0  0  0  0  0
  -28.7510  -11.9680   20.1650 C   0  0  0  0  0  3  0  0  0  0  0  0
  -29.3520  -12.1940   21.5710 C   0  0  0  0  0  2  0  0  0  0  0  0
  -30.7980  -12.4400   21.4100 N   0  0  0  0  0  0  0  0  0  0  0  0
  -32.5780  -13.8430   21.1140 O   0  0  0  0  0  0  0  0  0  0  0  0
  -30.4770  -14.6720   21.2250 N   0  0  0  0  0  0  0  0  0  0  0  0
  -29.5210  -14.4310   21.4460 H   0  0  0  0  0  0  0  0  0  0  0  0
  -26.2860  -12.5020   19.6620 C   0  0  0  0  0  0  0  0  0  0  0  0
  -25.1250  -11.8400   19.9650 C   0  0  0  0  0  0  0  0  0  0  0  0
  -25.5170  -10.6870   20.7120 C   0  0  0  0  0  0  0  0  0  0  0  0
  -27.3070  -11.7550   20.2250 N   0  0  0  0  0  0  0  0  0  0  0  0
  -26.8290  -10.6850   20.9050 N   0  0  0  0  0  0  0  0  0  0  0  0
  -24.7230   -9.5540   21.2020 C   0  0  0  0  0  0  0  0  0  0  0  0
  -24.6340   -9.2600   22.5800 C   0  0  0  0  0  3  0  0  0  0  0  0
  -23.8520   -8.1750   23.0310 C   0  0  0  0  0  3  0  0  0  0  0  0
  -23.1460   -7.3760   22.1010 C   0  0  0  0  0  0  0  0  0  0  0  0
  -23.2550   -7.6610   20.7280 C   0  0  0  0  0  3  0  0  0  0  0  0
  -24.0390   -8.7380   20.2800 C   0  0  0  0  0  3  0  0  0  0  0  0
  -22.3840   -6.2850   22.4430 O   0  0  0  0  0  0  0  0  0  0  0  0
  -21.5660   -6.2980   23.5450 C   0  0  0  0  0  0  0  0  0  0  0  0
  -20.5800   -7.2920   23.7300 C   0  0  0  0  0  3  0  0  0  0  0  0
  -19.7170   -7.2280   24.8430 C   0  0  0  0  0  3  0  0  0  0  0  0
  -19.8300   -6.1680   25.7630 C   0  0  0  0  0  0  0  0  0  0  0  0
  -20.8080   -5.1750   25.5760 C   0  0  0  0  0  3  0  0  0  0  0  0
  -21.6730   -5.2390   24.4690 C   0  0  0  0  0  0  0  0  0  0  0  0
  -22.5990   -4.2680   24.2830 F   0  0  0  0  0  0  0  0  0  0  0  0
  -18.9960   -6.1020   26.8270 F   0  0  0  0  0  0  0  0  0  0  0  0
  -23.7420  -12.1960   19.5010 C   0  0  0  0  0  0  0  0  0  0  0  0
  -22.7320  -11.9320   20.3240 N   0  0  0  0  0  0  0  0  0  0  0  0
  -23.5510  -12.7460   18.4190 O   0  0  0  0  0  0  0  0  0  0  0  0
  -22.8900  -11.4990   21.2210 H   0  0  0  0  0  0  0  0  0  0  0  0
  -21.7900  -12.1680   20.0470 H   0  0  0  0  0  0  0  0  0  0  0  0
  -26.5610  -13.6550   18.9400 N   0  0  0  0  0  0  0  0  0  0  0  0
  -25.8250  -14.2160   18.5280 H   0  0  0  0  0  0  0  0  0  0  0  0
  -27.4840  -14.0340   18.7820 H   0  0  0  0  0  0  0  0  0  0  0  0
  -27.2120  -21.2660   21.2210 C   0  0  0  0  0  1  0  0  0  0  0  0
  -28.0610  -20.3920   20.2580 C   0  0  0  0  0  3  0  0  0  0  0  0
  -29.4760  -20.9980   20.0090 C   0  0  0  0  0  2  0  0  0  0  0  0
  -29.4560  -22.5570   20.1220 C   0  0  0  0  0  2  0  0  0  0  0  0
  -30.0690  -23.4260   17.8130 C   0  0  0  0  0  1  0  0  0  0  0  0
  -30.4370  -23.4380   19.3070 C   0  0  0  0  0  3  0  0  0  0  0  0
  -30.4280  -24.8830   19.9060 C   0  0  0  0  0  2  0  0  0  0  0  0
  -30.2050  -25.9570   18.9760 O   0  0  0  0  0  0  0  0  0  0  0  0
  -26.4760  -29.9190   23.5610 C   0  0  0  0  0  0  0  0  0  0  0  0
  -29.0430  -26.6510   19.2260 C   0  0  0  0  0  0  0  0  0  0  0  0
  -25.2060  -29.0010   21.6440 C   0  0  0  0  0  3  0  0  0  0  0  0
  -26.6160  -27.9910   19.7680 C   0  0  0  0  0  0  0  0  0  0  0  0
  -27.7070  -29.5010   21.4360 C   0  0  0  0  0  2  0  0  0  0  0  0
  -27.7900  -28.3730   20.4280 C   0  0  0  0  0  0  0  0  0  0  0  0
  -29.0090  -27.7100   20.1590 C   0  0  0  0  0  3  0  0  0  0  0  0
  -27.8580  -26.2830   18.5590 C   0  0  0  0  0  3  0  0  0  0  0  0
  -26.6450  -26.9480   18.8250 C   0  0  0  0  0  3  0  0  0  0  0  0
  -25.3530  -28.7470   20.1190 C   0  0  0  0  0  2  0  0  0  0  0  0
  -26.4840  -29.4720   22.2720 N   0  0  0  0  0  0  0  0  0  0  0  0
  -25.4210  -29.9890   24.2070 O   0  0  0  0  0  0  0  0  0  0  0  0
  -24.6320  -27.7270   22.3040 C   0  0  0  0  0  0  0  0  0  0  0  0
  -23.3420  -27.4520   22.0470 N   0  0  0  0  0  0  0  0  0  0  0  0
  -25.3430  -27.0000   23.0000 O   0  0  0  0  0  0  0  0  0  0  0  0
  -22.8270  -28.1030   21.4720 H   0  0  0  0  0  0  0  0  0  0  0  0
  -20.1440  -25.7760   21.9000 C   0  0  0  0  0  0  0  0  0  0  0  0
  -22.6010  -26.2840   22.5200 C   0  0  0  0  0  3  0  0  0  0  0  0
  -22.9630  -25.0300   21.6920 C   0  0  0  0  0  2  0  0  0  0  0  0
  -22.0130  -24.7890   20.5150 C   0  0  0  0  0  2  0  0  0  0  0  0
  -20.5710  -24.6270   21.0040 C   0  0  0  0  0  2  0  0  0  0  0  0
  -21.0960  -26.5650   22.5980 C   0  0  0  0  0  0  0  0  0  0  0  0
  -20.6450  -27.6490   23.3840 C   0  0  0  0  0  3  0  0  0  0  0  0
  -19.2730  -27.9450   23.4820 C   0  0  0  0  0  3  0  0  0  0  0  0
  -18.3330  -27.1500   22.8030 C   0  0  0  0  0  3  0  0  0  0  0  0
  -18.7680  -26.0680   22.0170 C   0  0  0  0  0  3  0  0  0  0  0  0
  -27.7830  -30.3900   24.2740 C   0  0  0  0  0  3  0  0  0  0  0  0
  -28.3270  -29.3460   25.3250 C   0  0  1  0  0  0  0  0  0  0  0  0
  -27.2630  -28.8820   26.3480 C   0  0  0  0  0  1  0  0  0  0  0  0
  -28.8780  -28.0900   24.6120 C   0  0  0  0  0  1  0  0  0  0  0  0
  -29.5050  -29.9640   26.1140 C   0  0  0  0  0  1  0  0  0  0  0  0
  -27.4940  -31.6780   24.9180 N   0  0  0  0  0  0  0  0  0  0  0  0
  -27.8610  -32.8710   24.4320 C   0  0  0  0  0  0  0  0  0  0  0  0
  -28.5540  -32.9980   23.4180 O   0  0  0  0  0  0  0  0  0  0  0  0
  -26.8840  -31.6540   25.7220 H   0  0  0  0  0  0  0  0  0  0  0  0
  -26.1770  -34.7390   24.4720 C   0  0  0  0  0  1  0  0  0  0  0  0
  -27.3870  -34.1220   25.1930 C   0  0  0  0  0  3  0  0  0  0  0  0
  -29.5140  -34.7310   26.2560 C   0  0  0  0  0  1  0  0  0  0  0  0
  -28.4410  -35.1460   25.3550 N   0  0  0  0  0  0  0  0  0  0  0  0
  -28.0480  -36.0140   25.7100 H   0  0  0  0  0  0  0  0  0  0  0  0
  -26.6180  -18.2860   20.1250 C   0  0  0  0  0  2  0  0  0  0  0  0
  -24.4570  -14.4850   20.9870 C   0  0  0  0  0  2  0  0  0  0  0  0
  -25.5660  -14.9080   21.9610 C   0  0  0  0  0  2  0  0  0  0  0  0
  -24.8360  -14.8530   19.5480 C   0  0  0  0  0  2  0  0  0  0  0  0
  -25.8860  -16.4060   21.8200 C   0  0  0  0  0  2  0  0  0  0  0  0
  -25.1330  -16.3550   19.4310 C   0  0  0  0  0  2  0  0  0  0  0  0
  -26.2850  -16.7870   20.3710 C   0  0  0  0  0  3  0  0  0  0  0  0
  1 93  1  0
  2  4  2  0
  3  1  1  0
  3  2  1  0
  5  3  1  0
  6  2  1  0
  6 15  1  0
  7 13  1  0
  8 13  1  0
  9  8  1  0
 10  9  1  0
 11 10  1  0
 11 20  1  0
 11 12  1  0
 13 12  1  0
 14  7  2  0
 15  7  1  0
 15 16  1  0
 17 18  2  0
 17 20  1  0
 18 19  1  0
 19 21  2  0
 19 22  1  0
 20 21  1  0
 22 23  1  0
 23 24  2  0
 25 28  1  0
 25 24  1  0
 26 25  2  0
 27 26  1  0
 27 22  2  0
 28 29  1  0
 29 30  2  0
 29 34  1  0
 30 31  1  0
 31 32  2  0
 32 36  1  0
 33 32  1  0
 34 33  2  0
 35 34  1  0
 37 18  1  0
 37 38  1  0
 38 40  1  0
 39 37  2  0
 41 38  1  0
 42 17  1  0
 43 42  1  0
 44 42  1  0
 46  1  1  0
 46 45  1  0
 47 48  1  0
 47 46  1  0
 50 49  1  0
 50 51  1  0
 50 48  1  0
 52 54  1  0
 52 51  1  0
 53 64  2  0
 54 59  1  0
 55 63  1  0
 55 65  1  0
 56 62  1  0
 56 58  1  0
 57 63  1  0
 58 57  1  0
 59 58  2  0
 60 61  1  0
 60 54  2  0
 61 56  2  0
 62 55  1  0
 63 53  1  0
 65 67  2  0
 66 65  1  0
 68 66  1  0
 69 78  2  0
 69 74  1  0
 70 66  1  0
 70 74  1  0
 71 70  1  0
 72 73  1  0
 72 71  1  0
 73 69  1  0
 74 75  2  0
 75 76  1  0
 77 76  2  0
 78 77  1  0
 79 53  1  0
 79 84  1  0
 79 80  1  0
 80 83  1  1
 80 81  1  0
 82 80  1  0
 84 87  1  0
 85 84  1  0
 85 89  1  0
 86 85  2  0
 89 88  1  0
 89 91  1  0
 91 92  1  0
 91 90  1  0
 93 99  1  0
 94 95  1  0
 96 94  1  0
 97 95  1  0
 98 96  1  0
 98 99  1  0
 99 97  1  0
M  ISO  4   7 100  15 100  51 101  52 101
M  END
>  <TORSDO>  (7) 
F 25

>  <SCORE>  (7) 
2.656

>  <name>  (7) 
6

>  <ligand_id>  (7) 
6

>  <original_smiles>  (7) 
[H]c1c([H])c([H])c2c(c1[H])C([H])([H])C([H])([H])C([H])([H])C2([H])N([H])C(=O)C1([H])N(C(=O)C([H])(N([H])C(=O)C([H])(N([H])C([H])([H])[H])C([H])([H])[H])C(C([H])([H])[H])(C([H])([H])[H])C([H])([H])[H])C([H])([H])c2c([H])c(OC([H])([H])C([H])(C([H])([H])[H])C([H])([H])C([H])([H])C([H])(C([H])([H])[H])C([H])(N([H])C(=O)C([H])([H])N([H])C(=O)N3C([H])([H])C([H])([H])C([H])([H])C([H])(n4nc(-c5c([H])c([H])c(Oc6c([H])c([H])c(F)c([H])c6F)c([H])c5[H])c(C(=O)N([H])[H])c4N([H])[H])C3([H])[H])C([H])([H])C3([H])C([H])([H])C([H])([H])C([H])([H])C([H])([H])C3([H])[H])c([H])c([H])c2C1([H])[H]

>  <smiles>  (7) 
[H]c1c([H])c([H])c2c(c1[H])C([H])([H])C([H])([H])C([H])([H])C2([H])N([H])C(=O)C1([H])N(C(=O)C([H])(N([H])C(=O)C([H])(N([H])C([H])([H])[H])C([H])([H])[H])C(C([H])([H])[H])(C([H])([H])[H])C([H])([H])[H])C([H])([H])c2c([H])c(OC([H])([H])C([H])(C([H])([H])[H])C([H])([H])C([H])([H])C([H])(C([H])([H])[H])C([H])(N([H])C(=O)C([H])([H])N([H])C(=O)N3C([H])([H])C([H])([H])C([H])([H])C([H])(n4nc(-c5c([H])c([H])c(Oc6c([H])c([H])c(F)c([H])c6F)c([H])c5[H])c(C(=O)N([H])[H])c4N([H])[H])C3([H])[H])C([H])([H])C3([H])C([H])([H])C([H])([H])C([H])([H])C([H])([H])C3([H])[H])c([H])c([H])c2C1([H])[H]

$$$$
7:0:0
     RDKit          3D

 95102  0  0  1  0  0  0  0  0999 V2000
  -29.7940  -20.5820   21.0800 C   0  0  0  0  0  0  0  0  0  0  0  0
  -29.8240  -19.5590   20.1900 N   0  0  0  0  0  0  0  0  0  0  0  0
  -29.8250  -20.3810   22.2970 O   0  0  0  0  0  0  0  0  0  0  0  0
  -29.8560  -19.8390   19.2190 H   0  0  0  0  0  0  0  0  0  0  0  0
  -28.1890  -22.5710   20.9510 C   0  0  0  0  0  1  0  0  0  0  0  0
  -29.5860  -22.0450   20.5470 C   0  0  0  0  0  3  0  0  0  0  0  0
  -30.6780  -23.0830   20.9780 C   0  0  0  0  0  2  0  0  0  0  0  0
  -30.5180  -24.5860   20.5090 C   0  0  0  0  0  2  0  0  0  0  0  0
  -30.3000  -26.0940   22.6170 C   0  0  0  0  0  1  0  0  0  0  0  0
  -29.6390  -25.6080   21.3190 C   0  0  0  0  0  3  0  0  0  0  0  0
  -29.4440  -26.8130   20.5510 O   0  0  0  0  0  0  0  0  0  0  0  0
  -24.9180  -31.6530   23.3330 C   0  0  0  0  0  0  0  0  0  0  0  0
  -28.2020  -27.4220   20.5590 C   0  0  0  0  0  0  0  0  0  0  0  0
  -23.9940  -30.1680   21.5850 C   0  0  0  0  0  3  0  0  0  0  0  0
  -25.6980  -28.7400   20.3290 C   0  0  0  0  0  0  0  0  0  0  0  0
  -26.4930  -30.7160   21.6400 C   0  0  0  0  0  2  0  0  0  0  0  0
  -26.7500  -29.3500   21.0280 C   0  0  0  0  0  0  0  0  0  0  0  0
  -28.0030  -28.6990   21.1400 C   0  0  0  0  0  3  0  0  0  0  0  0
  -27.1300  -26.8200   19.8670 C   0  0  0  0  0  3  0  0  0  0  0  0
  -25.8850  -27.4720   19.7490 C   0  0  0  0  0  3  0  0  0  0  0  0
  -24.3980  -29.5090   20.2380 C   0  0  0  0  0  2  0  0  0  0  0  0
  -25.1470  -30.8630   22.2460 N   0  0  0  0  0  0  0  0  0  0  0  0
  -23.7720  -31.8400   23.7610 O   0  0  0  0  0  0  0  0  0  0  0  0
  -23.3270  -29.0980   22.4780 C   0  0  0  0  0  0  0  0  0  0  0  0
  -22.0300  -28.8470   22.2450 N   0  0  0  0  0  0  0  0  0  0  0  0
  -23.9790  -28.4980   23.3380 O   0  0  0  0  0  0  0  0  0  0  0  0
  -21.5640  -29.3880   21.5300 H   0  0  0  0  0  0  0  0  0  0  0  0
  -18.6790  -27.5170   22.5130 C   0  0  0  0  0  0  0  0  0  0  0  0
  -21.2070  -27.8530   22.9350 C   0  0  0  0  0  3  0  0  0  0  0  0
  -21.3930  -26.4500   22.3120 C   0  0  0  0  0  2  0  0  0  0  0  0
  -20.3590  -26.1290   21.2280 C   0  0  0  0  0  2  0  0  0  0  0  0
  -18.9410  -26.2010   21.8000 C   0  0  0  0  0  2  0  0  0  0  0  0
  -19.7440  -28.3010   23.0310 C   0  0  0  0  0  0  0  0  0  0  0  0
  -19.4490  -29.5320   23.6530 C   0  0  0  0  0  3  0  0  0  0  0  0
  -18.1200  -29.9820   23.7640 C   0  0  0  0  0  3  0  0  0  0  0  0
  -17.0680  -29.1950   23.2640 C   0  0  0  0  0  3  0  0  0  0  0  0
  -17.3480  -27.9650   22.6450 C   0  0  0  0  0  3  0  0  0  0  0  0
  -26.0850  -32.3780   24.0760 C   0  0  0  0  0  3  0  0  0  0  0  0
  -26.5120  -31.6540   25.4110 C   0  0  1  0  0  0  0  0  0  0  0  0
  -25.3260  -31.3470   26.3570 C   0  0  0  0  0  1  0  0  0  0  0  0
  -27.2320  -30.3200   25.1050 C   0  0  0  0  0  1  0  0  0  0  0  0
  -27.5230  -32.5350   26.1830 C   0  0  0  0  0  1  0  0  0  0  0  0
  -25.6510  -33.7550   24.3460 N   0  0  0  0  0  0  0  0  0  0  0  0
  -25.9890  -34.8160   23.6020 C   0  0  0  0  0  0  0  0  0  0  0  0
  -26.7640  -34.7420   22.6440 O   0  0  0  0  0  0  0  0  0  0  0  0
  -24.9700  -33.8770   25.0810 H   0  0  0  0  0  0  0  0  0  0  0  0
  -24.1830  -36.4720   23.0410 C   0  0  0  0  0  1  0  0  0  0  0  0
  -25.3650  -36.1740   23.9770 C   0  0  0  0  0  3  0  0  0  0  0  0
  -27.3460  -37.2170   24.9840 C   0  0  0  0  0  1  0  0  0  0  0  0
  -26.3300  -37.2950   23.9380 N   0  0  0  0  0  0  0  0  0  0  0  0
  -25.8520  -38.1870   24.0230 H   0  0  0  0  0  0  0  0  0  0  0  0
  -29.4030  -18.1420   20.3890 C   0  0  0  0  0  3  0  0  0  0  0  0
  -27.5360  -16.5020   19.6400 C   0  0  0  0  0  1  0  0  0  0  0  0
  -28.5730  -18.1120   17.9810 C   0  0  0  0  0  1  0  0  0  0  0  0
  -27.0180  -18.9020   19.7750 C   0  0  0  0  0  1  0  0  0  0  0  0
  -28.1560  -17.9040   19.4550 C   0  0  2  0  0  0  0  0  0  0  0  0
  -30.6130  -17.1360   20.1840 C   0  0  0  0  0  2  0  0  0  0  0  0
  -31.1020  -14.6260   20.0760 C   0  0  0  0  0  0  0  0  0  0  0  0
  -30.7910  -12.4090   19.0240 C   0  0  0  0  0  2  0  0  0  0  0  0
  -29.8290  -12.5750   17.8270 C   0  0  0  0  0  2  0  0  0  0  0  0
  -28.3590  -12.4690   18.2880 C   0  0  0  0  0  2  0  0  0  0  0  0
  -28.0480  -13.3400   19.5350 C   0  0  0  0  0  3  0  0  0  0  0  0
  -29.1270  -13.1300   20.6250 C   0  0  0  0  0  2  0  0  0  0  0  0
  -30.4360  -13.4320   20.0240 N   0  0  0  0  0  0  0  0  0  0  0  0
  -32.2290  -14.7720   19.6040 O   0  0  0  0  0  0  0  0  0  0  0  0
  -30.3730  -15.6950   20.4790 N   0  0  0  0  0  0  0  0  0  0  0  0
  -29.4580  -15.4830   20.8470 H   0  0  0  0  0  0  0  0  0  0  0  0
  -25.6610  -13.9830   20.2630 C   0  0  0  0  0  0  0  0  0  0  0  0
  -24.5900  -13.2430   20.6710 C   0  0  0  0  0  0  0  0  0  0  0  0
  -25.0280  -11.8850   20.6450 C   0  0  0  0  0  0  0  0  0  0  0  0
  -26.6970  -13.0900   20.0370 N   0  0  0  0  0  0  0  0  0  0  0  0
  -26.3140  -11.8170   20.3180 N   0  0  0  0  0  0  0  0  0  0  0  0
  -24.2770  -10.6440   20.8530 C   0  0  0  0  0  0  0  0  0  0  0  0
  -24.6690   -9.6990   21.8250 C   0  0  0  0  0  3  0  0  0  0  0  0
  -23.9180   -8.5200   22.0190 C   0  0  0  0  0  3  0  0  0  0  0  0
  -22.7610   -8.2820   21.2390 C   0  0  0  0  0  0  0  0  0  0  0  0
  -22.3870   -9.2160   20.2570 C   0  0  0  0  0  3  0  0  0  0  0  0
  -23.1400  -10.3850   20.0620 C   0  0  0  0  0  3  0  0  0  0  0  0
  -21.9860   -7.1520   21.3400 O   0  0  0  0  0  0  0  0  0  0  0  0
  -21.8190   -6.4990   22.5340 C   0  0  0  0  0  0  0  0  0  0  0  0
  -21.3290   -7.1590   23.6820 C   0  0  0  0  0  3  0  0  0  0  0  0
  -21.1080   -6.4330   24.8700 C   0  0  0  0  0  3  0  0  0  0  0  0
  -21.3700   -5.0520   24.9100 C   0  0  0  0  0  0  0  0  0  0  0  0
  -21.8560   -4.3920   23.7680 C   0  0  0  0  0  3  0  0  0  0  0  0
  -22.0790   -5.1150   22.5820 C   0  0  0  0  0  0  0  0  0  0  0  0
  -22.5270   -4.4720   21.4760 F   0  0  0  0  0  0  0  0  0  0  0  0
  -21.1510   -4.3520   26.0480 F   0  0  0  0  0  0  0  0  0  0  0  0
  -23.2100  -13.7590   20.9700 C   0  0  0  0  0  0  0  0  0  0  0  0
  -22.4930  -13.1050   21.8750 N   0  0  0  0  0  0  0  0  0  0  0  0
  -22.7790  -14.7820   20.4380 O   0  0  0  0  0  0  0  0  0  0  0  0
  -22.8520  -12.2780   22.3270 H   0  0  0  0  0  0  0  0  0  0  0  0
  -21.5730  -13.4400   22.1230 H   0  0  0  0  0  0  0  0  0  0  0  0
  -25.8170  -15.3380   20.0370 N   0  0  0  0  0  0  0  0  0  0  0  0
  -25.0430  -15.9850   20.1390 H   0  0  0  0  0  0  0  0  0  0  0  0
  -26.6640  -15.7820   19.7110 H   0  0  0  0  0  0  0  0  0  0  0  0
  1  3  2  0
  2 52  1  0
  2  1  1  0
  4  2  1  0
  6  5  1  0
  6  7  1  0
  6  1  1  0
  8  7  1  0
  8 10  1  0
 10  9  1  0
 11 13  1  0
 11 10  1  0
 12 23  2  0
 13 18  1  0
 14 22  1  0
 14 24  1  0
 15 17  1  0
 16 22  1  0
 17 18  2  0
 17 16  1  0
 19 13  2  0
 20 19  1  0
 20 15  2  0
 21 15  1  0
 21 14  1  0
 22 12  1  0
 24 26  2  0
 25 24  1  0
 27 25  1  0
 28 37  2  0
 28 33  1  0
 29 25  1  0
 29 33  1  0
 30 29  1  0
 31 32  1  0
 31 30  1  0
 32 28  1  0
 33 34  2  0
 34 35  1  0
 36 35  2  0
 37 36  1  0
 38 12  1  0
 38 43  1  0
 38 39  1  0
 39 42  1  1
 39 40  1  0
 41 39  1  0
 43 46  1  0
 44 48  1  0
 44 43  1  0
 45 44  2  0
 48 47  1  0
 50 48  1  0
 50 51  1  0
 50 49  1  0
 52 57  1  0
 56 54  1  6
 56 53  1  0
 56 55  1  0
 56 52  1  0
 57 66  1  0
 58 66  1  0
 59 64  1  0
 60 61  1  0
 60 59  1  0
 62 61  1  0
 62 71  1  0
 62 63  1  0
 64 58  1  0
 64 63  1  0
 65 58  2  0
 66 67  1  0
 68 69  2  0
 69 88  1  0
 70 69  1  0
 70 73  1  0
 71 68  1  0
 71 72  1  0
 72 70  2  0
 73 74  1  0
 74 75  2  0
 76 79  1  0
 76 75  1  0
 77 76  2  0
 78 77  1  0
 78 73  2  0
 79 80  1  0
 80 85  2  0
 80 81  1  0
 81 82  2  0
 82 83  1  0
 83 87  1  0
 84 83  2  0
 85 84  1  0
 86 85  1  0
 88 89  1  0
 89 92  1  0
 89 91  1  0
 90 88  2  0
 93 94  1  0
 93 68  1  0
 95 93  1  0
M  ISO  4  10 101  11 101  58 100  66 100
M  END
>  <TORSDO>  (8) 
F 23

>  <SCORE>  (8) 
-11.937

>  <name>  (8) 
7

>  <ligand_id>  (8) 
7

>  <original_smiles>  (8) 
[H]c1c([H])c([H])c2c(c1[H])C([H])([H])C([H])([H])C([H])([H])C2([H])N([H])C(=O)C1([H])N(C(=O)C([H])(N([H])C(=O)C([H])(N([H])C([H])([H])[H])C([H])([H])[H])C(C([H])([H])[H])(C([H])([H])[H])C([H])([H])[H])C([H])([H])c2c([H])c(OC([H])(C([H])([H])[H])C([H])([H])C([H])([H])C([H])(C(=O)N([H])C([H])(C([H])([H])N([H])C(=O)N3C([H])([H])C([H])([H])C([H])([H])C([H])(n4nc(-c5c([H])c([H])c(Oc6c([H])c([H])c(F)c([H])c6F)c([H])c5[H])c(C(=O)N([H])[H])c4N([H])[H])C3([H])[H])C(C([H])([H])[H])(C([H])([H])[H])C([H])([H])[H])C([H])([H])[H])c([H])c([H])c2C1([H])[H]

>  <smiles>  (8) 
[H]c1c([H])c([H])c2c(c1[H])C([H])([H])C([H])([H])C([H])([H])C2([H])N([H])C(=O)C1([H])N(C(=O)C([H])(N([H])C(=O)C([H])(N([H])C([H])([H])[H])C([H])([H])[H])C(C([H])([H])[H])(C([H])([H])[H])C([H])([H])[H])C([H])([H])c2c([H])c(OC([H])(C([H])([H])[H])C([H])([H])C([H])([H])C([H])(C(=O)N([H])C([H])(C([H])([H])N([H])C(=O)N3C([H])([H])C([H])([H])C([H])([H])C([H])(n4nc(-c5c([H])c([H])c(Oc6c([H])c([H])c(F)c([H])c6F)c([H])c5[H])c(C(=O)N([H])[H])c4N([H])[H])C3([H])[H])C(C([H])([H])[H])(C([H])([H])[H])C([H])([H])[H])C([H])([H])[H])c([H])c([H])c2C1([H])[H]

$$$$
8:0:0
     RDKit          3D

105112  0  0  1  0  0  0  0  0999 V2000
  -32.0990  -24.5400   19.3070 C   0  0  0  0  0  3  0  0  0  0  0  0
  -31.6910  -24.4530   17.8190 C   0  0  0  0  0  0  0  0  0  0  0  0
  -31.3150  -23.4100   17.2780 O   0  0  0  0  0  0  0  0  0  0  0  0
  -31.7050  -25.7660   17.0450 C   0  0  0  0  0  2  0  0  0  0  0  0
  -30.2850  -26.1350   16.5950 C   0  0  0  0  0  2  0  0  0  0  0  0
  -30.2370  -27.6020   16.3040 C   0  0  0  0  0  0  0  0  0  0  0  0
  -29.5110  -28.4130   17.0910 N   0  0  0  0  0  0  0  0  0  0  0  0
  -30.9460  -28.0810   15.2740 N   0  0  0  0  0  4  0  0  0  0  0  0
  -29.0030  -28.0350   17.8830 H   0  0  0  0  0  0  0  0  0  0  0  0
  -29.4250  -29.4080   16.9460 H   0  0  0  0  0  0  0  0  0  0  0  0
  -31.4680  -27.4510   14.6760 H   0  0  0  0  0  0  0  0  0  0  0  0
  -30.9750  -29.0620   15.0240 H   0  0  0  0  0  0  0  0  0  0  0  0
  -32.5270  -23.2240   20.0130 C   0  0  0  0  0  2  0  0  0  0  0  0
  -33.3120  -22.1880   19.1760 C   0  0  0  0  0  2  0  0  0  0  0  0
  -34.0590  -21.1150   20.0040 C   0  0  1  0  0  0  0  0  0  0  0  0
  -34.5380  -20.2110   19.1500 F   0  0  0  0  0  0  0  0  0  0  0  0
  -35.1010  -21.7010   20.5980 F   0  0  0  0  0  0  0  0  0  0  0  0
  -33.2440  -20.3730   21.0900 C   0  0  0  0  0  2  0  0  0  0  0  0
  -31.9080  -19.7900   20.5980 C   0  0  0  0  0  2  0  0  0  0  0  0
  -31.3360  -18.6740   21.5070 C   0  0  0  0  0  2  0  0  0  0  0  0
  -29.9500  -18.2030   21.0070 C   0  0  0  0  0  2  0  0  0  0  0  0
  -29.9510  -16.9600   20.0850 C   0  0  0  0  0  2  0  0  0  0  0  0
  -30.6860  -14.6390   20.5290 C   0  0  0  0  0  0  0  0  0  0  0  0
  -30.3760  -12.5260   19.3350 C   0  0  0  0  0  2  0  0  0  0  0  0
  -29.4460  -12.8500   18.1490 C   0  0  0  0  0  2  0  0  0  0  0  0
  -27.9890  -12.6140   18.5810 C   0  0  0  0  0  2  0  0  0  0  0  0
  -27.6410  -13.4070   19.8680 C   0  0  0  0  0  3  0  0  0  0  0  0
  -28.6940  -13.1580   20.9780 C   0  0  0  0  0  2  0  0  0  0  0  0
  -30.0270  -13.4580   20.4220 N   0  0  0  0  0  0  0  0  0  0  0  0
  -31.8320  -14.8220   20.1210 O   0  0  0  0  0  0  0  0  0  0  0  0
  -29.8930  -15.6840   20.8140 N   0  0  0  0  0  0  0  0  0  0  0  0
  -28.9950  -15.4390   21.2050 H   0  0  0  0  0  0  0  0  0  0  0  0
  -25.2130  -13.9740   20.5350 C   0  0  0  0  0  0  0  0  0  0  0  0
  -24.1590  -13.1770   20.8900 C   0  0  0  0  0  0  0  0  0  0  0  0
  -24.6540  -11.8370   20.8720 C   0  0  0  0  0  0  0  0  0  0  0  0
  -26.2830  -13.1140   20.3240 N   0  0  0  0  0  0  0  0  0  0  0  0
  -25.9450  -11.8260   20.5810 N   0  0  0  0  0  0  0  0  0  0  0  0
  -23.9560  -10.5590   21.0500 C   0  0  0  0  0  0  0  0  0  0  0  0
  -24.3920   -9.6090   22.0010 C   0  0  0  0  0  3  0  0  0  0  0  0
  -23.6980   -8.3930   22.1690 C   0  0  0  0  0  3  0  0  0  0  0  0
  -22.5520   -8.1210   21.3830 C   0  0  0  0  0  0  0  0  0  0  0  0
  -22.1390   -9.0570   20.4160 C   0  0  0  0  0  3  0  0  0  0  0  0
  -22.8320  -10.2660   20.2500 C   0  0  0  0  0  3  0  0  0  0  0  0
  -21.8240   -6.9590   21.4580 O   0  0  0  0  0  0  0  0  0  0  0  0
  -21.7600   -6.2250   22.6150 C   0  0  0  0  0  0  0  0  0  0  0  0
  -21.2680   -6.7750   23.8180 C   0  0  0  0  0  3  0  0  0  0  0  0
  -21.1520   -5.9680   24.9660 C   0  0  0  0  0  3  0  0  0  0  0  0
  -21.5210   -4.6100   24.9090 C   0  0  0  0  0  0  0  0  0  0  0  0
  -22.0060   -4.0570   23.7100 C   0  0  0  0  0  3  0  0  0  0  0  0
  -22.1240   -4.8630   22.5660 C   0  0  0  0  0  0  0  0  0  0  0  0
  -22.5760   -4.3210   21.4080 F   0  0  0  0  0  0  0  0  0  0  0  0
  -21.4000   -3.8330   26.0100 F   0  0  0  0  0  0  0  0  0  0  0  0
  -22.7450  -13.6180   21.1460 C   0  0  0  0  0  0  0  0  0  0  0  0
  -22.0260  -12.9000   21.9980 N   0  0  0  0  0  0  0  0  0  0  0  0
  -22.2870  -14.6350   20.6230 O   0  0  0  0  0  0  0  0  0  0  0  0
  -22.4130  -12.0740   22.4330 H   0  0  0  0  0  0  0  0  0  0  0  0
  -21.0790  -13.1710   22.2230 H   0  0  0  0  0  0  0  0  0  0  0  0
  -25.3450  -15.3500   20.3530 N   0  0  0  0  0  0  0  0  0  0  0  0
  -24.5530  -15.9750   20.4410 H   0  0  0  0  0  0  0  0  0  0  0  0
  -26.1830  -15.8230   20.0380 H   0  0  0  0  0  0  0  0  0  0  0  0
  -31.0570  -25.3440   20.1270 C   0  0  0  0  0  2  0  0  0  0  0  0
  -29.6630  -24.6800   20.2730 C   0  0  0  0  0  2  0  0  0  0  0  0
  -28.8610  -26.0210   22.2960 C   0  0  0  0  0  1  0  0  0  0  0  0
  -28.5640  -25.5990   20.8420 C   0  0  0  0  0  3  0  0  0  0  0  0
  -28.4520  -26.7340   19.9800 O   0  0  0  0  0  0  0  0  0  0  0  0
  -24.5220  -31.7380   23.1500 C   0  0  0  0  0  0  0  0  0  0  0  0
  -27.2560  -27.4020   20.0300 C   0  0  0  0  0  0  0  0  0  0  0  0
  -23.3420  -30.3470   21.4700 C   0  0  0  0  0  3  0  0  0  0  0  0
  -24.8300  -28.8410   20.0420 C   0  0  0  0  0  0  0  0  0  0  0  0
  -25.8610  -30.7440   21.3040 C   0  0  0  0  0  2  0  0  0  0  0  0
  -25.9720  -29.3850   20.6500 C   0  0  0  0  0  0  0  0  0  0  0  0
  -27.1850  -28.6710   20.6400 C   0  0  0  0  0  3  0  0  0  0  0  0
  -26.1080  -26.8610   19.4210 C   0  0  0  0  0  3  0  0  0  0  0  0
  -24.8920  -27.5770   19.4270 C   0  0  0  0  0  3  0  0  0  0  0  0
  -23.5760  -29.6820   20.0840 C   0  0  0  0  0  2  0  0  0  0  0  0
  -24.5900  -30.9580   22.0340 N   0  0  0  0  0  0  0  0  0  0  0  0
  -23.4360  -31.9970   23.6850 O   0  0  0  0  0  0  0  0  0  0  0  0
  -22.6920  -29.3140   22.4120 C   0  0  0  0  0  0  0  0  0  0  0  0
  -21.3690  -29.1320   22.2750 N   0  0  0  0  0  0  0  0  0  0  0  0
  -23.3680  -28.6730   23.2190 O   0  0  0  0  0  0  0  0  0  0  0  0
  -20.8820  -29.7170   21.6100 H   0  0  0  0  0  0  0  0  0  0  0  0
  -17.9890  -27.9440   22.7490 C   0  0  0  0  0  0  0  0  0  0  0  0
  -20.5480  -28.1780   23.0200 C   0  0  0  0  0  3  0  0  0  0  0  0
  -20.6360  -26.7620   22.4070 C   0  0  0  0  0  2  0  0  0  0  0  0
  -19.5290  -26.4740   21.3850 C   0  0  0  0  0  2  0  0  0  0  0  0
  -18.1510  -26.6120   22.0380 C   0  0  0  0  0  2  0  0  0  0  0  0
  -19.1140  -28.6860   23.1970 C   0  0  0  0  0  0  0  0  0  0  0  0
  -18.9100  -29.9320   23.8250 C   0  0  0  0  0  3  0  0  0  0  0  0
  -17.6120  -30.4410   24.0080 C   0  0  0  0  0  3  0  0  0  0  0  0
  -16.4990  -29.6960   23.5800 C   0  0  0  0  0  3  0  0  0  0  0  0
  -16.6910  -28.4500   22.9580 C   0  0  0  0  0  3  0  0  0  0  0  0
  -25.8010  -32.3640   23.7930 C   0  0  0  0  0  3  0  0  0  0  0  0
  -25.4950  -33.7590   24.1280 N   0  0  0  0  0  0  0  0  0  0  0  0
  -25.8540  -34.8150   23.3860 C   0  0  0  0  0  0  0  0  0  0  0  0
  -26.5530  -34.7180   22.3730 O   0  0  0  0  0  0  0  0  0  0  0  0
  -24.8660  -33.9090   24.9020 H   0  0  0  0  0  0  0  0  0  0  0  0
  -24.1510  -36.6240   22.9970 C   0  0  0  0  0  1  0  0  0  0  0  0
  -25.3610  -36.2000   23.8440 C   0  0  0  0  0  3  0  0  0  0  0  0
  -27.4680  -37.0580   24.7640 C   0  0  0  0  0  1  0  0  0  0  0  0
  -26.4040  -37.2460   23.7810 N   0  0  0  0  0  0  0  0  0  0  0  0
  -26.0000  -38.1670   23.9300 H   0  0  0  0  0  0  0  0  0  0  0  0
  -26.3010  -31.5840   25.0680 C   0  0  1  0  0  0  0  0  0  0  0  0
  -25.1950  -31.3400   26.1200 C   0  0  0  0  0  1  0  0  0  0  0  0
  -26.8910  -30.2110   24.6670 C   0  0  0  0  0  1  0  0  0  0  0  0
  -27.4410  -32.3740   25.7540 C   0  0  0  0  0  1  0  0  0  0  0  0
  1 13  1  0
  1 61  1  0
  2  1  1  0
  3  2  2  0
  4  2  1  0
  5  4  1  0
  6  5  1  0
  6  7  1  0
  7  9  1  0
  8  6  2  0
 10  7  1  0
 11  8  1  0
 12  8  1  0
 14 15  1  0
 14 13  1  0
 15 17  1  1
 15 18  1  0
 16 15  1  0
 19 18  1  0
 19 20  1  0
 21 20  1  0
 22 31  1  0
 22 21  1  0
 23 31  1  0
 24 29  1  0
 25 26  1  0
 25 24  1  0
 27 26  1  0
 27 36  1  0
 27 28  1  0
 29 23  1  0
 29 28  1  0
 30 23  2  0
 31 32  1  0
 33 34  2  0
 34 53  1  0
 35 34  1  0
 35 38  1  0
 36 33  1  0
 36 37  1  0
 37 35  2  0
 38 39  1  0
 39 40  2  0
 41 44  1  0
 41 40  1  0
 42 41  2  0
 43 42  1  0
 43 38  2  0
 44 45  1  0
 45 46  1  0
 46 47  2  0
 48 47  1  0
 48 52  1  0
 49 48  2  0
 50 45  2  0
 50 49  1  0
 51 50  1  0
 53 54  1  0
 54 57  1  0
 54 56  1  0
 55 53  2  0
 58 59  1  0
 58 33  1  0
 60 58  1  0
 61 62  1  0
 62 64  1  0
 64 63  1  0
 65 67  1  0
 65 64  1  0
 66 77  2  0
 67 72  1  0
 68 76  1  0
 68 78  1  0
 69 75  1  0
 69 71  1  0
 70 76  1  0
 71 70  1  0
 72 71  2  0
 73 74  1  0
 73 67  2  0
 74 69  2  0
 75 68  1  0
 76 66  1  0
 78 80  2  0
 79 78  1  0
 81 79  1  0
 82 91  2  0
 82 87  1  0
 83 79  1  0
 83 87  1  0
 84 83  1  0
 85 86  1  0
 85 84  1  0
 86 82  1  0
 87 88  2  0
 88 89  1  0
 90 89  2  0
 91 90  1  0
 92 66  1  0
 92 93  1  0
 92102  1  0
 93 96  1  0
 94 98  1  0
 94 93  1  0
 95 94  2  0
 98 97  1  0
100 98  1  0
100101  1  0
100 99  1  0
102105  1  1
102103  1  0
104102  1  0
M  ISO  4  23 100  31 100  64 101  65 101
M  END
>  <TORSDO>  (9) 
F 31

>  <SCORE>  (9) 
-10.672

>  <name>  (9) 
8

>  <ligand_id>  (9) 
8

>  <original_smiles>  (9) 
[H]c1c([H])c([H])c2c(c1[H])C([H])([H])C([H])([H])C([H])([H])C2([H])N([H])C(=O)C1([H])N(C(=O)C([H])(N([H])C(=O)C([H])(N([H])C([H])([H])[H])C([H])([H])[H])C(C([H])([H])[H])(C([H])([H])[H])C([H])([H])[H])C([H])([H])c2c([H])c(OC([H])(C([H])([H])[H])C([H])([H])C([H])([H])C([H])(C(=O)C([H])([H])C([H])([H])C(N([H])[H])=[N+]([H])[H])C([H])([H])C([H])([H])C(F)(F)C([H])([H])C([H])([H])C([H])([H])C([H])([H])C([H])([H])N([H])C(=O)N3C([H])([H])C([H])([H])C([H])([H])C([H])(n4nc(-c5c([H])c([H])c(Oc6c([H])c([H])c(F)c([H])c6F)c([H])c5[H])c(C(=O)N([H])[H])c4N([H])[H])C3([H])[H])c([H])c([H])c2C1([H])[H]

>  <smiles>  (9) 
[H]c1c([H])c([H])c2c(c1[H])C([H])([H])C([H])([H])C([H])([H])C2([H])N([H])C(=O)C1([H])N(C(=O)C([H])(N([H])C(=O)C([H])(N([H])C([H])([H])[H])C([H])([H])[H])C(C([H])([H])[H])(C([H])([H])[H])C([H])([H])[H])C([H])([H])c2c([H])c(OC([H])(C([H])([H])[H])C([H])([H])C([H])([H])C([H])(C(=O)C([H])([H])C([H])([H])C(N([H])[H])=[N+]([H])[H])C([H])([H])C([H])([H])C(F)(F)C([H])([H])C([H])([H])C([H])([H])C([H])([H])C([H])([H])N([H])C(=O)N3C([H])([H])C([H])([H])C([H])([H])C([H])(n4nc(-c5c([H])c([H])c(Oc6c([H])c([H])c(F)c([H])c6F)c([H])c5[H])c(C(=O)N([H])[H])c4N([H])[H])C3([H])[H])c([H])c([H])c2C1([H])[H]

$$$$
9:0:0
     RDKit          3D

 93101  0  0  1  0  0  0  0  0999 V2000
  -28.3960  -18.8530   19.9670 C   0  0  0  0  0  0  0  0  0  0  0  0
  -29.2530  -22.8180   19.6480 C   0  0  0  0  0  2  0  0  0  0  0  0
  -26.9350  -22.4460   19.2750 C   0  0  0  0  0  2  0  0  0  0  0  0
  -29.4120  -21.3140   20.2430 C   0  0  0  0  0  2  0  0  0  0  0  0
  -27.0370  -20.9800   19.8680 C   0  0  0  0  0  2  0  0  0  0  0  0
  -27.8740  -23.5800   19.8190 C   0  0  0  0  0  3  0  0  0  0  0  0
  -28.3620  -20.2800   19.9400 N   0  0  0  0  0  0  0  0  0  0  0  0
  -27.3900  -18.2380   19.5960 O   0  0  0  0  0  0  0  0  0  0  0  0
  -27.5190  -25.0350   19.0820 C   0  0  0  0  0  2  0  0  0  0  0  0
  -27.8310  -26.5050   19.4120 O   0  0  0  0  0  0  0  0  0  0  0  0
  -24.4720  -31.8680   23.1030 C   0  0  0  0  0  0  0  0  0  0  0  0
  -26.7810  -27.4840   19.4730 C   0  0  0  0  0  0  0  0  0  0  0  0
  -23.1370  -30.6110   21.4550 C   0  0  0  0  0  3  0  0  0  0  0  0
  -24.4610  -29.1920   19.7820 C   0  0  0  0  0  0  0  0  0  0  0  0
  -25.6670  -30.9130   21.1080 C   0  0  0  0  0  2  0  0  0  0  0  0
  -25.6830  -29.5870   20.3400 C   0  0  0  0  0  0  0  0  0  0  0  0
  -26.8400  -28.7420   20.1850 C   0  0  0  0  0  3  0  0  0  0  0  0
  -25.5400  -27.2180   18.8440 C   0  0  0  0  0  3  0  0  0  0  0  0
  -24.3980  -28.0200   19.0210 C   0  0  0  0  0  3  0  0  0  0  0  0
  -23.2420  -30.0660   20.0080 C   0  0  0  0  0  2  0  0  0  0  0  0
  -24.4490  -31.1470   21.9420 N   0  0  0  0  0  0  0  0  0  0  0  0
  -23.4340  -32.1000   23.7410 O   0  0  0  0  0  0  0  0  0  0  0  0
  -22.5470  -29.5140   22.3770 C   0  0  0  0  0  0  0  0  0  0  0  0
  -21.2230  -29.2950   22.2940 N   0  0  0  0  0  0  0  0  0  0  0  0
  -23.2780  -28.8680   23.1310 O   0  0  0  0  0  0  0  0  0  0  0  0
  -20.6870  -29.8750   21.6640 H   0  0  0  0  0  0  0  0  0  0  0  0
  -17.9250  -27.8960   22.8070 C   0  0  0  0  0  0  0  0  0  0  0  0
  -20.4700  -28.2830   23.0390 C   0  0  0  0  0  3  0  0  0  0  0  0
  -20.6360  -26.8840   22.4020 C   0  0  0  0  0  2  0  0  0  0  0  0
  -19.5320  -26.5460   21.3960 C   0  0  0  0  0  2  0  0  0  0  0  0
  -18.1580  -26.5880   22.0720 C   0  0  0  0  0  2  0  0  0  0  0  0
  -19.0090  -28.6990   23.2490 C   0  0  0  0  0  0  0  0  0  0  0  0
  -18.7350  -29.9210   23.9000 C   0  0  0  0  0  3  0  0  0  0  0  0
  -17.4090  -30.3400   24.1150 C   0  0  0  0  0  3  0  0  0  0  0  0
  -16.3390  -29.5330   23.6910 C   0  0  0  0  0  3  0  0  0  0  0  0
  -16.5970  -28.3140   23.0400 C   0  0  0  0  0  3  0  0  0  0  0  0
  -25.8010  -32.4540   23.6700 C   0  0  0  0  0  3  0  0  0  0  0  0
  -26.3940  -31.6060   24.8620 C   0  0  1  0  0  0  0  0  0  0  0  0
  -25.3740  -31.3200   25.9890 C   0  0  0  0  0  1  0  0  0  0  0  0
  -26.9290  -30.2470   24.3550 C   0  0  0  0  0  1  0  0  0  0  0  0
  -27.5980  -32.3490   25.4860 C   0  0  0  0  0  1  0  0  0  0  0  0
  -25.5300  -33.8330   24.1040 N   0  0  0  0  0  0  0  0  0  0  0  0
  -25.8520  -34.9310   23.4070 C   0  0  0  0  0  0  0  0  0  0  0  0
  -26.4760  -34.8880   22.3440 O   0  0  0  0  0  0  0  0  0  0  0  0
  -24.9760  -33.9420   24.9400 H   0  0  0  0  0  0  0  0  0  0  0  0
  -24.1480  -36.7750   23.2520 C   0  0  0  0  0  1  0  0  0  0  0  0
  -25.4120  -36.2920   23.9810 C   0  0  0  0  0  3  0  0  0  0  0  0
  -27.5930  -37.0850   24.7830 C   0  0  0  0  0  1  0  0  0  0  0  0
  -26.4590  -37.3330   23.8970 N   0  0  0  0  0  0  0  0  0  0  0  0
  -26.0750  -38.2470   24.1200 H   0  0  0  0  0  0  0  0  0  0  0  0
  -29.5520  -17.8490   20.4980 C   0  0  0  0  0  3  0  0  0  0  0  0
  -30.1050  -15.2170   20.0120 C   0  0  0  0  0  0  0  0  0  0  0  0
  -29.9740  -12.9340   18.9560 C   0  0  0  0  0  2  0  0  0  0  0  0
  -28.9580  -12.9480   17.7900 C   0  0  0  0  0  2  0  0  0  0  0  0
  -27.5330  -12.6800   18.3120 C   0  0  0  0  0  2  0  0  0  0  0  0
  -27.1860  -13.5330   19.5610 C   0  0  0  0  0  3  0  0  0  0  0  0
  -28.3150  -13.5020   20.6120 C   0  0  0  0  0  2  0  0  0  0  0  0
  -29.5410  -13.9550   19.9440 N   0  0  0  0  0  0  0  0  0  0  0  0
  -31.2620  -15.3700   19.6120 O   0  0  0  0  0  0  0  0  0  0  0  0
  -29.3030  -16.3140   20.3570 N   0  0  0  0  0  0  0  0  0  0  0  0
  -28.3410  -16.0680   20.5400 H   0  0  0  0  0  0  0  0  0  0  0  0
  -24.8260  -13.9870   20.4480 C   0  0  0  0  0  0  0  0  0  0  0  0
  -23.8280  -13.1530   20.8690 C   0  0  0  0  0  0  0  0  0  0  0  0
  -24.3560  -11.8280   20.7890 C   0  0  0  0  0  0  0  0  0  0  0  0
  -25.8960  -13.1660   20.1320 N   0  0  0  0  0  0  0  0  0  0  0  0
  -25.6260  -11.8620   20.4020 N   0  0  0  0  0  0  0  0  0  0  0  0
  -23.7090  -10.5270   21.0010 C   0  0  0  0  0  0  0  0  0  0  0  0
  -24.2180   -9.5890   21.9260 C   0  0  0  0  0  3  0  0  0  0  0  0
  -23.5660   -8.3540   22.1270 C   0  0  0  0  0  3  0  0  0  0  0  0
  -22.3890   -8.0470   21.4040 C   0  0  0  0  0  0  0  0  0  0  0  0
  -21.8980   -8.9750   20.4680 C   0  0  0  0  0  3  0  0  0  0  0  0
  -22.5510  -10.2010   20.2650 C   0  0  0  0  0  3  0  0  0  0  0  0
  -21.7030   -6.8620   21.5130 O   0  0  0  0  0  0  0  0  0  0  0  0
  -21.7020   -6.1360   22.6780 C   0  0  0  0  0  0  0  0  0  0  0  0
  -21.2290   -6.6780   23.8930 C   0  0  0  0  0  3  0  0  0  0  0  0
  -21.1810   -5.8740   25.0500 C   0  0  0  0  0  3  0  0  0  0  0  0
  -21.5950   -4.5310   24.9920 C   0  0  0  0  0  0  0  0  0  0  0  0
  -22.0620   -3.9880   23.7820 C   0  0  0  0  0  3  0  0  0  0  0  0
  -22.1110   -4.7880   22.6270 C   0  0  0  0  0  0  0  0  0  0  0  0
  -22.5410   -4.2550   21.4590 F   0  0  0  0  0  0  0  0  0  0  0  0
  -21.5420   -3.7560   26.1010 F   0  0  0  0  0  0  0  0  0  0  0  0
  -22.4260  -13.5530   21.2300 C   0  0  0  0  0  0  0  0  0  0  0  0
  -21.7980  -12.8230   22.1440 N   0  0  0  0  0  0  0  0  0  0  0  0
  -21.8990  -14.5490   20.7370 O   0  0  0  0  0  0  0  0  0  0  0  0
  -22.2390  -12.0170   22.5630 H   0  0  0  0  0  0  0  0  0  0  0  0
  -20.8610  -13.0720   22.4300 H   0  0  0  0  0  0  0  0  0  0  0  0
  -24.9070  -15.3680   20.2880 N   0  0  0  0  0  0  0  0  0  0  0  0
  -24.1110  -15.9700   20.4660 H   0  0  0  0  0  0  0  0  0  0  0  0
  -25.7070  -15.8750   19.9290 H   0  0  0  0  0  0  0  0  0  0  0  0
  -29.8350  -18.1780   21.9900 C   0  0  0  0  0  2  0  0  0  0  0  0
  -31.3020  -18.1110   24.0490 C   0  0  0  0  0  1  0  0  0  0  0  0
  -32.2500  -19.0070   21.8880 C   0  0  0  0  0  1  0  0  0  0  0  0
  -31.2750  -17.9990   22.5160 C   0  0  0  0  0  3  0  0  0  0  0  0
  1 51  1  0
  2  6  1  0
  2  4  1  0
  3  6  1  0
  3  5  1  0
  5  7  1  0
  6  9  1  0
  7  1  1  0
  7  4  1  0
  8  1  2  0
  9 10  1  0
 10 12  1  0
 11 22  2  0
 12 17  1  0
 13 21  1  0
 13 23  1  0
 14 20  1  0
 14 16  1  0
 15 21  1  0
 16 15  1  0
 17 16  2  0
 18 19  1  0
 18 12  2  0
 19 14  2  0
 20 13  1  0
 21 11  1  0
 23 25  2  0
 24 23  1  0
 26 24  1  0
 27 36  2  0
 27 32  1  0
 28 24  1  0
 28 32  1  0
 29 28  1  0
 30 31  1  0
 30 29  1  0
 31 27  1  0
 32 33  2  0
 33 34  1  0
 35 34  2  0
 36 35  1  0
 37 11  1  0
 37 42  1  0
 37 38  1  0
 38 41  1  1
 38 39  1  0
 40 38  1  0
 42 45  1  0
 43 47  1  0
 43 42  1  0
 44 43  2  0
 47 46  1  0
 49 47  1  0
 49 50  1  0
 49 48  1  0
 51 90  1  0
 52 60  1  0
 53 58  1  0
 54 55  1  0
 54 53  1  0
 56 55  1  0
 56 65  1  0
 56 57  1  0
 58 52  1  0
 58 57  1  0
 59 52  2  0
 60 51  1  0
 60 61  1  0
 62 63  2  0
 63 82  1  0
 64 63  1  0
 64 67  1  0
 65 66  1  0
 65 62  1  0
 66 64  2  0
 67 68  1  0
 68 69  2  0
 70 73  1  0
 70 69  1  0
 71 70  2  0
 72 71  1  0
 72 67  2  0
 73 74  1  0
 74 75  1  0
 75 76  2  0
 77 76  1  0
 77 81  1  0
 78 77  2  0
 79 74  2  0
 79 78  1  0
 80 79  1  0
 82 83  1  0
 83 86  1  0
 83 85  1  0
 84 82  2  0
 87 62  1  0
 87 88  1  0
 89 87  1  0
 90 93  1  0
 92 93  1  0
 93 91  1  0
M  ISO  4   9 101  10 101  52 100  60 100
M  END
>  <TORSDO>  (10) 
F 20

>  <SCORE>  (10) 
-11.054

>  <name>  (10) 
9

>  <ligand_id>  (10) 
9

>  <original_smiles>  (10) 
[H]c1c([H])c([H])c2c(c1[H])C([H])([H])C([H])([H])C([H])([H])C2([H])N([H])C(=O)C1([H])N(C(=O)C([H])(N([H])C(=O)C([H])(N([H])C([H])([H])[H])C([H])([H])[H])C(C([H])([H])[H])(C([H])([H])[H])C([H])([H])[H])C([H])([H])c2c([H])c(OC([H])([H])C3([H])C([H])([H])C([H])([H])N(C(=O)C([H])(N([H])C(=O)N4C([H])([H])C([H])([H])C([H])([H])C([H])(n5nc(-c6c([H])c([H])c(Oc7c([H])c([H])c(F)c([H])c7F)c([H])c6[H])c(C(=O)N([H])[H])c5N([H])[H])C4([H])[H])C([H])([H])C([H])(C([H])([H])[H])C([H])([H])[H])C([H])([H])C3([H])[H])c([H])c([H])c2C1([H])[H]

>  <smiles>  (10) 
[H]c1c([H])c([H])c2c(c1[H])C([H])([H])C([H])([H])C([H])([H])C2([H])N([H])C(=O)C1([H])N(C(=O)C([H])(N([H])C(=O)C([H])(N([H])C([H])([H])[H])C([H])([H])[H])C(C([H])([H])[H])(C([H])([H])[H])C([H])([H])[H])C([H])([H])c2c([H])c(OC([H])([H])C3([H])C([H])([H])C([H])([H])N(C(=O)C([H])(N([H])C(=O)N4C([H])([H])C([H])([H])C([H])([H])C([H])(n5nc(-c6c([H])c([H])c(Oc7c([H])c([H])c(F)c([H])c7F)c([H])c6[H])c(C(=O)N([H])[H])c5N([H])[H])C4([H])[H])C([H])([H])C([H])(C([H])([H])[H])C([H])([H])[H])C([H])([H])C3([H])[H])c([H])c([H])c2C1([H])[H]

$$$$
10:0:0
     RDKit          3D

 92101  0  0  1  0  0  0  0  0999 V2000
  -28.8250  -22.4450   20.1590 C   0  0  0  0  0  3  0  0  0  0  0  0
  -30.8690  -15.9830   19.9690 C   0  0  0  0  0  0  0  0  0  0  0  0
  -30.7670  -13.4670   19.1350 C   0  0  0  0  0  2  0  0  0  0  0  0
  -29.8630  -13.0360   17.9540 C   0  0  0  0  0  2  0  0  0  0  0  0
  -28.4560  -12.6990   18.4580 C   0  0  0  0  0  2  0  0  0  0  0  0
  -27.9710  -13.7280   19.5040 C   0  0  0  0  0  3  0  0  0  0  0  0
  -29.0270  -14.1130   20.5750 C   0  0  0  0  0  2  0  0  0  0  0  0
  -30.1770  -14.7040   19.8430 N   0  0  0  0  0  0  0  0  0  0  0  0
  -32.0780  -15.6890   19.8840 O   0  0  0  0  0  0  0  0  0  0  0  0
  -32.9810  -22.2670   20.1070 C   0  0  0  0  0  2  0  0  0  0  0  0
  -31.7600  -22.1370   21.0120 C   0  0  0  0  0  2  0  0  0  0  0  0
  -32.1100  -21.6140   19.0350 C   0  0  0  0  0  2  0  0  0  0  0  0
  -31.8740  -19.5600   20.6180 C   0  0  0  0  0  2  0  0  0  0  0  0
  -31.6800  -18.3990   19.5850 C   0  0  0  0  0  2  0  0  0  0  0  0
  -29.4470  -18.8780   20.0370 C   0  0  0  0  0  2  0  0  0  0  0  0
  -29.7410  -20.7630   19.8250 C   0  0  0  0  0  3  0  0  0  0  0  0
  -31.2790  -20.9300   20.1470 C   0  0  1  0  0  0  0  0  0  0  0  0
  -30.5080  -17.5210   19.8670 N   0  0  0  0  0  0  0  0  0  0  0  0
  -25.6420  -14.2710   20.3530 C   0  0  0  0  0  0  0  0  0  0  0  0
  -24.5780  -13.5000   20.7210 C   0  0  0  0  0  0  0  0  0  0  0  0
  -25.0230  -12.1440   20.6390 C   0  0  0  0  0  0  0  0  0  0  0  0
  -26.6670  -13.3940   20.0580 N   0  0  0  0  0  0  0  0  0  0  0  0
  -26.3100  -12.1030   20.2950 N   0  0  0  0  0  0  0  0  0  0  0  0
  -24.2780  -10.8880   20.8050 C   0  0  0  0  0  0  0  0  0  0  0  0
  -24.6660   -9.9170   21.7540 C   0  0  0  0  0  3  0  0  0  0  0  0
  -23.9150   -8.7320   21.9160 C   0  0  0  0  0  3  0  0  0  0  0  0
  -22.7610   -8.5070   21.1290 C   0  0  0  0  0  0  0  0  0  0  0  0
  -22.3900   -9.4670   20.1720 C   0  0  0  0  0  3  0  0  0  0  0  0
  -23.1410  -10.6440   20.0070 C   0  0  0  0  0  3  0  0  0  0  0  0
  -21.9890   -7.3730   21.2000 O   0  0  0  0  0  0  0  0  0  0  0  0
  -21.8180   -6.6880   22.3760 C   0  0  0  0  0  0  0  0  0  0  0  0
  -21.2420   -7.2940   23.5150 C   0  0  0  0  0  3  0  0  0  0  0  0
  -21.0210   -6.5330   24.6810 C   0  0  0  0  0  3  0  0  0  0  0  0
  -21.3640   -5.1690   24.7080 C   0  0  0  0  0  0  0  0  0  0  0  0
  -21.9300   -4.5620   23.5730 C   0  0  0  0  0  3  0  0  0  0  0  0
  -22.1530   -5.3190   22.4090 C   0  0  0  0  0  0  0  0  0  0  0  0
  -22.6780   -4.7240   21.3110 F   0  0  0  0  0  0  0  0  0  0  0  0
  -21.1460   -4.4370   25.8250 F   0  0  0  0  0  0  0  0  0  0  0  0
  -23.1960  -13.9920   21.0320 C   0  0  0  0  0  0  0  0  0  0  0  0
  -22.4720  -13.2920   21.8980 N   0  0  0  0  0  0  0  0  0  0  0  0
  -22.7670  -15.0360   20.5410 O   0  0  0  0  0  0  0  0  0  0  0  0
  -22.8270  -12.4470   22.3210 H   0  0  0  0  0  0  0  0  0  0  0  0
  -21.5460  -13.6090   22.1420 H   0  0  0  0  0  0  0  0  0  0  0  0
  -25.8220  -15.6450   20.2110 N   0  0  0  0  0  0  0  0  0  0  0  0
  -25.0740  -16.3110   20.3670 H   0  0  0  0  0  0  0  0  0  0  0  0
  -26.6790  -16.0750   19.8910 H   0  0  0  0  0  0  0  0  0  0  0  0
  -26.8150  -20.8060   20.4200 C   0  0  0  0  0  1  0  0  0  0  0  0
  -26.9870  -22.2930   18.4210 C   0  0  0  0  0  1  0  0  0  0  0  0
  -26.4440  -23.2000   20.7250 C   0  0  0  0  0  1  0  0  0  0  0  0
  -27.2970  -22.1880   19.9240 C   0  0  2  0  0  0  0  0  0  0  0  0
  -29.0590  -24.3290   19.7620 C   0  0  0  0  0  2  0  0  0  0  0  0
  -28.7600  -25.9780   20.2920 O   0  0  0  0  0  0  0  0  0  0  0  0
  -24.8360  -31.8890   23.2570 C   0  0  0  0  0  0  0  0  0  0  0  0
  -27.7260  -27.1180   20.1510 C   0  0  0  0  0  0  0  0  0  0  0  0
  -23.7860  -30.5330   21.4920 C   0  0  0  0  0  3  0  0  0  0  0  0
  -25.3670  -29.0300   20.0630 C   0  0  0  0  0  0  0  0  0  0  0  0
  -26.3520  -30.8070   21.4950 C   0  0  0  0  0  2  0  0  0  0  0  0
  -26.5060  -29.4130   20.7780 C   0  0  0  0  0  0  0  0  0  0  0  0
  -27.6640  -28.4830   20.7950 C   0  0  0  0  0  3  0  0  0  0  0  0
  -26.5540  -26.9400   19.3740 C   0  0  0  0  0  3  0  0  0  0  0  0
  -25.4300  -27.8240   19.3370 C   0  0  0  0  0  3  0  0  0  0  0  0
  -24.1140  -29.9210   20.0960 C   0  0  0  0  0  2  0  0  0  0  0  0
  -25.0110  -31.1080   22.1370 N   0  0  0  0  0  0  0  0  0  0  0  0
  -23.7090  -32.1080   23.7350 O   0  0  0  0  0  0  0  0  0  0  0  0
  -23.0720  -29.4770   22.3790 C   0  0  0  0  0  0  0  0  0  0  0  0
  -21.7420  -29.3220   22.2290 N   0  0  0  0  0  0  0  0  0  0  0  0
  -23.7260  -28.7980   23.1700 O   0  0  0  0  0  0  0  0  0  0  0  0
  -21.2650  -29.9240   21.5720 H   0  0  0  0  0  0  0  0  0  0  0  0
  -18.3470  -28.1060   22.6820 C   0  0  0  0  0  0  0  0  0  0  0  0
  -20.9160  -28.3200   22.9160 C   0  0  0  0  0  3  0  0  0  0  0  0
  -20.9860  -26.9530   22.1940 C   0  0  0  0  0  2  0  0  0  0  0  0
  -19.8590  -26.7480   21.1760 C   0  0  0  0  0  2  0  0  0  0  0  0
  -18.4920  -26.8370   21.8590 C   0  0  0  0  0  2  0  0  0  0  0  0
  -19.4830  -28.8110   23.1630 C   0  0  0  0  0  0  0  0  0  0  0  0
  -19.2850  -29.9990   23.8990 C   0  0  0  0  0  3  0  0  0  0  0  0
  -17.9890  -30.4840   24.1530 C   0  0  0  0  0  3  0  0  0  0  0  0
  -16.8680  -29.7770   23.6840 C   0  0  0  0  0  3  0  0  0  0  0  0
  -17.0490  -28.5880   22.9550 C   0  0  0  0  0  3  0  0  0  0  0  0
  -26.0380  -32.5570   23.9920 C   0  0  0  0  0  3  0  0  0  0  0  0
  -25.6810  -33.9590   24.2920 N   0  0  0  0  0  0  0  0  0  0  0  0
  -26.0180  -35.0180   23.5420 C   0  0  0  0  0  0  0  0  0  0  0  0
  -26.7220  -34.9180   22.5330 O   0  0  0  0  0  0  0  0  0  0  0  0
  -25.0680  -34.1090   25.0800 H   0  0  0  0  0  0  0  0  0  0  0  0
  -24.2470  -36.7660   23.1590 C   0  0  0  0  0  1  0  0  0  0  0  0
  -25.4990  -36.4050   23.9760 C   0  0  0  0  0  3  0  0  0  0  0  0
  -27.6020  -37.3750   24.7980 C   0  0  0  0  0  1  0  0  0  0  0  0
  -26.5070  -37.4820   23.8380 N   0  0  0  0  0  0  0  0  0  0  0  0
  -26.0760  -38.3950   23.9470 H   0  0  0  0  0  0  0  0  0  0  0  0
  -26.4330  -31.8110   25.3270 C   0  0  1  0  0  0  0  0  0  0  0  0
  -25.2420  -31.5600   26.2830 C   0  0  0  0  0  1  0  0  0  0  0  0
  -27.0810  -30.4420   25.0240 C   0  0  0  0  0  1  0  0  0  0  0  0
  -27.4970  -32.6350   26.0890 C   0  0  0  0  0  1  0  0  0  0  0  0
  1 51  1  0
  3  8  1  0
  4  5  1  0
  4  3  1  0
  6  5  1  0
  6 22  1  0
  6  7  1  0
  8  2  1  0
  8  7  1  0
  9  2  2  0
 10 11  1  0
 12 10  1  0
 17 12  1  6
 14 18  1  0
 14 13  1  0
 16 15  1  0
 16 17  1  0
 16  1  1  0
 17 13  1  0
 17 11  1  0
 18  2  1  0
 18 15  1  0
 19 20  2  0
 20 39  1  0
 21 20  1  0
 21 24  1  0
 22 23  1  0
 22 19  1  0
 23 21  2  0
 24 25  1  0
 25 26  2  0
 27 30  1  0
 27 26  1  0
 28 27  2  0
 29 28  1  0
 29 24  2  0
 30 31  1  0
 31 36  2  0
 31 32  1  0
 32 33  2  0
 33 34  1  0
 34 38  1  0
 35 34  2  0
 36 35  1  0
 37 36  1  0
 39 40  1  0
 40 43  1  0
 40 42  1  0
 41 39  2  0
 44 19  1  0
 44 45  1  0
 46 44  1  0
 50 48  1  6
 50  1  1  0
 50 47  1  0
 50 49  1  0
 51 52  1  0
 53 64  2  0
 54 52  1  0
 54 59  1  0
 55 63  1  0
 55 65  1  0
 56 62  1  0
 56 58  1  0
 57 63  1  0
 58 59  2  0
 58 57  1  0
 60 54  2  0
 61 60  1  0
 61 56  2  0
 62 55  1  0
 63 53  1  0
 65 67  2  0
 66 65  1  0
 68 66  1  0
 69 78  2  0
 69 74  1  0
 70 66  1  0
 70 74  1  0
 71 70  1  0
 72 73  1  0
 72 71  1  0
 73 69  1  0
 74 75  2  0
 75 76  1  0
 77 76  2  0
 78 77  1  0
 79 53  1  0
 79 80  1  0
 79 89  1  0
 80 83  1  0
 81 85  1  0
 81 80  1  0
 82 81  2  0
 85 84  1  0
 87 88  1  0
 87 85  1  0
 87 86  1  0
 89 92  1  1
 89 90  1  0
 91 89  1  0
M  ISO  4   2 100  18 100  51 101  52 101
M  END
>  <TORSDO>  (11) 
F 18

>  <SCORE>  (11) 
-14.734

>  <name>  (11) 
10

>  <ligand_id>  (11) 
10

>  <original_smiles>  (11) 
[H]c1c([H])c([H])c2c(c1[H])C([H])([H])C([H])([H])C([H])([H])C2([H])N([H])C(=O)C1([H])N(C(=O)C([H])(N([H])C(=O)C([H])(N([H])C([H])([H])[H])C([H])([H])[H])C(C([H])([H])[H])(C([H])([H])[H])C([H])([H])[H])C([H])([H])c2c([H])c(OC([H])([H])C([H])(C3([H])C([H])([H])N(C(=O)N4C([H])([H])C([H])([H])C([H])([H])C([H])(n5nc(-c6c([H])c([H])c(Oc7c([H])c([H])c(F)c([H])c7F)c([H])c6[H])c(C(=O)N([H])[H])c5N([H])[H])C4([H])[H])C([H])([H])C([H])([H])C34C([H])([H])C([H])([H])C4([H])[H])C(C([H])([H])[H])(C([H])([H])[H])C([H])([H])[H])c([H])c([H])c2C1([H])[H]

>  <smiles>  (11) 
[H]c1c([H])c([H])c2c(c1[H])C([H])([H])C([H])([H])C([H])([H])C2([H])N([H])C(=O)C1([H])N(C(=O)C([H])(N([H])C(=O)C([H])(N([H])C([H])([H])[H])C([H])([H])[H])C(C([H])([H])[H])(C([H])([H])[H])C([H])([H])[H])C([H])([H])c2c([H])c(OC([H])([H])C([H])(C3([H])C([H])([H])N(C(=O)N4C([H])([H])C([H])([H])C([H])([H])C([H])(n5nc(-c6c([H])c([H])c(Oc7c([H])c([H])c(F)c([H])c7F)c([H])c6[H])c(C(=O)N([H])[H])c5N([H])[H])C4([H])[H])C([H])([H])C([H])([H])C34C([H])([H])C([H])([H])C4([H])[H])C(C([H])([H])[H])(C([H])([H])[H])C([H])([H])[H])c([H])c([H])c2C1([H])[H]

$$$$
11:0:0
     RDKit          3D

 90 97  0  0  1  0  0  0  0  0999 V2000
  -29.6270  -20.6810   19.9080 C   0  0  0  0  0  0  0  0  0  0  0  0
  -29.0180  -21.8690   20.4100 N   0  0  0  0  0  0  0  0  0  0  0  0
  -30.3940  -20.8060   18.9510 O   0  0  0  0  0  0  0  0  0  0  0  0
  -28.3940  -21.7060   21.1910 H   0  0  0  0  0  0  0  0  0  0  0  0
  -29.4150  -19.1260   20.4760 C   0  0  0  0  0  2  0  0  0  0  0  0
  -30.1930  -17.7380   19.8770 C   0  0  0  0  0  0  0  0  0  0  0  0
  -30.5860  -14.9950   20.2470 C   0  0  0  0  0  0  0  0  0  0  0  0
  -30.3860  -12.6310   19.3680 C   0  0  0  0  0  2  0  0  0  0  0  0
  -29.4890  -12.6400   18.1100 C   0  0  0  0  0  2  0  0  0  0  0  0
  -28.0250  -12.4060   18.5330 C   0  0  0  0  0  2  0  0  0  0  0  0
  -27.5980  -13.3360   19.7010 C   0  0  0  0  0  3  0  0  0  0  0  0
  -28.6410  -13.4030   20.8370 C   0  0  0  0  0  2  0  0  0  0  0  0
  -29.9340  -13.7590   20.2330 N   0  0  0  0  0  0  0  0  0  0  0  0
  -31.7890  -14.9840   19.9910 O   0  0  0  0  0  0  0  0  0  0  0  0
  -29.8640  -16.2340   20.3200 N   0  0  0  0  0  4  0  0  0  0  0  0
  -28.8870  -16.0910   20.5210 H   0  0  0  0  0  0  0  0  0  0  0  0
  -25.2120  -13.8890   20.4420 C   0  0  0  0  0  0  0  0  0  0  0  0
  -24.1570  -13.1110   20.8230 C   0  0  0  0  0  0  0  0  0  0  0  0
  -24.6300  -11.7630   20.7980 C   0  0  0  0  0  0  0  0  0  0  0  0
  -26.2640  -13.0230   20.2070 N   0  0  0  0  0  0  0  0  0  0  0  0
  -25.9230  -11.7340   20.4850 N   0  0  0  0  0  0  0  0  0  0  0  0
  -23.9110  -10.4960   20.9940 C   0  0  0  0  0  0  0  0  0  0  0  0
  -24.3390   -9.5420   21.9430 C   0  0  0  0  0  3  0  0  0  0  0  0
  -23.6150   -8.3430   22.1280 C   0  0  0  0  0  3  0  0  0  0  0  0
  -22.4500   -8.0900   21.3620 C   0  0  0  0  0  0  0  0  0  0  0  0
  -22.0430   -9.0350   20.4050 C   0  0  0  0  0  3  0  0  0  0  0  0
  -22.7660  -10.2250   20.2160 C   0  0  0  0  0  3  0  0  0  0  0  0
  -21.6970   -6.9440   21.4510 O   0  0  0  0  0  0  0  0  0  0  0  0
  -21.6360   -6.2130   22.6100 C   0  0  0  0  0  0  0  0  0  0  0  0
  -21.1960   -6.7820   23.8260 C   0  0  0  0  0  3  0  0  0  0  0  0
  -21.0830   -5.9760   24.9770 C   0  0  0  0  0  3  0  0  0  0  0  0
  -21.4030   -4.6070   24.9140 C   0  0  0  0  0  0  0  0  0  0  0  0
  -21.8420   -4.0410   23.7050 C   0  0  0  0  0  3  0  0  0  0  0  0
  -21.9590   -4.8430   22.5560 C   0  0  0  0  0  0  0  0  0  0  0  0
  -22.3610   -4.2890   21.3860 F   0  0  0  0  0  0  0  0  0  0  0  0
  -21.2880   -3.8340   26.0200 F   0  0  0  0  0  0  0  0  0  0  0  0
  -22.7550  -13.5800   21.0880 C   0  0  0  0  0  0  0  0  0  0  0  0
  -22.0310  -12.8850   21.9570 N   0  0  0  0  0  0  0  0  0  0  0  0
  -22.3150  -14.6020   20.5630 O   0  0  0  0  0  0  0  0  0  0  0  0
  -22.4010  -12.0670   22.4140 H   0  0  0  0  0  0  0  0  0  0  0  0
  -21.0930  -13.1810   22.1740 H   0  0  0  0  0  0  0  0  0  0  0  0
  -25.3520  -15.2590   20.2500 N   0  0  0  0  0  0  0  0  0  0  0  0
  -24.5400  -15.8660   20.2900 H   0  0  0  0  0  0  0  0  0  0  0  0
  -26.1620  -15.7150   19.8590 H   0  0  0  0  0  0  0  0  0  0  0  0
  -31.7070  -18.0010   19.8030 C   0  0  0  0  0  0  0  0  0  0  0  0
  -32.4030  -18.0050   18.4390 C   0  0  0  0  0  1  0  0  0  0  0  0
  -32.3770  -18.2210   20.8130 O   0  0  0  0  0  0  0  0  0  0  0  0
  -29.2320  -23.4130   20.0920 C   0  0  0  0  0  3  0  0  0  0  0  0
  -28.0970  -24.6470   20.3250 C   0  0  0  0  0  3  0  0  0  0  0  0
  -28.3090  -26.1980   20.2320 O   0  0  0  0  0  0  0  0  0  0  0  0
  -24.6270  -31.8720   23.2320 C   0  0  0  0  0  0  0  0  0  0  0  0
  -27.2200  -27.1520   20.2050 C   0  0  0  0  0  0  0  0  0  0  0  0
  -23.4240  -30.4680   21.6050 C   0  0  0  0  0  3  0  0  0  0  0  0
  -24.8690  -28.8830   20.1880 C   0  0  0  0  0  0  0  0  0  0  0  0
  -25.9710  -30.7390   21.4210 C   0  0  0  0  0  2  0  0  0  0  0  0
  -26.0510  -29.3370   20.7840 C   0  0  0  0  0  0  0  0  0  0  0  0
  -27.2260  -28.4930   20.7710 C   0  0  0  0  0  3  0  0  0  0  0  0
  -26.0080  -26.7980   19.5730 C   0  0  0  0  0  3  0  0  0  0  0  0
  -24.8610  -27.6230   19.5670 C   0  0  0  0  0  3  0  0  0  0  0  0
  -23.6460  -29.7880   20.2290 C   0  0  0  0  0  2  0  0  0  0  0  0
  -24.6960  -31.0470   22.1450 N   0  0  0  0  0  0  0  0  0  0  0  0
  -23.5390  -32.1590   23.7560 O   0  0  0  0  0  0  0  0  0  0  0  0
  -22.7480  -29.4640   22.5730 C   0  0  0  0  0  0  0  0  0  0  0  0
  -21.4190  -29.2930   22.4500 N   0  0  0  0  0  0  0  0  0  0  0  0
  -23.4180  -28.8410   23.3990 O   0  0  0  0  0  0  0  0  0  0  0  0
  -20.9260  -29.8580   21.7730 H   0  0  0  0  0  0  0  0  0  0  0  0
  -18.0390  -28.0820   22.9600 C   0  0  0  0  0  0  0  0  0  0  0  0
  -20.5980  -28.3540   23.2240 C   0  0  0  0  0  3  0  0  0  0  0  0
  -20.7020  -26.9190   22.6580 C   0  0  0  0  0  2  0  0  0  0  0  0
  -19.6000  -26.5860   21.6460 C   0  0  0  0  0  2  0  0  0  0  0  0
  -18.2180  -26.7300   22.2910 C   0  0  0  0  0  2  0  0  0  0  0  0
  -19.1550  -28.8520   23.3840 C   0  0  0  0  0  0  0  0  0  0  0  0
  -18.9330  -30.1150   23.9760 C   0  0  0  0  0  3  0  0  0  0  0  0
  -17.6260  -30.6120   24.1410 C   0  0  0  0  0  3  0  0  0  0  0  0
  -16.5260  -29.8440   23.7280 C   0  0  0  0  0  3  0  0  0  0  0  0
  -16.7310  -28.5790   23.1470 C   0  0  0  0  0  3  0  0  0  0  0  0
  -25.9020  -32.5160   23.8590 C   0  0  0  0  0  3  0  0  0  0  0  0
  -25.5870  -33.9170   24.1870 N   0  0  0  0  0  0  0  0  0  0  0  0
  -25.9130  -34.9710   23.4270 C   0  0  0  0  0  0  0  0  0  0  0  0
  -26.5760  -34.8660   22.3910 O   0  0  0  0  0  0  0  0  0  0  0  0
  -25.0060  -34.0740   24.9970 H   0  0  0  0  0  0  0  0  0  0  0  0
  -24.1850  -36.7700   23.0810 C   0  0  0  0  0  1  0  0  0  0  0  0
  -25.4290  -36.3610   23.8860 C   0  0  0  0  0  3  0  0  0  0  0  0
  -27.5740  -37.2430   24.7000 C   0  0  0  0  0  1  0  0  0  0  0  0
  -26.4610  -37.4120   23.7700 N   0  0  0  0  0  0  0  0  0  0  0  0
  -26.0590  -38.3330   23.9220 H   0  0  0  0  0  0  0  0  0  0  0  0
  -26.4090  -31.7550   25.1440 C   0  0  1  0  0  0  0  0  0  0  0  0
  -25.3100  -31.5360   26.2120 C   0  0  0  0  0  1  0  0  0  0  0  0
  -26.9900  -30.3730   24.7650 C   0  0  0  0  0  1  0  0  0  0  0  0
  -27.5570  -32.5520   25.8070 C   0  0  0  0  0  1  0  0  0  0  0  0
  1  2  1  0
  1  5  1  0
  2  4  1  0
  3  1  2  0
  6 15  2  0
  6  5  1  0
  7 15  1  0
  8 13  1  0
  9 10  1  0
  9  8  1  0
 11 10  1  0
 11 20  1  0
 11 12  1  0
 13  7  1  0
 13 12  1  0
 14  7  2  0
 15 16  1  0
 17 18  2  0
 18 37  1  0
 19 18  1  0
 19 22  1  0
 20 17  1  0
 20 21  1  0
 21 19  2  0
 22 23  1  0
 23 24  2  0
 25 28  1  0
 25 24  1  0
 26 25  2  0
 27 26  1  0
 27 22  2  0
 28 29  1  0
 29 30  1  0
 30 31  2  0
 32 31  1  0
 32 36  1  0
 33 32  2  0
 34 29  2  0
 34 33  1  0
 35 34  1  0
 37 38  1  0
 38 41  1  0
 38 40  1  0
 39 37  2  0
 42 43  1  0
 42 17  1  0
 44 42  1  0
 45  6  1  0
 45 47  2  0
 46 45  1  0
 48 49  2  0
 48  2  1  0
 50 49  1  0
 51 62  2  0
 52 50  1  0
 52 57  1  0
 53 61  1  0
 53 63  1  0
 54 60  1  0
 54 56  1  0
 55 61  1  0
 56 55  1  0
 57 56  2  0
 58 52  2  0
 59 58  1  0
 59 54  2  0
 60 53  1  0
 61 51  1  0
 63 65  2  0
 64 63  1  0
 66 64  1  0
 67 76  2  0
 67 72  1  0
 68 64  1  0
 68 72  1  0
 69 68  1  0
 70 71  1  0
 70 69  1  0
 71 67  1  0
 72 73  2  0
 73 74  1  0
 75 74  2  0
 76 75  1  0
 77 51  1  0
 77 78  1  0
 77 87  1  0
 78 81  1  0
 79 83  1  0
 79 78  1  0
 80 79  2  0
 83 82  1  0
 85 83  1  0
 85 86  1  0
 85 84  1  0
 87 90  1  1
 87 88  1  0
 89 87  1  0
M  ISO  4   7 100  15 100  49 101  50 101
M  END
>  <TORSDO>  (12) 
F 21

>  <SCORE>  (12) 
-13.904

>  <name>  (12) 
11

>  <ligand_id>  (12) 
11

>  <original_smiles>  (12) 
[H]c1c([H])c([H])c2c(c1[H])C([H])([H])C([H])([H])C([H])([H])C2([H])N([H])C(=O)C1([H])N(C(=O)C([H])(N([H])C(=O)C([H])(N([H])C([H])([H])[H])C([H])([H])[H])C(C([H])([H])[H])(C([H])([H])[H])C([H])([H])[H])C([H])([H])c2c([H])c(OC([H])([H])C([H])([H])N([H])C(=O)C([H])([H])C([H])(C(=O)C([H])([H])[H])N([H])C(=O)N3C([H])([H])C([H])([H])C([H])([H])C([H])(n4nc(-c5c([H])c([H])c(Oc6c([H])c([H])c(F)c([H])c6F)c([H])c5[H])c(C(=O)N([H])[H])c4N([H])[H])C3([H])[H])c([H])c([H])c2C1([H])[H]

>  <smiles>  (12) 
[H]c1c([H])c([H])c2c(c1[H])C([H])([H])C([H])([H])C([H])([H])C2([H])N([H])C(=O)C1([H])N(C(=O)C([H])(N([H])C(=O)C([H])(N([H])C([H])([H])[H])C([H])([H])[H])C(C([H])([H])[H])(C([H])([H])[H])C([H])([H])[H])C([H])([H])c2c([H])c(OC([H])([H])C([H])([H])N([H])C(=O)C([H])([H])C([H])(C(=O)C([H])([H])[H])N([H])C(=O)N3C([H])([H])C([H])([H])C([H])([H])C([H])(n4nc(-c5c([H])c([H])c(Oc6c([H])c([H])c(F)c([H])c6F)c([H])c5[H])c(C(=O)N([H])[H])c4N([H])[H])C3([H])[H])c([H])c([H])c2C1([H])[H]

$$$$
12:0:0
     RDKit          3D

 94101  0  0  1  0  0  0  0  0999 V2000
  -28.7370  -20.5720   21.2250 C   0  0  0  0  0  3  0  0  0  0  0  0
  -29.4540  -19.5140   20.4210 C   0  0  0  0  0  3  0  0  0  0  0  0
  -30.3470  -18.2690   22.4460 C   0  0  0  0  0  1  0  0  0  0  0  0
  -29.7280  -18.1530   21.0610 C   0  0  0  0  0  3  0  0  0  0  0  0
  -30.5740  -17.1560   20.2240 C   0  0  0  0  0  3  0  0  0  0  0  0
  -31.1240  -14.6700   20.3510 C   0  0  0  0  0  0  0  0  0  0  0  0
  -30.7290  -12.6120   19.0780 C   0  0  0  0  0  2  0  0  0  0  0  0
  -29.7760  -12.9710   17.9210 C   0  0  0  0  0  2  0  0  0  0  0  0
  -28.3040  -12.8490   18.3600 C   0  0  0  0  0  2  0  0  0  0  0  0
  -28.0190  -13.6010   19.6950 C   0  0  0  0  0  3  0  0  0  0  0  0
  -29.0780  -13.2640   20.7650 C   0  0  0  0  0  2  0  0  0  0  0  0
  -30.4190  -13.5270   20.1860 N   0  0  0  0  0  0  0  0  0  0  0  0
  -32.2860  -14.8260   19.9320 O   0  0  0  0  0  0  0  0  0  0  0  0
  -30.3980  -15.7370   20.7150 N   0  0  0  0  0  0  0  0  0  0  0  0
  -29.5230  -15.5060   21.1770 H   0  0  0  0  0  0  0  0  0  0  0  0
  -25.6320  -14.2460   20.3930 C   0  0  0  0  0  0  0  0  0  0  0  0
  -24.5500  -13.4870   20.7530 C   0  0  0  0  0  0  0  0  0  0  0  0
  -24.9810  -12.1240   20.7030 C   0  0  0  0  0  0  0  0  0  0  0  0
  -26.6600  -13.3450   20.1550 N   0  0  0  0  0  0  0  0  0  0  0  0
  -26.2690  -12.0630   20.3970 N   0  0  0  0  0  0  0  0  0  0  0  0
  -24.2260  -10.8740   20.8620 C   0  0  0  0  0  0  0  0  0  0  0  0
  -24.6250   -9.8910   21.7950 C   0  0  0  0  0  3  0  0  0  0  0  0
  -23.8800   -8.7020   21.9460 C   0  0  0  0  0  3  0  0  0  0  0  0
  -22.7100   -8.5000   21.1760 C   0  0  0  0  0  0  0  0  0  0  0  0
  -22.3270   -9.4730   20.2320 C   0  0  0  0  0  3  0  0  0  0  0  0
  -23.0750  -10.6520   20.0820 C   0  0  0  0  0  3  0  0  0  0  0  0
  -21.9410   -7.3640   21.2430 O   0  0  0  0  0  0  0  0  0  0  0  0
  -21.8410   -6.6190   22.3950 C   0  0  0  0  0  0  0  0  0  0  0  0
  -21.4070   -7.1850   23.6120 C   0  0  0  0  0  3  0  0  0  0  0  0
  -21.2610   -6.3790   24.7540 C   0  0  0  0  0  3  0  0  0  0  0  0
  -21.5250   -4.9990   24.6770 C   0  0  0  0  0  0  0  0  0  0  0  0
  -21.9450   -4.4240   23.4640 C   0  0  0  0  0  3  0  0  0  0  0  0
  -22.0940   -5.2320   22.3230 C   0  0  0  0  0  0  0  0  0  0  0  0
  -22.4830   -4.6780   21.1460 F   0  0  0  0  0  0  0  0  0  0  0  0
  -21.3710   -4.2150   25.7680 F   0  0  0  0  0  0  0  0  0  0  0  0
  -23.1600  -13.9930   21.0180 C   0  0  0  0  0  0  0  0  0  0  0  0
  -22.4130  -13.3100   21.8830 N   0  0  0  0  0  0  0  0  0  0  0  0
  -22.7390  -15.0300   20.5060 O   0  0  0  0  0  0  0  0  0  0  0  0
  -22.7580  -12.4780   22.3390 H   0  0  0  0  0  0  0  0  0  0  0  0
  -21.4780  -13.6280   22.0980 H   0  0  0  0  0  0  0  0  0  0  0  0
  -25.8300  -15.6110   20.2360 N   0  0  0  0  0  0  0  0  0  0  0  0
  -25.0820  -16.2820   20.3330 H   0  0  0  0  0  0  0  0  0  0  0  0
  -26.6920  -16.0190   19.9010 H   0  0  0  0  0  0  0  0  0  0  0  0
  -30.4040  -17.2890   18.7020 C   0  0  0  0  0  2  0  0  0  0  0  0
  -30.6580  -17.7220   16.2180 C   0  0  0  0  0  1  0  0  0  0  0  0
  -32.1450  -18.8310   17.9110 C   0  0  0  0  0  1  0  0  0  0  0  0
  -30.7980  -18.2820   17.6540 C   0  0  0  0  0  3  0  0  0  0  0  0
  -28.1320  -21.7270   20.4370 C   0  0  0  0  0  2  0  0  0  0  0  0
  -28.1560  -23.0390   21.1160 N   0  0  0  0  0  4  0  0  0  0  0  0
  -27.4630  -23.0280   21.8450 H   0  0  0  0  0  0  0  0  0  0  0  0
  -29.0390  -23.1320   21.5710 H   0  0  0  0  0  0  0  0  0  0  0  0
  -27.9310  -24.2080   20.2340 C   0  0  0  0  0  2  0  0  0  0  0  0
  -28.4090  -25.5520   20.8570 C   0  0  0  0  0  2  0  0  0  0  0  0
  -28.3420  -26.7220   20.0040 O   0  0  0  0  0  0  0  0  0  0  0  0
  -24.5940  -31.8990   23.2060 C   0  0  0  0  0  0  0  0  0  0  0  0
  -27.1810  -27.4520   20.0780 C   0  0  0  0  0  0  0  0  0  0  0  0
  -23.3570  -30.5100   21.5680 C   0  0  0  0  0  3  0  0  0  0  0  0
  -24.7910  -28.9660   20.1170 C   0  0  0  0  0  0  0  0  0  0  0  0
  -25.8810  -30.8590   21.3430 C   0  0  0  0  0  2  0  0  0  0  0  0
  -25.9610  -29.4860   20.6950 C   0  0  0  0  0  0  0  0  0  0  0  0
  -27.1580  -28.7340   20.6810 C   0  0  0  0  0  3  0  0  0  0  0  0
  -26.0050  -26.9590   19.4790 C   0  0  0  0  0  3  0  0  0  0  0  0
  -24.8110  -27.6950   19.5220 C   0  0  0  0  0  3  0  0  0  0  0  0
  -23.5510  -29.8370   20.1830 C   0  0  0  0  0  2  0  0  0  0  0  0
  -24.6270  -31.1040   22.1010 N   0  0  0  0  0  0  0  0  0  0  0  0
  -23.5270  -32.1730   23.7610 O   0  0  0  0  0  0  0  0  0  0  0  0
  -22.7240  -29.4860   22.5290 C   0  0  0  0  0  0  0  0  0  0  0  0
  -21.4010  -29.2930   22.4220 N   0  0  0  0  0  0  0  0  0  0  0  0
  -23.4160  -28.8700   23.3430 O   0  0  0  0  0  0  0  0  0  0  0  0
  -20.8970  -29.8510   21.7480 H   0  0  0  0  0  0  0  0  0  0  0  0
  -18.0440  -28.0680   22.9430 C   0  0  0  0  0  0  0  0  0  0  0  0
  -20.6030  -28.3450   23.1940 C   0  0  0  0  0  3  0  0  0  0  0  0
  -20.7080  -26.9150   22.6170 C   0  0  0  0  0  2  0  0  0  0  0  0
  -19.5930  -26.5860   21.6150 C   0  0  0  0  0  2  0  0  0  0  0  0
  -18.2170  -26.7240   22.2720 C   0  0  0  0  0  2  0  0  0  0  0  0
  -19.1590  -28.8350   23.3700 C   0  0  0  0  0  0  0  0  0  0  0  0
  -18.9440  -30.0980   23.9610 C   0  0  0  0  0  3  0  0  0  0  0  0
  -17.6370  -30.5910   24.1420 C   0  0  0  0  0  3  0  0  0  0  0  0
  -16.5310  -29.8210   23.7380 C   0  0  0  0  0  3  0  0  0  0  0  0
  -16.7380  -28.5620   23.1450 C   0  0  0  0  0  3  0  0  0  0  0  0
  -25.8930  -32.5310   23.8050 C   0  0  0  0  0  3  0  0  0  0  0  0
  -26.4450  -31.7400   25.0510 C   0  0  1  0  0  0  0  0  0  0  0  0
  -25.3790  -31.4810   26.1400 C   0  0  0  0  0  1  0  0  0  0  0  0
  -27.0350  -30.3730   24.6300 C   0  0  0  0  0  1  0  0  0  0  0  0
  -27.5980  -32.5380   25.7070 C   0  0  0  0  0  1  0  0  0  0  0  0
  -25.5820  -33.9160   24.1590 N   0  0  0  0  0  0  0  0  0  0  0  0
  -25.9070  -34.9850   23.4200 C   0  0  0  0  0  0  0  0  0  0  0  0
  -26.5710  -34.9040   22.3830 O   0  0  0  0  0  0  0  0  0  0  0  0
  -24.9980  -34.0540   24.9730 H   0  0  0  0  0  0  0  0  0  0  0  0
  -24.1740  -36.7790   23.1070 C   0  0  0  0  0  1  0  0  0  0  0  0
  -25.4130  -36.3580   23.9110 C   0  0  0  0  0  3  0  0  0  0  0  0
  -27.5490  -37.2260   24.7620 C   0  0  0  0  0  1  0  0  0  0  0  0
  -26.4490  -37.4160   23.8240 N   0  0  0  0  0  0  0  0  0  0  0  0
  -26.0380  -38.3350   24.0000 H   0  0  0  0  0  0  0  0  0  0  0  0
  2  4  1  0
  2  1  2  0
  4  3  1  0
  5 44  1  0
  5 14  1  0
  5  4  1  0
  6 14  1  0
  7 12  1  0
  8  9  1  0
  8  7  1  0
 10  9  1  0
 10 19  1  0
 10 11  1  0
 12  6  1  0
 12 11  1  0
 13  6  2  0
 14 15  1  0
 16 17  2  0
 17 36  1  0
 18 17  1  0
 18 21  1  0
 19 16  1  0
 19 20  1  0
 20 18  2  0
 21 22  1  0
 22 23  2  0
 24 27  1  0
 24 23  1  0
 25 24  2  0
 26 25  1  0
 26 21  2  0
 27 28  1  0
 28 29  1  0
 29 30  2  0
 31 30  1  0
 31 35  1  0
 32 31  2  0
 33 28  2  0
 33 32  1  0
 34 33  1  0
 36 37  1  0
 37 40  1  0
 37 39  1  0
 38 36  2  0
 41 42  1  0
 41 16  1  0
 43 41  1  0
 45 47  1  0
 47 46  1  0
 47 44  1  0
 48 49  1  0
 48  1  1  0
 49 51  1  0
 49 50  1  0
 52 53  1  0
 52 49  1  0
 54 56  1  0
 54 53  1  0
 55 66  2  0
 56 61  1  0
 57 65  1  0
 57 67  1  0
 58 64  1  0
 58 60  1  0
 59 65  1  0
 60 59  1  0
 61 60  2  0
 62 63  1  0
 62 56  2  0
 63 58  2  0
 64 57  1  0
 65 55  1  0
 67 69  2  0
 68 67  1  0
 70 68  1  0
 71 80  2  0
 71 76  1  0
 72 68  1  0
 72 76  1  0
 73 72  1  0
 74 75  1  0
 74 73  1  0
 75 71  1  0
 76 77  2  0
 77 78  1  0
 79 78  2  0
 80 79  1  0
 81 55  1  0
 81 86  1  0
 81 82  1  0
 82 85  1  1
 82 83  1  0
 84 82  1  0
 86 89  1  0
 87 91  1  0
 87 86  1  0
 88 87  2  0
 91 90  1  0
 93 91  1  0
 93 94  1  0
 93 92  1  0
M  ISO  4   6 100  14 100  53 101  54 101
M  END
>  <TORSDO>  (13) 
F 25

>  <SCORE>  (13) 
-11.200

>  <name>  (13) 
12

>  <ligand_id>  (13) 
12

>  <original_smiles>  (13) 
[H]c1c([H])c([H])c2c(c1[H])C([H])([H])C([H])([H])C([H])([H])C2([H])N([H])C(=O)C1([H])N(C(=O)C([H])(N([H])C(=O)C([H])(N([H])C([H])([H])[H])C([H])([H])[H])C(C([H])([H])[H])(C([H])([H])[H])C([H])([H])[H])C([H])([H])c2c([H])c(OC([H])([H])C([H])([H])[N+]([H])([H])C([H])([H])C([H])([H])C([H])([H])C([H])(C([H])([H])[H])C([H])(N([H])C(=O)N3C([H])([H])C([H])([H])C([H])([H])C([H])(n4nc(-c5c([H])c([H])c(Oc6c([H])c([H])c(F)c([H])c6F)c([H])c5[H])c(C(=O)N([H])[H])c4N([H])[H])C3([H])[H])C([H])([H])C([H])(C([H])([H])[H])C([H])([H])[H])c([H])c([H])c2C1([H])[H]

>  <smiles>  (13) 
[H]c1c([H])c([H])c2c(c1[H])C([H])([H])C([H])([H])C([H])([H])C2([H])N([H])C(=O)C1([H])N(C(=O)C([H])(N([H])C(=O)C([H])(N([H])C([H])([H])[H])C([H])([H])[H])C(C([H])([H])[H])(C([H])([H])[H])C([H])([H])[H])C([H])([H])c2c([H])c(OC([H])([H])C([H])([H])[N+]([H])([H])C([H])([H])C([H])([H])C([H])([H])C([H])(C([H])([H])[H])C([H])(N([H])C(=O)N3C([H])([H])C([H])([H])C([H])([H])C([H])(n4nc(-c5c([H])c([H])c(Oc6c([H])c([H])c(F)c([H])c6F)c([H])c5[H])c(C(=O)N([H])[H])c4N([H])[H])C3([H])[H])C([H])([H])C([H])(C([H])([H])[H])C([H])([H])[H])c([H])c([H])c2C1([H])[H]

$$$$
13:0:0
     RDKit          3D

105112  0  0  1  0  0  0  0  0999 V2000
  -29.9300  -18.7710   20.1250 C   0  0  0  0  0  3  0  0  0  0  0  0
  -29.5600  -20.1570   20.6770 N   0  0  0  0  0  4  0  0  0  0  0  0
  -28.5900  -20.1100   20.9480 H   0  0  0  0  0  0  0  0  0  0  0  0
  -30.0880  -20.2840   21.5250 H   0  0  0  0  0  0  0  0  0  0  0  0
  -29.7510  -21.4540   19.8880 C   0  0  0  0  0  2  0  0  0  0  0  0
  -28.7970  -22.6910   20.2830 C   0  0  0  0  0  2  0  0  0  0  0  0
  -29.2070  -24.2120   19.9530 C   0  0  0  0  0  3  0  0  0  0  0  0
  -28.0440  -25.3130   19.9470 C   0  0  0  0  0  3  0  0  0  0  0  0
  -28.3050  -26.7810   20.0370 O   0  0  0  0  0  0  0  0  0  0  0  0
  -24.5910  -32.1050   23.2920 C   0  0  0  0  0  0  0  0  0  0  0  0
  -27.1860  -27.6400   20.0530 C   0  0  0  0  0  0  0  0  0  0  0  0
  -23.3680  -30.7200   21.6590 C   0  0  0  0  0  3  0  0  0  0  0  0
  -24.8030  -29.2340   20.1610 C   0  0  0  0  0  0  0  0  0  0  0  0
  -25.9010  -31.0850   21.4140 C   0  0  0  0  0  2  0  0  0  0  0  0
  -25.9860  -29.7220   20.7290 C   0  0  0  0  0  0  0  0  0  0  0  0
  -27.1820  -28.9390   20.6630 C   0  0  0  0  0  3  0  0  0  0  0  0
  -25.9680  -27.2170   19.4680 C   0  0  0  0  0  3  0  0  0  0  0  0
  -24.7980  -27.9880   19.5230 C   0  0  0  0  0  3  0  0  0  0  0  0
  -23.5560  -30.0860   20.2590 C   0  0  0  0  0  2  0  0  0  0  0  0
  -24.6400  -31.3190   22.1780 N   0  0  0  0  0  0  0  0  0  0  0  0
  -23.5170  -32.3500   23.8620 O   0  0  0  0  0  0  0  0  0  0  0  0
  -22.7530  -29.6670   22.6130 C   0  0  0  0  0  0  0  0  0  0  0  0
  -21.4360  -29.4300   22.4860 N   0  0  0  0  0  0  0  0  0  0  0  0
  -23.4600  -29.0680   23.4290 O   0  0  0  0  0  0  0  0  0  0  0  0
  -20.9220  -29.9670   21.8010 H   0  0  0  0  0  0  0  0  0  0  0  0
  -18.1290  -28.0320   22.9330 C   0  0  0  0  0  0  0  0  0  0  0  0
  -20.6590  -28.4570   23.2560 C   0  0  0  0  0  3  0  0  0  0  0  0
  -20.8630  -27.0240   22.7130 C   0  0  0  0  0  2  0  0  0  0  0  0
  -19.8080  -26.6150   21.6780 C   0  0  0  0  0  2  0  0  0  0  0  0
  -18.4030  -26.6840   22.2870 C   0  0  0  0  0  2  0  0  0  0  0  0
  -19.1870  -28.8690   23.3740 C   0  0  0  0  0  0  0  0  0  0  0  0
  -18.8750  -30.1260   23.9380 C   0  0  0  0  0  3  0  0  0  0  0  0
  -17.5370  -30.5460   24.0660 C   0  0  0  0  0  3  0  0  0  0  0  0
  -16.4930  -29.7060   23.6410 C   0  0  0  0  0  3  0  0  0  0  0  0
  -16.7900  -28.4510   23.0780 C   0  0  0  0  0  3  0  0  0  0  0  0
  -25.8770  -32.7490   23.8920 C   0  0  0  0  0  3  0  0  0  0  0  0
  -25.5600  -34.1480   24.2170 N   0  0  0  0  0  0  0  0  0  0  0  0
  -25.8930  -35.2010   23.4590 C   0  0  0  0  0  0  0  0  0  0  0  0
  -26.5700  -35.0990   22.4330 O   0  0  0  0  0  0  0  0  0  0  0  0
  -24.9600  -34.3010   25.0140 H   0  0  0  0  0  0  0  0  0  0  0  0
  -24.1640  -36.9900   23.0890 C   0  0  0  0  0  1  0  0  0  0  0  0
  -25.3980  -36.5890   23.9130 C   0  0  0  0  0  3  0  0  0  0  0  0
  -27.5280  -37.4750   24.7560 C   0  0  0  0  0  1  0  0  0  0  0  0
  -26.4290  -37.6450   23.8090 N   0  0  0  0  0  0  0  0  0  0  0  0
  -26.0180  -38.5630   23.9600 H   0  0  0  0  0  0  0  0  0  0  0  0
  -26.4170  -31.9920   25.1670 C   0  0  1  0  0  0  0  0  0  0  0  0
  -25.3430  -31.7650   26.2560 C   0  0  0  0  0  1  0  0  0  0  0  0
  -26.9980  -30.6100   24.7810 C   0  0  0  0  0  1  0  0  0  0  0  0
  -27.5740  -32.7980   25.8030 C   0  0  0  0  0  1  0  0  0  0  0  0
  -30.5220  -17.7120   21.2110 C   0  0  0  0  0  3  0  0  0  0  0  0
  -31.2410  -15.1550   20.8290 C   0  0  0  0  0  0  0  0  0  0  0  0
  -31.1500  -12.7980   20.0010 C   0  0  0  0  0  2  0  0  0  0  0  0
  -30.3460  -12.7530   18.6830 C   0  0  0  0  0  2  0  0  0  0  0  0
  -28.8300  -12.6500   18.9530 C   0  0  0  0  0  2  0  0  0  0  0  0
  -28.3420  -13.6710   20.0130 C   0  0  0  0  0  3  0  0  0  0  0  0
  -29.2590  -13.6470   21.2540 C   0  0  0  0  0  2  0  0  0  0  0  0
  -30.6300  -13.9270   20.7980 N   0  0  0  0  0  0  0  0  0  0  0  0
  -32.4500  -15.2810   20.6090 O   0  0  0  0  0  0  0  0  0  0  0  0
  -30.3840  -16.2240   20.9440 N   0  0  0  0  0  0  0  0  0  0  0  0
  -29.4260  -15.9130   21.0010 H   0  0  0  0  0  0  0  0  0  0  0  0
  -25.9470  -14.4160   20.5730 C   0  0  0  0  0  0  0  0  0  0  0  0
  -24.8000  -13.7130   20.8150 C   0  0  0  0  0  0  0  0  0  0  0  0
  -25.1620  -12.3320   20.7500 C   0  0  0  0  0  0  0  0  0  0  0  0
  -26.9400  -13.4700   20.3730 N   0  0  0  0  0  0  0  0  0  0  0  0
  -26.4690  -12.2080   20.5410 N   0  0  0  0  0  0  0  0  0  0  0  0
  -24.3310  -11.1220   20.8150 C   0  0  0  0  0  0  0  0  0  0  0  0
  -24.6670  -10.0410   21.6590 C   0  0  0  0  0  3  0  0  0  0  0  0
  -23.8430   -8.8970   21.7180 C   0  0  0  0  0  3  0  0  0  0  0  0
  -22.6690   -8.8240   20.9320 C   0  0  0  0  0  0  0  0  0  0  0  0
  -22.3500   -9.8950   20.0780 C   0  0  0  0  0  3  0  0  0  0  0  0
  -23.1740  -11.0320   20.0170 C   0  0  0  0  0  3  0  0  0  0  0  0
  -21.8250   -7.7410   20.9020 O   0  0  0  0  0  0  0  0  0  0  0  0
  -21.7560   -6.8540   21.9480 C   0  0  0  0  0  0  0  0  0  0  0  0
  -21.4550   -7.2730   23.2610 C   0  0  0  0  0  3  0  0  0  0  0  0
  -21.3260   -6.3210   24.2920 C   0  0  0  0  0  3  0  0  0  0  0  0
  -21.4880   -4.9520   24.0100 C   0  0  0  0  0  0  0  0  0  0  0  0
  -21.7810   -4.5310   22.7010 C   0  0  0  0  0  3  0  0  0  0  0  0
  -21.9140   -5.4800   21.6730 C   0  0  0  0  0  0  0  0  0  0  0  0
  -22.1750   -5.0690   20.4090 F   0  0  0  0  0  0  0  0  0  0  0  0
  -21.3560   -4.0370   24.9990 F   0  0  0  0  0  0  0  0  0  0  0  0
  -23.4220  -14.2860   20.9900 C   0  0  0  0  0  0  0  0  0  0  0  0
  -22.5720  -13.6230   21.7690 N   0  0  0  0  0  0  0  0  0  0  0  0
  -23.1060  -15.3570   20.4780 O   0  0  0  0  0  0  0  0  0  0  0  0
  -22.8300  -12.7530   22.2110 H   0  0  0  0  0  0  0  0  0  0  0  0
  -21.6450  -13.9930   21.9230 H   0  0  0  0  0  0  0  0  0  0  0  0
  -26.2310  -15.7780   20.4820 N   0  0  0  0  0  0  0  0  0  0  0  0
  -25.5020  -16.4780   20.5530 H   0  0  0  0  0  0  0  0  0  0  0  0
  -27.1070  -16.1550   20.1490 H   0  0  0  0  0  0  0  0  0  0  0  0
  -29.9110  -17.9730   22.6170 C   0  0  0  0  0  2  0  0  0  0  0  0
  -30.8230  -17.6630   23.8280 C   0  0  0  0  0  2  0  0  0  0  0  0
  -30.9910  -20.0470   24.7290 C   0  0  0  0  0  1  0  0  0  0  0  0
  -29.1960  -18.5020   25.6110 C   0  0  0  0  0  1  0  0  0  0  0  0
  -30.6440  -18.5820   25.0740 C   0  0  1  0  0  0  0  0  0  0  0  0
  -31.5610  -18.1230   26.1390 N   0  0  0  0  0  4  0  0  0  0  0  0
  -31.4750  -18.6950   26.9610 H   0  0  0  0  0  0  0  0  0  0  0  0
  -32.5180  -18.1710   25.8320 H   0  0  0  0  0  0  0  0  0  0  0  0
  -31.3630  -17.1740   26.4050 H   0  0  0  0  0  0  0  0  0  0  0  0
  -28.7430  -18.1440   19.3440 C   0  0  0  0  0  2  0  0  0  0  0  0
  -28.1930  -18.9940   18.1790 C   0  0  0  0  0  2  0  0  0  0  0  0
  -27.5190  -18.1330   17.0960 C   0  0  0  0  0  2  0  0  0  0  0  0
  -27.1170  -18.9030   15.8200 C   0  0  0  0  0  2  0  0  0  0  0  0
  -25.8630  -19.6630   15.9660 N   0  0  0  0  0  4  0  0  0  0  0  0
  -25.0980  -19.0560   16.1970 H   0  0  0  0  0  0  0  0  0  0  0  0
  -25.6450  -20.1110   15.0930 H   0  0  0  0  0  0  0  0  0  0  0  0
  -25.9370  -20.3740   16.6700 H   0  0  0  0  0  0  0  0  0  0  0  0
  1 98  1  0
  1  2  1  0
  1 50  1  0
  2  3  1  0
  2  4  1  0
  5  6  1  0
  5  2  1  0
  7  6  1  0
  8  7  2  0
  8  9  1  0
  9 11  1  0
 10 21  2  0
 11 16  1  0
 12 20  1  0
 12 22  1  0
 13 19  1  0
 13 15  1  0
 14 20  1  0
 15 14  1  0
 16 15  2  0
 17 18  1  0
 17 11  2  0
 18 13  2  0
 19 12  1  0
 20 10  1  0
 22 24  2  0
 23 22  1  0
 25 23  1  0
 26 35  2  0
 26 31  1  0
 27 23  1  0
 27 31  1  0
 28 27  1  0
 29 30  1  0
 29 28  1  0
 30 26  1  0
 31 32  2  0
 32 33  1  0
 34 33  2  0
 35 34  1  0
 36 10  1  0
 36 37  1  0
 36 46  1  0
 37 40  1  0
 38 42  1  0
 38 37  1  0
 39 38  2  0
 42 41  1  0
 44 42  1  0
 44 45  1  0
 44 43  1  0
 46 49  1  1
 46 47  1  0
 48 46  1  0
 50 89  1  0
 51 59  1  0
 52 57  1  0
 53 54  1  0
 53 52  1  0
 55 54  1  0
 55 64  1  0
 55 56  1  0
 57 51  1  0
 57 56  1  0
 58 51  2  0
 59 60  1  0
 59 50  1  0
 61 62  2  0
 62 81  1  0
 63 62  1  0
 63 66  1  0
 64 65  1  0
 64 61  1  0
 65 63  2  0
 66 67  1  0
 67 68  2  0
 69 68  1  0
 70 69  2  0
 71 70  1  0
 71 66  2  0
 72 69  1  0
 72 73  1  0
 73 74  1  0
 74 75  2  0
 76 75  1  0
 76 80  1  0
 77 76  2  0
 78 73  2  0
 78 77  1  0
 79 78  1  0
 81 82  1  0
 82 85  1  0
 82 84  1  0
 83 81  2  0
 86 87  1  0
 86 61  1  0
 88 86  1  0
 89 90  1  0
 90 93  1  0
 93 91  1  6
 93 92  1  0
 93 94  1  0
 94 97  1  0
 94 95  1  0
 96 94  1  0
 99 98  1  0
100 99  1  0
101102  1  0
101100  1  0
102103  1  0
102105  1  0
104102  1  0
M  ISO  4   8 101   9 101  51 100  59 100
M  END
>  <TORSDO>  (14) 
F 31

>  <SCORE>  (14) 
-0.064

>  <name>  (14) 
13

>  <ligand_id>  (14) 
13

>  <original_smiles>  (14) 
[H]c1c([H])c([H])c2c(c1[H])C([H])([H])C([H])([H])C([H])([H])C2([H])N([H])C(=O)C1([H])N(C(=O)C([H])(N([H])C(=O)C([H])(N([H])C([H])([H])[H])C([H])([H])[H])C(C([H])([H])[H])(C([H])([H])[H])C([H])([H])[H])C([H])([H])c2c([H])c(OC([H])([H])C([H])([H])C([H])([H])C([H])([H])[N+]([H])([H])C([H])(C([H])([H])C([H])([H])C([H])([H])C([H])([H])[N+]([H])([H])[H])C([H])(N([H])C(=O)N3C([H])([H])C([H])([H])C([H])([H])C([H])(n4nc(-c5c([H])c([H])c(Oc6c([H])c([H])c(F)c([H])c6F)c([H])c5[H])c(C(=O)N([H])[H])c4N([H])[H])C3([H])[H])C([H])([H])C([H])([H])C(C([H])([H])[H])(C([H])([H])[H])[N+]([H])([H])[H])c([H])c([H])c2C1([H])[H]

>  <smiles>  (14) 
[H]c1c([H])c([H])c2c(c1[H])C([H])([H])C([H])([H])C([H])([H])C2([H])N([H])C(=O)C1([H])N(C(=O)C([H])(N([H])C(=O)C([H])(N([H])C([H])([H])[H])C([H])([H])[H])C(C([H])([H])[H])(C([H])([H])[H])C([H])([H])[H])C([H])([H])c2c([H])c(OC([H])([H])C([H])([H])C([H])([H])C([H])([H])[N+]([H])([H])C([H])(C([H])([H])C([H])([H])C([H])([H])C([H])([H])[N+]([H])([H])[H])C([H])(N([H])C(=O)N3C([H])([H])C([H])([H])C([H])([H])C([H])(n4nc(-c5c([H])c([H])c(Oc6c([H])c([H])c(F)c([H])c6F)c([H])c5[H])c(C(=O)N([H])[H])c4N([H])[H])C3([H])[H])C([H])([H])C([H])([H])C(C([H])([H])[H])(C([H])([H])[H])[N+]([H])([H])[H])c([H])c([H])c2C1([H])[H]

$$$$
14:0:0
     RDKit          3D

 98106  0  0  1  0  0  0  0  0999 V2000
  -29.8750  -18.1910   20.9120 C   0  0  0  0  0  3  0  0  0  0  0  0
  -30.7730  -14.6530   20.1640 C   0  0  0  0  0  0  0  0  0  0  0  0
  -30.2430  -12.6570   18.7780 C   0  0  0  0  0  2  0  0  0  0  0  0
  -29.2260  -12.9110   17.6470 C   0  0  0  0  0  2  0  0  0  0  0  0
  -27.7880  -12.7080   18.1580 C   0  0  0  0  0  2  0  0  0  0  0  0
  -27.5470  -13.4480   19.5020 C   0  0  0  0  0  3  0  0  0  0  0  0
  -28.6740  -13.2260   20.5460 C   0  0  0  0  0  2  0  0  0  0  0  0
  -29.9620  -13.5720   19.9150 N   0  0  0  0  0  0  0  0  0  0  0  0
  -31.7690  -14.8390   19.4580 O   0  0  0  0  0  0  0  0  0  0  0  0
  -31.2800  -16.3510   23.2900 C   0  0  0  0  0  2  0  0  0  0  0  0
  -31.8430  -17.2310   22.1990 C   0  0  0  0  0  2  0  0  0  0  0  0
  -30.5910  -15.1970   22.5500 C   0  0  0  0  0  2  0  0  0  0  0  0
  -30.9180  -17.0020   20.9940 C   0  0  0  0  0  3  0  0  0  0  0  0
  -30.4280  -15.5810   21.1260 N   0  0  0  0  0  0  0  0  0  0  0  0
  -25.2050  -14.0880   20.3760 C   0  0  0  0  0  0  0  0  0  0  0  0
  -24.1340  -13.3200   20.7540 C   0  0  0  0  0  0  0  0  0  0  0  0
  -24.5890  -11.9660   20.6890 C   0  0  0  0  0  0  0  0  0  0  0  0
  -26.2200  -13.2000   20.0570 N   0  0  0  0  0  0  0  0  0  0  0  0
  -25.8600  -11.9180   20.3090 N   0  0  0  0  0  0  0  0  0  0  0  0
  -23.8760  -10.7030   20.9120 C   0  0  0  0  0  0  0  0  0  0  0  0
  -24.3580   -9.7520   21.8350 C   0  0  0  0  0  3  0  0  0  0  0  0
  -23.6660   -8.5430   22.0460 C   0  0  0  0  0  3  0  0  0  0  0  0
  -22.4670   -8.2820   21.3340 C   0  0  0  0  0  0  0  0  0  0  0  0
  -22.0060   -9.2210   20.3920 C   0  0  0  0  0  3  0  0  0  0  0  0
  -22.7040  -10.4260   20.1850 C   0  0  0  0  0  3  0  0  0  0  0  0
  -21.7290   -7.1320   21.4640 O   0  0  0  0  0  0  0  0  0  0  0  0
  -21.7230   -6.4100   22.6280 C   0  0  0  0  0  0  0  0  0  0  0  0
  -21.3360   -6.9750   23.8670 C   0  0  0  0  0  3  0  0  0  0  0  0
  -21.2890   -6.1720   25.0210 C   0  0  0  0  0  3  0  0  0  0  0  0
  -21.5990   -4.8000   24.9410 C   0  0  0  0  0  0  0  0  0  0  0  0
  -21.9720   -4.2340   23.7060 C   0  0  0  0  0  3  0  0  0  0  0  0
  -22.0360   -5.0340   22.5580 C   0  0  0  0  0  0  0  0  0  0  0  0
  -22.3830   -4.4790   21.3730 F   0  0  0  0  0  0  0  0  0  0  0  0
  -21.5370   -4.0290   26.0480 F   0  0  0  0  0  0  0  0  0  0  0  0
  -22.7460  -13.7960   21.0880 C   0  0  0  0  0  0  0  0  0  0  0  0
  -22.0700  -13.1130   22.0030 N   0  0  0  0  0  0  0  0  0  0  0  0
  -22.2790  -14.8130   20.5780 O   0  0  0  0  0  0  0  0  0  0  0  0
  -22.4730  -12.3000   22.4440 H   0  0  0  0  0  0  0  0  0  0  0  0
  -21.1360  -13.4110   22.2490 H   0  0  0  0  0  0  0  0  0  0  0  0
  -25.3980  -15.4690   20.2950 N   0  0  0  0  0  0  0  0  0  0  0  0
  -24.6880  -15.8710   20.8920 H   0  0  0  0  0  0  0  0  0  0  0  0
  -26.3110  -15.7430   20.6530 H   0  0  0  0  0  0  0  0  0  0  0  0
  -28.4420  -17.8320   20.4350 C   0  0  0  0  0  2  0  0  0  0  0  0
  -28.2580  -17.5190   18.9230 C   0  0  0  0  0  2  0  0  0  0  0  0
  -27.8200  -19.9200   18.0430 C   0  0  0  0  0  1  0  0  0  0  0  0
  -27.3610  -18.4530   18.0670 C   0  0  0  0  0  3  0  0  0  0  0  0
  -25.8180  -18.3000   18.2460 C   0  0  0  0  0  2  0  0  0  0  0  0
  -25.2350  -18.9490   19.4340 N   0  0  0  0  0  4  0  0  0  0  0  0
  -25.5530  -18.4980   20.2830 H   0  0  0  0  0  0  0  0  0  0  0  0
  -24.2380  -18.8180   19.3970 H   0  0  0  0  0  0  0  0  0  0  0  0
  -25.4180  -19.9380   19.4520 H   0  0  0  0  0  0  0  0  0  0  0  0
  -30.4930  -19.3930   20.1120 C   0  0  0  0  0  2  0  0  0  0  0  0
  -30.4200  -20.8250   20.7160 C   0  0  0  0  0  2  0  0  0  0  0  0
  -29.3030  -21.7650   20.1850 C   0  0  0  0  0  2  0  0  0  0  0  0
  -29.3000  -23.1530   20.8930 C   0  0  0  0  0  2  0  0  0  0  0  0
  -28.8650  -24.3680   20.0240 C   0  0  0  0  0  2  0  0  0  0  0  0
  -28.5230  -25.6370   20.8700 C   0  0  0  0  0  2  0  0  0  0  0  0
  -28.5280  -26.8650   20.1130 O   0  0  0  0  0  0  0  0  0  0  0  0
  -24.6120  -31.9300   23.2210 C   0  0  0  0  0  0  0  0  0  0  0  0
  -27.3500  -27.5870   20.1160 C   0  0  0  0  0  0  0  0  0  0  0  0
  -23.4420  -30.5500   21.5350 C   0  0  0  0  0  3  0  0  0  0  0  0
  -24.9360  -29.0730   20.0900 C   0  0  0  0  0  0  0  0  0  0  0  0
  -25.9570  -30.9560   21.3710 C   0  0  0  0  0  2  0  0  0  0  0  0
  -26.0770  -29.6020   20.7050 C   0  0  0  0  0  0  0  0  0  0  0  0
  -27.2870  -28.8670   20.7130 C   0  0  0  0  0  3  0  0  0  0  0  0
  -26.1930  -27.0710   19.4920 C   0  0  0  0  0  3  0  0  0  0  0  0
  -24.9910  -27.8060   19.4760 C   0  0  0  0  0  3  0  0  0  0  0  0
  -23.6750  -29.9030   20.1450 C   0  0  0  0  0  2  0  0  0  0  0  0
  -24.6890  -31.1600   22.1020 N   0  0  0  0  0  0  0  0  0  0  0  0
  -23.5280  -32.1780   23.7590 O   0  0  0  0  0  0  0  0  0  0  0  0
  -22.8040  -29.5000   22.4770 C   0  0  0  0  0  0  0  0  0  0  0  0
  -21.4900  -29.2740   22.3310 N   0  0  0  0  0  0  0  0  0  0  0  0
  -23.4960  -28.8830   23.2940 O   0  0  0  0  0  0  0  0  0  0  0  0
  -21.0010  -29.8120   21.6280 H   0  0  0  0  0  0  0  0  0  0  0  0
  -18.1560  -27.9580   22.7250 C   0  0  0  0  0  0  0  0  0  0  0  0
  -20.6930  -28.3040   23.0760 C   0  0  0  0  0  3  0  0  0  0  0  0
  -20.8620  -26.8800   22.4990 C   0  0  0  0  0  2  0  0  0  0  0  0
  -19.8040  -26.5230   21.4570 C   0  0  0  0  0  2  0  0  0  0  0  0
  -18.4010  -26.6200   22.0560 C   0  0  0  0  0  2  0  0  0  0  0  0
  -19.2310  -28.7590   23.1940 C   0  0  0  0  0  0  0  0  0  0  0  0
  -18.9500  -30.0080   23.7810 C   0  0  0  0  0  3  0  0  0  0  0  0
  -17.6240  -30.4650   23.8980 C   0  0  0  0  0  3  0  0  0  0  0  0
  -16.5610  -29.6710   23.4340 C   0  0  0  0  0  3  0  0  0  0  0  0
  -16.8290  -28.4120   22.8600 C   0  0  0  0  0  3  0  0  0  0  0  0
  -25.8910  -32.5630   23.8540 C   0  0  0  0  0  3  0  0  0  0  0  0
  -26.4210  -31.7760   25.1180 C   0  0  1  0  0  0  0  0  0  0  0  0
  -25.3270  -31.4980   26.1700 C   0  0  0  0  0  1  0  0  0  0  0  0
  -27.0530  -30.4210   24.7080 C   0  0  0  0  0  1  0  0  0  0  0  0
  -27.5270  -32.5940   25.8210 C   0  0  0  0  0  1  0  0  0  0  0  0
  -25.5530  -33.9460   24.2060 N   0  0  0  0  0  0  0  0  0  0  0  0
  -25.8660  -35.0200   23.4660 C   0  0  0  0  0  0  0  0  0  0  0  0
  -26.5400  -34.9510   22.4360 O   0  0  0  0  0  0  0  0  0  0  0  0
  -24.9370  -34.0680   24.9960 H   0  0  0  0  0  0  0  0  0  0  0  0
  -24.1020  -36.7870   23.1510 C   0  0  0  0  0  1  0  0  0  0  0  0
  -25.3520  -36.3870   23.9460 C   0  0  0  0  0  3  0  0  0  0  0  0
  -27.4700  -37.3170   24.7760 C   0  0  0  0  0  1  0  0  0  0  0  0
  -26.3600  -37.4650   23.8420 N   0  0  0  0  0  0  0  0  0  0  0  0
  -25.9270  -38.3720   23.9960 H   0  0  0  0  0  0  0  0  0  0  0  0
  1 52  1  0
  2 14  1  0
  3  8  1  0
  4  5  1  0
  4  3  1  0
  6  5  1  0
  6 18  1  0
  6  7  1  0
  8  2  1  0
  8  7  1  0
  9  2  2  0
 11 10  1  0
 12 10  1  0
 13  1  1  0
 13 14  1  0
 13 11  1  0
 14 12  1  0
 15 16  2  0
 16 35  1  0
 17 16  1  0
 17 20  1  0
 18 19  1  0
 18 15  1  0
 19 17  2  0
 20 21  1  0
 21 22  2  0
 23 26  1  0
 23 22  1  0
 24 23  2  0
 25 24  1  0
 25 20  2  0
 26 27  1  0
 27 28  1  0
 28 29  2  0
 30 29  1  0
 30 34  1  0
 31 30  2  0
 32 27  2  0
 32 31  1  0
 33 32  1  0
 35 36  1  0
 36 39  1  0
 36 38  1  0
 37 35  2  0
 40 15  1  0
 40 42  1  0
 40 41  1  0
 43  1  1  0
 44 43  1  0
 46 45  1  0
 46 47  1  0
 46 44  1  0
 47 48  1  0
 48 51  1  0
 48 49  1  0
 50 48  1  0
 52 53  1  0
 54 53  1  0
 54 55  1  0
 56 57  1  0
 56 55  1  0
 58 60  1  0
 58 57  1  0
 59 70  2  0
 60 65  1  0
 61 69  1  0
 61 71  1  0
 62 68  1  0
 62 64  1  0
 63 69  1  0
 64 65  2  0
 64 63  1  0
 66 60  2  0
 67 66  1  0
 67 62  2  0
 68 61  1  0
 69 59  1  0
 71 73  2  0
 72 71  1  0
 74 72  1  0
 75 84  2  0
 75 80  1  0
 76 72  1  0
 76 80  1  0
 77 76  1  0
 78 79  1  0
 78 77  1  0
 79 75  1  0
 80 81  2  0
 81 82  1  0
 83 82  2  0
 84 83  1  0
 85 59  1  0
 85 90  1  0
 85 86  1  0
 86 89  1  1
 86 87  1  0
 88 86  1  0
 90 93  1  0
 91 95  1  0
 91 90  1  0
 92 91  2  0
 95 94  1  0
 97 95  1  0
 97 98  1  0
 97 96  1  0
M  ISO  4   2 100  14 100  57 101  58 101
M  END
>  <TORSDO>  (15) 
F 27

>  <SCORE>  (15) 
-7.238

>  <name>  (15) 
14

>  <ligand_id>  (15) 
14

>  <original_smiles>  (15) 
[H]c1c([H])c([H])c2c(c1[H])C([H])([H])C([H])([H])C([H])([H])C2([H])N([H])C(=O)C1([H])N(C(=O)C([H])(N([H])C(=O)C([H])(N([H])C([H])([H])[H])C([H])([H])[H])C(C([H])([H])[H])(C([H])([H])[H])C([H])([H])[H])C([H])([H])c2c([H])c(OC([H])([H])C([H])([H])C([H])([H])C([H])([H])C([H])([H])C([H])([H])C([H])(C([H])([H])C([H])([H])C([H])(C([H])([H])[H])C([H])([H])[N+]([H])([H])[H])C3([H])N(C(=O)N4C([H])([H])C([H])([H])C([H])([H])C([H])(n5nc(-c6c([H])c([H])c(Oc7c([H])c([H])c(F)c([H])c7F)c([H])c6[H])c(C(=O)N([H])[H])c5N([H])[H])C4([H])[H])C([H])([H])C([H])([H])C3([H])[H])c([H])c([H])c2C1([H])[H]

>  <smiles>  (15) 
[H]c1c([H])c([H])c2c(c1[H])C([H])([H])C([H])([H])C([H])([H])C2([H])N([H])C(=O)C1([H])N(C(=O)C([H])(N([H])C(=O)C([H])(N([H])C([H])([H])[H])C([H])([H])[H])C(C([H])([H])[H])(C([H])([H])[H])C([H])([H])[H])C([H])([H])c2c([H])c(OC([H])([H])C([H])([H])C([H])([H])C([H])([H])C([H])([H])C([H])([H])C([H])(C([H])([H])C([H])([H])C([H])(C([H])([H])[H])C([H])([H])[N+]([H])([H])[H])C3([H])N(C(=O)N4C([H])([H])C([H])([H])C([H])([H])C([H])(n5nc(-c6c([H])c([H])c(Oc7c([H])c([H])c(F)c([H])c7F)c([H])c6[H])c(C(=O)N([H])[H])c5N([H])[H])C4([H])[H])C([H])([H])C([H])([H])C3([H])[H])c([H])c([H])c2C1([H])[H]

$$$$
15:0:0
     RDKit          3D

 94101  0  0  1  0  0  0  0  0999 V2000
  -29.7550  -20.9210   20.3760 C   0  0  0  0  0  3  0  0  0  0  0  0
  -31.2420  -22.8910   19.6510 C   0  0  0  0  0  1  0  0  0  0  0  0
  -31.8700  -21.6720   21.7390 C   0  0  0  0  0  1  0  0  0  0  0  0
  -32.2060  -20.6400   19.5370 C   0  0  0  0  0  1  0  0  0  0  0  0
  -31.2310  -21.5110   20.3330 C   0  0  1  0  0  0  0  0  0  0  0  0
  -28.8110  -22.1460   21.0700 C   0  0  0  0  0  2  0  0  0  0  0  0
  -26.9710  -22.9540   19.4280 C   0  0  0  0  0  1  0  0  0  0  0  0
  -27.9850  -23.5000   20.4490 C   0  0  0  0  0  3  0  0  0  0  0  0
  -28.4680  -25.0280   19.9270 C   0  0  0  0  0  2  0  0  0  0  0  0
  -28.2760  -26.4470   20.5040 O   0  0  0  0  0  0  0  0  0  0  0  0
  -24.5670  -32.0520   23.3340 C   0  0  0  0  0  0  0  0  0  0  0  0
  -27.1860  -27.3610   20.3500 C   0  0  0  0  0  0  0  0  0  0  0  0
  -23.3770  -30.6350   21.6990 C   0  0  0  0  0  3  0  0  0  0  0  0
  -24.8380  -29.0600   20.2850 C   0  0  0  0  0  0  0  0  0  0  0  0
  -25.9220  -30.9290   21.5330 C   0  0  0  0  0  2  0  0  0  0  0  0
  -26.0040  -29.5310   20.8960 C   0  0  0  0  0  0  0  0  0  0  0  0
  -27.1720  -28.6920   20.9180 C   0  0  0  0  0  3  0  0  0  0  0  0
  -26.0000  -26.9760   19.6910 C   0  0  0  0  0  3  0  0  0  0  0  0
  -24.8440  -27.7950   19.6690 C   0  0  0  0  0  3  0  0  0  0  0  0
  -23.6040  -29.9470   20.3230 C   0  0  0  0  0  2  0  0  0  0  0  0
  -24.6420  -31.2270   22.2440 N   0  0  0  0  0  0  0  0  0  0  0  0
  -23.4810  -32.3320   23.8600 O   0  0  0  0  0  0  0  0  0  0  0  0
  -22.7060  -29.6320   22.6700 C   0  0  0  0  0  0  0  0  0  0  0  0
  -21.3860  -29.4220   22.5210 N   0  0  0  0  0  0  0  0  0  0  0  0
  -23.3750  -29.0440   23.5240 O   0  0  0  0  0  0  0  0  0  0  0  0
  -20.8990  -29.9480   21.8070 H   0  0  0  0  0  0  0  0  0  0  0  0
  -18.0370  -28.1150   22.9500 C   0  0  0  0  0  0  0  0  0  0  0  0
  -20.5740  -28.4830   23.2960 C   0  0  0  0  0  3  0  0  0  0  0  0
  -20.7490  -27.0360   22.7790 C   0  0  0  0  0  2  0  0  0  0  0  0
  -19.6980  -26.6360   21.7390 C   0  0  0  0  0  2  0  0  0  0  0  0
  -18.2890  -26.7520   22.3280 C   0  0  0  0  0  2  0  0  0  0  0  0
  -19.1110  -28.9340   23.3910 C   0  0  0  0  0  0  0  0  0  0  0  0
  -18.8230  -30.2050   23.9320 C   0  0  0  0  0  3  0  0  0  0  0  0
  -17.4950  -30.6600   24.0360 C   0  0  0  0  0  3  0  0  0  0  0  0
  -16.4360  -29.8400   23.6120 C   0  0  0  0  0  3  0  0  0  0  0  0
  -16.7080  -28.5690   23.0730 C   0  0  0  0  0  3  0  0  0  0  0  0
  -25.8420  -32.7020   23.9550 C   0  0  0  0  0  3  0  0  0  0  0  0
  -25.5330  -34.1120   24.2400 N   0  0  0  0  0  0  0  0  0  0  0  0
  -25.8890  -35.1440   23.4630 C   0  0  0  0  0  0  0  0  0  0  0  0
  -26.5780  -35.0100   22.4480 O   0  0  0  0  0  0  0  0  0  0  0  0
  -24.9230  -34.2900   25.0230 H   0  0  0  0  0  0  0  0  0  0  0  0
  -24.1840  -36.9460   23.0300 C   0  0  0  0  0  1  0  0  0  0  0  0
  -25.4050  -36.5490   23.8760 C   0  0  0  0  0  3  0  0  0  0  0  0
  -27.5290  -37.4390   24.7300 C   0  0  0  0  0  1  0  0  0  0  0  0
  -26.4490  -37.5900   23.7590 N   0  0  0  0  0  0  0  0  0  0  0  0
  -26.0470  -38.5170   23.8740 H   0  0  0  0  0  0  0  0  0  0  0  0
  -26.3350  -31.9710   25.2660 C   0  0  1  0  0  0  0  0  0  0  0  0
  -25.2240  -31.7670   26.3230 C   0  0  0  0  0  1  0  0  0  0  0  0
  -26.9270  -30.5830   24.9330 C   0  0  0  0  0  1  0  0  0  0  0  0
  -27.4730  -32.7870   25.9260 C   0  0  0  0  0  1  0  0  0  0  0  0
  -29.7730  -19.2970   20.9480 C   0  0  0  0  0  2  0  0  0  0  0  0
  -29.8540  -17.8240   20.0860 C   0  0  0  0  0  0  0  0  0  0  0  0
  -30.7290  -15.1760   20.5220 C   0  0  0  0  0  0  0  0  0  0  0  0
  -30.6380  -12.8370   19.5580 C   0  0  0  0  0  2  0  0  0  0  0  0
  -29.7570  -12.8480   18.2860 C   0  0  0  0  0  2  0  0  0  0  0  0
  -28.2710  -12.6510   18.6530 C   0  0  0  0  0  2  0  0  0  0  0  0
  -27.8320  -13.5320   19.8550 C   0  0  0  0  0  3  0  0  0  0  0  0
  -28.8510  -13.4950   21.0150 C   0  0  0  0  0  2  0  0  0  0  0  0
  -30.1430  -13.9130   20.4630 N   0  0  0  0  0  0  0  0  0  0  0  0
  -31.9360  -15.2330   20.2630 O   0  0  0  0  0  0  0  0  0  0  0  0
  -29.9220  -16.3380   20.6710 N   0  0  0  0  0  4  0  0  0  0  0  0
  -29.0230  -16.0680   21.0410 H   0  0  0  0  0  0  0  0  0  0  0  0
  -25.4230  -14.0830   20.5240 C   0  0  0  0  0  0  0  0  0  0  0  0
  -24.3570  -13.2980   20.8650 C   0  0  0  0  0  0  0  0  0  0  0  0
  -24.8360  -11.9510   20.8480 C   0  0  0  0  0  0  0  0  0  0  0  0
  -26.4810  -13.2160   20.3080 N   0  0  0  0  0  0  0  0  0  0  0  0
  -26.1360  -11.9280   20.5710 N   0  0  0  0  0  0  0  0  0  0  0  0
  -24.1150  -10.6810   21.0160 C   0  0  0  0  0  0  0  0  0  0  0  0
  -24.5150   -9.7260   21.9760 C   0  0  0  0  0  3  0  0  0  0  0  0
  -23.7960   -8.5220   22.1320 C   0  0  0  0  0  3  0  0  0  0  0  0
  -22.6600   -8.2660   21.3280 C   0  0  0  0  0  0  0  0  0  0  0  0
  -22.2780   -9.2090   20.3590 C   0  0  0  0  0  3  0  0  0  0  0  0
  -22.9990  -10.4040   20.2010 C   0  0  0  0  0  3  0  0  0  0  0  0
  -21.9110   -7.1150   21.3940 O   0  0  0  0  0  0  0  0  0  0  0  0
  -21.8110   -6.3850   22.5510 C   0  0  0  0  0  0  0  0  0  0  0  0
  -21.3030   -6.9460   23.7450 C   0  0  0  0  0  3  0  0  0  0  0  0
  -21.1520   -6.1410   24.8910 C   0  0  0  0  0  3  0  0  0  0  0  0
  -21.5010   -4.7780   24.8470 C   0  0  0  0  0  0  0  0  0  0  0  0
  -22.0000   -4.2170   23.6590 C   0  0  0  0  0  3  0  0  0  0  0  0
  -22.1540   -5.0190   22.5140 C   0  0  0  0  0  0  0  0  0  0  0  0
  -22.6170   -4.4670   21.3660 F   0  0  0  0  0  0  0  0  0  0  0  0
  -21.3480   -4.0040   25.9460 F   0  0  0  0  0  0  0  0  0  0  0  0
  -22.9460  -13.7620   21.0890 C   0  0  0  0  0  0  0  0  0  0  0  0
  -22.1960  -13.0660   21.9360 N   0  0  0  0  0  0  0  0  0  0  0  0
  -22.5150  -14.7790   20.5470 O   0  0  0  0  0  0  0  0  0  0  0  0
  -22.5540  -12.2480   22.4060 H   0  0  0  0  0  0  0  0  0  0  0  0
  -21.2460  -13.3580   22.1170 H   0  0  0  0  0  0  0  0  0  0  0  0
  -25.5790  -15.4570   20.3490 N   0  0  0  0  0  0  0  0  0  0  0  0
  -24.8030  -16.1030   20.4460 H   0  0  0  0  0  0  0  0  0  0  0  0
  -26.4210  -15.8930   19.9980 H   0  0  0  0  0  0  0  0  0  0  0  0
  -31.5870  -17.0170   18.3000 C   0  0  0  0  0  1  0  0  0  0  0  0
  -30.3810  -17.9270   18.6210 C   0  0  0  0  0  3  0  0  0  0  0  0
  -28.3340  -18.9190   17.3530 C   0  0  0  0  0  1  0  0  0  0  0  0
  -29.2790  -17.7180   17.5510 C   0  0  0  0  0  2  0  0  0  0  0  0
  1 51  1  0
  1  6  1  0
  5  2  1  6
  4  5  1  0
  5  1  1  0
  5  3  1  0
  8  7  1  0
  8  6  1  0
  9  8  1  0
  9 10  1  0
 11 22  2  0
 12 10  1  0
 12 17  1  0
 13 21  1  0
 13 23  1  0
 14 20  1  0
 14 16  1  0
 15 21  1  0
 16 17  2  0
 16 15  1  0
 18 12  2  0
 19 18  1  0
 19 14  2  0
 20 13  1  0
 21 11  1  0
 23 25  2  0
 24 23  1  0
 26 24  1  0
 27 36  2  0
 27 32  1  0
 28 24  1  0
 28 32  1  0
 29 28  1  0
 30 31  1  0
 30 29  1  0
 31 27  1  0
 32 33  2  0
 33 34  1  0
 35 34  2  0
 36 35  1  0
 37 11  1  0
 37 38  1  0
 37 47  1  0
 38 41  1  0
 39 43  1  0
 39 38  1  0
 40 39  2  0
 43 42  1  0
 45 46  1  0
 45 43  1  0
 45 44  1  0
 47 50  1  1
 47 48  1  0
 49 47  1  0
 52 61  2  0
 52 51  1  0
 53 61  1  0
 54 59  1  0
 55 56  1  0
 55 54  1  0
 57 56  1  0
 57 66  1  0
 57 58  1  0
 59 53  1  0
 59 58  1  0
 60 53  2  0
 61 62  1  0
 63 64  2  0
 64 83  1  0
 65 64  1  0
 65 68  1  0
 66 63  1  0
 66 67  1  0
 67 65  2  0
 68 69  1  0
 69 70  2  0
 71 74  1  0
 71 70  1  0
 72 71  2  0
 73 72  1  0
 73 68  2  0
 74 75  1  0
 75 76  1  0
 76 77  2  0
 78 77  1  0
 78 82  1  0
 79 78  2  0
 80 75  2  0
 80 79  1  0
 81 80  1  0
 83 84  1  0
 84 87  1  0
 84 86  1  0
 85 83  2  0
 88 89  1  0
 88 63  1  0
 90 88  1  0
 92 91  1  0
 92 52  1  0
 93 94  1  0
 94 92  1  0
M  ISO  4   9 101  10 101  53 100  61 100
M  END
>  <TORSDO>  (16) 
F 24

>  <SCORE>  (16) 
-13.817

>  <name>  (16) 
15

>  <ligand_id>  (16) 
15

>  <original_smiles>  (16) 
[H]c1c([H])c([H])c2c(c1[H])C([H])([H])C([H])([H])C([H])([H])C2([H])N([H])C(=O)C1([H])N(C(=O)C([H])(N([H])C(=O)C([H])(N([H])C([H])([H])[H])C([H])([H])[H])C(C([H])([H])[H])(C([H])([H])[H])C([H])([H])[H])C([H])([H])c2c([H])c(OC([H])([H])C([H])(C([H])([H])[H])C([H])([H])C([H])(C([H])([H])C([H])(N([H])C(=O)N3C([H])([H])C([H])([H])C([H])([H])C([H])(n4nc(-c5c([H])c([H])c(Oc6c([H])c([H])c(F)c([H])c6F)c([H])c5[H])c(C(=O)N([H])[H])c4N([H])[H])C3([H])[H])C([H])(C([H])([H])[H])C([H])([H])C([H])([H])[H])C(C([H])([H])[H])(C([H])([H])[H])C([H])([H])[H])c([H])c([H])c2C1([H])[H]

>  <smiles>  (16) 
[H]c1c([H])c([H])c2c(c1[H])C([H])([H])C([H])([H])C([H])([H])C2([H])N([H])C(=O)C1([H])N(C(=O)C([H])(N([H])C(=O)C([H])(N([H])C([H])([H])[H])C([H])([H])[H])C(C([H])([H])[H])(C([H])([H])[H])C([H])([H])[H])C([H])([H])c2c([H])c(OC([H])([H])C([H])(C([H])([H])[H])C([H])([H])C([H])(C([H])([H])C([H])(N([H])C(=O)N3C([H])([H])C([H])([H])C([H])([H])C([H])(n4nc(-c5c([H])c([H])c(Oc6c([H])c([H])c(F)c([H])c6F)c([H])c5[H])c(C(=O)N([H])[H])c4N([H])[H])C3([H])[H])C([H])(C([H])([H])[H])C([H])([H])C([H])([H])[H])C(C([H])([H])[H])(C([H])([H])[H])C([H])([H])[H])c([H])c([H])c2C1([H])[H]

$$$$
16:0:0
     RDKit          3D

101108  0  0  1  0  0  0  0  0999 V2000
  -28.6300  -18.7000   19.6270 N   0  0  1  0  0  4  0  0  0  0  0  0
  -28.8660  -19.1380   18.7480 H   0  0  0  0  0  0  0  0  0  0  0  0
  -27.2360  -18.2320   19.3400 C   0  0  0  0  0  2  0  0  0  0  0  0
  -26.5420  -17.3820   20.4340 C   0  0  0  0  0  2  0  0  0  0  0  0
  -25.5040  -16.3880   19.8930 C   0  0  0  0  0  2  0  0  0  0  0  0
  -24.9490  -15.4410   20.9770 C   0  0  0  0  0  2  0  0  0  0  0  0
  -23.5930  -15.8690   21.3580 N   0  0  0  0  0  4  0  0  0  0  0  0
  -23.0120  -15.8970   20.5380 H   0  0  0  0  0  0  0  0  0  0  0  0
  -23.6000  -16.7800   21.7840 H   0  0  0  0  0  0  0  0  0  0  0  0
  -23.2030  -15.2080   22.0030 H   0  0  0  0  0  0  0  0  0  0  0  0
  -28.7810  -19.8840   20.5350 C   0  0  0  0  0  2  0  0  0  0  0  0
  -28.5620  -21.2680   19.8410 C   0  0  0  0  0  2  0  0  0  0  0  0
  -29.4490  -22.3980   20.4550 C   0  0  0  0  0  2  0  0  0  0  0  0
  -29.1400  -23.9150   18.3590 C   0  0  0  0  0  1  0  0  0  0  0  0
  -29.4080  -23.8580   19.8680 C   0  0  0  0  0  3  0  0  0  0  0  0
  -28.5250  -24.8920   20.6260 C   0  0  0  0  0  2  0  0  0  0  0  0
  -28.6670  -26.2390   20.0970 O   0  0  0  0  0  0  0  0  0  0  0  0
  -25.1420  -31.6970   23.0820 C   0  0  0  0  0  0  0  0  0  0  0  0
  -27.5370  -27.0370   20.0940 C   0  0  0  0  0  0  0  0  0  0  0  0
  -23.8410  -30.2630   21.5450 C   0  0  0  0  0  3  0  0  0  0  0  0
  -25.2000  -28.6370   20.1220 C   0  0  0  0  0  0  0  0  0  0  0  0
  -26.3680  -30.5430   21.2350 C   0  0  0  0  0  2  0  0  0  0  0  0
  -26.3960  -29.1430   20.6480 C   0  0  0  0  0  0  0  0  0  0  0  0
  -27.5710  -28.3520   20.6220 C   0  0  0  0  0  3  0  0  0  0  0  0
  -26.3280  -26.5590   19.5470 C   0  0  0  0  0  3  0  0  0  0  0  0
  -25.1630  -27.3470   19.5620 C   0  0  0  0  0  3  0  0  0  0  0  0
  -23.9870  -29.5400   20.1790 C   0  0  0  0  0  2  0  0  0  0  0  0
  -25.1380  -30.8540   22.0110 N   0  0  0  0  0  0  0  0  0  0  0  0
  -24.0870  -32.0190   23.6470 O   0  0  0  0  0  0  0  0  0  0  0  0
  -23.2020  -29.2920   22.5670 C   0  0  0  0  0  0  0  0  0  0  0  0
  -21.9020  -28.9960   22.3860 N   0  0  0  0  0  0  0  0  0  0  0  0
  -23.8730  -28.8080   23.4800 O   0  0  0  0  0  0  0  0  0  0  0  0
  -21.4150  -29.4600   21.6330 H   0  0  0  0  0  0  0  0  0  0  0  0
  -18.6090  -27.5630   22.7830 C   0  0  0  0  0  0  0  0  0  0  0  0
  -21.1080  -28.0720   23.1970 C   0  0  0  0  0  3  0  0  0  0  0  0
  -21.3670  -26.6040   22.7900 C   0  0  0  0  0  2  0  0  0  0  0  0
  -20.3790  -26.0880   21.7420 C   0  0  0  0  0  2  0  0  0  0  0  0
  -18.9450  -26.1730   22.2720 C   0  0  0  0  0  2  0  0  0  0  0  0
  -19.6270  -28.4610   23.2000 C   0  0  0  0  0  0  0  0  0  0  0  0
  -19.2630  -29.7560   23.6280 C   0  0  0  0  0  3  0  0  0  0  0  0
  -17.9140  -30.1600   23.6410 C   0  0  0  0  0  3  0  0  0  0  0  0
  -16.9090  -29.2610   23.2370 C   0  0  0  0  0  3  0  0  0  0  0  0
  -17.2580  -27.9640   22.8170 C   0  0  0  0  0  3  0  0  0  0  0  0
  -26.4660  -32.3180   23.6280 C   0  0  0  0  0  3  0  0  0  0  0  0
  -26.1510  -33.6610   24.1300 N   0  0  0  0  0  0  0  0  0  0  0  0
  -26.3190  -34.7920   23.4330 C   0  0  0  0  0  0  0  0  0  0  0  0
  -26.8290  -34.8150   22.3090 O   0  0  0  0  0  0  0  0  0  0  0  0
  -25.6760  -33.7110   25.0200 H   0  0  0  0  0  0  0  0  0  0  0  0
  -24.4600  -36.4860   23.5260 C   0  0  0  0  0  1  0  0  0  0  0  0
  -25.8400  -36.1050   24.0820 C   0  0  0  0  0  3  0  0  0  0  0  0
  -28.0340  -37.0660   24.6280 C   0  0  0  0  0  1  0  0  0  0  0  0
  -26.7820  -37.2290   23.8960 N   0  0  0  0  0  0  0  0  0  0  0  0
  -26.3570  -38.1060   24.1840 H   0  0  0  0  0  0  0  0  0  0  0  0
  -27.1400  -31.4440   24.7540 C   0  0  1  0  0  0  0  0  0  0  0  0
  -26.1600  -30.9950   25.8610 C   0  0  0  0  0  1  0  0  0  0  0  0
  -27.7820  -30.1750   24.1450 C   0  0  0  0  0  1  0  0  0  0  0  0
  -28.2840  -32.2430   25.4210 C   0  0  0  0  0  1  0  0  0  0  0  0
  -29.6940  -17.6250   19.6520 C   0  0  0  0  0  2  0  0  0  0  0  0
  -30.0180  -16.8560   21.0060 C   0  0  0  0  0  3  0  0  0  0  0  0
  -30.8640  -14.4380   20.3420 C   0  0  0  0  0  0  0  0  0  0  0  0
  -30.9020  -12.1410   19.4330 C   0  0  0  0  0  2  0  0  0  0  0  0
  -30.0520  -12.0930   18.1440 C   0  0  0  0  0  2  0  0  0  0  0  0
  -28.5690  -11.8460   18.4820 C   0  0  0  0  0  2  0  0  0  0  0  0
  -28.0440  -12.7870   19.5980 C   0  0  0  0  0  3  0  0  0  0  0  0
  -29.0120  -12.7980   20.8030 C   0  0  0  0  0  2  0  0  0  0  0  0
  -30.3400  -13.1840   20.3040 N   0  0  0  0  0  0  0  0  0  0  0  0
  -31.9760  -14.6880   19.8740 O   0  0  0  0  0  0  0  0  0  0  0  0
  -30.0170  -15.3750   20.8340 N   0  0  0  0  0  0  0  0  0  0  0  0
  -29.1470  -14.9550   21.1390 H   0  0  0  0  0  0  0  0  0  0  0  0
  -25.5660  -13.2660   20.1200 C   0  0  0  0  0  0  0  0  0  0  0  0
  -24.5410  -12.4490   20.4910 C   0  0  0  0  0  0  0  0  0  0  0  0
  -25.0990  -11.1360   20.6070 C   0  0  0  0  0  0  0  0  0  0  0  0
  -26.6870  -12.4520   20.0170 N   0  0  0  0  0  0  0  0  0  0  0  0
  -26.4050  -11.1750   20.3790 N   0  0  0  0  0  0  0  0  0  0  0  0
  -24.4560   -9.8450   20.8620 C   0  0  0  0  0  0  0  0  0  0  0  0
  -24.8550   -9.0320   21.9460 C   0  0  0  0  0  3  0  0  0  0  0  0
  -24.2220   -7.7940   22.1830 C   0  0  0  0  0  3  0  0  0  0  0  0
  -23.1740   -7.3630   21.3310 C   0  0  0  0  0  0  0  0  0  0  0  0
  -22.7920   -8.1670   20.2390 C   0  0  0  0  0  3  0  0  0  0  0  0
  -23.4290   -9.3970   20.0050 C   0  0  0  0  0  3  0  0  0  0  0  0
  -22.5060   -6.1710   21.4740 O   0  0  0  0  0  0  0  0  0  0  0  0
  -22.2590   -5.6240   22.7070 C   0  0  0  0  0  0  0  0  0  0  0  0
  -21.5320   -6.3170   23.6990 C   0  0  0  0  0  3  0  0  0  0  0  0
  -21.2390   -5.6900   24.9250 C   0  0  0  0  0  3  0  0  0  0  0  0
  -21.6610   -4.3700   25.1620 C   0  0  0  0  0  0  0  0  0  0  0  0
  -22.3790   -3.6730   24.1760 C   0  0  0  0  0  3  0  0  0  0  0  0
  -22.6750   -4.2980   22.9500 C   0  0  0  0  0  0  0  0  0  0  0  0
  -23.3490   -3.6120   21.9960 F   0  0  0  0  0  0  0  0  0  0  0  0
  -21.3700   -3.7670   26.3390 F   0  0  0  0  0  0  0  0  0  0  0  0
  -23.0970  -12.8340   20.6480 C   0  0  0  0  0  0  0  0  0  0  0  0
  -22.3840  -12.1910   21.5640 N   0  0  0  0  0  0  0  0  0  0  0  0
  -22.6010  -13.7440   19.9790 O   0  0  0  0  0  0  0  0  0  0  0  0
  -22.7910  -11.4620   22.1300 H   0  0  0  0  0  0  0  0  0  0  0  0
  -21.4140  -12.4320   21.7190 H   0  0  0  0  0  0  0  0  0  0  0  0
  -25.6400  -14.6320   19.8380 N   0  0  0  0  0  0  0  0  0  0  0  0
  -24.7950  -15.1890   19.7740 H   0  0  0  0  0  0  0  0  0  0  0  0
  -26.4310  -15.0520   19.3680 H   0  0  0  0  0  0  0  0  0  0  0  0
  -30.7230  -18.6710   22.6910 C   0  0  0  0  0  1  0  0  0  0  0  0
  -31.6770  -16.3720   22.9220 C   0  0  0  0  0  1  0  0  0  0  0  0
  -32.4100  -17.8750   21.0290 C   0  0  0  0  0  1  0  0  0  0  0  0
  -31.2020  -17.4310   21.8880 C   0  0  1  0  0  0  0  0  0  0  0  0
  1 58  1  0
  1 11  1  0
  1  2  1  6
  3  1  1  0
  3  4  1  0
  5  4  1  0
  5  6  1  0
  6  7  1  0
  7  9  1  0
  7 10  1  0
  8  7  1  0
 12 13  1  0
 12 11  1  0
 15 14  1  0
 15 13  1  0
 15 16  1  0
 17 16  1  0
 18 29  2  0
 19 17  1  0
 19 24  1  0
 20 28  1  0
 20 30  1  0
 21 27  1  0
 21 23  1  0
 22 28  1  0
 23 22  1  0
 24 23  2  0
 25 26  1  0
 25 19  2  0
 26 21  2  0
 27 20  1  0
 28 18  1  0
 30 32  2  0
 31 30  1  0
 33 31  1  0
 34 43  2  0
 34 39  1  0
 35 31  1  0
 35 39  1  0
 36 35  1  0
 37 38  1  0
 37 36  1  0
 38 34  1  0
 39 40  2  0
 40 41  1  0
 42 41  2  0
 43 42  1  0
 44 18  1  0
 44 45  1  0
 44 54  1  0
 45 48  1  0
 46 50  1  0
 46 45  1  0
 47 46  2  0
 50 49  1  0
 52 50  1  0
 52 53  1  0
 52 51  1  0
 54 57  1  1
 54 55  1  0
 56 54  1  0
 59 58  1  0
 59101  1  0
 60 68  1  0
 61 66  1  0
 62 63  1  0
 62 61  1  0
 64 63  1  0
 64 73  1  0
 64 65  1  0
 66 60  1  0
 66 65  1  0
 67 60  2  0
 68 59  1  0
 68 69  1  0
 70 71  2  0
 71 72  1  0
 71 90  1  0
 72 75  1  0
 73 70  1  0
 73 74  1  0
 74 72  2  0
 75 76  1  0
 76 77  2  0
 78 81  1  0
 78 77  1  0
 79 78  2  0
 80 79  1  0
 80 75  2  0
 81 82  1  0
 82 87  2  0
 82 83  1  0
 83 84  2  0
 84 85  1  0
 85 89  1  0
 86 85  2  0
 87 86  1  0
 88 87  1  0
 90 91  1  0
 91 94  1  0
 91 93  1  0
 92 90  2  0
 95 70  1  0
 96 95  1  0
 97 95  1  0
101100  1  6
101 98  1  0
101 99  1  0
M  ISO  4  16 101  17 101  60 100  68 100
M  END
>  <TORSDO>  (17) 
F 29

>  <SCORE>  (17) 
-5.453

>  <name>  (17) 
16

>  <ligand_id>  (17) 
16

>  <original_smiles>  (17) 
[H]c1c([H])c([H])c2c(c1[H])C([H])([H])C([H])([H])C([H])([H])C2([H])N([H])C(=O)C1([H])N(C(=O)C([H])(N([H])C(=O)C([H])(N([H])C([H])([H])[H])C([H])([H])[H])C(C([H])([H])[H])(C([H])([H])[H])C([H])([H])[H])C([H])([H])c2c([H])c(OC([H])([H])C([H])(C([H])([H])[H])C([H])([H])C([H])([H])C([H])([H])[N+]([H])(C([H])([H])C([H])([H])C([H])([H])C([H])([H])[N+]([H])([H])[H])C([H])([H])C([H])(N([H])C(=O)N3C([H])([H])C([H])([H])C([H])([H])C([H])(n4nc(-c5c([H])c([H])c(Oc6c([H])c([H])c(F)c([H])c6F)c([H])c5[H])c(C(=O)N([H])[H])c4N([H])[H])C3([H])[H])C(C([H])([H])[H])(C([H])([H])[H])C([H])([H])[H])c([H])c([H])c2C1([H])[H]

>  <smiles>  (17) 
[H]c1c([H])c([H])c2c(c1[H])C([H])([H])C([H])([H])C([H])([H])C2([H])N([H])C(=O)C1([H])N(C(=O)C([H])(N([H])C(=O)C([H])(N([H])C([H])([H])[H])C([H])([H])[H])C(C([H])([H])[H])(C([H])([H])[H])C([H])([H])[H])C([H])([H])c2c([H])c(OC([H])([H])C([H])(C([H])([H])[H])C([H])([H])C([H])([H])C([H])([H])[N+]([H])(C([H])([H])C([H])([H])C([H])([H])C([H])([H])[N+]([H])([H])[H])C([H])([H])C([H])(N([H])C(=O)N3C([H])([H])C([H])([H])C([H])([H])C([H])(n4nc(-c5c([H])c([H])c(Oc6c([H])c([H])c(F)c([H])c6F)c([H])c5[H])c(C(=O)N([H])[H])c4N([H])[H])C3([H])[H])C(C([H])([H])[H])(C([H])([H])[H])C([H])([H])[H])c([H])c([H])c2C1([H])[H]

$$$$
17:0:0
     RDKit          3D

 88 95  0  0  1  0  0  0  0  0999 V2000
  -28.8550  -22.3570   20.5280 C   0  0  0  0  0  2  0  0  0  0  0  0
  -31.2070  -21.5390   20.1540 C   0  0  0  0  0  1  0  0  0  0  0  0
  -29.7670  -21.1840   20.1290 N   0  0  1  0  0  4  0  0  0  0  0  0
  -29.5450  -21.0070   19.1600 H   0  0  0  0  0  0  0  0  0  0  0  0
  -29.5230  -19.8620   20.8650 C   0  0  0  0  0  2  0  0  0  0  0  0
  -29.8270  -18.4630   20.1240 C   0  0  0  0  0  2  0  0  0  0  0  0
  -30.2380  -17.2020   21.0310 C   0  0  0  0  0  2  0  0  0  0  0  0
  -30.6150  -14.6820   20.3740 C   0  0  0  0  0  0  0  0  0  0  0  0
  -30.3730  -12.4400   19.3180 C   0  0  0  0  0  2  0  0  0  0  0  0
  -29.4130  -12.5370   18.1140 C   0  0  0  0  0  2  0  0  0  0  0  0
  -27.9510  -12.3700   18.5680 C   0  0  0  0  0  2  0  0  0  0  0  0
  -27.6000  -13.2540   19.7930 C   0  0  0  0  0  3  0  0  0  0  0  0
  -28.6730  -13.1370   20.8960 C   0  0  0  0  0  2  0  0  0  0  0  0
  -29.9680  -13.4750   20.2870 N   0  0  0  0  0  0  0  0  0  0  0  0
  -31.7980  -14.7970   20.0510 O   0  0  0  0  0  0  0  0  0  0  0  0
  -29.8460  -15.7880   20.6490 N   0  0  0  0  0  0  0  0  0  0  0  0
  -28.8700  -15.5720   20.7820 H   0  0  0  0  0  0  0  0  0  0  0  0
  -25.2190  -13.8610   20.5450 C   0  0  0  0  0  0  0  0  0  0  0  0
  -24.1530  -13.0900   20.9270 C   0  0  0  0  0  0  0  0  0  0  0  0
  -24.6100  -11.7370   20.8880 C   0  0  0  0  0  0  0  0  0  0  0  0
  -26.2570  -12.9770   20.2990 N   0  0  0  0  0  0  0  0  0  0  0  0
  -25.8980  -11.6950   20.5680 N   0  0  0  0  0  0  0  0  0  0  0  0
  -23.8830  -10.4760   21.0840 C   0  0  0  0  0  0  0  0  0  0  0  0
  -24.3400   -9.4910   21.9860 C   0  0  0  0  0  3  0  0  0  0  0  0
  -23.6110   -8.2960   22.1700 C   0  0  0  0  0  3  0  0  0  0  0  0
  -22.4130   -8.0770   21.4510 C   0  0  0  0  0  0  0  0  0  0  0  0
  -21.9750   -9.0510   20.5360 C   0  0  0  0  0  3  0  0  0  0  0  0
  -22.7030  -10.2380   20.3500 C   0  0  0  0  0  3  0  0  0  0  0  0
  -21.6550   -6.9350   21.5450 O   0  0  0  0  0  0  0  0  0  0  0  0
  -21.6600   -6.1580   22.6740 C   0  0  0  0  0  0  0  0  0  0  0  0
  -21.3260   -6.6830   23.9410 C   0  0  0  0  0  3  0  0  0  0  0  0
  -21.2770   -5.8360   25.0650 C   0  0  0  0  0  3  0  0  0  0  0  0
  -21.5530   -4.4630   24.9250 C   0  0  0  0  0  0  0  0  0  0  0  0
  -21.8810   -3.9350   23.6630 C   0  0  0  0  0  3  0  0  0  0  0  0
  -21.9310   -4.7810   22.5410 C   0  0  0  0  0  0  0  0  0  0  0  0
  -22.2270   -4.2640   21.3230 F   0  0  0  0  0  0  0  0  0  0  0  0
  -21.4990   -3.6470   26.0030 F   0  0  0  0  0  0  0  0  0  0  0  0
  -22.7600  -13.5710   21.2150 C   0  0  0  0  0  0  0  0  0  0  0  0
  -22.0420  -12.8730   22.0900 N   0  0  0  0  0  0  0  0  0  0  0  0
  -22.3180  -14.5970   20.7000 O   0  0  0  0  0  0  0  0  0  0  0  0
  -22.4140  -12.0390   22.5180 H   0  0  0  0  0  0  0  0  0  0  0  0
  -21.1090  -13.1750   22.3320 H   0  0  0  0  0  0  0  0  0  0  0  0
  -25.3890  -15.2310   20.3620 N   0  0  0  0  0  0  0  0  0  0  0  0
  -24.6260  -15.8910   20.4600 H   0  0  0  0  0  0  0  0  0  0  0  0
  -26.2310  -15.6550   19.9940 H   0  0  0  0  0  0  0  0  0  0  0  0
  -29.2470  -23.8790   20.1570 C   0  0  0  0  0  3  0  0  0  0  0  0
  -28.0720  -24.9660   20.1880 C   0  0  0  0  0  3  0  0  0  0  0  0
  -28.3140  -26.4400   20.1530 O   0  0  0  0  0  0  0  0  0  0  0  0
  -24.6020  -31.8710   23.2200 C   0  0  0  0  0  0  0  0  0  0  0  0
  -27.1920  -27.2990   20.1330 C   0  0  0  0  0  0  0  0  0  0  0  0
  -23.3840  -30.4760   21.5930 C   0  0  0  0  0  3  0  0  0  0  0  0
  -24.8240  -28.9270   20.1550 C   0  0  0  0  0  0  0  0  0  0  0  0
  -25.9240  -30.7910   21.3840 C   0  0  0  0  0  2  0  0  0  0  0  0
  -26.0020  -29.4100   20.7380 C   0  0  0  0  0  0  0  0  0  0  0  0
  -27.1880  -28.6080   20.7150 C   0  0  0  0  0  3  0  0  0  0  0  0
  -25.9820  -26.8780   19.5300 C   0  0  0  0  0  3  0  0  0  0  0  0
  -24.8170  -27.6660   19.5460 C   0  0  0  0  0  3  0  0  0  0  0  0
  -23.5870  -29.8010   20.2120 C   0  0  0  0  0  2  0  0  0  0  0  0
  -24.6580  -31.0600   22.1240 N   0  0  0  0  0  0  0  0  0  0  0  0
  -23.5220  -32.1500   23.7620 O   0  0  0  0  0  0  0  0  0  0  0  0
  -22.7290  -29.4560   22.5550 C   0  0  0  0  0  0  0  0  0  0  0  0
  -21.4020  -29.2760   22.4400 N   0  0  0  0  0  0  0  0  0  0  0  0
  -23.4130  -28.8290   23.3670 O   0  0  0  0  0  0  0  0  0  0  0  0
  -20.9050  -29.8390   21.7630 H   0  0  0  0  0  0  0  0  0  0  0  0
  -18.0320  -28.0650   22.9560 C   0  0  0  0  0  0  0  0  0  0  0  0
  -20.5900  -28.3400   23.2210 C   0  0  0  0  0  3  0  0  0  0  0  0
  -20.6980  -26.9030   22.6590 C   0  0  0  0  0  2  0  0  0  0  0  0
  -19.5970  -26.5670   21.6480 C   0  0  0  0  0  2  0  0  0  0  0  0
  -18.2140  -26.7110   22.2930 C   0  0  0  0  0  2  0  0  0  0  0  0
  -19.1480  -28.8360   23.3800 C   0  0  0  0  0  0  0  0  0  0  0  0
  -18.9230  -30.1010   23.9630 C   0  0  0  0  0  3  0  0  0  0  0  0
  -17.6160  -30.5980   24.1250 C   0  0  0  0  0  3  0  0  0  0  0  0
  -16.5160  -29.8230   23.7190 C   0  0  0  0  0  3  0  0  0  0  0  0
  -16.7240  -28.5590   23.1400 C   0  0  0  0  0  3  0  0  0  0  0  0
  -25.8890  -32.5040   23.8310 C   0  0  0  0  0  3  0  0  0  0  0  0
  -25.5780  -33.8990   24.1710 N   0  0  0  0  0  0  0  0  0  0  0  0
  -25.8960  -34.9580   23.4140 C   0  0  0  0  0  0  0  0  0  0  0  0
  -26.5530  -34.8630   22.3740 O   0  0  0  0  0  0  0  0  0  0  0  0
  -24.9940  -34.0460   24.9820 H   0  0  0  0  0  0  0  0  0  0  0  0
  -24.1540  -36.7460   23.0990 C   0  0  0  0  0  1  0  0  0  0  0  0
  -25.4100  -36.3420   23.8870 C   0  0  0  0  0  3  0  0  0  0  0  0
  -27.5560  -37.2290   24.6850 C   0  0  0  0  0  1  0  0  0  0  0  0
  -26.4360  -37.4000   23.7640 N   0  0  0  0  0  0  0  0  0  0  0  0
  -26.0290  -38.3160   23.9310 H   0  0  0  0  0  0  0  0  0  0  0  0
  -26.4240  -31.7280   25.0960 C   0  0  1  0  0  0  0  0  0  0  0  0
  -25.3430  -31.4810   26.1750 C   0  0  0  0  0  1  0  0  0  0  0  0
  -27.0040  -30.3540   24.6860 C   0  0  0  0  0  1  0  0  0  0  0  0
  -27.5850  -32.5200   25.7450 C   0  0  0  0  0  1  0  0  0  0  0  0
  3  2  1  0
  3  1  1  0
  3  5  1  0
  3  4  1  6
  6  5  1  0
  6  7  1  0
  8 16  1  0
  9 14  1  0
 10 11  1  0
 10  9  1  0
 12 11  1  0
 12 21  1  0
 12 13  1  0
 14  8  1  0
 14 13  1  0
 15  8  2  0
 16 17  1  0
 16  7  1  0
 18 19  2  0
 19 38  1  0
 20 19  1  0
 20 23  1  0
 21 18  1  0
 21 22  1  0
 22 20  2  0
 23 24  1  0
 24 25  2  0
 26 29  1  0
 26 25  1  0
 27 26  2  0
 28 27  1  0
 28 23  2  0
 29 30  1  0
 30 31  1  0
 31 32  2  0
 33 32  1  0
 33 37  1  0
 34 33  2  0
 35 30  2  0
 35 34  1  0
 36 35  1  0
 38 39  1  0
 39 42  1  0
 39 41  1  0
 40 38  2  0
 43 44  1  0
 43 18  1  0
 45 43  1  0
 46 47  2  0
 46  1  1  0
 48 47  1  0
 49 60  2  0
 50 48  1  0
 50 55  1  0
 51 59  1  0
 51 61  1  0
 52 58  1  0
 52 54  1  0
 53 59  1  0
 54 53  1  0
 55 54  2  0
 56 57  1  0
 56 50  2  0
 57 52  2  0
 58 51  1  0
 59 49  1  0
 61 63  2  0
 62 61  1  0
 64 62  1  0
 65 74  2  0
 65 70  1  0
 66 62  1  0
 66 70  1  0
 67 66  1  0
 68 69  1  0
 68 67  1  0
 69 65  1  0
 70 71  2  0
 71 72  1  0
 73 72  2  0
 74 73  1  0
 75 49  1  0
 75 76  1  0
 75 85  1  0
 76 79  1  0
 77 81  1  0
 77 76  1  0
 78 77  2  0
 81 80  1  0
 83 81  1  0
 83 84  1  0
 83 82  1  0
 85 88  1  1
 85 86  1  0
 87 85  1  0
M  ISO  4   8 100  16 100  47 101  48 101
M  END
>  <TORSDO>  (18) 
F 22

>  <SCORE>  (18) 
-12.864

>  <name>  (18) 
17

>  <ligand_id>  (18) 
17

>  <original_smiles>  (18) 
[H]c1c([H])c([H])c2c(c1[H])C([H])([H])C([H])([H])C([H])([H])C2([H])N([H])C(=O)C1([H])N(C(=O)C([H])(N([H])C(=O)C([H])(N([H])C([H])([H])[H])C([H])([H])[H])C(C([H])([H])[H])(C([H])([H])[H])C([H])([H])[H])C([H])([H])c2c([H])c(OC([H])([H])C([H])([H])C([H])([H])[N+]([H])(C([H])([H])[H])C([H])([H])C([H])([H])C([H])([H])N([H])C(=O)N3C([H])([H])C([H])([H])C([H])([H])C([H])(n4nc(-c5c([H])c([H])c(Oc6c([H])c([H])c(F)c([H])c6F)c([H])c5[H])c(C(=O)N([H])[H])c4N([H])[H])C3([H])[H])c([H])c([H])c2C1([H])[H]

>  <smiles>  (18) 
[H]c1c([H])c([H])c2c(c1[H])C([H])([H])C([H])([H])C([H])([H])C2([H])N([H])C(=O)C1([H])N(C(=O)C([H])(N([H])C(=O)C([H])(N([H])C([H])([H])[H])C([H])([H])[H])C(C([H])([H])[H])(C([H])([H])[H])C([H])([H])[H])C([H])([H])c2c([H])c(OC([H])([H])C([H])([H])C([H])([H])[N+]([H])(C([H])([H])[H])C([H])([H])C([H])([H])C([H])([H])N([H])C(=O)N3C([H])([H])C([H])([H])C([H])([H])C([H])(n4nc(-c5c([H])c([H])c(Oc6c([H])c([H])c(F)c([H])c6F)c([H])c5[H])c(C(=O)N([H])[H])c4N([H])[H])C3([H])[H])c([H])c([H])c2C1([H])[H]

$$$$
18:0:0
     RDKit          3D

 90 98  0  0  1  0  0  0  0  0999 V2000
  -28.9090  -21.0470   20.5010 C   0  0  0  0  0  2  0  0  0  0  0  0
  -29.8460  -18.5770   20.0360 C   0  0  0  0  0  0  0  0  0  0  0  0
  -28.9900  -19.6540   19.8400 N   0  0  0  0  0  0  0  0  0  0  0  0
  -31.0020  -18.7770   20.4170 O   0  0  0  0  0  0  0  0  0  0  0  0
  -28.1460  -19.4190   19.3350 H   0  0  0  0  0  0  0  0  0  0  0  0
  -30.7100  -14.7990   19.4540 C   0  0  0  0  0  0  0  0  0  0  0  0
  -30.2940  -12.6080   18.2590 C   0  0  0  0  0  2  0  0  0  0  0  0
  -29.1450  -12.7050   17.2240 C   0  0  0  0  0  2  0  0  0  0  0  0
  -27.7660  -12.5040   17.8860 C   0  0  0  0  0  2  0  0  0  0  0  0
  -27.6130  -13.3320   19.1880 C   0  0  0  0  0  3  0  0  0  0  0  0
  -28.8440  -13.1540   20.0970 C   0  0  0  0  0  2  0  0  0  0  0  0
  -30.0410  -13.5860   19.3500 N   0  0  0  0  0  0  0  0  0  0  0  0
  -31.7090  -15.0010   18.7540 O   0  0  0  0  0  0  0  0  0  0  0  0
  -29.2880  -16.6760   22.3150 C   0  0  0  0  0  2  0  0  0  0  0  0
  -28.3540  -16.8920   21.1210 C   0  0  0  0  0  2  0  0  0  0  0  0
  -30.3040  -15.6820   21.7310 C   0  0  0  0  0  2  0  0  0  0  0  0
  -29.3250  -17.0390   19.9390 C   0  0  0  0  0  3  0  0  0  0  0  0
  -30.1890  -15.8050   20.2620 N   0  0  0  0  0  0  0  0  0  0  0  0
  -25.4120  -13.9000   20.3860 C   0  0  0  0  0  0  0  0  0  0  0  0
  -24.4090  -13.1120   20.8870 C   0  0  0  0  0  0  0  0  0  0  0  0
  -24.8130  -11.7650   20.6480 C   0  0  0  0  0  0  0  0  0  0  0  0
  -26.3660  -13.0290   19.8860 N   0  0  0  0  0  0  0  0  0  0  0  0
  -26.0230  -11.7320   20.1050 N   0  0  0  0  0  0  0  0  0  0  0  0
  -24.0840  -10.5060   20.8570 C   0  0  0  0  0  0  0  0  0  0  0  0
  -24.5970   -9.4900   21.6920 C   0  0  0  0  0  3  0  0  0  0  0  0
  -23.8760   -8.2940   21.8880 C   0  0  0  0  0  3  0  0  0  0  0  0
  -22.6230   -8.1090   21.2580 C   0  0  0  0  0  0  0  0  0  0  0  0
  -22.1280   -9.1130   20.4080 C   0  0  0  0  0  3  0  0  0  0  0  0
  -22.8520  -10.3010   20.2050 C   0  0  0  0  0  3  0  0  0  0  0  0
  -21.8600   -6.9740   21.3740 O   0  0  0  0  0  0  0  0  0  0  0  0
  -21.8540   -6.2270   22.5240 C   0  0  0  0  0  0  0  0  0  0  0  0
  -21.5100   -6.7850   23.7740 C   0  0  0  0  0  3  0  0  0  0  0  0
  -21.4450   -5.9650   24.9170 C   0  0  0  0  0  3  0  0  0  0  0  0
  -21.7170   -4.5860   24.8120 C   0  0  0  0  0  0  0  0  0  0  0  0
  -22.0580   -4.0300   23.5650 C   0  0  0  0  0  3  0  0  0  0  0  0
  -22.1220   -4.8480   22.4240 C   0  0  0  0  0  0  0  0  0  0  0  0
  -22.4280   -4.3020   21.2230 F   0  0  0  0  0  0  0  0  0  0  0  0
  -21.6490   -3.7960   25.9080 F   0  0  0  0  0  0  0  0  0  0  0  0
  -23.1000  -13.5870   21.4460 C   0  0  0  0  0  0  0  0  0  0  0  0
  -22.5360  -12.8440   22.3930 N   0  0  0  0  0  0  0  0  0  0  0  0
  -22.5910  -14.6460   21.0800 O   0  0  0  0  0  0  0  0  0  0  0  0
  -22.9810  -12.0040   22.7300 H   0  0  0  0  0  0  0  0  0  0  0  0
  -21.6480  -13.1230   22.7880 H   0  0  0  0  0  0  0  0  0  0  0  0
  -25.5520  -15.2770   20.2770 N   0  0  0  0  0  0  0  0  0  0  0  0
  -24.8090  -15.9030   20.5670 H   0  0  0  0  0  0  0  0  0  0  0  0
  -26.2880  -15.7480   19.7670 H   0  0  0  0  0  0  0  0  0  0  0  0
  -29.2450  -22.3920   19.6730 C   0  0  0  0  0  2  0  0  0  0  0  0
  -28.3360  -23.7580   19.6180 C   0  0  0  0  0  2  0  0  0  0  0  0
  -28.4710  -25.0280   20.6110 C   0  0  0  0  0  2  0  0  0  0  0  0
  -28.4730  -26.4680   20.1520 O   0  0  0  0  0  0  0  0  0  0  0  0
  -24.5140  -31.7720   23.1600 C   0  0  0  0  0  0  0  0  0  0  0  0
  -27.3200  -27.2820   20.1520 C   0  0  0  0  0  0  0  0  0  0  0  0
  -23.3860  -30.3590   21.4760 C   0  0  0  0  0  3  0  0  0  0  0  0
  -24.9160  -28.8570   20.0720 C   0  0  0  0  0  0  0  0  0  0  0  0
  -25.9210  -30.7510   21.3520 C   0  0  0  0  0  2  0  0  0  0  0  0
  -26.0590  -29.3760   20.6950 C   0  0  0  0  0  0  0  0  0  0  0  0
  -27.2650  -28.6060   20.7100 C   0  0  0  0  0  3  0  0  0  0  0  0
  -26.1530  -26.8190   19.5140 C   0  0  0  0  0  3  0  0  0  0  0  0
  -24.9720  -27.5900   19.4640 C   0  0  0  0  0  3  0  0  0  0  0  0
  -23.6540  -29.7010   20.0940 C   0  0  0  0  0  2  0  0  0  0  0  0
  -24.6230  -30.9800   22.0520 N   0  0  0  0  0  0  0  0  0  0  0  0
  -23.4120  -32.0130   23.6750 O   0  0  0  0  0  0  0  0  0  0  0  0
  -22.7300  -29.3160   22.4140 C   0  0  0  0  0  0  0  0  0  0  0  0
  -21.4160  -29.0850   22.2450 N   0  0  0  0  0  0  0  0  0  0  0  0
  -23.4070  -28.7170   23.2530 O   0  0  0  0  0  0  0  0  0  0  0  0
  -20.9230  -29.6310   21.5530 H   0  0  0  0  0  0  0  0  0  0  0  0
  -18.0810  -27.7350   22.6140 C   0  0  0  0  0  0  0  0  0  0  0  0
  -20.6120  -28.1120   22.9850 C   0  0  0  0  0  3  0  0  0  0  0  0
  -20.8000  -26.6850   22.4190 C   0  0  0  0  0  2  0  0  0  0  0  0
  -19.7570  -26.3120   21.3600 C   0  0  0  0  0  2  0  0  0  0  0  0
  -18.3450  -26.3930   21.9470 C   0  0  0  0  0  2  0  0  0  0  0  0
  -19.1450  -28.5470   23.0860 C   0  0  0  0  0  0  0  0  0  0  0  0
  -18.8440  -29.7990   23.6650 C   0  0  0  0  0  3  0  0  0  0  0  0
  -17.5120  -30.2420   23.7720 C   0  0  0  0  0  3  0  0  0  0  0  0
  -16.4610  -29.4260   23.3160 C   0  0  0  0  0  3  0  0  0  0  0  0
  -16.7460  -28.1720   22.7460 C   0  0  0  0  0  3  0  0  0  0  0  0
  -25.7640  -32.4340   23.8190 C   0  0  0  0  0  3  0  0  0  0  0  0
  -26.2980  -31.6470   25.0790 C   0  0  1  0  0  0  0  0  0  0  0  0
  -25.1980  -31.3250   26.1180 C   0  0  0  0  0  1  0  0  0  0  0  0
  -26.9580  -30.3110   24.6580 C   0  0  0  0  0  1  0  0  0  0  0  0
  -27.3940  -32.4740   25.7920 C   0  0  0  0  0  1  0  0  0  0  0  0
  -25.3960  -33.8100   24.1870 N   0  0  0  0  0  0  0  0  0  0  0  0
  -25.7040  -34.9000   23.4720 C   0  0  0  0  0  0  0  0  0  0  0  0
  -26.3960  -34.8580   22.4500 O   0  0  0  0  0  0  0  0  0  0  0  0
  -24.7760  -33.9140   24.9780 H   0  0  0  0  0  0  0  0  0  0  0  0
  -23.9270  -36.6520   23.1410 C   0  0  0  0  0  1  0  0  0  0  0  0
  -25.1600  -36.2550   23.9680 C   0  0  0  0  0  3  0  0  0  0  0  0
  -27.2460  -37.1770   24.8820 C   0  0  0  0  0  1  0  0  0  0  0  0
  -26.1590  -37.3450   23.9220 N   0  0  0  0  0  0  0  0  0  0  0  0
  -25.7160  -38.2440   24.0970 H   0  0  0  0  0  0  0  0  0  0  0  0
  2  4  2  0
  3  2  1  0
  3  1  1  0
  5  3  1  0
  6 18  1  0
  7 12  1  0
  8  9  1  0
  8  7  1  0
 10  9  1  0
 10 22  1  0
 10 11  1  0
 12  6  1  0
 12 11  1  0
 13  6  2  0
 15 14  1  0
 16 14  1  0
 17  2  1  0
 17 18  1  0
 17 15  1  0
 18 16  1  0
 19 20  2  0
 20 39  1  0
 21 24  1  0
 21 20  1  0
 22 23  1  0
 22 19  1  0
 23 21  2  0
 24 25  1  0
 25 26  2  0
 27 30  1  0
 27 26  1  0
 28 27  2  0
 29 28  1  0
 29 24  2  0
 30 31  1  0
 31 32  1  0
 32 33  2  0
 34 33  1  0
 34 38  1  0
 35 34  2  0
 36 31  2  0
 36 35  1  0
 37 36  1  0
 39 40  1  0
 40 42  1  0
 40 43  1  0
 41 39  2  0
 44 19  1  0
 44 45  1  0
 46 44  1  0
 47  1  1  0
 48 47  1  0
 48 49  1  0
 50 49  1  0
 51 62  2  0
 52 50  1  0
 52 57  1  0
 53 61  1  0
 53 63  1  0
 54 60  1  0
 54 56  1  0
 55 61  1  0
 56 57  2  0
 56 55  1  0
 58 52  2  0
 59 58  1  0
 59 54  2  0
 60 53  1  0
 61 51  1  0
 63 65  2  0
 64 63  1  0
 66 64  1  0
 67 76  2  0
 67 72  1  0
 68 64  1  0
 68 72  1  0
 69 68  1  0
 70 71  1  0
 70 69  1  0
 71 67  1  0
 72 73  2  0
 73 74  1  0
 75 74  2  0
 76 75  1  0
 77 51  1  0
 77 82  1  0
 77 78  1  0
 78 81  1  1
 78 79  1  0
 80 78  1  0
 82 85  1  0
 83 87  1  0
 83 82  1  0
 84 83  2  0
 87 86  1  0
 89 87  1  0
 89 90  1  0
 89 88  1  0
M  ISO  4   6 100  18 100  49 101  50 101
M  END
>  <TORSDO>  (19) 
F 20

>  <SCORE>  (19) 
-10.366

>  <name>  (19) 
18

>  <ligand_id>  (19) 
18

>  <original_smiles>  (19) 
[H]c1c([H])c([H])c2c(c1[H])C([H])([H])C([H])([H])C([H])([H])C2([H])N([H])C(=O)C1([H])N(C(=O)C([H])(N([H])C(=O)C([H])(N([H])C([H])([H])[H])C([H])([H])[H])C(C([H])([H])[H])(C([H])([H])[H])C([H])([H])[H])C([H])([H])c2c([H])c(OC([H])([H])C([H])([H])C([H])([H])C([H])([H])N([H])C(=O)C3([H])N(C(=O)N4C([H])([H])C([H])([H])C([H])([H])C([H])(n5nc(-c6c([H])c([H])c(Oc7c([H])c([H])c(F)c([H])c7F)c([H])c6[H])c(C(=O)N([H])[H])c5N([H])[H])C4([H])[H])C([H])([H])C([H])([H])C3([H])[H])c([H])c([H])c2C1([H])[H]

>  <smiles>  (19) 
[H]c1c([H])c([H])c2c(c1[H])C([H])([H])C([H])([H])C([H])([H])C2([H])N([H])C(=O)C1([H])N(C(=O)C([H])(N([H])C(=O)C([H])(N([H])C([H])([H])[H])C([H])([H])[H])C(C([H])([H])[H])(C([H])([H])[H])C([H])([H])[H])C([H])([H])c2c([H])c(OC([H])([H])C([H])([H])C([H])([H])C([H])([H])N([H])C(=O)C3([H])N(C(=O)N4C([H])([H])C([H])([H])C([H])([H])C([H])(n5nc(-c6c([H])c([H])c(Oc7c([H])c([H])c(F)c([H])c7F)c([H])c6[H])c(C(=O)N([H])[H])c5N([H])[H])C4([H])[H])C([H])([H])C([H])([H])C3([H])[H])c([H])c([H])c2C1([H])[H]

$$$$
19:0:0
     RDKit          3D

 92 99  0  0  1  0  0  0  0  0999 V2000
  -29.6150  -21.2910   20.8510 C   0  0  0  0  0  3  0  0  0  0  0  0
  -28.9940  -22.5280   20.0420 C   0  0  0  0  0  2  0  0  0  0  0  0
  -28.8300  -23.9860   20.7000 C   0  0  0  0  0  3  0  0  0  0  0  0
  -30.2860  -23.9550   22.8330 C   0  0  0  0  0  1  0  0  0  0  0  0
  -30.1170  -24.4780   21.3970 C   0  0  0  0  0  2  0  0  0  0  0  0
  -28.2690  -25.1130   19.7140 C   0  0  0  0  0  2  0  0  0  0  0  0
  -28.3350  -26.5470   20.1150 O   0  0  0  0  0  0  0  0  0  0  0  0
  -24.6380  -31.9330   23.2100 C   0  0  0  0  0  0  0  0  0  0  0  0
  -27.2060  -27.3890   20.0640 C   0  0  0  0  0  0  0  0  0  0  0  0
  -23.4170  -30.5440   21.5810 C   0  0  0  0  0  3  0  0  0  0  0  0
  -24.8450  -29.0160   20.1130 C   0  0  0  0  0  0  0  0  0  0  0  0
  -25.9590  -30.8570   21.3710 C   0  0  0  0  0  2  0  0  0  0  0  0
  -26.0220  -29.4870   20.7060 C   0  0  0  0  0  0  0  0  0  0  0  0
  -27.2010  -28.6830   20.6780 C   0  0  0  0  0  3  0  0  0  0  0  0
  -26.0090  -26.9900   19.4260 C   0  0  0  0  0  3  0  0  0  0  0  0
  -24.8410  -27.7740   19.4650 C   0  0  0  0  0  3  0  0  0  0  0  0
  -23.6090  -29.8920   20.1900 C   0  0  0  0  0  2  0  0  0  0  0  0
  -24.6910  -31.1300   22.1080 N   0  0  0  0  0  0  0  0  0  0  0  0
  -23.5610  -32.2040   23.7600 O   0  0  0  0  0  0  0  0  0  0  0  0
  -22.7730  -29.5110   22.5360 C   0  0  0  0  0  0  0  0  0  0  0  0
  -21.4490  -29.3200   22.4190 N   0  0  0  0  0  0  0  0  0  0  0  0
  -23.4650  -28.8890   23.3460 O   0  0  0  0  0  0  0  0  0  0  0  0
  -20.9500  -29.8700   21.7350 H   0  0  0  0  0  0  0  0  0  0  0  0
  -18.0840  -28.1050   22.9490 C   0  0  0  0  0  0  0  0  0  0  0  0
  -20.6450  -28.3750   23.1950 C   0  0  0  0  0  3  0  0  0  0  0  0
  -20.7480  -26.9470   22.6090 C   0  0  0  0  0  2  0  0  0  0  0  0
  -19.6360  -26.6250   21.6070 C   0  0  0  0  0  2  0  0  0  0  0  0
  -18.2600  -26.7610   22.2650 C   0  0  0  0  0  2  0  0  0  0  0  0
  -19.2040  -28.8710   23.3710 C   0  0  0  0  0  0  0  0  0  0  0  0
  -18.9820  -30.1310   23.9690 C   0  0  0  0  0  3  0  0  0  0  0  0
  -17.6760  -30.6220   24.1500 C   0  0  0  0  0  3  0  0  0  0  0  0
  -16.5710  -29.8530   23.7450 C   0  0  0  0  0  3  0  0  0  0  0  0
  -16.7770  -28.5960   23.1480 C   0  0  0  0  0  3  0  0  0  0  0  0
  -25.9270  -32.5670   23.8180 C   0  0  0  0  0  3  0  0  0  0  0  0
  -26.4720  -31.7810   25.0720 C   0  0  1  0  0  0  0  0  0  0  0  0
  -25.3970  -31.4940   26.1460 C   0  0  0  0  0  1  0  0  0  0  0  0
  -27.0820  -30.4260   24.6480 C   0  0  0  0  0  1  0  0  0  0  0  0
  -27.6100  -32.5890   25.7380 C   0  0  0  0  0  1  0  0  0  0  0  0
  -25.6070  -33.9580   24.1780 N   0  0  0  0  0  0  0  0  0  0  0  0
  -25.9250  -35.0280   23.4380 C   0  0  0  0  0  0  0  0  0  0  0  0
  -26.5890  -34.9530   22.4000 O   0  0  0  0  0  0  0  0  0  0  0  0
  -25.0110  -34.0870   24.9820 H   0  0  0  0  0  0  0  0  0  0  0  0
  -24.1800  -36.8160   23.1340 C   0  0  0  0  0  1  0  0  0  0  0  0
  -25.4300  -36.4030   23.9290 C   0  0  0  0  0  3  0  0  0  0  0  0
  -27.5650  -37.2830   24.7640 C   0  0  0  0  0  1  0  0  0  0  0  0
  -26.4540  -37.4640   23.8330 N   0  0  0  0  0  0  0  0  0  0  0  0
  -26.0430  -38.3780   24.0040 H   0  0  0  0  0  0  0  0  0  0  0  0
  -29.4850  -19.8450   20.1930 C   0  0  0  0  0  3  0  0  0  0  0  0
  -30.1500  -18.5440   20.8520 C   0  0  0  0  0  2  0  0  0  0  0  0
  -30.0210  -17.2010   19.9980 C   0  0  0  0  0  0  0  0  0  0  0  0
  -30.9700  -14.7750   20.4200 C   0  0  0  0  0  0  0  0  0  0  0  0
  -30.7320  -12.5580   19.3330 C   0  0  0  0  0  2  0  0  0  0  0  0
  -29.8230  -12.7610   18.0990 C   0  0  0  0  0  2  0  0  0  0  0  0
  -28.3330  -12.6450   18.4800 C   0  0  0  0  0  2  0  0  0  0  0  0
  -27.9730  -13.4550   19.7560 C   0  0  0  0  0  3  0  0  0  0  0  0
  -29.0110  -13.2360   20.8840 C   0  0  0  0  0  2  0  0  0  0  0  0
  -30.3390  -13.5600   20.3440 N   0  0  0  0  0  0  0  0  0  0  0  0
  -32.1350  -14.9180   20.0460 O   0  0  0  0  0  0  0  0  0  0  0  0
  -30.1550  -15.8480   20.6660 N   0  0  0  0  0  4  0  0  0  0  0  0
  -29.2880  -15.5530   21.0930 H   0  0  0  0  0  0  0  0  0  0  0  0
  -25.5650  -14.0760   20.3980 C   0  0  0  0  0  0  0  0  0  0  0  0
  -24.4830  -13.3140   20.7500 C   0  0  0  0  0  0  0  0  0  0  0  0
  -24.9380  -11.9610   20.7550 C   0  0  0  0  0  0  0  0  0  0  0  0
  -26.6100  -13.1850   20.2070 N   0  0  0  0  0  0  0  0  0  0  0  0
  -26.2330  -11.9080   20.4780 N   0  0  0  0  0  0  0  0  0  0  0  0
  -24.1950  -10.7100   20.9450 C   0  0  0  0  0  0  0  0  0  0  0  0
  -24.5770   -9.7700   21.9290 C   0  0  0  0  0  3  0  0  0  0  0  0
  -23.8400   -8.5810   22.1080 C   0  0  0  0  0  3  0  0  0  0  0  0
  -22.7060   -8.3220   21.3040 C   0  0  0  0  0  0  0  0  0  0  0  0
  -22.3410   -9.2480   20.3140 C   0  0  0  0  0  3  0  0  0  0  0  0
  -23.0770  -10.4300   20.1300 C   0  0  0  0  0  3  0  0  0  0  0  0
  -21.9440   -7.1800   21.3900 O   0  0  0  0  0  0  0  0  0  0  0  0
  -21.8030   -6.4930   22.5700 C   0  0  0  0  0  0  0  0  0  0  0  0
  -21.2930   -7.1090   23.7350 C   0  0  0  0  0  3  0  0  0  0  0  0
  -21.1010   -6.3490   24.9050 C   0  0  0  0  0  3  0  0  0  0  0  0
  -21.4060   -4.9730   24.9120 C   0  0  0  0  0  0  0  0  0  0  0  0
  -21.9070   -4.3590   23.7510 C   0  0  0  0  0  3  0  0  0  0  0  0
  -22.1030   -5.1170   22.5830 C   0  0  0  0  0  0  0  0  0  0  0  0
  -22.5640   -4.5130   21.4620 F   0  0  0  0  0  0  0  0  0  0  0  0
  -21.2170   -4.2430   26.0340 F   0  0  0  0  0  0  0  0  0  0  0  0
  -23.0820  -13.8040   20.9780 C   0  0  0  0  0  0  0  0  0  0  0  0
  -22.3340  -13.1430   21.8540 N   0  0  0  0  0  0  0  0  0  0  0  0
  -22.6600  -14.8100   20.4110 O   0  0  0  0  0  0  0  0  0  0  0  0
  -22.6860  -12.3290   22.3360 H   0  0  0  0  0  0  0  0  0  0  0  0
  -21.3930  -13.4560   22.0430 H   0  0  0  0  0  0  0  0  0  0  0  0
  -25.7360  -15.4420   20.2040 N   0  0  0  0  0  0  0  0  0  0  0  0
  -24.9580  -16.0890   20.2740 H   0  0  0  0  0  0  0  0  0  0  0  0
  -26.5790  -15.8790   19.8570 H   0  0  0  0  0  0  0  0  0  0  0  0
  -30.7570  -17.2860   18.6290 C   0  0  0  0  0  2  0  0  0  0  0  0
  -29.9980  -18.0950   17.5610 C   0  0  0  0  0  2  0  0  0  0  0  0
  -30.2380  -19.5770   15.4940 C   0  0  0  0  0  1  0  0  0  0  0  0
  -30.9290  -18.6030   16.4540 C   0  0  0  0  0  2  0  0  0  0  0  0
  2  3  1  0
  2  1  1  0
  3  6  1  0
  3  5  1  0
  5  4  1  0
  6  7  1  0
  8 19  2  0
  9  7  1  0
  9 14  1  0
 10 18  1  0
 10 20  1  0
 11 17  1  0
 11 13  1  0
 12 18  1  0
 13 12  1  0
 14 13  2  0
 15 16  1  0
 15  9  2  0
 16 11  2  0
 17 10  1  0
 18  8  1  0
 20 22  2  0
 21 20  1  0
 23 21  1  0
 24 33  2  0
 24 29  1  0
 25 21  1  0
 25 29  1  0
 26 25  1  0
 27 28  1  0
 27 26  1  0
 28 24  1  0
 29 30  2  0
 30 31  1  0
 32 31  2  0
 33 32  1  0
 34  8  1  0
 34 39  1  0
 34 35  1  0
 35 38  1  1
 35 36  1  0
 37 35  1  0
 39 42  1  0
 40 44  1  0
 40 39  1  0
 41 40  2  0
 44 43  1  0
 46 44  1  0
 46 47  1  0
 46 45  1  0
 48  1  2  0
 48 49  1  0
 50 59  2  0
 50 49  1  0
 51 59  1  0
 52 57  1  0
 53 54  1  0
 53 52  1  0
 55 54  1  0
 55 64  1  0
 55 56  1  0
 57 51  1  0
 57 56  1  0
 58 51  2  0
 59 60  1  0
 61 62  2  0
 62 63  1  0
 62 81  1  0
 63 66  1  0
 64 61  1  0
 64 65  1  0
 65 63  2  0
 66 67  1  0
 67 68  2  0
 69 72  1  0
 69 68  1  0
 70 69  2  0
 71 70  1  0
 71 66  2  0
 72 73  1  0
 73 78  2  0
 73 74  1  0
 74 75  2  0
 75 76  1  0
 76 80  1  0
 77 76  2  0
 78 77  1  0
 79 78  1  0
 81 82  1  0
 82 85  1  0
 82 84  1  0
 83 81  2  0
 86 87  1  0
 86 61  1  0
 88 86  1  0
 89 50  1  0
 90 89  1  0
 91 92  1  0
 92 90  1  0
M  ISO  4   6 101   7 101  51 100  59 100
M  END
>  <TORSDO>  (20) 
F 26

>  <SCORE>  (20) 
-11.494

>  <name>  (20) 
19

>  <ligand_id>  (20) 
19

>  <original_smiles>  (20) 
[H]c1c([H])c([H])c2c(c1[H])C([H])([H])C([H])([H])C([H])([H])C2([H])N([H])C(=O)C1([H])N(C(=O)C([H])(N([H])C(=O)C([H])(N([H])C([H])([H])[H])C([H])([H])[H])C(C([H])([H])[H])(C([H])([H])[H])C([H])([H])[H])C([H])([H])c2c([H])c(OC([H])([H])C([H])(C([H])([H])C([H])([H])[H])C([H])([H])C([H])([H])C([H])([H])C([H])([H])C([H])(N([H])C(=O)N3C([H])([H])C([H])([H])C([H])([H])C([H])(n4nc(-c5c([H])c([H])c(Oc6c([H])c([H])c(F)c([H])c6F)c([H])c5[H])c(C(=O)N([H])[H])c4N([H])[H])C3([H])[H])C([H])([H])C([H])([H])C([H])([H])C([H])([H])[H])c([H])c([H])c2C1([H])[H]

>  <smiles>  (20) 
[H]c1c([H])c([H])c2c(c1[H])C([H])([H])C([H])([H])C([H])([H])C2([H])N([H])C(=O)C1([H])N(C(=O)C([H])(N([H])C(=O)C([H])(N([H])C([H])([H])[H])C([H])([H])[H])C(C([H])([H])[H])(C([H])([H])[H])C([H])([H])[H])C([H])([H])c2c([H])c(OC([H])([H])C([H])(C([H])([H])C([H])([H])[H])C([H])([H])C([H])([H])C([H])([H])C([H])([H])C([H])(N([H])C(=O)N3C([H])([H])C([H])([H])C([H])([H])C([H])(n4nc(-c5c([H])c([H])c(Oc6c([H])c([H])c(F)c([H])c6F)c([H])c5[H])c(C(=O)N([H])[H])c4N([H])[H])C3([H])[H])C([H])([H])C([H])([H])C([H])([H])C([H])([H])[H])c([H])c([H])c2C1([H])[H]

$$$$
20:0:0
     RDKit          3D

 93101  0  0  1  0  0  0  0  0999 V2000
  -29.4130  -20.4770   19.2730 C   0  0  0  0  0  3  0  0  0  0  0  0
  -31.0750  -15.7050   19.5080 C   0  0  0  0  0  0  0  0  0  0  0  0
  -31.0320  -13.1080   18.8900 C   0  0  0  0  0  2  0  0  0  0  0  0
  -30.0730  -12.6930   17.7380 C   0  0  0  0  0  2  0  0  0  0  0  0
  -28.6490  -12.4560   18.2670 C   0  0  0  0  0  2  0  0  0  0  0  0
  -28.2430  -13.5530   19.2770 C   0  0  0  0  0  3  0  0  0  0  0  0
  -29.3240  -13.8690   20.3330 C   0  0  0  0  0  2  0  0  0  0  0  0
  -30.5150  -14.3610   19.6070 N   0  0  0  0  0  0  0  0  0  0  0  0
  -32.2450  -15.6100   19.0830 O   0  0  0  0  0  0  0  0  0  0  0  0
  -30.9460  -18.3180   21.8900 C   0  0  0  0  0  2  0  0  0  0  0  0
  -31.3570  -19.2250   20.7360 C   0  0  0  0  0  2  0  0  0  0  0  0
  -30.3110  -17.0420   21.3020 C   0  0  0  0  0  2  0  0  0  0  0  0
  -30.4350  -18.8470   19.5810 C   0  0  0  0  0  3  0  0  0  0  0  0
  -30.4050  -17.0730   19.8160 N   0  0  0  0  0  0  0  0  0  0  0  0
  -25.9850  -14.2630   20.2010 C   0  0  0  0  0  0  0  0  0  0  0  0
  -24.8880  -13.5610   20.6240 C   0  0  0  0  0  0  0  0  0  0  0  0
  -25.2450  -12.1830   20.5290 C   0  0  0  0  0  0  0  0  0  0  0  0
  -26.9340  -13.3150   19.8660 N   0  0  0  0  0  0  0  0  0  0  0  0
  -26.5050  -12.0530   20.1260 N   0  0  0  0  0  0  0  0  0  0  0  0
  -24.4300  -10.9760   20.7390 C   0  0  0  0  0  0  0  0  0  0  0  0
  -24.8590   -9.9250   21.5800 C   0  0  0  0  0  3  0  0  0  0  0  0
  -24.0410   -8.7920   21.7810 C   0  0  0  0  0  3  0  0  0  0  0  0
  -22.7820   -8.7000   21.1400 C   0  0  0  0  0  0  0  0  0  0  0  0
  -22.3700   -9.7400   20.2880 C   0  0  0  0  0  3  0  0  0  0  0  0
  -23.1870  -10.8650   20.0850 C   0  0  0  0  0  3  0  0  0  0  0  0
  -21.9290   -7.6270   21.2590 O   0  0  0  0  0  0  0  0  0  0  0  0
  -21.8000   -6.9360   22.4370 C   0  0  0  0  0  0  0  0  0  0  0  0
  -21.3340   -7.5560   23.6160 C   0  0  0  0  0  3  0  0  0  0  0  0
  -21.1510   -6.7940   24.7860 C   0  0  0  0  0  3  0  0  0  0  0  0
  -21.4250   -5.4130   24.7800 C   0  0  0  0  0  0  0  0  0  0  0  0
  -21.8890   -4.7950   23.6050 C   0  0  0  0  0  3  0  0  0  0  0  0
  -22.0730   -5.5530   22.4360 C   0  0  0  0  0  0  0  0  0  0  0  0
  -22.4960   -4.9470   21.3000 F   0  0  0  0  0  0  0  0  0  0  0  0
  -21.2450   -4.6770   25.9020 F   0  0  0  0  0  0  0  0  0  0  0  0
  -23.5580  -14.1450   20.9990 C   0  0  0  0  0  0  0  0  0  0  0  0
  -22.8760  -13.5330   21.9610 N   0  0  0  0  0  0  0  0  0  0  0  0
  -23.1470  -15.1810   20.4810 O   0  0  0  0  0  0  0  0  0  0  0  0
  -23.2230  -12.6910   22.3950 H   0  0  0  0  0  0  0  0  0  0  0  0
  -21.9910  -13.9090   22.2710 H   0  0  0  0  0  0  0  0  0  0  0  0
  -26.2470  -15.6180   20.0450 N   0  0  0  0  0  0  0  0  0  0  0  0
  -25.5570  -16.3340   20.2400 H   0  0  0  0  0  0  0  0  0  0  0  0
  -27.1230  -15.9900   19.6950 H   0  0  0  0  0  0  0  0  0  0  0  0
  -27.3310  -21.0160   20.7240 C   0  0  0  0  0  1  0  0  0  0  0  0
  -27.2680  -18.7970   19.6750 C   0  0  0  0  0  1  0  0  0  0  0  0
  -27.8110  -20.2430   19.4710 C   0  0  2  0  0  0  0  0  0  0  0  0
  -27.1080  -19.9570   16.9400 C   0  0  0  0  0  1  0  0  0  0  0  0
  -26.9650  -20.7400   18.2590 C   0  0  0  0  0  2  0  0  0  0  0  0
  -29.6050  -22.3270   19.7910 C   0  0  0  0  0  2  0  0  0  0  0  0
  -28.8570  -24.0730   19.4340 C   0  0  0  0  0  3  0  0  0  0  0  0
  -29.5760  -23.5190   17.0050 C   0  0  0  0  0  1  0  0  0  0  0  0
  -31.0880  -24.8820   18.4870 C   0  0  0  0  0  1  0  0  0  0  0  0
  -29.6270  -24.5210   18.1660 C   0  0  0  0  0  3  0  0  0  0  0  0
  -28.6540  -25.6560   20.1390 O   0  0  0  0  0  0  0  0  0  0  0  0
  -24.6820  -31.6170   22.9290 C   0  0  0  0  0  0  0  0  0  0  0  0
  -27.6360  -26.8050   19.9770 C   0  0  0  0  0  0  0  0  0  0  0  0
  -23.6670  -30.2350   21.1660 C   0  0  0  0  0  3  0  0  0  0  0  0
  -25.2830  -28.7100   19.8010 C   0  0  0  0  0  0  0  0  0  0  0  0
  -26.2350  -30.5070   21.2200 C   0  0  0  0  0  2  0  0  0  0  0  0
  -26.4120  -29.1050   20.5290 C   0  0  0  0  0  0  0  0  0  0  0  0
  -27.5760  -28.1810   20.5830 C   0  0  0  0  0  3  0  0  0  0  0  0
  -26.4770  -26.6080   19.1850 C   0  0  0  0  0  3  0  0  0  0  0  0
  -25.3510  -27.4860   19.1080 C   0  0  0  0  0  3  0  0  0  0  0  0
  -24.0290  -29.6000   19.7890 C   0  0  0  0  0  2  0  0  0  0  0  0
  -24.8790  -30.8170   21.8260 N   0  0  0  0  0  0  0  0  0  0  0  0
  -23.5470  -31.8410   23.3800 O   0  0  0  0  0  0  0  0  0  0  0  0
  -22.9430  -29.1840   22.0510 C   0  0  0  0  0  0  0  0  0  0  0  0
  -21.6010  -29.1080   21.9670 N   0  0  0  0  0  0  0  0  0  0  0  0
  -23.5980  -28.4390   22.7850 O   0  0  0  0  0  0  0  0  0  0  0  0
  -21.1280  -29.7570   21.3540 H   0  0  0  0  0  0  0  0  0  0  0  0
  -18.1710  -28.0960   22.5810 C   0  0  0  0  0  0  0  0  0  0  0  0
  -20.7560  -28.1370   22.6710 C   0  0  0  0  0  3  0  0  0  0  0  0
  -20.6970  -26.8010   21.8980 C   0  0  0  0  0  2  0  0  0  0  0  0
  -19.5030  -26.7090   20.9390 C   0  0  0  0  0  2  0  0  0  0  0  0
  -18.1860  -26.8540   21.7070 C   0  0  0  0  0  2  0  0  0  0  0  0
  -19.3760  -28.7060   23.0200 C   0  0  0  0  0  0  0  0  0  0  0  0
  -19.3030  -29.8750   23.8080 C   0  0  0  0  0  3  0  0  0  0  0  0
  -18.0580  -30.4350   24.1560 C   0  0  0  0  0  3  0  0  0  0  0  0
  -16.8690  -29.8190   23.7320 C   0  0  0  0  0  3  0  0  0  0  0  0
  -16.9260  -28.6510   22.9520 C   0  0  0  0  0  3  0  0  0  0  0  0
  -25.8710  -32.3000   23.6730 C   0  0  0  0  0  3  0  0  0  0  0  0
  -25.4640  -33.6730   24.0340 N   0  0  0  0  0  0  0  0  0  0  0  0
  -25.7490  -34.7710   23.3220 C   0  0  0  0  0  0  0  0  0  0  0  0
  -26.4440  -34.7370   22.3040 O   0  0  0  0  0  0  0  0  0  0  0  0
  -24.8550  -33.7630   24.8330 H   0  0  0  0  0  0  0  0  0  0  0  0
  -23.9080  -36.4600   23.0160 C   0  0  0  0  0  1  0  0  0  0  0  0
  -25.1770  -36.1180   23.8120 C   0  0  0  0  0  3  0  0  0  0  0  0
  -27.2370  -37.1440   24.6850 C   0  0  0  0  0  1  0  0  0  0  0  0
  -26.1410  -37.2400   23.7200 N   0  0  0  0  0  0  0  0  0  0  0  0
  -25.6740  -38.1350   23.8580 H   0  0  0  0  0  0  0  0  0  0  0  0
  -26.3100  -31.5170   24.9750 C   0  0  1  0  0  0  0  0  0  0  0  0
  -25.1500  -31.2550   25.9650 C   0  0  0  0  0  1  0  0  0  0  0  0
  -26.9320  -30.1510   24.6160 C   0  0  0  0  0  1  0  0  0  0  0  0
  -27.4070  -32.3110   25.7210 C   0  0  0  0  0  1  0  0  0  0  0  0
  1 45  1  0
  1 48  1  0
  2  8  1  0
  2 14  1  0
  3  8  1  0
  4  5  1  0
  4  3  1  0
  6  5  1  0
  6 18  1  0
  6  7  1  0
  8  7  1  0
  9  2  2  0
 11 10  1  0
 12 10  1  0
 13  1  1  0
 13 14  1  0
 13 11  1  0
 14 12  1  0
 15 16  2  0
 16 35  1  0
 17 16  1  0
 17 20  1  0
 18 19  1  0
 18 15  1  0
 19 17  2  0
 20 21  1  0
 21 22  2  0
 23 26  1  0
 23 22  1  0
 24 23  2  0
 25 24  1  0
 25 20  2  0
 26 27  1  0
 27 28  1  0
 28 29  2  0
 30 29  1  0
 30 34  1  0
 31 30  2  0
 32 27  2  0
 32 31  1  0
 33 32  1  0
 35 36  1  0
 36 39  1  0
 36 38  1  0
 37 35  2  0
 40 15  1  0
 40 41  1  0
 42 40  1  0
 45 44  1  1
 45 43  1  0
 46 47  1  0
 47 45  1  0
 49 48  1  0
 49 53  1  0
 50 52  1  0
 52 51  1  0
 52 49  1  0
 54 65  2  0
 55 53  1  0
 55 60  1  0
 56 64  1  0
 56 66  1  0
 57 59  1  0
 58 64  1  0
 59 60  2  0
 59 58  1  0
 61 55  2  0
 62 61  1  0
 62 57  2  0
 63 57  1  0
 63 56  1  0
 64 54  1  0
 66 68  2  0
 67 66  1  0
 69 67  1  0
 70 79  2  0
 70 75  1  0
 71 67  1  0
 71 75  1  0
 72 71  1  0
 73 74  1  0
 73 72  1  0
 74 70  1  0
 75 76  2  0
 76 77  1  0
 78 77  2  0
 79 78  1  0
 80 54  1  0
 80 81  1  0
 80 90  1  0
 81 84  1  0
 82 86  1  0
 82 81  1  0
 83 82  2  0
 86 85  1  0
 88 86  1  0
 88 89  1  0
 88 87  1  0
 90 93  1  1
 90 91  1  0
 92 90  1  0
M  ISO  4   2 100  14 100  49 101  53 101
M  END
>  <TORSDO>  (21) 
F 21

>  <SCORE>  (21) 
-14.286

>  <name>  (21) 
20

>  <ligand_id>  (21) 
20

>  <original_smiles>  (21) 
[H]c1c([H])c([H])c2c(c1[H])C([H])([H])C([H])([H])C([H])([H])C2([H])N([H])C(=O)C1([H])N(C(=O)C([H])(N([H])C(=O)C([H])(N([H])C([H])([H])[H])C([H])([H])[H])C(C([H])([H])[H])(C([H])([H])[H])C([H])([H])[H])C([H])([H])c2c([H])c(OC([H])(C([H])([H])C([H])(C3([H])N(C(=O)N4C([H])([H])C([H])([H])C([H])([H])C([H])(n5nc(-c6c([H])c([H])c(Oc7c([H])c([H])c(F)c([H])c7F)c([H])c6[H])c(C(=O)N([H])[H])c5N([H])[H])C4([H])[H])C([H])([H])C([H])([H])C3([H])[H])C(C([H])([H])[H])(C([H])([H])[H])C([H])([H])C([H])([H])[H])C([H])(C([H])([H])[H])C([H])([H])[H])c([H])c([H])c2C1([H])[H]

>  <smiles>  (21) 
[H]c1c([H])c([H])c2c(c1[H])C([H])([H])C([H])([H])C([H])([H])C2([H])N([H])C(=O)C1([H])N(C(=O)C([H])(N([H])C(=O)C([H])(N([H])C([H])([H])[H])C([H])([H])[H])C(C([H])([H])[H])(C([H])([H])[H])C([H])([H])[H])C([H])([H])c2c([H])c(OC([H])(C([H])([H])C([H])(C3([H])N(C(=O)N4C([H])([H])C([H])([H])C([H])([H])C([H])(n5nc(-c6c([H])c([H])c(Oc7c([H])c([H])c(F)c([H])c7F)c([H])c6[H])c(C(=O)N([H])[H])c5N([H])[H])C4([H])[H])C([H])([H])C([H])([H])C3([H])[H])C(C([H])([H])[H])(C([H])([H])[H])C([H])([H])C([H])([H])[H])C([H])(C([H])([H])[H])C([H])([H])[H])c([H])c([H])c2C1([H])[H]

$$$$
21:0:0
     RDKit          3D

 88 95  0  0  1  0  0  0  0  0999 V2000
  -29.1340  -22.3860   20.0590 C   0  0  0  0  0  3  0  0  0  0  0  0
  -30.2270  -22.6700   19.1140 N   0  0  0  0  0  4  0  0  0  0  0  0
  -29.9140  -22.6020   18.1620 H   0  0  0  0  0  0  0  0  0  0  0  0
  -30.9890  -22.0290   19.2490 H   0  0  0  0  0  0  0  0  0  0  0  0
  -30.5800  -23.6010   19.2610 H   0  0  0  0  0  0  0  0  0  0  0  0
  -27.8320  -20.1870   21.0200 C   0  0  0  0  0  1  0  0  0  0  0  0
  -28.8950  -20.4740   19.9570 C   0  0  0  0  0  3  0  0  0  0  0  0
  -29.9640  -18.8710   19.9670 C   0  0  0  0  0  2  0  0  0  0  0  0
  -30.5180  -15.7770   19.9420 C   0  0  0  0  0  0  0  0  0  0  0  0
  -30.5890  -13.2440   19.1380 C   0  0  0  0  0  2  0  0  0  0  0  0
  -29.6480  -12.8490   17.9660 C   0  0  0  0  0  2  0  0  0  0  0  0
  -28.2460  -12.4940   18.4850 C   0  0  0  0  0  2  0  0  0  0  0  0
  -27.7760  -13.4930   19.5690 C   0  0  0  0  0  3  0  0  0  0  0  0
  -28.8520  -13.8090   20.6350 C   0  0  0  0  0  2  0  0  0  0  0  0
  -29.9990  -14.4160   19.9230 N   0  0  0  0  0  0  0  0  0  0  0  0
  -31.7360  -15.7380   19.6870 O   0  0  0  0  0  0  0  0  0  0  0  0
  -29.7570  -17.1210   20.0510 N   0  0  0  0  0  0  0  0  0  0  0  0
  -28.7890  -16.9060   20.2430 H   0  0  0  0  0  0  0  0  0  0  0  0
  -25.4630  -14.0020   20.4890 C   0  0  0  0  0  0  0  0  0  0  0  0
  -24.4230  -13.2110   20.8850 C   0  0  0  0  0  0  0  0  0  0  0  0
  -24.8860  -11.8620   20.7700 C   0  0  0  0  0  0  0  0  0  0  0  0
  -26.4880  -13.1390   20.1470 N   0  0  0  0  0  0  0  0  0  0  0  0
  -26.1580  -11.8420   20.3840 N   0  0  0  0  0  0  0  0  0  0  0  0
  -24.1630  -10.5940   20.9490 C   0  0  0  0  0  0  0  0  0  0  0  0
  -24.5740   -9.6380   21.9040 C   0  0  0  0  0  3  0  0  0  0  0  0
  -23.8490   -8.4380   22.0710 C   0  0  0  0  0  3  0  0  0  0  0  0
  -22.6990   -8.1870   21.2870 C   0  0  0  0  0  0  0  0  0  0  0  0
  -22.3090   -9.1320   20.3220 C   0  0  0  0  0  3  0  0  0  0  0  0
  -23.0340  -10.3220   20.1510 C   0  0  0  0  0  3  0  0  0  0  0  0
  -21.9480   -7.0390   21.3640 O   0  0  0  0  0  0  0  0  0  0  0  0
  -21.7740   -6.3700   22.5490 C   0  0  0  0  0  0  0  0  0  0  0  0
  -21.1570   -6.9780   23.6650 C   0  0  0  0  0  3  0  0  0  0  0  0
  -20.9370   -6.2320   24.8400 C   0  0  0  0  0  3  0  0  0  0  0  0
  -21.3210   -4.8790   24.9000 C   0  0  0  0  0  0  0  0  0  0  0  0
  -21.9290   -4.2700   23.7870 C   0  0  0  0  0  3  0  0  0  0  0  0
  -22.1510   -5.0130   22.6150 C   0  0  0  0  0  0  0  0  0  0  0  0
  -22.7170   -4.4160   21.5390 F   0  0  0  0  0  0  0  0  0  0  0  0
  -21.1030   -4.1600   26.0250 F   0  0  0  0  0  0  0  0  0  0  0  0
  -23.0460  -13.6780   21.2490 C   0  0  0  0  0  0  0  0  0  0  0  0
  -22.3650  -12.9540   22.1300 N   0  0  0  0  0  0  0  0  0  0  0  0
  -22.5830  -14.7210   20.7860 O   0  0  0  0  0  0  0  0  0  0  0  0
  -22.7580  -12.1120   22.5270 H   0  0  0  0  0  0  0  0  0  0  0  0
  -21.4400  -13.2420   22.4100 H   0  0  0  0  0  0  0  0  0  0  0  0
  -25.6140  -15.3800   20.3580 N   0  0  0  0  0  0  0  0  0  0  0  0
  -24.8520  -16.0230   20.5410 H   0  0  0  0  0  0  0  0  0  0  0  0
  -26.4340  -15.8350   19.9780 H   0  0  0  0  0  0  0  0  0  0  0  0
  -28.0900  -24.0040   20.0470 C   0  0  0  0  0  2  0  0  0  0  0  0
  -28.2670  -25.7380   20.1820 O   0  0  0  0  0  0  0  0  0  0  0  0
  -24.6900  -31.8600   23.2620 C   0  0  0  0  0  0  0  0  0  0  0  0
  -27.2720  -26.9200   20.1540 C   0  0  0  0  0  0  0  0  0  0  0  0
  -23.5160  -30.4980   21.5860 C   0  0  0  0  0  3  0  0  0  0  0  0
  -24.9820  -28.9070   20.1360 C   0  0  0  0  0  0  0  0  0  0  0  0
  -26.0910  -30.6790   21.4700 C   0  0  0  0  0  2  0  0  0  0  0  0
  -26.1710  -29.2680   20.7780 C   0  0  0  0  0  0  0  0  0  0  0  0
  -27.3040  -28.3030   20.7540 C   0  0  0  0  0  3  0  0  0  0  0  0
  -26.0450  -26.7590   19.4630 C   0  0  0  0  0  3  0  0  0  0  0  0
  -24.9550  -27.6780   19.4530 C   0  0  0  0  0  3  0  0  0  0  0  0
  -23.7640  -29.8390   20.1980 C   0  0  0  0  0  2  0  0  0  0  0  0
  -24.7900  -31.0430   22.1590 N   0  0  0  0  0  0  0  0  0  0  0  0
  -23.5930  -32.1370   23.7780 O   0  0  0  0  0  0  0  0  0  0  0  0
  -22.8080  -29.4860   22.5260 C   0  0  0  0  0  0  0  0  0  0  0  0
  -21.4820  -29.3020   22.3690 N   0  0  0  0  0  0  0  0  0  0  0  0
  -23.4610  -28.8670   23.3670 O   0  0  0  0  0  0  0  0  0  0  0  0
  -21.0060  -29.8560   21.6720 H   0  0  0  0  0  0  0  0  0  0  0  0
  -18.1110  -28.0130   22.7940 C   0  0  0  0  0  0  0  0  0  0  0  0
  -20.6610  -28.3350   23.1080 C   0  0  0  0  0  3  0  0  0  0  0  0
  -20.8040  -26.9140   22.5130 C   0  0  0  0  0  2  0  0  0  0  0  0
  -19.7280  -26.5840   21.4710 C   0  0  0  0  0  2  0  0  0  0  0  0
  -18.3320  -26.6830   22.0930 C   0  0  0  0  0  2  0  0  0  0  0  0
  -19.2040  -28.7960   23.2550 C   0  0  0  0  0  0  0  0  0  0  0  0
  -18.9400  -30.0370   23.8750 C   0  0  0  0  0  3  0  0  0  0  0  0
  -17.6190  -30.4970   24.0320 C   0  0  0  0  0  3  0  0  0  0  0  0
  -16.5430  -29.7130   23.5850 C   0  0  0  0  0  3  0  0  0  0  0  0
  -16.7890  -28.4710   22.9730 C   0  0  0  0  0  3  0  0  0  0  0  0
  -25.9470  -32.5000   23.9260 C   0  0  0  0  0  3  0  0  0  0  0  0
  -26.4110  -31.7400   25.2310 C   0  0  1  0  0  0  0  0  0  0  0  0
  -25.2790  -31.5270   26.2650 C   0  0  0  0  0  1  0  0  0  0  0  0
  -26.9960  -30.3520   24.8870 C   0  0  0  0  0  1  0  0  0  0  0  0
  -27.5440  -32.5330   25.9250 C   0  0  0  0  0  1  0  0  0  0  0  0
  -25.6330  -33.9040   24.2510 N   0  0  0  0  0  0  0  0  0  0  0  0
  -25.9430  -34.9610   23.4880 C   0  0  0  0  0  0  0  0  0  0  0  0
  -26.5830  -34.8580   22.4390 O   0  0  0  0  0  0  0  0  0  0  0  0
  -25.0620  -34.0590   25.0690 H   0  0  0  0  0  0  0  0  0  0  0  0
  -24.1790  -36.7430   23.2240 C   0  0  0  0  0  1  0  0  0  0  0  0
  -25.4710  -36.3540   23.9610 C   0  0  0  0  0  3  0  0  0  0  0  0
  -27.6360  -37.2820   24.6610 C   0  0  0  0  0  1  0  0  0  0  0  0
  -26.4830  -37.4180   23.7740 N   0  0  0  0  0  0  0  0  0  0  0  0
  -26.0730  -38.3350   23.9300 H   0  0  0  0  0  0  0  0  0  0  0  0
  1 47  1  0
  2  4  1  0
  2  5  1  0
  2  1  1  0
  3  2  1  0
  7  8  1  0
  7  1  1  0
  7  6  1  0
  8 17  1  0
  9 17  1  0
 10 15  1  0
 11 12  1  0
 11 10  1  0
 13 12  1  0
 13 22  1  0
 13 14  1  0
 15  9  1  0
 15 14  1  0
 16  9  2  0
 17 18  1  0
 19 20  2  0
 20 39  1  0
 21 20  1  0
 21 24  1  0
 22 23  1  0
 22 19  1  0
 23 21  2  0
 24 25  1  0
 25 26  2  0
 27 30  1  0
 27 26  1  0
 28 27  2  0
 29 28  1  0
 29 24  2  0
 30 31  1  0
 31 36  2  0
 31 32  1  0
 32 33  2  0
 33 34  1  0
 34 38  1  0
 35 34  2  0
 36 35  1  0
 37 36  1  0
 39 40  1  0
 40 43  1  0
 40 42  1  0
 41 39  2  0
 44 19  1  0
 44 45  1  0
 46 44  1  0
 47 48  1  0
 49 60  2  0
 50 48  1  0
 50 55  1  0
 51 59  1  0
 51 61  1  0
 52 58  1  0
 52 54  1  0
 53 59  1  0
 54 53  1  0
 55 54  2  0
 56 50  2  0
 57 56  1  0
 57 52  2  0
 58 51  1  0
 59 49  1  0
 61 63  2  0
 62 61  1  0
 64 62  1  0
 65 74  2  0
 65 70  1  0
 66 62  1  0
 66 70  1  0
 67 66  1  0
 68 69  1  0
 68 67  1  0
 69 65  1  0
 70 71  2  0
 71 72  1  0
 73 72  2  0
 74 73  1  0
 75 49  1  0
 75 80  1  0
 75 76  1  0
 76 79  1  1
 76 77  1  0
 78 76  1  0
 80 83  1  0
 81 85  1  0
 81 80  1  0
 82 81  2  0
 85 84  1  0
 87 88  1  0
 87 85  1  0
 87 86  1  0
M  ISO  4   9 100  17 100  47 101  48 101
M  END
>  <TORSDO>  (22) 
F 20

>  <SCORE>  (22) 
-15.350

>  <name>  (22) 
21

>  <ligand_id>  (22) 
21

>  <original_smiles>  (22) 
[H]c1c([H])c([H])c2c(c1[H])C([H])([H])C([H])([H])C([H])([H])C2([H])N([H])C(=O)C1([H])N(C(=O)C([H])(N([H])C(=O)C([H])(N([H])C([H])([H])[H])C([H])([H])[H])C(C([H])([H])[H])(C([H])([H])[H])C([H])([H])[H])C([H])([H])c2c([H])c(OC([H])([H])C([H])(C([H])(C([H])([H])[H])C([H])([H])N([H])C(=O)N3C([H])([H])C([H])([H])C([H])([H])C([H])(n4nc(-c5c([H])c([H])c(Oc6c([H])c([H])c(F)c([H])c6F)c([H])c5[H])c(C(=O)N([H])[H])c4N([H])[H])C3([H])[H])[N+]([H])([H])[H])c([H])c([H])c2C1([H])[H]

>  <smiles>  (22) 
[H]c1c([H])c([H])c2c(c1[H])C([H])([H])C([H])([H])C([H])([H])C2([H])N([H])C(=O)C1([H])N(C(=O)C([H])(N([H])C(=O)C([H])(N([H])C([H])([H])[H])C([H])([H])[H])C(C([H])([H])[H])(C([H])([H])[H])C([H])([H])[H])C([H])([H])c2c([H])c(OC([H])([H])C([H])(C([H])(C([H])([H])[H])C([H])([H])N([H])C(=O)N3C([H])([H])C([H])([H])C([H])([H])C([H])(n4nc(-c5c([H])c([H])c(Oc6c([H])c([H])c(F)c([H])c6F)c([H])c5[H])c(C(=O)N([H])[H])c4N([H])[H])C3([H])[H])[N+]([H])([H])[H])c([H])c([H])c2C1([H])[H]

$$$$
22:0:0
     RDKit          3D

100107  0  0  1  0  0  0  0  0999 V2000
  -28.6470  -19.4320   20.5000 C   0  0  0  0  0  2  0  0  0  0  0  0
  -29.4470  -18.4280   19.6600 C   0  0  0  0  0  2  0  0  0  0  0  0
  -31.3130  -16.9540   20.5130 C   0  0  0  0  0  0  0  0  0  0  0  0
  -32.2220  -17.4390   19.6460 N   0  0  0  0  0  4  0  0  0  0  0  0
  -30.0410  -17.3940   20.5190 N   0  0  0  0  0  0  0  0  0  0  0  0
  -33.1810  -17.1160   19.6520 H   0  0  0  0  0  0  0  0  0  0  0  0
  -31.9940  -18.1340   18.9500 H   0  0  0  0  0  0  0  0  0  0  0  0
  -29.4030  -16.9650   21.1760 H   0  0  0  0  0  0  0  0  0  0  0  0
  -31.7040  -15.8750   21.4820 C   0  0  0  0  0  2  0  0  0  0  0  0
  -32.0350  -14.5830   20.7100 C   0  0  0  0  0  3  0  0  0  0  0  0
  -30.4980  -13.5980   19.0110 C   0  0  0  0  0  0  0  0  0  0  0  0
  -29.6980  -11.6030   17.8270 C   0  0  0  0  0  2  0  0  0  0  0  0
  -28.4970  -11.8250   16.8980 C   0  0  0  0  0  2  0  0  0  0  0  0
  -27.1810  -11.7050   17.6830 C   0  0  0  0  0  2  0  0  0  0  0  0
  -27.1700  -12.5860   18.9580 C   0  0  0  0  0  3  0  0  0  0  0  0
  -28.4520  -12.3710   19.7960 C   0  0  0  0  0  2  0  0  0  0  0  0
  -29.6330  -12.5630   18.9340 N   0  0  0  0  0  0  0  0  0  0  0  0
  -31.1460  -14.0310   18.0540 O   0  0  0  0  0  0  0  0  0  0  0  0
  -30.8110  -13.9020   20.2740 N   0  0  0  0  0  0  0  0  0  0  0  0
  -30.2820  -13.4170   20.9830 H   0  0  0  0  0  0  0  0  0  0  0  0
  -25.0600  -13.2700   20.2710 C   0  0  0  0  0  0  0  0  0  0  0  0
  -24.0690  -12.5310   20.8590 C   0  0  0  0  0  0  0  0  0  0  0  0
  -24.4200  -11.1620   20.6490 C   0  0  0  0  0  0  0  0  0  0  0  0
  -25.9610  -12.3550   19.7480 N   0  0  0  0  0  0  0  0  0  0  0  0
  -25.5900  -11.0770   20.0280 N   0  0  0  0  0  0  0  0  0  0  0  0
  -23.6840   -9.9270   20.9540 C   0  0  0  0  0  0  0  0  0  0  0  0
  -24.2220   -8.9400   21.8090 C   0  0  0  0  0  3  0  0  0  0  0  0
  -23.4890   -7.7700   22.1020 C   0  0  0  0  0  3  0  0  0  0  0  0
  -22.2030   -7.5790   21.5430 C   0  0  0  0  0  0  0  0  0  0  0  0
  -21.6820   -8.5540   20.6740 C   0  0  0  0  0  3  0  0  0  0  0  0
  -22.4160   -9.7160   20.3790 C   0  0  0  0  0  3  0  0  0  0  0  0
  -21.4290   -6.4630   21.7500 O   0  0  0  0  0  0  0  0  0  0  0  0
  -21.4870   -5.7560   22.9240 C   0  0  0  0  0  0  0  0  0  0  0  0
  -21.1960   -6.3530   24.1690 C   0  0  0  0  0  3  0  0  0  0  0  0
  -21.2000   -5.5720   25.3430 C   0  0  0  0  0  3  0  0  0  0  0  0
  -21.4830   -4.1960   25.2730 C   0  0  0  0  0  0  0  0  0  0  0  0
  -21.7690   -3.5980   24.0330 C   0  0  0  0  0  3  0  0  0  0  0  0
  -21.7660   -4.3760   22.8610 C   0  0  0  0  0  0  0  0  0  0  0  0
  -22.0200   -3.7900   21.6660 F   0  0  0  0  0  0  0  0  0  0  0  0
  -21.4800   -3.4440   26.3980 F   0  0  0  0  0  0  0  0  0  0  0  0
  -22.8130  -13.0570   21.4930 C   0  0  0  0  0  0  0  0  0  0  0  0
  -22.2870  -12.3520   22.4880 N   0  0  0  0  0  0  0  0  0  0  0  0
  -22.3190  -14.1290   21.1420 O   0  0  0  0  0  0  0  0  0  0  0  0
  -22.7020  -11.4830   22.7900 H   0  0  0  0  0  0  0  0  0  0  0  0
  -21.4550  -12.6840   22.9540 H   0  0  0  0  0  0  0  0  0  0  0  0
  -25.2610  -14.6400   20.1200 N   0  0  0  0  0  0  0  0  0  0  0  0
  -24.5850  -15.3230   20.4430 H   0  0  0  0  0  0  0  0  0  0  0  0
  -26.0240  -15.0500   19.5980 H   0  0  0  0  0  0  0  0  0  0  0  0
  -33.4910  -12.4970   20.5510 C   0  0  0  0  0  1  0  0  0  0  0  0
  -32.2870  -12.9680   22.7190 C   0  0  0  0  0  1  0  0  0  0  0  0
  -32.9520  -13.6000   21.4810 C   0  0  0  0  0  3  0  0  0  0  0  0
  -29.5160  -20.5720   21.0630 C   0  0  0  0  0  2  0  0  0  0  0  0
  -28.6720  -21.7490   21.5740 C   0  0  0  0  0  2  0  0  0  0  0  0
  -29.4440  -23.0700   21.7470 C   0  0  0  0  0  2  0  0  0  0  0  0
  -29.2390  -24.1360   20.6520 C   0  0  0  0  0  2  0  0  0  0  0  0
  -30.3010  -24.1610   19.5330 C   0  0  0  0  0  2  0  0  0  0  0  0
  -29.8820  -23.5400   18.1830 C   0  0  0  0  0  2  0  0  0  0  0  0
  -29.4840  -24.5740   17.1180 C   0  0  0  0  0  2  0  0  0  0  0  0
  -27.9860  -24.8840   17.1610 C   0  0  0  0  0  2  0  0  0  0  0  0
  -27.7860  -26.2490   16.8040 O   0  0  0  0  0  0  0  0  0  0  0  0
  -24.7430  -29.7930   22.1400 C   0  0  0  0  0  0  0  0  0  0  0  0
  -26.6280  -26.8030   17.2950 C   0  0  0  0  0  0  0  0  0  0  0  0
  -23.1940  -28.8090   20.4820 C   0  0  0  0  0  3  0  0  0  0  0  0
  -24.2660  -27.9340   18.3440 C   0  0  0  0  0  0  0  0  0  0  0  0
  -25.5600  -29.5050   19.8030 C   0  0  0  0  0  2  0  0  0  0  0  0
  -25.5190  -28.4050   18.7640 C   0  0  0  0  0  0  0  0  0  0  0  0
  -26.7040  -27.8550   18.2280 C   0  0  0  0  0  3  0  0  0  0  0  0
  -25.3630  -26.3350   16.8760 C   0  0  0  0  0  3  0  0  0  0  0  0
  -24.1830  -26.8990   17.3930 C   0  0  0  0  0  3  0  0  0  0  0  0
  -23.0470  -28.5850   18.9530 C   0  0  0  0  0  2  0  0  0  0  0  0
  -24.5320  -29.3680   20.8620 N   0  0  0  0  0  0  0  0  0  0  0  0
  -23.8310  -29.7690   22.9810 O   0  0  0  0  0  0  0  0  0  0  0  0
  -22.8530  -27.4840   21.2020 C   0  0  0  0  0  0  0  0  0  0  0  0
  -21.5580  -27.1330   21.2190 N   0  0  0  0  0  0  0  0  0  0  0  0
  -23.7420  -26.7860   21.6970 O   0  0  0  0  0  0  0  0  0  0  0  0
  -20.8890  -27.7660   20.8020 H   0  0  0  0  0  0  0  0  0  0  0  0
  -18.5100  -25.2480   21.6740 C   0  0  0  0  0  0  0  0  0  0  0  0
  -21.0050  -25.9100   21.8000 C   0  0  0  0  0  3  0  0  0  0  0  0
  -21.2700  -24.6860   20.8900 C   0  0  0  0  0  2  0  0  0  0  0  0
  -20.1230  -24.3990   19.9170 C   0  0  0  0  0  2  0  0  0  0  0  0
  -18.8230  -24.1390   20.6840 C   0  0  0  0  0  2  0  0  0  0  0  0
  -19.5330  -26.0910   22.1840 C   0  0  0  0  0  0  0  0  0  0  0  0
  -19.1810  -27.1310   23.0720 C   0  0  0  0  0  3  0  0  0  0  0  0
  -17.8420  -27.3300   23.4530 C   0  0  0  0  0  3  0  0  0  0  0  0
  -16.8360  -26.4810   22.9580 C   0  0  0  0  0  3  0  0  0  0  0  0
  -17.1720  -25.4420   22.0730 C   0  0  0  0  0  3  0  0  0  0  0  0
  -26.1240  -30.3490   22.6060 C   0  0  0  0  0  3  0  0  0  0  0  0
  -25.8660  -31.5170   23.4600 N   0  0  0  0  0  0  0  0  0  0  0  0
  -26.0070  -32.7900   23.0680 C   0  0  0  0  0  0  0  0  0  0  0  0
  -26.4410  -33.1030   21.9560 O   0  0  0  0  0  0  0  0  0  0  0  0
  -25.4570  -31.3370   24.3640 H   0  0  0  0  0  0  0  0  0  0  0  0
  -24.2180  -34.4440   23.6860 C   0  0  0  0  0  1  0  0  0  0  0  0
  -25.6010  -33.8890   24.0670 C   0  0  0  0  0  3  0  0  0  0  0  0
  -27.8470  -34.5970   24.7570 C   0  0  0  0  0  1  0  0  0  0  0  0
  -26.5800  -34.9960   24.1530 N   0  0  0  0  0  0  0  0  0  0  0  0
  -26.2010  -35.7720   24.6890 H   0  0  0  0  0  0  0  0  0  0  0  0
  -27.0010  -29.2820   23.3700 C   0  0  1  0  0  0  0  0  0  0  0  0
  -26.2580  -28.5740   24.5270 C   0  0  0  0  0  1  0  0  0  0  0  0
  -27.4990  -28.1950   22.3910 C   0  0  0  0  0  1  0  0  0  0  0  0
  -28.2640  -29.9610   23.9490 C   0  0  0  0  0  1  0  0  0  0  0  0
  1 52  1  0
  2  1  1  0
  2  5  1  0
  3  5  1  0
  3  9  1  0
  4  6  1  0
  4  3  2  0
  5  8  1  0
  7  4  1  0
 10 51  1  0
 10  9  1  0
 11 19  1  0
 12 17  1  0
 13 14  1  0
 13 12  1  0
 15 14  1  0
 15 24  1  0
 15 16  1  0
 17 11  1  0
 17 16  1  0
 18 11  2  0
 19 10  1  0
 19 20  1  0
 21 22  2  0
 22 41  1  0
 23 22  1  0
 23 26  1  0
 24 25  1  0
 24 21  1  0
 25 23  2  0
 26 27  1  0
 27 28  2  0
 29 32  1  0
 29 28  1  0
 30 29  2  0
 31 30  1  0
 31 26  2  0
 32 33  1  0
 33 34  1  0
 34 35  2  0
 36 35  1  0
 36 40  1  0
 37 36  2  0
 38 33  2  0
 38 37  1  0
 39 38  1  0
 41 42  1  0
 42 44  1  0
 42 45  1  0
 43 41  2  0
 46 21  1  0
 46 47  1  0
 48 46  1  0
 49 51  1  0
 51 50  1  0
 52 53  1  0
 53 54  1  0
 55 54  1  0
 56 55  1  0
 57 56  1  0
 58 59  1  0
 58 57  1  0
 60 59  1  0
 60 62  1  0
 61 72  2  0
 62 67  1  0
 63 71  1  0
 63 73  1  0
 64 66  1  0
 64 70  1  0
 65 71  1  0
 66 65  1  0
 67 66  2  0
 68 62  2  0
 68 69  1  0
 69 64  2  0
 70 63  1  0
 71 61  1  0
 73 74  1  0
 73 75  2  0
 76 74  1  0
 77 86  2  0
 77 82  1  0
 78 74  1  0
 78 82  1  0
 79 78  1  0
 80 81  1  0
 80 79  1  0
 81 77  1  0
 82 83  2  0
 83 84  1  0
 85 84  2  0
 86 85  1  0
 87 61  1  0
 87 97  1  0
 87 88  1  0
 88 91  1  0
 89 88  1  0
 89 93  1  0
 90 89  2  0
 93 92  1  0
 93 95  1  0
 95 96  1  0
 95 94  1  0
 97100  1  1
 97 98  1  0
 99 97  1  0
M  ISO  4  11 100  19 100  59 101  60 101
M  END
>  <TORSDO>  (23) 
F 29

>  <SCORE>  (23) 
-4.448

>  <name>  (23) 
22

>  <ligand_id>  (23) 
22

>  <original_smiles>  (23) 
[H]c1c([H])c([H])c2c(c1[H])C([H])([H])C([H])([H])C([H])([H])C2([H])N([H])C(=O)C1([H])N(C(=O)C([H])(N([H])C(=O)C([H])(N([H])C([H])([H])[H])C([H])([H])[H])C(C([H])([H])[H])(C([H])([H])[H])C([H])([H])[H])C([H])([H])c2c([H])c(OC([H])([H])C([H])([H])C([H])([H])C([H])([H])C([H])([H])C([H])([H])C([H])([H])C([H])([H])C([H])([H])C([H])([H])[N+]([H])=C(N([H])[H])C([H])([H])C([H])(N([H])C(=O)N3C([H])([H])C([H])([H])C([H])([H])C([H])(n4nc(-c5c([H])c([H])c(Oc6c([H])c([H])c(F)c([H])c6F)c([H])c5[H])c(C(=O)N([H])[H])c4N([H])[H])C3([H])[H])C([H])(C([H])([H])[H])C([H])([H])[H])c([H])c([H])c2C1([H])[H]

>  <smiles>  (23) 
[H]c1c([H])c([H])c2c(c1[H])C([H])([H])C([H])([H])C([H])([H])C2([H])N([H])C(=O)C1([H])N(C(=O)C([H])(N([H])C(=O)C([H])(N([H])C([H])([H])[H])C([H])([H])[H])C(C([H])([H])[H])(C([H])([H])[H])C([H])([H])[H])C([H])([H])c2c([H])c(OC([H])([H])C([H])([H])C([H])([H])C([H])([H])C([H])([H])C([H])([H])C([H])([H])C([H])([H])C([H])([H])C([H])([H])[N+]([H])=C(N([H])[H])C([H])([H])C([H])(N([H])C(=O)N3C([H])([H])C([H])([H])C([H])([H])C([H])(n4nc(-c5c([H])c([H])c(Oc6c([H])c([H])c(F)c([H])c6F)c([H])c5[H])c(C(=O)N([H])[H])c4N([H])[H])C3([H])[H])C([H])(C([H])([H])[H])C([H])([H])[H])c([H])c([H])c2C1([H])[H]

$$$$
23:0:0
     RDKit          3D

 92100  0  0  1  0  0  0  0  0999 V2000
  -27.5310  -20.1050   19.7330 C   0  0  0  0  0  2  0  0  0  0  0  0
  -27.4860  -20.9270   18.4280 C   0  0  0  0  0  2  0  0  0  0  0  0
  -28.8890  -20.3840   20.3580 C   0  0  0  0  0  3  0  0  0  0  0  0
  -28.8820  -22.2580   19.9180 C   0  0  0  0  0  3  0  0  0  0  0  0
  -28.3500  -22.1260   18.5490 N   0  0  0  0  0  4  0  0  0  0  0  0
  -27.8320  -22.9550   18.3020 H   0  0  0  0  0  0  0  0  0  0  0  0
  -29.1080  -22.0450   17.8900 H   0  0  0  0  0  0  0  0  0  0  0  0
  -28.0750  -23.9350   20.4300 C   0  0  0  0  0  2  0  0  0  0  0  0
  -28.2000  -25.6670   20.2080 O   0  0  0  0  0  0  0  0  0  0  0  0
  -24.6030  -31.8680   23.1640 C   0  0  0  0  0  0  0  0  0  0  0  0
  -27.1910  -26.8360   20.2070 C   0  0  0  0  0  0  0  0  0  0  0  0
  -23.4330  -30.4590   21.5250 C   0  0  0  0  0  3  0  0  0  0  0  0
  -24.9020  -28.8230   20.1310 C   0  0  0  0  0  0  0  0  0  0  0  0
  -26.0100  -30.6330   21.4140 C   0  0  0  0  0  2  0  0  0  0  0  0
  -26.0910  -29.2020   20.7650 C   0  0  0  0  0  0  0  0  0  0  0  0
  -27.2240  -28.2360   20.7690 C   0  0  0  0  0  3  0  0  0  0  0  0
  -25.9620  -26.6550   19.5240 C   0  0  0  0  0  3  0  0  0  0  0  0
  -24.8740  -27.5730   19.4900 C   0  0  0  0  0  3  0  0  0  0  0  0
  -23.6860  -29.7610   20.1580 C   0  0  0  0  0  2  0  0  0  0  0  0
  -24.7050  -31.0190   22.0860 N   0  0  0  0  0  0  0  0  0  0  0  0
  -23.5050  -32.1610   23.6690 O   0  0  0  0  0  0  0  0  0  0  0  0
  -22.7220  -29.4750   22.4940 C   0  0  0  0  0  0  0  0  0  0  0  0
  -21.3880  -29.3220   22.3720 N   0  0  0  0  0  0  0  0  0  0  0  0
  -23.3860  -28.8450   23.3230 O   0  0  0  0  0  0  0  0  0  0  0  0
  -20.9080  -29.8810   21.6820 H   0  0  0  0  0  0  0  0  0  0  0  0
  -17.9980  -28.1380   22.9130 C   0  0  0  0  0  0  0  0  0  0  0  0
  -20.5640  -28.3840   23.1450 C   0  0  0  0  0  3  0  0  0  0  0  0
  -20.6460  -26.9560   22.5540 C   0  0  0  0  0  2  0  0  0  0  0  0
  -19.5290  -26.6540   21.5500 C   0  0  0  0  0  2  0  0  0  0  0  0
  -18.1570  -26.7990   22.2130 C   0  0  0  0  0  2  0  0  0  0  0  0
  -19.1280  -28.8900   23.3360 C   0  0  0  0  0  0  0  0  0  0  0  0
  -18.9230  -30.1410   23.9560 C   0  0  0  0  0  3  0  0  0  0  0  0
  -17.6220  -30.6430   24.1530 C   0  0  0  0  0  3  0  0  0  0  0  0
  -16.5080  -29.8900   23.7430 C   0  0  0  0  0  3  0  0  0  0  0  0
  -16.6970  -28.6390   23.1300 C   0  0  0  0  0  3  0  0  0  0  0  0
  -25.8590  -32.5290   23.8070 C   0  0  0  0  0  3  0  0  0  0  0  0
  -26.3490  -31.7810   25.1100 C   0  0  1  0  0  0  0  0  0  0  0  0
  -25.2320  -31.5600   26.1570 C   0  0  0  0  0  1  0  0  0  0  0  0
  -26.9460  -30.3990   24.7650 C   0  0  0  0  0  1  0  0  0  0  0  0
  -27.4830  -32.5890   25.7850 C   0  0  0  0  0  1  0  0  0  0  0  0
  -25.5280  -33.9310   24.1310 N   0  0  0  0  0  0  0  0  0  0  0  0
  -25.8800  -34.9960   23.3980 C   0  0  0  0  0  0  0  0  0  0  0  0
  -26.5740  -34.9020   22.3840 O   0  0  0  0  0  0  0  0  0  0  0  0
  -24.9080  -34.0760   24.9150 H   0  0  0  0  0  0  0  0  0  0  0  0
  -24.1780  -36.8150   23.0110 C   0  0  0  0  0  1  0  0  0  0  0  0
  -25.3860  -36.3830   23.8590 C   0  0  0  0  0  3  0  0  0  0  0  0
  -27.4860  -37.2530   24.7920 C   0  0  0  0  0  1  0  0  0  0  0  0
  -26.4280  -37.4310   23.8020 N   0  0  0  0  0  0  0  0  0  0  0  0
  -26.0200  -38.3530   23.9370 H   0  0  0  0  0  0  0  0  0  0  0  0
  -29.9140  -18.7810   20.0320 C   0  0  0  0  0  0  0  0  0  0  0  0
  -30.3830  -15.6530   20.1760 C   0  0  0  0  0  0  0  0  0  0  0  0
  -30.3950  -13.1340   19.3420 C   0  0  0  0  0  2  0  0  0  0  0  0
  -29.4880  -12.7960   18.1300 C   0  0  0  0  0  2  0  0  0  0  0  0
  -28.0580  -12.4740   18.5890 C   0  0  0  0  0  2  0  0  0  0  0  0
  -27.5800  -13.4480   19.6920 C   0  0  0  0  0  3  0  0  0  0  0  0
  -28.6320  -13.7260   20.7930 C   0  0  0  0  0  2  0  0  0  0  0  0
  -29.8110  -14.3160   20.1190 N   0  0  0  0  0  0  0  0  0  0  0  0
  -31.6100  -15.5430   20.0160 O   0  0  0  0  0  0  0  0  0  0  0  0
  -29.6760  -17.0330   20.2220 N   0  0  0  0  0  4  0  0  0  0  0  0
  -28.6940  -16.8560   20.3740 H   0  0  0  0  0  0  0  0  0  0  0  0
  -25.2250  -13.9590   20.5010 C   0  0  0  0  0  0  0  0  0  0  0  0
  -24.1780  -13.1690   20.8710 C   0  0  0  0  0  0  0  0  0  0  0  0
  -24.6550  -11.8230   20.8170 C   0  0  0  0  0  0  0  0  0  0  0  0
  -26.2740  -13.0990   20.2290 N   0  0  0  0  0  0  0  0  0  0  0  0
  -25.9450  -11.8040   20.4860 N   0  0  0  0  0  0  0  0  0  0  0  0
  -23.9360  -10.5540   20.9960 C   0  0  0  0  0  0  0  0  0  0  0  0
  -24.3630   -9.5850   21.9310 C   0  0  0  0  0  3  0  0  0  0  0  0
  -23.6370   -8.3860   22.1020 C   0  0  0  0  0  3  0  0  0  0  0  0
  -22.4700   -8.1460   21.3370 C   0  0  0  0  0  0  0  0  0  0  0  0
  -22.0660   -9.1010   20.3870 C   0  0  0  0  0  3  0  0  0  0  0  0
  -22.7920  -10.2900   20.2140 C   0  0  0  0  0  3  0  0  0  0  0  0
  -21.7180   -6.9990   21.4190 O   0  0  0  0  0  0  0  0  0  0  0  0
  -21.6340   -6.2690   22.5780 C   0  0  0  0  0  0  0  0  0  0  0  0
  -21.1220   -6.8240   23.7700 C   0  0  0  0  0  3  0  0  0  0  0  0
  -20.9890   -6.0210   24.9200 C   0  0  0  0  0  3  0  0  0  0  0  0
  -21.3590   -4.6640   24.8790 C   0  0  0  0  0  0  0  0  0  0  0  0
  -21.8690   -4.1080   23.6900 C   0  0  0  0  0  3  0  0  0  0  0  0
  -22.0040   -4.9090   22.5430 C   0  0  0  0  0  0  0  0  0  0  0  0
  -22.4730   -4.3650   21.3960 F   0  0  0  0  0  0  0  0  0  0  0  0
  -21.2280   -3.8890   25.9820 F   0  0  0  0  0  0  0  0  0  0  0  0
  -22.7800  -13.6330   21.1580 C   0  0  0  0  0  0  0  0  0  0  0  0
  -22.0650  -12.9220   22.0200 N   0  0  0  0  0  0  0  0  0  0  0  0
  -22.3340  -14.6650   20.6520 O   0  0  0  0  0  0  0  0  0  0  0  0
  -22.4420  -12.0900   22.4510 H   0  0  0  0  0  0  0  0  0  0  0  0
  -21.1250  -13.2090   22.2530 H   0  0  0  0  0  0  0  0  0  0  0  0
  -25.3740  -15.3340   20.3430 N   0  0  0  0  0  0  0  0  0  0  0  0
  -24.6020  -15.9760   20.4830 H   0  0  0  0  0  0  0  0  0  0  0  0
  -26.2110  -15.7880   20.0030 H   0  0  0  0  0  0  0  0  0  0  0  0
  -30.4970  -19.0370   18.6070 C   0  0  0  0  0  2  0  0  0  0  0  0
  -32.0370  -18.5790   16.6370 C   0  0  0  0  0  1  0  0  0  0  0  0
  -33.0130  -18.5270   18.9430 C   0  0  0  0  0  1  0  0  0  0  0  0
  -31.7460  -18.2590   18.1140 C   0  0  0  0  0  3  0  0  0  0  0  0
  1  3  1  0
  2  5  1  0
  2  1  1  0
  3 50  1  0
  4  3  1  0
  4  8  1  0
  5  4  1  0
  6  5  1  0
  7  5  1  0
  9  8  1  0
 10 21  2  0
 11  9  1  0
 11 16  1  0
 12 20  1  0
 12 22  1  0
 13 19  1  0
 13 15  1  0
 14 20  1  0
 15 16  2  0
 15 14  1  0
 17 11  2  0
 18 17  1  0
 18 13  2  0
 19 12  1  0
 20 10  1  0
 22 24  2  0
 23 22  1  0
 25 23  1  0
 26 35  2  0
 26 31  1  0
 27 23  1  0
 27 31  1  0
 28 27  1  0
 29 30  1  0
 29 28  1  0
 30 26  1  0
 31 32  2  0
 32 33  1  0
 34 33  2  0
 35 34  1  0
 36 10  1  0
 36 41  1  0
 36 37  1  0
 37 40  1  1
 37 38  1  0
 39 37  1  0
 41 44  1  0
 42 46  1  0
 42 41  1  0
 43 42  2  0
 46 45  1  0
 48 46  1  0
 48 49  1  0
 48 47  1  0
 50 59  2  0
 51 59  1  0
 52 57  1  0
 53 54  1  0
 53 52  1  0
 55 54  1  0
 55 64  1  0
 55 56  1  0
 57 51  1  0
 57 56  1  0
 58 51  2  0
 59 60  1  0
 61 62  2  0
 62 81  1  0
 63 62  1  0
 63 66  1  0
 64 65  1  0
 64 61  1  0
 65 63  2  0
 66 67  1  0
 67 68  2  0
 69 72  1  0
 69 68  1  0
 70 69  2  0
 71 70  1  0
 71 66  2  0
 72 73  1  0
 73 74  1  0
 74 75  2  0
 76 75  1  0
 76 80  1  0
 77 76  2  0
 78 73  2  0
 78 77  1  0
 79 78  1  0
 81 82  1  0
 82 85  1  0
 82 84  1  0
 83 81  2  0
 86 87  1  0
 86 61  1  0
 88 86  1  0
 89 50  1  0
 90 92  1  0
 92 89  1  0
 92 91  1  0
M  ISO  4   8 101   9 101  51 100  59 100
M  END
>  <TORSDO>  (24) 
F 20

>  <SCORE>  (24) 
-15.882

>  <name>  (24) 
23

>  <ligand_id>  (24) 
23

>  <original_smiles>  (24) 
[H]c1c([H])c([H])c2c(c1[H])C([H])([H])C([H])([H])C([H])([H])C2([H])N([H])C(=O)C1([H])N(C(=O)C([H])(N([H])C(=O)C([H])(N([H])C([H])([H])[H])C([H])([H])[H])C(C([H])([H])[H])(C([H])([H])[H])C([H])([H])[H])C([H])([H])c2c([H])c(OC([H])([H])C3([H])C([H])(C([H])(N([H])C(=O)N4C([H])([H])C([H])([H])C([H])([H])C([H])(n5nc(-c6c([H])c([H])c(Oc7c([H])c([H])c(F)c([H])c7F)c([H])c6[H])c(C(=O)N([H])[H])c5N([H])[H])C4([H])[H])C([H])([H])C([H])(C([H])([H])[H])C([H])([H])[H])C([H])([H])C([H])([H])[N+]3([H])[H])c([H])c([H])c2C1([H])[H]

>  <smiles>  (24) 
[H]c1c([H])c([H])c2c(c1[H])C([H])([H])C([H])([H])C([H])([H])C2([H])N([H])C(=O)C1([H])N(C(=O)C([H])(N([H])C(=O)C([H])(N([H])C([H])([H])[H])C([H])([H])[H])C(C([H])([H])[H])(C([H])([H])[H])C([H])([H])[H])C([H])([H])c2c([H])c(OC([H])([H])C3([H])C([H])(C([H])(N([H])C(=O)N4C([H])([H])C([H])([H])C([H])([H])C([H])(n5nc(-c6c([H])c([H])c(Oc7c([H])c([H])c(F)c([H])c7F)c([H])c6[H])c(C(=O)N([H])[H])c5N([H])[H])C4([H])[H])C([H])([H])C([H])(C([H])([H])[H])C([H])([H])[H])C([H])([H])C([H])([H])[N+]3([H])[H])c([H])c([H])c2C1([H])[H]

$$$$
24:0:0
     RDKit          3D

 82 86  0  0  1  0  0  0  0  0999 V2000
  -28.1370  -24.6640   20.2800 O   0  0  0  0  0  1  0  0  0  0  0  0
  -24.7340  -31.8030   23.1520 C   0  0  0  0  0  0  0  0  0  0  0  0
  -27.2260  -26.1590   20.2530 C   0  0  0  0  0  0  0  0  0  0  0  0
  -23.5690  -30.3790   21.5310 C   0  0  0  0  0  3  0  0  0  0  0  0
  -25.0170  -28.5910   20.1720 C   0  0  0  0  0  0  0  0  0  0  0  0
  -26.1690  -30.3340   21.4840 C   0  0  0  0  0  2  0  0  0  0  0  0
  -26.2240  -28.8290   20.8370 C   0  0  0  0  0  0  0  0  0  0  0  0
  -27.2770  -27.6660   20.8260 C   0  0  0  0  0  3  0  0  0  0  0  0
  -25.9790  -26.2970   19.5260 C   0  0  0  0  0  3  0  0  0  0  0  0
  -24.9720  -27.3550   19.4890 C   0  0  0  0  0  3  0  0  0  0  0  0
  -23.8390  -29.6200   20.1890 C   0  0  0  0  0  2  0  0  0  0  0  0
  -24.8570  -30.8880   22.1070 N   0  0  0  0  0  0  0  0  0  0  0  0
  -23.6280  -32.1340   23.6250 O   0  0  0  0  0  0  0  0  0  0  0  0
  -22.7900  -29.4690   22.5260 C   0  0  0  0  0  0  0  0  0  0  0  0
  -21.4500  -29.3540   22.4040 N   0  0  0  0  0  0  0  0  0  0  0  0
  -23.4170  -28.8550   23.3910 O   0  0  0  0  0  0  0  0  0  0  0  0
  -20.9850  -29.8980   21.6910 H   0  0  0  0  0  0  0  0  0  0  0  0
  -18.0430  -28.1630   22.9450 C   0  0  0  0  0  0  0  0  0  0  0  0
  -20.6080  -28.4320   23.1860 C   0  0  0  0  0  3  0  0  0  0  0  0
  -20.6980  -26.9930   22.6240 C   0  0  0  0  0  2  0  0  0  0  0  0
  -19.5930  -26.6710   21.6130 C   0  0  0  0  0  2  0  0  0  0  0  0
  -18.2140  -26.8160   22.2620 C   0  0  0  0  0  2  0  0  0  0  0  0
  -19.1660  -28.9300   23.3620 C   0  0  0  0  0  0  0  0  0  0  0  0
  -18.9450  -30.1830   23.9710 C   0  0  0  0  0  3  0  0  0  0  0  0
  -17.6390  -30.6750   24.1590 C   0  0  0  0  0  3  0  0  0  0  0  0
  -16.5340  -29.9080   23.7510 C   0  0  0  0  0  3  0  0  0  0  0  0
  -16.7360  -28.6540   23.1500 C   0  0  0  0  0  3  0  0  0  0  0  0
  -25.9690  -32.4900   23.8170 C   0  0  0  0  0  3  0  0  0  0  0  0
  -25.6220  -33.8950   24.1490 N   0  0  0  0  0  0  0  0  0  0  0  0
  -25.9300  -34.9760   23.4180 C   0  0  0  0  0  0  0  0  0  0  0  0
  -26.5750  -34.8970   22.3700 O   0  0  0  0  0  0  0  0  0  0  0  0
  -25.0380  -34.0270   24.9630 H   0  0  0  0  0  0  0  0  0  0  0  0
  -24.1650  -36.7690   23.1870 C   0  0  0  0  0  1  0  0  0  0  0  0
  -25.4550  -36.3610   23.9170 C   0  0  0  0  0  3  0  0  0  0  0  0
  -27.6170  -37.2890   24.6380 C   0  0  0  0  0  1  0  0  0  0  0  0
  -26.4650  -37.4330   23.7520 N   0  0  0  0  0  0  0  0  0  0  0  0
  -26.0520  -38.3460   23.9150 H   0  0  0  0  0  0  0  0  0  0  0  0
  -26.4440  -31.7560   25.1340 C   0  0  1  0  0  0  0  0  0  0  0  0
  -25.3190  -31.5450   26.1760 C   0  0  0  0  0  1  0  0  0  0  0  0
  -27.0410  -30.3700   24.8160 C   0  0  0  0  0  1  0  0  0  0  0  0
  -27.5740  -32.5690   25.8090 C   0  0  0  0  0  1  0  0  0  0  0  0
  -28.1770  -22.5590   20.1660 C   0  0  0  0  0 15  0  0  0  0  0  0
  -30.1260  -20.6340   21.3760 C   0  0  0  0  0  1  0  0  0  0  0  0
  -29.1990  -20.4320   20.1740 C   0  0  0  0  0  1  0  0  0  0  0  0
  -29.9420  -16.6970   20.0440 C   0  0  0  0  0  0  0  0  0  0  0  0
  -30.3010  -13.9350   19.2580 C   0  0  0  0  0  2  0  0  0  0  0  0
  -29.5130  -13.0880   18.1740 C   0  0  0  0  0  2  0  0  0  0  0  0
  -28.2060  -12.5100   18.7180 C   0  0  0  0  0  2  0  0  0  0  0  0
  -27.5770  -13.5390   19.6670 C   0  0  0  0  0  3  0  0  0  0  0  0
  -28.5580  -14.2410   20.6770 C   0  0  0  0  0  2  0  0  0  0  0  0
  -29.5240  -15.1680   19.9320 N   0  0  0  0  0  0  0  0  0  0  0  0
  -31.1900  -16.4790   19.9460 O   0  0  0  0  0  0  0  0  0  0  0  0
  -29.2060  -18.3230   20.0940 N   0  0  0  0  0  2  0  0  0  0  0  0
  -28.2220  -18.0840   20.0790 H   0  0  0  0  0  0  0  0  0  0  0  0
  -25.2470  -13.9380   20.5380 C   0  0  0  0  0  0  0  0  0  0  0  0
  -24.2200  -13.1270   20.9200 C   0  0  0  0  0  0  0  0  0  0  0  0
  -24.7160  -11.7890   20.8410 C   0  0  0  0  0  0  0  0  0  0  0  0
  -26.3080  -13.1070   20.2470 N   0  0  0  0  0  0  0  0  0  0  0  0
  -26.0040  -11.7970   20.4800 N   0  0  0  0  0  0  0  0  0  0  0  0
  -24.0070  -10.5110   21.0280 C   0  0  0  0  0  0  0  0  0  0  0  0
  -24.4480   -9.5440   21.9600 C   0  0  0  0  0  3  0  0  0  0  0  0
  -23.7280   -8.3430   22.1460 C   0  0  0  0  0  3  0  0  0  0  0  0
  -22.5510   -8.0970   21.4000 C   0  0  0  0  0  0  0  0  0  0  0  0
  -22.1250   -9.0510   20.4590 C   0  0  0  0  0  3  0  0  0  0  0  0
  -22.8460  -10.2440   20.2730 C   0  0  0  0  0  3  0  0  0  0  0  0
  -21.8040   -6.9470   21.4930 O   0  0  0  0  0  0  0  0  0  0  0  0
  -21.7380   -6.2200   22.6560 C   0  0  0  0  0  0  0  0  0  0  0  0
  -21.2500   -6.7810   23.8570 C   0  0  0  0  0  3  0  0  0  0  0  0
  -21.1340   -5.9820   25.0120 C   0  0  0  0  0  3  0  0  0  0  0  0
  -21.4950   -4.6220   24.9670 C   0  0  0  0  0  0  0  0  0  0  0  0
  -21.9760   -4.0600   23.7710 C   0  0  0  0  0  3  0  0  0  0  0  0
  -22.0930   -4.8570   22.6180 C   0  0  0  0  0  0  0  0  0  0  0  0
  -22.5350   -4.3050   21.4630 F   0  0  0  0  0  0  0  0  0  0  0  0
  -21.3780   -3.8520   26.0750 F   0  0  0  0  0  0  0  0  0  0  0  0
  -22.8250  -13.5770   21.2360 C   0  0  0  0  0  0  0  0  0  0  0  0
  -22.1350  -12.8630   22.1170 N   0  0  0  0  0  0  0  0  0  0  0  0
  -22.3590  -14.6020   20.7400 O   0  0  0  0  0  0  0  0  0  0  0  0
  -22.5290  -12.0350   22.5410 H   0  0  0  0  0  0  0  0  0  0  0  0
  -21.2000  -13.1480   22.3730 H   0  0  0  0  0  0  0  0  0  0  0  0
  -25.3640  -15.3150   20.3750 N   0  0  0  0  0  0  0  0  0  0  0  0
  -24.5810  -15.9440   20.5150 H   0  0  0  0  0  0  0  0  0  0  0  0
  -26.1870  -15.7810   20.0160 H   0  0  0  0  0  0  0  0  0  0  0  0
  2 13  2  0
  3  1  1  0
  3  8  1  0
  4 12  1  0
  4 14  1  0
  5 11  1  0
  5  7  1  0
  6 12  1  0
  7  6  1  0
  8  7  2  0
  9  3  2  0
 10  9  1  0
 10  5  2  0
 11  4  1  0
 12  2  1  0
 14 16  2  0
 15 14  1  0
 17 15  1  0
 18 27  2  0
 18 23  1  0
 19 15  1  0
 19 23  1  0
 20 19  1  0
 21 22  1  0
 21 20  1  0
 22 18  1  0
 23 24  2  0
 24 25  1  0
 26 25  2  0
 27 26  1  0
 28  2  1  0
 28 29  1  0
 28 38  1  0
 29 32  1  0
 30 34  1  0
 30 29  1  0
 31 30  2  0
 34 33  1  0
 36 37  1  0
 36 34  1  0
 36 35  1  0
 38 41  1  1
 38 39  1  0
 40 38  1  0
 44 43  1  0
 45 53  1  0
 46 51  1  0
 47 48  1  0
 47 46  1  0
 49 48  1  0
 49 58  1  0
 49 50  1  0
 51 45  1  0
 51 50  1  0
 52 45  2  0
 54 53  1  0
 55 56  2  0
 56 75  1  0
 57 56  1  0
 57 60  1  0
 58 59  1  0
 58 55  1  0
 59 57  2  0
 60 61  1  0
 61 62  2  0
 63 66  1  0
 63 62  1  0
 64 63  2  0
 65 64  1  0
 65 60  2  0
 66 67  1  0
 67 68  1  0
 68 69  2  0
 70 69  1  0
 70 74  1  0
 71 70  2  0
 72 67  2  0
 72 71  1  0
 73 72  1  0
 75 76  1  0
 76 79  1  0
 76 78  1  0
 77 75  2  0
 80 81  1  0
 80 55  1  0
 82 80  1  0
M  ISO  4   1 101  42 101  45 100  53 100
M  END
>  <TORSDO>  (25) 
F 17

>  <SCORE>  (25) 
-16.272

>  <name>  (25) 
24

>  <ligand_id>  (25) 
24

>  <original_smiles>  (25) 
[H]c1c([H])c([H])c2c(c1[H])C([H])([H])C([H])([H])C([H])([H])C2([H])N([H])C(=O)C1([H])N(C(=O)C([H])(N([H])C(=O)C([H])(N([H])C([H])([H])[H])C([H])([H])[H])C(C([H])([H])[H])(C([H])([H])[H])C([H])([H])[H])C([H])([H])c2c([H])c(OC([H])([H])C([H])(N([H])C(=O)N3C([H])([H])C([H])([H])C([H])([H])C([H])(n4nc(-c5c([H])c([H])c(Oc6c([H])c([H])c(F)c([H])c6F)c([H])c5[H])c(C(=O)N([H])[H])c4N([H])[H])C3([H])[H])C([H])([H])[H])c([H])c([H])c2C1([H])[H]

>  <smiles>  (25) 
[H]c1c([H])c([H])c2c(c1[H])C([H])([H])C([H])([H])C([H])([H])C2([H])N([H])C(=O)C1([H])N(C(=O)C([H])(N([H])C(=O)C([H])(N([H])C([H])([H])[H])C([H])([H])[H])C(C([H])([H])[H])(C([H])([H])[H])C([H])([H])[H])C([H])([H])c2c([H])c(OC([H])([H])C([H])(N([H])C(=O)N3C([H])([H])C([H])([H])C([H])([H])C([H])(n4nc(-c5c([H])c([H])c(Oc6c([H])c([H])c(F)c([H])c6F)c([H])c5[H])c(C(=O)N([H])[H])c4N([H])[H])C3([H])[H])C([H])([H])[H])c([H])c([H])c2C1([H])[H]

$$$$
25:0:0
     RDKit          3D

 94102  0  0  1  0  0  0  0  0999 V2000
  -30.4070  -18.9990   18.6590 C   0  0  0  0  0  0  0  0  0  0  0  0
  -28.2200  -21.6590   17.2180 C   0  0  0  0  0  2  0  0  0  0  0  0
  -27.6770  -21.5150   18.6290 C   0  0  0  0  0  2  0  0  0  0  0  0
  -29.2970  -20.5810   17.2230 C   0  0  0  0  0  2  0  0  0  0  0  0
  -28.9790  -21.4800   19.4410 C   0  0  0  0  0  3  0  0  0  0  0  0
  -29.7580  -20.3210   18.6250 N   0  0  0  0  0  0  0  0  0  0  0  0
  -30.8520  -18.5840   17.5820 O   0  0  0  0  0  0  0  0  0  0  0  0
  -29.4280  -23.1500   19.5540 C   0  0  0  0  0  0  0  0  0  0  0  0
  -30.6230  -23.4560   19.5160 O   0  0  0  0  0  0  0  0  0  0  0  0
  -28.3250  -24.4110   19.7210 C   0  0  0  0  0  2  0  0  0  0  0  0
  -28.6220  -25.9590   19.7760 O   0  0  0  0  0  0  0  0  0  0  0  0
  -24.6310  -31.4070   22.8840 C   0  0  0  0  0  0  0  0  0  0  0  0
  -27.5230  -26.9140   19.7500 C   0  0  0  0  0  0  0  0  0  0  0  0
  -23.5400  -29.9970   21.1860 C   0  0  0  0  0  3  0  0  0  0  0  0
  -25.0980  -28.5430   19.7480 C   0  0  0  0  0  0  0  0  0  0  0  0
  -26.0820  -30.3980   21.0780 C   0  0  0  0  0  2  0  0  0  0  0  0
  -26.2470  -29.0310   20.3840 C   0  0  0  0  0  0  0  0  0  0  0  0
  -27.4600  -28.2350   20.3700 C   0  0  0  0  0  3  0  0  0  0  0  0
  -26.3340  -26.5390   19.0830 C   0  0  0  0  0  3  0  0  0  0  0  0
  -25.1550  -27.3090   19.0890 C   0  0  0  0  0  3  0  0  0  0  0  0
  -23.8220  -29.3710   19.7960 C   0  0  0  0  0  2  0  0  0  0  0  0
  -24.7700  -30.6220   21.7730 N   0  0  0  0  0  0  0  0  0  0  0  0
  -23.5210  -31.6140   23.4000 O   0  0  0  0  0  0  0  0  0  0  0  0
  -22.8990  -28.9240   22.1050 C   0  0  0  0  0  0  0  0  0  0  0  0
  -21.5810  -28.6980   21.9670 N   0  0  0  0  0  0  0  0  0  0  0  0
  -23.5930  -28.3000   22.9130 O   0  0  0  0  0  0  0  0  0  0  0  0
  -21.0700  -29.2540   21.2950 H   0  0  0  0  0  0  0  0  0  0  0  0
  -18.2550  -27.3430   22.4440 C   0  0  0  0  0  0  0  0  0  0  0  0
  -20.8030  -27.6940   22.7000 C   0  0  0  0  0  3  0  0  0  0  0  0
  -20.9540  -26.2950   22.0600 C   0  0  0  0  0  2  0  0  0  0  0  0
  -19.8570  -25.9750   21.0390 C   0  0  0  0  0  2  0  0  0  0  0  0
  -18.4770  -26.0360   21.7020 C   0  0  0  0  0  2  0  0  0  0  0  0
  -19.3470  -28.1290   22.9000 C   0  0  0  0  0  0  0  0  0  0  0  0
  -19.0860  -29.3470   23.5600 C   0  0  0  0  0  3  0  0  0  0  0  0
  -17.7630  -29.7910   23.7580 C   0  0  0  0  0  3  0  0  0  0  0  0
  -16.6860  -29.0030   23.3170 C   0  0  0  0  0  3  0  0  0  0  0  0
  -16.9320  -27.7790   22.6700 C   0  0  0  0  0  3  0  0  0  0  0  0
  -25.8580  -32.0990   23.5530 C   0  0  0  0  0  3  0  0  0  0  0  0
  -26.4360  -31.2870   24.7770 C   0  0  1  0  0  0  0  0  0  0  0  0
  -25.3650  -30.8860   25.8180 C   0  0  0  0  0  1  0  0  0  0  0  0
  -27.1260  -29.9880   24.3000 C   0  0  0  0  0  1  0  0  0  0  0  0
  -27.5210  -32.1220   25.4970 C   0  0  0  0  0  1  0  0  0  0  0  0
  -25.4340  -33.4420   23.9850 N   0  0  0  0  0  0  0  0  0  0  0  0
  -25.6880  -34.5750   23.3170 C   0  0  0  0  0  0  0  0  0  0  0  0
  -26.3680  -34.6050   22.2880 O   0  0  0  0  0  0  0  0  0  0  0  0
  -24.8210  -33.4850   24.7850 H   0  0  0  0  0  0  0  0  0  0  0  0
  -23.8310  -36.2590   23.0940 C   0  0  0  0  0  1  0  0  0  0  0  0
  -25.0980  -35.8830   23.8810 C   0  0  0  0  0  3  0  0  0  0  0  0
  -27.1520  -36.8610   24.8070 C   0  0  0  0  0  1  0  0  0  0  0  0
  -26.0490  -37.0170   23.8610 N   0  0  0  0  0  0  0  0  0  0  0  0
  -25.5730  -37.8900   24.0730 H   0  0  0  0  0  0  0  0  0  0  0  0
  -30.7210  -17.7980   19.7700 C   0  0  0  0  0  3  0  0  0  0  0  0
  -31.3530  -15.0170   19.3990 C   0  0  0  0  0  0  0  0  0  0  0  0
  -31.0980  -12.6350   18.5090 C   0  0  0  0  0  2  0  0  0  0  0  0
  -30.0320  -12.5600   17.3900 C   0  0  0  0  0  2  0  0  0  0  0  0
  -28.6120  -12.4350   17.9770 C   0  0  0  0  0  2  0  0  0  0  0  0
  -28.3670  -13.3890   19.1770 C   0  0  0  0  0  3  0  0  0  0  0  0
  -29.5370  -13.3730   20.1740 C   0  0  0  0  0  2  0  0  0  0  0  0
  -30.7220  -13.7680   19.4010 N   0  0  0  0  0  0  0  0  0  0  0  0
  -32.5680  -15.0150   19.1690 O   0  0  0  0  0  0  0  0  0  0  0  0
  -30.5790  -16.2310   19.3990 N   0  0  0  0  0  0  0  0  0  0  0  0
  -29.6170  -16.0120   19.2130 H   0  0  0  0  0  0  0  0  0  0  0  0
  -26.1230  -14.0940   20.1730 C   0  0  0  0  0  0  0  0  0  0  0  0
  -25.0620  -13.3840   20.6540 C   0  0  0  0  0  0  0  0  0  0  0  0
  -25.4300  -12.0070   20.5550 C   0  0  0  0  0  0  0  0  0  0  0  0
  -27.0780  -13.1600   19.8170 N   0  0  0  0  0  0  0  0  0  0  0  0
  -26.6770  -11.8960   20.1070 N   0  0  0  0  0  0  0  0  0  0  0  0
  -24.6470  -10.7940   20.8050 C   0  0  0  0  0  0  0  0  0  0  0  0
  -25.0220   -9.8650   21.8000 C   0  0  0  0  0  3  0  0  0  0  0  0
  -24.2430   -8.7120   22.0390 C   0  0  0  0  0  3  0  0  0  0  0  0
  -23.0720   -8.4800   21.2800 C   0  0  0  0  0  0  0  0  0  0  0  0
  -22.7160   -9.3910   20.2700 C   0  0  0  0  0  3  0  0  0  0  0  0
  -23.4970  -10.5350   20.0330 C   0  0  0  0  0  3  0  0  0  0  0  0
  -22.2700   -7.3720   21.4200 O   0  0  0  0  0  0  0  0  0  0  0  0
  -22.0390   -6.8030   22.6450 C   0  0  0  0  0  0  0  0  0  0  0  0
  -21.4500   -7.5250   23.7060 C   0  0  0  0  0  3  0  0  0  0  0  0
  -21.1720   -6.8800   24.9270 C   0  0  0  0  0  3  0  0  0  0  0  0
  -21.4710   -5.5130   25.0870 C   0  0  0  0  0  0  0  0  0  0  0  0
  -22.0510   -4.7910   24.0300 C   0  0  0  0  0  3  0  0  0  0  0  0
  -22.3310   -5.4330   22.8110 C   0  0  0  0  0  0  0  0  0  0  0  0
  -22.8740   -4.7300   21.7890 F   0  0  0  0  0  0  0  0  0  0  0  0
  -21.1920   -4.8920   26.2560 F   0  0  0  0  0  0  0  0  0  0  0  0
  -23.7320  -13.9370   21.0710 C   0  0  0  0  0  0  0  0  0  0  0  0
  -23.0760  -13.2890   22.0240 N   0  0  0  0  0  0  0  0  0  0  0  0
  -23.2960  -14.9810   20.5860 O   0  0  0  0  0  0  0  0  0  0  0  0
  -23.4530  -12.4480   22.4360 H   0  0  0  0  0  0  0  0  0  0  0  0
  -22.1860  -13.6330   22.3520 H   0  0  0  0  0  0  0  0  0  0  0  0
  -26.3380  -15.4560   19.9830 N   0  0  0  0  0  0  0  0  0  0  0  0
  -25.6080  -16.1300   20.1860 H   0  0  0  0  0  0  0  0  0  0  0  0
  -27.1030  -15.8420   19.4510 H   0  0  0  0  0  0  0  0  0  0  0  0
  -28.4510  -18.1640   20.9220 C   0  0  0  0  0  1  0  0  0  0  0  0
  -30.2260  -16.9340   22.1630 C   0  0  0  0  0  1  0  0  0  0  0  0
  -30.5200  -19.3470   21.8190 C   0  0  0  0  0  1  0  0  0  0  0  0
  -29.9800  -18.0650   21.1380 C   0  0  1  0  0  0  0  0  0  0  0  0
  2  4  1  0
  2  3  1  0
  3  5  1  0
  4  6  1  0
  5  8  1  0
  6  1  1  0
  6  5  1  0
  7  1  2  0
  8 10  1  0
  9  8  2  0
 10 11  1  0
 12 23  2  0
 13 11  1  0
 13 18  1  0
 14 22  1  0
 14 24  1  0
 15 21  1  0
 15 17  1  0
 16 22  1  0
 17 16  1  0
 18 17  2  0
 19 20  1  0
 19 13  2  0
 20 15  2  0
 21 14  1  0
 22 12  1  0
 24 26  2  0
 25 24  1  0
 27 25  1  0
 28 37  2  0
 28 33  1  0
 29 25  1  0
 29 33  1  0
 30 29  1  0
 31 32  1  0
 31 30  1  0
 32 28  1  0
 33 34  2  0
 34 35  1  0
 36 35  2  0
 37 36  1  0
 38 12  1  0
 38 43  1  0
 38 39  1  0
 39 42  1  1
 39 40  1  0
 41 39  1  0
 43 46  1  0
 44 48  1  0
 44 43  1  0
 45 44  2  0
 48 47  1  0
 50 48  1  0
 50 51  1  0
 50 49  1  0
 52  1  1  0
 52 94  1  0
 53 61  1  0
 53 59  1  0
 54 59  1  0
 55 56  1  0
 55 54  1  0
 57 56  1  0
 57 66  1  0
 57 58  1  0
 59 58  1  0
 60 53  2  0
 61 52  1  0
 62 61  1  0
 63 64  2  0
 64 83  1  0
 65 64  1  0
 65 68  1  0
 66 67  1  0
 66 63  1  0
 67 65  2  0
 68 69  1  0
 69 70  2  0
 71 74  1  0
 71 70  1  0
 72 71  2  0
 73 72  1  0
 73 68  2  0
 74 75  1  0
 75 80  2  0
 75 76  1  0
 76 77  2  0
 77 78  1  0
 78 82  1  0
 79 78  2  0
 80 79  1  0
 81 80  1  0
 83 84  1  0
 84 87  1  0
 84 86  1  0
 85 83  2  0
 88 63  1  0
 88 89  1  0
 90 88  1  0
 94 91  1  6
 94 93  1  0
 94 92  1  0
M  ISO  4  10 101  11 101  53 100  61 100
M  END
>  <TORSDO>  (26) 
F 20

>  <SCORE>  (26) 
-11.299

>  <name>  (26) 
25

>  <ligand_id>  (26) 
25

>  <original_smiles>  (26) 
[H]c1c([H])c([H])c2c(c1[H])C([H])([H])C([H])([H])C([H])([H])C2([H])N([H])C(=O)C1([H])N(C(=O)C([H])(N([H])C(=O)C([H])(N([H])C([H])([H])[H])C([H])([H])[H])C(C([H])([H])[H])(C([H])([H])[H])C([H])([H])[H])C([H])([H])c2c([H])c(OC([H])([H])C(=O)C3([H])N(C(=O)C([H])(N([H])C(=O)N4C([H])([H])C([H])([H])C([H])([H])C([H])(n5nc(-c6c([H])c([H])c(Oc7c([H])c([H])c(F)c([H])c7F)c([H])c6[H])c(C(=O)N([H])[H])c5N([H])[H])C4([H])[H])C(C([H])([H])[H])(C([H])([H])[H])C([H])([H])[H])C([H])([H])C([H])([H])C3([H])[H])c([H])c([H])c2C1([H])[H]

>  <smiles>  (26) 
[H]c1c([H])c([H])c2c(c1[H])C([H])([H])C([H])([H])C([H])([H])C2([H])N([H])C(=O)C1([H])N(C(=O)C([H])(N([H])C(=O)C([H])(N([H])C([H])([H])[H])C([H])([H])[H])C(C([H])([H])[H])(C([H])([H])[H])C([H])([H])[H])C([H])([H])c2c([H])c(OC([H])([H])C(=O)C3([H])N(C(=O)C([H])(N([H])C(=O)N4C([H])([H])C([H])([H])C([H])([H])C([H])(n5nc(-c6c([H])c([H])c(Oc7c([H])c([H])c(F)c([H])c7F)c([H])c6[H])c(C(=O)N([H])[H])c5N([H])[H])C4([H])[H])C(C([H])([H])[H])(C([H])([H])[H])C([H])([H])[H])C([H])([H])C([H])([H])C3([H])[H])c([H])c([H])c2C1([H])[H]

$$$$
28:0:0
     RDKit          3D

 90 97  0  0  1  0  0  0  0  0999 V2000
  -28.7790  -21.2220   20.4090 C   0  0  0  0  0  2  0  0  0  0  0  0
  -28.1660  -23.0740   18.4620 C   0  0  0  0  0  1  0  0  0  0  0  0
  -30.3130  -23.2630   19.7350 C   0  0  0  0  0  1  0  0  0  0  0  0
  -28.8150  -22.9470   19.8550 C   0  0  2  0  0  0  0  0  0  0  0  0
  -28.1050  -24.4080   20.5780 C   0  0  0  0  0  2  0  0  0  0  0  0
  -28.2710  -26.0010   20.2820 O   0  0  0  0  0  0  0  0  0  0  0  0
  -24.6320  -31.9040   23.2170 C   0  0  0  0  0  0  0  0  0  0  0  0
  -27.2210  -27.0400   20.2720 C   0  0  0  0  0  0  0  0  0  0  0  0
  -23.4460  -30.4840   21.5890 C   0  0  0  0  0  3  0  0  0  0  0  0
  -24.9040  -28.8700   20.1980 C   0  0  0  0  0  0  0  0  0  0  0  0
  -26.0090  -30.7180   21.4430 C   0  0  0  0  0  2  0  0  0  0  0  0
  -26.0880  -29.3050   20.8070 C   0  0  0  0  0  0  0  0  0  0  0  0
  -27.2460  -28.4120   20.8140 C   0  0  0  0  0  3  0  0  0  0  0  0
  -26.0040  -26.7390   19.6250 C   0  0  0  0  0  3  0  0  0  0  0  0
  -24.8820  -27.6060   19.5870 C   0  0  0  0  0  3  0  0  0  0  0  0
  -23.6800  -29.7810   20.2240 C   0  0  0  0  0  2  0  0  0  0  0  0
  -24.7160  -31.0620   22.1360 N   0  0  0  0  0  0  0  0  0  0  0  0
  -23.5400  -32.1940   23.7320 O   0  0  0  0  0  0  0  0  0  0  0  0
  -22.7550  -29.4950   22.5640 C   0  0  0  0  0  0  0  0  0  0  0  0
  -21.4260  -29.3240   22.4370 N   0  0  0  0  0  0  0  0  0  0  0  0
  -23.4210  -28.8800   23.4020 O   0  0  0  0  0  0  0  0  0  0  0  0
  -20.9430  -29.8720   21.7390 H   0  0  0  0  0  0  0  0  0  0  0  0
  -18.0440  -28.1190   22.9470 C   0  0  0  0  0  0  0  0  0  0  0  0
  -20.6020  -28.3940   23.2160 C   0  0  0  0  0  3  0  0  0  0  0  0
  -20.7080  -26.9550   22.6590 C   0  0  0  0  0  2  0  0  0  0  0  0
  -19.6100  -26.6180   21.6450 C   0  0  0  0  0  2  0  0  0  0  0  0
  -18.2260  -26.7650   22.2840 C   0  0  0  0  0  2  0  0  0  0  0  0
  -19.1590  -28.8920   23.3700 C   0  0  0  0  0  0  0  0  0  0  0  0
  -18.9300  -30.1570   23.9520 C   0  0  0  0  0  3  0  0  0  0  0  0
  -17.6220  -30.6510   24.1140 C   0  0  0  0  0  3  0  0  0  0  0  0
  -16.5220  -29.8770   23.7050 C   0  0  0  0  0  3  0  0  0  0  0  0
  -16.7340  -28.6120   23.1280 C   0  0  0  0  0  3  0  0  0  0  0  0
  -25.8990  -32.5570   23.8460 C   0  0  0  0  0  3  0  0  0  0  0  0
  -25.5780  -33.9600   24.1620 N   0  0  0  0  0  0  0  0  0  0  0  0
  -25.9130  -35.0120   23.4040 C   0  0  0  0  0  0  0  0  0  0  0  0
  -26.5870  -34.9050   22.3760 O   0  0  0  0  0  0  0  0  0  0  0  0
  -24.9850  -34.1160   24.9640 H   0  0  0  0  0  0  0  0  0  0  0  0
  -24.1860  -36.8060   23.0350 C   0  0  0  0  0  1  0  0  0  0  0  0
  -25.4240  -36.4040   23.8550 C   0  0  0  0  0  3  0  0  0  0  0  0
  -27.5540  -37.2950   24.6930 C   0  0  0  0  0  1  0  0  0  0  0  0
  -26.4570  -37.4570   23.7420 N   0  0  0  0  0  0  0  0  0  0  0  0
  -26.0520  -38.3780   23.8830 H   0  0  0  0  0  0  0  0  0  0  0  0
  -26.4000  -31.8090   25.1430 C   0  0  1  0  0  0  0  0  0  0  0  0
  -25.2950  -31.5930   26.2050 C   0  0  0  0  0  1  0  0  0  0  0  0
  -26.9860  -30.4250   24.7890 C   0  0  0  0  0  1  0  0  0  0  0  0
  -27.5440  -32.6160   25.8030 C   0  0  0  0  0  1  0  0  0  0  0  0
  -29.3420  -19.6160   19.7730 C   0  0  0  0  0  3  0  0  0  0  0  0
  -29.5490  -20.0590   17.2510 C   0  0  0  0  0  1  0  0  0  0  0  0
  -28.8010  -17.8360   17.8880 C   0  0  0  0  0  1  0  0  0  0  0  0
  -27.2390  -19.6650   18.2890 C   0  0  0  0  0  1  0  0  0  0  0  0
  -28.7390  -19.3110   18.3400 C   0  0  1  0  0  0  0  0  0  0  0  0
  -29.7330  -18.1060   20.6580 C   0  0  0  0  0  2  0  0  0  0  0  0
  -30.4240  -15.2460   20.2810 C   0  0  0  0  0  0  0  0  0  0  0  0
  -30.3950  -12.8320   19.3600 C   0  0  0  0  0  2  0  0  0  0  0  0
  -29.4580  -12.6610   18.1390 C   0  0  0  0  0  2  0  0  0  0  0  0
  -28.0070  -12.4010   18.5860 C   0  0  0  0  0  2  0  0  0  0  0  0
  -27.5740  -13.3450   19.7370 C   0  0  0  0  0  3  0  0  0  0  0  0
  -28.6340  -13.4530   20.8500 C   0  0  0  0  0  2  0  0  0  0  0  0
  -29.8600  -13.9500   20.2080 N   0  0  0  0  0  0  0  0  0  0  0  0
  -31.6480  -15.2750   20.0930 O   0  0  0  0  0  0  0  0  0  0  0  0
  -29.6190  -16.4720   20.3670 N   0  0  0  0  0  0  0  0  0  0  0  0
  -28.6460  -16.2040   20.3760 H   0  0  0  0  0  0  0  0  0  0  0  0
  -25.2030  -13.8960   20.5020 C   0  0  0  0  0  0  0  0  0  0  0  0
  -24.1460  -13.1140   20.8770 C   0  0  0  0  0  0  0  0  0  0  0  0
  -24.6190  -11.7670   20.8440 C   0  0  0  0  0  0  0  0  0  0  0  0
  -26.2480  -13.0260   20.2530 N   0  0  0  0  0  0  0  0  0  0  0  0
  -25.9110  -11.7390   20.5270 N   0  0  0  0  0  0  0  0  0  0  0  0
  -23.9000  -10.5000   21.0360 C   0  0  0  0  0  0  0  0  0  0  0  0
  -24.3390   -9.5330   21.9670 C   0  0  0  0  0  3  0  0  0  0  0  0
  -23.6160   -8.3340   22.1480 C   0  0  0  0  0  3  0  0  0  0  0  0
  -22.4410   -8.0930   21.4000 C   0  0  0  0  0  0  0  0  0  0  0  0
  -22.0190   -9.0500   20.4600 C   0  0  0  0  0  3  0  0  0  0  0  0
  -22.7420  -10.2400   20.2760 C   0  0  0  0  0  3  0  0  0  0  0  0
  -21.6890   -6.9470   21.4900 O   0  0  0  0  0  0  0  0  0  0  0  0
  -21.6530   -6.1990   22.6400 C   0  0  0  0  0  0  0  0  0  0  0  0
  -21.2370   -6.7480   23.8730 C   0  0  0  0  0  3  0  0  0  0  0  0
  -21.1460   -5.9270   25.0140 C   0  0  0  0  0  3  0  0  0  0  0  0
  -21.4630   -4.5580   24.9260 C   0  0  0  0  0  0  0  0  0  0  0  0
  -21.8720   -4.0090   23.6980 C   0  0  0  0  0  3  0  0  0  0  0  0
  -21.9640   -4.8260   22.5590 C   0  0  0  0  0  0  0  0  0  0  0  0
  -22.3380   -4.2860   21.3730 F   0  0  0  0  0  0  0  0  0  0  0  0
  -21.3700   -3.7680   26.0210 F   0  0  0  0  0  0  0  0  0  0  0  0
  -22.7470  -13.5840   21.1480 C   0  0  0  0  0  0  0  0  0  0  0  0
  -22.0240  -12.8870   22.0150 N   0  0  0  0  0  0  0  0  0  0  0  0
  -22.3040  -14.6070   20.6260 O   0  0  0  0  0  0  0  0  0  0  0  0
  -22.3960  -12.0580   22.4570 H   0  0  0  0  0  0  0  0  0  0  0  0
  -21.0850  -13.1830   22.2400 H   0  0  0  0  0  0  0  0  0  0  0  0
  -25.3550  -15.2690   20.3210 N   0  0  0  0  0  0  0  0  0  0  0  0
  -24.5780  -15.9120   20.4330 H   0  0  0  0  0  0  0  0  0  0  0  0
  -26.1800  -15.7110   19.9390 H   0  0  0  0  0  0  0  0  0  0  0  0
  4  2  1  6
  3  4  1  0
  4  1  1  0
  4  5  1  0
  6  5  1  0
  7 18  2  0
  8  6  1  0
  8 13  1  0
  9 17  1  0
  9 19  1  0
 10 16  1  0
 10 12  1  0
 11 17  1  0
 12 13  2  0
 12 11  1  0
 14  8  2  0
 15 14  1  0
 15 10  2  0
 16  9  1  0
 17  7  1  0
 19 21  2  0
 20 19  1  0
 22 20  1  0
 23 32  2  0
 23 28  1  0
 24 20  1  0
 24 28  1  0
 25 24  1  0
 26 27  1  0
 26 25  1  0
 27 23  1  0
 28 29  2  0
 29 30  1  0
 31 30  2  0
 32 31  1  0
 33  7  1  0
 33 34  1  0
 33 43  1  0
 34 37  1  0
 35 39  1  0
 35 34  1  0
 36 35  2  0
 39 38  1  0
 41 39  1  0
 41 42  1  0
 41 40  1  0
 43 46  1  1
 43 44  1  0
 45 43  1  0
 47  1  1  0
 47 52  1  0
 51 48  1  6
 49 51  1  0
 50 51  1  0
 51 47  1  0
 53 61  1  0
 54 59  1  0
 55 56  1  0
 55 54  1  0
 57 56  1  0
 57 66  1  0
 57 58  1  0
 59 53  1  0
 59 58  1  0
 60 53  2  0
 61 62  1  0
 61 52  1  0
 63 64  2  0
 64 83  1  0
 65 64  1  0
 65 68  1  0
 66 63  1  0
 66 67  1  0
 67 65  2  0
 68 69  1  0
 69 70  2  0
 71 74  1  0
 71 70  1  0
 72 71  2  0
 73 72  1  0
 73 68  2  0
 74 75  1  0
 75 76  1  0
 76 77  2  0
 78 77  1  0
 78 82  1  0
 79 78  2  0
 80 75  2  0
 80 79  1  0
 81 80  1  0
 83 84  1  0
 84 87  1  0
 84 86  1  0
 85 83  2  0
 88 89  1  0
 88 63  1  0
 90 88  1  0
M  ISO  4   5 101   6 101  53 100  61 100
M  END
>  <TORSDO>  (27) 
F 21

>  <SCORE>  (27) 
-15.770

>  <name>  (27) 
28

>  <ligand_id>  (27) 
28

>  <original_smiles>  (27) 
[H]c1c([H])c([H])c2c(c1[H])C([H])([H])C([H])([H])C([H])([H])C2([H])N([H])C(=O)C1([H])N(C(=O)C([H])(N([H])C(=O)C([H])(N([H])C([H])([H])[H])C([H])([H])[H])C(C([H])([H])[H])(C([H])([H])[H])C([H])([H])[H])C([H])([H])c2c([H])c(OC([H])([H])C(C([H])([H])[H])(C([H])([H])[H])C([H])([H])C([H])(C([H])([H])N([H])C(=O)N3C([H])([H])C([H])([H])C([H])([H])C([H])(n4nc(-c5c([H])c([H])c(Oc6c([H])c([H])c(F)c([H])c6F)c([H])c5[H])c(C(=O)N([H])[H])c4N([H])[H])C3([H])[H])C(C([H])([H])[H])(C([H])([H])[H])C([H])([H])[H])c([H])c([H])c2C1([H])[H]

>  <smiles>  (27) 
[H]c1c([H])c([H])c2c(c1[H])C([H])([H])C([H])([H])C([H])([H])C2([H])N([H])C(=O)C1([H])N(C(=O)C([H])(N([H])C(=O)C([H])(N([H])C([H])([H])[H])C([H])([H])[H])C(C([H])([H])[H])(C([H])([H])[H])C([H])([H])[H])C([H])([H])c2c([H])c(OC([H])([H])C(C([H])([H])[H])(C([H])([H])[H])C([H])([H])C([H])(C([H])([H])N([H])C(=O)N3C([H])([H])C([H])([H])C([H])([H])C([H])(n4nc(-c5c([H])c([H])c(Oc6c([H])c([H])c(F)c([H])c6F)c([H])c5[H])c(C(=O)N([H])[H])c4N([H])[H])C3([H])[H])C(C([H])([H])[H])(C([H])([H])[H])C([H])([H])[H])c([H])c([H])c2C1([H])[H]

$$$$
29:0:0
     RDKit          3D

 93100  0  0  1  0  0  0  0  0999 V2000
  -28.4780  -21.8710   20.4460 C   0  0  0  0  0  0  0  0  0  0  0  0
  -28.6920  -20.1410   19.7700 C   0  0  0  0  0  0  0  0  0  0  0  0
  -28.0520  -19.9780   18.7290 O   0  0  0  0  0  0  0  0  0  0  0  0
  -29.6010  -18.5810   20.2370 C   0  0  0  0  0  2  0  0  0  0  0  0
  -30.1700  -15.4780   19.9410 C   0  0  0  0  0  0  0  0  0  0  0  0
  -30.2370  -12.9500   19.0890 C   0  0  0  0  0  2  0  0  0  0  0  0
  -29.2650  -12.5310   17.9500 C   0  0  0  0  0  2  0  0  0  0  0  0
  -27.8860  -12.1590   18.5170 C   0  0  0  0  0  2  0  0  0  0  0  0
  -27.4350  -13.1600   19.6060 C   0  0  0  0  0  3  0  0  0  0  0  0
  -28.5390  -13.4830   20.6380 C   0  0  0  0  0  2  0  0  0  0  0  0
  -29.6520  -14.1140   19.8920 N   0  0  0  0  0  0  0  0  0  0  0  0
  -31.3960  -15.4290   19.7250 O   0  0  0  0  0  0  0  0  0  0  0  0
  -29.4070  -16.8280   20.0390 N   0  0  0  0  0  0  0  0  0  0  0  0
  -28.4170  -16.6200   20.0750 H   0  0  0  0  0  0  0  0  0  0  0  0
  -25.1330  -13.6540   20.5570 C   0  0  0  0  0  0  0  0  0  0  0  0
  -24.1120  -12.8570   20.9920 C   0  0  0  0  0  0  0  0  0  0  0  0
  -24.5960  -11.5150   20.9120 C   0  0  0  0  0  0  0  0  0  0  0  0
  -26.1660  -12.8010   20.2240 N   0  0  0  0  0  0  0  0  0  0  0  0
  -25.8630  -11.5060   20.5040 N   0  0  0  0  0  0  0  0  0  0  0  0
  -23.9020  -10.2410   21.1400 C   0  0  0  0  0  0  0  0  0  0  0  0
  -24.3770   -9.2920   22.0700 C   0  0  0  0  0  3  0  0  0  0  0  0
  -23.6790   -8.0850   22.2820 C   0  0  0  0  0  3  0  0  0  0  0  0
  -22.4850   -7.8200   21.5690 C   0  0  0  0  0  0  0  0  0  0  0  0
  -22.0280   -8.7580   20.6260 C   0  0  0  0  0  3  0  0  0  0  0  0
  -22.7290   -9.9560   20.4130 C   0  0  0  0  0  3  0  0  0  0  0  0
  -21.7520   -6.6660   21.6970 O   0  0  0  0  0  0  0  0  0  0  0  0
  -21.7230   -5.9550   22.8690 C   0  0  0  0  0  0  0  0  0  0  0  0
  -21.2700   -6.5280   24.0780 C   0  0  0  0  0  3  0  0  0  0  0  0
  -21.1950   -5.7420   25.2450 C   0  0  0  0  0  3  0  0  0  0  0  0
  -21.5570   -4.3830   25.2040 C   0  0  0  0  0  0  0  0  0  0  0  0
  -22.0000   -3.8080   24.0000 C   0  0  0  0  0  3  0  0  0  0  0  0
  -22.0790   -4.5910   22.8360 C   0  0  0  0  0  0  0  0  0  0  0  0
  -22.4880   -4.0270   21.6740 F   0  0  0  0  0  0  0  0  0  0  0  0
  -21.4750   -3.6240   26.3230 F   0  0  0  0  0  0  0  0  0  0  0  0
  -22.7310  -13.3130   21.3610 C   0  0  0  0  0  0  0  0  0  0  0  0
  -22.0700  -12.6010   22.2660 N   0  0  0  0  0  0  0  0  0  0  0  0
  -22.2510  -14.3390   20.8810 O   0  0  0  0  0  0  0  0  0  0  0  0
  -22.4740  -11.7730   22.6790 H   0  0  0  0  0  0  0  0  0  0  0  0
  -21.1440  -12.8880   22.5500 H   0  0  0  0  0  0  0  0  0  0  0  0
  -25.2620  -15.0290   20.3830 N   0  0  0  0  0  0  0  0  0  0  0  0
  -24.4880  -15.6660   20.5430 H   0  0  0  0  0  0  0  0  0  0  0  0
  -26.0660  -15.4780   19.9650 H   0  0  0  0  0  0  0  0  0  0  0  0
  -29.5610  -22.1100   21.5200 C   0  0  0  0  0  2  0  0  0  0  0  0
  -29.0640  -21.7370   22.9350 C   0  0  0  0  0  2  0  0  0  0  0  0
  -30.1600  -21.8370   23.9640 C   0  0  0  0  0  0  0  0  0  0  0  0
  -30.9320  -22.9330   24.0310 N   0  0  0  0  0  4  0  0  0  0  0  0
  -30.3400  -20.8270   24.8290 N   0  0  0  0  0  0  0  0  0  0  0  0
  -30.7490  -23.7250   23.4300 H   0  0  0  0  0  0  0  0  0  0  0  0
  -31.6920  -23.0440   24.6840 H   0  0  0  0  0  0  0  0  0  0  0  0
  -29.7250  -20.0200   24.8170 H   0  0  0  0  0  0  0  0  0  0  0  0
  -31.0560  -20.8200   25.5420 H   0  0  0  0  0  0  0  0  0  0  0  0
  -27.8780  -23.6300   19.8880 C   0  0  0  0  0  3  0  0  0  0  0  0
  -27.9810  -25.3320   20.3180 O   0  0  0  0  0  0  0  0  0  0  0  0
  -24.5930  -31.6870   23.1230 C   0  0  0  0  0  0  0  0  0  0  0  0
  -27.0370  -26.5580   20.2040 C   0  0  0  0  0  0  0  0  0  0  0  0
  -23.3880  -30.3040   21.4880 C   0  0  0  0  0  3  0  0  0  0  0  0
  -24.8110  -28.6180   20.0980 C   0  0  0  0  0  0  0  0  0  0  0  0
  -25.9660  -30.4010   21.3770 C   0  0  0  0  0  2  0  0  0  0  0  0
  -26.0070  -28.9630   20.7350 C   0  0  0  0  0  0  0  0  0  0  0  0
  -27.1090  -27.9620   20.7560 C   0  0  0  0  0  3  0  0  0  0  0  0
  -25.8150  -26.4150   19.5040 C   0  0  0  0  0  3  0  0  0  0  0  0
  -24.7510  -27.3690   19.4540 C   0  0  0  0  0  3  0  0  0  0  0  0
  -23.6220  -29.5910   20.1240 C   0  0  0  0  0  2  0  0  0  0  0  0
  -24.6730  -30.8320   22.0480 N   0  0  0  0  0  0  0  0  0  0  0  0
  -23.5040  -32.0110   23.6260 O   0  0  0  0  0  0  0  0  0  0  0  0
  -22.6480  -29.3500   22.4670 C   0  0  0  0  0  0  0  0  0  0  0  0
  -21.3110  -29.2320   22.3500 N   0  0  0  0  0  0  0  0  0  0  0  0
  -23.2900  -28.7080   23.3000 O   0  0  0  0  0  0  0  0  0  0  0  0
  -20.8410  -29.7950   21.6550 H   0  0  0  0  0  0  0  0  0  0  0  0
  -17.8860  -28.1500   22.9150 C   0  0  0  0  0  0  0  0  0  0  0  0
  -20.4610  -28.3200   23.1280 C   0  0  0  0  0  3  0  0  0  0  0  0
  -20.4950  -26.8900   22.5380 C   0  0  0  0  0  2  0  0  0  0  0  0
  -19.3640  -26.6190   21.5410 C   0  0  0  0  0  2  0  0  0  0  0  0
  -18.0010  -26.8080   22.2110 C   0  0  0  0  0  2  0  0  0  0  0  0
  -19.0420  -28.8690   23.3270 C   0  0  0  0  0  0  0  0  0  0  0  0
  -18.8760  -30.1290   23.9460 C   0  0  0  0  0  3  0  0  0  0  0  0
  -17.5930  -30.6680   24.1510 C   0  0  0  0  0  3  0  0  0  0  0  0
  -16.4540  -29.9500   23.7440 C   0  0  0  0  0  3  0  0  0  0  0  0
  -16.6030  -28.6930   23.1320 C   0  0  0  0  0  3  0  0  0  0  0  0
  -25.8630  -32.3200   23.7660 C   0  0  0  0  0  3  0  0  0  0  0  0
  -25.5600  -33.7280   24.0890 N   0  0  0  0  0  0  0  0  0  0  0  0
  -25.9010  -34.7850   23.3370 C   0  0  0  0  0  0  0  0  0  0  0  0
  -26.5590  -34.6770   22.3000 O   0  0  0  0  0  0  0  0  0  0  0  0
  -24.9750  -33.8850   24.8970 H   0  0  0  0  0  0  0  0  0  0  0  0
  -24.1880  -36.6090   23.0260 C   0  0  0  0  0  1  0  0  0  0  0  0
  -25.4430  -36.1830   23.8070 C   0  0  0  0  0  3  0  0  0  0  0  0
  -27.6040  -37.0580   24.5890 C   0  0  0  0  0  1  0  0  0  0  0  0
  -26.4840  -37.2270   23.6680 N   0  0  0  0  0  0  0  0  0  0  0  0
  -26.0850  -38.1520   23.8100 H   0  0  0  0  0  0  0  0  0  0  0  0
  -26.3370  -31.5630   25.0720 C   0  0  1  0  0  0  0  0  0  0  0  0
  -25.2190  -31.3650   26.1230 C   0  0  0  0  0  1  0  0  0  0  0  0
  -26.9040  -30.1690   24.7300 C   0  0  0  0  0  1  0  0  0  0  0  0
  -27.4840  -32.3550   25.7470 C   0  0  0  0  0  1  0  0  0  0  0  0
  1 43  1  0
  2  4  1  0
  2  1  1  0
  3  2  2  0
  5 13  1  0
  6 11  1  0
  7  8  1  0
  7  6  1  0
  9  8  1  0
  9 18  1  0
  9 10  1  0
 11  5  1  0
 11 10  1  0
 12  5  2  0
 13 14  1  0
 13  4  1  0
 15 16  2  0
 16 35  1  0
 17 16  1  0
 17 20  1  0
 18 19  1  0
 18 15  1  0
 19 17  2  0
 20 21  1  0
 21 22  2  0
 23 26  1  0
 23 22  1  0
 24 23  2  0
 25 24  1  0
 25 20  2  0
 26 27  1  0
 27 28  1  0
 28 29  2  0
 30 29  1  0
 30 34  1  0
 31 30  2  0
 32 27  2  0
 32 31  1  0
 33 32  1  0
 35 36  1  0
 36 39  1  0
 36 38  1  0
 37 35  2  0
 40 41  1  0
 40 15  1  0
 42 40  1  0
 43 44  1  0
 44 45  1  0
 45 46  2  0
 45 47  1  0
 46 49  1  0
 47 51  1  0
 48 46  1  0
 50 47  1  0
 52 53  1  0
 52  1  2  0
 54 65  2  0
 55 53  1  0
 55 60  1  0
 56 64  1  0
 56 66  1  0
 57 63  1  0
 57 59  1  0
 58 64  1  0
 59 60  2  0
 59 58  1  0
 61 55  2  0
 62 61  1  0
 62 57  2  0
 63 56  1  0
 64 54  1  0
 66 68  2  0
 67 66  1  0
 69 67  1  0
 70 79  2  0
 70 75  1  0
 71 67  1  0
 71 75  1  0
 72 71  1  0
 73 74  1  0
 73 72  1  0
 74 70  1  0
 75 76  2  0
 76 77  1  0
 78 77  2  0
 79 78  1  0
 80 54  1  0
 80 81  1  0
 80 90  1  0
 81 84  1  0
 82 86  1  0
 82 81  1  0
 83 82  2  0
 86 85  1  0
 88 86  1  0
 88 89  1  0
 88 87  1  0
 90 93  1  1
 90 91  1  0
 92 90  1  0
M  ISO  4   5 100  13 100  52 101  53 101
M  END
>  <TORSDO>  (28) 
F 22

>  <SCORE>  (28) 
-14.817

>  <name>  (28) 
29

>  <ligand_id>  (28) 
29

>  <original_smiles>  (28) 
[H]c1c([H])c([H])c2c(c1[H])C([H])([H])C([H])([H])C([H])([H])C2([H])N([H])C(=O)C1([H])N(C(=O)C([H])(N([H])C(=O)C([H])(N([H])C([H])([H])[H])C([H])([H])[H])C(C([H])([H])[H])(C([H])([H])[H])C([H])([H])[H])C([H])([H])c2c([H])c(OC([H])([H])C([H])(C(=O)C([H])([H])N([H])C(=O)N3C([H])([H])C([H])([H])C([H])([H])C([H])(n4nc(-c5c([H])c([H])c(Oc6c([H])c([H])c(F)c([H])c6F)c([H])c5[H])c(C(=O)N([H])[H])c4N([H])[H])C3([H])[H])C([H])([H])C([H])([H])C(N([H])[H])=[N+]([H])[H])c([H])c([H])c2C1([H])[H]

>  <smiles>  (28) 
[H]c1c([H])c([H])c2c(c1[H])C([H])([H])C([H])([H])C([H])([H])C2([H])N([H])C(=O)C1([H])N(C(=O)C([H])(N([H])C(=O)C([H])(N([H])C([H])([H])[H])C([H])([H])[H])C(C([H])([H])[H])(C([H])([H])[H])C([H])([H])[H])C([H])([H])c2c([H])c(OC([H])([H])C([H])(C(=O)C([H])([H])N([H])C(=O)N3C([H])([H])C([H])([H])C([H])([H])C([H])(n4nc(-c5c([H])c([H])c(Oc6c([H])c([H])c(F)c([H])c6F)c([H])c5[H])c(C(=O)N([H])[H])c4N([H])[H])C3([H])[H])C([H])([H])C([H])([H])C(N([H])[H])=[N+]([H])[H])c([H])c([H])c2C1([H])[H]

$$$$
30:0:0
     RDKit          3D

102110  0  0  1  0  0  0  0  0999 V2000
  -27.8420  -21.3430   18.5130 C   0  0  0  0  0  0  0  0  0  0  0  0
  -28.3480  -21.7700   17.3460 N   0  0  0  0  0  0  0  0  0  0  0  0
  -28.5510  -21.1580   19.5030 O   0  0  0  0  0  0  0  0  0  0  0  0
  -27.7070  -21.9020   16.5760 H   0  0  0  0  0  0  0  0  0  0  0  0
  -29.7010  -22.3020   17.1730 C   0  0  0  0  0  2  0  0  0  0  0  0
  -29.2170  -24.7890   17.2450 C   0  0  0  0  0  3  0  0  0  0  0  0
  -30.2650  -23.7320   19.1800 C   0  0  0  0  0  3  0  0  0  0  0  0
  -28.9910  -25.9500   18.0070 C   0  0  0  0  0  3  0  0  0  0  0  0
  -29.9790  -24.8670   19.9540 C   0  0  0  0  0  3  0  0  0  0  0  0
  -29.7890  -23.6550   17.8540 C   0  0  0  0  0  0  0  0  0  0  0  0
  -29.2680  -25.9440   19.3950 C   0  0  0  0  0  0  0  0  0  0  0  0
  -28.8660  -26.9390   20.2500 O   0  0  0  0  0  0  0  0  0  0  0  0
  -24.5240  -31.7600   23.0880 C   0  0  0  0  0  0  0  0  0  0  0  0
  -27.6080  -27.5000   20.1960 C   0  0  0  0  0  0  0  0  0  0  0  0
  -23.4970  -30.2920   21.3780 C   0  0  0  0  0  3  0  0  0  0  0  0
  -25.1160  -28.8240   20.0720 C   0  0  0  0  0  0  0  0  0  0  0  0
  -26.0050  -30.7920   21.3380 C   0  0  0  0  0  2  0  0  0  0  0  0
  -26.2010  -29.4280   20.7170 C   0  0  0  0  0  0  0  0  0  0  0  0
  -27.4450  -28.7720   20.7760 C   0  0  0  0  0  3  0  0  0  0  0  0
  -26.4840  -26.8710   19.6050 C   0  0  0  0  0  3  0  0  0  0  0  0
  -25.2480  -27.5380   19.5190 C   0  0  0  0  0  3  0  0  0  0  0  0
  -23.8280  -29.6120   20.0230 C   0  0  0  0  0  2  0  0  0  0  0  0
  -24.6880  -30.9630   21.9940 N   0  0  0  0  0  0  0  0  0  0  0  0
  -23.3990  -31.9780   23.5550 O   0  0  0  0  0  0  0  0  0  0  0  0
  -22.8400  -29.2440   22.3020 C   0  0  0  0  0  0  0  0  0  0  0  0
  -21.5190  -29.0600   22.1490 N   0  0  0  0  0  0  0  0  0  0  0  0
  -23.5150  -28.5990   23.1100 O   0  0  0  0  0  0  0  0  0  0  0  0
  -21.0380  -29.6320   21.4690 H   0  0  0  0  0  0  0  0  0  0  0  0
  -18.1230  -27.9390   22.6530 C   0  0  0  0  0  0  0  0  0  0  0  0
  -20.6930  -28.1010   22.8790 C   0  0  0  0  0  3  0  0  0  0  0  0
  -20.7380  -26.7070   22.2110 C   0  0  0  0  0  2  0  0  0  0  0  0
  -19.6030  -26.4830   21.2070 C   0  0  0  0  0  2  0  0  0  0  0  0
  -18.2410  -26.6310   21.8920 C   0  0  0  0  0  2  0  0  0  0  0  0
  -19.2750  -28.6390   23.1030 C   0  0  0  0  0  0  0  0  0  0  0  0
  -19.1110  -29.8700   23.7730 C   0  0  0  0  0  3  0  0  0  0  0  0
  -17.8270  -30.4000   24.0000 C   0  0  0  0  0  3  0  0  0  0  0  0
  -16.6900  -29.6970   23.5700 C   0  0  0  0  0  3  0  0  0  0  0  0
  -16.8390  -28.4680   22.9010 C   0  0  0  0  0  3  0  0  0  0  0  0
  -25.7370  -32.4530   23.7860 C   0  0  0  0  0  3  0  0  0  0  0  0
  -26.2180  -31.7010   25.0870 C   0  0  1  0  0  0  0  0  0  0  0  0
  -25.0800  -31.4010   26.0890 C   0  0  0  0  0  1  0  0  0  0  0  0
  -26.8950  -30.3580   24.7250 C   0  0  0  0  0  1  0  0  0  0  0  0
  -27.2850  -32.5520   25.8190 C   0  0  0  0  0  1  0  0  0  0  0  0
  -25.3370  -33.8320   24.0960 N   0  0  0  0  0  0  0  0  0  0  0  0
  -25.6600  -34.9000   23.3540 C   0  0  0  0  0  0  0  0  0  0  0  0
  -26.3940  -34.8330   22.3640 O   0  0  0  0  0  0  0  0  0  0  0  0
  -24.6870  -33.9540   24.8570 H   0  0  0  0  0  0  0  0  0  0  0  0
  -23.8570  -36.5920   22.8980 C   0  0  0  0  0  1  0  0  0  0  0  0
  -25.0720  -36.2590   23.7780 C   0  0  0  0  0  3  0  0  0  0  0  0
  -27.1070  -37.2600   24.7200 C   0  0  0  0  0  1  0  0  0  0  0  0
  -26.0500  -37.3670   23.7170 N   0  0  0  0  0  0  0  0  0  0  0  0
  -25.5860  -38.2640   23.8410 H   0  0  0  0  0  0  0  0  0  0  0  0
  -26.3100  -21.1610   18.6140 C   0  0  0  0  0  3  0  0  0  0  0  0
  -24.1410  -22.3340   19.3020 C   0  0  0  0  0  1  0  0  0  0  0  0
  -25.6410  -22.1510   19.6310 C   0  0  0  0  0  3  0  0  0  0  0  0
  -25.8990  -24.4610   20.8220 C   0  0  0  0  0  1  0  0  0  0  0  0
  -26.3480  -23.5360   19.6790 C   0  0  0  0  0  2  0  0  0  0  0  0
  -25.9400  -19.6680   18.8620 C   0  0  0  0  0  2  0  0  0  0  0  0
  -26.9050  -18.8560   19.7590 C   0  0  0  0  0  2  0  0  0  0  0  0
  -27.8510  -18.0250   18.8740 C   0  0  0  0  0  2  0  0  0  0  0  0
  -30.1700  -18.7960   19.6140 C   0  0  0  0  0  1  0  0  0  0  0  0
  -29.8010  -16.7430   18.2600 C   0  0  0  0  0  1  0  0  0  0  0  0
  -29.2340  -17.5920   19.4220 C   0  0  2  0  0  0  0  0  0  0  0  0
  -29.0460  -16.8650   20.7950 C   0  0  0  0  0  2  0  0  0  0  0  0
  -30.7760  -15.0640   20.6210 C   0  0  0  0  0  0  0  0  0  0  0  0
  -30.6430  -12.8430   19.5490 C   0  0  0  0  0  2  0  0  0  0  0  0
  -29.7470  -12.8780   18.2940 C   0  0  0  0  0  2  0  0  0  0  0  0
  -28.2560  -12.7270   18.6580 C   0  0  0  0  0  2  0  0  0  0  0  0
  -27.8190  -13.6320   19.8400 C   0  0  0  0  0  3  0  0  0  0  0  0
  -28.8220  -13.5170   21.0120 C   0  0  0  0  0  2  0  0  0  0  0  0
  -30.1690  -13.8550   20.5060 N   0  0  0  0  0  0  0  0  0  0  0  0
  -31.8730  -15.3280   20.1220 O   0  0  0  0  0  0  0  0  0  0  0  0
  -30.0990  -15.9780   21.3260 N   0  0  0  0  0  0  0  0  0  0  0  0
  -29.7810  -15.5720   22.1940 H   0  0  0  0  0  0  0  0  0  0  0  0
  -25.3860  -14.1900   20.4980 C   0  0  0  0  0  0  0  0  0  0  0  0
  -24.3220  -13.3910   20.8130 C   0  0  0  0  0  0  0  0  0  0  0  0
  -24.8080  -12.0500   20.7460 C   0  0  0  0  0  0  0  0  0  0  0  0
  -26.4550  -13.3340   20.2680 N   0  0  0  0  0  0  0  0  0  0  0  0
  -26.1050  -12.0410   20.4740 N   0  0  0  0  0  0  0  0  0  0  0  0
  -24.1020  -10.7720   20.8660 C   0  0  0  0  0  0  0  0  0  0  0  0
  -24.5270   -9.7800   21.7770 C   0  0  0  0  0  3  0  0  0  0  0  0
  -23.8200   -8.5640   21.8860 C   0  0  0  0  0  3  0  0  0  0  0  0
  -22.6780   -8.3330   21.0830 C   0  0  0  0  0  0  0  0  0  0  0  0
  -22.2750   -9.3130   20.1610 C   0  0  0  0  0  3  0  0  0  0  0  0
  -22.9810  -10.5210   20.0500 C   0  0  0  0  0  3  0  0  0  0  0  0
  -21.9450   -7.1690   21.1010 O   0  0  0  0  0  0  0  0  0  0  0  0
  -21.8510   -6.3970   22.2300 C   0  0  0  0  0  0  0  0  0  0  0  0
  -21.3460   -6.9120   23.4450 C   0  0  0  0  0  3  0  0  0  0  0  0
  -21.2030   -6.0660   24.5630 C   0  0  0  0  0  3  0  0  0  0  0  0
  -21.5510   -4.7060   24.4660 C   0  0  0  0  0  0  0  0  0  0  0  0
  -22.0480   -4.1890   23.2560 C   0  0  0  0  0  3  0  0  0  0  0  0
  -22.1950   -5.0320   22.1410 C   0  0  0  0  0  0  0  0  0  0  0  0
  -22.6560   -4.5270   20.9700 F   0  0  0  0  0  0  0  0  0  0  0  0
  -21.4050   -3.8910   25.5390 F   0  0  0  0  0  0  0  0  0  0  0  0
  -22.9110  -13.8350   21.0680 C   0  0  0  0  0  0  0  0  0  0  0  0
  -22.1800  -13.1060   21.9020 N   0  0  0  0  0  0  0  0  0  0  0  0
  -22.4640  -14.8640   20.5640 O   0  0  0  0  0  0  0  0  0  0  0  0
  -22.5570  -12.2750   22.3330 H   0  0  0  0  0  0  0  0  0  0  0  0
  -21.2330  -13.3810   22.1150 H   0  0  0  0  0  0  0  0  0  0  0  0
  -25.5190  -15.5690   20.3700 N   0  0  0  0  0  0  0  0  0  0  0  0
  -24.7070  -16.1720   20.4370 H   0  0  0  0  0  0  0  0  0  0  0  0
  -26.3500  -16.0460   20.0550 H   0  0  0  0  0  0  0  0  0  0  0  0
  1 53  1  0
  1  3  2  0
  2  1  1  0
  4  2  1  0
  5  2  1  0
  5 10  1  0
  6 10  2  0
  6  8  1  0
  7  9  2  0
  8 11  2  0
 10  7  1  0
 11  9  1  0
 11 12  1  0
 13 24  2  0
 14 12  1  0
 14 19  1  0
 15 23  1  0
 15 25  1  0
 16 18  1  0
 17 23  1  0
 18 19  2  0
 18 17  1  0
 20 14  2  0
 21 20  1  0
 21 16  2  0
 22 16  1  0
 22 15  1  0
 23 13  1  0
 25 27  2  0
 26 25  1  0
 28 26  1  0
 29 38  2  0
 29 34  1  0
 30 26  1  0
 30 34  1  0
 31 30  1  0
 32 33  1  0
 32 31  1  0
 33 29  1  0
 34 35  2  0
 35 36  1  0
 37 36  2  0
 38 37  1  0
 39 13  1  0
 39 44  1  0
 39 40  1  0
 40 43  1  1
 40 41  1  0
 42 40  1  0
 44 47  1  0
 45 49  1  0
 45 44  1  0
 46 45  2  0
 49 48  1  0
 51 49  1  0
 51 52  1  0
 51 50  1  0
 53 58  1  0
 53 55  1  0
 55 54  1  0
 55 57  1  0
 57 56  1  0
 58 59  1  0
 60 63  1  0
 60 59  1  0
 63 62  1  6
 63 61  1  0
 63 64  1  0
 64 73  1  0
 65 73  1  0
 66 71  1  0
 67 68  1  0
 67 66  1  0
 69 68  1  0
 69 78  1  0
 69 70  1  0
 71 65  1  0
 71 70  1  0
 72 65  2  0
 73 74  1  0
 75 76  2  0
 76 95  1  0
 77 76  1  0
 77 80  1  0
 78 79  1  0
 78 75  1  0
 79 77  2  0
 80 81  1  0
 81 82  2  0
 83 86  1  0
 83 82  1  0
 84 83  2  0
 85 84  1  0
 85 80  2  0
 86 87  1  0
 87 88  1  0
 88 89  2  0
 90 89  1  0
 90 94  1  0
 91 90  2  0
 92 87  2  0
 92 91  1  0
 93 92  1  0
 95 96  1  0
 96 99  1  0
 96 98  1  0
 97 95  2  0
100101  1  0
100 75  1  0
102100  1  0
M  ISO  4  11 101  12 101  65 100  73 100
M  END
>  <TORSDO>  (29) 
F 26

>  <SCORE>  (29) 
-10.911

>  <name>  (29) 
30

>  <ligand_id>  (29) 
30

>  <original_smiles>  (29) 
[H]c1c([H])c([H])c2c(c1[H])C([H])([H])C([H])([H])C([H])([H])C2([H])N([H])C(=O)C1([H])N(C(=O)C([H])(N([H])C(=O)C([H])(N([H])C([H])([H])[H])C([H])([H])[H])C(C([H])([H])[H])(C([H])([H])[H])C([H])([H])[H])C([H])([H])c2c([H])c(Oc3c([H])c([H])c(C([H])([H])N([H])C(=O)C([H])(C([H])([H])C([H])([H])C([H])([H])C(C([H])([H])[H])(C([H])([H])[H])C([H])([H])N([H])C(=O)N4C([H])([H])C([H])([H])C([H])([H])C([H])(n5nc(-c6c([H])c([H])c(Oc7c([H])c([H])c(F)c([H])c7F)c([H])c6[H])c(C(=O)N([H])[H])c5N([H])[H])C4([H])[H])C([H])(C([H])([H])[H])C([H])([H])C([H])([H])[H])c([H])c3[H])c([H])c([H])c2C1([H])[H]

>  <smiles>  (29) 
[H]c1c([H])c([H])c2c(c1[H])C([H])([H])C([H])([H])C([H])([H])C2([H])N([H])C(=O)C1([H])N(C(=O)C([H])(N([H])C(=O)C([H])(N([H])C([H])([H])[H])C([H])([H])[H])C(C([H])([H])[H])(C([H])([H])[H])C([H])([H])[H])C([H])([H])c2c([H])c(Oc3c([H])c([H])c(C([H])([H])N([H])C(=O)C([H])(C([H])([H])C([H])([H])C([H])([H])C(C([H])([H])[H])(C([H])([H])[H])C([H])([H])N([H])C(=O)N4C([H])([H])C([H])([H])C([H])([H])C([H])(n5nc(-c6c([H])c([H])c(Oc7c([H])c([H])c(F)c([H])c7F)c([H])c6[H])c(C(=O)N([H])[H])c5N([H])[H])C4([H])[H])C([H])(C([H])([H])[H])C([H])([H])C([H])([H])[H])c([H])c3[H])c([H])c([H])c2C1([H])[H]

$$$$
31:0:0
     RDKit          3D

 90 97  0  0  1  0  0  0  0  0999 V2000
  -29.1610  -21.3700   20.1970 C   0  0  0  0  0  2  0  0  0  0  0  0
  -28.9430  -23.1860   22.1450 C   0  0  0  0  0  1  0  0  0  0  0  0
  -26.8880  -22.5080   20.9410 C   0  0  0  0  0  1  0  0  0  0  0  0
  -28.3760  -22.8770   20.7450 C   0  0  2  0  0  0  0  0  0  0  0  0
  -28.3500  -24.4620   19.9380 C   0  0  0  0  0  2  0  0  0  0  0  0
  -28.2700  -26.0200   20.3980 O   0  0  0  0  0  0  0  0  0  0  0  0
  -24.6400  -31.8930   23.1980 C   0  0  0  0  0  0  0  0  0  0  0  0
  -27.2370  -27.0610   20.2400 C   0  0  0  0  0  0  0  0  0  0  0  0
  -23.4650  -30.4820   21.5550 C   0  0  0  0  0  3  0  0  0  0  0  0
  -24.9330  -28.8960   20.1380 C   0  0  0  0  0  0  0  0  0  0  0  0
  -26.0220  -30.7350   21.4110 C   0  0  0  0  0  2  0  0  0  0  0  0
  -26.1040  -29.3210   20.7760 C   0  0  0  0  0  0  0  0  0  0  0  0
  -27.2470  -28.4170   20.8090 C   0  0  0  0  0  3  0  0  0  0  0  0
  -26.0430  -26.7730   19.5420 C   0  0  0  0  0  3  0  0  0  0  0  0
  -24.9250  -27.6460   19.5000 C   0  0  0  0  0  3  0  0  0  0  0  0
  -23.7030  -29.7970   20.1800 C   0  0  0  0  0  2  0  0  0  0  0  0
  -24.7310  -31.0640   22.1110 N   0  0  0  0  0  0  0  0  0  0  0  0
  -23.5450  -32.1700   23.7170 O   0  0  0  0  0  0  0  0  0  0  0  0
  -22.7800  -29.4810   22.5200 C   0  0  0  0  0  0  0  0  0  0  0  0
  -21.4480  -29.3200   22.4040 N   0  0  0  0  0  0  0  0  0  0  0  0
  -23.4500  -28.8510   23.3420 O   0  0  0  0  0  0  0  0  0  0  0  0
  -20.9570  -29.8780   21.7200 H   0  0  0  0  0  0  0  0  0  0  0  0
  -18.0640  -28.1300   22.9220 C   0  0  0  0  0  0  0  0  0  0  0  0
  -20.6270  -28.3830   23.1740 C   0  0  0  0  0  3  0  0  0  0  0  0
  -20.7210  -26.9540   22.5860 C   0  0  0  0  0  2  0  0  0  0  0  0
  -19.6100  -26.6450   21.5770 C   0  0  0  0  0  2  0  0  0  0  0  0
  -18.2330  -26.7890   22.2300 C   0  0  0  0  0  2  0  0  0  0  0  0
  -19.1870  -28.8870   23.3520 C   0  0  0  0  0  0  0  0  0  0  0  0
  -18.9730  -30.1450   23.9580 C   0  0  0  0  0  3  0  0  0  0  0  0
  -17.6690  -30.6430   24.1420 C   0  0  0  0  0  3  0  0  0  0  0  0
  -16.5620  -29.8830   23.7280 C   0  0  0  0  0  3  0  0  0  0  0  0
  -16.7600  -28.6300   23.1210 C   0  0  0  0  0  3  0  0  0  0  0  0
  -25.9020  -32.5450   23.8380 C   0  0  0  0  0  3  0  0  0  0  0  0
  -25.5810  -33.9470   24.1590 N   0  0  0  0  0  0  0  0  0  0  0  0
  -25.9260  -35.0020   23.4100 C   0  0  0  0  0  0  0  0  0  0  0  0
  -26.6120  -34.8990   22.3880 O   0  0  0  0  0  0  0  0  0  0  0  0
  -24.9680  -34.1020   24.9480 H   0  0  0  0  0  0  0  0  0  0  0  0
  -24.2060  -36.8020   23.0390 C   0  0  0  0  0  1  0  0  0  0  0  0
  -25.4360  -36.3920   23.8640 C   0  0  0  0  0  3  0  0  0  0  0  0
  -27.5580  -37.2780   24.7270 C   0  0  0  0  0  1  0  0  0  0  0  0
  -26.4720  -37.4440   23.7660 N   0  0  0  0  0  0  0  0  0  0  0  0
  -26.0610  -38.3630   23.9080 H   0  0  0  0  0  0  0  0  0  0  0  0
  -26.4020  -31.7900   25.1320 C   0  0  1  0  0  0  0  0  0  0  0  0
  -25.2920  -31.5610   26.1860 C   0  0  0  0  0  1  0  0  0  0  0  0
  -26.9880  -30.4100   24.7610 C   0  0  0  0  0  1  0  0  0  0  0  0
  -27.5500  -32.5860   25.7990 C   0  0  0  0  0  1  0  0  0  0  0  0
  -29.0150  -19.6280   20.6010 C   0  0  0  0  0  2  0  0  0  0  0  0
  -30.0850  -18.1890   20.4250 C   0  0  0  0  0  0  0  0  0  0  0  0
  -30.4620  -15.2800   20.2570 C   0  0  0  0  0  0  0  0  0  0  0  0
  -30.3870  -12.8740   19.3070 C   0  0  0  0  0  2  0  0  0  0  0  0
  -29.4590  -12.7250   18.0760 C   0  0  0  0  0  2  0  0  0  0  0  0
  -28.0010  -12.4790   18.5160 C   0  0  0  0  0  2  0  0  0  0  0  0
  -27.5730  -13.4090   19.6830 C   0  0  0  0  0  3  0  0  0  0  0  0
  -28.6330  -13.5050   20.7960 C   0  0  0  0  0  2  0  0  0  0  0  0
  -29.8630  -14.0000   20.1590 N   0  0  0  0  0  0  0  0  0  0  0  0
  -31.6880  -15.2520   20.0500 O   0  0  0  0  0  0  0  0  0  0  0  0
  -29.7350  -16.5600   20.3740 N   0  0  0  0  0  4  0  0  0  0  0  0
  -28.7400  -16.3850   20.4270 H   0  0  0  0  0  0  0  0  0  0  0  0
  -25.2060  -13.9490   20.4660 C   0  0  0  0  0  0  0  0  0  0  0  0
  -24.1510  -13.1700   20.8490 C   0  0  0  0  0  0  0  0  0  0  0  0
  -24.6240  -11.8200   20.8040 C   0  0  0  0  0  0  0  0  0  0  0  0
  -26.2510  -13.0830   20.2070 N   0  0  0  0  0  0  0  0  0  0  0  0
  -25.9140  -11.7950   20.4800 N   0  0  0  0  0  0  0  0  0  0  0  0
  -23.9030  -10.5540   21.0030 C   0  0  0  0  0  0  0  0  0  0  0  0
  -24.3400   -9.5940   21.9400 C   0  0  0  0  0  3  0  0  0  0  0  0
  -23.6180   -8.3950   22.1270 C   0  0  0  0  0  3  0  0  0  0  0  0
  -22.4460   -8.1520   21.3760 C   0  0  0  0  0  0  0  0  0  0  0  0
  -22.0280   -9.0980   20.4270 C   0  0  0  0  0  3  0  0  0  0  0  0
  -22.7500  -10.2890   20.2380 C   0  0  0  0  0  3  0  0  0  0  0  0
  -21.6960   -7.0050   21.4730 O   0  0  0  0  0  0  0  0  0  0  0  0
  -21.6430   -6.2680   22.6260 C   0  0  0  0  0  0  0  0  0  0  0  0
  -21.1980   -6.8260   23.8460 C   0  0  0  0  0  3  0  0  0  0  0  0
  -21.0920   -6.0180   24.9930 C   0  0  0  0  0  3  0  0  0  0  0  0
  -21.4230   -4.6520   24.9250 C   0  0  0  0  0  0  0  0  0  0  0  0
  -21.8610   -4.0930   23.7110 C   0  0  0  0  0  3  0  0  0  0  0  0
  -21.9680   -4.8980   22.5670 C   0  0  0  0  0  0  0  0  0  0  0  0
  -22.3690   -4.3490   21.3940 F   0  0  0  0  0  0  0  0  0  0  0  0
  -21.3170   -3.8730   26.0270 F   0  0  0  0  0  0  0  0  0  0  0  0
  -22.7540  -13.6420   21.1250 C   0  0  0  0  0  0  0  0  0  0  0  0
  -22.0250  -12.9450   21.9890 N   0  0  0  0  0  0  0  0  0  0  0  0
  -22.3120  -14.6670   20.6060 O   0  0  0  0  0  0  0  0  0  0  0  0
  -22.3930  -12.1220   22.4460 H   0  0  0  0  0  0  0  0  0  0  0  0
  -21.0830  -13.2440   22.2050 H   0  0  0  0  0  0  0  0  0  0  0  0
  -25.3510  -15.3220   20.2880 N   0  0  0  0  0  0  0  0  0  0  0  0
  -24.5680  -15.9560   20.4120 H   0  0  0  0  0  0  0  0  0  0  0  0
  -26.1700  -15.7770   19.9090 H   0  0  0  0  0  0  0  0  0  0  0  0
  -31.0410  -19.3510   18.2690 C   0  0  0  0  0  1  0  0  0  0  0  0
  -31.3300  -18.4950   19.5200 C   0  0  0  0  0  3  0  0  0  0  0  0
  -32.4720  -20.1780   21.2220 C   0  0  0  0  0  1  0  0  0  0  0  0
  -32.5980  -18.9350   20.3180 C   0  0  0  0  0  2  0  0  0  0  0  0
  1 47  1  0
  1  4  1  0
  4  3  1  1
  4  2  1  0
  5  6  1  0
  5  4  1  0
  7 18  2  0
  8  6  1  0
  8 13  1  0
  9 17  1  0
  9 19  1  0
 10 16  1  0
 10 12  1  0
 11 17  1  0
 12 13  2  0
 12 11  1  0
 14  8  2  0
 15 14  1  0
 15 10  2  0
 16  9  1  0
 17  7  1  0
 19 21  2  0
 20 19  1  0
 22 20  1  0
 23 32  2  0
 23 28  1  0
 24 20  1  0
 24 28  1  0
 25 24  1  0
 26 27  1  0
 26 25  1  0
 27 23  1  0
 28 29  2  0
 29 30  1  0
 31 30  2  0
 32 31  1  0
 33  7  1  0
 33 34  1  0
 33 43  1  0
 34 37  1  0
 35 39  1  0
 35 34  1  0
 36 35  2  0
 39 38  1  0
 41 39  1  0
 41 42  1  0
 41 40  1  0
 43 46  1  1
 43 44  1  0
 45 43  1  0
 48 47  1  0
 49 57  1  0
 50 55  1  0
 51 52  1  0
 51 50  1  0
 53 52  1  0
 53 62  1  0
 53 54  1  0
 55 49  1  0
 55 54  1  0
 56 49  2  0
 57 48  2  0
 57 58  1  0
 59 60  2  0
 60 79  1  0
 61 60  1  0
 61 64  1  0
 62 59  1  0
 62 63  1  0
 63 61  2  0
 64 65  1  0
 65 66  2  0
 67 70  1  0
 67 66  1  0
 68 67  2  0
 69 68  1  0
 69 64  2  0
 70 71  1  0
 71 72  1  0
 72 73  2  0
 74 73  1  0
 74 78  1  0
 75 74  2  0
 76 71  2  0
 76 75  1  0
 77 76  1  0
 79 80  1  0
 80 83  1  0
 80 82  1  0
 81 79  2  0
 84 85  1  0
 84 59  1  0
 86 84  1  0
 88 87  1  0
 88 90  1  0
 88 48  1  0
 90 89  1  0
M  ISO  4   5 101   6 101  49 100  57 100
M  END
>  <TORSDO>  (30) 
F 22

>  <SCORE>  (30) 
-14.861

>  <name>  (30) 
31

>  <ligand_id>  (30) 
31

>  <original_smiles>  (30) 
[H]c1c([H])c([H])c2c(c1[H])C([H])([H])C([H])([H])C([H])([H])C2([H])N([H])C(=O)C1([H])N(C(=O)C([H])(N([H])C(=O)C([H])(N([H])C([H])([H])[H])C([H])([H])[H])C(C([H])([H])[H])(C([H])([H])[H])C([H])([H])[H])C([H])([H])c2c([H])c(OC([H])([H])C(C([H])([H])[H])(C([H])([H])[H])C([H])([H])C([H])([H])C([H])(N([H])C(=O)N3C([H])([H])C([H])([H])C([H])([H])C([H])(n4nc(-c5c([H])c([H])c(Oc6c([H])c([H])c(F)c([H])c6F)c([H])c5[H])c(C(=O)N([H])[H])c4N([H])[H])C3([H])[H])C([H])(C([H])([H])[H])C([H])([H])C([H])([H])[H])c([H])c([H])c2C1([H])[H]

>  <smiles>  (30) 
[H]c1c([H])c([H])c2c(c1[H])C([H])([H])C([H])([H])C([H])([H])C2([H])N([H])C(=O)C1([H])N(C(=O)C([H])(N([H])C(=O)C([H])(N([H])C([H])([H])[H])C([H])([H])[H])C(C([H])([H])[H])(C([H])([H])[H])C([H])([H])[H])C([H])([H])c2c([H])c(OC([H])([H])C(C([H])([H])[H])(C([H])([H])[H])C([H])([H])C([H])([H])C([H])(N([H])C(=O)N3C([H])([H])C([H])([H])C([H])([H])C([H])(n4nc(-c5c([H])c([H])c(Oc6c([H])c([H])c(F)c([H])c6F)c([H])c5[H])c(C(=O)N([H])[H])c4N([H])[H])C3([H])[H])C([H])(C([H])([H])[H])C([H])([H])C([H])([H])[H])c([H])c([H])c2C1([H])[H]

$$$$
32:0:0
     RDKit          3D

 95102  0  0  1  0  0  0  0  0999 V2000
  -29.7270  -19.1730   18.9370 C   0  0  0  0  0  3  0  0  0  0  0  0
  -30.5700  -18.3500   20.0430 C   0  0  0  0  0  3  0  0  0  0  0  0
  -31.3270  -15.8310   20.2370 C   0  0  0  0  0  0  0  0  0  0  0  0
  -31.4250  -13.3510   20.0230 C   0  0  0  0  0  2  0  0  0  0  0  0
  -30.6430  -12.9190   18.7620 C   0  0  0  0  0  2  0  0  0  0  0  0
  -29.1370  -12.7700   19.0610 C   0  0  0  0  0  2  0  0  0  0  0  0
  -28.5600  -13.9760   19.8500 C   0  0  0  0  0  3  0  0  0  0  0  0
  -29.4650  -14.3340   21.0480 C   0  0  0  0  0  2  0  0  0  0  0  0
  -30.8110  -14.5980   20.5190 N   0  0  0  0  0  0  0  0  0  0  0  0
  -32.5110  -15.9990   19.9280 O   0  0  0  0  0  0  0  0  0  0  0  0
  -30.4190  -16.8450   20.0780 N   0  0  0  0  0  0  0  0  0  0  0  0
  -29.4670  -16.5390   20.2110 H   0  0  0  0  0  0  0  0  0  0  0  0
  -26.1640  -14.6760   20.4550 C   0  0  0  0  0  0  0  0  0  0  0  0
  -25.0440  -13.9470   20.7480 C   0  0  0  0  0  0  0  0  0  0  0  0
  -25.4440  -12.5750   20.7110 C   0  0  0  0  0  0  0  0  0  0  0  0
  -27.1770  -13.7510   20.2550 N   0  0  0  0  0  0  0  0  0  0  0  0
  -26.7450  -12.4820   20.4700 N   0  0  0  0  0  0  0  0  0  0  0  0
  -24.6510  -11.3450   20.8310 C   0  0  0  0  0  0  0  0  0  0  0  0
  -25.0190  -10.3140   21.7230 C   0  0  0  0  0  3  0  0  0  0  0  0
  -24.2310   -9.1490   21.8320 C   0  0  0  0  0  3  0  0  0  0  0  0
  -23.0600   -9.0070   21.0500 C   0  0  0  0  0  0  0  0  0  0  0  0
  -22.7120  -10.0260   20.1470 C   0  0  0  0  0  3  0  0  0  0  0  0
  -23.5000  -11.1830   20.0340 C   0  0  0  0  0  3  0  0  0  0  0  0
  -22.2470   -7.9000   21.0720 O   0  0  0  0  0  0  0  0  0  0  0  0
  -22.1260   -7.1180   22.1940 C   0  0  0  0  0  0  0  0  0  0  0  0
  -21.6300   -7.6330   23.4110 C   0  0  0  0  0  3  0  0  0  0  0  0
  -21.4570   -6.7780   24.5190 C   0  0  0  0  0  3  0  0  0  0  0  0
  -21.7700   -5.4100   24.4090 C   0  0  0  0  0  0  0  0  0  0  0  0
  -22.2590   -4.8950   23.1960 C   0  0  0  0  0  3  0  0  0  0  0  0
  -22.4330   -5.7470   22.0900 C   0  0  0  0  0  0  0  0  0  0  0  0
  -22.8850   -5.2400   20.9170 F   0  0  0  0  0  0  0  0  0  0  0  0
  -21.5970   -4.5880   25.4690 F   0  0  0  0  0  0  0  0  0  0  0  0
  -23.6560  -14.4830   20.9550 C   0  0  0  0  0  0  0  0  0  0  0  0
  -22.8610  -13.8230   21.7910 N   0  0  0  0  0  0  0  0  0  0  0  0
  -23.2860  -15.5230   20.4130 O   0  0  0  0  0  0  0  0  0  0  0  0
  -23.1710  -12.9810   22.2530 H   0  0  0  0  0  0  0  0  0  0  0  0
  -21.9280  -14.1660   21.9710 H   0  0  0  0  0  0  0  0  0  0  0  0
  -26.3990  -16.0400   20.3180 N   0  0  0  0  0  0  0  0  0  0  0  0
  -25.6520  -16.7230   20.3930 H   0  0  0  0  0  0  0  0  0  0  0  0
  -27.2740  -16.4490   20.0150 H   0  0  0  0  0  0  0  0  0  0  0  0
  -30.2800  -18.8780   21.4740 C   0  0  0  0  0  2  0  0  0  0  0  0
  -31.1730  -20.8140   22.8400 C   0  0  0  0  0  1  0  0  0  0  0  0
  -32.7960  -19.4260   21.4890 C   0  0  0  0  0  1  0  0  0  0  0  0
  -31.4830  -19.4120   22.2900 C   0  0  0  0  0  3  0  0  0  0  0  0
  -30.5350  -19.2720   17.6170 C   0  0  0  0  0  2  0  0  0  0  0  0
  -30.7780  -17.9720   16.9650 N   0  0  0  0  0  4  0  0  0  0  0  0
  -31.3680  -17.3790   17.5350 H   0  0  0  0  0  0  0  0  0  0  0  0
  -31.2410  -18.1170   16.0840 H   0  0  0  0  0  0  0  0  0  0  0  0
  -29.9090  -17.5030   16.7790 H   0  0  0  0  0  0  0  0  0  0  0  0
  -29.2060  -20.6450   19.3560 C   0  0  0  0  0  3  0  0  0  0  0  0
  -28.7450  -21.7310   18.2730 C   0  0  0  0  0  3  0  0  0  0  0  0
  -27.9790  -23.0430   18.7720 C   0  0  0  0  0  3  0  0  0  0  0  0
  -28.3890  -24.5020   18.2520 C   0  0  0  0  0  3  0  0  0  0  0  0
  -27.3180  -25.6620   18.4540 C   0  0  0  0  0  2  0  0  0  0  0  0
  -27.6970  -27.0960   18.5640 O   0  0  0  0  0  0  0  0  0  0  0  0
  -24.7970  -31.6250   23.3990 C   0  0  0  0  0  0  0  0  0  0  0  0
  -26.6720  -28.0030   18.8930 C   0  0  0  0  0  0  0  0  0  0  0  0
  -23.3220  -30.8540   21.5780 C   0  0  0  0  0  3  0  0  0  0  0  0
  -24.4820  -29.7060   19.6160 C   0  0  0  0  0  0  0  0  0  0  0  0
  -25.8560  -31.0460   21.2030 C   0  0  0  0  0  2  0  0  0  0  0  0
  -25.7440  -29.9180   20.1860 C   0  0  0  0  0  0  0  0  0  0  0  0
  -26.8430  -29.0840   19.8160 C   0  0  0  0  0  3  0  0  0  0  0  0
  -25.3840  -27.8540   18.3240 C   0  0  0  0  0  3  0  0  0  0  0  0
  -24.3050  -28.6790   18.6800 C   0  0  0  0  0  3  0  0  0  0  0  0
  -23.3440  -30.6060   20.0490 C   0  0  0  0  0  2  0  0  0  0  0  0
  -24.6850  -31.1740   22.1170 N   0  0  0  0  0  0  0  0  0  0  0  0
  -23.7970  -31.7990   24.1110 O   0  0  0  0  0  0  0  0  0  0  0  0
  -22.6570  -29.6410   22.2740 C   0  0  0  0  0  0  0  0  0  0  0  0
  -21.3160  -29.5660   22.2060 N   0  0  0  0  0  0  0  0  0  0  0  0
  -23.3420  -28.7820   22.8350 O   0  0  0  0  0  0  0  0  0  0  0  0
  -20.8230  -30.3140   21.7390 H   0  0  0  0  0  0  0  0  0  0  0  0
  -17.9030  -28.4400   22.6240 C   0  0  0  0  0  0  0  0  0  0  0  0
  -20.4850  -28.4930   22.7550 C   0  0  0  0  0  3  0  0  0  0  0  0
  -20.4560  -27.2700   21.8100 C   0  0  0  0  0  2  0  0  0  0  0  0
  -19.2740  -27.2890   20.8350 C   0  0  0  0  0  2  0  0  0  0  0  0
  -17.9470  -27.3190   21.5990 C   0  0  0  0  0  2  0  0  0  0  0  0
  -19.0950  -29.0010   23.1550 C   0  0  0  0  0  0  0  0  0  0  0  0
  -19.0000  -30.0640   24.0810 C   0  0  0  0  0  3  0  0  0  0  0  0
  -17.7450  -30.5620   24.4780 C   0  0  0  0  0  3  0  0  0  0  0  0
  -16.5680  -29.9920   23.9600 C   0  0  0  0  0  3  0  0  0  0  0  0
  -16.6480  -28.9320   23.0410 C   0  0  0  0  0  3  0  0  0  0  0  0
  -26.1830  -31.9620   24.0280 C   0  0  0  0  0  3  0  0  0  0  0  0
  -26.6930  -30.8580   25.0350 C   0  0  1  0  0  0  0  0  0  0  0  0
  -25.6540  -30.4760   26.1150 C   0  0  0  0  0  1  0  0  0  0  0  0
  -27.0890  -29.5700   24.2780 C   0  0  0  0  0  1  0  0  0  0  0  0
  -27.9660  -31.3600   25.7560 C   0  0  0  0  0  1  0  0  0  0  0  0
  -26.0560  -33.2590   24.7070 N   0  0  0  0  0  0  0  0  0  0  0  0
  -26.5280  -34.4190   24.2310 C   0  0  0  0  0  0  0  0  0  0  0  0
  -27.1850  -34.4950   23.1880 O   0  0  0  0  0  0  0  0  0  0  0  0
  -25.4820  -33.2800   25.5370 H   0  0  0  0  0  0  0  0  0  0  0  0
  -25.1120  -36.4970   24.3420 C   0  0  0  0  0  1  0  0  0  0  0  0
  -26.2240  -35.6960   25.0390 C   0  0  0  0  0  3  0  0  0  0  0  0
  -28.3980  -35.9820   26.1420 C   0  0  0  0  0  1  0  0  0  0  0  0
  -27.4070  -36.5610   25.2400 N   0  0  0  0  0  0  0  0  0  0  0  0
  -27.1310  -37.4660   25.6080 H   0  0  0  0  0  0  0  0  0  0  0  0
  1 45  1  0
  1 50  1  0
  1  2  1  0
  2 11  1  0
  2 41  1  0
  3  9  1  0
  4  9  1  0
  5  6  1  0
  5  4  1  0
  7  6  1  0
  7 16  1  0
  7  8  1  0
  9  8  1  0
 10  3  2  0
 11 12  1  0
 11  3  1  0
 13 14  2  0
 14 33  1  0
 15 14  1  0
 15 18  1  0
 16 13  1  0
 16 17  1  0
 17 15  2  0
 18 19  1  0
 19 20  2  0
 21 24  1  0
 21 20  1  0
 22 21  2  0
 23 22  1  0
 23 18  2  0
 24 25  1  0
 25 26  1  0
 26 27  2  0
 28 27  1  0
 28 32  1  0
 29 28  2  0
 30 25  2  0
 30 29  1  0
 31 30  1  0
 33 34  1  0
 34 37  1  0
 34 36  1  0
 35 33  2  0
 38 39  1  0
 38 13  1  0
 40 38  1  0
 41 44  1  0
 43 44  1  0
 44 42  1  0
 46 47  1  0
 46 45  1  0
 48 46  1  0
 49 46  1  0
 51 52  1  0
 51 50  2  0
 53 54  1  0
 53 52  2  0
 54 55  1  0
 55 57  1  0
 56 67  2  0
 57 62  1  0
 58 66  1  0
 58 68  1  0
 59 65  1  0
 59 61  1  0
 60 66  1  0
 61 60  1  0
 62 61  2  0
 63 64  1  0
 63 57  2  0
 64 59  2  0
 65 58  1  0
 66 56  1  0
 68 70  2  0
 69 68  1  0
 71 69  1  0
 72 81  2  0
 72 77  1  0
 73 69  1  0
 73 77  1  0
 74 73  1  0
 75 76  1  0
 75 74  1  0
 76 72  1  0
 77 78  2  0
 78 79  1  0
 80 79  2  0
 81 80  1  0
 82 56  1  0
 82 87  1  0
 82 83  1  0
 83 86  1  1
 83 84  1  0
 85 83  1  0
 87 90  1  0
 88 87  1  0
 88 92  1  0
 89 88  2  0
 92 91  1  0
 92 94  1  0
 94 95  1  0
 94 93  1  0
M  ISO  4   3 100  11 100  54 101  55 101
M  END
>  <TORSDO>  (31) 
F 26

>  <SCORE>  (31) 
-9.012

>  <name>  (31) 
32

>  <ligand_id>  (31) 
32

>  <original_smiles>  (31) 
[H]c1c([H])c([H])c2c(c1[H])C([H])([H])C([H])([H])C([H])([H])C2([H])N([H])C(=O)C1([H])N(C(=O)C([H])(N([H])C(=O)C([H])(N([H])C([H])([H])[H])C([H])([H])[H])C(C([H])([H])[H])(C([H])([H])[H])C([H])([H])[H])C([H])([H])c2c([H])c(OC([H])([H])C([H])([H])C([H])([H])C([H])([H])C([H])([H])C([H])(C([H])(N([H])C(=O)N3C([H])([H])C([H])([H])C([H])([H])C([H])(n4nc(-c5c([H])c([H])c(Oc6c([H])c([H])c(F)c([H])c6F)c([H])c5[H])c(C(=O)N([H])[H])c4N([H])[H])C3([H])[H])C([H])([H])C([H])(C([H])([H])[H])C([H])([H])[H])C([H])([H])[N+]([H])([H])[H])c([H])c([H])c2C1([H])[H]

>  <smiles>  (31) 
[H]c1c([H])c([H])c2c(c1[H])C([H])([H])C([H])([H])C([H])([H])C2([H])N([H])C(=O)C1([H])N(C(=O)C([H])(N([H])C(=O)C([H])(N([H])C([H])([H])[H])C([H])([H])[H])C(C([H])([H])[H])(C([H])([H])[H])C([H])([H])[H])C([H])([H])c2c([H])c(OC([H])([H])C([H])([H])C([H])([H])C([H])([H])C([H])([H])C([H])(C([H])(N([H])C(=O)N3C([H])([H])C([H])([H])C([H])([H])C([H])(n4nc(-c5c([H])c([H])c(Oc6c([H])c([H])c(F)c([H])c6F)c([H])c5[H])c(C(=O)N([H])[H])c4N([H])[H])C3([H])[H])C([H])([H])C([H])(C([H])([H])[H])C([H])([H])[H])C([H])([H])[N+]([H])([H])[H])c([H])c([H])c2C1([H])[H]

$$$$
33:0:0
     RDKit          3D

 99107  0  0  1  0  0  0  0  0999 V2000
  -30.0780  -19.4930   19.1020 C   0  0  0  0  0  3  0  0  0  0  0  0
  -31.2890  -18.5520   19.2730 C   0  0  0  0  0  0  0  0  0  0  0  0
  -31.5650  -17.7570   18.3680 O   0  0  0  0  0  0  0  0  0  0  0  0
  -33.6200  -18.1820   20.1250 C   0  0  0  0  0  1  0  0  0  0  0  0
  -31.6640  -17.7430   21.6720 C   0  0  0  0  0  1  0  0  0  0  0  0
  -32.1950  -18.6480   20.5320 C   0  0  2  0  0  0  0  0  0  0  0  0
  -32.0590  -20.3270   22.5380 C   0  0  0  0  0  1  0  0  0  0  0  0
  -32.2490  -20.1210   21.0220 C   0  0  0  0  0  2  0  0  0  0  0  0
  -30.4990  -20.4530   17.7180 C   0  0  0  0  0  2  0  0  0  0  0  0
  -29.7090  -23.9070   19.1110 C   0  0  0  0  0  3  0  0  0  0  0  0
  -30.1640  -24.8910   18.2370 C   0  0  0  0  0  3  0  0  0  0  0  0
  -29.9110  -22.5570   18.8030 C   0  0  0  0  0  3  0  0  0  0  0  0
  -30.8170  -24.5180   17.0510 C   0  0  0  0  0  3  0  0  0  0  0  0
  -30.5810  -22.0940   17.6430 C   0  0  0  0  0  0  0  0  0  0  0  0
  -31.0700  -23.1770   16.6580 C   0  0  0  0  0  0  0  0  0  0  0  0
  -31.9050  -23.2530   15.2340 C   0  0  0  0  0  2  0  0  0  0  0  0
  -32.0200  -24.5780   14.3800 O   0  0  0  0  0  0  0  0  0  0  0  0
  -35.0980  -27.8520    8.4930 C   0  0  0  0  0  0  0  0  0  0  0  0
  -33.1820  -25.0160   13.6330 C   0  0  0  0  0  0  0  0  0  0  0  0
  -36.5280  -26.3670    9.8460 C   0  0  0  0  0  3  0  0  0  0  0  0
  -35.6060  -25.7010   12.1560 C   0  0  0  0  0  0  0  0  0  0  0  0
  -34.5720  -27.6230   10.9520 C   0  0  0  0  0  2  0  0  0  0  0  0
  -34.4550  -26.4810   11.9810 C   0  0  0  0  0  0  0  0  0  0  0  0
  -33.2620  -26.1600   12.7370 C   0  0  0  0  0  3  0  0  0  0  0  0
  -34.4000  -24.3180   13.7930 C   0  0  0  0  0  3  0  0  0  0  0  0
  -35.5790  -24.6400   13.0770 C   0  0  0  0  0  3  0  0  0  0  0  0
  -36.8400  -26.0360   11.3320 C   0  0  0  0  0  2  0  0  0  0  0  0
  -35.3610  -27.3000    9.7170 N   0  0  0  0  0  0  0  0  0  0  0  0
  -35.8110  -27.6120    7.5060 O   0  0  0  0  0  0  0  0  0  0  0  0
  -36.3480  -25.0460    9.0570 C   0  0  0  0  0  0  0  0  0  0  0  0
  -37.4150  -24.5870    8.3760 N   0  0  0  0  0  0  0  0  0  0  0  0
  -35.2720  -24.4430    9.0870 O   0  0  0  0  0  0  0  0  0  0  0  0
  -38.2610  -25.1370    8.3970 H   0  0  0  0  0  0  0  0  0  0  0  0
  -39.3810  -22.6970    5.9870 C   0  0  0  0  0  0  0  0  0  0  0  0
  -37.4750  -23.3340    7.6170 C   0  0  0  0  0  3  0  0  0  0  0  0
  -37.9860  -22.1740    8.5030 C   0  0  0  0  0  2  0  0  0  0  0  0
  -39.4990  -21.9620    8.4050 C   0  0  0  0  0  2  0  0  0  0  0  0
  -39.9110  -21.6610    6.9620 C   0  0  0  0  0  2  0  0  0  0  0  0
  -38.2480  -23.4950    6.3010 C   0  0  0  0  0  0  0  0  0  0  0  0
  -37.8180  -24.4670    5.3720 C   0  0  0  0  0  3  0  0  0  0  0  0
  -38.4980  -24.6480    4.1530 C   0  0  0  0  0  3  0  0  0  0  0  0
  -39.6090  -23.8450    3.8410 C   0  0  0  0  0  3  0  0  0  0  0  0
  -40.0450  -22.8700    4.7550 C   0  0  0  0  0  3  0  0  0  0  0  0
  -33.8990  -28.8260    8.2750 C   0  0  0  0  0  3  0  0  0  0  0  0
  -32.6800  -28.1520    7.5300 C   0  0  1  0  0  0  0  0  0  0  0  0
  -32.7800  -28.2180    5.9870 C   0  0  0  0  0  1  0  0  0  0  0  0
  -32.5490  -26.6640    7.9270 C   0  0  0  0  0  1  0  0  0  0  0  0
  -31.3600  -28.8360    7.9590 C   0  0  0  0  0  1  0  0  0  0  0  0
  -34.3890  -29.9800    7.5070 N   0  0  0  0  0  0  0  0  0  0  0  0
  -34.7350  -31.1610    8.0380 C   0  0  0  0  0  0  0  0  0  0  0  0
  -34.6110  -31.4130    9.2410 O   0  0  0  0  0  0  0  0  0  0  0  0
  -34.5720  -29.8290    6.5260 H   0  0  0  0  0  0  0  0  0  0  0  0
  -36.7790  -32.4990    7.4410 C   0  0  0  0  0  1  0  0  0  0  0  0
  -35.3070  -32.2330    7.0900 C   0  0  0  0  0  3  0  0  0  0  0  0
  -33.2960  -33.4440    6.3700 C   0  0  0  0  0  1  0  0  0  0  0  0
  -34.5520  -33.5060    7.1110 N   0  0  0  0  0  0  0  0  0  0  0  0
  -35.1100  -34.2640    6.7300 H   0  0  0  0  0  0  0  0  0  0  0  0
  -28.6890  -18.5090   19.4080 C   0  0  0  0  0  3  0  0  0  0  0  0
  -27.6810  -15.8680   19.3300 C   0  0  0  0  0  0  0  0  0  0  0  0
  -26.9260  -13.5440   20.0670 C   0  0  0  0  0  2  0  0  0  0  0  0
  -27.2490  -13.2630   21.5530 C   0  0  0  0  0  2  0  0  0  0  0  0
  -28.6700  -12.6930   21.7010 C   0  0  0  0  0  2  0  0  0  0  0  0
  -29.7110  -13.4790   20.8590 C   0  0  0  0  0  3  0  0  0  0  0  0
  -29.2190  -13.7860   19.4230 C   0  0  0  0  0  2  0  0  0  0  0  0
  -27.9410  -14.5060   19.5340 N   0  0  0  0  0  0  0  0  0  0  0  0
  -26.4920  -16.1710   19.1870 O   0  0  0  0  0  0  0  0  0  0  0  0
  -28.6780  -16.8940   19.4660 N   0  0  0  0  0  0  0  0  0  0  0  0
  -29.5950  -16.4900   19.5970 H   0  0  0  0  0  0  0  0  0  0  0  0
  -32.2390  -13.3810   20.4990 C   0  0  0  0  0  0  0  0  0  0  0  0
  -33.1860  -12.4420   20.7960 C   0  0  0  0  0  0  0  0  0  0  0  0
  -32.4810  -11.3420   21.3700 C   0  0  0  0  0  0  0  0  0  0  0  0
  -31.0250  -12.8430   20.8850 N   0  0  0  0  0  0  0  0  0  0  0  0
  -31.1720  -11.5780   21.3580 N   0  0  0  0  0  0  0  0  0  0  0  0
  -32.9850  -10.1070   21.9790 C   0  0  0  0  0  0  0  0  0  0  0  0
  -33.0030   -8.8860   21.2660 C   0  0  0  0  0  3  0  0  0  0  0  0
  -33.5140   -7.7110   21.8620 C   0  0  0  0  0  3  0  0  0  0  0  0
  -34.0190   -7.7490   23.1810 C   0  0  0  0  0  0  0  0  0  0  0  0
  -33.9830   -8.9600   23.8960 C   0  0  0  0  0  3  0  0  0  0  0  0
  -33.4690  -10.1270   23.3060 C   0  0  0  0  0  3  0  0  0  0  0  0
  -34.5150   -6.6550   23.8500 O   0  0  0  0  0  0  0  0  0  0  0  0
  -35.4000   -5.7880   23.2580 C   0  0  0  0  0  0  0  0  0  0  0  0
  -36.7930   -6.0120   23.2900 C   0  0  0  0  0  3  0  0  0  0  0  0
  -37.6720   -5.0650   22.7320 C   0  0  0  0  0  3  0  0  0  0  0  0
  -37.1610   -3.8860   22.1530 C   0  0  0  0  0  0  0  0  0  0  0  0
  -35.7730   -3.6580   22.1230 C   0  0  0  0  0  3  0  0  0  0  0  0
  -34.8980   -4.6060   22.6790 C   0  0  0  0  0  0  0  0  0  0  0  0
  -33.5630   -4.3730   22.6650 F   0  0  0  0  0  0  0  0  0  0  0  0
  -38.0050   -2.9700   21.6260 F   0  0  0  0  0  0  0  0  0  0  0  0
  -34.6710  -12.6020   20.6450 C   0  0  0  0  0  0  0  0  0  0  0  0
  -35.3130  -11.6970   19.9170 N   0  0  0  0  0  0  0  0  0  0  0  0
  -35.2640  -13.5640   21.1320 O   0  0  0  0  0  0  0  0  0  0  0  0
  -34.8260  -10.9130   19.5040 H   0  0  0  0  0  0  0  0  0  0  0  0
  -36.3090  -11.7820   19.7790 H   0  0  0  0  0  0  0  0  0  0  0  0
  -32.3090  -14.6490   19.9480 N   0  0  0  0  0  0  0  0  0  0  0  0
  -33.1790  -15.0340   19.6050 H   0  0  0  0  0  0  0  0  0  0  0  0
  -31.5030  -15.1820   19.6620 H   0  0  0  0  0  0  0  0  0  0  0  0
  -27.5090  -18.9870   18.5040 C   0  0  0  0  0  2  0  0  0  0  0  0
  -26.2250  -21.0930   17.7600 C   0  0  0  0  0  1  0  0  0  0  0  0
  -26.9390  -20.3640   18.9030 C   0  0  0  0  0  2  0  0  0  0  0  0
  1  9  1  0
  1  2  1  0
  1 58  1  0
  2  6  1  0
  3  2  2  0
  6  4  1  6
  6  8  1  0
  6  5  1  0
  8  7  1  0
 11 10  2  0
 12 10  1  0
 13 11  1  0
 14  9  1  0
 14 12  2  0
 15 13  2  0
 15 14  1  0
 16 15  1  0
 17 16  1  0
 18 28  1  0
 19 25  1  0
 19 17  1  0
 20 30  1  0
 20 27  1  0
 21 26  1  0
 22 23  1  0
 23 21  2  0
 23 24  1  0
 24 19  2  0
 26 25  2  0
 27 21  1  0
 28 20  1  0
 28 22  1  0
 29 18  2  0
 30 32  2  0
 31 33  1  0
 31 30  1  0
 34 39  1  0
 34 38  1  0
 35 31  1  0
 35 36  1  0
 37 36  1  0
 38 37  1  0
 39 35  1  0
 40 39  2  0
 41 40  1  0
 42 41  2  0
 42 43  1  0
 43 34  2  0
 44 18  1  0
 45 47  1  6
 45 48  1  0
 45 44  1  0
 46 45  1  0
 49 50  1  0
 49 44  1  0
 50 51  2  0
 52 49  1  0
 54 56  1  0
 54 53  1  0
 54 50  1  0
 55 56  1  0
 57 56  1  0
 58 97  1  0
 58 67  1  0
 59 67  1  0
 59 65  1  0
 60 61  1  0
 61 62  1  0
 63 64  1  0
 63 72  1  0
 63 62  1  0
 64 65  1  0
 65 60  1  0
 66 59  2  0
 67 68  1  0
 69 70  2  0
 69 72  1  0
 70 71  1  0
 71 74  1  0
 72 73  1  0
 73 71  2  0
 74 79  1  0
 75 76  1  0
 75 74  2  0
 76 77  2  0
 77 80  1  0
 77 78  1  0
 79 78  2  0
 81 82  1  0
 81 80  1  0
 83 82  2  0
 84 83  1  0
 85 84  2  0
 85 86  1  0
 86 81  2  0
 87 86  1  0
 88 84  1  0
 89 70  1  0
 89 91  2  0
 90 89  1  0
 92 90  1  0
 93 90  1  0
 94 69  1  0
 95 94  1  0
 96 94  1  0
 97 99  1  0
 98 99  1  0
M  ISO  4  16 101  17 101  59 100  67 100
M  END
>  <TORSDO>  (32) 
F 25

>  <SCORE>  (32) 
-4.586

>  <name>  (32) 
33

>  <ligand_id>  (32) 
33

>  <original_smiles>  (32) 
[H]c1c([H])c([H])c(C([H])([H])C([H])(C(=O)C(C([H])([H])[H])(C([H])([H])[H])C([H])([H])C([H])([H])[H])C([H])(N([H])C(=O)N2C([H])([H])C([H])([H])C([H])([H])C([H])(n3nc(-c4c([H])c([H])c(Oc5c([H])c([H])c(F)c([H])c5F)c([H])c4[H])c(C(=O)N([H])[H])c3N([H])[H])C2([H])[H])C([H])([H])C([H])([H])C([H])([H])[H])c(C([H])([H])Oc2c([H])c([H])c3c(c2[H])C([H])([H])N(C(=O)C([H])(N([H])C(=O)C([H])(N([H])C([H])([H])[H])C([H])([H])[H])C(C([H])([H])[H])(C([H])([H])[H])C([H])([H])[H])C([H])(C(=O)N([H])C2([H])c4c([H])c([H])c([H])c([H])c4C([H])([H])C([H])([H])C2([H])[H])C3([H])[H])c1[H]

>  <smiles>  (32) 
[H]c1c([H])c([H])c(C([H])([H])C([H])(C(=O)C(C([H])([H])[H])(C([H])([H])[H])C([H])([H])C([H])([H])[H])C([H])(N([H])C(=O)N2C([H])([H])C([H])([H])C([H])([H])C([H])(n3nc(-c4c([H])c([H])c(Oc5c([H])c([H])c(F)c([H])c5F)c([H])c4[H])c(C(=O)N([H])[H])c3N([H])[H])C2([H])[H])C([H])([H])C([H])([H])C([H])([H])[H])c(C([H])([H])Oc2c([H])c([H])c3c(c2[H])C([H])([H])N(C(=O)C([H])(N([H])C(=O)C([H])(N([H])C([H])([H])[H])C([H])([H])[H])C(C([H])([H])[H])(C([H])([H])[H])C([H])([H])[H])C([H])(C(=O)N([H])C2([H])c4c([H])c([H])c([H])c([H])c4C([H])([H])C([H])([H])C2([H])[H])C3([H])[H])c1[H]

$$$$
34:0:0
     RDKit          3D

 91 99  0  0  1  0  0  0  0  0999 V2000
  -29.3310  -22.9050   19.5540 C   0  0  0  0  0  3  0  0  0  0  0  0
  -29.7670  -19.9960   19.1370 C   0  0  0  0  0  0  0  0  0  0  0  0
  -29.0260  -21.2600   19.4270 N   0  0  0  0  0  0  0  0  0  0  0  0
  -30.9190  -20.1180   18.7180 O   0  0  0  0  0  0  0  0  0  0  0  0
  -28.0740  -21.0560   19.7030 H   0  0  0  0  0  0  0  0  0  0  0  0
  -30.5810  -15.5130   19.5230 C   0  0  0  0  0  0  0  0  0  0  0  0
  -30.7470  -12.9980   18.7640 C   0  0  0  0  0  2  0  0  0  0  0  0
  -29.7500  -12.6280   17.6250 C   0  0  0  0  0  2  0  0  0  0  0  0
  -28.3420  -12.3030   18.1690 C   0  0  0  0  0  2  0  0  0  0  0  0
  -27.9290  -13.2850   19.2910 C   0  0  0  0  0  3  0  0  0  0  0  0
  -29.0690  -13.4280   20.3300 C   0  0  0  0  0  2  0  0  0  0  0  0
  -30.1740  -14.1220   19.6150 N   0  0  0  0  0  0  0  0  0  0  0  0
  -31.7230  -15.5980   19.0430 O   0  0  0  0  0  0  0  0  0  0  0  0
  -27.7530  -17.5270   21.1470 C   0  0  0  0  0  2  0  0  0  0  0  0
  -28.3490  -18.7450   20.5640 C   0  0  0  0  0  2  0  0  0  0  0  0
  -28.7530  -16.4210   20.8740 C   0  0  0  0  0  2  0  0  0  0  0  0
  -29.2410  -18.3390   19.3700 C   0  0  0  0  0  3  0  0  0  0  0  0
  -29.7310  -16.7430   19.8110 N   0  0  0  0  0  0  0  0  0  0  0  0
  -25.6090  -13.8220   20.2220 C   0  0  0  0  0  0  0  0  0  0  0  0
  -24.5870  -13.0390   20.6760 C   0  0  0  0  0  0  0  0  0  0  0  0
  -25.0480  -11.6930   20.5630 C   0  0  0  0  0  0  0  0  0  0  0  0
  -26.6390  -12.9580   19.8850 N   0  0  0  0  0  0  0  0  0  0  0  0
  -26.3120  -11.6670   20.1460 N   0  0  0  0  0  0  0  0  0  0  0  0
  -24.3350  -10.4290   20.7780 C   0  0  0  0  0  0  0  0  0  0  0  0
  -24.7520   -9.5030   21.7580 C   0  0  0  0  0  3  0  0  0  0  0  0
  -24.0390   -8.3020   21.9570 C   0  0  0  0  0  3  0  0  0  0  0  0
  -22.8950   -8.0200   21.1760 C   0  0  0  0  0  0  0  0  0  0  0  0
  -22.4960   -8.9350   20.1850 C   0  0  0  0  0  3  0  0  0  0  0  0
  -23.2100  -10.1270   19.9850 C   0  0  0  0  0  3  0  0  0  0  0  0
  -22.1540   -6.8670   21.2840 O   0  0  0  0  0  0  0  0  0  0  0  0
  -21.9380   -6.2610   22.4940 C   0  0  0  0  0  0  0  0  0  0  0  0
  -21.3180   -6.9410   23.5650 C   0  0  0  0  0  3  0  0  0  0  0  0
  -21.0520   -6.2600   24.7710 C   0  0  0  0  0  3  0  0  0  0  0  0
  -21.3920   -4.9000   24.9030 C   0  0  0  0  0  0  0  0  0  0  0  0
  -22.0030   -4.2200   23.8340 C   0  0  0  0  0  3  0  0  0  0  0  0
  -22.2720   -4.8980   22.6320 C   0  0  0  0  0  0  0  0  0  0  0  0
  -22.8430   -4.2320   21.5990 F   0  0  0  0  0  0  0  0  0  0  0  0
  -21.1290   -4.2450   26.0580 F   0  0  0  0  0  0  0  0  0  0  0  0
  -23.2200  -13.5150   21.0750 C   0  0  0  0  0  0  0  0  0  0  0  0
  -22.5700  -12.8150   21.9970 N   0  0  0  0  0  0  0  0  0  0  0  0
  -22.7380  -14.5450   20.6060 O   0  0  0  0  0  0  0  0  0  0  0  0
  -22.9760  -11.9820   22.3990 H   0  0  0  0  0  0  0  0  0  0  0  0
  -21.6560  -13.1150   22.3020 H   0  0  0  0  0  0  0  0  0  0  0  0
  -25.7200  -15.1930   20.0300 N   0  0  0  0  0  0  0  0  0  0  0  0
  -24.9150  -15.7940   20.1640 H   0  0  0  0  0  0  0  0  0  0  0  0
  -26.4700  -15.6370   19.5180 H   0  0  0  0  0  0  0  0  0  0  0  0
  -29.4200  -22.6560   22.0860 C   0  0  0  0  0  1  0  0  0  0  0  0
  -30.9480  -24.3580   20.9770 C   0  0  0  0  0  1  0  0  0  0  0  0
  -30.2210  -23.0100   20.8210 C   0  0  0  0  0  3  0  0  0  0  0  0
  -28.2310  -24.3480   19.5530 C   0  0  0  0  0  2  0  0  0  0  0  0
  -28.4450  -25.9730   19.7780 O   0  0  0  0  0  0  0  0  0  0  0  0
  -24.9820  -31.6760   23.3280 C   0  0  0  0  0  0  0  0  0  0  0  0
  -27.4250  -27.0600   19.8410 C   0  0  0  0  0  0  0  0  0  0  0  0
  -23.7420  -30.4580   21.5860 C   0  0  0  0  0  3  0  0  0  0  0  0
  -25.1430  -28.9620   20.0040 C   0  0  0  0  0  0  0  0  0  0  0  0
  -26.3110  -30.6370   21.4230 C   0  0  0  0  0  2  0  0  0  0  0  0
  -26.3460  -29.2930   20.6410 C   0  0  0  0  0  0  0  0  0  0  0  0
  -27.4780  -28.3690   20.5340 C   0  0  0  0  0  3  0  0  0  0  0  0
  -26.1870  -26.8750   19.1850 C   0  0  0  0  0  3  0  0  0  0  0  0
  -25.0890  -27.7710   19.2580 C   0  0  0  0  0  3  0  0  0  0  0  0
  -23.9420  -29.8970   20.1510 C   0  0  0  0  0  2  0  0  0  0  0  0
  -25.0350  -30.9460   22.1670 N   0  0  0  0  0  0  0  0  0  0  0  0
  -23.9040  -31.9350   23.8870 O   0  0  0  0  0  0  0  0  0  0  0  0
  -23.0380  -29.3940   22.4680 C   0  0  0  0  0  0  0  0  0  0  0  0
  -21.7100  -29.2370   22.3150 N   0  0  0  0  0  0  0  0  0  0  0  0
  -23.6950  -28.7100   23.2560 O   0  0  0  0  0  0  0  0  0  0  0  0
  -21.2320  -29.8360   21.6560 H   0  0  0  0  0  0  0  0  0  0  0  0
  -18.3200  -28.0080   22.7120 C   0  0  0  0  0  0  0  0  0  0  0  0
  -20.8810  -28.2440   23.0040 C   0  0  0  0  0  3  0  0  0  0  0  0
  -20.9830  -26.8640   22.3130 C   0  0  0  0  0  2  0  0  0  0  0  0
  -19.8830  -26.6300   21.2740 C   0  0  0  0  0  2  0  0  0  0  0  0
  -18.4990  -26.7230   21.9210 C   0  0  0  0  0  2  0  0  0  0  0  0
  -19.4400  -28.7310   23.2050 C   0  0  0  0  0  0  0  0  0  0  0  0
  -19.2190  -29.9380   23.9050 C   0  0  0  0  0  3  0  0  0  0  0  0
  -17.9130  -30.4210   24.1130 C   0  0  0  0  0  3  0  0  0  0  0  0
  -16.8090  -29.6950   23.6320 C   0  0  0  0  0  3  0  0  0  0  0  0
  -17.0150  -28.4890   22.9370 C   0  0  0  0  0  3  0  0  0  0  0  0
  -26.2720  -32.2320   24.0030 C   0  0  0  0  0  3  0  0  0  0  0  0
  -26.7330  -31.3820   25.2520 C   0  0  1  0  0  0  0  0  0  0  0  0
  -25.6100  -31.1390   26.2870 C   0  0  0  0  0  1  0  0  0  0  0  0
  -27.2720  -30.0020   24.8110 C   0  0  0  0  0  1  0  0  0  0  0  0
  -27.9040  -32.0960   25.9670 C   0  0  0  0  0  1  0  0  0  0  0  0
  -26.0100  -33.6250   24.4090 N   0  0  0  0  0  0  0  0  0  0  0  0
  -26.3470  -34.7080   23.6960 C   0  0  0  0  0  0  0  0  0  0  0  0
  -26.9740  -34.6370   22.6360 O   0  0  0  0  0  0  0  0  0  0  0  0
  -25.4550  -33.7550   25.2410 H   0  0  0  0  0  0  0  0  0  0  0  0
  -24.6420  -36.5540   23.5370 C   0  0  0  0  0  1  0  0  0  0  0  0
  -25.9260  -36.0870   24.2430 C   0  0  0  0  0  3  0  0  0  0  0  0
  -28.1210  -36.9110   24.9820 C   0  0  0  0  0  1  0  0  0  0  0  0
  -26.9730  -37.1230   24.1020 N   0  0  0  0  0  0  0  0  0  0  0  0
  -26.5940  -38.0470   24.2910 H   0  0  0  0  0  0  0  0  0  0  0  0
  1 50  1  0
  1 49  1  0
  2  3  1  0
  3  1  1  0
  3  5  1  0
  4  2  2  0
  6 12  1  0
  6 18  1  0
  7 12  1  0
  8  9  1  0
  8  7  1  0
 10  9  1  0
 10 22  1  0
 10 11  1  0
 12 11  1  0
 13  6  2  0
 15 14  1  0
 16 14  1  0
 17  2  1  0
 17 18  1  0
 17 15  1  0
 18 16  1  0
 19 20  2  0
 20 39  1  0
 21 20  1  0
 21 24  1  0
 22 23  1  0
 22 19  1  0
 23 21  2  0
 24 25  1  0
 25 26  2  0
 27 30  1  0
 27 26  1  0
 28 27  2  0
 29 28  1  0
 29 24  2  0
 30 31  1  0
 31 36  2  0
 31 32  1  0
 32 33  2  0
 33 34  1  0
 34 38  1  0
 35 34  2  0
 36 35  1  0
 37 36  1  0
 39 40  1  0
 40 43  1  0
 40 42  1  0
 41 39  2  0
 44 45  1  0
 44 19  1  0
 46 44  1  0
 49 48  1  0
 49 47  1  0
 50 51  1  0
 51 53  1  0
 52 63  2  0
 53 58  1  0
 54 62  1  0
 54 64  1  0
 55 61  1  0
 55 57  1  0
 56 62  1  0
 57 56  1  0
 58 57  2  0
 59 60  1  0
 59 53  2  0
 60 55  2  0
 61 54  1  0
 62 52  1  0
 64 66  2  0
 65 64  1  0
 67 65  1  0
 68 77  2  0
 68 73  1  0
 69 65  1  0
 69 73  1  0
 70 69  1  0
 71 72  1  0
 71 70  1  0
 72 68  1  0
 73 74  2  0
 74 75  1  0
 76 75  2  0
 77 76  1  0
 78 52  1  0
 78 83  1  0
 78 79  1  0
 79 82  1  1
 79 80  1  0
 81 79  1  0
 83 86  1  0
 84 88  1  0
 84 83  1  0
 85 84  2  0
 88 87  1  0
 90 88  1  0
 90 91  1  0
 90 89  1  0
M  ISO  4   6 100  18 100  50 101  51 101
M  END
>  <TORSDO>  (33) 
F 19

>  <SCORE>  (33) 
-13.678

>  <name>  (33) 
34

>  <ligand_id>  (33) 
34

>  <original_smiles>  (33) 
[H]c1c([H])c([H])c2c(c1[H])C([H])([H])C([H])([H])C([H])([H])C2([H])N([H])C(=O)C1([H])N(C(=O)C([H])(N([H])C(=O)C([H])(N([H])C([H])([H])[H])C([H])([H])[H])C(C([H])([H])[H])(C([H])([H])[H])C([H])([H])[H])C([H])([H])c2c([H])c(OC([H])([H])C([H])(N([H])C(=O)C3([H])N(C(=O)N4C([H])([H])C([H])([H])C([H])([H])C([H])(n5nc(-c6c([H])c([H])c(Oc7c([H])c([H])c(F)c([H])c7F)c([H])c6[H])c(C(=O)N([H])[H])c5N([H])[H])C4([H])[H])C([H])([H])C([H])([H])C3([H])[H])C([H])(C([H])([H])[H])C([H])([H])[H])c([H])c([H])c2C1([H])[H]

>  <smiles>  (33) 
[H]c1c([H])c([H])c2c(c1[H])C([H])([H])C([H])([H])C([H])([H])C2([H])N([H])C(=O)C1([H])N(C(=O)C([H])(N([H])C(=O)C([H])(N([H])C([H])([H])[H])C([H])([H])[H])C(C([H])([H])[H])(C([H])([H])[H])C([H])([H])[H])C([H])([H])c2c([H])c(OC([H])([H])C([H])(N([H])C(=O)C3([H])N(C(=O)N4C([H])([H])C([H])([H])C([H])([H])C([H])(n5nc(-c6c([H])c([H])c(Oc7c([H])c([H])c(F)c([H])c7F)c([H])c6[H])c(C(=O)N([H])[H])c5N([H])[H])C4([H])[H])C([H])([H])C([H])([H])C3([H])[H])C([H])(C([H])([H])[H])C([H])([H])[H])c([H])c([H])c2C1([H])[H]

$$$$
35:0:0
     RDKit          3D

 93100  0  0  1  0  0  0  0  0999 V2000
  -28.9800  -18.7120   19.5050 C   0  0  0  0  0  2  0  0  0  0  0  0
  -28.6960  -20.1170   20.2540 C   0  0  0  0  0  2  0  0  0  0  0  0
  -29.1740  -21.5240   19.6630 C   0  0  0  0  0  3  0  0  0  0  0  0
  -28.3310  -22.7930   20.1130 C   0  0  0  0  0  3  0  0  0  0  0  0
  -28.8730  -24.2760   19.9020 C   0  0  0  0  0  2  0  0  0  0  0  0
  -27.7450  -25.3820   19.9220 C   0  0  0  0  0  2  0  0  0  0  0  0
  -28.0670  -26.8200   19.9990 O   0  0  0  0  0  0  0  0  0  0  0  0
  -24.6770  -32.1480   23.4950 C   0  0  0  0  0  0  0  0  0  0  0  0
  -26.9750  -27.7000   20.0630 C   0  0  0  0  0  0  0  0  0  0  0  0
  -23.3440  -30.8720   21.8540 C   0  0  0  0  0  3  0  0  0  0  0  0
  -24.6650  -29.3680   20.2780 C   0  0  0  0  0  0  0  0  0  0  0  0
  -25.8750  -31.1390   21.5430 C   0  0  0  0  0  2  0  0  0  0  0  0
  -25.8810  -29.7950   20.8260 C   0  0  0  0  0  0  0  0  0  0  0  0
  -27.0400  -28.9710   20.7130 C   0  0  0  0  0  3  0  0  0  0  0  0
  -25.7280  -27.3320   19.5010 C   0  0  0  0  0  3  0  0  0  0  0  0
  -24.5860  -28.1400   19.6150 C   0  0  0  0  0  3  0  0  0  0  0  0
  -23.4660  -30.2760   20.4300 C   0  0  0  0  0  2  0  0  0  0  0  0
  -24.6550  -31.3970   22.3570 N   0  0  0  0  0  0  0  0  0  0  0  0
  -23.6350  -32.4260   24.1060 O   0  0  0  0  0  0  0  0  0  0  0  0
  -22.7110  -29.8170   22.7920 C   0  0  0  0  0  0  0  0  0  0  0  0
  -21.3960  -29.5960   22.6370 N   0  0  0  0  0  0  0  0  0  0  0  0
  -23.3980  -29.2100   23.6180 O   0  0  0  0  0  0  0  0  0  0  0  0
  -20.9070  -30.1390   21.9400 H   0  0  0  0  0  0  0  0  0  0  0  0
  -18.0740  -28.2140   22.9770 C   0  0  0  0  0  0  0  0  0  0  0  0
  -20.5910  -28.6270   23.3820 C   0  0  0  0  0  3  0  0  0  0  0  0
  -20.8120  -27.1990   22.8390 C   0  0  0  0  0  2  0  0  0  0  0  0
  -19.7880  -26.7900   21.7750 C   0  0  0  0  0  2  0  0  0  0  0  0
  -18.3670  -26.8640   22.3410 C   0  0  0  0  0  2  0  0  0  0  0  0
  -19.1210  -29.0500   23.4470 C   0  0  0  0  0  0  0  0  0  0  0  0
  -18.7990  -30.3090   23.9990 C   0  0  0  0  0  3  0  0  0  0  0  0
  -17.4610  -30.7330   24.0900 C   0  0  0  0  0  3  0  0  0  0  0  0
  -16.4270  -29.8970   23.6370 C   0  0  0  0  0  3  0  0  0  0  0  0
  -16.7330  -28.6400   23.0860 C   0  0  0  0  0  3  0  0  0  0  0  0
  -26.0160  -32.7090   24.0710 C   0  0  0  0  0  3  0  0  0  0  0  0
  -26.5350  -31.9020   25.3260 C   0  0  1  0  0  0  0  0  0  0  0  0
  -25.4610  -31.6860   26.4160 C   0  0  0  0  0  1  0  0  0  0  0  0
  -27.0600  -30.5100   24.9010 C   0  0  0  0  0  1  0  0  0  0  0  0
  -27.7250  -32.6460   25.9760 C   0  0  0  0  0  1  0  0  0  0  0  0
  -25.7910  -34.1180   24.4180 N   0  0  0  0  0  0  0  0  0  0  0  0
  -26.1480  -35.1580   23.6500 C   0  0  0  0  0  0  0  0  0  0  0  0
  -26.7760  -35.0280   22.5950 O   0  0  0  0  0  0  0  0  0  0  0  0
  -25.2360  -34.3000   25.2410 H   0  0  0  0  0  0  0  0  0  0  0  0
  -24.4950  -37.0340   23.3660 C   0  0  0  0  0  1  0  0  0  0  0  0
  -25.7450  -36.5640   24.1280 C   0  0  0  0  0  3  0  0  0  0  0  0
  -27.9410  -37.3500   24.8930 C   0  0  0  0  0  1  0  0  0  0  0  0
  -26.8210  -37.5690   23.9830 N   0  0  0  0  0  0  0  0  0  0  0  0
  -26.4590  -38.5040   24.1520 H   0  0  0  0  0  0  0  0  0  0  0  0
  -30.1500  -17.5900   19.5700 C   0  0  0  0  0  3  0  0  0  0  0  0
  -30.5580  -15.0410   19.7120 C   0  0  0  0  0  0  0  0  0  0  0  0
  -30.4550  -12.6700   19.0100 C   0  0  0  0  0  2  0  0  0  0  0  0
  -29.4720  -12.5770   17.8260 C   0  0  0  0  0  2  0  0  0  0  0  0
  -28.0370  -12.3630   18.3440 C   0  0  0  0  0  2  0  0  0  0  0  0
  -27.6500  -13.3530   19.4770 C   0  0  0  0  0  3  0  0  0  0  0  0
  -28.7560  -13.4660   20.5450 C   0  0  0  0  0  2  0  0  0  0  0  0
  -30.0030  -13.7980   19.8480 N   0  0  0  0  0  0  0  0  0  0  0  0
  -31.7210  -15.1690   19.3290 O   0  0  0  0  0  0  0  0  0  0  0  0
  -29.7400  -16.1440   19.7880 N   0  0  0  0  0  0  0  0  0  0  0  0
  -28.7710  -15.9720   20.0130 H   0  0  0  0  0  0  0  0  0  0  0  0
  -25.3200  -13.8650   20.4250 C   0  0  0  0  0  0  0  0  0  0  0  0
  -24.3090  -13.0490   20.8640 C   0  0  0  0  0  0  0  0  0  0  0  0
  -24.7990  -11.7140   20.7450 C   0  0  0  0  0  0  0  0  0  0  0  0
  -26.3600  -13.0190   20.0730 N   0  0  0  0  0  0  0  0  0  0  0  0
  -26.0600  -11.7190   20.3280 N   0  0  0  0  0  0  0  0  0  0  0  0
  -24.1230  -10.4260   20.9530 C   0  0  0  0  0  0  0  0  0  0  0  0
  -24.5940   -9.4880   21.8970 C   0  0  0  0  0  3  0  0  0  0  0  0
  -23.9140   -8.2660   22.0920 C   0  0  0  0  0  3  0  0  0  0  0  0
  -22.7500   -7.9730   21.3440 C   0  0  0  0  0  0  0  0  0  0  0  0
  -22.2970   -8.9030   20.3910 C   0  0  0  0  0  3  0  0  0  0  0  0
  -22.9770  -10.1160   20.1950 C   0  0  0  0  0  3  0  0  0  0  0  0
  -22.0370   -6.8030   21.4510 O   0  0  0  0  0  0  0  0  0  0  0  0
  -21.9420   -6.1230   22.6380 C   0  0  0  0  0  0  0  0  0  0  0  0
  -21.3690   -6.7090   23.7880 C   0  0  0  0  0  3  0  0  0  0  0  0
  -21.2280   -5.9510   24.9690 C   0  0  0  0  0  3  0  0  0  0  0  0
  -21.6460   -4.6090   24.9980 C   0  0  0  0  0  0  0  0  0  0  0  0
  -22.2080   -4.0200   23.8500 C   0  0  0  0  0  3  0  0  0  0  0  0
  -22.3530   -4.7760   22.6740 C   0  0  0  0  0  0  0  0  0  0  0  0
  -22.8780   -4.1980   21.5660 F   0  0  0  0  0  0  0  0  0  0  0  0
  -21.5030   -3.8770   26.1280 F   0  0  0  0  0  0  0  0  0  0  0  0
  -22.9310  -13.4830   21.2660 C   0  0  0  0  0  0  0  0  0  0  0  0
  -22.2970  -12.7460   22.1750 N   0  0  0  0  0  0  0  0  0  0  0  0
  -22.4220  -14.5040   20.8110 O   0  0  0  0  0  0  0  0  0  0  0  0
  -22.7220  -11.9220   22.5740 H   0  0  0  0  0  0  0  0  0  0  0  0
  -21.3720  -13.0130   22.4800 H   0  0  0  0  0  0  0  0  0  0  0  0
  -25.4360  -15.2410   20.2750 N   0  0  0  0  0  0  0  0  0  0  0  0
  -24.6520  -15.8630   20.4480 H   0  0  0  0  0  0  0  0  0  0  0  0
  -26.2330  -15.7130   19.8650 H   0  0  0  0  0  0  0  0  0  0  0  0
  -31.3160  -17.9480   20.5410 C   0  0  0  0  0  2  0  0  0  0  0  0
  -33.8410  -18.3860   20.4390 C   0  0  0  0  0  1  0  0  0  0  0  0
  -32.4600  -18.7840   19.8920 C   0  0  0  0  0  3  0  0  0  0  0  0
  -32.2310  -20.2400   20.0130 N   0  0  0  0  0  4  0  0  0  0  0  0
  -32.2610  -20.5460   20.9710 H   0  0  0  0  0  0  0  0  0  0  0  0
  -31.3490  -20.5110   19.6140 H   0  0  0  0  0  0  0  0  0  0  0  0
  -32.9400  -20.7410   19.5050 H   0  0  0  0  0  0  0  0  0  0  0  0
  1  2  1  0
  3  4  2  0
  3  2  1  0
  5  6  1  0
  5  4  1  0
  6  7  1  0
  7  9  1  0
  8 19  2  0
  9 14  1  0
 10 18  1  0
 10 20  1  0
 11 17  1  0
 11 13  1  0
 12 18  1  0
 13 12  1  0
 14 13  2  0
 15 16  1  0
 15  9  2  0
 16 11  2  0
 17 10  1  0
 18  8  1  0
 20 22  2  0
 21 20  1  0
 23 21  1  0
 24 33  2  0
 24 29  1  0
 25 21  1  0
 25 29  1  0
 26 25  1  0
 27 28  1  0
 27 26  1  0
 28 24  1  0
 29 30  2  0
 30 31  1  0
 32 31  2  0
 33 32  1  0
 34  8  1  0
 34 39  1  0
 34 35  1  0
 35 38  1  1
 35 36  1  0
 37 35  1  0
 39 42  1  0
 40 44  1  0
 40 39  1  0
 41 40  2  0
 44 43  1  0
 46 44  1  0
 46 47  1  0
 46 45  1  0
 48  1  1  0
 48 57  1  0
 48 87  1  0
 49 57  1  0
 49 55  1  0
 50 55  1  0
 51 52  1  0
 51 50  1  0
 53 52  1  0
 53 62  1  0
 53 54  1  0
 55 54  1  0
 56 49  2  0
 57 58  1  0
 59 60  2  0
 60 79  1  0
 61 60  1  0
 61 64  1  0
 62 63  1  0
 62 59  1  0
 63 61  2  0
 64 65  1  0
 65 66  2  0
 67 70  1  0
 67 66  1  0
 68 67  2  0
 69 68  1  0
 69 64  2  0
 70 71  1  0
 71 76  2  0
 71 72  1  0
 72 73  2  0
 73 74  1  0
 74 78  1  0
 75 74  2  0
 76 75  1  0
 77 76  1  0
 79 80  1  0
 80 83  1  0
 80 82  1  0
 81 79  2  0
 84 59  1  0
 84 85  1  0
 86 84  1  0
 89 90  1  0
 89 88  1  0
 89 87  1  0
 90 91  1  0
 92 90  1  0
 93 90  1  0
M  ISO  4   6 101   7 101  49 100  57 100
M  END
>  <TORSDO>  (34) 
F 25

>  <SCORE>  (34) 
-11.648

>  <name>  (34) 
35

>  <ligand_id>  (34) 
35

>  <original_smiles>  (34) 
[H]c1c([H])c([H])c2c(c1[H])C([H])([H])C([H])([H])C([H])([H])C2([H])N([H])C(=O)C1([H])N(C(=O)C([H])(N([H])C(=O)C([H])(N([H])C([H])([H])[H])C([H])([H])[H])C(C([H])([H])[H])(C([H])([H])[H])C([H])([H])[H])C([H])([H])c2c([H])c(OC([H])([H])C([H])([H])C([H])([H])C([H])([H])C([H])([H])C([H])([H])C([H])(N([H])C(=O)N3C([H])([H])C([H])([H])C([H])([H])C([H])(n4nc(-c5c([H])c([H])c(Oc6c([H])c([H])c(F)c([H])c6F)c([H])c5[H])c(C(=O)N([H])[H])c4N([H])[H])C3([H])[H])C([H])([H])C([H])(C([H])([H])[H])[N+]([H])([H])[H])c([H])c([H])c2C1([H])[H]

>  <smiles>  (34) 
[H]c1c([H])c([H])c2c(c1[H])C([H])([H])C([H])([H])C([H])([H])C2([H])N([H])C(=O)C1([H])N(C(=O)C([H])(N([H])C(=O)C([H])(N([H])C([H])([H])[H])C([H])([H])[H])C(C([H])([H])[H])(C([H])([H])[H])C([H])([H])[H])C([H])([H])c2c([H])c(OC([H])([H])C([H])([H])C([H])([H])C([H])([H])C([H])([H])C([H])([H])C([H])(N([H])C(=O)N3C([H])([H])C([H])([H])C([H])([H])C([H])(n4nc(-c5c([H])c([H])c(Oc6c([H])c([H])c(F)c([H])c6F)c([H])c5[H])c(C(=O)N([H])[H])c4N([H])[H])C3([H])[H])C([H])([H])C([H])(C([H])([H])[H])[N+]([H])([H])[H])c([H])c([H])c2C1([H])[H]

$$$$
36:0:0
     RDKit          3D

 88 95  0  0  1  0  0  0  0  0999 V2000
  -28.8490  -22.1250   20.2250 C   0  0  0  0  0  3  0  0  0  0  0  0
  -28.7240  -20.5670   20.2420 C   0  0  0  0  0  3  0  0  0  0  0  0
  -30.8750  -19.2270   21.0640 C   0  0  0  0  0  1  0  0  0  0  0  0
  -29.7370  -18.9750   20.0570 C   0  0  1  0  0  0  0  0  0  0  0  0
  -30.2230  -15.7740   20.1850 C   0  0  0  0  0  0  0  0  0  0  0  0
  -30.3040  -13.2270   19.3400 C   0  0  0  0  0  2  0  0  0  0  0  0
  -29.3950  -12.7980   18.1520 C   0  0  0  0  0  2  0  0  0  0  0  0
  -27.9890  -12.4240   18.6410 C   0  0  0  0  0  2  0  0  0  0  0  0
  -27.4920  -13.4190   19.7130 C   0  0  0  0  0  3  0  0  0  0  0  0
  -28.5420  -13.7580   20.7970 C   0  0  0  0  0  2  0  0  0  0  0  0
  -29.6840  -14.4080   20.1050 N   0  0  0  0  0  0  0  0  0  0  0  0
  -31.4570  -15.6610   20.0360 O   0  0  0  0  0  0  0  0  0  0  0  0
  -29.5030  -17.1830   20.2340 N   0  0  0  0  0  0  0  0  0  0  0  0
  -28.5160  -17.0020   20.3430 H   0  0  0  0  0  0  0  0  0  0  0  0
  -25.1510  -13.9210   20.5530 C   0  0  0  0  0  0  0  0  0  0  0  0
  -24.1050  -13.1300   20.9290 C   0  0  0  0  0  0  0  0  0  0  0  0
  -24.5790  -11.7830   20.8580 C   0  0  0  0  0  0  0  0  0  0  0  0
  -26.1920  -13.0610   20.2640 N   0  0  0  0  0  0  0  0  0  0  0  0
  -25.8640  -11.7650   20.5150 N   0  0  0  0  0  0  0  0  0  0  0  0
  -23.8590  -10.5140   21.0370 C   0  0  0  0  0  0  0  0  0  0  0  0
  -24.2930   -9.5420   21.9650 C   0  0  0  0  0  3  0  0  0  0  0  0
  -23.5670   -8.3420   22.1350 C   0  0  0  0  0  3  0  0  0  0  0  0
  -22.3950   -8.1060   21.3790 C   0  0  0  0  0  0  0  0  0  0  0  0
  -21.9810   -9.0680   20.4410 C   0  0  0  0  0  3  0  0  0  0  0  0
  -22.7070  -10.2580   20.2680 C   0  0  0  0  0  3  0  0  0  0  0  0
  -21.6430   -6.9590   21.4590 O   0  0  0  0  0  0  0  0  0  0  0  0
  -21.5690   -6.2250   22.6170 C   0  0  0  0  0  0  0  0  0  0  0  0
  -21.0790   -6.7790   23.8190 C   0  0  0  0  0  3  0  0  0  0  0  0
  -20.9550   -5.9710   24.9680 C   0  0  0  0  0  3  0  0  0  0  0  0
  -21.3100   -4.6100   24.9130 C   0  0  0  0  0  0  0  0  0  0  0  0
  -21.7930   -4.0560   23.7140 C   0  0  0  0  0  3  0  0  0  0  0  0
  -21.9180   -4.8610   22.5690 C   0  0  0  0  0  0  0  0  0  0  0  0
  -22.3640   -4.3160   21.4110 F   0  0  0  0  0  0  0  0  0  0  0  0
  -21.1850   -3.8320   26.0130 F   0  0  0  0  0  0  0  0  0  0  0  0
  -22.7110  -13.5950   21.2340 C   0  0  0  0  0  0  0  0  0  0  0  0
  -22.0060  -12.8870   22.1070 N   0  0  0  0  0  0  0  0  0  0  0  0
  -22.2600  -14.6250   20.7320 O   0  0  0  0  0  0  0  0  0  0  0  0
  -22.3860  -12.0550   22.5330 H   0  0  0  0  0  0  0  0  0  0  0  0
  -21.0720  -13.1830   22.3550 H   0  0  0  0  0  0  0  0  0  0  0  0
  -25.3000  -15.2970   20.3980 N   0  0  0  0  0  0  0  0  0  0  0  0
  -24.5290  -15.9410   20.5380 H   0  0  0  0  0  0  0  0  0  0  0  0
  -26.1300  -15.7450   20.0350 H   0  0  0  0  0  0  0  0  0  0  0  0
  -30.7630  -20.5070   18.1550 C   0  0  0  0  0  1  0  0  0  0  0  0
  -29.0690  -18.7660   17.6120 C   0  0  0  0  0  1  0  0  0  0  0  0
  -31.4020  -18.1290   18.1640 C   0  0  0  0  0  1  0  0  0  0  0  0
  -30.2520  -19.0950   18.5490 C   0  0  2  0  0  0  0  0  0  0  0  0
  -27.8640  -23.7320   20.2750 C   0  0  0  0  0  2  0  0  0  0  0  0
  -28.1180  -25.4960   20.3270 O   0  0  0  0  0  0  0  0  0  0  0  0
  -24.6490  -31.8770   23.2320 C   0  0  0  0  0  0  0  0  0  0  0  0
  -27.1600  -26.7380   20.2780 C   0  0  0  0  0  0  0  0  0  0  0  0
  -23.4630  -30.4800   21.5970 C   0  0  0  0  0  3  0  0  0  0  0  0
  -24.9080  -28.8110   20.2000 C   0  0  0  0  0  0  0  0  0  0  0  0
  -26.0450  -30.5960   21.4900 C   0  0  0  0  0  2  0  0  0  0  0  0
  -26.1050  -29.1560   20.8400 C   0  0  0  0  0  0  0  0  0  0  0  0
  -27.2150  -28.1510   20.8430 C   0  0  0  0  0  3  0  0  0  0  0  0
  -25.9290  -26.6160   19.5820 C   0  0  0  0  0  3  0  0  0  0  0  0
  -24.8620  -27.5670   19.5470 C   0  0  0  0  0  3  0  0  0  0  0  0
  -23.7080  -29.7730   20.2310 C   0  0  0  0  0  2  0  0  0  0  0  0
  -24.7440  -31.0190   22.1580 N   0  0  0  0  0  0  0  0  0  0  0  0
  -23.5550  -32.1870   23.7350 O   0  0  0  0  0  0  0  0  0  0  0  0
  -22.7330  -29.5130   22.5690 C   0  0  0  0  0  0  0  0  0  0  0  0
  -21.3990  -29.3690   22.4390 N   0  0  0  0  0  0  0  0  0  0  0  0
  -23.3790  -28.8890   23.4140 O   0  0  0  0  0  0  0  0  0  0  0  0
  -20.9270  -29.9220   21.7380 H   0  0  0  0  0  0  0  0  0  0  0  0
  -18.0010  -28.1820   22.9480 C   0  0  0  0  0  0  0  0  0  0  0  0
  -20.5630  -28.4420   23.2120 C   0  0  0  0  0  3  0  0  0  0  0  0
  -20.6570  -27.0050   22.6440 C   0  0  0  0  0  2  0  0  0  0  0  0
  -19.5550  -26.6850   21.6290 C   0  0  0  0  0  2  0  0  0  0  0  0
  -18.1740  -26.8340   22.2700 C   0  0  0  0  0  2  0  0  0  0  0  0
  -19.1220  -28.9440   23.3760 C   0  0  0  0  0  0  0  0  0  0  0  0
  -18.9020  -30.2030   23.9760 C   0  0  0  0  0  3  0  0  0  0  0  0
  -17.5970  -30.7020   24.1490 C   0  0  0  0  0  3  0  0  0  0  0  0
  -16.4920  -29.9400   23.7330 C   0  0  0  0  0  3  0  0  0  0  0  0
  -16.6950  -28.6810   23.1400 C   0  0  0  0  0  3  0  0  0  0  0  0
  -25.9100  -32.5260   23.8790 C   0  0  0  0  0  3  0  0  0  0  0  0
  -26.3950  -31.7700   25.1790 C   0  0  1  0  0  0  0  0  0  0  0  0
  -25.2790  -31.5580   26.2300 C   0  0  0  0  0  1  0  0  0  0  0  0
  -26.9760  -30.3830   24.8320 C   0  0  0  0  0  1  0  0  0  0  0  0
  -27.5390  -32.5670   25.8520 C   0  0  0  0  0  1  0  0  0  0  0  0
  -25.5910  -33.9300   24.2090 N   0  0  0  0  0  0  0  0  0  0  0  0
  -25.9070  -34.9930   23.4570 C   0  0  0  0  0  0  0  0  0  0  0  0
  -26.5540  -34.8960   22.4110 O   0  0  0  0  0  0  0  0  0  0  0  0
  -25.0110  -34.0770   25.0210 H   0  0  0  0  0  0  0  0  0  0  0  0
  -24.1620  -36.7900   23.1790 C   0  0  0  0  0  1  0  0  0  0  0  0
  -25.4360  -36.3840   23.9360 C   0  0  0  0  0  3  0  0  0  0  0  0
  -27.5950  -37.2880   24.6840 C   0  0  0  0  0  1  0  0  0  0  0  0
  -26.4590  -37.4410   23.7790 N   0  0  0  0  0  0  0  0  0  0  0  0
  -26.0530  -38.3610   23.9330 H   0  0  0  0  0  0  0  0  0  0  0  0
  1  2  2  0
  1 47  1  0
  4 13  1  0
  4  2  1  0
  4  3  1  1
  5 13  1  0
  6 11  1  0
  7  8  1  0
  7  6  1  0
  9  8  1  0
  9 18  1  0
  9 10  1  0
 11  5  1  0
 11 10  1  0
 12  5  2  0
 13 14  1  0
 15 16  2  0
 16 35  1  0
 17 16  1  0
 17 20  1  0
 18 19  1  0
 18 15  1  0
 19 17  2  0
 20 21  1  0
 21 22  2  0
 23 26  1  0
 23 22  1  0
 24 23  2  0
 25 24  1  0
 25 20  2  0
 26 27  1  0
 27 28  1  0
 28 29  2  0
 30 29  1  0
 30 34  1  0
 31 30  2  0
 32 27  2  0
 32 31  1  0
 33 32  1  0
 35 36  1  0
 36 39  1  0
 36 38  1  0
 37 35  2  0
 40 41  1  0
 40 15  1  0
 42 40  1  0
 46 43  1  6
 44 46  1  0
 45 46  1  0
 46  4  1  0
 47 48  1  0
 49 60  2  0
 50 48  1  0
 50 55  1  0
 51 59  1  0
 51 61  1  0
 52 58  1  0
 52 54  1  0
 53 59  1  0
 54 55  2  0
 54 53  1  0
 56 50  2  0
 57 56  1  0
 57 52  2  0
 58 51  1  0
 59 49  1  0
 61 63  2  0
 62 61  1  0
 64 62  1  0
 65 74  2  0
 65 70  1  0
 66 62  1  0
 66 70  1  0
 67 66  1  0
 68 69  1  0
 68 67  1  0
 69 65  1  0
 70 71  2  0
 71 72  1  0
 73 72  2  0
 74 73  1  0
 75 49  1  0
 75 80  1  0
 75 76  1  0
 76 79  1  1
 76 77  1  0
 78 76  1  0
 80 83  1  0
 81 85  1  0
 81 80  1  0
 82 81  2  0
 85 84  1  0
 87 88  1  0
 87 85  1  0
 87 86  1  0
M  ISO  4   5 100  13 100  47 101  48 101
M  END
>  <TORSDO>  (35) 
F 19

>  <SCORE>  (35) 
-16.157

>  <name>  (35) 
36

>  <ligand_id>  (35) 
36

>  <original_smiles>  (35) 
[H]C(=C([H])C(N([H])C(=O)N1C([H])([H])C([H])([H])C([H])([H])C([H])(n2nc(-c3c([H])c([H])c(Oc4c([H])c([H])c(F)c([H])c4F)c([H])c3[H])c(C(=O)N([H])[H])c2N([H])[H])C1([H])[H])(C([H])([H])[H])C(C([H])([H])[H])(C([H])([H])[H])C([H])([H])[H])C([H])([H])Oc1c([H])c([H])c2c(c1[H])C([H])([H])N(C(=O)C([H])(N([H])C(=O)C([H])(N([H])C([H])([H])[H])C([H])([H])[H])C(C([H])([H])[H])(C([H])([H])[H])C([H])([H])[H])C([H])(C(=O)N([H])C1([H])c3c([H])c([H])c([H])c([H])c3C([H])([H])C([H])([H])C1([H])[H])C2([H])[H]

>  <smiles>  (35) 
[H]C(=C([H])C(N([H])C(=O)N1C([H])([H])C([H])([H])C([H])([H])C([H])(n2nc(-c3c([H])c([H])c(Oc4c([H])c([H])c(F)c([H])c4F)c([H])c3[H])c(C(=O)N([H])[H])c2N([H])[H])C1([H])[H])(C([H])([H])[H])C(C([H])([H])[H])(C([H])([H])[H])C([H])([H])[H])C([H])([H])Oc1c([H])c([H])c2c(c1[H])C([H])([H])N(C(=O)C([H])(N([H])C(=O)C([H])(N([H])C([H])([H])[H])C([H])([H])[H])C(C([H])([H])[H])(C([H])([H])[H])C([H])([H])[H])C([H])(C(=O)N([H])C1([H])c3c([H])c([H])c([H])c([H])c3C([H])([H])C([H])([H])C1([H])[H])C2([H])[H]

$$$$
38:0:0
     RDKit          3D

106113  0  0  1  0  0  0  0  0999 V2000
  -26.0190  -23.1060   19.6960 N   0  0  0  0  0  0  0  0  0  0  0  0
  -26.3460  -23.3490   18.7670 H   0  0  0  0  0  0  0  0  0  0  0  0
  -24.9500  -24.0280   20.0960 C   0  0  0  0  0  3  0  0  0  0  0  0
  -22.4240  -23.9440   20.3590 C   0  0  0  0  0  3  0  0  0  0  0  0
  -23.5760  -23.3870   19.9560 C   0  0  0  0  0  3  0  0  0  0  0  0
  -20.6940  -23.0020   18.8050 C   0  0  0  0  0  1  0  0  0  0  0  0
  -21.0750  -23.2550   20.2700 C   0  0  0  0  0  3  0  0  0  0  0  0
  -20.3380  -24.4240   22.4570 C   0  0  0  0  0  1  0  0  0  0  0  0
  -19.9770  -24.0470   21.0090 C   0  0  0  0  0  2  0  0  0  0  0  0
  -25.0110  -25.3070   19.2210 C   0  0  0  0  0  2  0  0  0  0  0  0
  -27.5000  -25.5470   19.5670 C   0  0  0  0  0  1  0  0  0  0  0  0
  -26.7620  -24.9580   17.2600 C   0  0  0  0  0  1  0  0  0  0  0  0
  -26.3670  -25.7310   18.5420 C   0  0  1  0  0  0  0  0  0  0  0  0
  -26.4370  -27.1490   18.2650 O   0  0  0  0  0  0  0  0  0  0  0  0
  -25.3190  -30.3910   24.4710 C   0  0  0  0  0  0  0  0  0  0  0  0
  -25.6570  -28.0840   18.9230 C   0  0  0  0  0  0  0  0  0  0  0  0
  -23.5390  -30.6830   22.7820 C   0  0  0  0  0  3  0  0  0  0  0  0
  -24.1250  -29.9410   20.4160 C   0  0  0  0  0  0  0  0  0  0  0  0
  -25.9660  -30.2900   22.0670 C   0  0  0  0  0  2  0  0  0  0  0  0
  -25.4260  -29.6230   20.8200 C   0  0  0  0  0  0  0  0  0  0  0  0
  -26.1940  -28.6990   20.0780 C   0  0  0  0  0  3  0  0  0  0  0  0
  -24.3560  -28.4590   18.5120 C   0  0  0  0  0  3  0  0  0  0  0  0
  -23.5830  -29.3600   19.2620 C   0  0  0  0  0  3  0  0  0  0  0  0
  -23.3600  -30.9310   21.2610 C   0  0  0  0  0  2  0  0  0  0  0  0
  -24.9670  -30.4260   23.1560 N   0  0  0  0  0  0  0  0  0  0  0  0
  -24.4880  -30.6080   25.3630 O   0  0  0  0  0  0  0  0  0  0  0  0
  -22.5810  -29.5490   23.2130 C   0  0  0  0  0  0  0  0  0  0  0  0
  -21.2760  -29.7390   22.9570 N   0  0  0  0  0  0  0  0  0  0  0  0
  -23.0150  -28.5200   23.7400 O   0  0  0  0  0  0  0  0  0  0  0  0
  -21.0000  -30.6130   22.5320 H   0  0  0  0  0  0  0  0  0  0  0  0
  -17.7330  -29.1600   22.5610 C   0  0  0  0  0  0  0  0  0  0  0  0
  -20.1980  -28.7940   23.2460 C   0  0  0  0  0  3  0  0  0  0  0  0
  -20.1980  -27.6240   22.2360 C   0  0  0  0  0  2  0  0  0  0  0  0
  -19.2790  -27.8630   21.0340 C   0  0  0  0  0  2  0  0  0  0  0  0
  -17.8350  -28.0800   21.4970 C   0  0  0  0  0  2  0  0  0  0  0  0
  -18.8470  -29.5060   23.3720 C   0  0  0  0  0  0  0  0  0  0  0  0
  -18.7080  -30.5420   24.3210 C   0  0  0  0  0  3  0  0  0  0  0  0
  -17.4860  -31.2240   24.4690 C   0  0  0  0  0  3  0  0  0  0  0  0
  -16.3830  -30.8680   23.6750 C   0  0  0  0  0  3  0  0  0  0  0  0
  -16.5060  -29.8350   22.7280 C   0  0  0  0  0  3  0  0  0  0  0  0
  -26.7870  -30.1040   24.9160 C   0  0  0  0  0  3  0  0  0  0  0  0
  -27.1040  -31.0250   26.0150 N   0  0  0  0  0  0  0  0  0  0  0  0
  -27.7720  -32.1770   25.8740 C   0  0  0  0  0  0  0  0  0  0  0  0
  -28.2570  -32.5420   24.8000 O   0  0  0  0  0  0  0  0  0  0  0  0
  -26.6900  -30.8190   26.9130 H   0  0  0  0  0  0  0  0  0  0  0  0
  -26.8840  -34.1900   27.0920 C   0  0  0  0  0  1  0  0  0  0  0  0
  -27.9290  -33.0640   27.1230 C   0  0  0  0  0  3  0  0  0  0  0  0
  -30.3040  -32.6540   27.5910 C   0  0  0  0  0  1  0  0  0  0  0  0
  -29.2810  -33.6450   27.2670 N   0  0  0  0  0  0  0  0  0  0  0  0
  -29.2910  -34.3580   27.9920 H   0  0  0  0  0  0  0  0  0  0  0  0
  -27.0230  -28.6050   25.3530 C   0  0  1  0  0  0  0  0  0  0  0  0
  -25.9950  -28.0910   26.3880 C   0  0  0  0  0  1  0  0  0  0  0  0
  -26.9710  -27.6630   24.1280 C   0  0  0  0  0  1  0  0  0  0  0  0
  -28.4350  -28.4550   25.9680 C   0  0  0  0  0  1  0  0  0  0  0  0
  -25.7210  -21.6740   19.7200 C   0  0  0  0  0  2  0  0  0  0  0  0
  -25.9920  -21.0450   18.3340 C   0  0  0  0  0  3  0  0  0  0  0  0
  -27.3760  -20.5290   18.2640 N   0  0  0  0  0  4  0  0  0  0  0  0
  -27.5090  -19.8890   19.0270 H   0  0  0  0  0  0  0  0  0  0  0  0
  -27.4650  -20.0120   17.4040 H   0  0  0  0  0  0  0  0  0  0  0  0
  -28.4610  -21.5340   18.3040 C   0  0  0  0  0  2  0  0  0  0  0  0
  -29.8140  -20.8440   18.5100 C   0  0  0  0  0  2  0  0  0  0  0  0
  -29.9380  -20.1150   19.8630 C   0  0  0  0  0  2  0  0  0  0  0  0
  -30.8370  -18.8780   19.7160 C   0  0  0  0  0  2  0  0  0  0  0  0
  -32.3300  -18.9040   21.7620 C   0  0  0  0  0  1  0  0  0  0  0  0
  -30.0450  -17.9890   21.9760 C   0  0  0  0  0  1  0  0  0  0  0  0
  -31.2370  -18.1040   21.0030 C   0  0  1  0  0  0  0  0  0  0  0  0
  -31.8940  -16.7820   20.4660 C   0  0  0  0  0  0  0  0  0  0  0  0
  -31.7370  -14.6350   19.2700 C   0  0  0  0  0  2  0  0  0  0  0  0
  -30.8210  -14.7980   18.0400 C   0  0  0  0  0  2  0  0  0  0  0  0
  -29.3450  -14.5520   18.4170 C   0  0  0  0  0  2  0  0  0  0  0  0
  -28.9210  -15.3280   19.6920 C   0  0  0  0  0  3  0  0  0  0  0  0
  -29.9650  -15.1200   20.8100 C   0  0  0  0  0  2  0  0  0  0  0  0
  -31.2700  -15.5740   20.3110 N   0  0  0  0  0  0  0  0  0  0  0  0
  -33.0250  -16.9470   19.9980 O   0  0  0  0  0  0  0  0  0  0  0  0
  -26.4690  -15.7520   20.3510 C   0  0  0  0  0  0  0  0  0  0  0  0
  -25.4500  -14.8960   20.6760 C   0  0  0  0  0  0  0  0  0  0  0  0
  -26.0060  -13.5820   20.6230 C   0  0  0  0  0  0  0  0  0  0  0  0
  -27.5790  -14.9510   20.1280 N   0  0  0  0  0  0  0  0  0  0  0  0
  -27.3010  -13.6410   20.3430 N   0  0  0  0  0  0  0  0  0  0  0  0
  -25.3670  -12.2680   20.7650 C   0  0  0  0  0  0  0  0  0  0  0  0
  -25.6670  -11.4160   21.8520 C   0  0  0  0  0  3  0  0  0  0  0  0
  -25.0290  -10.1650   21.9770 C   0  0  0  0  0  3  0  0  0  0  0  0
  -24.0760   -9.7540   21.0140 C   0  0  0  0  0  0  0  0  0  0  0  0
  -23.7970  -10.5960   19.9230 C   0  0  0  0  0  3  0  0  0  0  0  0
  -24.4380  -11.8400   19.7970 C   0  0  0  0  0  3  0  0  0  0  0  0
  -23.4250   -8.5440   21.0410 O   0  0  0  0  0  0  0  0  0  0  0  0
  -22.9230   -8.0220   22.2060 C   0  0  0  0  0  0  0  0  0  0  0  0
  -21.9630   -8.7120   22.9780 C   0  0  0  0  0  3  0  0  0  0  0  0
  -21.4210   -8.1070   24.1300 C   0  0  0  0  0  3  0  0  0  0  0  0
  -21.8310   -6.8140   24.5070 C   0  0  0  0  0  0  0  0  0  0  0  0
  -22.7830   -6.1240   23.7350 C   0  0  0  0  0  3  0  0  0  0  0  0
  -23.3250   -6.7260   22.5870 C   0  0  0  0  0  0  0  0  0  0  0  0
  -24.2260   -6.0480   21.8350 F   0  0  0  0  0  0  0  0  0  0  0  0
  -21.3050   -6.2310   25.6090 F   0  0  0  0  0  0  0  0  0  0  0  0
  -24.0180  -15.2700   20.9270 C   0  0  0  0  0  0  0  0  0  0  0  0
  -23.3320  -14.5220   21.7850 N   0  0  0  0  0  0  0  0  0  0  0  0
  -23.5110  -16.2570   20.3980 O   0  0  0  0  0  0  0  0  0  0  0  0
  -23.7560  -13.7260   22.2380 H   0  0  0  0  0  0  0  0  0  0  0  0
  -22.3700  -14.7510   21.9910 H   0  0  0  0  0  0  0  0  0  0  0  0
  -26.5390  -17.1340   20.2070 N   0  0  0  0  0  0  0  0  0  0  0  0
  -25.7260  -17.7270   20.3280 H   0  0  0  0  0  0  0  0  0  0  0  0
  -27.3720  -17.6380   19.9360 H   0  0  0  0  0  0  0  0  0  0  0  0
  -25.3860  -18.5400   18.5500 C   0  0  0  0  0  1  0  0  0  0  0  0
  -24.9750  -19.9190   17.9910 C   0  0  0  0  0  3  0  0  0  0  0  0
  -23.6370  -20.8260   15.9550 C   0  0  0  0  0  1  0  0  0  0  0  0
  -24.6590  -19.8050   16.4770 C   0  0  0  0  0  2  0  0  0  0  0  0
  1 55  1  0
  1  3  1  0
  2  1  1  0
  3 10  1  0
  5  3  1  0
  5  4  2  0
  7  6  1  0
  7  4  1  0
  7  9  1  0
  9  8  1  0
 13 12  1  6
 13 10  1  0
 13 11  1  0
 14 13  1  0
 14 16  1  0
 15 26  2  0
 16 21  1  0
 17 25  1  0
 17 27  1  0
 18 20  1  0
 18 24  1  0
 19 25  1  0
 20 19  1  0
 21 20  2  0
 22 16  2  0
 22 23  1  0
 23 18  2  0
 24 17  1  0
 25 15  1  0
 27 29  2  0
 28 27  1  0
 30 28  1  0
 31 40  2  0
 31 36  1  0
 32 28  1  0
 32 36  1  0
 33 32  1  0
 34 35  1  0
 34 33  1  0
 35 31  1  0
 36 37  2  0
 37 38  1  0
 39 38  2  0
 40 39  1  0
 41 15  1  0
 41 51  1  0
 41 42  1  0
 42 45  1  0
 43 42  1  0
 43 47  1  0
 44 43  2  0
 47 46  1  0
 47 49  1  0
 49 48  1  0
 49 50  1  0
 51 54  1  1
 51 52  1  0
 53 51  1  0
 56 55  1  0
 57 60  1  0
 57 56  1  0
 57 58  1  0
 59 57  1  0
 60 61  1  0
 61 62  1  0
 63 62  1  0
 63 66  1  0
 66 64  1  1
 66 65  1  0
 67 66  1  0
 68 73  1  0
 69 70  1  0
 69 68  1  0
 71 70  1  0
 71 78  1  0
 71 72  1  0
 73 67  1  0
 73 72  1  0
 74 67  2  0
 75 76  2  0
 76 95  1  0
 77 76  1  0
 77 80  1  0
 78 79  1  0
 78 75  1  0
 79 77  2  0
 80 81  1  0
 81 82  2  0
 83 86  1  0
 83 82  1  0
 84 83  2  0
 85 84  1  0
 85 80  2  0
 86 87  1  0
 87 92  2  0
 87 88  1  0
 88 89  2  0
 89 90  1  0
 90 94  1  0
 91 90  2  0
 92 91  1  0
 93 92  1  0
 95 96  1  0
 96 99  1  0
 96 98  1  0
 97 95  2  0
100101  1  0
100 75  1  0
102100  1  0
104 56  1  0
104103  1  0
105106  1  0
106104  1  0
M  ISO  4  13 101  14 101  66 100  67 100
M  END
>  <TORSDO>  (36) 
F 32

>  <SCORE>  (36) 
-1.701

>  <name>  (36) 
38

>  <ligand_id>  (36) 
38

>  <original_smiles>  (36) 
[H]C(=C([H])C([H])(C([H])([H])[H])C([H])([H])C([H])([H])[H])C([H])(N([H])C([H])([H])C([H])(C([H])(C([H])([H])[H])C([H])([H])C([H])([H])[H])[N+]([H])([H])C([H])([H])C([H])([H])C([H])([H])C([H])([H])C(C(=O)N1C([H])([H])C([H])([H])C([H])([H])C([H])(n2nc(-c3c([H])c([H])c(Oc4c([H])c([H])c(F)c([H])c4F)c([H])c3[H])c(C(=O)N([H])[H])c2N([H])[H])C1([H])[H])(C([H])([H])[H])C([H])([H])[H])C([H])([H])C(Oc1c([H])c([H])c2c(c1[H])C([H])([H])N(C(=O)C([H])(N([H])C(=O)C([H])(N([H])C([H])([H])[H])C([H])([H])[H])C(C([H])([H])[H])(C([H])([H])[H])C([H])([H])[H])C([H])(C(=O)N([H])C1([H])c3c([H])c([H])c([H])c([H])c3C([H])([H])C([H])([H])C1([H])[H])C2([H])[H])(C([H])([H])[H])C([H])([H])[H]

>  <smiles>  (36) 
[H]C(=C([H])C([H])(C([H])([H])[H])C([H])([H])C([H])([H])[H])C([H])(N([H])C([H])([H])C([H])(C([H])(C([H])([H])[H])C([H])([H])C([H])([H])[H])[N+]([H])([H])C([H])([H])C([H])([H])C([H])([H])C([H])([H])C(C(=O)N1C([H])([H])C([H])([H])C([H])([H])C([H])(n2nc(-c3c([H])c([H])c(Oc4c([H])c([H])c(F)c([H])c4F)c([H])c3[H])c(C(=O)N([H])[H])c2N([H])[H])C1([H])[H])(C([H])([H])[H])C([H])([H])[H])C([H])([H])C(Oc1c([H])c([H])c2c(c1[H])C([H])([H])N(C(=O)C([H])(N([H])C(=O)C([H])(N([H])C([H])([H])[H])C([H])([H])[H])C(C([H])([H])[H])(C([H])([H])[H])C([H])([H])[H])C([H])(C(=O)N([H])C1([H])c3c([H])c([H])c([H])c([H])c3C([H])([H])C([H])([H])C1([H])[H])C2([H])[H])(C([H])([H])[H])C([H])([H])[H]

$$$$
39:0:0
     RDKit          3D

102109  0  0  1  0  0  0  0  0999 V2000
  -30.6920  -17.6420   20.8160 C   0  0  0  0  0  3  0  0  0  0  0  0
  -30.9970  -14.9430   20.7690 C   0  0  0  0  0  0  0  0  0  0  0  0
  -30.7860  -12.7130   19.6080 C   0  0  0  0  0  2  0  0  0  0  0  0
  -29.8600  -12.8360   18.3770 C   0  0  0  0  0  2  0  0  0  0  0  0
  -28.3900  -12.6260   18.7860 C   0  0  0  0  0  2  0  0  0  0  0  0
  -28.0060  -13.4450   20.0460 C   0  0  0  0  0  3  0  0  0  0  0  0
  -29.0540  -13.3170   21.1730 C   0  0  0  0  0  2  0  0  0  0  0  0
  -30.3460  -13.7260   20.6080 N   0  0  0  0  0  0  0  0  0  0  0  0
  -32.1980  -14.9900   20.4850 O   0  0  0  0  0  0  0  0  0  0  0  0
  -30.2750  -16.1360   21.0050 N   0  0  0  0  0  0  0  0  0  0  0  0
  -29.3000  -16.0060   21.2350 H   0  0  0  0  0  0  0  0  0  0  0  0
  -25.6080  -14.0020   20.7470 C   0  0  0  0  0  0  0  0  0  0  0  0
  -24.5400  -13.2170   21.0820 C   0  0  0  0  0  0  0  0  0  0  0  0
  -25.0110  -11.8680   21.0400 C   0  0  0  0  0  0  0  0  0  0  0  0
  -26.6590  -13.1320   20.5110 N   0  0  0  0  0  0  0  0  0  0  0  0
  -26.3090  -11.8420   20.7540 N   0  0  0  0  0  0  0  0  0  0  0  0
  -24.2860  -10.6010   21.1940 C   0  0  0  0  0  0  0  0  0  0  0  0
  -24.6210   -9.6760   22.2080 C   0  0  0  0  0  3  0  0  0  0  0  0
  -23.8950   -8.4730   22.3480 C   0  0  0  0  0  3  0  0  0  0  0  0
  -22.8200   -8.1870   21.4730 C   0  0  0  0  0  0  0  0  0  0  0  0
  -22.5060   -9.0990   20.4510 C   0  0  0  0  0  3  0  0  0  0  0  0
  -23.2330  -10.2940   20.3090 C   0  0  0  0  0  3  0  0  0  0  0  0
  -22.0750   -7.0330   21.5190 O   0  0  0  0  0  0  0  0  0  0  0  0
  -21.7930   -6.4040   22.7040 C   0  0  0  0  0  0  0  0  0  0  0  0
  -21.1080   -7.0600   23.7510 C   0  0  0  0  0  3  0  0  0  0  0  0
  -20.7780   -6.3560   24.9260 C   0  0  0  0  0  3  0  0  0  0  0  0
  -21.1210   -4.9960   25.0530 C   0  0  0  0  0  0  0  0  0  0  0  0
  -21.7970   -4.3400   24.0090 C   0  0  0  0  0  3  0  0  0  0  0  0
  -22.1300   -5.0420   22.8380 C   0  0  0  0  0  0  0  0  0  0  0  0
  -22.7630   -4.3990   21.8270 F   0  0  0  0  0  0  0  0  0  0  0  0
  -20.7960   -4.3170   26.1780 F   0  0  0  0  0  0  0  0  0  0  0  0
  -23.1350  -13.6850   21.3300 C   0  0  0  0  0  0  0  0  0  0  0  0
  -22.4080  -13.0060   22.2110 N   0  0  0  0  0  0  0  0  0  0  0  0
  -22.6900  -14.6910   20.7790 O   0  0  0  0  0  0  0  0  0  0  0  0
  -22.7810  -12.1940   22.6800 H   0  0  0  0  0  0  0  0  0  0  0  0
  -21.4660  -13.3020   22.4190 H   0  0  0  0  0  0  0  0  0  0  0  0
  -25.7670  -15.3740   20.5950 N   0  0  0  0  0  0  0  0  0  0  0  0
  -24.9870  -16.0140   20.6880 H   0  0  0  0  0  0  0  0  0  0  0  0
  -26.6110  -15.8230   20.2650 H   0  0  0  0  0  0  0  0  0  0  0  0
  -29.5850  -18.9040   20.7900 C   0  0  0  0  0  0  0  0  0  0  0  0
  -28.3930  -18.6380   20.6270 O   0  0  0  0  0  0  0  0  0  0  0  0
  -29.9720  -20.5010   20.9510 C   0  0  0  0  0  3  0  0  0  0  0  0
  -28.9200  -21.7970   20.7890 C   0  0  0  0  0  3  0  0  0  0  0  0
  -29.3270  -23.4200   20.9490 C   0  0  0  0  0  3  0  0  0  0  0  0
  -28.3350  -24.7060   20.5420 C   0  0  0  0  0  3  0  0  0  0  0  0
  -28.5860  -26.2200   20.7590 O   0  0  0  0  0  0  0  0  0  0  0  0
  -24.6890  -31.8670   23.3940 C   0  0  0  0  0  0  0  0  0  0  0  0
  -27.5240  -27.1770   20.6020 C   0  0  0  0  0  0  0  0  0  0  0  0
  -23.6230  -30.4510   21.6810 C   0  0  0  0  0  3  0  0  0  0  0  0
  -25.1860  -28.8830   20.3800 C   0  0  0  0  0  0  0  0  0  0  0  0
  -26.1790  -30.7460   21.7000 C   0  0  0  0  0  2  0  0  0  0  0  0
  -26.3130  -29.3510   21.0680 C   0  0  0  0  0  0  0  0  0  0  0  0
  -27.4850  -28.5150   21.1600 C   0  0  0  0  0  3  0  0  0  0  0  0
  -26.3720  -26.8050   19.8740 C   0  0  0  0  0  3  0  0  0  0  0  0
  -25.2280  -27.6220   19.7700 C   0  0  0  0  0  3  0  0  0  0  0  0
  -23.9510  -29.7670   20.3270 C   0  0  0  0  0  2  0  0  0  0  0  0
  -24.8460  -31.0430   22.3140 N   0  0  0  0  0  0  0  0  0  0  0  0
  -23.5640  -32.1440   23.8390 O   0  0  0  0  0  0  0  0  0  0  0  0
  -22.8870  -29.4430   22.5970 C   0  0  0  0  0  0  0  0  0  0  0  0
  -21.5790  -29.2400   22.3570 N   0  0  0  0  0  0  0  0  0  0  0  0
  -23.4960  -28.8450   23.4870 O   0  0  0  0  0  0  0  0  0  0  0  0
  -21.1440  -29.7750   21.6190 H   0  0  0  0  0  0  0  0  0  0  0  0
  -18.1680  -28.0570   22.6570 C   0  0  0  0  0  0  0  0  0  0  0  0
  -20.7110  -28.2990   23.0690 C   0  0  0  0  0  3  0  0  0  0  0  0
  -20.8350  -26.8720   22.4840 C   0  0  0  0  0  2  0  0  0  0  0  0
  -19.7900  -26.5680   21.4070 C   0  0  0  0  0  2  0  0  0  0  0  0
  -18.3750  -26.7150   21.9750 C   0  0  0  0  0  2  0  0  0  0  0  0
  -19.2660  -28.8080   23.1580 C   0  0  0  0  0  0  0  0  0  0  0  0
  -19.0210  -30.0640   23.7550 C   0  0  0  0  0  3  0  0  0  0  0  0
  -17.7120  -30.5690   23.8560 C   0  0  0  0  0  3  0  0  0  0  0  0
  -16.6280  -29.8160   23.3730 C   0  0  0  0  0  3  0  0  0  0  0  0
  -16.8570  -28.5620   22.7790 C   0  0  0  0  0  3  0  0  0  0  0  0
  -25.9130  -32.5180   24.1070 C   0  0  0  0  0  3  0  0  0  0  0  0
  -26.3240  -31.7710   25.4360 C   0  0  1  0  0  0  0  0  0  0  0  0
  -25.1370  -31.4970   26.3910 C   0  0  0  0  0  1  0  0  0  0  0  0
  -26.9920  -30.4140   25.1190 C   0  0  0  0  0  1  0  0  0  0  0  0
  -27.3720  -32.6080   26.2050 C   0  0  0  0  0  1  0  0  0  0  0  0
  -25.5720  -33.9200   24.3930 N   0  0  0  0  0  0  0  0  0  0  0  0
  -25.9220  -34.9620   23.6280 C   0  0  0  0  0  0  0  0  0  0  0  0
  -26.6340  -34.8460   22.6260 O   0  0  0  0  0  0  0  0  0  0  0  0
  -24.9470  -34.0830   25.1680 H   0  0  0  0  0  0  0  0  0  0  0  0
  -24.1890  -36.7280   23.1750 C   0  0  0  0  0  1  0  0  0  0  0  0
  -25.4030  -36.3540   24.0390 C   0  0  0  0  0  3  0  0  0  0  0  0
  -27.4890  -37.2920   24.9370 C   0  0  0  0  0  1  0  0  0  0  0  0
  -26.4270  -37.4180   23.9420 N   0  0  0  0  0  0  0  0  0  0  0  0
  -26.0020  -38.3360   24.0460 H   0  0  0  0  0  0  0  0  0  0  0  0
  -31.5470  -17.7300   19.5280 C   0  0  0  0  0  2  0  0  0  0  0  0
  -30.8020  -18.3860   18.3490 C   0  0  0  0  0  2  0  0  0  0  0  0
  -31.7260  -19.1570   17.3970 C   0  0  0  0  0  2  0  0  0  0  0  0
  -30.8750  -19.9250   16.4840 N   0  0  0  0  0  0  0  0  0  0  0  0
  -30.0700  -19.9970   14.1490 C   0  0  0  0  0  1  0  0  0  0  0  0
  -31.2260  -19.6360   15.0920 C   0  0  0  0  0  2  0  0  0  0  0  0
  -30.9020  -21.3650   16.7750 C   0  0  0  0  0  2  0  0  0  0  0  0
  -29.7850  -21.8080   17.7620 C   0  0  0  0  0  3  0  0  0  0  0  0
  -30.1650  -23.0680   18.4270 N   0  0  0  0  0  4  0  0  0  0  0  0
  -30.2560  -23.8160   17.7630 H   0  0  0  0  0  0  0  0  0  0  0  0
  -31.0440  -22.9600   18.9010 H   0  0  0  0  0  0  0  0  0  0  0  0
  -29.4770  -23.3310   19.1110 H   0  0  0  0  0  0  0  0  0  0  0  0
  -28.2470  -23.0130   16.0480 C   0  0  0  0  0  1  0  0  0  0  0  0
  -28.3670  -21.9050   17.1180 C   0  0  0  0  0  3  0  0  0  0  0  0
  -25.8280  -22.0180   17.6230 C   0  0  0  0  0  1  0  0  0  0  0  0
  -27.2550  -22.0110   18.1910 C   0  0  0  0  0  2  0  0  0  0  0  0
  1 87  1  0
  1 10  1  0
  2 10  1  0
  3  8  1  0
  4  5  1  0
  4  3  1  0
  6  5  1  0
  6 15  1  0
  6  7  1  0
  8  2  1  0
  8  7  1  0
  9  2  2  0
 10 11  1  0
 12 13  2  0
 13 32  1  0
 14 13  1  0
 14 17  1  0
 15 12  1  0
 15 16  1  0
 16 14  2  0
 17 18  1  0
 18 19  2  0
 20 23  1  0
 20 19  1  0
 21 20  2  0
 22 21  1  0
 22 17  2  0
 23 24  1  0
 24 29  2  0
 24 25  1  0
 25 26  2  0
 26 27  1  0
 27 31  1  0
 28 27  2  0
 29 28  1  0
 30 29  1  0
 32 33  1  0
 33 36  1  0
 33 35  1  0
 34 32  2  0
 37 38  1  0
 37 12  1  0
 39 37  1  0
 40  1  1  0
 40 42  1  0
 41 40  2  0
 43 44  1  0
 43 42  2  0
 45 46  1  0
 45 44  2  0
 47 58  2  0
 48 46  1  0
 48 53  1  0
 49 57  1  0
 49 59  1  0
 50 52  1  0
 51 57  1  0
 52 53  2  0
 52 51  1  0
 54 48  2  0
 55 54  1  0
 55 50  2  0
 56 50  1  0
 56 49  1  0
 57 47  1  0
 59 61  2  0
 60 59  1  0
 62 60  1  0
 63 72  2  0
 63 68  1  0
 64 60  1  0
 64 68  1  0
 65 64  1  0
 66 67  1  0
 66 65  1  0
 67 63  1  0
 68 69  2  0
 69 70  1  0
 71 70  2  0
 72 71  1  0
 73 47  1  0
 73 78  1  0
 73 74  1  0
 74 77  1  1
 74 75  1  0
 76 74  1  0
 78 81  1  0
 79 83  1  0
 79 78  1  0
 80 79  2  0
 83 82  1  0
 85 83  1  0
 85 86  1  0
 85 84  1  0
 88 87  1  0
 89 88  1  0
 90 93  1  0
 90 89  1  0
 91 92  1  0
 92 90  1  0
 94 93  1  0
 94 95  1  0
 95 97  1  0
 95 98  1  0
 96 95  1  0
100 99  1  0
100 94  1  0
100102  1  0
101102  1  0
M  ISO  4   2 100  10 100  45 101  46 101
M  END
>  <TORSDO>  (37) 
F 31

>  <SCORE>  (37) 
-9.319

>  <name>  (37) 
39

>  <ligand_id>  (37) 
39

>  <original_smiles>  (37) 
[H]c1c([H])c([H])c2c(c1[H])C([H])([H])C([H])([H])C([H])([H])C2([H])N([H])C(=O)C1([H])N(C(=O)C([H])(N([H])C(=O)C([H])(N([H])C([H])([H])[H])C([H])([H])[H])C(C([H])([H])[H])(C([H])([H])[H])C([H])([H])[H])C([H])([H])c2c([H])c(OC([H])([H])C([H])([H])C([H])([H])C([H])([H])C(=O)C([H])(N([H])C(=O)N3C([H])([H])C([H])([H])C([H])([H])C([H])(n4nc(-c5c([H])c([H])c(Oc6c([H])c([H])c(F)c([H])c6F)c([H])c5[H])c(C(=O)N([H])[H])c4N([H])[H])C3([H])[H])C([H])([H])C([H])([H])C([H])([H])N(C([H])([H])C([H])([H])[H])C([H])([H])C([H])(C([H])(C([H])([H])[H])C([H])([H])C([H])([H])[H])[N+]([H])([H])[H])c([H])c([H])c2C1([H])[H]

>  <smiles>  (37) 
[H]c1c([H])c([H])c2c(c1[H])C([H])([H])C([H])([H])C([H])([H])C2([H])N([H])C(=O)C1([H])N(C(=O)C([H])(N([H])C(=O)C([H])(N([H])C([H])([H])[H])C([H])([H])[H])C(C([H])([H])[H])(C([H])([H])[H])C([H])([H])[H])C([H])([H])c2c([H])c(OC([H])([H])C([H])([H])C([H])([H])C([H])([H])C(=O)C([H])(N([H])C(=O)N3C([H])([H])C([H])([H])C([H])([H])C([H])(n4nc(-c5c([H])c([H])c(Oc6c([H])c([H])c(F)c([H])c6F)c([H])c5[H])c(C(=O)N([H])[H])c4N([H])[H])C3([H])[H])C([H])([H])C([H])([H])C([H])([H])N(C([H])([H])C([H])([H])[H])C([H])([H])C([H])(C([H])(C([H])([H])[H])C([H])([H])C([H])([H])[H])[N+]([H])([H])[H])c([H])c([H])c2C1([H])[H]

$$$$
40:0:0
     RDKit          3D

 84 91  0  0  1  0  0  0  0  0999 V2000
  -30.2630  -15.8890   20.2800 C   0  0  0  0  0  0  0  0  0  0  0  0
  -30.3890  -13.2780   19.5260 C   0  0  0  0  0  2  0  0  0  0  0  0
  -29.5590  -12.7170   18.3310 C   0  0  0  0  0  2  0  0  0  0  0  0
  -28.1470  -12.3240   18.7790 C   0  0  0  0  0  2  0  0  0  0  0  0
  -27.5760  -13.3710   19.7580 C   0  0  0  0  0  3  0  0  0  0  0  0
  -28.5630  -13.8310   20.8650 C   0  0  0  0  0  2  0  0  0  0  0  0
  -29.7040  -14.5080   20.1850 N   0  0  0  0  0  0  0  0  0  0  0  0
  -31.4990  -15.7020   20.1790 O   0  0  0  0  0  0  0  0  0  0  0  0
  -29.9140  -20.4900   19.5710 C   0  0  0  0  0  2  0  0  0  0  0  0
  -27.9800  -20.0390   20.3860 C   0  0  0  0  0  2  0  0  0  0  0  0
  -30.4550  -18.8200   19.9620 C   0  0  0  0  0  2  0  0  0  0  0  0
  -28.4760  -18.3370   20.7330 C   0  0  0  0  0  2  0  0  0  0  0  0
  -28.7980  -21.5780   20.3200 C   0  0  0  0  0  2  0  0  0  0  0  0
  -29.6870  -17.4100   20.1940 N   0  0  0  0  0  0  0  0  0  0  0  0
  -25.2020  -13.8870   20.4670 C   0  0  0  0  0  0  0  0  0  0  0  0
  -24.1390  -13.1060   20.8180 C   0  0  0  0  0  0  0  0  0  0  0  0
  -24.6170  -11.7590   20.8210 C   0  0  0  0  0  0  0  0  0  0  0  0
  -26.2570  -13.0210   20.2650 N   0  0  0  0  0  0  0  0  0  0  0  0
  -25.9200  -11.7330   20.5440 N   0  0  0  0  0  0  0  0  0  0  0  0
  -23.8890  -10.4960   21.0120 C   0  0  0  0  0  0  0  0  0  0  0  0
  -24.3040   -9.5380   21.9630 C   0  0  0  0  0  3  0  0  0  0  0  0
  -23.5710   -8.3450   22.1450 C   0  0  0  0  0  3  0  0  0  0  0  0
  -22.4080   -8.1020   21.3770 C   0  0  0  0  0  0  0  0  0  0  0  0
  -22.0110   -9.0490   20.4160 C   0  0  0  0  0  3  0  0  0  0  0  0
  -22.7460  -10.2330   20.2330 C   0  0  0  0  0  3  0  0  0  0  0  0
  -21.6480   -6.9600   21.4670 O   0  0  0  0  0  0  0  0  0  0  0  0
  -21.5890   -6.2240   22.6240 C   0  0  0  0  0  0  0  0  0  0  0  0
  -21.1770   -6.7920   23.8490 C   0  0  0  0  0  3  0  0  0  0  0  0
  -21.0630   -5.9840   24.9970 C   0  0  0  0  0  3  0  0  0  0  0  0
  -21.3520   -4.6090   24.9220 C   0  0  0  0  0  0  0  0  0  0  0  0
  -21.7570   -4.0390   23.7020 C   0  0  0  0  0  3  0  0  0  0  0  0
  -21.8720   -4.8450   22.5560 C   0  0  0  0  0  0  0  0  0  0  0  0
  -22.2420   -4.2860   21.3780 F   0  0  0  0  0  0  0  0  0  0  0  0
  -21.2370   -3.8300   26.0230 F   0  0  0  0  0  0  0  0  0  0  0  0
  -22.7320  -13.5800   21.0340 C   0  0  0  0  0  0  0  0  0  0  0  0
  -21.9850  -12.9050   21.8980 N   0  0  0  0  0  0  0  0  0  0  0  0
  -22.3060  -14.5890   20.4710 O   0  0  0  0  0  0  0  0  0  0  0  0
  -22.3430  -12.0910   22.3760 H   0  0  0  0  0  0  0  0  0  0  0  0
  -21.0390  -13.2070   22.0880 H   0  0  0  0  0  0  0  0  0  0  0  0
  -25.3580  -15.2560   20.2690 N   0  0  0  0  0  0  0  0  0  0  0  0
  -24.5830  -15.9060   20.3480 H   0  0  0  0  0  0  0  0  0  0  0  0
  -26.2130  -15.6940   19.9520 H   0  0  0  0  0  0  0  0  0  0  0  0
  -28.0840  -23.4630   19.9180 C   0  0  0  0  0  1  0  0  0  0  0  0
  -28.1950  -25.2910   20.1280 O   0  0  0  0  0  0  0  0  0  0  0  0
  -24.7220  -31.7780   23.0420 C   0  0  0  0  0  0  0  0  0  0  0  0
  -27.2410  -26.5740   20.0620 C   0  0  0  0  0  0  0  0  0  0  0  0
  -23.5360  -30.3700   21.4150 C   0  0  0  0  0  3  0  0  0  0  0  0
  -24.9830  -28.6970   20.0050 C   0  0  0  0  0  0  0  0  0  0  0  0
  -26.1200  -30.4770   21.2980 C   0  0  0  0  0  2  0  0  0  0  0  0
  -26.1830  -29.0280   20.6440 C   0  0  0  0  0  0  0  0  0  0  0  0
  -27.2880  -27.9990   20.6360 C   0  0  0  0  0  3  0  0  0  0  0  0
  -26.0050  -26.4930   19.3610 C   0  0  0  0  0  3  0  0  0  0  0  0
  -24.9420  -27.4570   19.3390 C   0  0  0  0  0  3  0  0  0  0  0  0
  -23.7790  -29.6610   20.0490 C   0  0  0  0  0  2  0  0  0  0  0  0
  -24.8180  -30.9120   21.9700 N   0  0  0  0  0  0  0  0  0  0  0  0
  -23.6270  -32.0800   23.5500 O   0  0  0  0  0  0  0  0  0  0  0  0
  -22.8130  -29.4050   22.3960 C   0  0  0  0  0  0  0  0  0  0  0  0
  -21.4760  -29.2740   22.2960 N   0  0  0  0  0  0  0  0  0  0  0  0
  -23.4720  -28.7680   23.2220 O   0  0  0  0  0  0  0  0  0  0  0  0
  -20.9920  -29.8360   21.6100 H   0  0  0  0  0  0  0  0  0  0  0  0
  -18.0800  -28.1080   22.8820 C   0  0  0  0  0  0  0  0  0  0  0  0
  -20.6510  -28.3420   23.0770 C   0  0  0  0  0  3  0  0  0  0  0  0
  -20.7150  -26.9140   22.4860 C   0  0  0  0  0  2  0  0  0  0  0  0
  -19.5850  -26.6200   21.4950 C   0  0  0  0  0  2  0  0  0  0  0  0
  -18.2230  -26.7700   22.1770 C   0  0  0  0  0  2  0  0  0  0  0  0
  -19.2190  -28.8530   23.2900 C   0  0  0  0  0  0  0  0  0  0  0  0
  -19.0260  -30.1030   23.9180 C   0  0  0  0  0  3  0  0  0  0  0  0
  -17.7310  -30.6090   24.1360 C   0  0  0  0  0  3  0  0  0  0  0  0
  -16.6080  -29.8620   23.7390 C   0  0  0  0  0  3  0  0  0  0  0  0
  -16.7840  -28.6120   23.1180 C   0  0  0  0  0  3  0  0  0  0  0  0
  -25.9790  -32.4410   23.6830 C   0  0  0  0  0  3  0  0  0  0  0  0
  -25.6320  -33.8270   24.0630 N   0  0  0  0  0  0  0  0  0  0  0  0
  -25.9330  -34.9240   23.3550 C   0  0  0  0  0  0  0  0  0  0  0  0
  -26.5860  -34.8790   22.3100 O   0  0  0  0  0  0  0  0  0  0  0  0
  -25.0460  -33.9330   24.8790 H   0  0  0  0  0  0  0  0  0  0  0  0
  -24.1640  -36.7090   23.1370 C   0  0  0  0  0  1  0  0  0  0  0  0
  -25.4380  -36.2880   23.8870 C   0  0  0  0  0  3  0  0  0  0  0  0
  -27.5830  -37.1860   24.6840 C   0  0  0  0  0  1  0  0  0  0  0  0
  -26.4470  -37.3670   23.7840 N   0  0  0  0  0  0  0  0  0  0  0  0
  -26.0280  -38.2720   23.9810 H   0  0  0  0  0  0  0  0  0  0  0  0
  -26.5090  -31.6630   24.9510 C   0  0  1  0  0  0  0  0  0  0  0  0
  -25.4240  -31.4030   26.0240 C   0  0  0  0  0  1  0  0  0  0  0  0
  -27.1050  -30.2940   24.5550 C   0  0  0  0  0  1  0  0  0  0  0  0
  -27.6560  -32.4610   25.6140 C   0  0  0  0  0  1  0  0  0  0  0  0
  2  7  1  0
  3  4  1  0
  3  2  1  0
  5  4  1  0
  5 18  1  0
  5  6  1  0
  7  1  1  0
  7  6  1  0
  8  1  2  0
  9 11  1  0
  9 13  1  0
 10 12  1  0
 11 14  1  0
 13 10  1  0
 14  1  1  0
 14 12  1  0
 15 16  2  0
 16 17  1  0
 16 35  1  0
 17 20  1  0
 18 15  1  0
 18 19  1  0
 19 17  2  0
 20 21  1  0
 21 22  2  0
 23 26  1  0
 23 22  1  0
 24 23  2  0
 25 24  1  0
 25 20  2  0
 26 27  1  0
 27 28  1  0
 28 29  2  0
 30 29  1  0
 30 34  1  0
 31 30  2  0
 32 27  2  0
 32 31  1  0
 33 32  1  0
 35 36  1  0
 36 39  1  0
 36 38  1  0
 37 35  2  0
 40 41  1  0
 40 15  1  0
 42 40  1  0
 43 44  1  0
 45 56  2  0
 46 44  1  0
 46 51  1  0
 47 55  1  0
 47 57  1  0
 48 54  1  0
 48 50  1  0
 49 55  1  0
 50 49  1  0
 51 50  2  0
 52 46  2  0
 53 52  1  0
 53 48  2  0
 54 47  1  0
 55 45  1  0
 57 59  2  0
 58 57  1  0
 60 58  1  0
 61 70  2  0
 61 66  1  0
 62 58  1  0
 62 66  1  0
 63 62  1  0
 64 65  1  0
 64 63  1  0
 65 61  1  0
 66 67  2  0
 67 68  1  0
 69 68  2  0
 70 69  1  0
 71 45  1  0
 71 72  1  0
 71 81  1  0
 72 75  1  0
 73 77  1  0
 73 72  1  0
 74 73  2  0
 77 76  1  0
 79 77  1  0
 79 80  1  0
 79 78  1  0
 81 84  1  1
 81 82  1  0
 83 81  1  0
M  ISO  4   1 100  14 100  43 101  44 101
M  END
>  <TORSDO>  (38) 
F 16

>  <SCORE>  (38) 
-15.898

>  <name>  (38) 
40

>  <ligand_id>  (38) 
40

>  <original_smiles>  (38) 
[H]c1c([H])c([H])c2c(c1[H])C([H])([H])C([H])([H])C([H])([H])C2([H])N([H])C(=O)C1([H])N(C(=O)C([H])(N([H])C(=O)C([H])(N([H])C([H])([H])[H])C([H])([H])[H])C(C([H])([H])[H])(C([H])([H])[H])C([H])([H])[H])C([H])([H])c2c([H])c(OC([H])([H])C3([H])C([H])([H])C([H])([H])N(C(=O)N4C([H])([H])C([H])([H])C([H])([H])C([H])(n5nc(-c6c([H])c([H])c(Oc7c([H])c([H])c(F)c([H])c7F)c([H])c6[H])c(C(=O)N([H])[H])c5N([H])[H])C4([H])[H])C([H])([H])C3([H])[H])c([H])c([H])c2C1([H])[H]

>  <smiles>  (38) 
[H]c1c([H])c([H])c2c(c1[H])C([H])([H])C([H])([H])C([H])([H])C2([H])N([H])C(=O)C1([H])N(C(=O)C([H])(N([H])C(=O)C([H])(N([H])C([H])([H])[H])C([H])([H])[H])C(C([H])([H])[H])(C([H])([H])[H])C([H])([H])[H])C([H])([H])c2c([H])c(OC([H])([H])C3([H])C([H])([H])C([H])([H])N(C(=O)N4C([H])([H])C([H])([H])C([H])([H])C([H])(n5nc(-c6c([H])c([H])c(Oc7c([H])c([H])c(F)c([H])c7F)c([H])c6[H])c(C(=O)N([H])[H])c5N([H])[H])C4([H])[H])C([H])([H])C3([H])[H])c([H])c([H])c2C1([H])[H]

$$$$
41:0:0
     RDKit          3D

 94101  0  0  1  0  0  0  0  0999 V2000
  -27.6350  -21.0900   19.1870 C   0  0  0  0  0  1  0  0  0  0  0  0
  -28.5960  -21.2850   20.3680 C   0  0  0  0  0  3  0  0  0  0  0  0
  -29.4470  -19.7600   20.8370 C   0  0  0  0  0  2  0  0  0  0  0  0
  -29.9640  -18.2190   20.0730 C   0  0  0  0  0  0  0  0  0  0  0  0
  -30.7260  -15.4250   20.3970 C   0  0  0  0  0  0  0  0  0  0  0  0
  -30.6790  -13.0470   19.4120 C   0  0  0  0  0  2  0  0  0  0  0  0
  -29.7680  -12.9690   18.1630 C   0  0  0  0  0  2  0  0  0  0  0  0
  -28.2960  -12.7310   18.5530 C   0  0  0  0  0  2  0  0  0  0  0  0
  -27.8630  -13.6090   19.7560 C   0  0  0  0  0  3  0  0  0  0  0  0
  -28.9050  -13.6330   20.8940 C   0  0  0  0  0  2  0  0  0  0  0  0
  -30.1600  -14.1310   20.3150 N   0  0  0  0  0  0  0  0  0  0  0  0
  -31.9300  -15.4630   20.1050 O   0  0  0  0  0  0  0  0  0  0  0  0
  -29.9510  -16.6540   20.6040 N   0  0  0  0  0  4  0  0  0  0  0  0
  -29.0300  -16.4070   20.9380 H   0  0  0  0  0  0  0  0  0  0  0  0
  -25.4670  -14.1490   20.4460 C   0  0  0  0  0  0  0  0  0  0  0  0
  -24.4020  -13.3670   20.7970 C   0  0  0  0  0  0  0  0  0  0  0  0
  -24.8800  -12.0200   20.7820 C   0  0  0  0  0  0  0  0  0  0  0  0
  -26.5230  -13.2840   20.2310 N   0  0  0  0  0  0  0  0  0  0  0  0
  -26.1790  -11.9970   20.4990 N   0  0  0  0  0  0  0  0  0  0  0  0
  -24.1590  -10.7530   20.9600 C   0  0  0  0  0  0  0  0  0  0  0  0
  -24.5690   -9.8000   21.9160 C   0  0  0  0  0  3  0  0  0  0  0  0
  -23.8460   -8.5980   22.0870 C   0  0  0  0  0  3  0  0  0  0  0  0
  -22.6950   -8.3440   21.2990 C   0  0  0  0  0  0  0  0  0  0  0  0
  -22.3050   -9.2890   20.3340 C   0  0  0  0  0  3  0  0  0  0  0  0
  -23.0290  -10.4810   20.1620 C   0  0  0  0  0  3  0  0  0  0  0  0
  -21.9440   -7.1960   21.3800 O   0  0  0  0  0  0  0  0  0  0  0  0
  -21.8480   -6.4770   22.5450 C   0  0  0  0  0  0  0  0  0  0  0  0
  -21.3710   -7.0550   23.7420 C   0  0  0  0  0  3  0  0  0  0  0  0
  -21.2220   -6.2600   24.8960 C   0  0  0  0  0  3  0  0  0  0  0  0
  -21.5430   -4.8900   24.8540 C   0  0  0  0  0  0  0  0  0  0  0  0
  -22.0140   -4.3120   23.6630 C   0  0  0  0  0  3  0  0  0  0  0  0
  -22.1650   -5.1030   22.5100 C   0  0  0  0  0  0  0  0  0  0  0  0
  -22.5980   -4.5380   21.3590 F   0  0  0  0  0  0  0  0  0  0  0  0
  -21.3930   -4.1250   25.9600 F   0  0  0  0  0  0  0  0  0  0  0  0
  -22.9940  -13.8380   21.0220 C   0  0  0  0  0  0  0  0  0  0  0  0
  -22.2550  -13.1680   21.8970 N   0  0  0  0  0  0  0  0  0  0  0  0
  -22.5570  -14.8380   20.4530 O   0  0  0  0  0  0  0  0  0  0  0  0
  -22.6150  -12.3610   22.3850 H   0  0  0  0  0  0  0  0  0  0  0  0
  -21.3070  -13.4680   22.0780 H   0  0  0  0  0  0  0  0  0  0  0  0
  -25.6200  -15.5210   20.2640 N   0  0  0  0  0  0  0  0  0  0  0  0
  -24.8510  -16.1710   20.3790 H   0  0  0  0  0  0  0  0  0  0  0  0
  -26.4570  -15.9640   19.9090 H   0  0  0  0  0  0  0  0  0  0  0  0
  -29.4180  -18.1470   18.6230 C   0  0  0  0  0  2  0  0  0  0  0  0
  -30.8990  -20.0860   17.7680 C   0  0  0  0  0  1  0  0  0  0  0  0
  -31.4430  -17.7080   17.1630 C   0  0  0  0  0  1  0  0  0  0  0  0
  -29.4060  -18.8230   16.2170 C   0  0  0  0  0  1  0  0  0  0  0  0
  -30.3000  -18.6950   17.4680 C   0  0  1  0  0  0  0  0  0  0  0  0
  -29.0290  -23.0150   20.4020 C   0  0  0  0  0  3  0  0  0  0  0  0
  -29.8800  -23.1880   21.5990 N   0  0  0  0  0  4  0  0  0  0  0  0
  -29.3530  -23.0760   22.4500 H   0  0  0  0  0  0  0  0  0  0  0  0
  -30.3170  -24.0950   21.6140 H   0  0  0  0  0  0  0  0  0  0  0  0
  -30.6180  -22.5040   21.5980 H   0  0  0  0  0  0  0  0  0  0  0  0
  -27.9960  -24.4690   20.2320 C   0  0  0  0  0  2  0  0  0  0  0  0
  -28.2370  -26.0880   20.2430 O   0  0  0  0  0  0  0  0  0  0  0  0
  -24.5920  -31.9480   23.2370 C   0  0  0  0  0  0  0  0  0  0  0  0
  -27.1940  -27.1430   20.1910 C   0  0  0  0  0  0  0  0  0  0  0  0
  -23.3990  -30.5360   21.6100 C   0  0  0  0  0  3  0  0  0  0  0  0
  -24.8550  -28.9590   20.1730 C   0  0  0  0  0  0  0  0  0  0  0  0
  -25.9580  -30.7970   21.4350 C   0  0  0  0  0  2  0  0  0  0  0  0
  -26.0420  -29.3930   20.7720 C   0  0  0  0  0  0  0  0  0  0  0  0
  -27.2090  -28.5080   20.7540 C   0  0  0  0  0  3  0  0  0  0  0  0
  -25.9720  -26.8500   19.5440 C   0  0  0  0  0  3  0  0  0  0  0  0
  -24.8430  -27.7060   19.5390 C   0  0  0  0  0  3  0  0  0  0  0  0
  -23.6200  -29.8540   20.2330 C   0  0  0  0  0  2  0  0  0  0  0  0
  -24.6710  -31.1180   22.1470 N   0  0  0  0  0  0  0  0  0  0  0  0
  -23.5050  -32.2230   23.7700 O   0  0  0  0  0  0  0  0  0  0  0  0
  -22.7310  -29.5290   22.5840 C   0  0  0  0  0  0  0  0  0  0  0  0
  -21.4060  -29.3320   22.4580 N   0  0  0  0  0  0  0  0  0  0  0  0
  -23.4110  -28.9250   23.4180 O   0  0  0  0  0  0  0  0  0  0  0  0
  -20.9110  -29.8650   21.7570 H   0  0  0  0  0  0  0  0  0  0  0  0
  -18.0540  -28.0350   22.9660 C   0  0  0  0  0  0  0  0  0  0  0  0
  -20.6040  -28.3820   23.2370 C   0  0  0  0  0  3  0  0  0  0  0  0
  -20.7510  -26.9460   22.6820 C   0  0  0  0  0  2  0  0  0  0  0  0
  -19.6650  -26.5750   21.6690 C   0  0  0  0  0  2  0  0  0  0  0  0
  -18.2760  -26.6840   22.3050 C   0  0  0  0  0  2  0  0  0  0  0  0
  -19.1480  -28.8380   23.3890 C   0  0  0  0  0  0  0  0  0  0  0  0
  -18.8870  -30.0960   23.9720 C   0  0  0  0  0  3  0  0  0  0  0  0
  -17.5660  -30.5560   24.1350 C   0  0  0  0  0  3  0  0  0  0  0  0
  -16.4860  -29.7510   23.7290 C   0  0  0  0  0  3  0  0  0  0  0  0
  -16.7330  -28.4920   23.1490 C   0  0  0  0  0  3  0  0  0  0  0  0
  -25.8630  -32.6080   23.8540 C   0  0  0  0  0  3  0  0  0  0  0  0
  -26.3790  -31.8630   25.1480 C   0  0  1  0  0  0  0  0  0  0  0  0
  -25.2800  -31.6340   26.2130 C   0  0  0  0  0  1  0  0  0  0  0  0
  -26.9800  -30.4840   24.7960 C   0  0  0  0  0  1  0  0  0  0  0  0
  -27.5240  -32.6770   25.7940 C   0  0  0  0  0  1  0  0  0  0  0  0
  -25.5410  -34.0100   24.1700 N   0  0  0  0  0  0  0  0  0  0  0  0
  -25.8950  -35.0640   23.4230 C   0  0  0  0  0  0  0  0  0  0  0  0
  -26.5900  -34.9570   22.4090 O   0  0  0  0  0  0  0  0  0  0  0  0
  -24.9300  -34.1670   24.9580 H   0  0  0  0  0  0  0  0  0  0  0  0
  -24.1850  -36.8620   23.0180 C   0  0  0  0  0  1  0  0  0  0  0  0
  -25.4010  -36.4560   23.8670 C   0  0  0  0  0  3  0  0  0  0  0  0
  -27.5160  -37.3270   24.7590 C   0  0  0  0  0  1  0  0  0  0  0  0
  -26.4410  -37.5050   23.7840 N   0  0  0  0  0  0  0  0  0  0  0  0
  -26.0380  -38.4270   23.9230 H   0  0  0  0  0  0  0  0  0  0  0  0
  2  1  1  0
  2 48  1  0
  2  3  1  0
  4 13  2  3
  4  3  1  0
  5 13  1  0
  6 11  1  0
  7  8  1  0
  7  6  1  0
  9  8  1  0
  9 18  1  0
  9 10  1  0
 11  5  1  0
 11 10  1  0
 12  5  2  0
 13 14  1  0
 15 16  2  0
 16 35  1  0
 17 16  1  0
 17 20  1  0
 18 15  1  0
 18 19  1  0
 19 17  2  0
 20 21  1  0
 21 22  2  0
 23 26  1  0
 23 22  1  0
 24 23  2  0
 25 24  1  0
 25 20  2  0
 26 27  1  0
 27 28  1  0
 28 29  2  0
 30 29  1  0
 30 34  1  0
 31 30  2  0
 32 27  2  0
 32 31  1  0
 33 32  1  0
 35 36  1  0
 36 39  1  0
 36 38  1  0
 37 35  2  0
 40 41  1  0
 40 15  1  0
 42 40  1  0
 43  4  1  0
 47 45  1  6
 46 47  1  0
 47 44  1  0
 47 43  1  0
 48 53  1  0
 48 49  1  0
 49 51  1  0
 49 50  1  0
 52 49  1  0
 53 54  1  0
 55 66  2  0
 56 54  1  0
 56 61  1  0
 57 65  1  0
 57 67  1  0
 58 64  1  0
 58 60  1  0
 59 65  1  0
 60 59  1  0
 61 60  2  0
 62 56  2  0
 63 62  1  0
 63 58  2  0
 64 57  1  0
 65 55  1  0
 67 69  2  0
 68 67  1  0
 70 68  1  0
 71 80  2  0
 71 76  1  0
 72 68  1  0
 72 76  1  0
 73 72  1  0
 74 75  1  0
 74 73  1  0
 75 71  1  0
 76 77  2  0
 77 78  1  0
 79 78  2  0
 80 79  1  0
 81 55  1  0
 81 86  1  0
 81 82  1  0
 82 85  1  1
 82 83  1  0
 84 82  1  0
 86 89  1  0
 87 91  1  0
 87 86  1  0
 88 87  2  0
 91 90  1  0
 93 91  1  0
 93 94  1  0
 93 92  1  0
M  ISO  4   5 100  13 100  53 101  54 101
M  END
>  <TORSDO>  (39) 
F 23

>  <SCORE>  (39) 
-14.741

>  <name>  (39) 
41

>  <ligand_id>  (39) 
41

>  <original_smiles>  (39) 
[H]c1c([H])c([H])c2c(c1[H])C([H])([H])C([H])([H])C([H])([H])C2([H])N([H])C(=O)C1([H])N(C(=O)C([H])(N([H])C(=O)C([H])(N([H])C([H])([H])[H])C([H])([H])[H])C(C([H])([H])[H])(C([H])([H])[H])C([H])([H])[H])C([H])([H])c2c([H])c(OC([H])([H])C([H])(C([H])(C([H])([H])[H])C([H])([H])C([H])(N([H])C(=O)N3C([H])([H])C([H])([H])C([H])([H])C([H])(n4nc(-c5c([H])c([H])c(Oc6c([H])c([H])c(F)c([H])c6F)c([H])c5[H])c(C(=O)N([H])[H])c4N([H])[H])C3([H])[H])C([H])([H])C(C([H])([H])[H])(C([H])([H])[H])C([H])([H])[H])[N+]([H])([H])[H])c([H])c([H])c2C1([H])[H]

>  <smiles>  (39) 
[H]c1c([H])c([H])c2c(c1[H])C([H])([H])C([H])([H])C([H])([H])C2([H])N([H])C(=O)C1([H])N(C(=O)C([H])(N([H])C(=O)C([H])(N([H])C([H])([H])[H])C([H])([H])[H])C(C([H])([H])[H])(C([H])([H])[H])C([H])([H])[H])C([H])([H])c2c([H])c(OC([H])([H])C([H])(C([H])(C([H])([H])[H])C([H])([H])C([H])(N([H])C(=O)N3C([H])([H])C([H])([H])C([H])([H])C([H])(n4nc(-c5c([H])c([H])c(Oc6c([H])c([H])c(F)c([H])c6F)c([H])c5[H])c(C(=O)N([H])[H])c4N([H])[H])C3([H])[H])C([H])([H])C(C([H])([H])[H])(C([H])([H])[H])C([H])([H])[H])[N+]([H])([H])[H])c([H])c([H])c2C1([H])[H]

$$$$
42:0:0
     RDKit          3D

102102  0  0  1  0  0  0  0  0999 V2000
  -24.4700  -22.8310   17.8420 C   0  0  0  0  0  2  0  0  0  0  0  0
  -26.0160  -22.5980   17.7480 C   0  0  0  0  0  2  0  0  0  0  0  0
  -26.8900  -23.5680   16.8970 C   0  0  0  0  0  3  0  0  0  0  0  0
  -26.0520  -24.5490   16.1780 N   0  0  0  0  0  4  0  0  0  0  0  0
  -26.6120  -25.1780   15.6280 H   0  0  0  0  0  0  0  0  0  0  0  0
  -25.5070  -25.0990   16.8230 H   0  0  0  0  0  0  0  0  0  0  0  0
  -25.4390  -24.0610   15.5510 H   0  0  0  0  0  0  0  0  0  0  0  0
  -28.0220  -24.3550   17.6670 C   0  0  0  0  0  0  0  0  0  0  0  0
  -28.1100  -25.5870   17.6400 O   0  0  0  0  0  0  0  0  0  0  0  0
  -29.1280  -23.5120   18.3920 C   0  0  0  0  0  2  0  0  0  0  0  0
  -30.5150  -23.9030   18.1250 O   0  0  0  0  0  0  0  0  0  0  0  0
  -37.0320  -21.8500   15.9180 C   0  0  0  0  0  0  0  0  0  0  0  0
  -31.2800  -23.0400   17.3580 C   0  0  0  0  0  0  0  0  0  0  0  0
  -35.1240  -21.2370   14.5450 C   0  0  0  0  0  3  0  0  0  0  0  0
  -32.8200  -21.4690   15.5740 C   0  0  0  0  0  0  0  0  0  0  0  0
  -34.8200  -21.5310   17.0530 C   0  0  0  0  0  2  0  0  0  0  0  0
  -33.3930  -21.9490   16.7600 C   0  0  0  0  0  0  0  0  0  0  0  0
  -32.6440  -22.7790   17.6350 C   0  0  0  0  0  3  0  0  0  0  0  0
  -30.7060  -22.3870   16.2500 C   0  0  0  0  0  3  0  0  0  0  0  0
  -31.4690  -21.7000   15.3050 C   0  0  0  0  0  3  0  0  0  0  0  0
  -33.6960  -20.6490   14.6520 C   0  0  0  0  0  2  0  0  0  0  0  0
  -35.7090  -21.5440   15.8700 N   0  0  0  0  0  0  0  0  0  0  0  0
  -37.7450  -21.8190   14.9040 O   0  0  0  0  0  0  0  0  0  0  0  0
  -35.0530  -22.5180   13.7360 C   0  0  0  0  0  0  0  0  0  0  0  0
  -35.2070  -22.3700   12.4530 N   0  0  0  0  0  0  0  0  0  0  0  0
  -34.7540  -23.6070   14.2340 O   0  0  0  0  0  0  0  0  0  0  0  0
  -35.5500  -21.5070   12.0520 H   0  0  0  0  0  0  0  0  0  0  0  0
  -35.2390  -23.8800    8.7480 C   0  0  2  0  0  0  0  0  0  0  0  0
  -34.5310  -23.3220   11.5790 C   0  0  0  0  0  3  0  0  0  0  0  0
  -33.1650  -22.5650   10.9210 C   0  0  0  0  0  2  0  0  0  0  0  0
  -32.8980  -22.4490    9.1890 C   0  0  0  0  0  3  0  0  0  0  0  0
  -33.9750  -23.1430    8.0690 C   0  0  0  0  0  3  0  0  0  0  0  0
  -35.5250  -23.9460   10.5210 C   0  0  2  0  0  0  0  0  0  0  0  0
  -36.6350  -24.2550   11.2540 C   0  0  0  0  0  2  0  0  0  0  0  0
  -36.9590  -23.5080   10.3230 C   0  0  0  0  0  3  0  0  0  0  0  0
  -36.7170  -23.4210    8.5560 C   0  0  0  0  0  3  0  0  0  0  0  0
  -36.0750  -24.0400    7.7040 C   0  0  0  0  0  2  0  0  0  0  0  0
  -37.7020  -22.2340   17.2610 C   0  0  0  0  0  3  0  0  0  0  0  0
  -38.0450  -23.7680   17.3610 C   0  0  1  0  0  0  0  0  0  0  0  0
  -38.9250  -24.2950   16.2040 C   0  0  0  0  0  1  0  0  0  0  0  0
  -36.7560  -24.6210   17.3960 C   0  0  0  0  0  1  0  0  0  0  0  0
  -38.7910  -24.0320   18.6890 C   0  0  0  0  0  1  0  0  0  0  0  0
  -38.9070  -21.4060   17.3700 N   0  0  0  0  0  0  0  0  0  0  0  0
  -38.9430  -20.2100   17.9700 C   0  0  0  0  0  0  0  0  0  0  0  0
  -37.9730  -19.7320   18.5670 O   0  0  0  0  0  0  0  0  0  0  0  0
  -39.7230  -21.7140   16.8600 H   0  0  0  0  0  0  0  0  0  0  0  0
  -40.1880  -18.3650   16.8040 C   0  0  0  0  0  1  0  0  0  0  0  0
  -40.2660  -19.4300   17.9080 C   0  0  0  0  0  3  0  0  0  0  0  0
  -41.0090  -19.7600   20.2250 C   0  0  0  0  0  1  0  0  0  0  0  0
  -40.6330  -18.7970   19.1930 N   0  0  0  0  0  0  0  0  0  0  0  0
  -41.4070  -18.1500   19.0670 H   0  0  0  0  0  0  0  0  0  0  0  0
  -23.8150  -22.0350   18.9950 C   0  0  0  0  0  3  0  0  0  0  0  0
  -22.2460  -22.0360   19.0140 C   0  0  0  0  0  2  0  0  0  0  0  0
  -19.9700  -23.1580   19.2540 C   0  0  0  0  0  1  0  0  0  0  0  0
  -21.0780  -22.5850   21.3940 C   0  0  0  0  0  1  0  0  0  0  0  0
  -21.3530  -22.9700   19.9170 C   0  0  0  0  0  3  0  0  0  0  0  0
  -24.4920  -22.4490   20.2910 C   0  0  0  0  0  1  0  0  0  0  0  0
  -28.2470  -19.4950   19.7730 C   0  0  0  0  0  2  0  0  0  0  0  0
  -30.2730  -17.0920   18.8530 C   0  0  0  0  0  2  0  0  0  0  0  0
  -30.2880  -15.6990   17.9380 C   0  0  0  0  0  2  0  0  0  0  0  0
  -29.3560  -14.6120   18.4640 C   0  0  0  0  0  2  0  0  0  0  0  0
  -28.3530  -15.4640   19.2180 C   0  0  0  0  0  3  0  0  0  0  0  0
  -28.8280  -16.5100   20.2850 C   0  0  0  0  0  2  0  0  0  0  0  0
  -28.8910  -17.8740   19.5690 N   0  0  0  0  0  0  0  0  0  0  0  0
  -29.5720  -19.6580   19.5860 O   0  0  0  0  0  1  0  0  0  0  0  0
  -26.6220  -20.8970   20.0150 N   0  0  0  0  0  1  0  0  0  0  0  0
  -27.2630  -21.6800   19.9970 H   0  0  0  0  0  0  0  0  0  0  0  0
  -26.0960  -15.6080   20.0260 C   0  0  0  0  0  0  0  0  0  0  0  0
  -25.2190  -14.7030   20.4910 C   0  0  0  0  0  0  0  0  0  0  0  0
  -25.8760  -13.4330   20.4130 C   0  0  0  0  0  0  0  0  0  0  0  0
  -27.2040  -14.8670   19.7090 N   0  0  0  0  0  0  0  0  0  0  0  0
  -27.1240  -13.5560   19.9860 N   0  0  0  0  0  0  0  0  0  0  0  0
  -25.3450  -12.1000   20.6490 C   0  0  0  0  0  0  0  0  0  0  0  0
  -25.7240  -11.3340   21.7720 C   0  0  0  0  0  3  0  0  0  0  0  0
  -25.1580  -10.0600   21.9770 C   0  0  0  0  0  3  0  0  0  0  0  0
  -24.2060   -9.5560   21.0600 C   0  0  0  0  0  0  0  0  0  0  0  0
  -23.8600  -10.3120   19.9270 C   0  0  0  0  0  3  0  0  0  0  0  0
  -24.4290  -11.5740   19.7190 C   0  0  0  0  0  3  0  0  0  0  0  0
  -23.6170   -8.3220   21.1670 O   0  0  0  0  0  0  0  0  0  0  0  0
  -22.8590   -7.9880   22.2570 C   0  0  0  0  0  0  0  0  0  0  0  0
  -21.8200   -8.8190   22.7280 C   0  0  0  0  0  3  0  0  0  0  0  0
  -21.0220   -8.3980   23.8100 C   0  0  0  0  0  3  0  0  0  0  0  0
  -21.2560   -7.1470   24.4140 C   0  0  0  0  0  0  0  0  0  0  0  0
  -22.2950   -6.3230   23.9470 C   0  0  0  0  0  3  0  0  0  0  0  0
  -23.0920   -6.7410   22.8690 C   0  0  0  0  0  0  0  0  0  0  0  0
  -24.0760   -5.9330   22.4050 F   0  0  0  0  0  0  0  0  0  0  0  0
  -20.4860   -6.7410   25.4500 F   0  0  0  0  0  0  0  0  0  0  0  0
  -23.8180  -15.0200   20.8790 C   0  0  0  0  0  0  0  0  0  0  0  0
  -23.2970  -14.3100   21.8670 N   0  0  0  0  0  0  0  0  0  0  0  0
  -23.2130  -15.9500   20.3440 O   0  0  0  0  0  0  0  0  0  0  0  0
  -23.8310  -13.5820   22.3150 H   0  0  0  0  0  0  0  0  0  0  0  0
  -22.3580  -14.4930   22.1850 H   0  0  0  0  0  0  0  0  0  0  0  0
  -26.0310  -16.9900   19.8290 N   0  0  0  0  0  0  0  0  0  0  0  0
  -25.1430  -17.4710   19.9210 H   0  0  0  0  0  0  0  0  0  0  0  0
  -26.7060  -17.4830   19.2610 H   0  0  0  0  0  0  0  0  0  0  0  0
  -22.5030  -24.7040   20.7340 C   0  0  0  0  0 15  0  0  0  0  0  0
  -16.1040  -30.4610   22.4990 C   0  0  0  0  0 15  0  0  0  0  0  0
  -17.9050  -29.3120   23.7050 C   0  0  0  0  0 15  0  0  0  0  0  0
  -15.9420  -29.6990   20.1180 C   0  0  0  0  0 15  0  0  0  0  0  0
  -19.5690  -27.7270   23.1880 C   0  0  0  0  0 15  0  0  0  0  0  0
  -17.5200  -28.0220   19.4590 C   0  0  0  0  0 15  0  0  0  0  0  0
  -20.0890  -26.4980   21.2160 C   0  0  0  0  0 15  0  0  0  0  0  0
  1 52  1  0
  2  1  1  0
  3  8  1  0
  3  2  1  0
  4  6  1  0
  4  3  1  0
  5  4  1  0
  7  4  1  0
  8 10  1  0
  9  8  2  0
 11 10  1  0
 13 18  1  0
 13 11  1  0
 14 24  1  0
 14 21  1  0
 14 22  1  0
 15 17  1  0
 17 16  1  0
 17 18  2  0
 19 13  2  0
 20 15  2  0
 20 19  1  0
 21 15  1  0
 22 12  1  0
 22 16  1  0
 23 12  2  0
 24 26  2  0
 25 24  1  0
 27 25  1  0
 28 37  1  1
 28 33  1  0
 29 25  1  0
 30 29  1  0
 31 30  1  0
 32 28  1  0
 32 31  2  0
 33 34  1  6
 33 29  1  0
 35 33  1  0
 35 34  1  0
 36 37  1  0
 36 28  1  0
 36 35  1  0
 38 12  1  0
 38 39  1  0
 38 43  1  0
 39 41  1  1
 39 42  1  0
 40 39  1  0
 43 44  1  0
 44 45  2  0
 46 43  1  0
 48 47  1  0
 48 44  1  0
 48 50  1  0
 50 49  1  0
 51 50  1  0
 52 53  1  0
 52 57  1  0
 53 56  1  0
 54 56  1  0
 56 55  1  0
 59 64  1  0
 60 61  1  0
 60 59  1  0
 62 61  1  0
 62 71  1  0
 62 63  1  0
 64 58  1  0
 64 63  1  0
 65 58  1  0
 67 66  1  0
 68 69  2  0
 69 88  1  0
 70 69  1  0
 70 73  1  0
 71 72  1  0
 71 68  1  0
 72 70  2  0
 73 74  1  0
 74 75  2  0
 76 79  1  0
 76 75  1  0
 77 76  2  0
 78 77  1  0
 78 73  2  0
 79 80  1  0
 80 81  2  0
 80 85  1  0
 81 82  1  0
 82 83  2  0
 83 87  1  0
 84 83  1  0
 85 84  2  0
 86 85  1  0
 88 89  1  0
 89 92  1  0
 89 91  1  0
 90 88  2  0
 93 94  1  0
 93 68  1  0
 95 93  1  0
M  ISO  4  10 101  11 101  58 100  66 100
M  END
>  <TORSDO>  (40) 
F 27

>  <SCORE>  (40) 
6.563

>  <name>  (40) 
42

>  <ligand_id>  (40) 
42

>  <original_smiles>  (40) 
[H]c1c([H])c([H])c2c(c1[H])C([H])([H])C([H])([H])C([H])([H])C2([H])N([H])C(=O)C1([H])N(C(=O)C([H])(N([H])C(=O)C([H])(N([H])C([H])([H])[H])C([H])([H])[H])C(C([H])([H])[H])(C([H])([H])[H])C([H])([H])[H])C([H])([H])c2c([H])c(OC([H])([H])C(=O)C([H])(C([H])([H])C([H])([H])C([H])(C([H])([H])C([H])(C([H])([H])[H])C([H])([H])[H])C([H])(N([H])C(=O)N3C([H])([H])C([H])([H])C([H])([H])C([H])(n4nc(-c5c([H])c([H])c(Oc6c([H])c([H])c(F)c([H])c6F)c([H])c5[H])c(C(=O)N([H])[H])c4N([H])[H])C3([H])[H])C([H])([H])C3([H])C([H])([H])C([H])([H])C([H])([H])C([H])([H])C3([H])[H])[N+]([H])([H])[H])c([H])c([H])c2C1([H])[H]

>  <smiles>  (40) 
[H]c1c([H])c([H])c2c(c1[H])C([H])([H])C([H])([H])C([H])([H])C2([H])N([H])C(=O)C1([H])N(C(=O)C([H])(N([H])C(=O)C([H])(N([H])C([H])([H])[H])C([H])([H])[H])C(C([H])([H])[H])(C([H])([H])[H])C([H])([H])[H])C([H])([H])c2c([H])c(OC([H])([H])C(=O)C([H])(C([H])([H])C([H])([H])C([H])(C([H])([H])C([H])(C([H])([H])[H])C([H])([H])[H])C([H])(N([H])C(=O)N3C([H])([H])C([H])([H])C([H])([H])C([H])(n4nc(-c5c([H])c([H])c(Oc6c([H])c([H])c(F)c([H])c6F)c([H])c5[H])c(C(=O)N([H])[H])c4N([H])[H])C3([H])[H])C([H])([H])C3([H])C([H])([H])C([H])([H])C([H])([H])C([H])([H])C3([H])[H])[N+]([H])([H])[H])c([H])c([H])c2C1([H])[H]

$$$$
43:0:0
     RDKit          3D

 99106  0  0  1  0  0  0  0  0999 V2000
  -30.0400  -20.5030   19.8340 C   0  0  0  0  0  2  0  0  0  0  0  0
  -29.7800  -21.8700   20.4890 C   0  0  0  0  0  2  0  0  0  0  0  0
  -30.4600  -23.0570   19.7790 C   0  0  0  0  0  2  0  0  0  0  0  0
  -29.9440  -24.3560   20.2790 N   0  0  0  0  0  4  0  0  0  0  0  0
  -30.2000  -24.4730   21.2480 H   0  0  0  0  0  0  0  0  0  0  0  0
  -28.9370  -24.3080   20.2540 H   0  0  0  0  0  0  0  0  0  0  0  0
  -31.4910  -26.3200   20.1980 C   0  0  0  0  0  1  0  0  0  0  0  0
  -30.3480  -25.5540   19.4980 C   0  0  0  0  0  3  0  0  0  0  0  0
  -29.1060  -26.4230   19.1690 C   0  0  0  0  0  2  0  0  0  0  0  0
  -28.5640  -26.9990   20.3570 O   0  0  0  0  0  0  0  0  0  0  0  0
  -24.5430  -32.0190   23.3470 C   0  0  0  0  0  0  0  0  0  0  0  0
  -27.3580  -27.6680   20.2830 C   0  0  0  0  0  0  0  0  0  0  0  0
  -23.3890  -30.5930   21.6810 C   0  0  0  0  0  3  0  0  0  0  0  0
  -24.9040  -29.0850   20.2760 C   0  0  0  0  0  0  0  0  0  0  0  0
  -25.9060  -31.0090   21.5260 C   0  0  0  0  0  2  0  0  0  0  0  0
  -26.0340  -29.6420   20.8860 C   0  0  0  0  0  0  0  0  0  0  0  0
  -27.2530  -28.9320   20.9020 C   0  0  0  0  0  3  0  0  0  0  0  0
  -26.2050  -27.1110   19.6780 C   0  0  0  0  0  3  0  0  0  0  0  0
  -24.9830  -27.8140   19.6760 C   0  0  0  0  0  3  0  0  0  0  0  0
  -23.6340  -29.9060   20.3080 C   0  0  0  0  0  2  0  0  0  0  0  0
  -24.6290  -31.2210   22.2430 N   0  0  0  0  0  0  0  0  0  0  0  0
  -23.4500  -32.2730   23.8710 O   0  0  0  0  0  0  0  0  0  0  0  0
  -22.7420  -29.5650   22.6360 C   0  0  0  0  0  0  0  0  0  0  0  0
  -21.4270  -29.3440   22.4730 N   0  0  0  0  0  0  0  0  0  0  0  0
  -23.4200  -28.9690   23.4770 O   0  0  0  0  0  0  0  0  0  0  0  0
  -20.9420  -29.8750   21.7630 H   0  0  0  0  0  0  0  0  0  0  0  0
  -18.0800  -28.0410   22.8690 C   0  0  0  0  0  0  0  0  0  0  0  0
  -20.6170  -28.3870   23.2250 C   0  0  0  0  0  3  0  0  0  0  0  0
  -20.7890  -26.9550   22.6690 C   0  0  0  0  0  2  0  0  0  0  0  0
  -19.7330  -26.5840   21.6210 C   0  0  0  0  0  2  0  0  0  0  0  0
  -18.3260  -26.6920   22.2150 C   0  0  0  0  0  2  0  0  0  0  0  0
  -19.1570  -28.8440   23.3290 C   0  0  0  0  0  0  0  0  0  0  0  0
  -18.8770  -30.1050   23.8970 C   0  0  0  0  0  3  0  0  0  0  0  0
  -17.5520  -30.5660   24.0110 C   0  0  0  0  0  3  0  0  0  0  0  0
  -16.4880  -29.7590   23.5700 C   0  0  0  0  0  3  0  0  0  0  0  0
  -16.7540  -28.5000   23.0050 C   0  0  0  0  0  3  0  0  0  0  0  0
  -25.8110  -32.6700   23.9850 C   0  0  0  0  0  3  0  0  0  0  0  0
  -25.4930  -34.0750   24.2690 N   0  0  0  0  0  0  0  0  0  0  0  0
  -25.8500  -35.1070   23.4940 C   0  0  0  0  0  0  0  0  0  0  0  0
  -26.5530  -34.9760   22.4870 O   0  0  0  0  0  0  0  0  0  0  0  0
  -24.8680  -34.2500   25.0440 H   0  0  0  0  0  0  0  0  0  0  0  0
  -24.1270  -36.8800   23.0420 C   0  0  0  0  0  1  0  0  0  0  0  0
  -25.3480  -36.5060   23.8990 C   0  0  0  0  0  3  0  0  0  0  0  0
  -27.4550  -37.4220   24.7600 C   0  0  0  0  0  1  0  0  0  0  0  0
  -26.3800  -37.5580   23.7810 N   0  0  0  0  0  0  0  0  0  0  0  0
  -25.9680  -38.4810   23.8870 H   0  0  0  0  0  0  0  0  0  0  0  0
  -26.3000  -31.9300   25.2920 C   0  0  1  0  0  0  0  0  0  0  0  0
  -25.1790  -31.7090   26.3330 C   0  0  0  0  0  1  0  0  0  0  0  0
  -26.9040  -30.5490   24.9490 C   0  0  0  0  0  1  0  0  0  0  0  0
  -27.4270  -32.7490   25.9660 C   0  0  0  0  0  1  0  0  0  0  0  0
  -29.3460  -19.3610   20.6010 C   0  0  0  0  0  2  0  0  0  0  0  0
  -29.3470  -17.9620   19.9340 C   0  0  0  0  0  3  0  0  0  0  0  0
  -28.9470  -17.9780   18.4240 C   0  0  0  0  0  2  0  0  0  0  0  0
  -26.7030  -19.2140   18.5790 C   0  0  0  0  0  1  0  0  0  0  0  0
  -27.9250  -19.0790   16.3870 C   0  0  0  0  0  1  0  0  0  0  0  0
  -28.0830  -19.1540   17.9150 C   0  0  0  0  0  3  0  0  0  0  0  0
  -30.6470  -17.1390   20.2530 C   0  0  0  0  0  3  0  0  0  0  0  0
  -31.0260  -14.6350   20.6540 C   0  0  0  0  0  0  0  0  0  0  0  0
  -30.7290  -12.4860   19.5620 C   0  0  0  0  0  2  0  0  0  0  0  0
  -29.8520  -12.7490   18.3180 C   0  0  0  0  0  2  0  0  0  0  0  0
  -28.3500  -12.6570   18.6720 C   0  0  0  0  0  2  0  0  0  0  0  0
  -27.9690  -13.4800   19.9340 C   0  0  0  0  0  3  0  0  0  0  0  0
  -28.9790  -13.2480   21.0830 C   0  0  0  0  0  2  0  0  0  0  0  0
  -30.3330  -13.4800   20.5580 N   0  0  0  0  0  0  0  0  0  0  0  0
  -32.2510  -14.6850   20.6170 O   0  0  0  0  0  0  0  0  0  0  0  0
  -30.2740  -15.7200   20.4250 N   0  0  0  0  0  0  0  0  0  0  0  0
  -29.2910  -15.5250   20.3320 H   0  0  0  0  0  0  0  0  0  0  0  0
  -25.5520  -14.1160   20.5410 C   0  0  0  0  0  0  0  0  0  0  0  0
  -24.4560  -13.3600   20.8520 C   0  0  0  0  0  0  0  0  0  0  0  0
  -24.9060  -12.0050   20.8650 C   0  0  0  0  0  0  0  0  0  0  0  0
  -26.5960  -13.2230   20.3590 N   0  0  0  0  0  0  0  0  0  0  0  0
  -26.2100  -11.9490   20.6200 N   0  0  0  0  0  0  0  0  0  0  0  0
  -24.1600  -10.7540   21.0370 C   0  0  0  0  0  0  0  0  0  0  0  0
  -24.5270   -9.8070   22.0170 C   0  0  0  0  0  3  0  0  0  0  0  0
  -23.7840   -8.6180   22.1760 C   0  0  0  0  0  3  0  0  0  0  0  0
  -22.6620   -8.3670   21.3500 C   0  0  0  0  0  0  0  0  0  0  0  0
  -22.3150   -9.3040   20.3600 C   0  0  0  0  0  3  0  0  0  0  0  0
  -23.0590  -10.4850   20.2000 C   0  0  0  0  0  3  0  0  0  0  0  0
  -21.8960   -7.2280   21.4130 O   0  0  0  0  0  0  0  0  0  0  0  0
  -21.7530   -6.5160   22.5760 C   0  0  0  0  0  0  0  0  0  0  0  0
  -21.2320   -7.1070   23.7480 C   0  0  0  0  0  3  0  0  0  0  0  0
  -21.0390   -6.3240   24.9060 C   0  0  0  0  0  3  0  0  0  0  0  0
  -21.3570   -4.9520   24.8880 C   0  0  0  0  0  0  0  0  0  0  0  0
  -21.8690   -4.3610   23.7200 C   0  0  0  0  0  3  0  0  0  0  0  0
  -22.0640   -5.1420   22.5670 C   0  0  0  0  0  0  0  0  0  0  0  0
  -22.5350   -4.5630   21.4360 F   0  0  0  0  0  0  0  0  0  0  0  0
  -21.1680   -4.1970   25.9960 F   0  0  0  0  0  0  0  0  0  0  0  0
  -23.0490  -13.8550   21.0390 C   0  0  0  0  0  0  0  0  0  0  0  0
  -22.2710  -13.1840   21.8820 N   0  0  0  0  0  0  0  0  0  0  0  0
  -22.6470  -14.8690   20.4710 O   0  0  0  0  0  0  0  0  0  0  0  0
  -22.6060  -12.3580   22.3580 H   0  0  0  0  0  0  0  0  0  0  0  0
  -21.3270  -13.4980   22.0480 H   0  0  0  0  0  0  0  0  0  0  0  0
  -25.7500  -15.4820   20.3890 N   0  0  0  0  0  0  0  0  0  0  0  0
  -25.0020  -16.1590   20.5000 H   0  0  0  0  0  0  0  0  0  0  0  0
  -26.6390  -15.9120   20.1790 H   0  0  0  0  0  0  0  0  0  0  0  0
  -33.1750  -17.6920   19.9920 C   0  0  0  0  0  1  0  0  0  0  0  0
  -31.8380  -17.4380   19.2660 C   0  0  0  0  0  3  0  0  0  0  0  0
  -32.8130  -17.0320   16.9160 C   0  0  0  0  0  1  0  0  0  0  0  0
  -32.0030  -16.4520   18.0790 C   0  0  0  0  0  2  0  0  0  0  0  0
  1  2  1  0
  1 51  1  0
  3  4  1  0
  3  2  1  0
  4  5  1  0
  6  4  1  0
  8  7  1  0
  8  4  1  0
  9  8  1  0
  9 10  1  0
 11 22  2  0
 12 10  1  0
 12 17  1  0
 13 21  1  0
 13 23  1  0
 14 20  1  0
 14 16  1  0
 15 21  1  0
 16 17  2  0
 16 15  1  0
 18 12  2  0
 19 18  1  0
 19 14  2  0
 20 13  1  0
 21 11  1  0
 23 25  2  0
 24 23  1  0
 26 24  1  0
 27 36  2  0
 27 32  1  0
 28 24  1  0
 28 32  1  0
 29 28  1  0
 30 31  1  0
 30 29  1  0
 31 27  1  0
 32 33  2  0
 33 34  1  0
 35 34  2  0
 36 35  1  0
 37 11  1  0
 37 38  1  0
 37 47  1  0
 38 41  1  0
 39 43  1  0
 39 38  1  0
 40 39  2  0
 43 42  1  0
 45 46  1  0
 45 43  1  0
 45 44  1  0
 47 50  1  1
 47 48  1  0
 49 47  1  0
 52 53  1  0
 52 57  1  0
 52 51  1  0
 55 56  1  0
 56 53  1  0
 56 54  1  0
 57 66  1  0
 59 64  1  0
 60 61  1  0
 60 59  1  0
 62 61  1  0
 62 71  1  0
 62 63  1  0
 64 58  1  0
 64 63  1  0
 65 58  2  0
 66 58  1  0
 67 66  1  0
 68 69  2  0
 69 70  1  0
 69 88  1  0
 70 73  1  0
 71 68  1  0
 71 72  1  0
 72 70  2  0
 73 74  1  0
 74 75  2  0
 76 79  1  0
 76 75  1  0
 77 76  2  0
 78 77  1  0
 78 73  2  0
 79 80  1  0
 80 81  1  0
 81 82  2  0
 83 82  1  0
 83 87  1  0
 84 83  2  0
 85 80  2  0
 85 84  1  0
 86 85  1  0
 88 89  1  0
 89 92  1  0
 89 91  1  0
 90 88  2  0
 93 94  1  0
 93 68  1  0
 95 93  1  0
 97 96  1  0
 97 57  1  0
 98 99  1  0
 99 97  1  0
M  ISO  4   9 101  10 101  58 100  66 100
M  END
>  <TORSDO>  (41) 
F 28

>  <SCORE>  (41) 
-11.387

>  <name>  (41) 
43

>  <ligand_id>  (41) 
43

>  <original_smiles>  (41) 
[H]c1c([H])c([H])c2c(c1[H])C([H])([H])C([H])([H])C([H])([H])C2([H])N([H])C(=O)C1([H])N(C(=O)C([H])(N([H])C(=O)C([H])(N([H])C([H])([H])[H])C([H])([H])[H])C(C([H])([H])[H])(C([H])([H])[H])C([H])([H])[H])C([H])([H])c2c([H])c(OC([H])([H])C([H])(C([H])([H])[H])[N+]([H])([H])C([H])([H])C([H])([H])C([H])([H])C([H])([H])C([H])(C([H])([H])C([H])(C([H])([H])[H])C([H])([H])[H])C([H])(N([H])C(=O)N3C([H])([H])C([H])([H])C([H])([H])C([H])(n4nc(-c5c([H])c([H])c(Oc6c([H])c([H])c(F)c([H])c6F)c([H])c5[H])c(C(=O)N([H])[H])c4N([H])[H])C3([H])[H])C([H])(C([H])([H])[H])C([H])([H])C([H])([H])[H])c([H])c([H])c2C1([H])[H]

>  <smiles>  (41) 
[H]c1c([H])c([H])c2c(c1[H])C([H])([H])C([H])([H])C([H])([H])C2([H])N([H])C(=O)C1([H])N(C(=O)C([H])(N([H])C(=O)C([H])(N([H])C([H])([H])[H])C([H])([H])[H])C(C([H])([H])[H])(C([H])([H])[H])C([H])([H])[H])C([H])([H])c2c([H])c(OC([H])([H])C([H])(C([H])([H])[H])[N+]([H])([H])C([H])([H])C([H])([H])C([H])([H])C([H])([H])C([H])(C([H])([H])C([H])(C([H])([H])[H])C([H])([H])[H])C([H])(N([H])C(=O)N3C([H])([H])C([H])([H])C([H])([H])C([H])(n4nc(-c5c([H])c([H])c(Oc6c([H])c([H])c(F)c([H])c6F)c([H])c5[H])c(C(=O)N([H])[H])c4N([H])[H])C3([H])[H])C([H])(C([H])([H])[H])C([H])([H])C([H])([H])[H])c([H])c([H])c2C1([H])[H]

$$$$
44:0:0
     RDKit          3D

 93100  0  0  1  0  0  0  0  0999 V2000
  -29.3390  -18.9840   19.8730 C   0  0  1  0  0  0  0  0  0  0  0  0
  -26.8660  -19.2250   18.8930 C   0  0  0  0  0  1  0  0  0  0  0  0
  -27.8660  -18.4720   19.7950 C   0  0  0  0  0  2  0  0  0  0  0  0
  -30.0190  -18.0120   17.5240 C   0  0  0  0  0  1  0  0  0  0  0  0
  -29.9780  -19.2390   18.4620 C   0  0  0  0  0  3  0  0  0  0  0  0
  -29.3510  -20.3770   17.7620 N   0  0  0  0  0  4  0  0  0  0  0  0
  -28.3790  -20.1910   17.5790 H   0  0  0  0  0  0  0  0  0  0  0  0
  -29.8170  -20.5670   16.8920 H   0  0  0  0  0  0  0  0  0  0  0  0
  -29.4100  -21.1940   18.3450 H   0  0  0  0  0  0  0  0  0  0  0  0
  -29.2910  -20.4640   20.7000 C   0  0  0  0  0  2  0  0  0  0  0  0
  -29.3470  -22.0980   20.2370 C   0  0  0  0  0  2  0  0  0  0  0  0
  -28.1700  -23.2840   20.0820 C   0  0  0  0  0  2  0  0  0  0  0  0
  -28.1480  -24.8280   20.7630 C   0  0  0  0  0  2  0  0  0  0  0  0
  -28.2220  -26.2590   20.1840 O   0  0  0  0  0  0  0  0  0  0  0  0
  -24.5800  -31.8980   23.2530 C   0  0  0  0  0  0  0  0  0  0  0  0
  -27.1400  -27.1950   20.2280 C   0  0  0  0  0  0  0  0  0  0  0  0
  -23.3710  -30.5040   21.6170 C   0  0  0  0  0  3  0  0  0  0  0  0
  -24.8090  -28.9180   20.1990 C   0  0  0  0  0  0  0  0  0  0  0  0
  -25.9210  -30.7710   21.4370 C   0  0  0  0  0  2  0  0  0  0  0  0
  -25.9910  -29.3750   20.7980 C   0  0  0  0  0  0  0  0  0  0  0  0
  -27.1600  -28.5320   20.7910 C   0  0  0  0  0  3  0  0  0  0  0  0
  -25.9340  -26.8210   19.6050 C   0  0  0  0  0  3  0  0  0  0  0  0
  -24.7930  -27.6540   19.5840 C   0  0  0  0  0  3  0  0  0  0  0  0
  -23.5850  -29.8170   20.2410 C   0  0  0  0  0  2  0  0  0  0  0  0
  -24.6440  -31.0800   22.1590 N   0  0  0  0  0  0  0  0  0  0  0  0
  -23.4970  -32.1860   23.7840 O   0  0  0  0  0  0  0  0  0  0  0  0
  -22.6930  -29.5010   22.5830 C   0  0  0  0  0  0  0  0  0  0  0  0
  -21.3670  -29.3250   22.4510 N   0  0  0  0  0  0  0  0  0  0  0  0
  -23.3630  -28.8830   23.4150 O   0  0  0  0  0  0  0  0  0  0  0  0
  -20.8810  -29.8750   21.7560 H   0  0  0  0  0  0  0  0  0  0  0  0
  -17.9850  -28.1310   22.9540 C   0  0  0  0  0  0  0  0  0  0  0  0
  -20.5440  -28.3910   23.2230 C   0  0  0  0  0  3  0  0  0  0  0  0
  -20.6440  -26.9570   22.6520 C   0  0  0  0  0  2  0  0  0  0  0  0
  -19.5430  -26.6340   21.6370 C   0  0  0  0  0  2  0  0  0  0  0  0
  -18.1610  -26.7810   22.2790 C   0  0  0  0  0  2  0  0  0  0  0  0
  -19.1040  -28.8930   23.3840 C   0  0  0  0  0  0  0  0  0  0  0  0
  -18.8850  -30.1560   23.9760 C   0  0  0  0  0  3  0  0  0  0  0  0
  -17.5790  -30.6570   24.1420 C   0  0  0  0  0  3  0  0  0  0  0  0
  -16.4750  -29.8920   23.7280 C   0  0  0  0  0  3  0  0  0  0  0  0
  -16.6790  -28.6320   23.1400 C   0  0  0  0  0  3  0  0  0  0  0  0
  -25.8650  -32.5290   23.8760 C   0  0  0  0  0  3  0  0  0  0  0  0
  -26.3670  -31.7650   25.1630 C   0  0  1  0  0  0  0  0  0  0  0  0
  -25.2610  -31.5360   26.2210 C   0  0  0  0  0  1  0  0  0  0  0  0
  -26.9510  -30.3830   24.7880 C   0  0  0  0  0  1  0  0  0  0  0  0
  -27.5110  -32.5620   25.8310 C   0  0  0  0  0  1  0  0  0  0  0  0
  -25.5630  -33.9330   24.1980 N   0  0  0  0  0  0  0  0  0  0  0  0
  -25.9020  -34.9810   23.4370 C   0  0  0  0  0  0  0  0  0  0  0  0
  -26.5700  -34.8670   22.4050 O   0  0  0  0  0  0  0  0  0  0  0  0
  -24.9700  -34.0940   24.9980 H   0  0  0  0  0  0  0  0  0  0  0  0
  -24.1940  -36.7940   23.0720 C   0  0  0  0  0  1  0  0  0  0  0  0
  -25.4280  -36.3760   23.8880 C   0  0  0  0  0  3  0  0  0  0  0  0
  -27.5580  -37.2550   24.7390 C   0  0  0  0  0  1  0  0  0  0  0  0
  -26.4720  -37.4190   23.7770 N   0  0  0  0  0  0  0  0  0  0  0  0
  -26.0720  -38.3440   23.9040 H   0  0  0  0  0  0  0  0  0  0  0  0
  -30.1770  -17.6840   20.5830 C   0  0  0  0  0  2  0  0  0  0  0  0
  -30.5900  -14.9730   20.2750 C   0  0  0  0  0  0  0  0  0  0  0  0
  -30.4230  -12.6550   19.2720 C   0  0  0  0  0  2  0  0  0  0  0  0
  -29.4590  -12.6720   18.0640 C   0  0  0  0  0  2  0  0  0  0  0  0
  -28.0030  -12.4670   18.5240 C   0  0  0  0  0  2  0  0  0  0  0  0
  -27.6400  -13.3570   19.7420 C   0  0  0  0  0  3  0  0  0  0  0  0
  -28.7220  -13.3130   20.8410 C   0  0  0  0  0  2  0  0  0  0  0  0
  -29.9830  -13.7230   20.2100 N   0  0  0  0  0  0  0  0  0  0  0  0
  -31.7840  -15.0450   19.9680 O   0  0  0  0  0  0  0  0  0  0  0  0
  -29.8160  -16.1450   20.4840 N   0  0  0  0  0  0  0  0  0  0  0  0
  -28.8500  -15.9380   20.6860 H   0  0  0  0  0  0  0  0  0  0  0  0
  -25.2830  -13.9360   20.5580 C   0  0  0  0  0  0  0  0  0  0  0  0
  -24.2240  -13.1600   20.9390 C   0  0  0  0  0  0  0  0  0  0  0  0
  -24.6760  -11.8080   20.8600 C   0  0  0  0  0  0  0  0  0  0  0  0
  -26.3130  -13.0560   20.2680 N   0  0  0  0  0  0  0  0  0  0  0  0
  -25.9580  -11.7690   20.5150 N   0  0  0  0  0  0  0  0  0  0  0  0
  -23.9430  -10.5470   21.0330 C   0  0  0  0  0  0  0  0  0  0  0  0
  -24.3640   -9.5680   21.9600 C   0  0  0  0  0  3  0  0  0  0  0  0
  -23.6270   -8.3740   22.1220 C   0  0  0  0  0  3  0  0  0  0  0  0
  -22.4570   -8.1510   21.3590 C   0  0  0  0  0  0  0  0  0  0  0  0
  -22.0560   -9.1200   20.4230 C   0  0  0  0  0  3  0  0  0  0  0  0
  -22.7920  -10.3040   20.2570 C   0  0  0  0  0  3  0  0  0  0  0  0
  -21.6940   -7.0110   21.4320 O   0  0  0  0  0  0  0  0  0  0  0  0
  -21.6100   -6.2740   22.5860 C   0  0  0  0  0  0  0  0  0  0  0  0
  -21.1030   -6.8210   23.7850 C   0  0  0  0  0  3  0  0  0  0  0  0
  -20.9690   -6.0100   24.9280 C   0  0  0  0  0  3  0  0  0  0  0  0
  -21.3320   -4.6510   24.8750 C   0  0  0  0  0  0  0  0  0  0  0  0
  -21.8340   -4.1020   23.6810 C   0  0  0  0  0  3  0  0  0  0  0  0
  -21.9680   -4.9110   22.5400 C   0  0  0  0  0  0  0  0  0  0  0  0
  -22.4300   -4.3720   21.3860 F   0  0  0  0  0  0  0  0  0  0  0  0
  -21.1980   -3.8680   25.9710 F   0  0  0  0  0  0  0  0  0  0  0  0
  -22.8390  -13.6430   21.2550 C   0  0  0  0  0  0  0  0  0  0  0  0
  -22.1230  -12.9350   22.1210 N   0  0  0  0  0  0  0  0  0  0  0  0
  -22.4000  -14.6850   20.7690 O   0  0  0  0  0  0  0  0  0  0  0  0
  -22.4910  -12.0930   22.5390 H   0  0  0  0  0  0  0  0  0  0  0  0
  -21.1940  -13.2430   22.3720 H   0  0  0  0  0  0  0  0  0  0  0  0
  -25.4490  -15.3100   20.4050 N   0  0  0  0  0  0  0  0  0  0  0  0
  -24.6780  -15.9560   20.5350 H   0  0  0  0  0  0  0  0  0  0  0  0
  -26.2630  -15.7440   19.9950 H   0  0  0  0  0  0  0  0  0  0  0  0
  1  3  1  6
  1 55  1  0
  1 10  1  0
  2  3  1  0
  5  4  1  0
  5  1  1  0
  6  9  1  0
  6  5  1  0
  7  6  1  0
  8  6  1  0
 11 10  1  0
 12 11  1  0
 12 13  1  0
 14 16  1  0
 14 13  1  0
 15 26  2  0
 16 21  1  0
 17 25  1  0
 17 27  1  0
 18 24  1  0
 18 20  1  0
 19 25  1  0
 20 19  1  0
 21 20  2  0
 22 16  2  0
 23 22  1  0
 23 18  2  0
 24 17  1  0
 25 15  1  0
 27 29  2  0
 28 27  1  0
 30 28  1  0
 31 40  2  0
 31 36  1  0
 32 28  1  0
 32 36  1  0
 33 32  1  0
 34 35  1  0
 34 33  1  0
 35 31  1  0
 36 37  2  0
 37 38  1  0
 39 38  2  0
 40 39  1  0
 41 15  1  0
 41 46  1  0
 41 42  1  0
 42 45  1  1
 42 43  1  0
 44 42  1  0
 46 49  1  0
 47 51  1  0
 47 46  1  0
 48 47  2  0
 51 50  1  0
 53 51  1  0
 53 54  1  0
 53 52  1  0
 56 64  1  0
 57 62  1  0
 58 59  1  0
 58 57  1  0
 60 59  1  0
 60 69  1  0
 60 61  1  0
 62 56  1  0
 62 61  1  0
 63 56  2  0
 64 55  1  0
 64 65  1  0
 66 67  2  0
 67 86  1  0
 68 67  1  0
 68 71  1  0
 69 70  1  0
 69 66  1  0
 70 68  2  0
 71 72  1  0
 72 73  2  0
 74 77  1  0
 74 73  1  0
 75 74  2  0
 76 75  1  0
 76 71  2  0
 77 78  1  0
 78 79  1  0
 79 80  2  0
 81 80  1  0
 81 85  1  0
 82 81  2  0
 83 78  2  0
 83 82  1  0
 84 83  1  0
 86 87  1  0
 87 90  1  0
 87 89  1  0
 88 86  2  0
 91 92  1  0
 91 66  1  0
 93 91  1  0
M  ISO  4  13 101  14 101  56 100  64 100
M  END
>  <TORSDO>  (42) 
F 24

>  <SCORE>  (42) 
-13.936

>  <name>  (42) 
44

>  <ligand_id>  (42) 
44

>  <original_smiles>  (42) 
[H]c1c([H])c([H])c2c(c1[H])C([H])([H])C([H])([H])C([H])([H])C2([H])N([H])C(=O)C1([H])N(C(=O)C([H])(N([H])C(=O)C([H])(N([H])C([H])([H])[H])C([H])([H])[H])C(C([H])([H])[H])(C([H])([H])[H])C([H])([H])[H])C([H])([H])c2c([H])c(OC([H])([H])C([H])([H])C([H])([H])C([H])([H])C(C([H])([H])N([H])C(=O)N3C([H])([H])C([H])([H])C([H])([H])C([H])(n4nc(-c5c([H])c([H])c(Oc6c([H])c([H])c(F)c([H])c6F)c([H])c5[H])c(C(=O)N([H])[H])c4N([H])[H])C3([H])[H])(C([H])([H])C([H])([H])[H])C([H])(C([H])([H])[H])[N+]([H])([H])[H])c([H])c([H])c2C1([H])[H]

>  <smiles>  (42) 
[H]c1c([H])c([H])c2c(c1[H])C([H])([H])C([H])([H])C([H])([H])C2([H])N([H])C(=O)C1([H])N(C(=O)C([H])(N([H])C(=O)C([H])(N([H])C([H])([H])[H])C([H])([H])[H])C(C([H])([H])[H])(C([H])([H])[H])C([H])([H])[H])C([H])([H])c2c([H])c(OC([H])([H])C([H])([H])C([H])([H])C([H])([H])C(C([H])([H])N([H])C(=O)N3C([H])([H])C([H])([H])C([H])([H])C([H])(n4nc(-c5c([H])c([H])c(Oc6c([H])c([H])c(F)c([H])c6F)c([H])c5[H])c(C(=O)N([H])[H])c4N([H])[H])C3([H])[H])(C([H])([H])C([H])([H])[H])C([H])(C([H])([H])[H])[N+]([H])([H])[H])c([H])c([H])c2C1([H])[H]

$$$$
45:0:0
     RDKit          3D

 99106  0  0  1  0  0  0  0  0999 V2000
  -29.6760  -19.9790   19.7290 C   0  0  0  0  0  2  0  0  0  0  0  0
  -28.4790  -20.8020   19.2130 C   0  0  0  0  0  2  0  0  0  0  0  0
  -28.6440  -22.3390   19.3480 C   0  0  0  0  0  2  0  0  0  0  0  0
  -28.4500  -22.8210   20.7380 N   0  0  0  0  0  4  0  0  0  0  0  0
  -29.2120  -22.5250   21.3250 H   0  0  0  0  0  0  0  0  0  0  0  0
  -27.6140  -22.3750   21.0840 H   0  0  0  0  0  0  0  0  0  0  0  0
  -28.2350  -24.2840   20.9010 C   0  0  0  0  0  2  0  0  0  0  0  0
  -29.5360  -25.1080   21.0500 C   0  0  0  0  0  2  0  0  0  0  0  0
  -29.2710  -26.6100   21.2980 C   0  0  0  0  0  2  0  0  0  0  0  0
  -28.7140  -27.1640   20.1140 O   0  0  0  0  0  0  0  0  0  0  0  0
  -24.7820  -32.0270   23.6190 C   0  0  0  0  0  0  0  0  0  0  0  0
  -27.5520  -27.8810   20.2550 C   0  0  0  0  0  0  0  0  0  0  0  0
  -23.6320  -30.7430   21.8440 C   0  0  0  0  0  3  0  0  0  0  0  0
  -25.1390  -29.3350   20.3440 C   0  0  0  0  0  0  0  0  0  0  0  0
  -26.1550  -31.1420   21.7390 C   0  0  0  0  0  2  0  0  0  0  0  0
  -26.2740  -29.8210   21.0070 C   0  0  0  0  0  0  0  0  0  0  0  0
  -27.4860  -29.0950   20.9760 C   0  0  0  0  0  3  0  0  0  0  0  0
  -26.4080  -27.4070   19.5870 C   0  0  0  0  0  3  0  0  0  0  0  0
  -25.1960  -28.1210   19.6380 C   0  0  0  0  0  3  0  0  0  0  0  0
  -23.8820  -30.1740   20.4220 C   0  0  0  0  0  2  0  0  0  0  0  0
  -24.8730  -31.3140   22.4610 N   0  0  0  0  0  0  0  0  0  0  0  0
  -23.6850  -32.2480   24.1500 O   0  0  0  0  0  0  0  0  0  0  0  0
  -22.9720  -29.6440   22.7050 C   0  0  0  0  0  0  0  0  0  0  0  0
  -21.6550  -29.4570   22.5280 N   0  0  0  0  0  0  0  0  0  0  0  0
  -23.6420  -28.9670   23.4880 O   0  0  0  0  0  0  0  0  0  0  0  0
  -21.1770  -30.0650   21.8760 H   0  0  0  0  0  0  0  0  0  0  0  0
  -18.2780  -28.2080   22.8450 C   0  0  0  0  0  0  0  0  0  0  0  0
  -20.8260  -28.4550   23.1990 C   0  0  0  0  0  3  0  0  0  0  0  0
  -20.9530  -27.0780   22.5080 C   0  0  0  0  0  2  0  0  0  0  0  0
  -19.8750  -26.8340   21.4470 C   0  0  0  0  0  2  0  0  0  0  0  0
  -18.4790  -26.9200   22.0680 C   0  0  0  0  0  2  0  0  0  0  0  0
  -19.3810  -28.9380   23.3620 C   0  0  0  0  0  0  0  0  0  0  0  0
  -19.1400  -30.1500   24.0460 C   0  0  0  0  0  3  0  0  0  0  0  0
  -17.8290  -30.6300   24.2200 C   0  0  0  0  0  3  0  0  0  0  0  0
  -16.7400  -29.8950   23.7200 C   0  0  0  0  0  3  0  0  0  0  0  0
  -16.9640  -28.6860   23.0370 C   0  0  0  0  0  3  0  0  0  0  0  0
  -26.0460  -32.6180   24.3170 C   0  0  0  0  0  3  0  0  0  0  0  0
  -25.7430  -34.0100   24.6730 N   0  0  0  0  0  0  0  0  0  0  0  0
  -26.1300  -35.0770   23.9600 C   0  0  0  0  0  0  0  0  0  0  0  0
  -26.8490  -34.9910   22.9620 O   0  0  0  0  0  0  0  0  0  0  0  0
  -25.1100  -34.1490   25.4460 H   0  0  0  0  0  0  0  0  0  0  0  0
  -24.4500  -36.9070   23.5670 C   0  0  0  0  0  1  0  0  0  0  0  0
  -25.6390  -36.4590   24.4320 C   0  0  0  0  0  3  0  0  0  0  0  0
  -27.7410  -37.2810   25.3990 C   0  0  0  0  0  1  0  0  0  0  0  0
  -26.6930  -37.4970   24.4050 N   0  0  0  0  0  0  0  0  0  0  0  0
  -26.2960  -38.4200   24.5590 H   0  0  0  0  0  0  0  0  0  0  0  0
  -26.4920  -31.8010   25.5910 C   0  0  1  0  0  0  0  0  0  0  0  0
  -25.3410  -31.5300   26.5880 C   0  0  0  0  0  1  0  0  0  0  0  0
  -27.0930  -30.4380   25.1780 C   0  0  0  0  0  1  0  0  0  0  0  0
  -27.6100  -32.5660   26.3400 C   0  0  0  0  0  1  0  0  0  0  0  0
  -29.4170  -18.4520   19.7570 C   0  0  0  0  0  2  0  0  0  0  0  0
  -30.5100  -17.6780   20.5350 C   0  0  0  0  0  3  0  0  0  0  0  0
  -31.4610  -17.0070   19.6310 N   0  0  0  0  0  4  0  0  0  0  0  0
  -31.1130  -16.0660   19.4450 H   0  0  0  0  0  0  0  0  0  0  0  0
  -32.3560  -16.9050   20.0740 H   0  0  0  0  0  0  0  0  0  0  0  0
  -31.5850  -17.5030   18.7700 H   0  0  0  0  0  0  0  0  0  0  0  0
  -29.9330  -16.6970   21.6030 C   0  0  0  0  0  3  0  0  0  0  0  0
  -29.8660  -14.6550   20.0770 C   0  0  0  0  0  0  0  0  0  0  0  0
  -29.6520  -12.5210   18.8600 C   0  0  0  0  0  2  0  0  0  0  0  0
  -28.6290  -12.6210   17.7140 C   0  0  0  0  0  2  0  0  0  0  0  0
  -27.2090  -12.3240   18.2300 C   0  0  0  0  0  2  0  0  0  0  0  0
  -26.8530  -13.1390   19.5020 C   0  0  0  0  0  3  0  0  0  0  0  0
  -27.9820  -13.0370   20.5540 C   0  0  0  0  0  2  0  0  0  0  0  0
  -29.2480  -13.4560   19.9210 N   0  0  0  0  0  0  0  0  0  0  0  0
  -30.8100  -15.0290   19.3750 O   0  0  0  0  0  0  0  0  0  0  0  0
  -29.4000  -15.4300   21.0640 N   0  0  0  0  0  0  0  0  0  0  0  0
  -28.6060  -15.0510   21.5560 H   0  0  0  0  0  0  0  0  0  0  0  0
  -24.4660  -13.5180   20.3940 C   0  0  0  0  0  0  0  0  0  0  0  0
  -23.4880  -12.6470   20.7910 C   0  0  0  0  0  0  0  0  0  0  0  0
  -24.0500  -11.3380   20.6570 C   0  0  0  0  0  0  0  0  0  0  0  0
  -25.5590  -12.7370   20.0520 N   0  0  0  0  0  0  0  0  0  0  0  0
  -25.3140  -11.4170   20.2630 N   0  0  0  0  0  0  0  0  0  0  0  0
  -23.4380  -10.0140   20.8270 C   0  0  0  0  0  0  0  0  0  0  0  0
  -23.9730   -9.0640   21.7260 C   0  0  0  0  0  3  0  0  0  0  0  0
  -23.3560   -7.8040   21.8870 C   0  0  0  0  0  3  0  0  0  0  0  0
  -22.1910   -7.4860   21.1480 C   0  0  0  0  0  0  0  0  0  0  0  0
  -21.6750   -8.4260   20.2390 C   0  0  0  0  0  3  0  0  0  0  0  0
  -22.2940   -9.6770   20.0770 C   0  0  0  0  0  3  0  0  0  0  0  0
  -21.5410   -6.2760   21.2180 O   0  0  0  0  0  0  0  0  0  0  0  0
  -21.5620   -5.5120   22.3570 C   0  0  0  0  0  0  0  0  0  0  0  0
  -21.0580   -5.9940   23.5860 C   0  0  0  0  0  3  0  0  0  0  0  0
  -21.0350   -5.1530   24.7170 C   0  0  0  0  0  3  0  0  0  0  0  0
  -21.5040   -3.8290   24.6180 C   0  0  0  0  0  0  0  0  0  0  0  0
  -22.0030   -3.3460   23.3950 C   0  0  0  0  0  3  0  0  0  0  0  0
  -22.0280   -4.1850   22.2680 C   0  0  0  0  0  0  0  0  0  0  0  0
  -22.4870   -3.7100   21.0850 F   0  0  0  0  0  0  0  0  0  0  0  0
  -21.4770   -3.0170   25.7000 F   0  0  0  0  0  0  0  0  0  0  0  0
  -22.0820  -12.9980   21.1820 C   0  0  0  0  0  0  0  0  0  0  0  0
  -21.4730  -12.2130   22.0640 N   0  0  0  0  0  0  0  0  0  0  0  0
  -21.5270  -14.0040   20.7380 O   0  0  0  0  0  0  0  0  0  0  0  0
  -21.9340  -11.4010   22.4480 H   0  0  0  0  0  0  0  0  0  0  0  0
  -20.5330  -12.4290   22.3620 H   0  0  0  0  0  0  0  0  0  0  0  0
  -24.5120  -14.9040   20.2770 N   0  0  0  0  0  0  0  0  0  0  0  0
  -23.7080  -15.4930   20.4590 H   0  0  0  0  0  0  0  0  0  0  0  0
  -25.3110  -15.4240   19.9340 H   0  0  0  0  0  0  0  0  0  0  0  0
  -30.8750  -16.4640   22.8190 C   0  0  0  0  0  2  0  0  0  0  0  0
  -30.1880  -18.8220   23.5890 C   0  0  0  0  0  1  0  0  0  0  0  0
  -31.5970  -17.3630   25.0870 C   0  0  0  0  0  1  0  0  0  0  0  0
  -31.2690  -17.7270   23.6300 C   0  0  0  0  0  3  0  0  0  0  0  0
  1 51  1  0
  2  3  1  0
  2  1  1  0
  3  4  1  0
  4  7  1  0
  4  6  1  0
  4  5  1  0
  7  8  1  0
  8  9  1  0
 10 12  1  0
 10  9  1  0
 11 22  2  0
 12 17  1  0
 13 21  1  0
 13 23  1  0
 14 20  1  0
 14 16  1  0
 15 21  1  0
 16 15  1  0
 17 16  2  0
 18 19  1  0
 18 12  2  0
 19 14  2  0
 20 13  1  0
 21 11  1  0
 23 25  2  0
 24 23  1  0
 26 24  1  0
 27 36  2  0
 27 32  1  0
 28 24  1  0
 28 32  1  0
 29 28  1  0
 30 31  1  0
 30 29  1  0
 31 27  1  0
 32 33  2  0
 33 34  1  0
 35 34  2  0
 36 35  1  0
 37 11  1  0
 37 38  1  0
 37 47  1  0
 38 41  1  0
 39 43  1  0
 39 38  1  0
 40 39  2  0
 43 42  1  0
 45 43  1  0
 45 46  1  0
 45 44  1  0
 47 50  1  1
 47 48  1  0
 49 47  1  0
 52 51  1  0
 52 57  1  0
 53 55  1  0
 53 52  1  0
 54 53  1  0
 56 53  1  0
 57 96  1  0
 58 66  1  0
 59 64  1  0
 60 61  1  0
 60 59  1  0
 62 61  1  0
 62 71  1  0
 62 63  1  0
 64 58  1  0
 64 63  1  0
 65 58  2  0
 66 67  1  0
 66 57  1  0
 68 69  2  0
 69 88  1  0
 70 69  1  0
 70 73  1  0
 71 72  1  0
 71 68  1  0
 72 70  2  0
 73 74  1  0
 74 75  2  0
 76 79  1  0
 76 75  1  0
 77 76  2  0
 78 77  1  0
 78 73  2  0
 79 80  1  0
 80 81  1  0
 81 82  2  0
 83 82  1  0
 83 87  1  0
 84 83  2  0
 85 80  2  0
 85 84  1  0
 86 85  1  0
 88 89  1  0
 89 92  1  0
 89 91  1  0
 90 88  2  0
 93 68  1  0
 93 94  1  0
 95 93  1  0
 96 99  1  0
 97 99  1  0
 99 98  1  0
M  ISO  4   9 101  10 101  58 100  66 100
M  END
>  <TORSDO>  (43) 
F 28

>  <SCORE>  (43) 
-4.309

>  <name>  (43) 
45

>  <ligand_id>  (43) 
45

>  <original_smiles>  (43) 
[H]c1c([H])c([H])c2c(c1[H])C([H])([H])C([H])([H])C([H])([H])C2([H])N([H])C(=O)C1([H])N(C(=O)C([H])(N([H])C(=O)C([H])(N([H])C([H])([H])[H])C([H])([H])[H])C(C([H])([H])[H])(C([H])([H])[H])C([H])([H])[H])C([H])([H])c2c([H])c(OC([H])([H])C([H])([H])C([H])([H])[N+]([H])([H])C([H])([H])C([H])([H])C([H])([H])C([H])([H])C([H])(C([H])(N([H])C(=O)N3C([H])([H])C([H])([H])C([H])([H])C([H])(n4nc(-c5c([H])c([H])c(Oc6c([H])c([H])c(F)c([H])c6F)c([H])c5[H])c(C(=O)N([H])[H])c4N([H])[H])C3([H])[H])C([H])([H])C([H])(C([H])([H])[H])C([H])([H])[H])[N+]([H])([H])[H])c([H])c([H])c2C1([H])[H]

>  <smiles>  (43) 
[H]c1c([H])c([H])c2c(c1[H])C([H])([H])C([H])([H])C([H])([H])C2([H])N([H])C(=O)C1([H])N(C(=O)C([H])(N([H])C(=O)C([H])(N([H])C([H])([H])[H])C([H])([H])[H])C(C([H])([H])[H])(C([H])([H])[H])C([H])([H])[H])C([H])([H])c2c([H])c(OC([H])([H])C([H])([H])C([H])([H])[N+]([H])([H])C([H])([H])C([H])([H])C([H])([H])C([H])([H])C([H])(C([H])(N([H])C(=O)N3C([H])([H])C([H])([H])C([H])([H])C([H])(n4nc(-c5c([H])c([H])c(Oc6c([H])c([H])c(F)c([H])c6F)c([H])c5[H])c(C(=O)N([H])[H])c4N([H])[H])C3([H])[H])C([H])([H])C([H])(C([H])([H])[H])C([H])([H])[H])[N+]([H])([H])[H])c([H])c([H])c2C1([H])[H]

$$$$
46:0:0
     RDKit          3D

 87 91  0  0  1  0  0  0  0  0999 V2000
  -27.1650  -20.9430   19.6760 C   0  0  0  0  0  1  0  0  0  0  0  0
  -28.6180  -21.3650   19.9190 C   0  0  0  0  0  1  0  0  0  0  0  0
  -28.3830  -23.3800   20.4960 C   0  0  0  0  0 15  0  0  0  0  0  0
  -28.2220  -25.2480   20.1700 O   0  0  0  0  0  1  0  0  0  0  0  0
  -24.6610  -31.8350   23.1450 C   0  0  0  0  0  0  0  0  0  0  0  0
  -27.2330  -26.5400   20.2350 C   0  0  0  0  0  0  0  0  0  0  0  0
  -23.5020  -30.4100   21.5190 C   0  0  0  0  0  3  0  0  0  0  0  0
  -24.9690  -28.7120   20.1470 C   0  0  0  0  0  0  0  0  0  0  0  0
  -26.0920  -30.5030   21.4320 C   0  0  0  0  0  2  0  0  0  0  0  0
  -26.1680  -29.0370   20.7920 C   0  0  0  0  0  0  0  0  0  0  0  0
  -27.2730  -27.9920   20.7890 C   0  0  0  0  0  3  0  0  0  0  0  0
  -25.9900  -26.4900   19.5340 C   0  0  0  0  0  3  0  0  0  0  0  0
  -24.9330  -27.4680   19.4910 C   0  0  0  0  0  3  0  0  0  0  0  0
  -23.7660  -29.6850   20.1640 C   0  0  0  0  0  2  0  0  0  0  0  0
  -24.7790  -30.9560   22.0830 N   0  0  0  0  0  0  0  0  0  0  0  0
  -23.5580  -32.1380   23.6350 O   0  0  0  0  0  0  0  0  0  0  0  0
  -22.7690  -29.4520   22.5000 C   0  0  0  0  0  0  0  0  0  0  0  0
  -21.4350  -29.3030   22.3760 N   0  0  0  0  0  0  0  0  0  0  0  0
  -23.4190  -28.8370   23.3490 O   0  0  0  0  0  0  0  0  0  0  0  0
  -20.9550  -29.8500   21.6750 H   0  0  0  0  0  0  0  0  0  0  0  0
  -18.0470  -28.0840   22.9130 C   0  0  0  0  0  0  0  0  0  0  0  0
  -20.6090  -28.3670   23.1540 C   0  0  0  0  0  3  0  0  0  0  0  0
  -20.7100  -26.9330   22.5840 C   0  0  0  0  0  2  0  0  0  0  0  0
  -19.6050  -26.6060   21.5750 C   0  0  0  0  0  2  0  0  0  0  0  0
  -18.2270  -26.7400   22.2270 C   0  0  0  0  0  2  0  0  0  0  0  0
  -19.1640  -28.8560   23.3330 C   0  0  0  0  0  0  0  0  0  0  0  0
  -18.9380  -30.1100   23.9390 C   0  0  0  0  0  3  0  0  0  0  0  0
  -17.6290  -30.5940   24.1250 C   0  0  0  0  0  3  0  0  0  0  0  0
  -16.5280  -29.8230   23.7170 C   0  0  0  0  0  3  0  0  0  0  0  0
  -16.7380  -28.5680   23.1180 C   0  0  0  0  0  3  0  0  0  0  0  0
  -25.9040  -32.5160   23.7960 C   0  0  0  0  0  3  0  0  0  0  0  0
  -26.3890  -31.7850   25.1100 C   0  0  1  0  0  0  0  0  0  0  0  0
  -25.2690  -31.5670   26.1560 C   0  0  0  0  0  1  0  0  0  0  0  0
  -26.9930  -30.4010   24.7860 C   0  0  0  0  0  1  0  0  0  0  0  0
  -27.5150  -32.6070   25.7810 C   0  0  0  0  0  1  0  0  0  0  0  0
  -25.5580  -33.9190   24.1150 N   0  0  0  0  0  0  0  0  0  0  0  0
  -25.8970  -34.9900   23.3830 C   0  0  0  0  0  0  0  0  0  0  0  0
  -26.5840  -34.9010   22.3630 O   0  0  0  0  0  0  0  0  0  0  0  0
  -24.9480  -34.0590   24.9060 H   0  0  0  0  0  0  0  0  0  0  0  0
  -24.1730  -36.7970   23.0260 C   0  0  0  0  0  1  0  0  0  0  0  0
  -25.4000  -36.3760   23.8500 C   0  0  0  0  0  3  0  0  0  0  0  0
  -27.5130  -37.2700   24.7340 C   0  0  0  0  0  1  0  0  0  0  0  0
  -26.4320  -37.4350   23.7680 N   0  0  0  0  0  0  0  0  0  0  0  0
  -26.0180  -38.3530   23.9100 H   0  0  0  0  0  0  0  0  0  0  0  0
  -29.5350  -19.5000   20.2840 C   0  0  0  0  0  2  0  0  0  0  0  0
  -30.1840  -16.1270   20.0550 C   0  0  0  0  0  0  0  0  0  0  0  0
  -30.3790  -13.5000   19.2400 C   0  0  0  0  0  2  0  0  0  0  0  0
  -29.5040  -12.8990   18.0910 C   0  0  0  0  0  2  0  0  0  0  0  0
  -28.1220  -12.4630   18.5970 C   0  0  0  0  0  2  0  0  0  0  0  0
  -27.5800  -13.4800   19.6200 C   0  0  0  0  0  3  0  0  0  0  0  0
  -28.6160  -13.9560   20.6770 C   0  0  0  0  0  2  0  0  0  0  0  0
  -29.6920  -14.7050   19.9530 N   0  0  0  0  0  0  0  0  0  0  0  0
  -31.4270  -15.9830   19.9600 O   0  0  0  0  0  0  0  0  0  0  0  0
  -29.4420  -17.6010   20.0830 N   0  0  0  0  0  0  0  0  0  0  0  0
  -28.4570  -17.3770   20.0370 H   0  0  0  0  0  0  0  0  0  0  0  0
  -25.2490  -13.9610   20.4730 C   0  0  0  0  0  0  0  0  0  0  0  0
  -24.2050  -13.1670   20.8530 C   0  0  0  0  0  0  0  0  0  0  0  0
  -24.6850  -11.8210   20.7910 C   0  0  0  0  0  0  0  0  0  0  0  0
  -26.2940  -13.1040   20.1890 N   0  0  0  0  0  0  0  0  0  0  0  0
  -25.9720  -11.8060   20.4440 N   0  0  0  0  0  0  0  0  0  0  0  0
  -23.9680  -10.5520   20.9830 C   0  0  0  0  0  0  0  0  0  0  0  0
  -24.4120   -9.5800   21.9070 C   0  0  0  0  0  3  0  0  0  0  0  0
  -23.6870   -8.3830   22.0890 C   0  0  0  0  0  3  0  0  0  0  0  0
  -22.5050   -8.1460   21.3480 C   0  0  0  0  0  0  0  0  0  0  0  0
  -22.0800   -9.1070   20.4140 C   0  0  0  0  0  3  0  0  0  0  0  0
  -22.8050  -10.2960   20.2300 C   0  0  0  0  0  3  0  0  0  0  0  0
  -21.7500   -7.0010   21.4410 O   0  0  0  0  0  0  0  0  0  0  0  0
  -21.7000   -6.2630   22.5980 C   0  0  0  0  0  0  0  0  0  0  0  0
  -21.2390   -6.8130   23.8140 C   0  0  0  0  0  3  0  0  0  0  0  0
  -21.1370   -6.0000   24.9600 C   0  0  0  0  0  3  0  0  0  0  0  0
  -21.4880   -4.6380   24.8940 C   0  0  0  0  0  0  0  0  0  0  0  0
  -21.9440   -4.0880   23.6830 C   0  0  0  0  0  3  0  0  0  0  0  0
  -22.0460   -4.8980   22.5380 C   0  0  0  0  0  0  0  0  0  0  0  0
  -22.4650   -4.3570   21.3690 F   0  0  0  0  0  0  0  0  0  0  0  0
  -21.3850   -3.8560   25.9930 F   0  0  0  0  0  0  0  0  0  0  0  0
  -22.8120  -13.6310   21.1550 C   0  0  0  0  0  0  0  0  0  0  0  0
  -22.1090  -12.9250   22.0310 N   0  0  0  0  0  0  0  0  0  0  0  0
  -22.3610  -14.6580   20.6510 O   0  0  0  0  0  0  0  0  0  0  0  0
  -22.4910  -12.0940   22.4590 H   0  0  0  0  0  0  0  0  0  0  0  0
  -21.1760  -13.2200   22.2810 H   0  0  0  0  0  0  0  0  0  0  0  0
  -25.3900  -15.3360   20.3080 N   0  0  0  0  0  0  0  0  0  0  0  0
  -24.6160  -15.9770   20.4440 H   0  0  0  0  0  0  0  0  0  0  0  0
  -26.2200  -15.7880   19.9460 H   0  0  0  0  0  0  0  0  0  0  0  0
  -30.9960  -19.8100   19.9100 C   0  0  0  0  0  2  0  0  0  0  0  0
  -32.0130  -18.7760   17.7850 C   0  0  0  0  0  1  0  0  0  0  0  0
  -31.9270  -21.2850   18.0500 C   0  0  0  0  0  1  0  0  0  0  0  0
  -31.2300  -19.9550   18.3830 C   0  0  0  0  0  3  0  0  0  0  0  0
  1  2  1  0
  4  6  1  0
  5 16  2  0
  6 11  1  0
  7 15  1  0
  7 17  1  0
  8 14  1  0
  8 10  1  0
  9 15  1  0
 10  9  1  0
 11 10  2  0
 12  6  2  0
 13 12  1  0
 13  8  2  0
 14  7  1  0
 15  5  1  0
 17 19  2  0
 18 17  1  0
 20 18  1  0
 21 30  2  0
 21 26  1  0
 22 18  1  0
 22 26  1  0
 23 22  1  0
 24 25  1  0
 24 23  1  0
 25 21  1  0
 26 27  2  0
 27 28  1  0
 29 28  2  0
 30 29  1  0
 31  5  1  0
 31 36  1  0
 31 32  1  0
 32 35  1  1
 32 33  1  0
 34 32  1  0
 36 39  1  0
 37 41  1  0
 37 36  1  0
 38 37  2  0
 41 40  1  0
 43 41  1  0
 43 44  1  0
 43 42  1  0
 46 54  1  0
 47 52  1  0
 48 49  1  0
 48 47  1  0
 50 49  1  0
 50 59  1  0
 50 51  1  0
 52 46  1  0
 52 51  1  0
 53 46  2  0
 54 45  1  0
 55 54  1  0
 56 57  2  0
 57 76  1  0
 58 57  1  0
 58 61  1  0
 59 60  1  0
 59 56  1  0
 60 58  2  0
 61 62  1  0
 62 63  2  0
 64 67  1  0
 64 63  1  0
 65 64  2  0
 66 65  1  0
 66 61  2  0
 67 68  1  0
 68 69  1  0
 69 70  2  0
 71 70  1  0
 71 75  1  0
 72 71  2  0
 73 68  2  0
 73 72  1  0
 74 73  1  0
 76 77  1  0
 77 80  1  0
 77 79  1  0
 78 76  2  0
 81 82  1  0
 81 56  1  0
 83 81  1  0
 84 45  1  0
 85 87  1  0
 86 87  1  0
 87 84  1  0
M  ISO  4   3 101   4 101  46 100  54 100
M  END
>  <TORSDO>  (44) 
F 20

>  <SCORE>  (44) 
-15.401

>  <name>  (44) 
46

>  <ligand_id>  (44) 
46

>  <original_smiles>  (44) 
[H]c1c([H])c([H])c2c(c1[H])C([H])([H])C([H])([H])C([H])([H])C2([H])N([H])C(=O)C1([H])N(C(=O)C([H])(N([H])C(=O)C([H])(N([H])C([H])([H])[H])C([H])([H])[H])C(C([H])([H])[H])(C([H])([H])[H])C([H])([H])[H])C([H])([H])c2c([H])c(OC([H])([H])C([H])(C([H])([H])[H])C([H])(N([H])C(=O)N3C([H])([H])C([H])([H])C([H])([H])C([H])(n4nc(-c5c([H])c([H])c(Oc6c([H])c([H])c(F)c([H])c6F)c([H])c5[H])c(C(=O)N([H])[H])c4N([H])[H])C3([H])[H])C([H])([H])C([H])(C([H])([H])[H])C([H])([H])[H])c([H])c([H])c2C1([H])[H]

>  <smiles>  (44) 
[H]c1c([H])c([H])c2c(c1[H])C([H])([H])C([H])([H])C([H])([H])C2([H])N([H])C(=O)C1([H])N(C(=O)C([H])(N([H])C(=O)C([H])(N([H])C([H])([H])[H])C([H])([H])[H])C(C([H])([H])[H])(C([H])([H])[H])C([H])([H])[H])C([H])([H])c2c([H])c(OC([H])([H])C([H])(C([H])([H])[H])C([H])(N([H])C(=O)N3C([H])([H])C([H])([H])C([H])([H])C([H])(n4nc(-c5c([H])c([H])c(Oc6c([H])c([H])c(F)c([H])c6F)c([H])c5[H])c(C(=O)N([H])[H])c4N([H])[H])C3([H])[H])C([H])([H])C([H])(C([H])([H])[H])C([H])([H])[H])c([H])c([H])c2C1([H])[H]

$$$$
47:0:0
     RDKit          3D

 92 99  0  0  1  0  0  0  0  0999 V2000
  -29.8390  -19.8260   20.4860 C   0  0  0  0  0  3  0  0  0  0  0  0
  -29.5150  -18.5210   20.1830 C   0  0  0  0  0  3  0  0  0  0  0  0
  -28.9190  -21.0360   20.3890 C   0  0  0  0  0  0  0  0  0  0  0  0
  -27.7230  -20.9070   20.1120 O   0  0  0  0  0  0  0  0  0  0  0  0
  -29.4720  -22.5040   20.6220 C   0  0  0  0  0  2  0  0  0  0  0  0
  -28.6050  -23.8020   20.1920 C   0  0  0  0  0  2  0  0  0  0  0  0
  -28.2260  -25.1880   20.9320 C   0  0  0  0  0  2  0  0  0  0  0  0
  -28.3880  -26.5030   20.2650 O   0  0  0  0  0  0  0  0  0  0  0  0
  -24.6210  -31.9000   23.2500 C   0  0  0  0  0  0  0  0  0  0  0  0
  -27.2680  -27.3450   20.2380 C   0  0  0  0  0  0  0  0  0  0  0  0
  -23.4300  -30.4810   21.6170 C   0  0  0  0  0  3  0  0  0  0  0  0
  -24.8930  -28.9270   20.2030 C   0  0  0  0  0  0  0  0  0  0  0  0
  -25.9640  -30.8200   21.4320 C   0  0  0  0  0  2  0  0  0  0  0  0
  -26.0560  -29.4360   20.7960 C   0  0  0  0  0  0  0  0  0  0  0  0
  -27.2520  -28.6580   20.8000 C   0  0  0  0  0  3  0  0  0  0  0  0
  -26.0870  -26.8820   19.6260 C   0  0  0  0  0  3  0  0  0  0  0  0
  -24.9100  -27.6550   19.6060 C   0  0  0  0  0  3  0  0  0  0  0  0
  -23.6500  -29.7950   20.2400 C   0  0  0  0  0  2  0  0  0  0  0  0
  -24.6910  -31.0840   22.1560 N   0  0  0  0  0  0  0  0  0  0  0  0
  -23.5350  -32.1780   23.7770 O   0  0  0  0  0  0  0  0  0  0  0  0
  -22.7660  -29.4700   22.5830 C   0  0  0  0  0  0  0  0  0  0  0  0
  -21.4410  -29.2910   22.4570 N   0  0  0  0  0  0  0  0  0  0  0  0
  -23.4440  -28.8490   23.4060 O   0  0  0  0  0  0  0  0  0  0  0  0
  -20.9560  -29.8500   21.7700 H   0  0  0  0  0  0  0  0  0  0  0  0
  -18.0570  -28.1040   22.9560 C   0  0  0  0  0  0  0  0  0  0  0  0
  -20.6170  -28.3560   23.2270 C   0  0  0  0  0  3  0  0  0  0  0  0
  -20.7140  -26.9230   22.6520 C   0  0  0  0  0  2  0  0  0  0  0  0
  -19.6110  -26.6030   21.6380 C   0  0  0  0  0  2  0  0  0  0  0  0
  -18.2280  -26.7510   22.2830 C   0  0  0  0  0  2  0  0  0  0  0  0
  -19.1800  -28.8630   23.3830 C   0  0  0  0  0  0  0  0  0  0  0  0
  -18.9670  -30.1270   23.9730 C   0  0  0  0  0  3  0  0  0  0  0  0
  -17.6650  -30.6330   24.1420 C   0  0  0  0  0  3  0  0  0  0  0  0
  -16.5570  -29.8700   23.7340 C   0  0  0  0  0  3  0  0  0  0  0  0
  -16.7540  -28.6090   23.1460 C   0  0  0  0  0  3  0  0  0  0  0  0
  -25.8990  -32.5410   23.8740 C   0  0  0  0  0  3  0  0  0  0  0  0
  -25.5840  -33.9380   24.1950 N   0  0  0  0  0  0  0  0  0  0  0  0
  -25.9150  -34.9890   23.4300 C   0  0  0  0  0  0  0  0  0  0  0  0
  -26.5870  -34.8820   22.4030 O   0  0  0  0  0  0  0  0  0  0  0  0
  -24.9850  -34.0930   24.9920 H   0  0  0  0  0  0  0  0  0  0  0  0
  -24.1840  -36.7760   23.0570 C   0  0  0  0  0  1  0  0  0  0  0  0
  -25.4210  -36.3780   23.8770 C   0  0  0  0  0  3  0  0  0  0  0  0
  -27.5500  -37.2730   24.7110 C   0  0  0  0  0  1  0  0  0  0  0  0
  -26.4500  -37.4350   23.7640 N   0  0  0  0  0  0  0  0  0  0  0  0
  -26.0410  -38.3550   23.9070 H   0  0  0  0  0  0  0  0  0  0  0  0
  -26.4110  -31.7800   25.1580 C   0  0  1  0  0  0  0  0  0  0  0  0
  -25.3140  -31.5470   26.2250 C   0  0  0  0  0  1  0  0  0  0  0  0
  -26.9980  -30.4020   24.7760 C   0  0  0  0  0  1  0  0  0  0  0  0
  -27.5580  -32.5820   25.8170 C   0  0  0  0  0  1  0  0  0  0  0  0
  -30.5000  -17.2940   20.0870 C   0  0  0  0  0  3  0  0  0  0  0  0
  -30.6600  -14.7050   20.3330 C   0  0  0  0  0  0  0  0  0  0  0  0
  -30.3670  -12.4500   19.3390 C   0  0  0  0  0  2  0  0  0  0  0  0
  -29.4240  -12.5470   18.1220 C   0  0  0  0  0  2  0  0  0  0  0  0
  -27.9570  -12.3950   18.5650 C   0  0  0  0  0  2  0  0  0  0  0  0
  -27.6000  -13.2890   19.7820 C   0  0  0  0  0  3  0  0  0  0  0  0
  -28.6720  -13.2120   20.8920 C   0  0  0  0  0  2  0  0  0  0  0  0
  -29.9680  -13.5210   20.2760 N   0  0  0  0  0  0  0  0  0  0  0  0
  -31.8690  -14.7210   20.0990 O   0  0  0  0  0  0  0  0  0  0  0  0
  -29.9580  -15.8950   20.3660 N   0  0  0  0  0  0  0  0  0  0  0  0
  -28.9620  -15.8220   20.5110 H   0  0  0  0  0  0  0  0  0  0  0  0
  -25.2110  -13.8720   20.5190 C   0  0  0  0  0  0  0  0  0  0  0  0
  -24.1490  -13.0950   20.8930 C   0  0  0  0  0  0  0  0  0  0  0  0
  -24.6160  -11.7450   20.8690 C   0  0  0  0  0  0  0  0  0  0  0  0
  -26.2590  -12.9970   20.2860 N   0  0  0  0  0  0  0  0  0  0  0  0
  -25.9080  -11.7120   20.5610 N   0  0  0  0  0  0  0  0  0  0  0  0
  -23.8950  -10.4800   21.0610 C   0  0  0  0  0  0  0  0  0  0  0  0
  -24.3370   -9.5050   21.9830 C   0  0  0  0  0  3  0  0  0  0  0  0
  -23.6080   -8.3090   22.1650 C   0  0  0  0  0  3  0  0  0  0  0  0
  -22.4240   -8.0790   21.4240 C   0  0  0  0  0  0  0  0  0  0  0  0
  -22.0020   -9.0430   20.4910 C   0  0  0  0  0  3  0  0  0  0  0  0
  -22.7320  -10.2280   20.3070 C   0  0  0  0  0  3  0  0  0  0  0  0
  -21.6690   -6.9350   21.5140 O   0  0  0  0  0  0  0  0  0  0  0  0
  -21.6440   -6.1760   22.6570 C   0  0  0  0  0  0  0  0  0  0  0  0
  -21.2570   -6.7190   23.9020 C   0  0  0  0  0  3  0  0  0  0  0  0
  -21.1780   -5.8890   25.0370 C   0  0  0  0  0  3  0  0  0  0  0  0
  -21.4790   -4.5190   24.9320 C   0  0  0  0  0  0  0  0  0  0  0  0
  -21.8620   -3.9760   23.6920 C   0  0  0  0  0  3  0  0  0  0  0  0
  -21.9410   -4.8020   22.5570 C   0  0  0  0  0  0  0  0  0  0  0  0
  -22.2890   -4.2690   21.3610 F   0  0  0  0  0  0  0  0  0  0  0  0
  -21.3980   -3.7200   26.0210 F   0  0  0  0  0  0  0  0  0  0  0  0
  -22.7490  -13.5680   21.1610 C   0  0  0  0  0  0  0  0  0  0  0  0
  -22.0220  -12.8740   22.0290 N   0  0  0  0  0  0  0  0  0  0  0  0
  -22.3080  -14.5900   20.6350 O   0  0  0  0  0  0  0  0  0  0  0  0
  -22.3870  -12.0420   22.4710 H   0  0  0  0  0  0  0  0  0  0  0  0
  -21.0860  -13.1810   22.2580 H   0  0  0  0  0  0  0  0  0  0  0  0
  -25.3710  -15.2420   20.3320 N   0  0  0  0  0  0  0  0  0  0  0  0
  -24.6060  -15.9000   20.4370 H   0  0  0  0  0  0  0  0  0  0  0  0
  -26.2150  -15.6780   19.9870 H   0  0  0  0  0  0  0  0  0  0  0  0
  -31.1300  -17.3710   18.6600 C   0  0  0  0  0  2  0  0  0  0  0  0
  -32.2760  -18.4010   18.5260 C   0  0  0  0  0  2  0  0  0  0  0  0
  -31.3430  -20.0320   16.7950 C   0  0  0  0  0  1  0  0  0  0  0  0
  -33.8260  -19.6410   16.9550 C   0  0  0  0  0  1  0  0  0  0  0  0
  -32.4400  -18.9970   17.1140 C   0  0  0  0  0  3  0  0  0  0  0  0
  2  1  2  0
  3  1  1  0
  3  5  1  0
  4  3  2  0
  6  5  1  0
  6  7  1  0
  8  7  1  0
  9 20  2  0
 10  8  1  0
 10 15  1  0
 11 19  1  0
 11 21  1  0
 12 18  1  0
 12 14  1  0
 13 19  1  0
 14 15  2  0
 14 13  1  0
 16 10  2  0
 17 16  1  0
 17 12  2  0
 18 11  1  0
 19  9  1  0
 21 23  2  0
 22 21  1  0
 24 22  1  0
 25 34  2  0
 25 30  1  0
 26 22  1  0
 26 30  1  0
 27 26  1  0
 28 29  1  0
 28 27  1  0
 29 25  1  0
 30 31  2  0
 31 32  1  0
 33 32  2  0
 34 33  1  0
 35  9  1  0
 35 36  1  0
 35 45  1  0
 36 39  1  0
 37 41  1  0
 37 36  1  0
 38 37  2  0
 41 40  1  0
 43 41  1  0
 43 44  1  0
 43 42  1  0
 45 48  1  1
 45 46  1  0
 47 45  1  0
 49 88  1  0
 49  2  1  0
 49 58  1  0
 50 58  1  0
 51 56  1  0
 52 53  1  0
 52 51  1  0
 54 53  1  0
 54 63  1  0
 54 55  1  0
 56 50  1  0
 56 55  1  0
 57 50  2  0
 58 59  1  0
 60 61  2  0
 61 80  1  0
 62 61  1  0
 62 65  1  0
 63 60  1  0
 63 64  1  0
 64 62  2  0
 65 66  1  0
 66 67  2  0
 68 71  1  0
 68 67  1  0
 69 68  2  0
 70 69  1  0
 70 65  2  0
 71 72  1  0
 72 73  1  0
 73 74  2  0
 75 74  1  0
 75 79  1  0
 76 75  2  0
 77 72  2  0
 77 76  1  0
 78 77  1  0
 80 81  1  0
 81 84  1  0
 81 83  1  0
 82 80  2  0
 85 86  1  0
 85 60  1  0
 87 85  1  0
 89 88  1  0
 90 92  1  0
 91 92  1  0
 92 89  1  0
M  ISO  4   7 101   8 101  50 100  58 100
M  END
>  <TORSDO>  (45) 
F 24

>  <SCORE>  (45) 
-12.484

>  <name>  (45) 
47

>  <ligand_id>  (45) 
47

>  <original_smiles>  (45) 
[H]C(C(=O)C([H])([H])C([H])([H])C([H])([H])Oc1c([H])c([H])c2c(c1[H])C([H])([H])N(C(=O)C([H])(N([H])C(=O)C([H])(N([H])C([H])([H])[H])C([H])([H])[H])C(C([H])([H])[H])(C([H])([H])[H])C([H])([H])[H])C([H])(C(=O)N([H])C1([H])c3c([H])c([H])c([H])c([H])c3C([H])([H])C([H])([H])C1([H])[H])C2([H])[H])=C([H])C([H])(N([H])C(=O)N1C([H])([H])C([H])([H])C([H])([H])C([H])(n2nc(-c3c([H])c([H])c(Oc4c([H])c([H])c(F)c([H])c4F)c([H])c3[H])c(C(=O)N([H])[H])c2N([H])[H])C1([H])[H])C([H])([H])C([H])([H])C([H])(C([H])([H])[H])C([H])([H])[H]

>  <smiles>  (45) 
[H]C(C(=O)C([H])([H])C([H])([H])C([H])([H])Oc1c([H])c([H])c2c(c1[H])C([H])([H])N(C(=O)C([H])(N([H])C(=O)C([H])(N([H])C([H])([H])[H])C([H])([H])[H])C(C([H])([H])[H])(C([H])([H])[H])C([H])([H])[H])C([H])(C(=O)N([H])C1([H])c3c([H])c([H])c([H])c([H])c3C([H])([H])C([H])([H])C1([H])[H])C2([H])[H])=C([H])C([H])(N([H])C(=O)N1C([H])([H])C([H])([H])C([H])([H])C([H])(n2nc(-c3c([H])c([H])c(Oc4c([H])c([H])c(F)c([H])c4F)c([H])c3[H])c(C(=O)N([H])[H])c2N([H])[H])C1([H])[H])C([H])([H])C([H])([H])C([H])(C([H])([H])[H])C([H])([H])[H]

$$$$
48:0:0
     RDKit          3D

103110  0  0  1  0  0  0  0  0999 V2000
  -29.5610  -19.3380   20.0160 N   0  0  0  0  0  4  0  0  0  0  0  0
  -28.5750  -19.1520   19.9240 H   0  0  0  0  0  0  0  0  0  0  0  0
  -29.7440  -19.4570   20.9990 H   0  0  0  0  0  0  0  0  0  0  0  0
  -29.8580  -20.6700   19.3890 C   0  0  0  0  0  2  0  0  0  0  0  0
  -29.1250  -21.8360   20.1020 C   0  0  0  0  0  0  0  0  0  0  0  0
  -28.4610  -21.6430   21.1280 O   0  0  0  0  0  0  0  0  0  0  0  0
  -29.2910  -23.2590   19.5030 C   0  0  0  0  0  2  0  0  0  0  0  0
  -28.4700  -24.4570   20.1190 C   0  0  0  0  0  3  0  0  0  0  0  0
  -28.8080  -24.7050   21.5420 N   0  0  0  0  0  4  0  0  0  0  0  0
  -29.7790  -24.9320   21.6630 H   0  0  0  0  0  0  0  0  0  0  0  0
  -28.5770  -23.9130   22.1180 H   0  0  0  0  0  0  0  0  0  0  0  0
  -28.2740  -25.4920   21.8750 H   0  0  0  0  0  0  0  0  0  0  0  0
  -28.6480  -25.7750   19.2970 C   0  0  0  0  0  2  0  0  0  0  0  0
  -28.4420  -26.9940   20.0480 O   0  0  0  0  0  0  0  0  0  0  0  0
  -24.5770  -32.0290   23.2750 C   0  0  0  0  0  0  0  0  0  0  0  0
  -27.2300  -27.6610   20.0630 C   0  0  0  0  0  0  0  0  0  0  0  0
  -23.3560  -30.6230   21.6500 C   0  0  0  0  0  3  0  0  0  0  0  0
  -24.8010  -29.1250   20.1700 C   0  0  0  0  0  0  0  0  0  0  0  0
  -25.8690  -31.0280   21.3910 C   0  0  0  0  0  2  0  0  0  0  0  0
  -25.9640  -29.6650   20.7320 C   0  0  0  0  0  0  0  0  0  0  0  0
  -27.1740  -28.9350   20.6780 C   0  0  0  0  0  3  0  0  0  0  0  0
  -26.0400  -27.1320   19.5090 C   0  0  0  0  0  3  0  0  0  0  0  0
  -24.8370  -27.8580   19.5600 C   0  0  0  0  0  3  0  0  0  0  0  0
  -23.5420  -29.9590   20.2590 C   0  0  0  0  0  2  0  0  0  0  0  0
  -24.6200  -31.2420   22.1620 N   0  0  0  0  0  0  0  0  0  0  0  0
  -23.5030  -32.2720   23.8450 O   0  0  0  0  0  0  0  0  0  0  0  0
  -22.7490  -29.5780   22.6140 C   0  0  0  0  0  0  0  0  0  0  0  0
  -21.4420  -29.3060   22.4560 N   0  0  0  0  0  0  0  0  0  0  0  0
  -23.4520  -29.0130   23.4570 O   0  0  0  0  0  0  0  0  0  0  0  0
  -20.9300  -29.8240   21.7560 H   0  0  0  0  0  0  0  0  0  0  0  0
  -18.1610  -27.8400   22.8350 C   0  0  0  0  0  0  0  0  0  0  0  0
  -20.6690  -28.3310   23.2260 C   0  0  0  0  0  3  0  0  0  0  0  0
  -20.9230  -26.8920   22.7200 C   0  0  0  0  0  2  0  0  0  0  0  0
  -19.9100  -26.4360   21.6640 C   0  0  0  0  0  2  0  0  0  0  0  0
  -18.4880  -26.4840   22.2280 C   0  0  0  0  0  2  0  0  0  0  0  0
  -19.1860  -28.7110   23.2890 C   0  0  0  0  0  0  0  0  0  0  0  0
  -18.8320  -29.9710   23.8150 C   0  0  0  0  0  3  0  0  0  0  0  0
  -17.4840  -30.3660   23.8950 C   0  0  0  0  0  3  0  0  0  0  0  0
  -16.4700  -29.4930   23.4640 C   0  0  0  0  0  3  0  0  0  0  0  0
  -16.8090  -28.2330   22.9370 C   0  0  0  0  0  3  0  0  0  0  0  0
  -25.8630  -32.6810   23.8710 C   0  0  0  0  0  3  0  0  0  0  0  0
  -25.5430  -34.0770   24.1970 N   0  0  0  0  0  0  0  0  0  0  0  0
  -25.8540  -35.1280   23.4270 C   0  0  0  0  0  0  0  0  0  0  0  0
  -26.5090  -35.0250   22.3870 O   0  0  0  0  0  0  0  0  0  0  0  0
  -24.9610  -34.2280   25.0070 H   0  0  0  0  0  0  0  0  0  0  0  0
  -24.0970  -36.8970   23.0910 C   0  0  0  0  0  1  0  0  0  0  0  0
  -25.3580  -36.5150   23.8830 C   0  0  0  0  0  3  0  0  0  0  0  0
  -27.4910  -37.4290   24.6770 C   0  0  0  0  0  1  0  0  0  0  0  0
  -26.3740  -37.5800   23.7470 N   0  0  0  0  0  0  0  0  0  0  0  0
  -25.9590  -38.4950   23.8980 H   0  0  0  0  0  0  0  0  0  0  0  0
  -26.4160  -31.9230   25.1420 C   0  0  1  0  0  0  0  0  0  0  0  0
  -25.3420  -31.6610   26.2250 C   0  0  0  0  0  1  0  0  0  0  0  0
  -27.0260  -30.5590   24.7420 C   0  0  0  0  0  1  0  0  0  0  0  0
  -27.5530  -32.7470   25.7890 C   0  0  0  0  0  1  0  0  0  0  0  0
  -30.3770  -18.1850   19.5060 C   0  0  0  0  0  3  0  0  0  0  0  0
  -31.4650  -17.7090   17.2150 C   0  0  0  0  0  1  0  0  0  0  0  0
  -30.1520  -17.9110   17.9910 C   0  0  0  0  0  2  0  0  0  0  0  0
  -30.4140  -16.8920   20.4350 C   0  0  0  0  0  3  0  0  0  0  0  0
  -30.2400  -14.6770   19.2090 C   0  0  0  0  0  0  0  0  0  0  0  0
  -29.6340  -12.6740   17.8990 C   0  0  0  0  0  2  0  0  0  0  0  0
  -28.4780  -13.0090   16.9360 C   0  0  0  0  0  2  0  0  0  0  0  0
  -27.1180  -12.8240   17.6350 C   0  0  0  0  0  2  0  0  0  0  0  0
  -27.0570  -13.5160   19.0230 C   0  0  0  0  0  3  0  0  0  0  0  0
  -28.3080  -13.1870   19.8680 C   0  0  0  0  0  2  0  0  0  0  0  0
  -29.4910  -13.5480   19.0730 N   0  0  0  0  0  0  0  0  0  0  0  0
  -31.2880  -14.8500   18.5850 O   0  0  0  0  0  0  0  0  0  0  0  0
  -29.7130  -15.6670   19.9650 N   0  0  0  0  0  0  0  0  0  0  0  0
  -28.8060  -15.4750   20.3650 H   0  0  0  0  0  0  0  0  0  0  0  0
  -24.8340  -14.0410   20.2060 C   0  0  0  0  0  0  0  0  0  0  0  0
  -23.8550  -13.2320   20.7180 C   0  0  0  0  0  0  0  0  0  0  0  0
  -24.3060  -11.8920   20.5180 C   0  0  0  0  0  0  0  0  0  0  0  0
  -25.8200  -13.1900   19.7290 N   0  0  0  0  0  0  0  0  0  0  0  0
  -25.5170  -11.8890   19.9740 N   0  0  0  0  0  0  0  0  0  0  0  0
  -23.6300  -10.6100   20.7580 C   0  0  0  0  0  0  0  0  0  0  0  0
  -24.2010   -9.6180   21.5850 C   0  0  0  0  0  3  0  0  0  0  0  0
  -23.5220   -8.4020   21.8170 C   0  0  0  0  0  3  0  0  0  0  0  0
  -22.2590   -8.1690   21.2230 C   0  0  0  0  0  0  0  0  0  0  0  0
  -21.7060   -9.1510   20.3810 C   0  0  0  0  0  3  0  0  0  0  0  0
  -22.3850  -10.3590   20.1480 C   0  0  0  0  0  3  0  0  0  0  0  0
  -21.5400   -7.0080   21.3700 O   0  0  0  0  0  0  0  0  0  0  0  0
  -21.6170   -6.2550   22.5130 C   0  0  0  0  0  0  0  0  0  0  0  0
  -21.2930   -6.7890   23.7820 C   0  0  0  0  0  3  0  0  0  0  0  0
  -21.3180   -5.9610   24.9210 C   0  0  0  0  0  3  0  0  0  0  0  0
  -21.6540   -4.5990   24.7960 C   0  0  0  0  0  0  0  0  0  0  0  0
  -21.9700   -4.0650   23.5360 C   0  0  0  0  0  3  0  0  0  0  0  0
  -21.9490   -4.8910   22.3970 C   0  0  0  0  0  0  0  0  0  0  0  0
  -22.2320   -4.3650   21.1810 F   0  0  0  0  0  0  0  0  0  0  0  0
  -21.6700   -3.8020   25.8900 F   0  0  0  0  0  0  0  0  0  0  0  0
  -22.5320  -13.6730   21.2730 C   0  0  0  0  0  0  0  0  0  0  0  0
  -21.9930  -12.9350   22.2360 N   0  0  0  0  0  0  0  0  0  0  0  0
  -21.9870  -14.7060   20.8830 O   0  0  0  0  0  0  0  0  0  0  0  0
  -22.4490  -12.0980   22.5710 H   0  0  0  0  0  0  0  0  0  0  0  0
  -21.1120  -13.2090   22.6470 H   0  0  0  0  0  0  0  0  0  0  0  0
  -24.9610  -15.4230   20.0840 N   0  0  0  0  0  0  0  0  0  0  0  0
  -24.2220  -16.0590   20.3640 H   0  0  0  0  0  0  0  0  0  0  0  0
  -25.7160  -15.8860   19.5950 H   0  0  0  0  0  0  0  0  0  0  0  0
  -30.0750  -17.1670   21.9240 C   0  0  0  0  0  2  0  0  0  0  0  0
  -30.2040  -15.9520   22.8800 C   0  0  0  0  0  2  0  0  0  0  0  0
  -31.6350  -15.4180   23.0150 C   0  0  0  0  0  0  0  0  0  0  0  0
  -31.8190  -14.1080   22.9070 N   0  0  0  0  0  0  0  0  0  0  0  0
  -32.5780  -16.1800   23.2140 O   0  0  0  0  0  0  0  0  0  0  0  0
  -31.0390  -13.4840   22.7610 H   0  0  0  0  0  0  0  0  0  0  0  0
  -32.7460  -13.7170   22.9920 H   0  0  0  0  0  0  0  0  0  0  0  0
  1  3  1  0
  2  1  1  0
  4  1  1  0
  4  5  1  0
  5  6  2  0
  7  5  1  0
  7  8  1  0
  8 13  1  0
  8  9  1  0
  9 10  1  0
  9 12  1  0
  9 11  1  0
 13 14  1  0
 14 16  1  0
 15 26  2  0
 16 21  1  0
 17 25  1  0
 17 27  1  0
 18 24  1  0
 18 20  1  0
 19 25  1  0
 20 19  1  0
 21 20  2  0
 22 23  1  0
 22 16  2  0
 23 18  2  0
 24 17  1  0
 25 15  1  0
 27 29  2  0
 28 27  1  0
 30 28  1  0
 31 40  2  0
 31 36  1  0
 32 28  1  0
 32 36  1  0
 33 32  1  0
 34 35  1  0
 34 33  1  0
 35 31  1  0
 36 37  2  0
 37 38  1  0
 39 38  2  0
 40 39  1  0
 41 15  1  0
 41 42  1  0
 41 51  1  0
 42 45  1  0
 43 47  1  0
 43 42  1  0
 44 43  2  0
 47 46  1  0
 49 47  1  0
 49 50  1  0
 49 48  1  0
 51 54  1  1
 51 52  1  0
 53 51  1  0
 55 57  1  0
 55  1  1  0
 55 58  1  0
 56 57  1  0
 58 97  1  0
 59 67  1  0
 60 65  1  0
 61 62  1  0
 61 60  1  0
 63 62  1  0
 63 72  1  0
 63 64  1  0
 65 59  1  0
 65 64  1  0
 66 59  2  0
 67 68  1  0
 67 58  1  0
 69 70  2  0
 70 89  1  0
 71 70  1  0
 71 74  1  0
 72 73  1  0
 72 69  1  0
 73 71  2  0
 74 75  1  0
 75 76  2  0
 77 80  1  0
 77 76  1  0
 78 77  2  0
 79 78  1  0
 79 74  2  0
 80 81  1  0
 81 82  1  0
 82 83  2  0
 84 83  1  0
 84 88  1  0
 85 84  2  0
 86 81  2  0
 86 85  1  0
 87 86  1  0
 89 90  1  0
 90 92  1  0
 90 93  1  0
 91 89  2  0
 94 69  1  0
 94 95  1  0
 96 94  1  0
 97 98  1  0
 98 99  1  0
 99101  2  0
100103  1  0
100 99  1  0
102100  1  0
M  ISO  4  13 101  14 101  59 100  67 100
M  END
>  <TORSDO>  (46) 
F 28

>  <SCORE>  (46) 
-1.671

>  <name>  (46) 
48

>  <ligand_id>  (46) 
48

>  <original_smiles>  (46) 
[H]c1c([H])c([H])c2c(c1[H])C([H])([H])C([H])([H])C([H])([H])C2([H])N([H])C(=O)C1([H])N(C(=O)C([H])(N([H])C(=O)C([H])(N([H])C([H])([H])[H])C([H])([H])[H])C(C([H])([H])[H])(C([H])([H])[H])C([H])([H])[H])C([H])([H])c2c([H])c(OC([H])([H])C([H])(C([H])([H])C(=O)C([H])([H])[N+]([H])([H])C([H])(C([H])([H])C([H])([H])[H])C([H])(N([H])C(=O)N3C([H])([H])C([H])([H])C([H])([H])C([H])(n4nc(-c5c([H])c([H])c(Oc6c([H])c([H])c(F)c([H])c6F)c([H])c5[H])c(C(=O)N([H])[H])c4N([H])[H])C3([H])[H])C([H])([H])C([H])([H])C(=O)N([H])[H])[N+]([H])([H])[H])c([H])c([H])c2C1([H])[H]

>  <smiles>  (46) 
[H]c1c([H])c([H])c2c(c1[H])C([H])([H])C([H])([H])C([H])([H])C2([H])N([H])C(=O)C1([H])N(C(=O)C([H])(N([H])C(=O)C([H])(N([H])C([H])([H])[H])C([H])([H])[H])C(C([H])([H])[H])(C([H])([H])[H])C([H])([H])[H])C([H])([H])c2c([H])c(OC([H])([H])C([H])(C([H])([H])C(=O)C([H])([H])[N+]([H])([H])C([H])(C([H])([H])C([H])([H])[H])C([H])(N([H])C(=O)N3C([H])([H])C([H])([H])C([H])([H])C([H])(n4nc(-c5c([H])c([H])c(Oc6c([H])c([H])c(F)c([H])c6F)c([H])c5[H])c(C(=O)N([H])[H])c4N([H])[H])C3([H])[H])C([H])([H])C([H])([H])C(=O)N([H])[H])[N+]([H])([H])[H])c([H])c([H])c2C1([H])[H]

$$$$
49:0:0
     RDKit          3D

 84 91  0  0  1  0  0  0  0  0999 V2000
  -28.0060  -23.9850   20.2290 C   0  0  0  0  0  2  0  0  0  0  0  0
  -29.7850  -22.5910   18.7400 C   0  0  0  0  0  1  0  0  0  0  0  0
  -29.0640  -22.4250   20.0980 C   0  0  0  0  0  3  0  0  0  0  0  0
  -28.8480  -20.5630   20.3560 C   0  0  0  0  0  2  0  0  0  0  0  0
  -30.0980  -18.9090   18.5670 C   0  0  0  0  0  1  0  0  0  0  0  0
  -29.7840  -18.9430   20.0690 C   0  0  0  0  0  3  0  0  0  0  0  0
  -29.5400  -17.1200   20.4620 C   0  0  0  0  0  2  0  0  0  0  0  0
  -30.3520  -15.5060   20.1850 C   0  0  0  0  0  0  0  0  0  0  0  0
  -30.3950  -12.9900   19.3630 C   0  0  0  0  0  2  0  0  0  0  0  0
  -29.4750  -12.6960   18.1490 C   0  0  0  0  0  2  0  0  0  0  0  0
  -28.0470  -12.3690   18.6160 C   0  0  0  0  0  2  0  0  0  0  0  0
  -27.5620  -13.3730   19.6840 C   0  0  0  0  0  3  0  0  0  0  0  0
  -28.6090  -13.6280   20.7870 C   0  0  0  0  0  2  0  0  0  0  0  0
  -29.8330  -14.1590   20.1580 N   0  0  0  0  0  0  0  0  0  0  0  0
  -31.5630  -15.4760   19.9090 O   0  0  0  0  0  0  0  0  0  0  0  0
  -25.2100  -13.9090   20.4900 C   0  0  0  0  0  0  0  0  0  0  0  0
  -24.1530  -13.1310   20.8670 C   0  0  0  0  0  0  0  0  0  0  0  0
  -24.6240  -11.7820   20.8270 C   0  0  0  0  0  0  0  0  0  0  0  0
  -26.2470  -13.0380   20.2200 N   0  0  0  0  0  0  0  0  0  0  0  0
  -25.9130  -11.7530   20.5000 N   0  0  0  0  0  0  0  0  0  0  0  0
  -23.9080  -10.5170   21.0190 C   0  0  0  0  0  0  0  0  0  0  0  0
  -24.3500   -9.5500   21.9470 C   0  0  0  0  0  3  0  0  0  0  0  0
  -23.6320   -8.3490   22.1310 C   0  0  0  0  0  3  0  0  0  0  0  0
  -22.4520   -8.1070   21.3850 C   0  0  0  0  0  0  0  0  0  0  0  0
  -22.0280   -9.0640   20.4430 C   0  0  0  0  0  3  0  0  0  0  0  0
  -22.7510  -10.2550   20.2590 C   0  0  0  0  0  3  0  0  0  0  0  0
  -21.7050   -6.9560   21.4780 O   0  0  0  0  0  0  0  0  0  0  0  0
  -21.6630   -6.2130   22.6320 C   0  0  0  0  0  0  0  0  0  0  0  0
  -21.2390   -6.7670   23.8600 C   0  0  0  0  0  3  0  0  0  0  0  0
  -21.1460   -5.9510   25.0040 C   0  0  0  0  0  3  0  0  0  0  0  0
  -21.4660   -4.5820   24.9230 C   0  0  0  0  0  0  0  0  0  0  0  0
  -21.8800   -4.0280   23.7000 C   0  0  0  0  0  3  0  0  0  0  0  0
  -21.9760   -4.8400   22.5560 C   0  0  0  0  0  0  0  0  0  0  0  0
  -22.3560   -4.2950   21.3760 F   0  0  0  0  0  0  0  0  0  0  0  0
  -21.3700   -3.7970   26.0210 F   0  0  0  0  0  0  0  0  0  0  0  0
  -22.7570  -13.6030   21.1470 C   0  0  0  0  0  0  0  0  0  0  0  0
  -22.0360  -12.9080   22.0200 N   0  0  0  0  0  0  0  0  0  0  0  0
  -22.3090  -14.6270   20.6290 O   0  0  0  0  0  0  0  0  0  0  0  0
  -22.4010  -12.0730   22.4540 H   0  0  0  0  0  0  0  0  0  0  0  0
  -21.1060  -13.2180   22.2640 H   0  0  0  0  0  0  0  0  0  0  0  0
  -25.3770  -15.2820   20.3130 N   0  0  0  0  0  0  0  0  0  0  0  0
  -24.6340  -15.9550   20.4480 H   0  0  0  0  0  0  0  0  0  0  0  0
  -26.2280  -15.6990   19.9570 H   0  0  0  0  0  0  0  0  0  0  0  0
  -28.1850  -25.6950   20.2260 O   0  0  0  0  0  0  0  0  0  0  0  0
  -24.6350  -31.8540   23.1750 C   0  0  0  0  0  0  0  0  0  0  0  0
  -27.1730  -26.8410   20.1980 C   0  0  0  0  0  0  0  0  0  0  0  0
  -23.4320  -30.4340   21.5680 C   0  0  0  0  0  3  0  0  0  0  0  0
  -24.8750  -28.7930   20.1600 C   0  0  0  0  0  0  0  0  0  0  0  0
  -26.0070  -30.6150   21.4060 C   0  0  0  0  0  2  0  0  0  0  0  0
  -26.0750  -29.1850   20.7650 C   0  0  0  0  0  0  0  0  0  0  0  0
  -27.2120  -28.2350   20.7530 C   0  0  0  0  0  3  0  0  0  0  0  0
  -25.9360  -26.6330   19.5430 C   0  0  0  0  0  3  0  0  0  0  0  0
  -24.8370  -27.5380   19.5270 C   0  0  0  0  0  3  0  0  0  0  0  0
  -23.6590  -29.7260   20.2020 C   0  0  0  0  0  2  0  0  0  0  0  0
  -24.7130  -30.9970   22.1020 N   0  0  0  0  0  0  0  0  0  0  0  0
  -23.5460  -32.1510   23.6960 O   0  0  0  0  0  0  0  0  0  0  0  0
  -22.7420  -29.4550   22.5540 C   0  0  0  0  0  0  0  0  0  0  0  0
  -21.4110  -29.2850   22.4360 N   0  0  0  0  0  0  0  0  0  0  0  0
  -23.4120  -28.8470   23.3920 O   0  0  0  0  0  0  0  0  0  0  0  0
  -20.9230  -29.8170   21.7280 H   0  0  0  0  0  0  0  0  0  0  0  0
  -18.0370  -28.0610   22.9770 C   0  0  0  0  0  0  0  0  0  0  0  0
  -20.5950  -28.3540   23.2240 C   0  0  0  0  0  3  0  0  0  0  0  0
  -20.7090  -26.9140   22.6680 C   0  0  0  0  0  2  0  0  0  0  0  0
  -19.6050  -26.5700   21.6640 C   0  0  0  0  0  2  0  0  0  0  0  0
  -18.2260  -26.7080   22.3120 C   0  0  0  0  0  2  0  0  0  0  0  0
  -19.1490  -28.8420   23.3910 C   0  0  0  0  0  0  0  0  0  0  0  0
  -18.9170  -30.1070   23.9720 C   0  0  0  0  0  3  0  0  0  0  0  0
  -17.6050  -30.5900   24.1440 C   0  0  0  0  0  3  0  0  0  0  0  0
  -16.5080  -29.8050   23.7470 C   0  0  0  0  0  3  0  0  0  0  0  0
  -16.7250  -28.5440   23.1660 C   0  0  0  0  0  3  0  0  0  0  0  0
  -25.9040  -32.5130   23.7950 C   0  0  0  0  0  3  0  0  0  0  0  0
  -26.4300  -31.7520   25.0770 C   0  0  1  0  0  0  0  0  0  0  0  0
  -25.3430  -31.5140   26.1520 C   0  0  0  0  0  1  0  0  0  0  0  0
  -27.0140  -30.3740   24.6960 C   0  0  0  0  0  1  0  0  0  0  0  0
  -27.5810  -32.5570   25.7260 C   0  0  0  0  0  1  0  0  0  0  0  0
  -25.5750  -33.9100   24.1410 N   0  0  0  0  0  0  0  0  0  0  0  0
  -25.8780  -34.9800   23.3950 C   0  0  0  0  0  0  0  0  0  0  0  0
  -26.5240  -34.8960   22.3480 O   0  0  0  0  0  0  0  0  0  0  0  0
  -24.9960  -34.0440   24.9570 H   0  0  0  0  0  0  0  0  0  0  0  0
  -24.1170  -36.7590   23.1220 C   0  0  0  0  0  1  0  0  0  0  0  0
  -25.3910  -36.3600   23.8850 C   0  0  0  0  0  3  0  0  0  0  0  0
  -27.5390  -37.2670   24.6560 C   0  0  0  0  0  1  0  0  0  0  0  0
  -26.4050  -37.4280   23.7490 N   0  0  0  0  0  0  0  0  0  0  0  0
  -25.9910  -38.3410   23.9180 H   0  0  0  0  0  0  0  0  0  0  0  0
  3  2  1  0
  3  1  1  0
  3  4  1  0
  6  5  1  0
  6  4  1  0
  6  7  1  0
  8  7  1  0
  9 14  1  0
 10 11  1  0
 10  9  1  0
 12 11  1  0
 12 19  1  0
 12 13  1  0
 14  8  1  0
 14 13  1  0
 15  8  2  0
 16 17  2  0
 17 36  1  0
 18 17  1  0
 18 21  1  0
 19 16  1  0
 19 20  1  0
 20 18  2  0
 21 22  1  0
 22 23  2  0
 24 27  1  0
 24 23  1  0
 25 24  2  0
 26 25  1  0
 26 21  2  0
 27 28  1  0
 28 29  1  0
 29 30  2  0
 31 30  1  0
 31 35  1  0
 32 31  2  0
 33 28  2  0
 33 32  1  0
 34 33  1  0
 36 37  1  0
 37 40  1  0
 37 39  1  0
 38 36  2  0
 41 42  1  0
 41 16  1  0
 43 41  1  0
 44  1  1  0
 45 56  2  0
 46 44  1  0
 46 51  1  0
 47 55  1  0
 47 57  1  0
 48 54  1  0
 48 50  1  0
 49 55  1  0
 50 49  1  0
 51 50  2  0
 52 46  2  0
 53 52  1  0
 53 48  2  0
 54 47  1  0
 55 45  1  0
 57 59  2  0
 58 57  1  0
 60 58  1  0
 61 70  2  0
 61 66  1  0
 62 58  1  0
 62 66  1  0
 63 62  1  0
 64 65  1  0
 64 63  1  0
 65 61  1  0
 66 67  2  0
 67 68  1  0
 69 68  2  0
 70 69  1  0
 71 45  1  0
 71 76  1  0
 71 72  1  0
 72 75  1  1
 72 73  1  0
 74 72  1  0
 76 79  1  0
 77 81  1  0
 77 76  1  0
 78 77  2  0
 81 80  1  0
 83 81  1  0
 83 84  1  0
 83 82  1  0
M  ISO  4   1 101   7 100   8 100  44 101
M  END
>  <TORSDO>  (47) 
F 20

>  <SCORE>  (47) 
-16.383

>  <name>  (47) 
49

>  <ligand_id>  (47) 
49

>  <original_smiles>  (47) 
[H]c1c([H])c([H])c2c(c1[H])C([H])([H])C([H])([H])C([H])([H])C2([H])N([H])C(=O)C1([H])N(C(=O)C([H])(N([H])C(=O)C([H])(N([H])C([H])([H])[H])C([H])([H])[H])C(C([H])([H])[H])(C([H])([H])[H])C([H])([H])[H])C([H])([H])c2c([H])c(OC([H])([H])C([H])(C([H])([H])[H])C([H])([H])C([H])(C([H])([H])[H])C([H])([H])C(=O)N3C([H])([H])C([H])([H])C([H])([H])C([H])(n4nc(-c5c([H])c([H])c(Oc6c([H])c([H])c(F)c([H])c6F)c([H])c5[H])c(C(=O)N([H])[H])c4N([H])[H])C3([H])[H])c([H])c([H])c2C1([H])[H]

>  <smiles>  (47) 
[H]c1c([H])c([H])c2c(c1[H])C([H])([H])C([H])([H])C([H])([H])C2([H])N([H])C(=O)C1([H])N(C(=O)C([H])(N([H])C(=O)C([H])(N([H])C([H])([H])[H])C([H])([H])[H])C(C([H])([H])[H])(C([H])([H])[H])C([H])([H])[H])C([H])([H])c2c([H])c(OC([H])([H])C([H])(C([H])([H])[H])C([H])([H])C([H])(C([H])([H])[H])C([H])([H])C(=O)N3C([H])([H])C([H])([H])C([H])([H])C([H])(n4nc(-c5c([H])c([H])c(Oc6c([H])c([H])c(F)c([H])c6F)c([H])c5[H])c(C(=O)N([H])[H])c4N([H])[H])C3([H])[H])c([H])c([H])c2C1([H])[H]

$$$$
50:0:0
     RDKit          3D

 92 99  0  0  1  0  0  0  0  0999 V2000
  -29.2950  -21.9740   20.0610 C   0  0  0  0  0  3  0  0  0  0  0  0
  -29.3520  -20.5920   20.8370 N   0  0  0  0  0  4  0  0  0  0  0  0
  -30.2020  -20.6350   21.3810 H   0  0  0  0  0  0  0  0  0  0  0  0
  -28.6050  -20.5940   21.5080 H   0  0  0  0  0  0  0  0  0  0  0  0
  -29.3250  -19.1790   20.1340 C   0  0  0  0  0  3  0  0  0  0  0  0
  -29.9520  -17.7420   20.8020 C   0  0  0  0  0  3  0  0  0  0  0  0
  -30.4350  -15.0720   20.1990 C   0  0  0  0  0  0  0  0  0  0  0  0
  -30.2470  -12.7790   19.1280 C   0  0  0  0  0  2  0  0  0  0  0  0
  -29.2420  -12.6980   17.9510 C   0  0  0  0  0  2  0  0  0  0  0  0
  -27.8200  -12.4280   18.4680 C   0  0  0  0  0  2  0  0  0  0  0  0
  -27.4470  -13.3390   19.6600 C   0  0  0  0  0  3  0  0  0  0  0  0
  -28.5630  -13.3950   20.7300 C   0  0  0  0  0  2  0  0  0  0  0  0
  -29.7990  -13.8390   20.0710 N   0  0  0  0  0  0  0  0  0  0  0  0
  -31.6620  -15.0900   20.0360 O   0  0  0  0  0  0  0  0  0  0  0  0
  -28.7660  -16.4470   19.0980 C   0  0  0  0  0  1  0  0  0  0  0  0
  -29.6840  -16.2940   20.2200 N   0  0  0  0  0  0  0  0  0  0  0  0
  -25.1150  -13.8920   20.5310 C   0  0  0  0  0  0  0  0  0  0  0  0
  -24.0700  -13.0970   20.9250 C   0  0  0  0  0  0  0  0  0  0  0  0
  -24.5490  -11.7550   20.8420 C   0  0  0  0  0  0  0  0  0  0  0  0
  -26.1460  -13.0210   20.2210 N   0  0  0  0  0  0  0  0  0  0  0  0
  -25.8240  -11.7320   20.4850 N   0  0  0  0  0  0  0  0  0  0  0  0
  -23.8460  -10.4800   21.0260 C   0  0  0  0  0  0  0  0  0  0  0  0
  -24.3030   -9.5180   21.9500 C   0  0  0  0  0  3  0  0  0  0  0  0
  -23.6010   -8.3050   22.1250 C   0  0  0  0  0  3  0  0  0  0  0  0
  -22.4290   -8.0520   21.3740 C   0  0  0  0  0  0  0  0  0  0  0  0
  -21.9950   -9.0070   20.4350 C   0  0  0  0  0  3  0  0  0  0  0  0
  -22.6970  -10.2070   20.2600 C   0  0  0  0  0  3  0  0  0  0  0  0
  -21.6900   -6.8970   21.4620 O   0  0  0  0  0  0  0  0  0  0  0  0
  -21.6420   -6.1650   22.6180 C   0  0  0  0  0  0  0  0  0  0  0  0
  -21.1430   -6.7050   23.8260 C   0  0  0  0  0  3  0  0  0  0  0  0
  -21.0470   -5.8950   24.9720 C   0  0  0  0  0  3  0  0  0  0  0  0
  -21.4370   -4.5420   24.9160 C   0  0  0  0  0  0  0  0  0  0  0  0
  -21.9280   -4.0010   23.7130 C   0  0  0  0  0  3  0  0  0  0  0  0
  -22.0270   -4.8100   22.5680 C   0  0  0  0  0  0  0  0  0  0  0  0
  -22.4800   -4.2790   21.4090 F   0  0  0  0  0  0  0  0  0  0  0  0
  -21.3360   -3.7610   26.0150 F   0  0  0  0  0  0  0  0  0  0  0  0
  -22.6820  -13.5580   21.2530 C   0  0  0  0  0  0  0  0  0  0  0  0
  -21.9900  -12.8310   22.1280 N   0  0  0  0  0  0  0  0  0  0  0  0
  -22.2160  -14.5890   20.7730 O   0  0  0  0  0  0  0  0  0  0  0  0
  -22.3850  -12.0020   22.5410 H   0  0  0  0  0  0  0  0  0  0  0  0
  -21.0570  -13.1150   22.3860 H   0  0  0  0  0  0  0  0  0  0  0  0
  -25.2620  -15.2650   20.3800 N   0  0  0  0  0  0  0  0  0  0  0  0
  -24.5090  -15.9210   20.5550 H   0  0  0  0  0  0  0  0  0  0  0  0
  -26.1210  -15.7110   20.0810 H   0  0  0  0  0  0  0  0  0  0  0  0
  -27.4310  -23.0880   21.5140 C   0  0  0  0  0  1  0  0  0  0  0  0
  -28.7380  -23.4040   20.7700 C   0  0  0  0  0  3  0  0  0  0  0  0
  -28.4770  -24.8460   19.9250 C   0  0  0  0  0  2  0  0  0  0  0  0
  -28.3780  -26.2980   20.4910 O   0  0  0  0  0  0  0  0  0  0  0  0
  -24.5330  -31.9180   23.2720 C   0  0  0  0  0  0  0  0  0  0  0  0
  -27.2850  -27.2300   20.3450 C   0  0  0  0  0  0  0  0  0  0  0  0
  -23.4090  -30.4990   21.5970 C   0  0  0  0  0  3  0  0  0  0  0  0
  -24.9270  -28.9380   20.2270 C   0  0  0  0  0  0  0  0  0  0  0  0
  -25.9620  -30.7930   21.5250 C   0  0  0  0  0  2  0  0  0  0  0  0
  -26.0750  -29.4020   20.8800 C   0  0  0  0  0  0  0  0  0  0  0  0
  -27.2490  -28.5620   20.9240 C   0  0  0  0  0  3  0  0  0  0  0  0
  -26.1110  -26.8650   19.6480 C   0  0  0  0  0  3  0  0  0  0  0  0
  -24.9630  -27.6850   19.5920 C   0  0  0  0  0  3  0  0  0  0  0  0
  -23.6870  -29.8190   20.2290 C   0  0  0  0  0  2  0  0  0  0  0  0
  -24.6520  -31.0920   22.1880 N   0  0  0  0  0  0  0  0  0  0  0  0
  -23.4260  -32.1910   23.7610 O   0  0  0  0  0  0  0  0  0  0  0  0
  -22.7080  -29.4880   22.5420 C   0  0  0  0  0  0  0  0  0  0  0  0
  -21.3870  -29.2980   22.3660 N   0  0  0  0  0  0  0  0  0  0  0  0
  -23.3560  -28.8780   23.3970 O   0  0  0  0  0  0  0  0  0  0  0  0
  -20.9220  -29.8450   21.6550 H   0  0  0  0  0  0  0  0  0  0  0  0
  -18.0030  -28.0700   22.7660 C   0  0  0  0  0  0  0  0  0  0  0  0
  -20.5490  -28.3550   23.1130 C   0  0  0  0  0  3  0  0  0  0  0  0
  -20.6800  -26.9230   22.5450 C   0  0  0  0  0  2  0  0  0  0  0  0
  -19.6150  -26.5880   21.4970 C   0  0  0  0  0  2  0  0  0  0  0  0
  -18.2130  -26.7220   22.0970 C   0  0  0  0  0  2  0  0  0  0  0  0
  -19.1010  -28.8440   23.2280 C   0  0  0  0  0  0  0  0  0  0  0  0
  -18.8510  -30.1030   23.8150 C   0  0  0  0  0  3  0  0  0  0  0  0
  -17.5360  -30.5900   23.9430 C   0  0  0  0  0  3  0  0  0  0  0  0
  -16.4530  -29.8150   23.4960 C   0  0  0  0  0  3  0  0  0  0  0  0
  -16.6860  -28.5570   22.9140 C   0  0  0  0  0  3  0  0  0  0  0  0
  -25.7810  -32.5720   23.9410 C   0  0  0  0  0  3  0  0  0  0  0  0
  -25.4560  -33.9820   24.2130 N   0  0  0  0  0  0  0  0  0  0  0  0
  -25.8190  -35.0130   23.4380 C   0  0  0  0  0  0  0  0  0  0  0  0
  -26.5270  -34.8790   22.4370 O   0  0  0  0  0  0  0  0  0  0  0  0
  -24.8300  -34.1600   24.9850 H   0  0  0  0  0  0  0  0  0  0  0  0
  -24.1140  -36.8040   22.9630 C   0  0  0  0  0  1  0  0  0  0  0  0
  -25.3170  -36.4190   23.8370 C   0  0  0  0  0  3  0  0  0  0  0  0
  -27.4140  -37.3260   24.7390 C   0  0  0  0  0  1  0  0  0  0  0  0
  -26.3580  -37.4650   23.7410 N   0  0  0  0  0  0  0  0  0  0  0  0
  -25.9490  -38.3900   23.8380 H   0  0  0  0  0  0  0  0  0  0  0  0
  -26.2260  -31.8470   25.2690 C   0  0  1  0  0  0  0  0  0  0  0  0
  -25.0770  -31.6440   26.2850 C   0  0  0  0  0  1  0  0  0  0  0  0
  -26.8270  -30.4560   24.9620 C   0  0  0  0  0  1  0  0  0  0  0  0
  -27.3410  -32.6620   25.9640 C   0  0  0  0  0  1  0  0  0  0  0  0
  -28.7960  -21.8400   18.5970 C   0  0  0  0  0  2  0  0  0  0  0  0
  -30.5470  -21.1180   16.8530 C   0  0  0  0  0  1  0  0  0  0  0  0
  -29.2480  -23.1940   16.4740 C   0  0  0  0  0  1  0  0  0  0  0  0
  -29.8610  -22.3050   17.5640 C   0  0  0  0  0  3  0  0  0  0  0  0
  1 89  1  0
  1 46  1  0
  1  2  1  0
  2  3  1  0
  2  4  1  0
  5  6  2  0
  5  2  1  0
  7 16  1  0
  8 13  1  0
  9 10  1  0
  9  8  1  0
 11 10  1  0
 11 20  1  0
 11 12  1  0
 13  7  1  0
 13 12  1  0
 14  7  2  0
 15 16  1  0
 16  6  1  0
 17 18  2  0
 18 37  1  0
 19 18  1  0
 19 22  1  0
 20 21  1  0
 20 17  1  0
 21 19  2  0
 22 23  1  0
 23 24  2  0
 25 28  1  0
 25 24  1  0
 26 25  2  0
 27 26  1  0
 27 22  2  0
 28 29  1  0
 29 30  1  0
 30 31  2  0
 32 31  1  0
 32 36  1  0
 33 32  2  0
 34 29  2  0
 34 33  1  0
 35 34  1  0
 37 38  1  0
 38 41  1  0
 38 40  1  0
 39 37  2  0
 42 17  1  0
 42 43  1  0
 44 42  1  0
 46 45  1  0
 47 48  1  0
 47 46  1  0
 49 60  2  0
 50 48  1  0
 50 55  1  0
 51 59  1  0
 51 61  1  0
 52 58  1  0
 52 54  1  0
 53 59  1  0
 54 55  2  0
 54 53  1  0
 56 50  2  0
 57 56  1  0
 57 52  2  0
 58 51  1  0
 59 49  1  0
 61 63  2  0
 62 61  1  0
 64 62  1  0
 65 74  2  0
 65 70  1  0
 66 62  1  0
 66 70  1  0
 67 66  1  0
 68 69  1  0
 68 67  1  0
 69 65  1  0
 70 71  2  0
 71 72  1  0
 73 72  2  0
 74 73  1  0
 75 49  1  0
 75 76  1  0
 75 85  1  0
 76 79  1  0
 77 81  1  0
 77 76  1  0
 78 77  2  0
 81 80  1  0
 83 81  1  0
 83 84  1  0
 83 82  1  0
 85 88  1  1
 85 86  1  0
 87 85  1  0
 90 92  1  0
 91 92  1  0
 92 89  1  0
M  ISO  4   7 100  16 100  47 101  48 101
M  END
>  <TORSDO>  (48) 
F 23

>  <SCORE>  (48) 
-13.357

>  <name>  (48) 
50

>  <ligand_id>  (48) 
50

>  <original_smiles>  (48) 
[H]c1c([H])c([H])c2c(c1[H])C([H])([H])C([H])([H])C([H])([H])C2([H])N([H])C(=O)C1([H])N(C(=O)C([H])(N([H])C(=O)C([H])(N([H])C([H])([H])[H])C([H])([H])[H])C(C([H])([H])[H])(C([H])([H])[H])C([H])([H])[H])C([H])([H])c2c([H])c(OC([H])([H])C([H])(C([H])([H])[H])C([H])(C([H])([H])C([H])(C([H])([H])[H])C([H])([H])[H])[N+]([H])([H])C([H])([H])C([H])([H])N(C(=O)N3C([H])([H])C([H])([H])C([H])([H])C([H])(n4nc(-c5c([H])c([H])c(Oc6c([H])c([H])c(F)c([H])c6F)c([H])c5[H])c(C(=O)N([H])[H])c4N([H])[H])C3([H])[H])C([H])([H])[H])c([H])c([H])c2C1([H])[H]

>  <smiles>  (48) 
[H]c1c([H])c([H])c2c(c1[H])C([H])([H])C([H])([H])C([H])([H])C2([H])N([H])C(=O)C1([H])N(C(=O)C([H])(N([H])C(=O)C([H])(N([H])C([H])([H])[H])C([H])([H])[H])C(C([H])([H])[H])(C([H])([H])[H])C([H])([H])[H])C([H])([H])c2c([H])c(OC([H])([H])C([H])(C([H])([H])[H])C([H])(C([H])([H])C([H])(C([H])([H])[H])C([H])([H])[H])[N+]([H])([H])C([H])([H])C([H])([H])N(C(=O)N3C([H])([H])C([H])([H])C([H])([H])C([H])(n4nc(-c5c([H])c([H])c(Oc6c([H])c([H])c(F)c([H])c6F)c([H])c5[H])c(C(=O)N([H])[H])c4N([H])[H])C3([H])[H])C([H])([H])[H])c([H])c([H])c2C1([H])[H]

$$$$
51:0:0
     RDKit          3D

102110  0  0  1  0  0  0  0  0999 V2000
  -26.1050  -22.7410   20.2060 C   0  0  0  0  0  3  0  0  0  0  0  0
  -27.2460  -22.9400   21.2690 C   0  0  0  0  0  3  0  0  0  0  0  0
  -28.5730  -22.2000   20.8930 C   0  0  0  0  0  2  0  0  0  0  0  0
  -28.4350  -20.6920   20.5820 C   0  0  0  0  0  2  0  0  0  0  0  0
  -29.7770  -19.9860   20.3050 C   0  0  0  0  0  2  0  0  0  0  0  0
  -29.6430  -18.4510   20.3620 C   0  0  0  0  0  2  0  0  0  0  0  0
  -30.9970  -17.7100   20.3130 C   0  0  0  0  0  2  0  0  0  0  0  0
  -31.5610  -15.2560   20.1970 C   0  0  0  0  0  0  0  0  0  0  0  0
  -31.4780  -12.8260   19.7660 C   0  0  0  0  0  2  0  0  0  0  0  0
  -30.6720  -12.5600   18.4750 C   0  0  0  0  0  2  0  0  0  0  0  0
  -29.1630  -12.4800   18.7790 C   0  0  0  0  0  2  0  0  0  0  0  0
  -28.6660  -13.6730   19.6330 C   0  0  0  0  0  3  0  0  0  0  0  0
  -29.5740  -13.8670   20.8660 C   0  0  0  0  0  2  0  0  0  0  0  0
  -30.9610  -14.0520   20.3890 N   0  0  0  0  0  0  0  0  0  0  0  0
  -32.6530  -15.4000   19.6320 O   0  0  0  0  0  0  0  0  0  0  0  0
  -30.8230  -16.2930   20.6190 N   0  0  0  0  0  0  0  0  0  0  0  0
  -29.9900  -16.0420   21.1310 H   0  0  0  0  0  0  0  0  0  0  0  0
  -26.2690  -14.4690   20.1370 C   0  0  0  0  0  0  0  0  0  0  0  0
  -25.1340  -13.7820   20.4780 C   0  0  0  0  0  0  0  0  0  0  0  0
  -25.5120  -12.4070   20.5490 C   0  0  0  0  0  0  0  0  0  0  0  0
  -27.2680  -13.5130   20.0220 N   0  0  0  0  0  0  0  0  0  0  0  0
  -26.8120  -12.2730   20.3260 N   0  0  0  0  0  0  0  0  0  0  0  0
  -24.7020  -11.2020   20.7640 C   0  0  0  0  0  0  0  0  0  0  0  0
  -25.0290  -10.2580   21.7620 C   0  0  0  0  0  3  0  0  0  0  0  0
  -24.2260   -9.1140   21.9560 C   0  0  0  0  0  3  0  0  0  0  0  0
  -23.0810   -8.9060   21.1510 C   0  0  0  0  0  0  0  0  0  0  0  0
  -22.7710   -9.8360   20.1440 C   0  0  0  0  0  3  0  0  0  0  0  0
  -23.5750  -10.9730   19.9500 C   0  0  0  0  0  3  0  0  0  0  0  0
  -22.2610   -7.8080   21.2480 O   0  0  0  0  0  0  0  0  0  0  0  0
  -22.0490   -7.1710   22.4430 C   0  0  0  0  0  0  0  0  0  0  0  0
  -21.5520   -7.8580   23.5730 C   0  0  0  0  0  3  0  0  0  0  0  0
  -21.2790   -7.1520   24.7610 C   0  0  0  0  0  3  0  0  0  0  0  0
  -21.4970   -5.7610   24.8220 C   0  0  0  0  0  0  0  0  0  0  0  0
  -21.9890   -5.0760   23.6980 C   0  0  0  0  0  3  0  0  0  0  0  0
  -22.2620   -5.7780   22.5110 C   0  0  0  0  0  0  0  0  0  0  0  0
  -22.7130   -5.1120   21.4220 F   0  0  0  0  0  0  0  0  0  0  0  0
  -21.2280   -5.0800   25.9610 F   0  0  0  0  0  0  0  0  0  0  0  0
  -23.7570  -14.3570   20.6370 C   0  0  0  0  0  0  0  0  0  0  0  0
  -22.9520  -13.7800   21.5240 N   0  0  0  0  0  0  0  0  0  0  0  0
  -23.4040  -15.3560   20.0170 O   0  0  0  0  0  0  0  0  0  0  0  0
  -23.2520  -12.9790   22.0590 H   0  0  0  0  0  0  0  0  0  0  0  0
  -22.0280  -14.1600   21.6740 H   0  0  0  0  0  0  0  0  0  0  0  0
  -26.5270  -15.8130   19.8980 N   0  0  0  0  0  0  0  0  0  0  0  0
  -25.7870  -16.5080   19.8940 H   0  0  0  0  0  0  0  0  0  0  0  0
  -27.4210  -16.1830   19.6000 H   0  0  0  0  0  0  0  0  0  0  0  0
  -27.5220  -24.4360   21.6090 C   0  0  0  0  0  2  0  0  0  0  0  0
  -28.6620  -24.6410   22.5230 N   0  0  0  0  0  4  0  0  0  0  0  0
  -29.5240  -24.6060   22.0070 H   0  0  0  0  0  0  0  0  0  0  0  0
  -28.6930  -23.9550   23.2560 H   0  0  0  0  0  0  0  0  0  0  0  0
  -28.6130  -25.5480   22.9570 H   0  0  0  0  0  0  0  0  0  0  0  0
  -24.9090  -23.7490   20.2490 C   0  0  0  0  0  2  0  0  0  0  0  0
  -22.6130  -24.2060   23.1950 C   0  0  0  0  0  2  0  0  0  0  0  0
  -22.9930  -25.6510   22.8470 C   0  0  0  0  0  2  0  0  0  0  0  0
  -23.1290  -23.3730   22.0140 C   0  0  0  0  0  2  0  0  0  0  0  0
  -24.0760  -25.5300   21.7650 C   0  0  0  0  0  2  0  0  0  0  0  0
  -24.3560  -24.0810   21.5910 N   0  0  2  0  0  4  0  0  0  0  0  0
  -25.0570  -23.8660   22.2830 H   0  0  0  0  0  0  0  0  0  0  0  0
  -26.6550  -22.5800   18.7560 C   0  0  0  0  0  2  0  0  0  0  0  0
  -26.7220  -23.8540   17.8890 C   0  0  0  0  0  2  0  0  0  0  0  0
  -28.1210  -24.2330   17.3800 C   0  0  0  0  0  2  0  0  0  0  0  0
  -28.2420  -25.7090   16.9260 C   0  0  0  0  0  2  0  0  0  0  0  0
  -28.1950  -26.6720   17.9880 O   0  0  0  0  0  0  0  0  0  0  0  0
  -24.5690  -30.7270   22.5840 C   0  0  0  0  0  0  0  0  0  0  0  0
  -27.0510  -27.4190   18.2000 C   0  0  0  0  0  0  0  0  0  0  0  0
  -23.3480  -30.0700   20.5360 C   0  0  0  0  0  3  0  0  0  0  0  0
  -24.7560  -29.0020   18.7070 C   0  0  0  0  0  0  0  0  0  0  0  0
  -25.9010  -30.2630   20.5330 C   0  0  0  0  0  2  0  0  0  0  0  0
  -25.9180  -29.1890   19.4660 C   0  0  0  0  0  0  0  0  0  0  0  0
  -27.0620  -28.3920   19.2260 C   0  0  0  0  0  3  0  0  0  0  0  0
  -25.8650  -27.2550   17.4470 C   0  0  0  0  0  3  0  0  0  0  0  0
  -24.7220  -28.0240   17.7040 C   0  0  0  0  0  3  0  0  0  0  0  0
  -23.5770  -29.8920   19.0140 C   0  0  0  0  0  2  0  0  0  0  0  0
  -24.6220  -30.3440   21.2770 N   0  0  0  0  0  0  0  0  0  0  0  0
  -23.4860  -30.8880   23.1610 O   0  0  0  0  0  0  0  0  0  0  0  0
  -22.5810  -28.8370   21.0670 C   0  0  0  0  0  0  0  0  0  0  0  0
  -21.2390  -28.8970   21.0180 N   0  0  0  0  0  0  0  0  0  0  0  0
  -23.1880  -27.8460   21.4830 O   0  0  0  0  0  0  0  0  0  0  0  0
  -20.8190  -29.7480   20.6730 H   0  0  0  0  0  0  0  0  0  0  0  0
  -17.7840  -28.1890   21.8080 C   0  0  0  0  0  0  0  0  0  0  0  0
  -20.3170  -27.8390   21.4320 C   0  0  0  0  0  3  0  0  0  0  0  0
  -19.9110  -26.9490   20.2330 C   0  0  0  0  0  2  0  0  0  0  0  0
  -18.6190  -27.4050   19.5480 C   0  0  0  0  0  2  0  0  0  0  0  0
  -17.4550  -27.4070   20.5460 C   0  0  0  0  0  2  0  0  0  0  0  0
  -19.1280  -28.4060   22.2140 C   0  0  0  0  0  0  0  0  0  0  0  0
  -19.3770  -29.1740   23.3730 C   0  0  0  0  0  3  0  0  0  0  0  0
  -18.3130  -29.7160   24.1220 C   0  0  0  0  0  3  0  0  0  0  0  0
  -16.9860  -29.4820   23.7240 C   0  0  0  0  0  3  0  0  0  0  0  0
  -16.7240  -28.7160   22.5730 C   0  0  0  0  0  3  0  0  0  0  0  0
  -25.8680  -31.0020   23.4010 C   0  0  0  0  0  3  0  0  0  0  0  0
  -26.1860  -29.8750   24.4590 C   0  0  1  0  0  0  0  0  0  0  0  0
  -24.9960  -29.5360   25.3850 C   0  0  0  0  0  1  0  0  0  0  0  0
  -26.6170  -28.5650   23.7550 C   0  0  0  0  0  1  0  0  0  0  0  0
  -27.3670  -30.3180   25.3530 C   0  0  0  0  0  1  0  0  0  0  0  0
  -25.7040  -32.3050   24.0600 N   0  0  0  0  0  0  0  0  0  0  0  0
  -26.3060  -33.4350   23.6680 C   0  0  0  0  0  0  0  0  0  0  0  0
  -27.1260  -33.4720   22.7450 O   0  0  0  0  0  0  0  0  0  0  0  0
  -25.0130  -32.3560   24.7940 H   0  0  0  0  0  0  0  0  0  0  0  0
  -25.0100  -35.5840   23.5490 C   0  0  0  0  0  1  0  0  0  0  0  0
  -25.9420  -34.7290   24.4190 C   0  0  0  0  0  3  0  0  0  0  0  0
  -27.9210  -34.8900   25.8630 C   0  0  0  0  0  1  0  0  0  0  0  0
  -27.1210  -35.5270   24.8210 N   0  0  0  0  0  0  0  0  0  0  0  0
  -26.8340  -36.4420   25.1580 H   0  0  0  0  0  0  0  0  0  0  0  0
  1 58  1  0
  1 51  1  0
  1  2  1  0
  2  3  1  0
  2 46  1  0
  4  3  1  0
  5  6  1  0
  5  4  1  0
  7  6  1  0
  7 16  1  0
  8 14  1  0
  8 16  1  0
  9 14  1  0
 10 11  1  0
 10  9  1  0
 12 11  1  0
 12 21  1  0
 12 13  1  0
 14 13  1  0
 15  8  2  0
 16 17  1  0
 18 19  2  0
 19 20  1  0
 19 38  1  0
 20 23  1  0
 21 18  1  0
 21 22  1  0
 22 20  2  0
 23 24  1  0
 24 25  2  0
 26 29  1  0
 26 25  1  0
 27 26  2  0
 28 27  1  0
 28 23  2  0
 29 30  1  0
 30 35  2  0
 30 31  1  0
 31 32  2  0
 32 33  1  0
 33 37  1  0
 34 33  2  0
 35 34  1  0
 36 35  1  0
 38 39  1  0
 39 42  1  0
 39 41  1  0
 40 38  2  0
 43 18  1  0
 44 43  1  0
 45 43  1  0
 46 47  1  0
 47 50  1  0
 47 49  1  0
 48 47  1  0
 51 56  1  0
 53 52  1  0
 54 52  1  0
 55 53  1  0
 56 55  1  0
 56 54  1  0
 56 57  1  1
 59 58  1  0
 60 59  1  0
 61 60  1  0
 61 62  1  0
 62 64  1  0
 63 74  2  0
 64 69  1  0
 65 75  1  0
 65 73  1  0
 66 72  1  0
 66 68  1  0
 67 73  1  0
 68 67  1  0
 69 68  2  0
 70 71  1  0
 70 64  2  0
 71 66  2  0
 72 65  1  0
 73 63  1  0
 75 77  2  0
 76 75  1  0
 78 76  1  0
 79 84  2  0
 79 88  1  0
 80 76  1  0
 80 84  1  0
 81 80  1  0
 82 81  1  0
 82 83  1  0
 83 79  1  0
 84 85  1  0
 85 86  2  0
 87 86  1  0
 88 87  2  0
 89 63  1  0
 89 94  1  0
 89 90  1  0
 90 93  1  1
 90 91  1  0
 92 90  1  0
 94 97  1  0
 95 94  1  0
 95 99  1  0
 96 95  2  0
 99 98  1  0
 99101  1  0
101102  1  0
101100  1  0
M  ISO  4   8 100  16 100  61 101  62 101
M  END
>  <TORSDO>  (49) 
F 30

>  <SCORE>  (49) 
-6.517

>  <name>  (49) 
51

>  <ligand_id>  (49) 
51

>  <original_smiles>  (49) 
[H]c1c([H])c([H])c2c(c1[H])C([H])([H])C([H])([H])C([H])([H])C2([H])N([H])C(=O)C1([H])N(C(=O)C([H])(N([H])C(=O)C([H])(N([H])C([H])([H])[H])C([H])([H])[H])C(C([H])([H])[H])(C([H])([H])[H])C([H])([H])[H])C([H])([H])c2c([H])c(OC([H])([H])C([H])([H])C([H])([H])C([H])([H])C([H])(C([H])(C([H])([H])C([H])([H])C([H])([H])C([H])([H])C([H])([H])N([H])C(=O)N3C([H])([H])C([H])([H])C([H])([H])C([H])(n4nc(-c5c([H])c([H])c(Oc6c([H])c([H])c(F)c([H])c6F)c([H])c5[H])c(C(=O)N([H])[H])c4N([H])[H])C3([H])[H])C([H])([H])[N+]([H])([H])[H])C([H])([H])[N+]3([H])C([H])([H])C([H])([H])C([H])([H])C3([H])[H])c([H])c([H])c2C1([H])[H]

>  <smiles>  (49) 
[H]c1c([H])c([H])c2c(c1[H])C([H])([H])C([H])([H])C([H])([H])C2([H])N([H])C(=O)C1([H])N(C(=O)C([H])(N([H])C(=O)C([H])(N([H])C([H])([H])[H])C([H])([H])[H])C(C([H])([H])[H])(C([H])([H])[H])C([H])([H])[H])C([H])([H])c2c([H])c(OC([H])([H])C([H])([H])C([H])([H])C([H])([H])C([H])(C([H])(C([H])([H])C([H])([H])C([H])([H])C([H])([H])C([H])([H])N([H])C(=O)N3C([H])([H])C([H])([H])C([H])([H])C([H])(n4nc(-c5c([H])c([H])c(Oc6c([H])c([H])c(F)c([H])c6F)c([H])c5[H])c(C(=O)N([H])[H])c4N([H])[H])C3([H])[H])C([H])([H])[N+]([H])([H])[H])C([H])([H])[N+]3([H])C([H])([H])C([H])([H])C([H])([H])C3([H])[H])c([H])c([H])c2C1([H])[H]

$$$$
52:0:0
     RDKit          3D

 96104  0  0  1  0  0  0  0  0999 V2000
  -29.1780  -19.5020   20.0410 C   0  0  0  0  0  3  0  0  0  0  0  0
  -27.9980  -20.6300   19.5960 C   0  0  0  0  0  2  0  0  0  0  0  0
  -28.2460  -22.2730   19.2550 C   0  0  0  0  0  3  0  0  0  0  0  0
  -27.2800  -23.6220   19.6130 C   0  0  0  0  0  3  0  0  0  0  0  0
  -27.4250  -25.1280   18.8610 C   0  0  0  0  0  2  0  0  0  0  0  0
  -27.5210  -26.5740   19.4290 O   0  0  0  0  0  0  0  0  0  0  0  0
  -24.5190  -32.0120   23.3070 C   0  0  0  0  0  0  0  0  0  0  0  0
  -26.4940  -27.5740   19.5210 C   0  0  0  0  0  0  0  0  0  0  0  0
  -23.0710  -30.8370   21.6940 C   0  0  0  0  0  3  0  0  0  0  0  0
  -24.2670  -29.3850   19.9400 C   0  0  0  0  0  0  0  0  0  0  0  0
  -25.5990  -31.0310   21.2540 C   0  0  0  0  0  2  0  0  0  0  0  0
  -25.5270  -29.7250   20.4470 C   0  0  0  0  0  0  0  0  0  0  0  0
  -26.6410  -28.8380   20.2180 C   0  0  0  0  0  3  0  0  0  0  0  0
  -25.2090  -27.3280   18.9870 C   0  0  0  0  0  3  0  0  0  0  0  0
  -24.1200  -28.2020   19.1980 C   0  0  0  0  0  3  0  0  0  0  0  0
  -23.0940  -30.3070   20.2360 C   0  0  0  0  0  2  0  0  0  0  0  0
  -24.4230  -31.3100   22.1390 N   0  0  0  0  0  0  0  0  0  0  0  0
  -23.5160  -32.2760   23.9890 O   0  0  0  0  0  0  0  0  0  0  0  0
  -22.4730  -29.7480   22.6180 C   0  0  0  0  0  0  0  0  0  0  0  0
  -21.1510  -29.5240   22.5210 N   0  0  0  0  0  0  0  0  0  0  0  0
  -23.1980  -29.1070   23.3790 O   0  0  0  0  0  0  0  0  0  0  0  0
  -20.6170  -30.0940   21.8830 H   0  0  0  0  0  0  0  0  0  0  0  0
  -17.8810  -28.0370   22.9350 C   0  0  0  0  0  0  0  0  0  0  0  0
  -20.4000  -28.5140   23.2690 C   0  0  0  0  0  3  0  0  0  0  0  0
  -20.6360  -27.0990   22.6860 C   0  0  0  0  0  2  0  0  0  0  0  0
  -19.5920  -26.6950   21.6410 C   0  0  0  0  0  2  0  0  0  0  0  0
  -18.1870  -26.7160   22.2540 C   0  0  0  0  0  2  0  0  0  0  0  0
  -18.9190  -28.8880   23.3970 C   0  0  0  0  0  0  0  0  0  0  0  0
  -18.5820  -30.1200   23.9990 C   0  0  0  0  0  3  0  0  0  0  0  0
  -17.2360  -30.5030   24.1450 C   0  0  0  0  0  3  0  0  0  0  0  0
  -16.2110  -29.6470   23.7060 C   0  0  0  0  0  3  0  0  0  0  0  0
  -16.5310  -28.4170   23.1020 C   0  0  0  0  0  3  0  0  0  0  0  0
  -25.8890  -32.5340   23.8360 C   0  0  0  0  0  3  0  0  0  0  0  0
  -26.4780  -31.6610   25.0110 C   0  0  1  0  0  0  0  0  0  0  0  0
  -25.4730  -31.4270   26.1630 C   0  0  0  0  0  1  0  0  0  0  0  0
  -26.9400  -30.2770   24.4980 C   0  0  0  0  0  1  0  0  0  0  0  0
  -27.7340  -32.3540   25.5920 C   0  0  0  0  0  1  0  0  0  0  0  0
  -25.6990  -33.9230   24.2810 N   0  0  0  0  0  0  0  0  0  0  0  0
  -26.0650  -35.0070   23.5840 C   0  0  0  0  0  0  0  0  0  0  0  0
  -26.6630  -34.9300   22.5070 O   0  0  0  0  0  0  0  0  0  0  0  0
  -25.1740  -34.0600   25.1310 H   0  0  0  0  0  0  0  0  0  0  0  0
  -24.4720  -36.9490   23.4530 C   0  0  0  0  0  1  0  0  0  0  0  0
  -25.7080  -36.3870   24.1710 C   0  0  0  0  0  3  0  0  0  0  0  0
  -27.9320  -37.0480   24.9670 C   0  0  0  0  0  1  0  0  0  0  0  0
  -26.8110  -37.3670   24.0890 N   0  0  0  0  0  0  0  0  0  0  0  0
  -26.4850  -38.3000   24.3250 H   0  0  0  0  0  0  0  0  0  0  0  0
  -29.3070  -19.4630   21.5830 C   0  0  0  0  0  2  0  0  0  0  0  0
  -32.0270  -20.6990   23.8510 C   0  0  0  0  0  2  0  0  0  0  0  0
  -31.9270  -21.8440   22.8350 C   0  0  0  0  0  2  0  0  0  0  0  0
  -30.8670  -19.7600   23.5080 C   0  0  0  0  0  2  0  0  0  0  0  0
  -30.9090  -21.3810   21.7850 C   0  0  0  0  0  2  0  0  0  0  0  0
  -30.6240  -19.9540   22.0630 N   0  0  2  0  0  4  0  0  0  0  0  0
  -31.3400  -19.4130   21.5980 H   0  0  0  0  0  0  0  0  0  0  0  0
  -29.4140  -17.9420   19.4150 C   0  0  0  0  0  0  0  0  0  0  0  0
  -30.4580  -15.5450   20.1680 C   0  0  0  0  0  0  0  0  0  0  0  0
  -30.5320  -13.1370   19.4520 C   0  0  0  0  0  2  0  0  0  0  0  0
  -29.6250  -12.9940   18.2070 C   0  0  0  0  0  2  0  0  0  0  0  0
  -28.1630  -12.7360   18.6210 C   0  0  0  0  0  2  0  0  0  0  0  0
  -27.6920  -13.7040   19.7390 C   0  0  0  0  0  3  0  0  0  0  0  0
  -28.7210  -13.8180   20.8850 C   0  0  0  0  0  2  0  0  0  0  0  0
  -29.9880  -14.2470   20.2810 N   0  0  0  0  0  0  0  0  0  0  0  0
  -31.6250  -15.7200   19.8070 O   0  0  0  0  0  0  0  0  0  0  0  0
  -29.5540  -16.6280   20.2640 N   0  0  0  0  0  4  0  0  0  0  0  0
  -28.6820  -16.3290   20.6780 H   0  0  0  0  0  0  0  0  0  0  0  0
  -25.3050  -14.2220   20.5050 C   0  0  0  0  0  0  0  0  0  0  0  0
  -24.2610  -13.4110   20.8570 C   0  0  0  0  0  0  0  0  0  0  0  0
  -24.7510  -12.0720   20.7690 C   0  0  0  0  0  0  0  0  0  0  0  0
  -26.3610  -13.3710   20.2260 N   0  0  0  0  0  0  0  0  0  0  0  0
  -26.0370  -12.0730   20.4480 N   0  0  0  0  0  0  0  0  0  0  0  0
  -24.0540  -10.7880   20.9170 C   0  0  0  0  0  0  0  0  0  0  0  0
  -24.4860   -9.8130   21.8420 C   0  0  0  0  0  3  0  0  0  0  0  0
  -23.7800   -8.5970   21.9820 C   0  0  0  0  0  3  0  0  0  0  0  0
  -22.6340   -8.3460   21.1910 C   0  0  0  0  0  0  0  0  0  0  0  0
  -22.2240   -9.3120   20.2570 C   0  0  0  0  0  3  0  0  0  0  0  0
  -22.9280  -10.5170   20.1140 C   0  0  0  0  0  3  0  0  0  0  0  0
  -21.9060   -7.1820   21.2360 O   0  0  0  0  0  0  0  0  0  0  0  0
  -21.8080   -6.4400   22.3850 C   0  0  0  0  0  0  0  0  0  0  0  0
  -21.2790   -6.9800   23.5760 C   0  0  0  0  0  3  0  0  0  0  0  0
  -21.1270   -6.1640   24.7150 C   0  0  0  0  0  3  0  0  0  0  0  0
  -21.4970   -4.8070   24.6620 C   0  0  0  0  0  0  0  0  0  0  0  0
  -22.0240   -4.2650   23.4760 C   0  0  0  0  0  3  0  0  0  0  0  0
  -22.1730   -5.0800   22.3390 C   0  0  0  0  0  0  0  0  0  0  0  0
  -22.6590   -4.5460   21.1910 F   0  0  0  0  0  0  0  0  0  0  0  0
  -21.3470   -4.0200   25.7530 F   0  0  0  0  0  0  0  0  0  0  0  0
  -22.8570  -13.8500   21.1610 C   0  0  0  0  0  0  0  0  0  0  0  0
  -22.1650  -13.1160   22.0250 N   0  0  0  0  0  0  0  0  0  0  0  0
  -22.3870  -14.8760   20.6730 O   0  0  0  0  0  0  0  0  0  0  0  0
  -22.5630  -12.2890   22.4400 H   0  0  0  0  0  0  0  0  0  0  0  0
  -21.2260  -13.3920   22.2800 H   0  0  0  0  0  0  0  0  0  0  0  0
  -25.4330  -15.6020   20.3770 N   0  0  0  0  0  0  0  0  0  0  0  0
  -24.6460  -16.2240   20.5350 H   0  0  0  0  0  0  0  0  0  0  0  0
  -26.2540  -16.0880   20.0400 H   0  0  0  0  0  0  0  0  0  0  0  0
  -28.4900  -17.6050   18.2050 C   0  0  0  0  0  2  0  0  0  0  0  0
  -29.9520  -19.2320   16.7240 C   0  0  0  0  0  1  0  0  0  0  0  0
  -27.4880  -18.8870   16.2110 C   0  0  0  0  0  1  0  0  0  0  0  0
  -28.7610  -18.2580   16.8100 C   0  0  0  0  0  3  0  0  0  0  0  0
  1  2  1  0
  1 47  1  0
  3  2  1  0
  3  4  2  0
  5  6  1  0
  5  4  1  0
  6  8  1  0
  7 18  2  0
  8 13  1  0
  9 17  1  0
  9 19  1  0
 10 16  1  0
 10 12  1  0
 11 17  1  0
 12 11  1  0
 13 12  2  0
 14 15  1  0
 14  8  2  0
 15 10  2  0
 16  9  1  0
 17  7  1  0
 19 21  2  0
 20 19  1  0
 22 20  1  0
 23 32  2  0
 23 28  1  0
 24 20  1  0
 24 28  1  0
 25 24  1  0
 26 27  1  0
 26 25  1  0
 27 23  1  0
 28 29  2  0
 29 30  1  0
 31 30  2  0
 32 31  1  0
 33  7  1  0
 33 38  1  0
 33 34  1  0
 34 37  1  1
 34 35  1  0
 36 34  1  0
 38 41  1  0
 39 43  1  0
 39 38  1  0
 40 39  2  0
 43 42  1  0
 45 43  1  0
 45 46  1  0
 45 44  1  0
 47 52  1  0
 49 48  1  0
 50 48  1  0
 51 52  1  0
 51 49  1  0
 52 50  1  0
 52 53  1  6
 54  1  1  0
 54 63  2  3
 55 63  1  0
 55 61  1  0
 56 61  1  0
 57 58  1  0
 57 56  1  0
 59 58  1  0
 59 68  1  0
 59 60  1  0
 61 60  1  0
 62 55  2  0
 63 64  1  0
 65 66  2  0
 66 85  1  0
 67 66  1  0
 67 70  1  0
 68 69  1  0
 68 65  1  0
 69 67  2  0
 70 71  1  0
 71 72  2  0
 73 76  1  0
 73 72  1  0
 74 73  2  0
 75 74  1  0
 75 70  2  0
 76 77  1  0
 77 78  1  0
 78 79  2  0
 80 79  1  0
 80 84  1  0
 81 80  2  0
 82 77  2  0
 82 81  1  0
 83 82  1  0
 85 86  1  0
 86 89  1  0
 86 88  1  0
 87 85  2  0
 90 65  1  0
 90 91  1  0
 92 90  1  0
 93 54  1  0
 94 96  1  0
 95 96  1  0
 96 93  1  0
M  ISO  4   5 101   6 101  55 100  63 100
M  END
>  <TORSDO>  (50) 
F 25

>  <SCORE>  (50) 
-11.932

>  <name>  (50) 
52

>  <ligand_id>  (50) 
52

>  <original_smiles>  (50) 
[H]c1c([H])c([H])c2c(c1[H])C([H])([H])C([H])([H])C([H])([H])C2([H])N([H])C(=O)C1([H])N(C(=O)C([H])(N([H])C(=O)C([H])(N([H])C([H])([H])[H])C([H])([H])[H])C(C([H])([H])[H])(C([H])([H])[H])C([H])([H])[H])C([H])([H])c2c([H])c(OC([H])([H])C([H])([H])C([H])([H])C([H])([H])C([H])(C([H])(N([H])C(=O)N3C([H])([H])C([H])([H])C([H])([H])C([H])(n4nc(-c5c([H])c([H])c(Oc6c([H])c([H])c(F)c([H])c6F)c([H])c5[H])c(C(=O)N([H])[H])c4N([H])[H])C3([H])[H])C([H])([H])C([H])(C([H])([H])[H])C([H])([H])[H])C([H])([H])[N+]3([H])C([H])([H])C([H])([H])C([H])([H])C3([H])[H])c([H])c([H])c2C1([H])[H]

>  <smiles>  (50) 
[H]c1c([H])c([H])c2c(c1[H])C([H])([H])C([H])([H])C([H])([H])C2([H])N([H])C(=O)C1([H])N(C(=O)C([H])(N([H])C(=O)C([H])(N([H])C([H])([H])[H])C([H])([H])[H])C(C([H])([H])[H])(C([H])([H])[H])C([H])([H])[H])C([H])([H])c2c([H])c(OC([H])([H])C([H])([H])C([H])([H])C([H])([H])C([H])(C([H])(N([H])C(=O)N3C([H])([H])C([H])([H])C([H])([H])C([H])(n4nc(-c5c([H])c([H])c(Oc6c([H])c([H])c(F)c([H])c6F)c([H])c5[H])c(C(=O)N([H])[H])c4N([H])[H])C3([H])[H])C([H])([H])C([H])(C([H])([H])[H])C([H])([H])[H])C([H])([H])[N+]3([H])C([H])([H])C([H])([H])C([H])([H])C3([H])[H])c([H])c([H])c2C1([H])[H]

$$$$
53:0:0
     RDKit          3D

 90 97  0  0  1  0  0  0  0  0999 V2000
  -29.2470  -21.3210   19.9290 N   0  0  0  0  0  4  0  0  0  0  0  0
  -30.2040  -21.3930   20.2360 H   0  0  0  0  0  0  0  0  0  0  0  0
  -29.2990  -21.4510   18.9300 H   0  0  0  0  0  0  0  0  0  0  0  0
  -28.5400  -22.7160   20.5360 C   0  0  0  0  0  2  0  0  0  0  0  0
  -28.3570  -24.3690   19.8340 C   0  0  0  0  0  2  0  0  0  0  0  0
  -28.2860  -25.9260   20.3960 O   0  0  0  0  0  0  0  0  0  0  0  0
  -24.6400  -31.8680   23.2410 C   0  0  0  0  0  0  0  0  0  0  0  0
  -27.2700  -27.0090   20.2570 C   0  0  0  0  0  0  0  0  0  0  0  0
  -23.4860  -30.4770   21.5680 C   0  0  0  0  0  3  0  0  0  0  0  0
  -24.9700  -28.8830   20.1690 C   0  0  0  0  0  0  0  0  0  0  0  0
  -26.0550  -30.6920   21.4860 C   0  0  0  0  0  2  0  0  0  0  0  0
  -26.1390  -29.2870   20.8220 C   0  0  0  0  0  0  0  0  0  0  0  0
  -27.2800  -28.3680   20.8470 C   0  0  0  0  0  3  0  0  0  0  0  0
  -26.0740  -26.7600   19.5470 C   0  0  0  0  0  3  0  0  0  0  0  0
  -24.9610  -27.6420   19.5130 C   0  0  0  0  0  3  0  0  0  0  0  0
  -23.7480  -29.7990   20.1940 C   0  0  0  0  0  2  0  0  0  0  0  0
  -24.7470  -31.0390   22.1510 N   0  0  0  0  0  0  0  0  0  0  0  0
  -23.5390  -32.1550   23.7380 O   0  0  0  0  0  0  0  0  0  0  0  0
  -22.7700  -29.4780   22.5140 C   0  0  0  0  0  0  0  0  0  0  0  0
  -21.4390  -29.3330   22.3750 N   0  0  0  0  0  0  0  0  0  0  0  0
  -23.4190  -28.8350   23.3420 O   0  0  0  0  0  0  0  0  0  0  0  0
  -20.9690  -29.8970   21.6810 H   0  0  0  0  0  0  0  0  0  0  0  0
  -18.0360  -28.1740   22.8540 C   0  0  0  0  0  0  0  0  0  0  0  0
  -20.6000  -28.3930   23.1270 C   0  0  0  0  0  3  0  0  0  0  0  0
  -20.6800  -26.9710   22.5240 C   0  0  0  0  0  2  0  0  0  0  0  0
  -19.5760  -26.6870   21.5010 C   0  0  0  0  0  2  0  0  0  0  0  0
  -18.1950  -26.8390   22.1460 C   0  0  0  0  0  2  0  0  0  0  0  0
  -19.1650  -28.9110   23.3010 C   0  0  0  0  0  0  0  0  0  0  0  0
  -18.9620  -30.1590   23.9270 C   0  0  0  0  0  3  0  0  0  0  0  0
  -17.6650  -30.6720   24.1090 C   0  0  0  0  0  3  0  0  0  0  0  0
  -16.5500  -29.9320   23.6760 C   0  0  0  0  0  3  0  0  0  0  0  0
  -16.7370  -28.6850   23.0540 C   0  0  0  0  0  3  0  0  0  0  0  0
  -25.8960  -32.5090   23.9050 C   0  0  0  0  0  3  0  0  0  0  0  0
  -26.3620  -31.7510   25.2100 C   0  0  1  0  0  0  0  0  0  0  0  0
  -25.2290  -31.5320   26.2410 C   0  0  0  0  0  1  0  0  0  0  0  0
  -26.9510  -30.3640   24.8640 C   0  0  0  0  0  1  0  0  0  0  0  0
  -27.4940  -32.5450   25.9020 C   0  0  0  0  0  1  0  0  0  0  0  0
  -25.5740  -33.9110   24.2250 N   0  0  0  0  0  0  0  0  0  0  0  0
  -25.9240  -34.9690   23.4820 C   0  0  0  0  0  0  0  0  0  0  0  0
  -26.6150  -34.8670   22.4640 O   0  0  0  0  0  0  0  0  0  0  0  0
  -24.9630  -34.0640   25.0130 H   0  0  0  0  0  0  0  0  0  0  0  0
  -24.2010  -36.7680   23.1150 C   0  0  0  0  0  1  0  0  0  0  0  0
  -25.4350  -36.3590   23.9360 C   0  0  0  0  0  3  0  0  0  0  0  0
  -27.5580  -37.2510   24.7890 C   0  0  0  0  0  1  0  0  0  0  0  0
  -26.4680  -37.4130   23.8320 N   0  0  0  0  0  0  0  0  0  0  0  0
  -26.0590  -38.3350   23.9670 H   0  0  0  0  0  0  0  0  0  0  0  0
  -28.8810  -19.6990   20.1300 C   0  0  0  0  0  3  0  0  0  0  0  0
  -27.8790  -19.2800   19.0260 C   0  0  0  0  0  2  0  0  0  0  0  0
  -26.7490  -20.2690   18.6830 C   0  0  0  0  0  2  0  0  0  0  0  0
  -24.8730  -20.8080   17.0230 C   0  0  0  0  0  1  0  0  0  0  0  0
  -25.9290  -19.7920   17.4720 C   0  0  0  0  0  2  0  0  0  0  0  0
  -29.9980  -18.2810   20.2170 C   0  0  0  0  0  2  0  0  0  0  0  0
  -30.4940  -15.3690   20.3640 C   0  0  0  0  0  0  0  0  0  0  0  0
  -30.4840  -12.9100   19.5340 C   0  0  0  0  0  2  0  0  0  0  0  0
  -29.5930  -12.6940   18.2840 C   0  0  0  0  0  2  0  0  0  0  0  0
  -28.1320  -12.4360   18.6920 C   0  0  0  0  0  2  0  0  0  0  0  0
  -27.6590  -13.4130   19.7980 C   0  0  0  0  0  3  0  0  0  0  0  0
  -28.6810  -13.5770   20.9430 C   0  0  0  0  0  2  0  0  0  0  0  0
  -29.9280  -14.0630   20.3330 N   0  0  0  0  0  0  0  0  0  0  0  0
  -31.7140  -15.3660   20.1430 O   0  0  0  0  0  0  0  0  0  0  0  0
  -29.7320  -16.6410   20.4410 N   0  0  0  0  0  0  0  0  0  0  0  0
  -28.7570  -16.4480   20.6160 H   0  0  0  0  0  0  0  0  0  0  0  0
  -25.2750  -13.9820   20.4920 C   0  0  0  0  0  0  0  0  0  0  0  0
  -24.2050  -13.2120   20.8530 C   0  0  0  0  0  0  0  0  0  0  0  0
  -24.6720  -11.8620   20.8530 C   0  0  0  0  0  0  0  0  0  0  0  0
  -26.3220  -13.1030   20.2830 N   0  0  0  0  0  0  0  0  0  0  0  0
  -25.9700  -11.8220   20.5700 N   0  0  0  0  0  0  0  0  0  0  0  0
  -23.9400  -10.6010   21.0430 C   0  0  0  0  0  0  0  0  0  0  0  0
  -24.3760   -9.6230   21.9630 C   0  0  0  0  0  3  0  0  0  0  0  0
  -23.6400   -8.4310   22.1440 C   0  0  0  0  0  3  0  0  0  0  0  0
  -22.4540   -8.2110   21.4030 C   0  0  0  0  0  0  0  0  0  0  0  0
  -22.0370   -9.1780   20.4720 C   0  0  0  0  0  3  0  0  0  0  0  0
  -22.7730  -10.3600   20.2900 C   0  0  0  0  0  3  0  0  0  0  0  0
  -21.6900   -7.0720   21.4950 O   0  0  0  0  0  0  0  0  0  0  0  0
  -21.6800   -6.2980   22.6280 C   0  0  0  0  0  0  0  0  0  0  0  0
  -21.3160   -6.8250   23.8860 C   0  0  0  0  0  3  0  0  0  0  0  0
  -21.2530   -5.9810   25.0120 C   0  0  0  0  0  3  0  0  0  0  0  0
  -21.5420   -4.6100   24.8810 C   0  0  0  0  0  0  0  0  0  0  0  0
  -21.8970   -4.0810   23.6290 C   0  0  0  0  0  3  0  0  0  0  0  0
  -21.9630   -4.9230   22.5040 C   0  0  0  0  0  0  0  0  0  0  0  0
  -22.2860   -4.4030   21.2950 F   0  0  0  0  0  0  0  0  0  0  0  0
  -21.4740   -3.7960   25.9610 F   0  0  0  0  0  0  0  0  0  0  0  0
  -22.8030  -13.6950   21.0800 C   0  0  0  0  0  0  0  0  0  0  0  0
  -22.0530  -13.0230   21.9460 N   0  0  0  0  0  0  0  0  0  0  0  0
  -22.3800  -14.7080   20.5240 O   0  0  0  0  0  0  0  0  0  0  0  0
  -22.4050  -12.2020   22.4170 H   0  0  0  0  0  0  0  0  0  0  0  0
  -21.1130  -13.3350   22.1420 H   0  0  0  0  0  0  0  0  0  0  0  0
  -25.4410  -15.3510   20.2930 N   0  0  0  0  0  0  0  0  0  0  0  0
  -24.6640  -15.9990   20.3630 H   0  0  0  0  0  0  0  0  0  0  0  0
  -26.2790  -15.7740   19.9200 H   0  0  0  0  0  0  0  0  0  0  0  0
  1 47  1  0
  1  2  1  0
  1  4  1  0
  3  1  1  0
  5  6  1  0
  5  4  1  0
  7 18  2  0
  8  6  1  0
  8 13  1  0
  9 17  1  0
  9 19  1  0
 10 16  1  0
 10 12  1  0
 11 17  1  0
 12 13  2  0
 12 11  1  0
 14  8  2  0
 15 14  1  0
 15 10  2  0
 16  9  1  0
 17  7  1  0
 19 21  2  0
 20 19  1  0
 22 20  1  0
 23 32  2  0
 23 28  1  0
 24 20  1  0
 24 28  1  0
 25 24  1  0
 26 27  1  0
 26 25  1  0
 27 23  1  0
 28 29  2  0
 29 30  1  0
 31 30  2  0
 32 31  1  0
 33  7  1  0
 33 38  1  0
 33 34  1  0
 34 37  1  1
 34 35  1  0
 36 34  1  0
 38 41  1  0
 39 43  1  0
 39 38  1  0
 40 39  2  0
 43 42  1  0
 45 43  1  0
 45 46  1  0
 45 44  1  0
 47 48  1  0
 47 52  1  0
 49 48  1  0
 50 51  1  0
 51 49  1  0
 52 61  1  0
 53 61  1  0
 54 59  1  0
 55 56  1  0
 55 54  1  0
 57 56  1  0
 57 66  1  0
 57 58  1  0
 59 53  1  0
 59 58  1  0
 60 53  2  0
 61 62  1  0
 63 64  2  0
 64 83  1  0
 65 64  1  0
 65 68  1  0
 66 63  1  0
 66 67  1  0
 67 65  2  0
 68 69  1  0
 69 70  2  0
 71 74  1  0
 71 70  1  0
 72 71  2  0
 73 72  1  0
 73 68  2  0
 74 75  1  0
 75 76  1  0
 76 77  2  0
 78 77  1  0
 78 82  1  0
 79 78  2  0
 80 75  2  0
 80 79  1  0
 81 80  1  0
 83 84  1  0
 84 87  1  0
 84 86  1  0
 85 83  2  0
 88 89  1  0
 88 63  1  0
 90 88  1  0
M  ISO  4   5 101   6 101  53 100  61 100
M  END
>  <TORSDO>  (51) 
F 23

>  <SCORE>  (51) 
-14.990

>  <name>  (51) 
53

>  <ligand_id>  (51) 
53

>  <original_smiles>  (51) 
[H]c1c([H])c([H])c2c(c1[H])C([H])([H])C([H])([H])C([H])([H])C2([H])N([H])C(=O)C1([H])N(C(=O)C([H])(N([H])C(=O)C([H])(N([H])C([H])([H])[H])C([H])([H])[H])C(C([H])([H])[H])(C([H])([H])[H])C([H])([H])[H])C([H])([H])c2c([H])c(OC([H])([H])C([H])([H])[N+]([H])([H])C([H])(C([H])([H])N([H])C(=O)N3C([H])([H])C([H])([H])C([H])([H])C([H])(n4nc(-c5c([H])c([H])c(Oc6c([H])c([H])c(F)c([H])c6F)c([H])c5[H])c(C(=O)N([H])[H])c4N([H])[H])C3([H])[H])C([H])([H])C([H])([H])C([H])([H])C([H])([H])[H])c([H])c([H])c2C1([H])[H]

>  <smiles>  (51) 
[H]c1c([H])c([H])c2c(c1[H])C([H])([H])C([H])([H])C([H])([H])C2([H])N([H])C(=O)C1([H])N(C(=O)C([H])(N([H])C(=O)C([H])(N([H])C([H])([H])[H])C([H])([H])[H])C(C([H])([H])[H])(C([H])([H])[H])C([H])([H])[H])C([H])([H])c2c([H])c(OC([H])([H])C([H])([H])[N+]([H])([H])C([H])(C([H])([H])N([H])C(=O)N3C([H])([H])C([H])([H])C([H])([H])C([H])(n4nc(-c5c([H])c([H])c(Oc6c([H])c([H])c(F)c([H])c6F)c([H])c5[H])c(C(=O)N([H])[H])c4N([H])[H])C3([H])[H])C([H])([H])C([H])([H])C([H])([H])C([H])([H])[H])c([H])c([H])c2C1([H])[H]

$$$$
54:0:0
     RDKit          3D

 91 98  0  0  1  0  0  0  0  0999 V2000
  -30.0220  -21.9810   21.4860 C   0  0  0  0  0  1  0  0  0  0  0  0
  -29.7120  -21.8470   19.9830 C   0  0  0  0  0  3  0  0  0  0  0  0
  -29.6070  -20.3550   19.4990 C   0  0  0  0  0  0  0  0  0  0  0  0
  -30.0360  -19.3540   20.3040 N   0  0  0  0  0  0  0  0  0  0  0  0
  -29.2310  -20.1230   18.3500 O   0  0  0  0  0  0  0  0  0  0  0  0
  -30.2600  -19.6270   21.2520 H   0  0  0  0  0  0  0  0  0  0  0  0
  -30.5310  -18.0120   19.8920 C   0  0  0  0  0  2  0  0  0  0  0  0
  -29.5690  -16.8100   20.1640 C   0  0  0  0  0  2  0  0  0  0  0  0
  -30.8270  -14.6050   20.0880 C   0  0  0  0  0  0  0  0  0  0  0  0
  -30.5080  -12.4280   18.9510 C   0  0  0  0  0  2  0  0  0  0  0  0
  -29.5100  -12.6070   17.7880 C   0  0  0  0  0  2  0  0  0  0  0  0
  -28.0540  -12.4690   18.2800 C   0  0  0  0  0  2  0  0  0  0  0  0
  -27.7720  -13.3130   19.5500 C   0  0  0  0  0  3  0  0  0  0  0  0
  -28.8690  -13.0920   20.6140 C   0  0  0  0  0  2  0  0  0  0  0  0
  -30.1660  -13.4120   19.9940 N   0  0  0  0  0  0  0  0  0  0  0  0
  -31.8920  -14.8170   19.5020 O   0  0  0  0  0  0  0  0  0  0  0  0
  -30.4580  -15.7580   22.2010 C   0  0  0  0  0  1  0  0  0  0  0  0
  -30.1860  -15.5980   20.7710 N   0  0  0  0  0  0  0  0  0  0  0  0
  -25.4130  -13.9450   20.3640 C   0  0  0  0  0  0  0  0  0  0  0  0
  -24.3530  -13.1830   20.7780 C   0  0  0  0  0  0  0  0  0  0  0  0
  -24.7980  -11.8260   20.7210 C   0  0  0  0  0  0  0  0  0  0  0  0
  -26.4370  -13.0520   20.0840 N   0  0  0  0  0  0  0  0  0  0  0  0
  -26.0730  -11.7730   20.3560 N   0  0  0  0  0  0  0  0  0  0  0  0
  -24.0650  -10.5730   20.9390 C   0  0  0  0  0  0  0  0  0  0  0  0
  -24.5090   -9.6100   21.8720 C   0  0  0  0  0  3  0  0  0  0  0  0
  -23.7790   -8.4180   22.0710 C   0  0  0  0  0  3  0  0  0  0  0  0
  -22.5910   -8.1820   21.3410 C   0  0  0  0  0  0  0  0  0  0  0  0
  -22.1680   -9.1340   20.3940 C   0  0  0  0  0  3  0  0  0  0  0  0
  -22.8990  -10.3170   20.1930 C   0  0  0  0  0  3  0  0  0  0  0  0
  -21.8270   -7.0450   21.4560 O   0  0  0  0  0  0  0  0  0  0  0  0
  -21.7640   -6.3340   22.6280 C   0  0  0  0  0  0  0  0  0  0  0  0
  -21.3470   -6.9290   23.8390 C   0  0  0  0  0  3  0  0  0  0  0  0
  -21.2320   -6.1460   25.0040 C   0  0  0  0  0  3  0  0  0  0  0  0
  -21.5240   -4.7700   24.9620 C   0  0  0  0  0  0  0  0  0  0  0  0
  -21.9360   -4.1760   23.7550 C   0  0  0  0  0  3  0  0  0  0  0  0
  -22.0530   -4.9560   22.5930 C   0  0  0  0  0  0  0  0  0  0  0  0
  -22.4300   -4.3740   21.4290 F   0  0  0  0  0  0  0  0  0  0  0  0
  -21.4040   -4.0160   26.0790 F   0  0  0  0  0  0  0  0  0  0  0  0
  -22.9760  -13.6750   21.1130 C   0  0  0  0  0  0  0  0  0  0  0  0
  -22.2810  -12.9880   22.0120 N   0  0  0  0  0  0  0  0  0  0  0  0
  -22.5270  -14.7050   20.6120 O   0  0  0  0  0  0  0  0  0  0  0  0
  -22.6560  -12.1550   22.4410 H   0  0  0  0  0  0  0  0  0  0  0  0
  -21.3580  -13.2980   22.2790 H   0  0  0  0  0  0  0  0  0  0  0  0
  -25.5900  -15.3140   20.1870 N   0  0  0  0  0  0  0  0  0  0  0  0
  -24.8440  -15.9840   20.3400 H   0  0  0  0  0  0  0  0  0  0  0  0
  -26.4380  -15.7390   19.8350 H   0  0  0  0  0  0  0  0  0  0  0  0
  -28.5430  -22.8110   19.5280 C   0  0  0  0  0  2  0  0  0  0  0  0
  -30.2470  -24.6580   18.8530 C   0  0  0  0  0  1  0  0  0  0  0  0
  -28.8170  -24.3600   19.3280 C   0  0  0  0  0  3  0  0  0  0  0  0
  -28.3850  -25.3150   20.4910 C   0  0  0  0  0  2  0  0  0  0  0  0
  -28.4600  -26.7360   20.1770 O   0  0  0  0  0  0  0  0  0  0  0  0
  -24.6200  -31.9500   23.2500 C   0  0  0  0  0  0  0  0  0  0  0  0
  -27.2860  -27.4770   20.1840 C   0  0  0  0  0  0  0  0  0  0  0  0
  -23.4240  -30.5380   21.6110 C   0  0  0  0  0  3  0  0  0  0  0  0
  -24.8880  -29.0030   20.1830 C   0  0  0  0  0  0  0  0  0  0  0  0
  -25.9480  -30.9000   21.4140 C   0  0  0  0  0  2  0  0  0  0  0  0
  -26.0450  -29.5260   20.7750 C   0  0  0  0  0  0  0  0  0  0  0  0
  -27.2470  -28.7740   20.7630 C   0  0  0  0  0  3  0  0  0  0  0  0
  -26.1140  -26.9800   19.5810 C   0  0  0  0  0  3  0  0  0  0  0  0
  -24.9230  -27.7330   19.5770 C   0  0  0  0  0  3  0  0  0  0  0  0
  -23.6400  -29.8600   20.2320 C   0  0  0  0  0  2  0  0  0  0  0  0
  -24.6810  -31.1460   22.1490 N   0  0  0  0  0  0  0  0  0  0  0  0
  -23.5410  -32.2200   23.7910 O   0  0  0  0  0  0  0  0  0  0  0  0
  -22.7770  -29.5170   22.5760 C   0  0  0  0  0  0  0  0  0  0  0  0
  -21.4520  -29.3330   22.4570 N   0  0  0  0  0  0  0  0  0  0  0  0
  -23.4630  -28.8910   23.3910 O   0  0  0  0  0  0  0  0  0  0  0  0
  -20.9590  -29.8940   21.7760 H   0  0  0  0  0  0  0  0  0  0  0  0
  -18.0780  -28.1310   22.9580 C   0  0  0  0  0  0  0  0  0  0  0  0
  -20.6360  -28.3940   23.2260 C   0  0  0  0  0  3  0  0  0  0  0  0
  -20.7440  -26.9640   22.6480 C   0  0  0  0  0  2  0  0  0  0  0  0
  -19.6400  -26.6410   21.6360 C   0  0  0  0  0  2  0  0  0  0  0  0
  -18.2570  -26.7780   22.2840 C   0  0  0  0  0  2  0  0  0  0  0  0
  -19.1960  -28.8950   23.3840 C   0  0  0  0  0  0  0  0  0  0  0  0
  -18.9780  -30.1570   23.9760 C   0  0  0  0  0  3  0  0  0  0  0  0
  -17.6730  -30.6550   24.1490 C   0  0  0  0  0  3  0  0  0  0  0  0
  -16.5690  -29.8880   23.7370 C   0  0  0  0  0  3  0  0  0  0  0  0
  -16.7710  -28.6290   23.1450 C   0  0  0  0  0  3  0  0  0  0  0  0
  -25.9020  -32.5880   23.8680 C   0  0  0  0  0  3  0  0  0  0  0  0
  -25.5860  -33.9860   24.1940 N   0  0  0  0  0  0  0  0  0  0  0  0
  -25.9250  -35.0400   23.4380 C   0  0  0  0  0  0  0  0  0  0  0  0
  -26.6050  -34.9390   22.4130 O   0  0  0  0  0  0  0  0  0  0  0  0
  -24.9830  -34.1420   24.9890 H   0  0  0  0  0  0  0  0  0  0  0  0
  -24.1910  -36.8280   23.0750 C   0  0  0  0  0  1  0  0  0  0  0  0
  -25.4300  -36.4270   23.8910 C   0  0  0  0  0  3  0  0  0  0  0  0
  -27.5590  -37.3180   24.7280 C   0  0  0  0  0  1  0  0  0  0  0  0
  -26.4580  -37.4850   23.7830 N   0  0  0  0  0  0  0  0  0  0  0  0
  -26.0480  -38.4000   23.9420 H   0  0  0  0  0  0  0  0  0  0  0  0
  -26.4260  -31.8220   25.1450 C   0  0  1  0  0  0  0  0  0  0  0  0
  -25.3370  -31.5780   26.2170 C   0  0  0  0  0  1  0  0  0  0  0  0
  -27.0130  -30.4460   24.7500 C   0  0  0  0  0  1  0  0  0  0  0  0
  -27.5720  -32.6250   25.8040 C   0  0  0  0  0  1  0  0  0  0  0  0
  2  1  1  0
  3  2  1  0
  3  4  1  0
  4  6  1  0
  5  3  2  0
  7  8  1  0
  7  4  1  0
  8 18  1  0
  9 18  1  0
 10 15  1  0
 11 12  1  0
 11 10  1  0
 13 12  1  0
 13 22  1  0
 13 14  1  0
 15  9  1  0
 15 14  1  0
 16  9  2  0
 18 17  1  0
 19 20  2  0
 20 39  1  0
 21 20  1  0
 21 24  1  0
 22 23  1  0
 22 19  1  0
 23 21  2  0
 24 25  1  0
 25 26  2  0
 27 30  1  0
 27 26  1  0
 28 27  2  0
 29 28  1  0
 29 24  2  0
 30 31  1  0
 31 32  1  0
 32 33  2  0
 34 33  1  0
 34 38  1  0
 35 34  2  0
 36 31  2  0
 36 35  1  0
 37 36  1  0
 39 40  1  0
 40 43  1  0
 40 42  1  0
 41 39  2  0
 44 45  1  0
 44 19  1  0
 46 44  1  0
 47  2  1  0
 49 48  1  0
 49 47  1  0
 49 50  1  0
 51 53  1  0
 51 50  1  0
 52 63  2  0
 53 58  1  0
 54 62  1  0
 54 64  1  0
 55 61  1  0
 55 57  1  0
 56 62  1  0
 57 56  1  0
 58 57  2  0
 59 53  2  0
 60 59  1  0
 60 55  2  0
 61 54  1  0
 62 52  1  0
 64 66  2  0
 65 64  1  0
 67 65  1  0
 68 77  2  0
 68 73  1  0
 69 65  1  0
 69 73  1  0
 70 69  1  0
 71 72  1  0
 71 70  1  0
 72 68  1  0
 73 74  2  0
 74 75  1  0
 76 75  2  0
 77 76  1  0
 78 52  1  0
 78 79  1  0
 78 88  1  0
 79 82  1  0
 80 84  1  0
 80 79  1  0
 81 80  2  0
 84 83  1  0
 86 84  1  0
 86 87  1  0
 86 85  1  0
 88 91  1  1
 88 89  1  0
 90 88  1  0
M  ISO  4   9 100  18 100  50 101  51 101
M  END
>  <TORSDO>  (52) 
F 22

>  <SCORE>  (52) 
-12.701

>  <name>  (52) 
54

>  <ligand_id>  (52) 
54

>  <original_smiles>  (52) 
[H]c1c([H])c([H])c2c(c1[H])C([H])([H])C([H])([H])C([H])([H])C2([H])N([H])C(=O)C1([H])N(C(=O)C([H])(N([H])C(=O)C([H])(N([H])C([H])([H])[H])C([H])([H])[H])C(C([H])([H])[H])(C([H])([H])[H])C([H])([H])[H])C([H])([H])c2c([H])c(OC([H])([H])C([H])(C([H])([H])[H])C([H])([H])C([H])(C(=O)N([H])C([H])([H])C([H])([H])N(C(=O)N3C([H])([H])C([H])([H])C([H])([H])C([H])(n4nc(-c5c([H])c([H])c(Oc6c([H])c([H])c(F)c([H])c6F)c([H])c5[H])c(C(=O)N([H])[H])c4N([H])[H])C3([H])[H])C([H])([H])[H])C([H])([H])[H])c([H])c([H])c2C1([H])[H]

>  <smiles>  (52) 
[H]c1c([H])c([H])c2c(c1[H])C([H])([H])C([H])([H])C([H])([H])C2([H])N([H])C(=O)C1([H])N(C(=O)C([H])(N([H])C(=O)C([H])(N([H])C([H])([H])[H])C([H])([H])[H])C(C([H])([H])[H])(C([H])([H])[H])C([H])([H])[H])C([H])([H])c2c([H])c(OC([H])([H])C([H])(C([H])([H])[H])C([H])([H])C([H])(C(=O)N([H])C([H])([H])C([H])([H])N(C(=O)N3C([H])([H])C([H])([H])C([H])([H])C([H])(n4nc(-c5c([H])c([H])c(Oc6c([H])c([H])c(F)c([H])c6F)c([H])c5[H])c(C(=O)N([H])[H])c4N([H])[H])C3([H])[H])C([H])([H])[H])C([H])([H])[H])c([H])c([H])c2C1([H])[H]

$$$$
55:0:0
     RDKit          3D

 98105  0  0  1  0  0  0  0  0999 V2000
  -29.8200  -22.4700   23.0690 C   0  0  0  0  0  3  0  0  0  0  0  0
  -29.1890  -24.6030   24.3660 C   0  0  0  0  0  1  0  0  0  0  0  0
  -29.8960  -22.6580   25.6840 C   0  0  0  0  0  1  0  0  0  0  0  0
  -31.6000  -23.8830   24.3420 C   0  0  0  0  0  1  0  0  0  0  0  0
  -30.1370  -23.3750   24.3340 C   0  0  1  0  0  0  0  0  0  0  0  0
  -29.7450  -23.3270   21.7620 C   0  0  0  0  0  2  0  0  0  0  0  0
  -28.4080  -23.2110   20.9890 C   0  0  0  0  0  2  0  0  0  0  0  0
  -26.1600  -24.3430   21.2300 C   0  0  0  0  0  1  0  0  0  0  0  0
  -27.6430  -24.5520   20.8690 C   0  0  0  0  0  3  0  0  0  0  0  0
  -27.9020  -25.2100   19.4790 C   0  0  0  0  0  2  0  0  0  0  0  0
  -27.9980  -26.6360   19.4870 O   0  0  0  0  0  0  0  0  0  0  0  0
  -24.5690  -31.5970   23.1920 C   0  0  0  0  0  0  0  0  0  0  0  0
  -26.8480  -27.3860   19.5670 C   0  0  0  0  0  0  0  0  0  0  0  0
  -23.2140  -30.4040   21.5000 C   0  0  0  0  0  3  0  0  0  0  0  0
  -24.5210  -28.9600   19.8500 C   0  0  0  0  0  0  0  0  0  0  0  0
  -25.7370  -30.6860   21.1900 C   0  0  0  0  0  2  0  0  0  0  0  0
  -25.7260  -29.3810   20.4220 C   0  0  0  0  0  0  0  0  0  0  0  0
  -26.8910  -28.5970   20.2870 C   0  0  0  0  0  3  0  0  0  0  0  0
  -25.6350  -26.9950   18.9560 C   0  0  0  0  0  3  0  0  0  0  0  0
  -24.4700  -27.7650   19.1110 C   0  0  0  0  0  3  0  0  0  0  0  0
  -23.3150  -29.8510   20.0520 C   0  0  0  0  0  2  0  0  0  0  0  0
  -24.5280  -30.9040   22.0190 N   0  0  0  0  0  0  0  0  0  0  0  0
  -23.5320  -31.8540   23.8180 O   0  0  0  0  0  0  0  0  0  0  0  0
  -22.5790  -29.3200   22.3970 C   0  0  0  0  0  0  0  0  0  0  0  0
  -21.2540  -29.1390   22.2670 N   0  0  0  0  0  0  0  0  0  0  0  0
  -23.2740  -28.6530   23.1670 O   0  0  0  0  0  0  0  0  0  0  0  0
  -20.7530  -29.7330   21.6210 H   0  0  0  0  0  0  0  0  0  0  0  0
  -17.9070  -27.8410   22.6590 C   0  0  0  0  0  0  0  0  0  0  0  0
  -20.4520  -28.1460   22.9820 C   0  0  0  0  0  3  0  0  0  0  0  0
  -20.5990  -26.7460   22.3420 C   0  0  0  0  0  2  0  0  0  0  0  0
  -19.5200  -26.4470   21.2960 C   0  0  0  0  0  2  0  0  0  0  0  0
  -18.1260  -26.5290   21.9250 C   0  0  0  0  0  2  0  0  0  0  0  0
  -19.0000  -28.6090   23.1410 C   0  0  0  0  0  0  0  0  0  0  0  0
  -18.7420  -29.8400   23.7820 C   0  0  0  0  0  3  0  0  0  0  0  0
  -17.4230  -30.3060   23.9460 C   0  0  0  0  0  3  0  0  0  0  0  0
  -16.3440  -29.5360   23.4770 C   0  0  0  0  0  3  0  0  0  0  0  0
  -16.5870  -28.3060   22.8420 C   0  0  0  0  0  3  0  0  0  0  0  0
  -25.9130  -32.1160   23.7880 C   0  0  0  0  0  3  0  0  0  0  0  0
  -26.4280  -31.2510   25.0050 C   0  0  1  0  0  0  0  0  0  0  0  0
  -25.3630  -31.0320   26.1050 C   0  0  0  0  0  1  0  0  0  0  0  0
  -26.9010  -29.8590   24.5200 C   0  0  0  0  0  1  0  0  0  0  0  0
  -27.6520  -31.9310   25.6590 C   0  0  0  0  0  1  0  0  0  0  0  0
  -25.7030  -33.5160   24.1880 N   0  0  0  0  0  0  0  0  0  0  0  0
  -26.0990  -34.5770   23.4720 C   0  0  0  0  0  0  0  0  0  0  0  0
  -26.7470  -34.4780   22.4260 O   0  0  0  0  0  0  0  0  0  0  0  0
  -25.1190  -33.6770   24.9960 H   0  0  0  0  0  0  0  0  0  0  0  0
  -24.4930  -36.4980   23.2290 C   0  0  0  0  0  1  0  0  0  0  0  0
  -25.7120  -35.9710   24.0030 C   0  0  0  0  0  3  0  0  0  0  0  0
  -27.9070  -36.6710   24.8510 C   0  0  0  0  0  1  0  0  0  0  0  0
  -26.8130  -36.9550   23.9260 N   0  0  0  0  0  0  0  0  0  0  0  0
  -26.4730  -37.8940   24.1120 H   0  0  0  0  0  0  0  0  0  0  0  0
  -30.7540  -21.2150   22.8440 C   0  0  0  0  0  3  0  0  0  0  0  0
  -30.6140  -20.2350   23.9360 N   0  0  0  0  0  4  0  0  0  0  0  0
  -29.7190  -19.7770   23.8990 H   0  0  0  0  0  0  0  0  0  0  0  0
  -30.7000  -20.7070   24.8210 H   0  0  0  0  0  0  0  0  0  0  0  0
  -31.3290  -19.5330   23.8820 H   0  0  0  0  0  0  0  0  0  0  0  0
  -30.5460  -20.4340   21.5090 C   0  0  0  0  0  2  0  0  0  0  0  0
  -31.5050  -19.2240   21.3690 C   0  0  0  0  0  2  0  0  0  0  0  0
  -30.8570  -17.9450   20.8090 C   0  0  0  0  0  2  0  0  0  0  0  0
  -31.8400  -16.7610   20.8460 C   0  0  0  0  0  2  0  0  0  0  0  0
  -31.6130  -14.4860   19.8490 C   0  0  0  0  0  0  0  0  0  0  0  0
  -31.1510  -12.2440   18.9310 C   0  0  0  0  0  2  0  0  0  0  0  0
  -30.1660  -12.3350   17.7500 C   0  0  0  0  0  2  0  0  0  0  0  0
  -28.7120  -12.2980   18.2570 C   0  0  0  0  0  2  0  0  0  0  0  0
  -28.4570  -13.3060   19.4090 C   0  0  0  0  0  3  0  0  0  0  0  0
  -29.5470  -13.1850   20.4970 C   0  0  0  0  0  2  0  0  0  0  0  0
  -30.8640  -13.3520   19.8550 N   0  0  0  0  0  0  0  0  0  0  0  0
  -32.6320  -14.6160   19.1630 O   0  0  0  0  0  0  0  0  0  0  0  0
  -31.1740  -15.4720   20.6410 N   0  0  0  0  0  0  0  0  0  0  0  0
  -30.3430  -15.2790   21.1790 H   0  0  0  0  0  0  0  0  0  0  0  0
  -26.1810  -14.1160   20.3010 C   0  0  0  0  0  0  0  0  0  0  0  0
  -25.0670  -13.4340   20.7160 C   0  0  0  0  0  0  0  0  0  0  0  0
  -25.3880  -12.0470   20.6020 C   0  0  0  0  0  0  0  0  0  0  0  0
  -27.1160  -13.1480   19.9690 N   0  0  0  0  0  0  0  0  0  0  0  0
  -26.6450  -11.8960   20.2060 N   0  0  0  0  0  0  0  0  0  0  0  0
  -24.5540  -10.8540   20.8010 C   0  0  0  0  0  0  0  0  0  0  0  0
  -24.8980   -9.8610   21.7440 C   0  0  0  0  0  3  0  0  0  0  0  0
  -24.0720   -8.7300   21.9270 C   0  0  0  0  0  3  0  0  0  0  0  0
  -22.8870   -8.5870   21.1660 C   0  0  0  0  0  0  0  0  0  0  0  0
  -22.5610   -9.5670   20.2140 C   0  0  0  0  0  3  0  0  0  0  0  0
  -23.3870  -10.6890   20.0290 C   0  0  0  0  0  3  0  0  0  0  0  0
  -22.0370   -7.5110   21.2580 O   0  0  0  0  0  0  0  0  0  0  0  0
  -21.8340   -6.8540   22.4450 C   0  0  0  0  0  0  0  0  0  0  0  0
  -21.3220   -7.5120   23.5830 C   0  0  0  0  0  3  0  0  0  0  0  0
  -21.0640   -6.7840   24.7610 C   0  0  0  0  0  3  0  0  0  0  0  0
  -21.3080   -5.3970   24.8000 C   0  0  0  0  0  0  0  0  0  0  0  0
  -21.8130   -4.7380   23.6660 C   0  0  0  0  0  3  0  0  0  0  0  0
  -22.0730   -5.4650   22.4900 C   0  0  0  0  0  0  0  0  0  0  0  0
  -22.5400   -4.8220   21.3930 F   0  0  0  0  0  0  0  0  0  0  0  0
  -21.0520   -4.6950   25.9290 F   0  0  0  0  0  0  0  0  0  0  0  0
  -23.7460  -14.0320   21.1070 C   0  0  0  0  0  0  0  0  0  0  0  0
  -23.0250  -13.3800   22.0140 N   0  0  0  0  0  0  0  0  0  0  0  0
  -23.3690  -15.1050   20.6440 O   0  0  0  0  0  0  0  0  0  0  0  0
  -23.3460  -12.5060   22.4030 H   0  0  0  0  0  0  0  0  0  0  0  0
  -22.1420  -13.7610   22.3200 H   0  0  0  0  0  0  0  0  0  0  0  0
  -26.4700  -15.4690   20.1610 N   0  0  0  0  0  0  0  0  0  0  0  0
  -25.7840  -16.1930   20.3480 H   0  0  0  0  0  0  0  0  0  0  0  0
  -27.3450  -15.8350   19.8030 H   0  0  0  0  0  0  0  0  0  0  0  0
  1  6  1  0
  1  5  1  0
  5  4  1  6
  5  2  1  0
  5  3  1  0
  7  6  1  0
  9  7  1  0
  9  8  1  0
 10 11  1  0
 10  9  1  0
 11 13  1  0
 12 23  2  0
 13 18  1  0
 14 22  1  0
 14 24  1  0
 15 21  1  0
 15 17  1  0
 16 22  1  0
 17 16  1  0
 18 17  2  0
 19 20  1  0
 19 13  2  0
 20 15  2  0
 21 14  1  0
 22 12  1  0
 24 26  2  0
 25 24  1  0
 27 25  1  0
 28 37  2  0
 28 33  1  0
 29 25  1  0
 29 33  1  0
 30 29  1  0
 31 32  1  0
 31 30  1  0
 32 28  1  0
 33 34  2  0
 34 35  1  0
 36 35  2  0
 37 36  1  0
 38 12  1  0
 38 43  1  0
 38 39  1  0
 39 42  1  1
 39 40  1  0
 41 39  1  0
 43 46  1  0
 44 48  1  0
 44 43  1  0
 45 44  2  0
 48 47  1  0
 50 48  1  0
 50 51  1  0
 50 49  1  0
 52 57  1  0
 52  1  1  0
 52 53  1  0
 53 55  1  0
 54 53  1  0
 56 53  1  0
 58 57  1  0
 59 60  1  0
 59 58  1  0
 61 67  1  0
 61 69  1  0
 62 67  1  0
 63 64  1  0
 63 62  1  0
 65 64  1  0
 65 74  1  0
 65 66  1  0
 67 66  1  0
 68 61  2  0
 69 60  1  0
 69 70  1  0
 71 72  2  0
 72 91  1  0
 73 72  1  0
 73 76  1  0
 74 75  1  0
 74 71  1  0
 75 73  2  0
 76 77  1  0
 77 78  2  0
 79 82  1  0
 79 78  1  0
 80 79  2  0
 81 80  1  0
 81 76  2  0
 82 83  1  0
 83 88  2  0
 83 84  1  0
 84 85  2  0
 85 86  1  0
 86 90  1  0
 87 86  2  0
 88 87  1  0
 89 88  1  0
 91 92  1  0
 92 95  1  0
 92 94  1  0
 93 91  2  0
 96 71  1  0
 96 97  1  0
 98 96  1  0
M  ISO  4  10 101  11 101  61 100  69 100
M  END
>  <TORSDO>  (53) 
F 27

>  <SCORE>  (53) 
-5.187

>  <name>  (53) 
55

>  <ligand_id>  (53) 
55

>  <original_smiles>  (53) 
[H]c1c([H])c([H])c2c(c1[H])C([H])([H])C([H])([H])C([H])([H])C2([H])N([H])C(=O)C1([H])N(C(=O)C([H])(N([H])C(=O)C([H])(N([H])C([H])([H])[H])C([H])([H])[H])C(C([H])([H])[H])(C([H])([H])[H])C([H])([H])[H])C([H])([H])c2c([H])c(OC([H])([H])C([H])(C([H])([H])[H])C([H])([H])C([H])([H])C([H])(C(C([H])([H])[H])(C([H])([H])[H])C([H])([H])[H])C([H])(C([H])([H])C([H])([H])C([H])([H])C([H])([H])N([H])C(=O)N3C([H])([H])C([H])([H])C([H])([H])C([H])(n4nc(-c5c([H])c([H])c(Oc6c([H])c([H])c(F)c([H])c6F)c([H])c5[H])c(C(=O)N([H])[H])c4N([H])[H])C3([H])[H])[N+]([H])([H])[H])c([H])c([H])c2C1([H])[H]

>  <smiles>  (53) 
[H]c1c([H])c([H])c2c(c1[H])C([H])([H])C([H])([H])C([H])([H])C2([H])N([H])C(=O)C1([H])N(C(=O)C([H])(N([H])C(=O)C([H])(N([H])C([H])([H])[H])C([H])([H])[H])C(C([H])([H])[H])(C([H])([H])[H])C([H])([H])[H])C([H])([H])c2c([H])c(OC([H])([H])C([H])(C([H])([H])[H])C([H])([H])C([H])([H])C([H])(C(C([H])([H])[H])(C([H])([H])[H])C([H])([H])[H])C([H])(C([H])([H])C([H])([H])C([H])([H])C([H])([H])N([H])C(=O)N3C([H])([H])C([H])([H])C([H])([H])C([H])(n4nc(-c5c([H])c([H])c(Oc6c([H])c([H])c(F)c([H])c6F)c([H])c5[H])c(C(=O)N([H])[H])c4N([H])[H])C3([H])[H])[N+]([H])([H])[H])c([H])c([H])c2C1([H])[H]

$$$$
56:0:0
     RDKit          3D

 93100  0  0  1  0  0  0  0  0999 V2000
  -31.2600  -19.5780   18.9140 C   0  0  0  0  0  3  0  0  0  0  0  0
  -31.3720  -21.1320   18.9500 C   0  0  0  0  0  3  0  0  0  0  0  0
  -30.0160  -21.8980   18.8370 C   0  0  0  0  0  2  0  0  0  0  0  0
  -30.0810  -23.2800   19.5480 C   0  0  0  0  0  2  0  0  0  0  0  0
  -28.9840  -24.3550   19.2570 C   0  0  0  0  0  2  0  0  0  0  0  0
  -28.8400  -25.3890   20.4300 C   0  0  0  0  0  2  0  0  0  0  0  0
  -28.6980  -26.7840   20.1050 O   0  0  0  0  0  0  0  0  0  0  0  0
  -24.6810  -31.8780   23.1980 C   0  0  0  0  0  0  0  0  0  0  0  0
  -27.4720  -27.4200   20.2050 C   0  0  0  0  0  0  0  0  0  0  0  0
  -23.5290  -30.4280   21.5610 C   0  0  0  0  0  3  0  0  0  0  0  0
  -25.0320  -28.8700   20.2000 C   0  0  0  0  0  0  0  0  0  0  0  0
  -26.0480  -30.8170   21.3950 C   0  0  0  0  0  2  0  0  0  0  0  0
  -26.1710  -29.4320   20.7880 C   0  0  0  0  0  0  0  0  0  0  0  0
  -27.3930  -28.7120   20.7840 C   0  0  0  0  0  3  0  0  0  0  0  0
  -26.3050  -26.8610   19.6380 C   0  0  0  0  0  3  0  0  0  0  0  0
  -25.0930  -27.5840   19.6300 C   0  0  0  0  0  3  0  0  0  0  0  0
  -23.7730  -29.7100   20.2050 C   0  0  0  0  0  2  0  0  0  0  0  0
  -24.7710  -31.0600   22.1130 N   0  0  0  0  0  0  0  0  0  0  0  0
  -23.5850  -32.1440   23.7130 O   0  0  0  0  0  0  0  0  0  0  0  0
  -22.8700  -29.4210   22.5300 C   0  0  0  0  0  0  0  0  0  0  0  0
  -21.5520  -29.2200   22.3790 N   0  0  0  0  0  0  0  0  0  0  0  0
  -23.5420  -28.8190   23.3700 O   0  0  0  0  0  0  0  0  0  0  0  0
  -21.0650  -29.7550   21.6750 H   0  0  0  0  0  0  0  0  0  0  0  0
  -18.1890  -27.9670   22.8080 C   0  0  0  0  0  0  0  0  0  0  0  0
  -20.7330  -28.2770   23.1430 C   0  0  0  0  0  3  0  0  0  0  0  0
  -20.8810  -26.8380   22.5980 C   0  0  0  0  0  2  0  0  0  0  0  0
  -19.8150  -26.4770   21.5590 C   0  0  0  0  0  2  0  0  0  0  0  0
  -18.4100  -26.6130   22.1560 C   0  0  0  0  0  2  0  0  0  0  0  0
  -19.2820  -28.7560   23.2550 C   0  0  0  0  0  0  0  0  0  0  0  0
  -19.0230  -30.0280   23.8120 C   0  0  0  0  0  3  0  0  0  0  0  0
  -17.7060  -30.5050   23.9390 C   0  0  0  0  0  3  0  0  0  0  0  0
  -16.6270  -29.7110   23.5140 C   0  0  0  0  0  3  0  0  0  0  0  0
  -16.8690  -28.4440   22.9510 C   0  0  0  0  0  3  0  0  0  0  0  0
  -25.9460  -32.5440   23.8350 C   0  0  0  0  0  3  0  0  0  0  0  0
  -26.4690  -31.7810   25.1130 C   0  0  1  0  0  0  0  0  0  0  0  0
  -25.3720  -31.5090   26.1690 C   0  0  0  0  0  1  0  0  0  0  0  0
  -27.0900  -30.4230   24.7130 C   0  0  0  0  0  1  0  0  0  0  0  0
  -27.5890  -32.6030   25.7930 C   0  0  0  0  0  1  0  0  0  0  0  0
  -25.6000  -33.9330   24.1670 N   0  0  0  0  0  0  0  0  0  0  0  0
  -25.9130  -34.9950   23.4140 C   0  0  0  0  0  0  0  0  0  0  0  0
  -26.5860  -34.9110   22.3850 O   0  0  0  0  0  0  0  0  0  0  0  0
  -25.0150  -34.0760   24.9770 H   0  0  0  0  0  0  0  0  0  0  0  0
  -24.1410  -36.7400   23.0510 C   0  0  0  0  0  1  0  0  0  0  0  0
  -25.3880  -36.3690   23.8700 C   0  0  0  0  0  3  0  0  0  0  0  0
  -27.5010  -37.2960   24.7090 C   0  0  0  0  0  1  0  0  0  0  0  0
  -26.3910  -37.4510   23.7720 N   0  0  0  0  0  0  0  0  0  0  0  0
  -25.9630  -38.3580   23.9370 H   0  0  0  0  0  0  0  0  0  0  0  0
  -32.6100  -18.7980   19.0210 C   0  0  0  0  0  2  0  0  0  0  0  0
  -32.3970  -17.2750   19.1890 C   0  0  0  0  0  2  0  0  0  0  0  0
  -33.5240  -16.4460   19.8750 C   0  0  0  0  0  2  0  0  0  0  0  0
  -33.5700  -14.9930   19.3370 C   0  0  0  0  0  2  0  0  0  0  0  0
  -30.7210  -13.8190   19.7920 C   0  0  0  0  0  0  0  0  0  0  0  0
  -29.8340  -12.1450   18.3500 C   0  0  0  0  0  2  0  0  0  0  0  0
  -28.7870  -12.7420   17.3960 C   0  0  0  0  0  2  0  0  0  0  0  0
  -27.4060  -12.5040   18.0210 C   0  0  0  0  0  2  0  0  0  0  0  0
  -27.2960  -13.1680   19.4230 C   0  0  0  0  0  3  0  0  0  0  0  0
  -28.4930  -12.7640   20.3480 C   0  0  0  0  0  2  0  0  0  0  0  0
  -29.7950  -12.8440   19.6450 N   0  0  0  0  0  0  0  0  0  0  0  0
  -30.8840  -14.6870   18.9540 O   0  0  0  0  0  0  0  0  0  0  0  0
  -33.1370  -13.9740   20.4040 C   0  0  0  0  0  0  0  0  0  0  0  0
  -31.8710  -13.4650   20.5840 N   0  0  0  0  0  0  0  0  0  0  0  0
  -34.1360  -13.5720   21.2250 N   0  0  0  0  0  4  0  0  0  0  0  0
  -31.7940  -12.7050   21.2450 H   0  0  0  0  0  0  0  0  0  0  0  0
  -34.9980  -14.0990   21.2790 H   0  0  0  0  0  0  0  0  0  0  0  0
  -34.1240  -12.7050   21.7450 H   0  0  0  0  0  0  0  0  0  0  0  0
  -24.9760  -13.7500   20.4350 C   0  0  0  0  0  0  0  0  0  0  0  0
  -23.9500  -12.9630   20.9060 C   0  0  0  0  0  0  0  0  0  0  0  0
  -24.3910  -11.6150   20.7590 C   0  0  0  0  0  0  0  0  0  0  0  0
  -25.9910  -12.8750   20.0510 N   0  0  0  0  0  0  0  0  0  0  0  0
  -25.6370  -11.5850   20.2920 N   0  0  0  0  0  0  0  0  0  0  0  0
  -23.6850  -10.3470   21.0080 C   0  0  0  0  0  0  0  0  0  0  0  0
  -24.2280   -9.3550   21.8530 C   0  0  0  0  0  3  0  0  0  0  0  0
  -23.5280   -8.1520   22.0870 C   0  0  0  0  0  3  0  0  0  0  0  0
  -22.2700   -7.9350   21.4790 C   0  0  0  0  0  0  0  0  0  0  0  0
  -21.7350   -8.9220   20.6330 C   0  0  0  0  0  3  0  0  0  0  0  0
  -22.4360  -10.1150   20.3980 C   0  0  0  0  0  3  0  0  0  0  0  0
  -21.5290   -6.7890   21.6230 O   0  0  0  0  0  0  0  0  0  0  0  0
  -21.6420   -5.9940   22.7330 C   0  0  0  0  0  0  0  0  0  0  0  0
  -21.4250   -6.4940   24.0350 C   0  0  0  0  0  3  0  0  0  0  0  0
  -21.4860   -5.6260   25.1440 C   0  0  0  0  0  3  0  0  0  0  0  0
  -21.7430   -4.2580   24.9550 C   0  0  0  0  0  0  0  0  0  0  0  0
  -21.9530   -3.7520   23.6590 C   0  0  0  0  0  3  0  0  0  0  0  0
  -21.9000   -4.6160   22.5500 C   0  0  0  0  0  0  0  0  0  0  0  0
  -22.0810   -4.1230   21.3070 F   0  0  0  0  0  0  0  0  0  0  0  0
  -21.7950   -3.4220   26.0210 F   0  0  0  0  0  0  0  0  0  0  0  0
  -22.6030  -13.4320   21.3750 C   0  0  0  0  0  0  0  0  0  0  0  0
  -21.9910  -12.7160   22.3210 N   0  0  0  0  0  0  0  0  0  0  0  0
  -22.1070  -14.4750   20.9600 O   0  0  0  0  0  0  0  0  0  0  0  0
  -22.4010  -11.8760   22.6950 H   0  0  0  0  0  0  0  0  0  0  0  0
  -21.0970  -13.0290   22.6700 H   0  0  0  0  0  0  0  0  0  0  0  0
  -25.1040  -15.1250   20.3020 N   0  0  0  0  0  0  0  0  0  0  0  0
  -24.3250  -15.7340   20.5450 H   0  0  0  0  0  0  0  0  0  0  0  0
  -25.8930  -15.6270   19.9060 H   0  0  0  0  0  0  0  0  0  0  0  0
  1  2  2  0
  1 48  1  0
  3  2  1  0
  3  4  1  0
  5  4  1  0
  5  6  1  0
  7  9  1  0
  7  6  1  0
  8 19  2  0
  9 14  1  0
 10 18  1  0
 10 20  1  0
 11 17  1  0
 11 13  1  0
 12 18  1  0
 13 12  1  0
 14 13  2  0
 15  9  2  0
 16 15  1  0
 16 11  2  0
 17 10  1  0
 18  8  1  0
 20 22  2  0
 21 20  1  0
 23 21  1  0
 24 33  2  0
 24 29  1  0
 25 21  1  0
 25 29  1  0
 26 25  1  0
 27 28  1  0
 27 26  1  0
 28 24  1  0
 29 30  2  0
 30 31  1  0
 32 31  2  0
 33 32  1  0
 34  8  1  0
 34 39  1  0
 34 35  1  0
 35 38  1  1
 35 36  1  0
 37 35  1  0
 39 42  1  0
 40 44  1  0
 40 39  1  0
 41 40  2  0
 44 43  1  0
 46 44  1  0
 46 47  1  0
 46 45  1  0
 48 49  1  0
 49 50  1  0
 51 50  1  0
 51 60  1  0
 52 61  1  0
 53 58  1  0
 54 55  1  0
 54 53  1  0
 56 55  1  0
 56 69  1  0
 56 57  1  0
 58 52  1  0
 58 57  1  0
 59 52  2  0
 60 61  1  0
 60 62  2  0
 61 63  1  0
 62 64  1  0
 62 65  1  0
 66 67  2  0
 67 86  1  0
 68 67  1  0
 68 71  1  0
 69 70  1  0
 69 66  1  0
 70 68  2  0
 71 72  1  0
 72 73  2  0
 74 77  1  0
 74 73  1  0
 75 74  2  0
 76 75  1  0
 76 71  2  0
 77 78  1  0
 78 79  1  0
 79 80  2  0
 81 80  1  0
 81 85  1  0
 82 81  2  0
 83 78  2  0
 83 82  1  0
 84 83  1  0
 86 87  1  0
 87 90  1  0
 87 89  1  0
 88 86  2  0
 91 66  1  0
 91 92  1  0
 93 91  1  0
M  ISO  4   6 101   7 101  52 100  61 100
M  END
>  <TORSDO>  (54) 
F 25

>  <SCORE>  (54) 
-10.522

>  <name>  (54) 
56

>  <ligand_id>  (54) 
56

>  <original_smiles>  (54) 
[H]c1c([H])c([H])c2c(c1[H])C([H])([H])C([H])([H])C([H])([H])C2([H])N([H])C(=O)C1([H])N(C(=O)C([H])(N([H])C(=O)C([H])(N([H])C([H])([H])[H])C([H])([H])[H])C(C([H])([H])[H])(C([H])([H])[H])C([H])([H])[H])C([H])([H])c2c([H])c(OC([H])([H])C([H])([H])C([H])([H])C([H])([H])C([H])([H])C([H])([H])C([H])([H])C([H])([H])C([H])([H])C([H])([H])C(N([H])C(=O)N3C([H])([H])C([H])([H])C([H])([H])C([H])(n4nc(-c5c([H])c([H])c(Oc6c([H])c([H])c(F)c([H])c6F)c([H])c5[H])c(C(=O)N([H])[H])c4N([H])[H])C3([H])[H])=[N+]([H])[H])c([H])c([H])c2C1([H])[H]

>  <smiles>  (54) 
[H]c1c([H])c([H])c2c(c1[H])C([H])([H])C([H])([H])C([H])([H])C2([H])N([H])C(=O)C1([H])N(C(=O)C([H])(N([H])C(=O)C([H])(N([H])C([H])([H])[H])C([H])([H])[H])C(C([H])([H])[H])(C([H])([H])[H])C([H])([H])[H])C([H])([H])c2c([H])c(OC([H])([H])C([H])([H])C([H])([H])C([H])([H])C([H])([H])C([H])([H])C([H])([H])C([H])([H])C([H])([H])C([H])([H])C(N([H])C(=O)N3C([H])([H])C([H])([H])C([H])([H])C([H])(n4nc(-c5c([H])c([H])c(Oc6c([H])c([H])c(F)c([H])c6F)c([H])c5[H])c(C(=O)N([H])[H])c4N([H])[H])C3([H])[H])=[N+]([H])[H])c([H])c([H])c2C1([H])[H]

$$$$
57:0:0
     RDKit          3D

 95102  0  0  1  0  0  0  0  0999 V2000
  -30.6080  -21.3410   20.3850 C   0  0  0  0  0  2  0  0  0  0  0  0
  -30.6480  -22.7950   20.6680 N   0  0  0  0  0  4  0  0  0  0  0  0
  -31.3380  -23.2120   20.0640 H   0  0  0  0  0  0  0  0  0  0  0  0
  -30.9470  -22.9330   21.6200 H   0  0  0  0  0  0  0  0  0  0  0  0
  -29.3520  -23.4890   20.4620 C   0  0  0  0  0  2  0  0  0  0  0  0
  -29.4850  -25.0290   20.4340 C   0  0  0  0  0  2  0  0  0  0  0  0
  -28.1640  -25.7180   20.0490 C   0  0  0  0  0  2  0  0  0  0  0  0
  -28.2760  -27.1480   20.0660 O   0  0  0  0  0  0  0  0  0  0  0  0
  -24.5490  -32.1650   23.4510 C   0  0  0  0  0  0  0  0  0  0  0  0
  -27.0950  -27.8630   20.1040 C   0  0  0  0  0  0  0  0  0  0  0  0
  -23.2860  -30.8140   21.8110 C   0  0  0  0  0  3  0  0  0  0  0  0
  -24.6880  -29.3470   20.2700 C   0  0  0  0  0  0  0  0  0  0  0  0
  -25.7990  -31.2020   21.5230 C   0  0  0  0  0  2  0  0  0  0  0  0
  -25.8670  -29.8590   20.8260 C   0  0  0  0  0  0  0  0  0  0  0  0
  -27.0720  -29.1270   20.7370 C   0  0  0  0  0  3  0  0  0  0  0  0
  -25.8950  -27.3720   19.5330 C   0  0  0  0  0  3  0  0  0  0  0  0
  -24.6970  -28.1030   19.6190 C   0  0  0  0  0  3  0  0  0  0  0  0
  -23.4410  -30.1910   20.4000 C   0  0  0  0  0  2  0  0  0  0  0  0
  -24.5650  -31.4070   22.3190 N   0  0  0  0  0  0  0  0  0  0  0  0
  -23.4910  -32.4090   24.0440 O   0  0  0  0  0  0  0  0  0  0  0  0
  -22.6840  -29.7520   22.7590 C   0  0  0  0  0  0  0  0  0  0  0  0
  -21.3750  -29.4900   22.6080 N   0  0  0  0  0  0  0  0  0  0  0  0
  -23.3900  -29.1670   23.5840 O   0  0  0  0  0  0  0  0  0  0  0  0
  -20.8670  -30.0150   21.9100 H   0  0  0  0  0  0  0  0  0  0  0  0
  -18.0950  -28.0210   22.9670 C   0  0  0  0  0  0  0  0  0  0  0  0
  -20.6020  -28.5060   23.3640 C   0  0  0  0  0  3  0  0  0  0  0  0
  -20.8580  -27.0760   22.8350 C   0  0  0  0  0  2  0  0  0  0  0  0
  -19.8440  -26.6340   21.7760 C   0  0  0  0  0  2  0  0  0  0  0  0
  -18.4220  -26.6750   22.3430 C   0  0  0  0  0  2  0  0  0  0  0  0
  -19.1190  -28.8870   23.4320 C   0  0  0  0  0  0  0  0  0  0  0  0
  -18.7620  -30.1420   23.9730 C   0  0  0  0  0  3  0  0  0  0  0  0
  -17.4120  -30.5320   24.0560 C   0  0  0  0  0  3  0  0  0  0  0  0
  -16.4020  -29.6650   23.6090 C   0  0  0  0  0  3  0  0  0  0  0  0
  -16.7430  -28.4110   23.0710 C   0  0  0  0  0  3  0  0  0  0  0  0
  -25.8570  -32.7830   24.0380 C   0  0  0  0  0  3  0  0  0  0  0  0
  -26.4070  -31.9970   25.2910 C   0  0  1  0  0  0  0  0  0  0  0  0
  -25.3420  -31.7480   26.3850 C   0  0  0  0  0  1  0  0  0  0  0  0
  -26.9780  -30.6230   24.8680 C   0  0  0  0  0  1  0  0  0  0  0  0
  -27.5760  -32.7820   25.9310 C   0  0  0  0  0  1  0  0  0  0  0  0
  -25.5660  -34.1800   24.3870 N   0  0  0  0  0  0  0  0  0  0  0  0
  -25.9340  -35.2390   23.6550 C   0  0  0  0  0  0  0  0  0  0  0  0
  -26.6270  -35.1420   22.6380 O   0  0  0  0  0  0  0  0  0  0  0  0
  -24.9550  -34.3310   25.1770 H   0  0  0  0  0  0  0  0  0  0  0  0
  -24.2580  -37.0750   23.2750 C   0  0  0  0  0  1  0  0  0  0  0  0
  -25.4590  -36.6270   24.1240 C   0  0  0  0  0  3  0  0  0  0  0  0
  -27.5790  -37.4450   25.0540 C   0  0  0  0  0  1  0  0  0  0  0  0
  -26.5170  -37.6590   24.0750 N   0  0  0  0  0  0  0  0  0  0  0  0
  -26.1260  -38.5840   24.2290 H   0  0  0  0  0  0  0  0  0  0  0  0
  -32.0160  -20.7200   20.2290 C   0  0  0  0  0  2  0  0  0  0  0  0
  -32.6780  -20.2660   21.5470 C   0  0  0  0  0  2  0  0  0  0  0  0
  -32.8410  -18.7330   21.7000 C   0  0  0  0  0  2  0  0  0  0  0  0
  -31.5290  -17.9080   21.5430 C   0  0  0  0  0  3  0  0  0  0  0  0
  -30.9180  -18.0410   24.0660 C   0  0  0  0  0  1  0  0  0  0  0  0
  -31.1790  -17.1410   22.8470 C   0  0  0  0  0  2  0  0  0  0  0  0
  -31.5590  -17.0080   20.2570 C   0  0  0  0  0  3  0  0  0  0  0  0
  -31.7550  -14.5280   19.9380 C   0  0  0  0  0  0  0  0  0  0  0  0
  -31.3030  -12.2320   19.1710 C   0  0  0  0  0  2  0  0  0  0  0  0
  -30.3450  -12.2770   17.9630 C   0  0  0  0  0  2  0  0  0  0  0  0
  -28.8750  -12.3160   18.4240 C   0  0  0  0  0  2  0  0  0  0  0  0
  -28.6180  -13.3890   19.5180 C   0  0  0  0  0  3  0  0  0  0  0  0
  -29.6770  -13.2810   20.6380 C   0  0  0  0  0  2  0  0  0  0  0  0
  -31.0120  -13.3950   20.0210 N   0  0  0  0  0  0  0  0  0  0  0  0
  -32.8250  -14.5910   19.3250 O   0  0  0  0  0  0  0  0  0  0  0  0
  -31.1840  -15.6100   20.4860 N   0  0  0  0  0  0  0  0  0  0  0  0
  -30.3180  -15.4490   20.9740 H   0  0  0  0  0  0  0  0  0  0  0  0
  -26.3660  -14.3080   20.3650 C   0  0  0  0  0  0  0  0  0  0  0  0
  -25.2100  -13.6830   20.7550 C   0  0  0  0  0  0  0  0  0  0  0  0
  -25.4640  -12.2810   20.6440 C   0  0  0  0  0  0  0  0  0  0  0  0
  -27.2580  -13.2960   20.0500 N   0  0  0  0  0  0  0  0  0  0  0  0
  -26.7190  -12.0700   20.2680 N   0  0  0  0  0  0  0  0  0  0  0  0
  -24.5690  -11.1300   20.8180 C   0  0  0  0  0  0  0  0  0  0  0  0
  -24.9070  -10.0530   21.6650 C   0  0  0  0  0  3  0  0  0  0  0  0
  -24.0200   -8.9670   21.8320 C   0  0  0  0  0  3  0  0  0  0  0  0
  -22.7800   -8.9520   21.1500 C   0  0  0  0  0  0  0  0  0  0  0  0
  -22.4590  -10.0170   20.2890 C   0  0  0  0  0  3  0  0  0  0  0  0
  -23.3460  -11.0950   20.1210 C   0  0  0  0  0  3  0  0  0  0  0  0
  -21.8690   -7.9270   21.2280 O   0  0  0  0  0  0  0  0  0  0  0  0
  -21.7770   -7.1280   22.3400 C   0  0  0  0  0  0  0  0  0  0  0  0
  -21.4980   -7.6600   23.6180 C   0  0  0  0  0  3  0  0  0  0  0  0
  -21.3420   -6.7960   24.7220 C   0  0  0  0  0  3  0  0  0  0  0  0
  -21.4610   -5.4050   24.5490 C   0  0  0  0  0  0  0  0  0  0  0  0
  -21.7350   -4.8740   23.2760 C   0  0  0  0  0  3  0  0  0  0  0  0
  -21.8910   -5.7330   22.1750 C   0  0  0  0  0  0  0  0  0  0  0  0
  -22.1330   -5.2150   20.9460 F   0  0  0  0  0  0  0  0  0  0  0  0
  -21.3050   -4.5730   25.6050 F   0  0  0  0  0  0  0  0  0  0  0  0
  -23.9140  -14.3450   21.1220 C   0  0  0  0  0  0  0  0  0  0  0  0
  -23.1360  -13.7240   22.0060 N   0  0  0  0  0  0  0  0  0  0  0  0
  -23.6030  -15.4420   20.6630 O   0  0  0  0  0  0  0  0  0  0  0  0
  -23.4000  -12.8320   22.3980 H   0  0  0  0  0  0  0  0  0  0  0  0
  -22.2670  -14.1480   22.2930 H   0  0  0  0  0  0  0  0  0  0  0  0
  -26.7200  -15.6470   20.2360 N   0  0  0  0  0  0  0  0  0  0  0  0
  -26.0640  -16.3990   20.4120 H   0  0  0  0  0  0  0  0  0  0  0  0
  -27.6190  -15.9760   19.9070 H   0  0  0  0  0  0  0  0  0  0  0  0
  -29.3810  -17.8670   19.2610 C   0  0  0  0  0  2  0  0  0  0  0  0
  -30.6750  -17.5310   19.1350 C   0  0  0  0  0  3  0  0  0  0  0  0
  1  2  1  0
  2  4  1  0
  3  2  1  0
  5  2  1  0
  6  5  1  0
  7  8  1  0
  7  6  1  0
  8 10  1  0
  9 20  2  0
 10 15  1  0
 11 19  1  0
 11 21  1  0
 12 18  1  0
 12 14  1  0
 13 19  1  0
 14 13  1  0
 15 14  2  0
 16 17  1  0
 16 10  2  0
 17 12  2  0
 18 11  1  0
 19  9  1  0
 21 23  2  0
 22 21  1  0
 24 22  1  0
 25 34  2  0
 25 30  1  0
 26 22  1  0
 26 30  1  0
 27 26  1  0
 28 29  1  0
 28 27  1  0
 29 25  1  0
 30 31  2  0
 31 32  1  0
 33 32  2  0
 34 33  1  0
 35  9  1  0
 35 40  1  0
 35 36  1  0
 36 39  1  1
 36 37  1  0
 38 36  1  0
 40 43  1  0
 41 45  1  0
 41 40  1  0
 42 41  2  0
 45 44  1  0
 47 45  1  0
 47 48  1  0
 47 46  1  0
 49  1  1  0
 49 50  1  0
 50 51  1  0
 52 51  1  0
 52 54  1  0
 54 53  1  0
 55 95  1  0
 55 64  1  0
 55 52  1  0
 56 62  1  0
 56 64  1  0
 57 62  1  0
 58 59  1  0
 58 57  1  0
 60 59  1  0
 60 69  1  0
 60 61  1  0
 62 61  1  0
 63 56  2  0
 64 65  1  0
 66 67  2  0
 67 86  1  0
 68 67  1  0
 68 71  1  0
 69 70  1  0
 69 66  1  0
 70 68  2  0
 71 72  1  0
 72 73  2  0
 74 77  1  0
 74 73  1  0
 75 74  2  0
 76 75  1  0
 76 71  2  0
 77 78  1  0
 78 79  1  0
 79 80  2  0
 81 80  1  0
 81 85  1  0
 82 81  2  0
 83 78  2  0
 83 82  1  0
 84 83  1  0
 86 87  1  0
 87 90  1  0
 87 89  1  0
 88 86  2  0
 91 66  1  0
 91 92  1  0
 93 91  1  0
 95 94  2  0
M  ISO  4   7 101   8 101  56 100  64 100
M  END
>  <TORSDO>  (55) 
F 27

>  <SCORE>  (55) 
-9.201

>  <name>  (55) 
57

>  <ligand_id>  (55) 
57

>  <original_smiles>  (55) 
[H]C([H])=C([H])C([H])(N([H])C(=O)N1C([H])([H])C([H])([H])C([H])([H])C([H])(n2nc(-c3c([H])c([H])c(Oc4c([H])c([H])c(F)c([H])c4F)c([H])c3[H])c(C(=O)N([H])[H])c2N([H])[H])C1([H])[H])C([H])(C([H])([H])C([H])([H])[H])C([H])([H])C([H])([H])C([H])([H])C([H])([H])[N+]([H])([H])C([H])([H])C([H])([H])C([H])([H])Oc1c([H])c([H])c2c(c1[H])C([H])([H])N(C(=O)C([H])(N([H])C(=O)C([H])(N([H])C([H])([H])[H])C([H])([H])[H])C(C([H])([H])[H])(C([H])([H])[H])C([H])([H])[H])C([H])(C(=O)N([H])C1([H])c3c([H])c([H])c([H])c([H])c3C([H])([H])C([H])([H])C1([H])[H])C2([H])[H]

>  <smiles>  (55) 
[H]C([H])=C([H])C([H])(N([H])C(=O)N1C([H])([H])C([H])([H])C([H])([H])C([H])(n2nc(-c3c([H])c([H])c(Oc4c([H])c([H])c(F)c([H])c4F)c([H])c3[H])c(C(=O)N([H])[H])c2N([H])[H])C1([H])[H])C([H])(C([H])([H])C([H])([H])[H])C([H])([H])C([H])([H])C([H])([H])C([H])([H])[N+]([H])([H])C([H])([H])C([H])([H])C([H])([H])Oc1c([H])c([H])c2c(c1[H])C([H])([H])N(C(=O)C([H])(N([H])C(=O)C([H])(N([H])C([H])([H])[H])C([H])([H])[H])C(C([H])([H])[H])(C([H])([H])[H])C([H])([H])[H])C([H])(C(=O)N([H])C1([H])c3c([H])c([H])c([H])c([H])c3C([H])([H])C([H])([H])C1([H])[H])C2([H])[H]

$$$$
58:0:0
     RDKit          3D

 91 98  0  0  1  0  0  0  0  0999 V2000
  -28.9470  -22.2030   20.3620 C   0  0  0  0  0  3  0  0  0  0  0  0
  -30.3340  -22.5670   20.7060 N   0  0  0  0  0  4  0  0  0  0  0  0
  -30.8820  -22.7500   19.8860 H   0  0  0  0  0  0  0  0  0  0  0  0
  -30.7740  -21.8440   21.2460 H   0  0  0  0  0  0  0  0  0  0  0  0
  -30.3340  -23.4000   21.2720 H   0  0  0  0  0  0  0  0  0  0  0  0
  -28.1170  -23.8920   19.9390 C   0  0  0  0  0  2  0  0  0  0  0  0
  -28.2090  -25.5960   20.3180 O   0  0  0  0  0  0  0  0  0  0  0  0
  -24.6180  -31.8150   23.1790 C   0  0  0  0  0  0  0  0  0  0  0  0
  -27.2300  -26.7870   20.2180 C   0  0  0  0  0  0  0  0  0  0  0  0
  -23.4650  -30.4120   21.5240 C   0  0  0  0  0  3  0  0  0  0  0  0
  -24.9450  -28.7840   20.1270 C   0  0  0  0  0  0  0  0  0  0  0  0
  -26.0430  -30.5780   21.4420 C   0  0  0  0  0  2  0  0  0  0  0  0
  -26.1270  -29.1520   20.7810 C   0  0  0  0  0  0  0  0  0  0  0  0
  -27.2550  -28.1820   20.7930 C   0  0  0  0  0  3  0  0  0  0  0  0
  -26.0140  -26.6220   19.5050 C   0  0  0  0  0  3  0  0  0  0  0  0
  -24.9270  -27.5430   19.4680 C   0  0  0  0  0  3  0  0  0  0  0  0
  -23.7300  -29.7200   20.1530 C   0  0  0  0  0  2  0  0  0  0  0  0
  -24.7310  -30.9670   22.1010 N   0  0  0  0  0  0  0  0  0  0  0  0
  -23.5160  -32.1110   23.6740 O   0  0  0  0  0  0  0  0  0  0  0  0
  -22.7460  -29.4260   22.4800 C   0  0  0  0  0  0  0  0  0  0  0  0
  -21.4130  -29.2840   22.3530 N   0  0  0  0  0  0  0  0  0  0  0  0
  -23.3970  -28.7890   23.3110 O   0  0  0  0  0  0  0  0  0  0  0  0
  -20.9400  -29.8450   21.6580 H   0  0  0  0  0  0  0  0  0  0  0  0
  -18.0130  -28.1170   22.8820 C   0  0  0  0  0  0  0  0  0  0  0  0
  -20.5790  -28.3480   23.1180 C   0  0  0  0  0  3  0  0  0  0  0  0
  -20.6560  -26.9240   22.5160 C   0  0  0  0  0  2  0  0  0  0  0  0
  -19.5380  -26.6350   21.5100 C   0  0  0  0  0  2  0  0  0  0  0  0
  -18.1650  -26.7820   22.1720 C   0  0  0  0  0  2  0  0  0  0  0  0
  -19.1460  -28.8590   23.3130 C   0  0  0  0  0  0  0  0  0  0  0  0
  -18.9470  -30.1050   23.9450 C   0  0  0  0  0  3  0  0  0  0  0  0
  -17.6500  -30.6140   24.1450 C   0  0  0  0  0  3  0  0  0  0  0  0
  -16.5330  -29.8710   23.7250 C   0  0  0  0  0  3  0  0  0  0  0  0
  -16.7160  -28.6240   23.1010 C   0  0  0  0  0  3  0  0  0  0  0  0
  -25.8670  -32.4730   23.8420 C   0  0  0  0  0  3  0  0  0  0  0  0
  -26.3330  -31.7320   25.1580 C   0  0  1  0  0  0  0  0  0  0  0  0
  -25.1980  -31.5160   26.1880 C   0  0  0  0  0  1  0  0  0  0  0  0
  -26.9300  -30.3450   24.8310 C   0  0  0  0  0  1  0  0  0  0  0  0
  -27.4590  -32.5440   25.8400 C   0  0  0  0  0  1  0  0  0  0  0  0
  -25.5390  -33.8800   24.1510 N   0  0  0  0  0  0  0  0  0  0  0  0
  -25.8920  -34.9360   23.4060 C   0  0  0  0  0  0  0  0  0  0  0  0
  -26.5900  -34.8290   22.3940 O   0  0  0  0  0  0  0  0  0  0  0  0
  -24.9230  -34.0310   24.9360 H   0  0  0  0  0  0  0  0  0  0  0  0
  -24.1770  -36.7400   23.0120 C   0  0  0  0  0  1  0  0  0  0  0  0
  -25.3970  -36.3290   23.8520 C   0  0  0  0  0  3  0  0  0  0  0  0
  -27.5080  -37.2170   24.7400 C   0  0  0  0  0  1  0  0  0  0  0  0
  -26.4350  -37.3790   23.7620 N   0  0  0  0  0  0  0  0  0  0  0  0
  -26.0280  -38.3020   23.8930 H   0  0  0  0  0  0  0  0  0  0  0  0
  -29.0360  -20.3850   19.6940 C   0  0  1  0  0  0  0  0  0  0  0  0
  -26.7470  -20.7460   18.4070 C   0  0  0  0  0  1  0  0  0  0  0  0
  -27.5460  -19.9900   19.4960 C   0  0  0  0  0  2  0  0  0  0  0  0
  -29.6000  -19.4220   17.2880 C   0  0  0  0  0  1  0  0  0  0  0  0
  -29.7240  -20.5760   18.3110 C   0  0  0  0  0  2  0  0  0  0  0  0
  -29.8260  -18.7260   20.2750 C   0  0  0  0  0  2  0  0  0  0  0  0
  -30.3860  -15.6360   19.9570 C   0  0  0  0  0  0  0  0  0  0  0  0
  -30.4070  -13.1290   19.0740 C   0  0  0  0  0  2  0  0  0  0  0  0
  -29.4430  -12.7790   17.9060 C   0  0  0  0  0  2  0  0  0  0  0  0
  -28.0280  -12.4690   18.4210 C   0  0  0  0  0  2  0  0  0  0  0  0
  -27.5970  -13.4460   19.5370 C   0  0  0  0  0  3  0  0  0  0  0  0
  -28.6920  -13.6920   20.5990 C   0  0  0  0  0  2  0  0  0  0  0  0
  -29.8360  -14.2940   19.8790 N   0  0  0  0  0  0  0  0  0  0  0  0
  -31.6150  -15.5690   19.7800 O   0  0  0  0  0  0  0  0  0  0  0  0
  -29.6360  -16.9860   20.0350 N   0  0  0  0  0  0  0  0  0  0  0  0
  -28.6490  -16.7740   20.0050 H   0  0  0  0  0  0  0  0  0  0  0  0
  -25.2760  -13.9940   20.4090 C   0  0  0  0  0  0  0  0  0  0  0  0
  -24.2270  -13.2180   20.8170 C   0  0  0  0  0  0  0  0  0  0  0  0
  -24.6880  -11.8650   20.7530 C   0  0  0  0  0  0  0  0  0  0  0  0
  -26.3020  -13.1170   20.1150 N   0  0  0  0  0  0  0  0  0  0  0  0
  -25.9660  -11.8280   20.3880 N   0  0  0  0  0  0  0  0  0  0  0  0
  -23.9620  -10.6040   20.9620 C   0  0  0  0  0  0  0  0  0  0  0  0
  -24.4140   -9.6310   21.8790 C   0  0  0  0  0  3  0  0  0  0  0  0
  -23.6850   -8.4380   22.0740 C   0  0  0  0  0  3  0  0  0  0  0  0
  -22.4900   -8.2080   21.3520 C   0  0  0  0  0  0  0  0  0  0  0  0
  -22.0570   -9.1700   20.4230 C   0  0  0  0  0  3  0  0  0  0  0  0
  -22.7880  -10.3540   20.2270 C   0  0  0  0  0  3  0  0  0  0  0  0
  -21.7280   -7.0690   21.4610 O   0  0  0  0  0  0  0  0  0  0  0  0
  -21.6970   -6.3290   22.6170 C   0  0  0  0  0  0  0  0  0  0  0  0
  -21.2790   -6.8850   23.8450 C   0  0  0  0  0  3  0  0  0  0  0  0
  -21.1980   -6.0740   24.9950 C   0  0  0  0  0  3  0  0  0  0  0  0
  -21.5240   -4.7050   24.9170 C   0  0  0  0  0  0  0  0  0  0  0  0
  -21.9330   -4.1500   23.6920 C   0  0  0  0  0  3  0  0  0  0  0  0
  -22.0160   -4.9580   22.5460 C   0  0  0  0  0  0  0  0  0  0  0  0
  -22.3940   -4.4130   21.3640 F   0  0  0  0  0  0  0  0  0  0  0  0
  -21.4390   -3.9240   26.0190 F   0  0  0  0  0  0  0  0  0  0  0  0
  -22.8440  -13.6970   21.1420 C   0  0  0  0  0  0  0  0  0  0  0  0
  -22.1450  -13.0020   22.0320 N   0  0  0  0  0  0  0  0  0  0  0  0
  -22.3900  -14.7260   20.6400 O   0  0  0  0  0  0  0  0  0  0  0  0
  -22.5160  -12.1640   22.4560 H   0  0  0  0  0  0  0  0  0  0  0  0
  -21.2210  -13.3130   22.3000 H   0  0  0  0  0  0  0  0  0  0  0  0
  -25.4340  -15.3640   20.2280 N   0  0  0  0  0  0  0  0  0  0  0  0
  -24.6740  -16.0230   20.3520 H   0  0  0  0  0  0  0  0  0  0  0  0
  -26.2500  -15.7880   19.8080 H   0  0  0  0  0  0  0  0  0  0  0  0
  1  6  1  0
  1  2  1  0
  2  4  1  0
  2  5  1  0
  3  2  1  0
  6  7  1  0
  8 19  2  0
  9  7  1  0
  9 14  1  0
 10 18  1  0
 10 20  1  0
 11 17  1  0
 11 13  1  0
 12 18  1  0
 13 14  2  0
 13 12  1  0
 15  9  2  0
 16 15  1  0
 16 11  2  0
 17 10  1  0
 18  8  1  0
 20 22  2  0
 21 20  1  0
 23 21  1  0
 24 33  2  0
 24 29  1  0
 25 21  1  0
 25 29  1  0
 26 25  1  0
 27 28  1  0
 27 26  1  0
 28 24  1  0
 29 30  2  0
 30 31  1  0
 32 31  2  0
 33 32  1  0
 34  8  1  0
 34 39  1  0
 34 35  1  0
 35 38  1  1
 35 36  1  0
 37 35  1  0
 39 42  1  0
 40 44  1  0
 40 39  1  0
 41 40  2  0
 44 43  1  0
 46 44  1  0
 46 47  1  0
 46 45  1  0
 48 53  1  1
 48  1  1  0
 49 50  1  0
 50 48  1  0
 51 52  1  0
 52 48  1  0
 54 62  1  0
 55 60  1  0
 56 57  1  0
 56 55  1  0
 58 57  1  0
 58 67  1  0
 58 59  1  0
 60 54  1  0
 60 59  1  0
 61 54  2  0
 62 53  1  0
 63 62  1  0
 64 65  2  0
 65 84  1  0
 66 65  1  0
 66 69  1  0
 67 68  1  0
 67 64  1  0
 68 66  2  0
 69 70  1  0
 70 71  2  0
 72 75  1  0
 72 71  1  0
 73 72  2  0
 74 73  1  0
 74 69  2  0
 75 76  1  0
 76 77  1  0
 77 78  2  0
 79 78  1  0
 79 83  1  0
 80 79  2  0
 81 76  2  0
 81 80  1  0
 82 81  1  0
 84 85  1  0
 85 88  1  0
 85 87  1  0
 86 84  2  0
 89 90  1  0
 89 64  1  0
 91 89  1  0
M  ISO  4   6 101   7 101  54 100  62 100
M  END
>  <TORSDO>  (56) 
F 22

>  <SCORE>  (56) 
-15.510

>  <name>  (56) 
58

>  <ligand_id>  (56) 
58

>  <original_smiles>  (56) 
[H]c1c([H])c([H])c2c(c1[H])C([H])([H])C([H])([H])C([H])([H])C2([H])N([H])C(=O)C1([H])N(C(=O)C([H])(N([H])C(=O)C([H])(N([H])C([H])([H])[H])C([H])([H])[H])C(C([H])([H])[H])(C([H])([H])[H])C([H])([H])[H])C([H])([H])c2c([H])c(OC([H])([H])C([H])(C(C([H])([H])N([H])C(=O)N3C([H])([H])C([H])([H])C([H])([H])C([H])(n4nc(-c5c([H])c([H])c(Oc6c([H])c([H])c(F)c([H])c6F)c([H])c5[H])c(C(=O)N([H])[H])c4N([H])[H])C3([H])[H])(C([H])([H])C([H])([H])[H])C([H])([H])C([H])([H])[H])[N+]([H])([H])[H])c([H])c([H])c2C1([H])[H]

>  <smiles>  (56) 
[H]c1c([H])c([H])c2c(c1[H])C([H])([H])C([H])([H])C([H])([H])C2([H])N([H])C(=O)C1([H])N(C(=O)C([H])(N([H])C(=O)C([H])(N([H])C([H])([H])[H])C([H])([H])[H])C(C([H])([H])[H])(C([H])([H])[H])C([H])([H])[H])C([H])([H])c2c([H])c(OC([H])([H])C([H])(C(C([H])([H])N([H])C(=O)N3C([H])([H])C([H])([H])C([H])([H])C([H])(n4nc(-c5c([H])c([H])c(Oc6c([H])c([H])c(F)c([H])c6F)c([H])c5[H])c(C(=O)N([H])[H])c4N([H])[H])C3([H])[H])(C([H])([H])C([H])([H])[H])C([H])([H])C([H])([H])[H])[N+]([H])([H])[H])c([H])c([H])c2C1([H])[H]

$$$$
59:0:0
     RDKit          3D

 89 97  0  0  1  0  0  0  0  0999 V2000
  -29.1710  -22.2710   20.3920 C   0  0  0  0  0  3  0  0  0  0  0  0
  -30.3450  -15.6500   20.1740 C   0  0  0  0  0  0  0  0  0  0  0  0
  -30.3930  -13.1140   19.3330 C   0  0  0  0  0  2  0  0  0  0  0  0
  -29.4740  -12.7530   18.1340 C   0  0  0  0  0  2  0  0  0  0  0  0
  -28.0580  -12.3810   18.6250 C   0  0  0  0  0  2  0  0  0  0  0  0
  -27.5670  -13.3690   19.7060 C   0  0  0  0  0  3  0  0  0  0  0  0
  -28.6340  -13.6550   20.7890 C   0  0  0  0  0  2  0  0  0  0  0  0
  -29.7940  -14.2990   20.1010 N   0  0  0  0  0  0  0  0  0  0  0  0
  -31.5850  -15.5530   20.0490 O   0  0  0  0  0  0  0  0  0  0  0  0
  -27.4170  -18.3710   19.7110 C   0  0  0  0  0  3  0  0  0  0  0  0
  -27.8670  -19.8670   19.5240 C   0  0  0  0  0  3  0  0  0  0  0  0
  -28.4030  -17.1670   19.4150 C   0  0  0  0  0  2  0  0  0  0  0  0
  -30.0330  -18.7540   20.3660 C   0  0  0  0  0  3  0  0  0  0  0  0
  -28.9890  -20.3300   20.4620 C   0  0  0  0  0  0  0  0  0  0  0  0
  -29.6500  -17.0590   20.2110 N   0  0  0  0  0  0  0  0  0  0  0  0
  -25.2190  -13.8840   20.5630 C   0  0  0  0  0  0  0  0  0  0  0  0
  -24.1730  -13.0950   20.9500 C   0  0  0  0  0  0  0  0  0  0  0  0
  -24.6460  -11.7480   20.8690 C   0  0  0  0  0  0  0  0  0  0  0  0
  -26.2620  -13.0220   20.2640 N   0  0  0  0  0  0  0  0  0  0  0  0
  -25.9300  -11.7300   20.5160 N   0  0  0  0  0  0  0  0  0  0  0  0
  -23.9340  -10.4780   21.0560 C   0  0  0  0  0  0  0  0  0  0  0  0
  -24.3900   -9.4920   21.9620 C   0  0  0  0  0  3  0  0  0  0  0  0
  -23.6680   -8.2920   22.1380 C   0  0  0  0  0  3  0  0  0  0  0  0
  -22.4750   -8.0660   21.4080 C   0  0  0  0  0  0  0  0  0  0  0  0
  -22.0370   -9.0400   20.4910 C   0  0  0  0  0  3  0  0  0  0  0  0
  -22.7630  -10.2300   20.3090 C   0  0  0  0  0  3  0  0  0  0  0  0
  -21.7220   -6.9190   21.5010 O   0  0  0  0  0  0  0  0  0  0  0  0
  -21.6940   -6.1680   22.6480 C   0  0  0  0  0  0  0  0  0  0  0  0
  -21.2700   -6.7060   23.8830 C   0  0  0  0  0  3  0  0  0  0  0  0
  -21.1830   -5.8780   25.0200 C   0  0  0  0  0  3  0  0  0  0  0  0
  -21.5180   -4.5130   24.9250 C   0  0  0  0  0  0  0  0  0  0  0  0
  -21.9400   -3.9770   23.6940 C   0  0  0  0  0  3  0  0  0  0  0  0
  -22.0200   -4.8000   22.5580 C   0  0  0  0  0  0  0  0  0  0  0  0
  -22.4040   -4.2700   21.3720 F   0  0  0  0  0  0  0  0  0  0  0  0
  -21.4280   -3.7160   26.0140 F   0  0  0  0  0  0  0  0  0  0  0  0
  -22.7780  -13.5590   21.2600 C   0  0  0  0  0  0  0  0  0  0  0  0
  -22.0620  -12.8600   22.1370 N   0  0  0  0  0  0  0  0  0  0  0  0
  -22.3230  -14.5830   20.7510 O   0  0  0  0  0  0  0  0  0  0  0  0
  -22.4240  -12.0420   22.6040 H   0  0  0  0  0  0  0  0  0  0  0  0
  -21.1220  -13.1630   22.3550 H   0  0  0  0  0  0  0  0  0  0  0  0
  -25.3580  -15.2610   20.3990 N   0  0  0  0  0  0  0  0  0  0  0  0
  -24.6050  -15.9140   20.5730 H   0  0  0  0  0  0  0  0  0  0  0  0
  -26.2000  -15.7130   20.0790 H   0  0  0  0  0  0  0  0  0  0  0  0
  -30.1980  -22.5540   19.3610 N   0  0  0  0  0  4  0  0  0  0  0  0
  -29.8810  -22.3160   18.4390 H   0  0  0  0  0  0  0  0  0  0  0  0
  -31.0660  -22.0780   19.5320 H   0  0  0  0  0  0  0  0  0  0  0  0
  -30.4130  -23.5380   19.3590 H   0  0  0  0  0  0  0  0  0  0  0  0
  -28.0850  -23.8760   20.4120 C   0  0  0  0  0  2  0  0  0  0  0  0
  -28.2420  -25.6230   20.3770 O   0  0  0  0  0  0  0  0  0  0  0  0
  -24.6520  -31.8750   23.1670 C   0  0  0  0  0  0  0  0  0  0  0  0
  -27.2420  -26.8020   20.3000 C   0  0  0  0  0  0  0  0  0  0  0  0
  -23.4790  -30.4590   21.5300 C   0  0  0  0  0  3  0  0  0  0  0  0
  -24.9530  -28.7960   20.1620 C   0  0  0  0  0  0  0  0  0  0  0  0
  -26.0570  -30.6210   21.4320 C   0  0  0  0  0  2  0  0  0  0  0  0
  -26.1350  -29.1810   20.8050 C   0  0  0  0  0  0  0  0  0  0  0  0
  -27.2610  -28.2080   20.8490 C   0  0  0  0  0  3  0  0  0  0  0  0
  -26.0250  -26.6140   19.6010 C   0  0  0  0  0  3  0  0  0  0  0  0
  -24.9310  -27.5320   19.5390 C   0  0  0  0  0  3  0  0  0  0  0  0
  -23.7440  -29.7440   20.1720 C   0  0  0  0  0  2  0  0  0  0  0  0
  -24.7510  -31.0180   22.0950 N   0  0  0  0  0  0  0  0  0  0  0  0
  -23.5540  -32.1760   23.6680 O   0  0  0  0  0  0  0  0  0  0  0  0
  -22.7520  -29.4890   22.5020 C   0  0  0  0  0  0  0  0  0  0  0  0
  -21.4160  -29.3520   22.3880 N   0  0  0  0  0  0  0  0  0  0  0  0
  -23.4050  -28.8550   23.3350 O   0  0  0  0  0  0  0  0  0  0  0  0
  -20.9330  -29.9300   21.7130 H   0  0  0  0  0  0  0  0  0  0  0  0
  -18.0130  -28.1780   22.9200 C   0  0  0  0  0  0  0  0  0  0  0  0
  -20.5810  -28.4230   23.1650 C   0  0  0  0  0  3  0  0  0  0  0  0
  -20.6580  -26.9850   22.5970 C   0  0  0  0  0  2  0  0  0  0  0  0
  -19.5480  -26.6730   21.5870 C   0  0  0  0  0  2  0  0  0  0  0  0
  -18.1730  -26.8280   22.2400 C   0  0  0  0  0  2  0  0  0  0  0  0
  -19.1420  -28.9330   23.3410 C   0  0  0  0  0  0  0  0  0  0  0  0
  -18.9320  -30.1910   23.9440 C   0  0  0  0  0  3  0  0  0  0  0  0
  -17.6310  -30.7010   24.1170 C   0  0  0  0  0  3  0  0  0  0  0  0
  -16.5190  -29.9450   23.7050 C   0  0  0  0  0  3  0  0  0  0  0  0
  -16.7110  -28.6830   23.1170 C   0  0  0  0  0  3  0  0  0  0  0  0
  -25.9110  -32.5290   23.8110 C   0  0  0  0  0  3  0  0  0  0  0  0
  -26.4050  -31.7650   25.1010 C   0  0  1  0  0  0  0  0  0  0  0  0
  -25.2960  -31.5360   26.1550 C   0  0  0  0  0  1  0  0  0  0  0  0
  -26.9970  -30.3840   24.7460 C   0  0  0  0  0  1  0  0  0  0  0  0
  -27.5520  -32.5590   25.7690 C   0  0  0  0  0  1  0  0  0  0  0  0
  -25.5830  -33.9290   24.1490 N   0  0  0  0  0  0  0  0  0  0  0  0
  -25.9090  -34.9960   23.4070 C   0  0  0  0  0  0  0  0  0  0  0  0
  -26.5690  -34.9020   22.3680 O   0  0  0  0  0  0  0  0  0  0  0  0
  -24.9820  -34.0680   24.9480 H   0  0  0  0  0  0  0  0  0  0  0  0
  -24.1700  -36.7920   23.1080 C   0  0  0  0  0  1  0  0  0  0  0  0
  -25.4340  -36.3850   23.8840 C   0  0  0  0  0  3  0  0  0  0  0  0
  -27.5820  -37.2840   24.6660 C   0  0  0  0  0  1  0  0  0  0  0  0
  -26.4620  -37.4400   23.7380 N   0  0  0  0  0  0  0  0  0  0  0  0
  -26.0620  -38.3620   23.8710 H   0  0  0  0  0  0  0  0  0  0  0  0
  1 48  1  0
  1 14  1  0
  2 15  1  0
  3  8  1  0
  4  5  1  0
  4  3  1  0
  6  5  1  0
  6 19  1  0
  6  7  1  0
  8  2  1  0
  8  7  1  0
  9  2  2  0
 11 10  2  0
 11 14  1  0
 12 10  1  0
 12 15  1  0
 13 14  2  0
 15 13  1  0
 16 17  2  0
 17 36  1  0
 18 17  1  0
 18 21  1  0
 19 20  1  0
 19 16  1  0
 20 18  2  0
 21 22  1  0
 22 23  2  0
 24 27  1  0
 24 23  1  0
 25 24  2  0
 26 25  1  0
 26 21  2  0
 27 28  1  0
 28 29  1  0
 29 30  2  0
 31 30  1  0
 31 35  1  0
 32 31  2  0
 33 28  2  0
 33 32  1  0
 34 33  1  0
 36 37  1  0
 37 40  1  0
 37 39  1  0
 38 36  2  0
 41 16  1  0
 41 42  1  0
 43 41  1  0
 44 46  1  0
 44  1  1  0
 45 44  1  0
 47 44  1  0
 49 48  1  0
 50 61  2  0
 51 49  1  0
 51 56  1  0
 52 60  1  0
 52 62  1  0
 53 59  1  0
 53 55  1  0
 54 60  1  0
 55 56  2  0
 55 54  1  0
 57 51  2  0
 58 57  1  0
 58 53  2  0
 59 52  1  0
 60 50  1  0
 62 64  2  0
 63 62  1  0
 65 63  1  0
 66 75  2  0
 66 71  1  0
 67 63  1  0
 67 71  1  0
 68 67  1  0
 69 70  1  0
 69 68  1  0
 70 66  1  0
 71 72  2  0
 72 73  1  0
 74 73  2  0
 75 74  1  0
 76 50  1  0
 76 81  1  0
 76 77  1  0
 77 80  1  1
 77 78  1  0
 79 77  1  0
 81 84  1  0
 82 86  1  0
 82 81  1  0
 83 82  2  0
 86 85  1  0
 88 89  1  0
 88 86  1  0
 88 87  1  0
M  ISO  4   2 100  15 100  48 101  49 101
M  END
>  <TORSDO>  (57) 
F 18

>  <SCORE>  (57) 
-16.797

>  <name>  (57) 
59

>  <ligand_id>  (57) 
59

>  <original_smiles>  (57) 
[H]c1c([H])c([H])c2c(c1[H])C([H])([H])C([H])([H])C([H])([H])C2([H])N([H])C(=O)C1([H])N(C(=O)C([H])(N([H])C(=O)C([H])(N([H])C([H])([H])[H])C([H])([H])[H])C(C([H])([H])[H])(C([H])([H])[H])C([H])([H])[H])C([H])([H])c2c([H])c(OC([H])([H])C([H])(C3([H])C([H])([H])N(C(=O)N4C([H])([H])C([H])([H])C([H])([H])C([H])(n5nc(-c6c([H])c([H])c(Oc7c([H])c([H])c(F)c([H])c7F)c([H])c6[H])c(C(=O)N([H])[H])c5N([H])[H])C4([H])[H])C([H])([H])C([H])([H])C3([H])[H])[N+]([H])([H])[H])c([H])c([H])c2C1([H])[H]

>  <smiles>  (57) 
[H]c1c([H])c([H])c2c(c1[H])C([H])([H])C([H])([H])C([H])([H])C2([H])N([H])C(=O)C1([H])N(C(=O)C([H])(N([H])C(=O)C([H])(N([H])C([H])([H])[H])C([H])([H])[H])C(C([H])([H])[H])(C([H])([H])[H])C([H])([H])[H])C([H])([H])c2c([H])c(OC([H])([H])C([H])(C3([H])C([H])([H])N(C(=O)N4C([H])([H])C([H])([H])C([H])([H])C([H])(n5nc(-c6c([H])c([H])c(Oc7c([H])c([H])c(F)c([H])c7F)c([H])c6[H])c(C(=O)N([H])[H])c5N([H])[H])C4([H])[H])C([H])([H])C([H])([H])C3([H])[H])[N+]([H])([H])[H])c([H])c([H])c2C1([H])[H]

$$$$
60:0:0
     RDKit          3D

100107  0  0  1  0  0  0  0  0999 V2000
  -29.6330  -21.1500   20.4500 C   0  0  0  0  0  3  0  0  0  0  0  0
  -30.7210  -21.5450   22.6670 C   0  0  0  0  0  0  0  0  0  0  0  0
  -29.6430  -21.2870   21.9090 N   0  0  0  0  0  0  0  0  0  0  0  0
  -31.8670  -21.5930   22.2080 O   0  0  0  0  0  0  0  0  0  0  0  0
  -28.7470  -21.2430   22.3750 H   0  0  0  0  0  0  0  0  0  0  0  0
  -30.4850  -21.8250   24.1620 C   0  0  0  0  0  3  0  0  0  0  0  0
  -31.7720  -21.9860   24.8600 N   0  0  0  0  0  4  0  0  0  0  0  0
  -32.3030  -22.7150   24.4180 H   0  0  0  0  0  0  0  0  0  0  0  0
  -32.3000  -21.1370   24.7690 H   0  0  0  0  0  0  0  0  0  0  0  0
  -31.6450  -22.1910   25.8350 H   0  0  0  0  0  0  0  0  0  0  0  0
  -29.5540  -23.0460   24.3850 C   0  0  0  0  0  2  0  0  0  0  0  0
  -29.9460  -24.3450   23.6450 C   0  0  0  0  0  2  0  0  0  0  0  0
  -29.1860  -26.6650   22.9090 C   0  0  0  0  0  1  0  0  0  0  0  0
  -28.8280  -25.3970   23.6910 C   0  0  0  0  0  2  0  0  0  0  0  0
  -29.3010  -19.6440   20.0090 C   0  0  0  0  0  2  0  0  0  0  0  0
  -29.8370  -18.4220   20.8870 C   0  0  0  0  0  2  0  0  0  0  0  0
  -29.9960  -15.7800   20.5840 C   0  0  0  0  0  3  0  0  0  0  0  0
  -30.3010  -17.0800   20.2220 C   0  0  0  0  0  0  0  0  0  0  0  0
  -30.6300  -14.5650   19.9790 C   0  0  0  0  0  0  0  0  0  0  0  0
  -30.2460  -12.3630   18.9010 C   0  0  0  0  0  2  0  0  0  0  0  0
  -29.2370  -12.5580   17.7500 C   0  0  0  0  0  2  0  0  0  0  0  0
  -27.7940  -12.4060   18.2700 C   0  0  0  0  0  2  0  0  0  0  0  0
  -27.5360  -13.2370   19.5550 C   0  0  0  0  0  3  0  0  0  0  0  0
  -28.6660  -13.0480   20.5920 C   0  0  0  0  0  2  0  0  0  0  0  0
  -29.9420  -13.3750   19.9380 N   0  0  0  0  0  0  0  0  0  0  0  0
  -31.7340  -14.6430   19.4340 O   0  0  0  0  0  0  0  0  0  0  0  0
  -25.2070  -13.8390   20.4560 C   0  0  0  0  0  0  0  0  0  0  0  0
  -24.1580  -13.0680   20.8780 C   0  0  0  0  0  0  0  0  0  0  0  0
  -24.5990  -11.7130   20.7780 C   0  0  0  0  0  0  0  0  0  0  0  0
  -26.2210  -12.9540   20.1240 N   0  0  0  0  0  0  0  0  0  0  0  0
  -25.8640  -11.6680   20.3760 N   0  0  0  0  0  0  0  0  0  0  0  0
  -23.8700  -10.4540   20.9850 C   0  0  0  0  0  0  0  0  0  0  0  0
  -24.3320   -9.4730   21.8900 C   0  0  0  0  0  3  0  0  0  0  0  0
  -23.6030   -8.2800   22.0850 C   0  0  0  0  0  3  0  0  0  0  0  0
  -22.3970   -8.0600   21.3770 C   0  0  0  0  0  0  0  0  0  0  0  0
  -21.9550   -9.0310   20.4610 C   0  0  0  0  0  3  0  0  0  0  0  0
  -22.6850  -10.2150   20.2630 C   0  0  0  0  0  3  0  0  0  0  0  0
  -21.6360   -6.9220   21.4850 O   0  0  0  0  0  0  0  0  0  0  0  0
  -21.5940   -6.1910   22.6450 C   0  0  0  0  0  0  0  0  0  0  0  0
  -21.1500   -6.7500   23.8640 C   0  0  0  0  0  3  0  0  0  0  0  0
  -21.0570   -5.9430   25.0150 C   0  0  0  0  0  3  0  0  0  0  0  0
  -21.3970   -4.5790   24.9490 C   0  0  0  0  0  0  0  0  0  0  0  0
  -21.8350   -4.0200   23.7360 C   0  0  0  0  0  3  0  0  0  0  0  0
  -21.9290   -4.8230   22.5860 C   0  0  0  0  0  0  0  0  0  0  0  0
  -22.3310   -4.2740   21.4150 F   0  0  0  0  0  0  0  0  0  0  0  0
  -21.3010   -3.8030   26.0540 F   0  0  0  0  0  0  0  0  0  0  0  0
  -22.7920  -13.5550   21.2610 C   0  0  0  0  0  0  0  0  0  0  0  0
  -22.1130  -12.8380   22.1480 N   0  0  0  0  0  0  0  0  0  0  0  0
  -22.3380  -14.6060   20.8080 O   0  0  0  0  0  0  0  0  0  0  0  0
  -22.4940  -11.9880   22.5360 H   0  0  0  0  0  0  0  0  0  0  0  0
  -21.1970  -13.1440   22.4460 H   0  0  0  0  0  0  0  0  0  0  0  0
  -25.3780  -15.2120   20.3070 N   0  0  0  0  0  0  0  0  0  0  0  0
  -24.6290  -15.8720   20.4890 H   0  0  0  0  0  0  0  0  0  0  0  0
  -26.2150  -15.6520   19.9440 H   0  0  0  0  0  0  0  0  0  0  0  0
  -31.1490  -17.3810   19.2250 O   0  0  0  0  0  0  0  0  0  0  0  0
  -31.5100  -16.5610   18.9010 H   0  0  0  0  0  0  0  0  0  0  0  0
  -28.7510  -22.3280   19.8330 C   0  0  0  0  0  2  0  0  0  0  0  0
  -29.0820  -23.8500   20.2040 C   0  0  0  0  0  3  0  0  0  0  0  0
  -28.0590  -24.9550   19.7000 C   0  0  0  0  0  3  0  0  0  0  0  0
  -28.2710  -26.3920   20.0010 O   0  0  0  0  0  0  0  0  0  0  0  0
  -24.5280  -31.6850   23.1720 C   0  0  0  0  0  0  0  0  0  0  0  0
  -27.1540  -27.2460   19.9600 C   0  0  0  0  0  0  0  0  0  0  0  0
  -23.3310  -30.3440   21.4820 C   0  0  0  0  0  3  0  0  0  0  0  0
  -24.7870  -28.8540   20.0040 C   0  0  0  0  0  0  0  0  0  0  0  0
  -25.8710  -30.6710   21.3210 C   0  0  0  0  0  2  0  0  0  0  0  0
  -25.9530  -29.3180   20.6250 C   0  0  0  0  0  0  0  0  0  0  0  0
  -27.1380  -28.5250   20.5980 C   0  0  0  0  0  3  0  0  0  0  0  0
  -25.9650  -26.8440   19.3050 C   0  0  0  0  0  3  0  0  0  0  0  0
  -24.7950  -27.6220   19.3370 C   0  0  0  0  0  3  0  0  0  0  0  0
  -23.5490  -29.7230   20.0800 C   0  0  0  0  0  2  0  0  0  0  0  0
  -24.5950  -30.9160   22.0490 N   0  0  0  0  0  0  0  0  0  0  0  0
  -23.4440  -31.9440   23.7130 O   0  0  0  0  0  0  0  0  0  0  0  0
  -22.6690  -29.2910   22.4040 C   0  0  0  0  0  0  0  0  0  0  0  0
  -21.3400  -29.1330   22.2840 N   0  0  0  0  0  0  0  0  0  0  0  0
  -23.3490  -28.6240   23.1880 O   0  0  0  0  0  0  0  0  0  0  0  0
  -20.8510  -29.7250   21.6270 H   0  0  0  0  0  0  0  0  0  0  0  0
  -17.9490  -27.9760   22.7940 C   0  0  0  0  0  0  0  0  0  0  0  0
  -20.5170  -28.1730   23.0230 C   0  0  0  0  0  3  0  0  0  0  0  0
  -20.5770  -26.7710   22.3740 C   0  0  0  0  0  2  0  0  0  0  0  0
  -19.4490  -26.5220   21.3670 C   0  0  0  0  0  2  0  0  0  0  0  0
  -18.0840  -26.6600   22.0460 C   0  0  0  0  0  2  0  0  0  0  0  0
  -19.0910  -28.6950   23.2380 C   0  0  0  0  0  0  0  0  0  0  0  0
  -18.9100  -29.9300   23.8970 C   0  0  0  0  0  3  0  0  0  0  0  0
  -17.6190  -30.4470   24.1150 C   0  0  0  0  0  3  0  0  0  0  0  0
  -16.4910  -29.7250   23.6870 C   0  0  0  0  0  3  0  0  0  0  0  0
  -16.6570  -28.4910   23.0330 C   0  0  0  0  0  3  0  0  0  0  0  0
  -25.8090  -32.2980   23.8190 C   0  0  0  0  0  3  0  0  0  0  0  0
  -25.5060  -33.6930   24.1670 N   0  0  0  0  0  0  0  0  0  0  0  0
  -25.8560  -34.7570   23.4310 C   0  0  0  0  0  0  0  0  0  0  0  0
  -26.5390  -34.6650   22.4070 O   0  0  0  0  0  0  0  0  0  0  0  0
  -24.9020  -33.8380   24.9630 H   0  0  0  0  0  0  0  0  0  0  0  0
  -24.1510  -36.5720   23.0780 C   0  0  0  0  0  1  0  0  0  0  0  0
  -25.3730  -36.1410   23.9060 C   0  0  0  0  0  3  0  0  0  0  0  0
  -27.5000  -36.9920   24.7910 C   0  0  0  0  0  1  0  0  0  0  0  0
  -26.4160  -37.1880   23.8310 N   0  0  0  0  0  0  0  0  0  0  0  0
  -26.0140  -38.1080   23.9910 H   0  0  0  0  0  0  0  0  0  0  0  0
  -26.3050  -31.5020   25.0880 C   0  0  1  0  0  0  0  0  0  0  0  0
  -25.2010  -31.2570   26.1420 C   0  0  0  0  0  1  0  0  0  0  0  0
  -26.8820  -30.1240   24.6830 C   0  0  0  0  0  1  0  0  0  0  0  0
  -27.4570  -32.2750   25.7720 C   0  0  0  0  0  1  0  0  0  0  0  0
  1 57  1  0
  1  3  1  0
  2  6  1  0
  3  5  1  0
  3  2  1  0
  4  2  2  0
  6 11  1  0
  6  7  1  0
  7 10  1  0
  8  7  1  0
  9  7  1  0
 12 14  1  0
 12 11  1  0
 13 14  1  0
 15  1  1  0
 15 16  1  0
 18 17  2  0
 18 16  1  0
 19 17  1  0
 20 25  1  0
 21 22  1  0
 21 20  1  0
 23 22  1  0
 23 30  1  0
 23 24  1  0
 25 19  1  0
 25 24  1  0
 26 19  2  0
 27 28  2  0
 28 47  1  0
 29 28  1  0
 29 32  1  0
 30 31  1  0
 30 27  1  0
 31 29  2  0
 32 33  1  0
 33 34  2  0
 35 38  1  0
 35 34  1  0
 36 35  2  0
 37 36  1  0
 37 32  2  0
 38 39  1  0
 39 40  1  0
 40 41  2  0
 42 41  1  0
 42 46  1  0
 43 42  2  0
 44 39  2  0
 44 43  1  0
 45 44  1  0
 47 48  1  0
 48 51  1  0
 48 50  1  0
 49 47  2  0
 52 27  1  0
 52 53  1  0
 54 52  1  0
 55 18  1  0
 56 55  1  0
 57 58  1  0
 59 60  1  0
 59 58  2  0
 61 72  2  0
 62 60  1  0
 62 67  1  0
 63 71  1  0
 63 73  1  0
 64 70  1  0
 64 66  1  0
 65 71  1  0
 66 65  1  0
 67 66  2  0
 68 69  1  0
 68 62  2  0
 69 64  2  0
 70 63  1  0
 71 61  1  0
 73 75  2  0
 74 73  1  0
 76 74  1  0
 77 86  2  0
 77 82  1  0
 78 74  1  0
 78 82  1  0
 79 78  1  0
 80 81  1  0
 80 79  1  0
 81 77  1  0
 82 83  2  0
 83 84  1  0
 85 84  2  0
 86 85  1  0
 87 61  1  0
 87 88  1  0
 87 97  1  0
 88 91  1  0
 89 93  1  0
 89 88  1  0
 90 89  2  0
 93 92  1  0
 95 93  1  0
 95 96  1  0
 95 94  1  0
 97100  1  1
 97 98  1  0
 99 97  1  0
M  ISO  4  17 100  19 100  59 101  60 101
M  END
>  <TORSDO>  (58) 
F 29

>  <SCORE>  (58) 
-11.093

>  <name>  (58) 
60

>  <ligand_id>  (58) 
60

>  <original_smiles>  (58) 
[H]OC(=C([H])C(=O)N1C([H])([H])C([H])([H])C([H])([H])C([H])(n2nc(-c3c([H])c([H])c(Oc4c([H])c([H])c(F)c([H])c4F)c([H])c3[H])c(C(=O)N([H])[H])c2N([H])[H])C1([H])[H])C([H])([H])C([H])([H])C([H])(N([H])C(=O)C([H])(C([H])([H])C([H])([H])C([H])([H])C([H])([H])[H])[N+]([H])([H])[H])C([H])([H])C([H])([H])C([H])([H])Oc1c([H])c([H])c2c(c1[H])C([H])([H])N(C(=O)C([H])(N([H])C(=O)C([H])(N([H])C([H])([H])[H])C([H])([H])[H])C(C([H])([H])[H])(C([H])([H])[H])C([H])([H])[H])C([H])(C(=O)N([H])C1([H])c3c([H])c([H])c([H])c([H])c3C([H])([H])C([H])([H])C1([H])[H])C2([H])[H]

>  <smiles>  (58) 
[H]OC(=C([H])C(=O)N1C([H])([H])C([H])([H])C([H])([H])C([H])(n2nc(-c3c([H])c([H])c(Oc4c([H])c([H])c(F)c([H])c4F)c([H])c3[H])c(C(=O)N([H])[H])c2N([H])[H])C1([H])[H])C([H])([H])C([H])([H])C([H])(N([H])C(=O)C([H])(C([H])([H])C([H])([H])C([H])([H])C([H])([H])[H])[N+]([H])([H])[H])C([H])([H])C([H])([H])C([H])([H])Oc1c([H])c([H])c2c(c1[H])C([H])([H])N(C(=O)C([H])(N([H])C(=O)C([H])(N([H])C([H])([H])[H])C([H])([H])[H])C(C([H])([H])[H])(C([H])([H])[H])C([H])([H])[H])C([H])(C(=O)N([H])C1([H])c3c([H])c([H])c([H])c([H])c3C([H])([H])C([H])([H])C1([H])[H])C2([H])[H]

$$$$
61:0:0
     RDKit          3D

 97104  0  0  1  0  0  0  0  0999 V2000
  -29.2430  -21.1970   20.9650 C   0  0  0  0  0  3  0  0  0  0  0  0
  -29.9340  -18.6040   21.1150 C   0  0  0  0  0  0  0  0  0  0  0  0
  -29.6470  -19.8000   20.4540 N   0  0  0  0  0  0  0  0  0  0  0  0
  -29.8460  -18.5130   22.3390 O   0  0  0  0  0  0  0  0  0  0  0  0
  -29.6690  -19.7210   19.4440 H   0  0  0  0  0  0  0  0  0  0  0  0
  -30.3540  -17.2780   20.3160 C   0  0  0  0  0  0  0  0  0  0  0  0
  -31.1310  -14.7810   21.0590 C   0  0  0  0  0  0  0  0  0  0  0  0
  -31.0070  -12.4580   20.1680 C   0  0  0  0  0  2  0  0  0  0  0  0
  -30.2230  -12.5360   18.8380 C   0  0  0  0  0  2  0  0  0  0  0  0
  -28.6970  -12.4850   19.0800 C   0  0  0  0  0  2  0  0  0  0  0  0
  -28.2210  -13.4030   20.2420 C   0  0  0  0  0  3  0  0  0  0  0  0
  -29.1410  -13.2690   21.4750 C   0  0  0  0  0  2  0  0  0  0  0  0
  -30.5130  -13.5520   21.0310 N   0  0  0  0  0  0  0  0  0  0  0  0
  -32.3530  -14.8640   20.9280 O   0  0  0  0  0  0  0  0  0  0  0  0
  -30.2850  -15.8650   20.9190 N   0  0  0  0  0  4  0  0  0  0  0  0
  -29.3380  -15.5940   21.1270 H   0  0  0  0  0  0  0  0  0  0  0  0
  -25.7950  -14.1170   20.6880 C   0  0  0  0  0  0  0  0  0  0  0  0
  -24.6550  -13.3940   20.9220 C   0  0  0  0  0  0  0  0  0  0  0  0
  -25.0510  -12.0220   20.9220 C   0  0  0  0  0  0  0  0  0  0  0  0
  -26.8150  -13.1860   20.5690 N   0  0  0  0  0  0  0  0  0  0  0  0
  -26.3660  -11.9210   20.7700 N   0  0  0  0  0  0  0  0  0  0  0  0
  -24.2470  -10.7950   21.0040 C   0  0  0  0  0  0  0  0  0  0  0  0
  -24.5680   -9.7570   21.9050 C   0  0  0  0  0  3  0  0  0  0  0  0
  -23.7660   -8.5960   21.9780 C   0  0  0  0  0  3  0  0  0  0  0  0
  -22.6250   -8.4720   21.1490 C   0  0  0  0  0  0  0  0  0  0  0  0
  -22.3230   -9.4990   20.2360 C   0  0  0  0  0  3  0  0  0  0  0  0
  -23.1290  -10.6480   20.1620 C   0  0  0  0  0  3  0  0  0  0  0  0
  -21.7990   -7.3740   21.1360 O   0  0  0  0  0  0  0  0  0  0  0  0
  -21.6730   -6.5520   22.2260 C   0  0  0  0  0  0  0  0  0  0  0  0
  -21.2360   -7.0370   23.4810 C   0  0  0  0  0  3  0  0  0  0  0  0
  -21.0600   -6.1440   24.5570 C   0  0  0  0  0  3  0  0  0  0  0  0
  -21.3060   -4.7690   24.3810 C   0  0  0  0  0  0  0  0  0  0  0  0
  -21.7320   -4.2840   23.1320 C   0  0  0  0  0  3  0  0  0  0  0  0
  -21.9140   -5.1720   22.0580 C   0  0  0  0  0  0  0  0  0  0  0  0
  -22.3040   -4.6970   20.8510 F   0  0  0  0  0  0  0  0  0  0  0  0
  -21.1280   -3.9120   25.4110 F   0  0  0  0  0  0  0  0  0  0  0  0
  -23.2610  -13.9410   21.0340 C   0  0  0  0  0  0  0  0  0  0  0  0
  -22.4050  -13.2810   21.8090 N   0  0  0  0  0  0  0  0  0  0  0  0
  -22.9360  -14.9840   20.4740 O   0  0  0  0  0  0  0  0  0  0  0  0
  -22.6820  -12.4350   22.2820 H   0  0  0  0  0  0  0  0  0  0  0  0
  -21.4630  -13.6280   21.9240 H   0  0  0  0  0  0  0  0  0  0  0  0
  -26.0370  -15.4810   20.5460 N   0  0  0  0  0  0  0  0  0  0  0  0
  -25.2790  -16.1580   20.5560 H   0  0  0  0  0  0  0  0  0  0  0  0
  -26.9260  -15.8950   20.2930 H   0  0  0  0  0  0  0  0  0  0  0  0
  -32.7460  -18.1360   19.7800 C   0  0  0  0  0  1  0  0  0  0  0  0
  -31.4550  -17.5080   19.2270 C   0  0  0  0  0  3  0  0  0  0  0  0
  -30.5830  -15.5740   17.7040 C   0  0  0  0  0  1  0  0  0  0  0  0
  -31.7910  -16.3330   18.2740 C   0  0  0  0  0  2  0  0  0  0  0  0
  -29.2300  -22.4310   19.9040 C   0  0  0  0  0  2  0  0  0  0  0  0
  -28.3070  -23.7700   19.9920 C   0  0  0  0  0  2  0  0  0  0  0  0
  -28.2250  -25.1380   22.2060 C   0  0  0  0  0  1  0  0  0  0  0  0
  -28.7090  -25.1330   20.7450 C   0  0  0  0  0  3  0  0  0  0  0  0
  -28.4930  -26.4890   20.1420 O   0  0  0  0  0  0  0  0  0  0  0  0
  -24.5090  -31.7320   23.1950 C   0  0  0  0  0  0  0  0  0  0  0  0
  -27.3070  -27.2450   20.1900 C   0  0  0  0  0  0  0  0  0  0  0  0
  -23.3850  -30.3520   21.4800 C   0  0  0  0  0  3  0  0  0  0  0  0
  -24.9110  -28.8260   20.0970 C   0  0  0  0  0  0  0  0  0  0  0  0
  -25.9220  -30.6980   21.3980 C   0  0  0  0  0  2  0  0  0  0  0  0
  -26.0450  -29.3240   20.7490 C   0  0  0  0  0  0  0  0  0  0  0  0
  -27.2410  -28.5470   20.7830 C   0  0  0  0  0  3  0  0  0  0  0  0
  -26.1530  -26.7930   19.5200 C   0  0  0  0  0  3  0  0  0  0  0  0
  -24.9670  -27.5650   19.4750 C   0  0  0  0  0  3  0  0  0  0  0  0
  -23.6590  -29.6860   20.1040 C   0  0  0  0  0  2  0  0  0  0  0  0
  -24.6230  -30.9440   22.0830 N   0  0  0  0  0  0  0  0  0  0  0  0
  -23.4030  -31.9920   23.6910 O   0  0  0  0  0  0  0  0  0  0  0  0
  -22.6890  -29.3200   22.4000 C   0  0  0  0  0  0  0  0  0  0  0  0
  -21.3650  -29.1580   22.2360 N   0  0  0  0  0  0  0  0  0  0  0  0
  -23.3420  -28.6660   23.2170 O   0  0  0  0  0  0  0  0  0  0  0  0
  -20.9020  -29.7310   21.5430 H   0  0  0  0  0  0  0  0  0  0  0  0
  -17.9620  -28.0050   22.6390 C   0  0  0  0  0  0  0  0  0  0  0  0
  -20.5190  -28.2080   22.9580 C   0  0  0  0  0  3  0  0  0  0  0  0
  -20.6070  -26.8010   22.3230 C   0  0  0  0  0  2  0  0  0  0  0  0
  -19.5160  -26.5410   21.2820 C   0  0  0  0  0  2  0  0  0  0  0  0
  -18.1270  -26.6830   21.9090 C   0  0  0  0  0  2  0  0  0  0  0  0
  -19.0850  -28.7300   23.1150 C   0  0  0  0  0  0  0  0  0  0  0  0
  -18.8770  -29.9710   23.7560 C   0  0  0  0  0  3  0  0  0  0  0  0
  -17.5780  -30.4880   23.9230 C   0  0  0  0  0  3  0  0  0  0  0  0
  -16.4690  -29.7570   23.4650 C   0  0  0  0  0  3  0  0  0  0  0  0
  -16.6610  -28.5170   22.8290 C   0  0  0  0  0  3  0  0  0  0  0  0
  -25.7610  -32.3610   23.8810 C   0  0  0  0  0  3  0  0  0  0  0  0
  -26.1910  -31.6050   25.1980 C   0  0  1  0  0  0  0  0  0  0  0  0
  -25.0320  -31.3990   26.2040 C   0  0  0  0  0  1  0  0  0  0  0  0
  -26.7730  -30.2130   24.8610 C   0  0  0  0  0  1  0  0  0  0  0  0
  -27.3200  -32.3890   25.9100 C   0  0  0  0  0  1  0  0  0  0  0  0
  -25.4500  -33.7670   24.1730 N   0  0  0  0  0  0  0  0  0  0  0  0
  -25.8360  -34.8040   23.4180 C   0  0  0  0  0  0  0  0  0  0  0  0
  -26.5560  -34.6740   22.4240 O   0  0  0  0  0  0  0  0  0  0  0  0
  -24.8170  -33.9420   24.9390 H   0  0  0  0  0  0  0  0  0  0  0  0
  -24.1310  -36.5990   22.9720 C   0  0  0  0  0  1  0  0  0  0  0  0
  -25.3440  -36.2070   23.8300 C   0  0  0  0  0  3  0  0  0  0  0  0
  -27.4540  -37.1000   24.7070 C   0  0  0  0  0  1  0  0  0  0  0  0
  -26.3860  -37.2510   23.7240 N   0  0  0  0  0  0  0  0  0  0  0  0
  -25.9820  -38.1770   23.8340 H   0  0  0  0  0  0  0  0  0  0  0  0
  -30.1450  -21.5940   22.1580 C   0  0  0  0  0  2  0  0  0  0  0  0
  -31.6470  -21.2800   21.9480 C   0  0  0  0  0  2  0  0  0  0  0  0
  -33.7630  -20.6180   23.2060 C   0  0  0  0  0  1  0  0  0  0  0  0
  -32.4800  -21.4600   23.2230 C   0  0  0  0  0  2  0  0  0  0  0  0
  1 49  1  0
  1 94  1  0
  2  4  2  0
  3  1  1  0
  3  2  1  0
  5  3  1  0
  6 15  2  0
  6  2  1  0
  8 13  1  0
  9 10  1  0
  9  8  1  0
 11 10  1  0
 11 20  1  0
 11 12  1  0
 13  7  1  0
 13 12  1  0
 14  7  2  0
 15  7  1  0
 15 16  1  0
 17 18  2  0
 18 37  1  0
 19 18  1  0
 19 22  1  0
 20 17  1  0
 20 21  1  0
 21 19  2  0
 22 23  1  0
 23 24  2  0
 25 24  1  0
 26 25  2  0
 27 26  1  0
 27 22  2  0
 28 25  1  0
 28 29  1  0
 29 30  1  0
 30 31  2  0
 32 31  1  0
 32 36  1  0
 33 32  2  0
 34 29  2  0
 34 33  1  0
 35 34  1  0
 37 38  1  0
 38 41  1  0
 38 40  1  0
 39 37  2  0
 42 43  1  0
 42 17  1  0
 44 42  1  0
 46 45  1  0
 46  6  1  0
 47 48  1  0
 48 46  1  0
 49 50  1  0
 50 52  1  0
 52 51  1  0
 53 55  1  0
 53 52  1  0
 54 65  2  0
 55 60  1  0
 56 64  1  0
 56 66  1  0
 57 63  1  0
 57 59  1  0
 58 64  1  0
 59 60  2  0
 59 58  1  0
 61 55  2  0
 62 61  1  0
 62 57  2  0
 63 56  1  0
 64 54  1  0
 66 68  2  0
 67 66  1  0
 69 67  1  0
 70 79  2  0
 70 75  1  0
 71 67  1  0
 71 75  1  0
 72 71  1  0
 73 74  1  0
 73 72  1  0
 74 70  1  0
 75 76  2  0
 76 77  1  0
 78 77  2  0
 79 78  1  0
 80 54  1  0
 80 85  1  0
 80 81  1  0
 81 84  1  1
 81 82  1  0
 83 81  1  0
 85 88  1  0
 86 90  1  0
 86 85  1  0
 87 86  2  0
 90 89  1  0
 92 90  1  0
 92 93  1  0
 92 91  1  0
 95 94  1  0
 95 97  1  0
 96 97  1  0
M  ISO  4   7 100  15 100  52 101  53 101
M  END
>  <TORSDO>  (59) 
F 26

>  <SCORE>  (59) 
-9.919

>  <name>  (59) 
61

>  <ligand_id>  (59) 
61

>  <original_smiles>  (59) 
[H]c1c([H])c([H])c2c(c1[H])C([H])([H])C([H])([H])C([H])([H])C2([H])N([H])C(=O)C1([H])N(C(=O)C([H])(N([H])C(=O)C([H])(N([H])C([H])([H])[H])C([H])([H])[H])C(C([H])([H])[H])(C([H])([H])[H])C([H])([H])[H])C([H])([H])c2c([H])c(OC([H])(C([H])([H])[H])C([H])([H])C([H])([H])C([H])(N([H])C(=O)C([H])(N([H])C(=O)N3C([H])([H])C([H])([H])C([H])([H])C([H])(n4nc(-c5c([H])c([H])c(Oc6c([H])c([H])c(F)c([H])c6F)c([H])c5[H])c(C(=O)N([H])[H])c4N([H])[H])C3([H])[H])C([H])(C([H])([H])[H])C([H])([H])C([H])([H])[H])C([H])([H])C([H])([H])C([H])([H])C([H])([H])[H])c([H])c([H])c2C1([H])[H]

>  <smiles>  (59) 
[H]c1c([H])c([H])c2c(c1[H])C([H])([H])C([H])([H])C([H])([H])C2([H])N([H])C(=O)C1([H])N(C(=O)C([H])(N([H])C(=O)C([H])(N([H])C([H])([H])[H])C([H])([H])[H])C(C([H])([H])[H])(C([H])([H])[H])C([H])([H])[H])C([H])([H])c2c([H])c(OC([H])(C([H])([H])[H])C([H])([H])C([H])([H])C([H])(N([H])C(=O)C([H])(N([H])C(=O)N3C([H])([H])C([H])([H])C([H])([H])C([H])(n4nc(-c5c([H])c([H])c(Oc6c([H])c([H])c(F)c([H])c6F)c([H])c5[H])c(C(=O)N([H])[H])c4N([H])[H])C3([H])[H])C([H])(C([H])([H])[H])C([H])([H])C([H])([H])[H])C([H])([H])C([H])([H])C([H])([H])C([H])([H])[H])c([H])c([H])c2C1([H])[H]

$$$$
62:0:0
     RDKit          3D

 96103  0  0  1  0  0  0  0  0999 V2000
  -28.8040  -21.3390   20.3450 C   0  0  0  0  0  3  0  0  0  0  0  0
  -27.4800  -20.9470   20.8560 N   0  0  0  0  0  4  0  0  0  0  0  0
  -26.8380  -20.7850   20.0990 H   0  0  0  0  0  0  0  0  0  0  0  0
  -27.1050  -21.6750   21.4400 H   0  0  0  0  0  0  0  0  0  0  0  0
  -27.5460  -20.1100   21.4070 H   0  0  0  0  0  0  0  0  0  0  0  0
  -30.8020  -20.4970   18.9380 C   0  0  0  0  0  1  0  0  0  0  0  0
  -29.4150  -20.1100   19.4920 C   0  0  0  0  0  3  0  0  0  0  0  0
  -29.3260  -18.6200   20.1410 C   0  0  0  0  0  2  0  0  0  0  0  0
  -30.4680  -17.4800   20.0090 C   0  0  0  0  0  3  0  0  0  0  0  0
  -30.7790  -14.9100   19.8800 C   0  0  0  0  0  0  0  0  0  0  0  0
  -30.6190  -12.5430   19.1380 C   0  0  0  0  0  2  0  0  0  0  0  0
  -29.6600  -12.4490   17.9330 C   0  0  0  0  0  2  0  0  0  0  0  0
  -28.2050  -12.2830   18.4120 C   0  0  0  0  0  2  0  0  0  0  0  0
  -27.8200  -13.3000   19.5170 C   0  0  0  0  0  3  0  0  0  0  0  0
  -28.8960  -13.3790   20.6210 C   0  0  0  0  0  2  0  0  0  0  0  0
  -30.1740  -13.6840   19.9670 N   0  0  0  0  0  0  0  0  0  0  0  0
  -31.9400  -15.0110   19.4750 O   0  0  0  0  0  0  0  0  0  0  0  0
  -30.0110  -16.0340   20.0820 N   0  0  0  0  0  0  0  0  0  0  0  0
  -29.0540  -15.8710   20.3560 H   0  0  0  0  0  0  0  0  0  0  0  0
  -25.4750  -13.9140   20.3660 C   0  0  0  0  0  0  0  0  0  0  0  0
  -24.4170  -13.1460   20.7750 C   0  0  0  0  0  0  0  0  0  0  0  0
  -24.8610  -11.7910   20.7010 C   0  0  0  0  0  0  0  0  0  0  0  0
  -26.4940  -13.0250   20.0670 N   0  0  0  0  0  0  0  0  0  0  0  0
  -26.1350  -11.7420   20.3310 N   0  0  0  0  0  0  0  0  0  0  0  0
  -24.1290  -10.5340   20.9060 C   0  0  0  0  0  0  0  0  0  0  0  0
  -24.5600   -9.5730   21.8480 C   0  0  0  0  0  3  0  0  0  0  0  0
  -23.8290   -8.3820   22.0410 C   0  0  0  0  0  3  0  0  0  0  0  0
  -22.6540   -8.1400   21.2900 C   0  0  0  0  0  0  0  0  0  0  0  0
  -22.2410   -9.0880   20.3380 C   0  0  0  0  0  3  0  0  0  0  0  0
  -22.9720  -10.2730   20.1440 C   0  0  0  0  0  3  0  0  0  0  0  0
  -21.8950   -7.0000   21.3930 O   0  0  0  0  0  0  0  0  0  0  0  0
  -21.7980   -6.3030   22.5700 C   0  0  0  0  0  0  0  0  0  0  0  0
  -21.3130   -6.9020   23.7540 C   0  0  0  0  0  3  0  0  0  0  0  0
  -21.1640   -6.1320   24.9230 C   0  0  0  0  0  3  0  0  0  0  0  0
  -21.4880   -4.7610   24.9100 C   0  0  0  0  0  0  0  0  0  0  0  0
  -21.9640   -4.1610   23.7320 C   0  0  0  0  0  3  0  0  0  0  0  0
  -22.1150   -4.9300   22.5640 C   0  0  0  0  0  0  0  0  0  0  0  0
  -22.5540   -4.3420   21.4250 F   0  0  0  0  0  0  0  0  0  0  0  0
  -21.3360   -4.0190   26.0320 F   0  0  0  0  0  0  0  0  0  0  0  0
  -23.0410  -13.6360   21.1180 C   0  0  0  0  0  0  0  0  0  0  0  0
  -22.3490  -12.9380   22.0130 N   0  0  0  0  0  0  0  0  0  0  0  0
  -22.5900  -14.6700   20.6300 O   0  0  0  0  0  0  0  0  0  0  0  0
  -22.7280  -12.1010   22.4300 H   0  0  0  0  0  0  0  0  0  0  0  0
  -21.4260  -13.2460   22.2850 H   0  0  0  0  0  0  0  0  0  0  0  0
  -25.6480  -15.2840   20.1990 N   0  0  0  0  0  0  0  0  0  0  0  0
  -24.8910  -15.9440   20.3430 H   0  0  0  0  0  0  0  0  0  0  0  0
  -26.4730  -15.7110   19.7980 H   0  0  0  0  0  0  0  0  0  0  0  0
  -31.1500  -17.1990   22.4980 C   0  0  0  0  0  1  0  0  0  0  0  0
  -31.5930  -17.6490   21.0870 C   0  0  0  0  0  3  0  0  0  0  0  0
  -33.4240  -19.1920   22.0650 C   0  0  0  0  0  1  0  0  0  0  0  0
  -32.2310  -19.0510   21.1100 C   0  0  0  0  0  2  0  0  0  0  0  0
  -28.6830  -22.7900   19.6490 C   0  0  0  0  0  2  0  0  0  0  0  0
  -27.0910  -24.0420   21.3290 C   0  0  0  0  0  1  0  0  0  0  0  0
  -28.3830  -24.1260   20.4970 C   0  0  0  0  0  3  0  0  0  0  0  0
  -28.3560  -25.4810   19.6550 C   0  0  0  0  0  2  0  0  0  0  0  0
  -28.2200  -26.7810   20.3510 O   0  0  0  0  0  0  0  0  0  0  0  0
  -24.4910  -32.1030   23.4510 C   0  0  0  0  0  0  0  0  0  0  0  0
  -27.0600  -27.5690   20.3210 C   0  0  0  0  0  0  0  0  0  0  0  0
  -23.2620  -30.7180   21.8160 C   0  0  0  0  0  3  0  0  0  0  0  0
  -24.6890  -29.1700   20.3650 C   0  0  0  0  0  0  0  0  0  0  0  0
  -25.7970  -31.0360   21.6010 C   0  0  0  0  0  2  0  0  0  0  0  0
  -25.8640  -29.6600   20.9470 C   0  0  0  0  0  0  0  0  0  0  0  0
  -27.0480  -28.8680   20.9160 C   0  0  0  0  0  3  0  0  0  0  0  0
  -25.8530  -27.1220   19.7350 C   0  0  0  0  0  3  0  0  0  0  0  0
  -24.6840  -27.9060   19.7580 C   0  0  0  0  0  3  0  0  0  0  0  0
  -23.4560  -30.0500   20.4290 C   0  0  0  0  0  2  0  0  0  0  0  0
  -24.5360  -31.3030   22.3460 N   0  0  0  0  0  0  0  0  0  0  0  0
  -23.4160  -32.3780   24.0040 O   0  0  0  0  0  0  0  0  0  0  0  0
  -22.6070  -29.6970   22.7760 C   0  0  0  0  0  0  0  0  0  0  0  0
  -21.2910  -29.4810   22.6190 N   0  0  0  0  0  0  0  0  0  0  0  0
  -23.2850  -29.1010   23.6170 O   0  0  0  0  0  0  0  0  0  0  0  0
  -20.8030  -30.0170   21.9170 H   0  0  0  0  0  0  0  0  0  0  0  0
  -17.9540  -28.1390   23.0030 C   0  0  0  0  0  0  0  0  0  0  0  0
  -20.4800  -28.5320   23.3830 C   0  0  0  0  0  3  0  0  0  0  0  0
  -20.6790  -27.0870   22.8690 C   0  0  0  0  0  2  0  0  0  0  0  0
  -19.6440  -26.6750   21.8160 C   0  0  0  0  0  2  0  0  0  0  0  0
  -18.2280  -26.7750   22.3880 C   0  0  0  0  0  2  0  0  0  0  0  0
  -19.0140  -28.9690   23.4560 C   0  0  0  0  0  0  0  0  0  0  0  0
  -18.7080  -30.2400   23.9890 C   0  0  0  0  0  3  0  0  0  0  0  0
  -17.3750  -30.6840   24.0750 C   0  0  0  0  0  3  0  0  0  0  0  0
  -16.3290  -29.8500   23.6400 C   0  0  0  0  0  3  0  0  0  0  0  0
  -16.6180  -28.5820   23.1080 C   0  0  0  0  0  3  0  0  0  0  0  0
  -25.7840  -32.7280   24.0610 C   0  0  0  0  0  3  0  0  0  0  0  0
  -26.2770  -31.9860   25.3660 C   0  0  1  0  0  0  0  0  0  0  0  0
  -25.1680  -31.7870   26.4260 C   0  0  0  0  0  1  0  0  0  0  0  0
  -26.8500  -30.5930   25.0170 C   0  0  0  0  0  1  0  0  0  0  0  0
  -27.4230  -32.7890   26.0220 C   0  0  0  0  0  1  0  0  0  0  0  0
  -25.5020  -34.1420   24.3440 N   0  0  0  0  0  0  0  0  0  0  0  0
  -25.8520  -35.1610   23.5500 C   0  0  0  0  0  0  0  0  0  0  0  0
  -26.5160  -35.0110   22.5210 O   0  0  0  0  0  0  0  0  0  0  0  0
  -24.9120  -34.3340   25.1410 H   0  0  0  0  0  0  0  0  0  0  0  0
  -24.1530  -36.9740   23.1560 C   0  0  0  0  0  1  0  0  0  0  0  0
  -25.3950  -36.5730   23.9660 C   0  0  0  0  0  3  0  0  0  0  0  0
  -27.5550  -37.4480   24.7420 C   0  0  0  0  0  1  0  0  0  0  0  0
  -26.4450  -37.6030   23.8050 N   0  0  0  0  0  0  0  0  0  0  0  0
  -26.0570  -38.5330   23.9280 H   0  0  0  0  0  0  0  0  0  0  0  0
  1 52  1  0
  1  2  1  0
  2  5  1  0
  2  4  1  0
  3  2  1  0
  7  6  1  0
  7  8  1  0
  7  1  1  0
  9 18  1  0
  9  8  1  0
  9 49  1  0
 10 16  1  0
 10 18  1  0
 11 16  1  0
 12 13  1  0
 12 11  1  0
 14 13  1  0
 14 23  1  0
 14 15  1  0
 16 15  1  0
 17 10  2  0
 18 19  1  0
 20 21  2  0
 21 40  1  0
 22 21  1  0
 22 25  1  0
 23 24  1  0
 23 20  1  0
 24 22  2  0
 25 26  1  0
 26 27  2  0
 28 31  1  0
 28 27  1  0
 29 28  2  0
 30 29  1  0
 30 25  2  0
 31 32  1  0
 32 33  1  0
 33 34  2  0
 35 34  1  0
 35 39  1  0
 36 35  2  0
 37 32  2  0
 37 36  1  0
 38 37  1  0
 40 41  1  0
 41 44  1  0
 41 43  1  0
 42 40  2  0
 45 46  1  0
 45 20  1  0
 47 45  1  0
 49 51  1  0
 49 48  1  0
 51 50  1  0
 52 54  1  0
 54 53  1  0
 55 56  1  0
 55 54  1  0
 57 68  2  0
 58 56  1  0
 58 63  1  0
 59 67  1  0
 59 69  1  0
 60 66  1  0
 60 62  1  0
 61 67  1  0
 62 61  1  0
 63 62  2  0
 64 65  1  0
 64 58  2  0
 65 60  2  0
 66 59  1  0
 67 57  1  0
 69 71  2  0
 70 69  1  0
 72 70  1  0
 73 82  2  0
 73 78  1  0
 74 70  1  0
 74 78  1  0
 75 74  1  0
 76 77  1  0
 76 75  1  0
 77 73  1  0
 78 79  2  0
 79 80  1  0
 81 80  2  0
 82 81  1  0
 83 57  1  0
 83 88  1  0
 83 84  1  0
 84 87  1  1
 84 85  1  0
 86 84  1  0
 88 91  1  0
 89 93  1  0
 89 88  1  0
 90 89  2  0
 93 92  1  0
 95 96  1  0
 95 93  1  0
 95 94  1  0
M  ISO  4  10 100  18 100  55 101  56 101
M  END
>  <TORSDO>  (60) 
F 25

>  <SCORE>  (60) 
-11.553

>  <name>  (60) 
62

>  <ligand_id>  (60) 
62

>  <original_smiles>  (60) 
[H]c1c([H])c([H])c2c(c1[H])C([H])([H])C([H])([H])C([H])([H])C2([H])N([H])C(=O)C1([H])N(C(=O)C([H])(N([H])C(=O)C([H])(N([H])C([H])([H])[H])C([H])([H])[H])C(C([H])([H])[H])(C([H])([H])[H])C([H])([H])[H])C([H])([H])c2c([H])c(OC([H])([H])C([H])(C([H])([H])[H])C([H])([H])C([H])(C([H])(C([H])([H])[H])C([H])([H])C([H])(N([H])C(=O)N3C([H])([H])C([H])([H])C([H])([H])C([H])(n4nc(-c5c([H])c([H])c(Oc6c([H])c([H])c(F)c([H])c6F)c([H])c5[H])c(C(=O)N([H])[H])c4N([H])[H])C3([H])[H])C([H])(C([H])([H])[H])C([H])([H])C([H])([H])[H])[N+]([H])([H])[H])c([H])c([H])c2C1([H])[H]

>  <smiles>  (60) 
[H]c1c([H])c([H])c2c(c1[H])C([H])([H])C([H])([H])C([H])([H])C2([H])N([H])C(=O)C1([H])N(C(=O)C([H])(N([H])C(=O)C([H])(N([H])C([H])([H])[H])C([H])([H])[H])C(C([H])([H])[H])(C([H])([H])[H])C([H])([H])[H])C([H])([H])c2c([H])c(OC([H])([H])C([H])(C([H])([H])[H])C([H])([H])C([H])(C([H])(C([H])([H])[H])C([H])([H])C([H])(N([H])C(=O)N3C([H])([H])C([H])([H])C([H])([H])C([H])(n4nc(-c5c([H])c([H])c(Oc6c([H])c([H])c(F)c([H])c6F)c([H])c5[H])c(C(=O)N([H])[H])c4N([H])[H])C3([H])[H])C([H])(C([H])([H])[H])C([H])([H])C([H])([H])[H])[N+]([H])([H])[H])c([H])c([H])c2C1([H])[H]

$$$$
63:0:0
     RDKit          3D

 89 96  0  0  1  0  0  0  0  0999 V2000
  -28.7110  -22.9640   20.6430 C   0  0  0  0  0  3  0  0  0  0  0  0
  -27.9030  -22.7780   21.8650 N   0  0  0  0  0  4  0  0  0  0  0  0
  -26.9590  -22.5120   21.6420 H   0  0  0  0  0  0  0  0  0  0  0  0
  -27.8650  -23.6350   22.3940 H   0  0  0  0  0  0  0  0  0  0  0  0
  -28.2980  -22.0710   22.4590 H   0  0  0  0  0  0  0  0  0  0  0  0
  -28.9560  -21.3610   19.9460 C   0  0  0  0  0  2  0  0  0  0  0  0
  -30.4680  -20.0760   21.6950 C   0  0  0  0  0  1  0  0  0  0  0  0
  -29.3460  -19.8090   20.6850 C   0  0  0  0  0  3  0  0  0  0  0  0
  -28.8910  -18.1460   18.6770 C   0  0  0  0  0  1  0  0  0  0  0  0
  -29.7300  -18.2530   19.9560 C   0  0  0  0  0  3  0  0  0  0  0  0
  -29.7480  -16.6520   20.6820 C   0  0  0  0  0  2  0  0  0  0  0  0
  -30.4840  -15.1660   20.2230 C   0  0  0  0  0  0  0  0  0  0  0  0
  -30.4040  -12.7630   19.2960 C   0  0  0  0  0  2  0  0  0  0  0  0
  -29.4640  -12.6720   18.0680 C   0  0  0  0  0  2  0  0  0  0  0  0
  -28.0090  -12.4360   18.5110 C   0  0  0  0  0  2  0  0  0  0  0  0
  -27.6000  -13.3670   19.6800 C   0  0  0  0  0  3  0  0  0  0  0  0
  -28.6630  -13.4170   20.7990 C   0  0  0  0  0  2  0  0  0  0  0  0
  -29.9210  -13.8710   20.1890 N   0  0  0  0  0  0  0  0  0  0  0  0
  -31.6640  -15.1960   19.8480 O   0  0  0  0  0  0  0  0  0  0  0  0
  -25.2300  -13.9400   20.4410 C   0  0  0  0  0  0  0  0  0  0  0  0
  -24.1680  -13.1650   20.8200 C   0  0  0  0  0  0  0  0  0  0  0  0
  -24.6330  -11.8140   20.7920 C   0  0  0  0  0  0  0  0  0  0  0  0
  -26.2700  -13.0610   20.1930 N   0  0  0  0  0  0  0  0  0  0  0  0
  -25.9230  -11.7770   20.4720 N   0  0  0  0  0  0  0  0  0  0  0  0
  -23.9050  -10.5530   20.9920 C   0  0  0  0  0  0  0  0  0  0  0  0
  -24.3440   -9.5850   21.9220 C   0  0  0  0  0  3  0  0  0  0  0  0
  -23.6140   -8.3910   22.1120 C   0  0  0  0  0  3  0  0  0  0  0  0
  -22.4300   -8.1570   21.3710 C   0  0  0  0  0  0  0  0  0  0  0  0
  -22.0100   -9.1140   20.4320 C   0  0  0  0  0  3  0  0  0  0  0  0
  -22.7400  -10.2990   20.2400 C   0  0  0  0  0  3  0  0  0  0  0  0
  -21.6730   -7.0150   21.4710 O   0  0  0  0  0  0  0  0  0  0  0  0
  -21.6420   -6.2690   22.6220 C   0  0  0  0  0  0  0  0  0  0  0  0
  -21.2490   -6.8230   23.8590 C   0  0  0  0  0  3  0  0  0  0  0  0
  -21.1640   -6.0040   25.0020 C   0  0  0  0  0  3  0  0  0  0  0  0
  -21.4620   -4.6310   24.9090 C   0  0  0  0  0  0  0  0  0  0  0  0
  -21.8490   -4.0770   23.6760 C   0  0  0  0  0  3  0  0  0  0  0  0
  -21.9340   -4.8920   22.5350 C   0  0  0  0  0  0  0  0  0  0  0  0
  -22.2870   -4.3490   21.3460 F   0  0  0  0  0  0  0  0  0  0  0  0
  -21.3740   -3.8420   26.0060 F   0  0  0  0  0  0  0  0  0  0  0  0
  -22.7740  -13.6450   21.0960 C   0  0  0  0  0  0  0  0  0  0  0  0
  -22.0500  -12.9560   21.9720 N   0  0  0  0  0  0  0  0  0  0  0  0
  -22.3340  -14.6670   20.5710 O   0  0  0  0  0  0  0  0  0  0  0  0
  -22.4190  -12.1290   22.4180 H   0  0  0  0  0  0  0  0  0  0  0  0
  -21.1140  -13.2600   22.2000 H   0  0  0  0  0  0  0  0  0  0  0  0
  -25.3930  -15.3090   20.2590 N   0  0  0  0  0  0  0  0  0  0  0  0
  -24.6290  -15.9650   20.3780 H   0  0  0  0  0  0  0  0  0  0  0  0
  -26.2430  -15.7480   19.9290 H   0  0  0  0  0  0  0  0  0  0  0  0
  -28.1240  -24.4490   19.9030 C   0  0  0  0  0  2  0  0  0  0  0  0
  -28.2130  -26.0060   20.3280 O   0  0  0  0  0  0  0  0  0  0  0  0
  -24.6360  -31.8750   23.2330 C   0  0  0  0  0  0  0  0  0  0  0  0
  -27.1820  -27.0520   20.2150 C   0  0  0  0  0  0  0  0  0  0  0  0
  -23.4320  -30.4770   21.6020 C   0  0  0  0  0  3  0  0  0  0  0  0
  -24.8730  -28.8810   20.1750 C   0  0  0  0  0  0  0  0  0  0  0  0
  -25.9920  -30.7050   21.4420 C   0  0  0  0  0  2  0  0  0  0  0  0
  -26.0570  -29.3010   20.7910 C   0  0  0  0  0  0  0  0  0  0  0  0
  -27.2050  -28.4030   20.7950 C   0  0  0  0  0  3  0  0  0  0  0  0
  -25.9730  -26.7710   19.5390 C   0  0  0  0  0  3  0  0  0  0  0  0
  -24.8510  -27.6350   19.5290 C   0  0  0  0  0  3  0  0  0  0  0  0
  -23.6510  -29.7930   20.2250 C   0  0  0  0  0  2  0  0  0  0  0  0
  -24.7070  -31.0440   22.1460 N   0  0  0  0  0  0  0  0  0  0  0  0
  -23.5500  -32.1670   23.7600 O   0  0  0  0  0  0  0  0  0  0  0  0
  -22.7450  -29.4800   22.5710 C   0  0  0  0  0  0  0  0  0  0  0  0
  -21.4160  -29.3120   22.4480 N   0  0  0  0  0  0  0  0  0  0  0  0
  -23.4140  -28.8590   23.4000 O   0  0  0  0  0  0  0  0  0  0  0  0
  -20.9300  -29.8640   21.7540 H   0  0  0  0  0  0  0  0  0  0  0  0
  -18.0380  -28.0950   22.9480 C   0  0  0  0  0  0  0  0  0  0  0  0
  -20.5940  -28.3790   23.2240 C   0  0  0  0  0  3  0  0  0  0  0  0
  -20.7080  -26.9410   22.6670 C   0  0  0  0  0  2  0  0  0  0  0  0
  -19.6130  -26.6010   21.6490 C   0  0  0  0  0  2  0  0  0  0  0  0
  -18.2270  -26.7420   22.2840 C   0  0  0  0  0  2  0  0  0  0  0  0
  -19.1480  -28.8710   23.3750 C   0  0  0  0  0  0  0  0  0  0  0  0
  -18.9160  -30.1350   23.9570 C   0  0  0  0  0  3  0  0  0  0  0  0
  -17.6060  -30.6260   24.1150 C   0  0  0  0  0  3  0  0  0  0  0  0
  -16.5100  -29.8490   23.7030 C   0  0  0  0  0  3  0  0  0  0  0  0
  -16.7270  -28.5850   23.1260 C   0  0  0  0  0  3  0  0  0  0  0  0
  -25.9140  -32.5130   23.8570 C   0  0  0  0  0  3  0  0  0  0  0  0
  -26.4250  -31.7490   25.1410 C   0  0  1  0  0  0  0  0  0  0  0  0
  -25.3290  -31.5230   26.2100 C   0  0  0  0  0  1  0  0  0  0  0  0
  -27.0030  -30.3660   24.7650 C   0  0  0  0  0  1  0  0  0  0  0  0
  -27.5780  -32.5430   25.7980 C   0  0  0  0  0  1  0  0  0  0  0  0
  -25.6010  -33.9130   24.1910 N   0  0  0  0  0  0  0  0  0  0  0  0
  -25.9290  -34.9730   23.4380 C   0  0  0  0  0  0  0  0  0  0  0  0
  -26.5900  -34.8730   22.4010 O   0  0  0  0  0  0  0  0  0  0  0  0
  -25.0100  -34.0640   24.9950 H   0  0  0  0  0  0  0  0  0  0  0  0
  -24.1950  -36.7720   23.1200 C   0  0  0  0  0  1  0  0  0  0  0  0
  -25.4500  -36.3620   23.9080 C   0  0  0  0  0  3  0  0  0  0  0  0
  -27.5980  -37.2460   24.7070 C   0  0  0  0  0  1  0  0  0  0  0  0
  -26.4810  -37.4150   23.7820 N   0  0  0  0  0  0  0  0  0  0  0  0
  -26.0760  -38.3350   23.9370 H   0  0  0  0  0  0  0  0  0  0  0  0
  1 48  1  0
  1  2  1  0
  2  4  1  0
  2  5  1  0
  3  2  1  0
  6  1  1  0
  6  8  1  0
  8  7  1  0
 10  9  1  0
 10 11  1  0
 10  8  1  0
 12 11  1  0
 13 18  1  0
 14 15  1  0
 14 13  1  0
 16 15  1  0
 16 23  1  0
 16 17  1  0
 18 12  1  0
 18 17  1  0
 19 12  2  0
 20 21  2  0
 21 40  1  0
 22 21  1  0
 22 25  1  0
 23 20  1  0
 23 24  1  0
 24 22  2  0
 25 26  1  0
 26 27  2  0
 28 31  1  0
 28 27  1  0
 29 28  2  0
 30 29  1  0
 30 25  2  0
 31 32  1  0
 32 33  1  0
 33 34  2  0
 35 34  1  0
 35 39  1  0
 36 35  2  0
 37 32  2  0
 37 36  1  0
 38 37  1  0
 40 41  1  0
 41 44  1  0
 41 43  1  0
 42 40  2  0
 45 46  1  0
 45 20  1  0
 47 45  1  0
 48 49  1  0
 50 61  2  0
 51 49  1  0
 51 56  1  0
 52 60  1  0
 52 62  1  0
 53 59  1  0
 53 55  1  0
 54 60  1  0
 55 56  2  0
 55 54  1  0
 57 51  2  0
 58 57  1  0
 58 53  2  0
 59 52  1  0
 60 50  1  0
 62 64  2  0
 63 62  1  0
 65 63  1  0
 66 75  2  0
 66 71  1  0
 67 63  1  0
 67 71  1  0
 68 67  1  0
 69 70  1  0
 69 68  1  0
 70 66  1  0
 71 72  2  0
 72 73  1  0
 74 73  2  0
 75 74  1  0
 76 50  1  0
 76 81  1  0
 76 77  1  0
 77 80  1  1
 77 78  1  0
 79 77  1  0
 81 84  1  0
 82 86  1  0
 82 81  1  0
 83 82  2  0
 86 85  1  0
 88 86  1  0
 88 89  1  0
 88 87  1  0
M  ISO  4  11 100  12 100  48 101  49 101
M  END
>  <TORSDO>  (61) 
F 22

>  <SCORE>  (61) 
-16.319

>  <name>  (61) 
63

>  <ligand_id>  (61) 
63

>  <original_smiles>  (61) 
[H]c1c([H])c([H])c2c(c1[H])C([H])([H])C([H])([H])C([H])([H])C2([H])N([H])C(=O)C1([H])N(C(=O)C([H])(N([H])C(=O)C([H])(N([H])C([H])([H])[H])C([H])([H])[H])C(C([H])([H])[H])(C([H])([H])[H])C([H])([H])[H])C([H])([H])c2c([H])c(OC([H])([H])C([H])(C([H])([H])C([H])(C([H])([H])[H])C([H])(C([H])([H])[H])C([H])([H])C(=O)N3C([H])([H])C([H])([H])C([H])([H])C([H])(n4nc(-c5c([H])c([H])c(Oc6c([H])c([H])c(F)c([H])c6F)c([H])c5[H])c(C(=O)N([H])[H])c4N([H])[H])C3([H])[H])[N+]([H])([H])[H])c([H])c([H])c2C1([H])[H]

>  <smiles>  (61) 
[H]c1c([H])c([H])c2c(c1[H])C([H])([H])C([H])([H])C([H])([H])C2([H])N([H])C(=O)C1([H])N(C(=O)C([H])(N([H])C(=O)C([H])(N([H])C([H])([H])[H])C([H])([H])[H])C(C([H])([H])[H])(C([H])([H])[H])C([H])([H])[H])C([H])([H])c2c([H])c(OC([H])([H])C([H])(C([H])([H])C([H])(C([H])([H])[H])C([H])(C([H])([H])[H])C([H])([H])C(=O)N3C([H])([H])C([H])([H])C([H])([H])C([H])(n4nc(-c5c([H])c([H])c(Oc6c([H])c([H])c(F)c([H])c6F)c([H])c5[H])c(C(=O)N([H])[H])c4N([H])[H])C3([H])[H])[N+]([H])([H])[H])c([H])c([H])c2C1([H])[H]

$$$$
64:0:0
     RDKit          3D

103110  0  0  1  0  0  0  0  0999 V2000
  -30.8950  -18.6230   19.6520 C   0  0  0  0  0  3  0  0  0  0  0  0
  -31.6430  -18.1000   21.9810 C   0  0  0  0  0  0  0  0  0  0  0  0
  -30.6850  -18.2050   21.0400 N   0  0  0  0  0  0  0  0  0  0  0  0
  -32.8060  -18.4560   21.7870 O   0  0  0  0  0  0  0  0  0  0  0  0
  -29.7510  -17.9040   21.2820 H   0  0  0  0  0  0  0  0  0  0  0  0
  -31.2540  -17.4850   23.3400 C   0  0  0  0  0  3  0  0  0  0  0  0
  -30.8160  -15.9980   23.2170 C   0  0  0  0  0  2  0  0  0  0  0  0
  -31.9340  -15.0600   22.7080 C   0  0  0  0  0  2  0  0  0  0  0  0
  -32.5790  -12.9250   21.4980 C   0  0  0  0  0  1  0  0  0  0  0  0
  -30.3300  -13.0780   22.6140 C   0  0  0  0  0  1  0  0  0  0  0  0
  -31.4240  -13.8650   21.8760 C   0  0  0  0  0  3  0  0  0  0  0  0
  -30.2310  -18.3790   24.0860 C   0  0  0  0  0  2  0  0  0  0  0  0
  -30.2080  -18.1420   25.5460 N   0  0  0  0  0  4  0  0  0  0  0  0
  -29.9430  -17.1980   25.7690 H   0  0  0  0  0  0  0  0  0  0  0  0
  -29.5400  -18.7570   25.9770 H   0  0  0  0  0  0  0  0  0  0  0  0
  -31.1030  -18.3300   25.9630 H   0  0  0  0  0  0  0  0  0  0  0  0
  -29.9170  -19.8210   19.2170 C   0  0  0  0  0  2  0  0  0  0  0  0
  -31.4490  -21.6510   20.1540 C   0  0  0  0  0  1  0  0  0  0  0  0
  -29.9820  -21.2690   19.9010 C   0  0  0  0  0  3  0  0  0  0  0  0
  -29.1710  -22.4400   19.1470 C   0  0  0  0  0  2  0  0  0  0  0  0
  -30.6510  -24.5550   18.8650 C   0  0  0  0  0  1  0  0  0  0  0  0
  -29.3530  -24.0040   19.4900 C   0  0  0  0  0  3  0  0  0  0  0  0
  -28.1550  -24.9670   19.0520 C   0  0  0  0  0  2  0  0  0  0  0  0
  -28.2910  -26.4410   19.1900 O   0  0  0  0  0  0  0  0  0  0  0  0
  -24.5920  -31.4930   22.7680 C   0  0  0  0  0  0  0  0  0  0  0  0
  -27.1260  -27.2270   19.2570 C   0  0  0  0  0  0  0  0  0  0  0  0
  -23.3080  -30.1060   21.1760 C   0  0  0  0  0  3  0  0  0  0  0  0
  -24.6910  -28.7070   19.5380 C   0  0  0  0  0  0  0  0  0  0  0  0
  -25.7950  -30.5730   20.7700 C   0  0  0  0  0  2  0  0  0  0  0  0
  -25.8830  -29.2310   20.0500 C   0  0  0  0  0  0  0  0  0  0  0  0
  -27.1020  -28.5030   19.9020 C   0  0  0  0  0  3  0  0  0  0  0  0
  -25.9040  -26.7600   18.7160 C   0  0  0  0  0  3  0  0  0  0  0  0
  -24.7010  -27.4770   18.8610 C   0  0  0  0  0  3  0  0  0  0  0  0
  -23.4210  -29.5060   19.7490 C   0  0  0  0  0  2  0  0  0  0  0  0
  -24.5880  -30.7390   21.6280 N   0  0  0  0  0  0  0  0  0  0  0  0
  -23.5540  -31.6800   23.4160 O   0  0  0  0  0  0  0  0  0  0  0  0
  -22.7910  -29.0110   22.1410 C   0  0  0  0  0  0  0  0  0  0  0  0
  -21.4930  -28.6800   22.0440 N   0  0  0  0  0  0  0  0  0  0  0  0
  -23.5580  -28.4650   22.9390 O   0  0  0  0  0  0  0  0  0  0  0  0
  -20.9230  -29.1850   21.3780 H   0  0  0  0  0  0  0  0  0  0  0  0
  -18.3010  -27.0610   22.5760 C   0  0  0  0  0  0  0  0  0  0  0  0
  -20.8070  -27.6450   22.8190 C   0  0  0  0  0  3  0  0  0  0  0  0
  -21.0870  -26.2380   22.2430 C   0  0  0  0  0  2  0  0  0  0  0  0
  -20.0250  -25.7750   21.2420 C   0  0  0  0  0  2  0  0  0  0  0  0
  -18.6430  -25.7460   21.8980 C   0  0  0  0  0  2  0  0  0  0  0  0
  -19.3170  -27.9610   22.9950 C   0  0  0  0  0  0  0  0  0  0  0  0
  -18.9460  -29.1880   23.5880 C   0  0  0  0  0  3  0  0  0  0  0  0
  -17.5910  -29.5210   23.7660 C   0  0  0  0  0  3  0  0  0  0  0  0
  -16.5890  -28.6190   23.3660 C   0  0  0  0  0  3  0  0  0  0  0  0
  -16.9440  -27.3920   22.7760 C   0  0  0  0  0  3  0  0  0  0  0  0
  -25.8990  -32.1670   23.2950 C   0  0  0  0  0  3  0  0  0  0  0  0
  -26.6500  -31.2960   24.3750 C   0  0  1  0  0  0  0  0  0  0  0  0
  -25.7240  -30.7520   25.4890 C   0  0  0  0  0  1  0  0  0  0  0  0
  -27.3540  -30.0890   23.7150 C   0  0  0  0  0  1  0  0  0  0  0  0
  -27.7540  -32.1420   25.0530 C   0  0  0  0  0  1  0  0  0  0  0  0
  -25.5250  -33.4730   23.8510 N   0  0  0  0  0  0  0  0  0  0  0  0
  -25.7170  -34.6470   23.2340 C   0  0  0  0  0  0  0  0  0  0  0  0
  -26.2970  -34.7480   22.1500 O   0  0  0  0  0  0  0  0  0  0  0  0
  -24.9930  -33.4640   24.7100 H   0  0  0  0  0  0  0  0  0  0  0  0
  -23.8720  -36.3570   23.2720 C   0  0  0  0  0  1  0  0  0  0  0  0
  -25.1870  -35.9150   23.9320 C   0  0  0  0  0  3  0  0  0  0  0  0
  -27.3230  -36.8030   24.7590 C   0  0  0  0  0  1  0  0  0  0  0  0
  -26.1490  -37.0380   23.9210 N   0  0  0  0  0  0  0  0  0  0  0  0
  -25.7040  -37.8940   24.2380 H   0  0  0  0  0  0  0  0  0  0  0  0
  -30.9190  -17.3540   18.6850 C   0  0  0  0  0  2  0  0  0  0  0  0
  -31.3810  -14.8340   18.7490 C   0  0  0  0  0  0  0  0  0  0  0  0
  -30.7280  -12.6880   17.6980 C   0  0  0  0  0  2  0  0  0  0  0  0
  -29.5580  -12.9700   16.7300 C   0  0  0  0  0  2  0  0  0  0  0  0
  -28.2090  -12.8910   17.4710 C   0  0  0  0  0  2  0  0  0  0  0  0
  -28.2080  -13.6980   18.7980 C   0  0  0  0  0  3  0  0  0  0  0  0
  -29.4770  -13.4160   19.6360 C   0  0  0  0  0  2  0  0  0  0  0  0
  -30.6510  -13.6790   18.7900 N   0  0  0  0  0  0  0  0  0  0  0  0
  -32.4200  -14.9110   18.0860 O   0  0  0  0  0  0  0  0  0  0  0  0
  -30.7920  -15.9600   19.2450 N   0  0  0  0  0  0  0  0  0  0  0  0
  -29.9840  -15.8000   19.8270 H   0  0  0  0  0  0  0  0  0  0  0  0
  -26.1430  -14.4040   20.1550 C   0  0  0  0  0  0  0  0  0  0  0  0
  -25.1090  -13.6900   20.6930 C   0  0  0  0  0  0  0  0  0  0  0  0
  -25.3810  -12.3190   20.3970 C   0  0  0  0  0  0  0  0  0  0  0  0
  -26.9880  -13.4760   19.5710 N   0  0  0  0  0  0  0  0  0  0  0  0
  -26.5470  -12.2070   19.7710 N   0  0  0  0  0  0  0  0  0  0  0  0
  -24.5690  -11.1160   20.6200 C   0  0  0  0  0  0  0  0  0  0  0  0
  -25.0220  -10.0630   21.4450 C   0  0  0  0  0  3  0  0  0  0  0  0
  -24.2180   -8.9220   21.6570 C   0  0  0  0  0  3  0  0  0  0  0  0
  -22.9430   -8.8280   21.0480 C   0  0  0  0  0  0  0  0  0  0  0  0
  -22.5070   -9.8690   20.2080 C   0  0  0  0  0  3  0  0  0  0  0  0
  -23.3110  -11.0010   19.9940 C   0  0  0  0  0  3  0  0  0  0  0  0
  -22.1030   -7.7490   21.1770 O   0  0  0  0  0  0  0  0  0  0  0  0
  -22.0110   -7.0480   22.3520 C   0  0  0  0  0  0  0  0  0  0  0  0
  -21.6670   -7.6740   23.5710 C   0  0  0  0  0  3  0  0  0  0  0  0
  -21.5150   -6.9010   24.7400 C   0  0  0  0  0  3  0  0  0  0  0  0
  -21.6930   -5.5050   24.6910 C   0  0  0  0  0  0  0  0  0  0  0  0
  -22.0280   -4.8800   23.4760 C   0  0  0  0  0  3  0  0  0  0  0  0
  -22.1840   -5.6500   22.3100 C   0  0  0  0  0  0  0  0  0  0  0  0
  -22.4860   -5.0380   21.1380 F   0  0  0  0  0  0  0  0  0  0  0  0
  -21.5390   -4.7620   25.8120 F   0  0  0  0  0  0  0  0  0  0  0  0
  -23.8830  -14.2520   21.3520 C   0  0  0  0  0  0  0  0  0  0  0  0
  -23.3210  -13.5350   22.3180 N   0  0  0  0  0  0  0  0  0  0  0  0
  -23.4460  -15.3590   21.0440 O   0  0  0  0  0  0  0  0  0  0  0  0
  -23.6910  -12.6350   22.5850 H   0  0  0  0  0  0  0  0  0  0  0  0
  -22.5070  -13.8970   22.7940 H   0  0  0  0  0  0  0  0  0  0  0  0
  -26.4280  -15.7660   20.0960 N   0  0  0  0  0  0  0  0  0  0  0  0
  -25.7540  -16.4570   20.4040 H   0  0  0  0  0  0  0  0  0  0  0  0
  -27.1940  -16.1680   19.5720 H   0  0  0  0  0  0  0  0  0  0  0  0
  1 65  1  0
  1  3  1  0
  2  6  1  0
  3  5  1  0
  3  2  1  0
  4  2  2  0
  6  7  1  0
  6 12  1  0
  8  7  1  0
  9 11  1  0
 11 10  1  0
 11  8  1  0
 12 13  1  0
 13 14  1  0
 13 16  1  0
 13 15  1  0
 17  1  1  0
 17 19  1  0
 19 18  1  0
 20 22  1  0
 20 19  1  0
 22 21  1  0
 23 24  1  0
 23 22  1  0
 24 26  1  0
 25 36  2  0
 26 31  1  0
 27 35  1  0
 27 37  1  0
 28 34  1  0
 28 30  1  0
 29 35  1  0
 30 29  1  0
 31 30  2  0
 32 33  1  0
 32 26  2  0
 33 28  2  0
 34 27  1  0
 35 25  1  0
 37 39  2  0
 38 37  1  0
 40 38  1  0
 41 50  2  0
 41 46  1  0
 42 38  1  0
 42 46  1  0
 43 42  1  0
 44 45  1  0
 44 43  1  0
 45 41  1  0
 46 47  2  0
 47 48  1  0
 49 48  2  0
 50 49  1  0
 51 25  1  0
 51 56  1  0
 51 52  1  0
 52 55  1  1
 52 53  1  0
 54 52  1  0
 56 59  1  0
 57 56  1  0
 57 61  1  0
 58 57  2  0
 61 60  1  0
 63 61  1  0
 63 64  1  0
 63 62  1  0
 65 74  1  0
 66 72  1  0
 66 74  1  0
 67 72  1  0
 68 69  1  0
 68 67  1  0
 70 69  1  0
 70 79  1  0
 70 71  1  0
 72 71  1  0
 73 66  2  0
 74 75  1  0
 76 77  2  0
 77 96  1  0
 78 81  1  0
 78 77  1  0
 79 80  1  0
 79 76  1  0
 80 78  2  0
 81 82  1  0
 82 83  2  0
 84 87  1  0
 84 83  1  0
 85 84  2  0
 86 85  1  0
 86 81  2  0
 87 88  1  0
 88 89  1  0
 89 90  2  0
 91 90  1  0
 91 95  1  0
 92 91  2  0
 93 88  2  0
 93 92  1  0
 94 93  1  0
 96 97  1  0
 97 99  1  0
 97100  1  0
 98 96  2  0
101 76  1  0
101102  1  0
103101  1  0
M  ISO  4  23 101  24 101  66 100  74 100
M  END
>  <TORSDO>  (62) 
F 29

>  <SCORE>  (62) 
0.372

>  <name>  (62) 
64

>  <ligand_id>  (62) 
64

>  <original_smiles>  (62) 
[H]c1c([H])c([H])c2c(c1[H])C([H])([H])C([H])([H])C([H])([H])C2([H])N([H])C(=O)C1([H])N(C(=O)C([H])(N([H])C(=O)C([H])(N([H])C([H])([H])[H])C([H])([H])[H])C(C([H])([H])[H])(C([H])([H])[H])C([H])([H])[H])C([H])([H])c2c([H])c(OC([H])([H])C([H])(C([H])([H])[H])C([H])([H])C([H])(C([H])([H])[H])C([H])([H])C([H])(N([H])C(=O)C([H])(C([H])([H])C([H])([H])C([H])(C([H])([H])[H])C([H])([H])[H])C([H])([H])[N+]([H])([H])[H])C([H])([H])N([H])C(=O)N3C([H])([H])C([H])([H])C([H])([H])C([H])(n4nc(-c5c([H])c([H])c(Oc6c([H])c([H])c(F)c([H])c6F)c([H])c5[H])c(C(=O)N([H])[H])c4N([H])[H])C3([H])[H])c([H])c([H])c2C1([H])[H]

>  <smiles>  (62) 
[H]c1c([H])c([H])c2c(c1[H])C([H])([H])C([H])([H])C([H])([H])C2([H])N([H])C(=O)C1([H])N(C(=O)C([H])(N([H])C(=O)C([H])(N([H])C([H])([H])[H])C([H])([H])[H])C(C([H])([H])[H])(C([H])([H])[H])C([H])([H])[H])C([H])([H])c2c([H])c(OC([H])([H])C([H])(C([H])([H])[H])C([H])([H])C([H])(C([H])([H])[H])C([H])([H])C([H])(N([H])C(=O)C([H])(C([H])([H])C([H])([H])C([H])(C([H])([H])[H])C([H])([H])[H])C([H])([H])[N+]([H])([H])[H])C([H])([H])N([H])C(=O)N3C([H])([H])C([H])([H])C([H])([H])C([H])(n4nc(-c5c([H])c([H])c(Oc6c([H])c([H])c(F)c([H])c6F)c([H])c5[H])c(C(=O)N([H])[H])c4N([H])[H])C3([H])[H])c([H])c([H])c2C1([H])[H]

$$$$
65:0:0
     RDKit          3D

 94101  0  0  1  0  0  0  0  0999 V2000
  -30.2830  -18.7160   20.4430 C   0  0  0  0  0  2  0  0  0  0  0  0
  -29.4500  -20.2820   22.2710 C   0  0  0  0  0  1  0  0  0  0  0  0
  -29.4310  -20.0900   20.8080 N   0  0  1  0  0  4  0  0  0  0  0  0
  -28.4780  -19.8430   20.6080 H   0  0  0  0  0  0  0  0  0  0  0  0
  -29.5320  -21.5720   20.0940 C   0  0  0  0  0  3  0  0  0  0  0  0
  -28.9160  -23.1370   20.6690 C   0  0  0  0  0  3  0  0  0  0  0  0
  -28.6130  -24.6730   19.8440 C   0  0  0  0  0  2  0  0  0  0  0  0
  -28.4980  -26.2270   20.2880 O   0  0  0  0  0  0  0  0  0  0  0  0
  -24.7190  -31.9540   23.2130 C   0  0  0  0  0  0  0  0  0  0  0  0
  -27.4140  -27.2220   20.1680 C   0  0  0  0  0  0  0  0  0  0  0  0
  -23.5500  -30.5240   21.5820 C   0  0  0  0  0  3  0  0  0  0  0  0
  -25.0370  -28.9740   20.1420 C   0  0  0  0  0  0  0  0  0  0  0  0
  -26.1010  -30.8340   21.4060 C   0  0  0  0  0  2  0  0  0  0  0  0
  -26.2090  -29.4340   20.7500 C   0  0  0  0  0  0  0  0  0  0  0  0
  -27.3890  -28.5760   20.7430 C   0  0  0  0  0  3  0  0  0  0  0  0
  -26.2070  -26.8890   19.5150 C   0  0  0  0  0  3  0  0  0  0  0  0
  -25.0540  -27.7190   19.5060 C   0  0  0  0  0  3  0  0  0  0  0  0
  -23.7860  -29.8480   20.2020 C   0  0  0  0  0  2  0  0  0  0  0  0
  -24.8110  -31.1270   22.1220 N   0  0  0  0  0  0  0  0  0  0  0  0
  -23.6270  -32.2090   23.7480 O   0  0  0  0  0  0  0  0  0  0  0  0
  -22.8970  -29.5040   22.5510 C   0  0  0  0  0  0  0  0  0  0  0  0
  -21.5720  -29.2970   22.4350 N   0  0  0  0  0  0  0  0  0  0  0  0
  -23.5880  -28.9000   23.3760 O   0  0  0  0  0  0  0  0  0  0  0  0
  -21.0660  -29.8390   21.7480 H   0  0  0  0  0  0  0  0  0  0  0  0
  -18.2340  -27.9860   22.9500 C   0  0  0  0  0  0  0  0  0  0  0  0
  -20.7830  -28.3360   23.2110 C   0  0  0  0  0  3  0  0  0  0  0  0
  -20.9320  -26.9050   22.6390 C   0  0  0  0  0  2  0  0  0  0  0  0
  -19.8390  -26.5440   21.6290 C   0  0  0  0  0  2  0  0  0  0  0  0
  -18.4540  -26.6430   22.2750 C   0  0  0  0  0  2  0  0  0  0  0  0
  -19.3270  -28.7880   23.3760 C   0  0  0  0  0  0  0  0  0  0  0  0
  -19.0630  -30.0430   23.9670 C   0  0  0  0  0  3  0  0  0  0  0  0
  -17.7420  -30.4960   24.1370 C   0  0  0  0  0  3  0  0  0  0  0  0
  -16.6650  -29.6910   23.7280 C   0  0  0  0  0  3  0  0  0  0  0  0
  -16.9110  -28.4390   23.1390 C   0  0  0  0  0  3  0  0  0  0  0  0
  -25.9780  -32.6300   23.8320 C   0  0  0  0  0  3  0  0  0  0  0  0
  -26.5110  -31.8830   25.1180 C   0  0  1  0  0  0  0  0  0  0  0  0
  -25.4200  -31.6290   26.1850 C   0  0  0  0  0  1  0  0  0  0  0  0
  -27.1260  -30.5170   24.7400 C   0  0  0  0  0  1  0  0  0  0  0  0
  -27.6390  -32.7090   25.7760 C   0  0  0  0  0  1  0  0  0  0  0  0
  -25.6280  -34.0210   24.1650 N   0  0  0  0  0  0  0  0  0  0  0  0
  -25.9370  -35.0910   23.4200 C   0  0  0  0  0  0  0  0  0  0  0  0
  -26.6130  -35.0110   22.3900 O   0  0  0  0  0  0  0  0  0  0  0  0
  -25.0250  -34.1530   24.9630 H   0  0  0  0  0  0  0  0  0  0  0  0
  -24.1680  -36.8520   23.0840 C   0  0  0  0  0  1  0  0  0  0  0  0
  -25.4190  -36.4640   23.8890 C   0  0  0  0  0  3  0  0  0  0  0  0
  -27.5320  -37.4000   24.7260 C   0  0  0  0  0  1  0  0  0  0  0  0
  -26.4260  -37.5440   23.7830 N   0  0  0  0  0  0  0  0  0  0  0  0
  -25.9960  -38.4520   23.9320 H   0  0  0  0  0  0  0  0  0  0  0  0
  -29.7250  -17.0250   20.4320 C   0  0  0  0  0  3  0  0  0  0  0  0
  -30.5760  -15.4930   20.2180 C   0  0  0  0  0  0  0  0  0  0  0  0
  -30.4640  -13.1700   19.0840 C   0  0  0  0  0  2  0  0  0  0  0  0
  -29.4620  -13.1880   17.9030 C   0  0  0  0  0  2  0  0  0  0  0  0
  -28.0250  -12.8990   18.3810 C   0  0  0  0  0  2  0  0  0  0  0  0
  -27.6780  -13.6630   19.6820 C   0  0  0  0  0  3  0  0  0  0  0  0
  -28.8080  -13.6350   20.7300 C   0  0  0  0  0  2  0  0  0  0  0  0
  -30.0200  -14.1890   20.0970 N   0  0  0  0  0  0  0  0  0  0  0  0
  -31.7940  -15.5010   19.9750 O   0  0  0  0  0  0  0  0  0  0  0  0
  -25.3220  -14.1510   20.5110 C   0  0  0  0  0  0  0  0  0  0  0  0
  -24.2900  -13.3400   20.8870 C   0  0  0  0  0  0  0  0  0  0  0  0
  -24.7920  -12.0050   20.8180 C   0  0  0  0  0  0  0  0  0  0  0  0
  -26.3820  -13.3070   20.2330 N   0  0  0  0  0  0  0  0  0  0  0  0
  -26.0770  -12.0100   20.4800 N   0  0  0  0  0  0  0  0  0  0  0  0
  -24.1050  -10.7200   20.9950 C   0  0  0  0  0  0  0  0  0  0  0  0
  -24.5470   -9.7750   21.9480 C   0  0  0  0  0  3  0  0  0  0  0  0
  -23.8550   -8.5560   22.1160 C   0  0  0  0  0  3  0  0  0  0  0  0
  -22.7120   -8.2750   21.3300 C   0  0  0  0  0  0  0  0  0  0  0  0
  -22.2910   -9.2100   20.3690 C   0  0  0  0  0  3  0  0  0  0  0  0
  -22.9820  -10.4210   20.1990 C   0  0  0  0  0  3  0  0  0  0  0  0
  -21.9930   -7.1050   21.4060 O   0  0  0  0  0  0  0  0  0  0  0  0
  -21.8820   -6.4050   22.5790 C   0  0  0  0  0  0  0  0  0  0  0  0
  -21.3270   -6.9830   23.7430 C   0  0  0  0  0  3  0  0  0  0  0  0
  -21.1690   -6.2060   24.9080 C   0  0  0  0  0  3  0  0  0  0  0  0
  -21.5550   -4.8520   24.9090 C   0  0  0  0  0  0  0  0  0  0  0  0
  -22.1000   -4.2720   23.7510 C   0  0  0  0  0  3  0  0  0  0  0  0
  -22.2610   -5.0470   22.5890 C   0  0  0  0  0  0  0  0  0  0  0  0
  -22.7680   -4.4790   21.4670 F   0  0  0  0  0  0  0  0  0  0  0  0
  -21.3950   -4.1020   26.0250 F   0  0  0  0  0  0  0  0  0  0  0  0
  -22.8920  -13.7770   21.2040 C   0  0  0  0  0  0  0  0  0  0  0  0
  -22.2130  -13.0610   22.0930 N   0  0  0  0  0  0  0  0  0  0  0  0
  -22.4140  -14.7920   20.7020 O   0  0  0  0  0  0  0  0  0  0  0  0
  -22.6160  -12.2390   22.5210 H   0  0  0  0  0  0  0  0  0  0  0  0
  -21.2750  -13.3360   22.3480 H   0  0  0  0  0  0  0  0  0  0  0  0
  -25.4470  -15.5310   20.3540 N   0  0  0  0  0  0  0  0  0  0  0  0
  -24.6080  -16.0070   20.6730 H   0  0  0  0  0  0  0  0  0  0  0  0
  -26.2450  -15.8740   20.8740 H   0  0  0  0  0  0  0  0  0  0  0  0
  -28.5180  -17.0610   19.4190 C   0  0  0  0  0  3  0  0  0  0  0  0
  -28.9320  -17.4480   18.0710 N   0  0  0  0  0  0  0  0  0  0  0  0
  -28.6330  -18.3890   17.8350 H   0  0  0  0  0  0  0  0  0  0  0  0
  -28.5090  -16.8610   17.3580 H   0  0  0  0  0  0  0  0  0  0  0  0
  -27.3200  -17.9390   19.8830 C   0  0  0  0  0  2  0  0  0  0  0  0
  -26.0130  -17.4110   19.4620 N   0  0  0  0  0  4  0  0  0  0  0  0
  -25.9530  -17.3070   18.4640 H   0  0  0  0  0  0  0  0  0  0  0  0
  -25.2840  -18.0390   19.7600 H   0  0  0  0  0  0  0  0  0  0  0  0
  -25.8350  -16.5320   19.9230 H   0  0  0  0  0  0  0  0  0  0  0  0
  1  3  1  0
  3  2  1  0
  3  4  1  1
  5  6  2  0
  5  3  1  0
  7  8  1  0
  7  6  1  0
  9 20  2  0
 10  8  1  0
 10 15  1  0
 11 19  1  0
 11 21  1  0
 12 18  1  0
 12 14  1  0
 13 19  1  0
 14 13  1  0
 15 14  2  0
 16 10  2  0
 17 16  1  0
 17 12  2  0
 18 11  1  0
 19  9  1  0
 21 23  2  0
 22 21  1  0
 24 22  1  0
 25 34  2  0
 25 30  1  0
 26 22  1  0
 26 30  1  0
 27 26  1  0
 28 29  1  0
 28 27  1  0
 29 25  1  0
 30 31  2  0
 31 32  1  0
 33 32  2  0
 34 33  1  0
 35  9  1  0
 35 40  1  0
 35 36  1  0
 36 39  1  1
 36 37  1  0
 38 36  1  0
 40 43  1  0
 41 45  1  0
 41 40  1  0
 42 41  2  0
 45 44  1  0
 47 45  1  0
 47 48  1  0
 47 46  1  0
 49  1  1  0
 50 49  1  0
 51 56  1  0
 52 53  1  0
 52 51  1  0
 54 53  1  0
 54 61  1  0
 54 55  1  0
 56 50  1  0
 56 55  1  0
 57 50  2  0
 58 59  2  0
 59 78  1  0
 60 59  1  0
 60 63  1  0
 61 62  1  0
 61 58  1  0
 62 60  2  0
 63 64  1  0
 64 65  2  0
 66 69  1  0
 66 65  1  0
 67 66  2  0
 68 67  1  0
 68 63  2  0
 69 70  1  0
 70 75  2  0
 70 71  1  0
 71 72  2  0
 72 73  1  0
 73 77  1  0
 74 73  2  0
 75 74  1  0
 76 75  1  0
 78 79  1  0
 79 82  1  0
 79 81  1  0
 80 78  2  0
 83 58  1  0
 83 84  1  0
 83 85  1  0
 86 90  1  0
 86 49  1  0
 87 86  1  0
 88 87  1  0
 89 87  1  0
 91 93  1  0
 91 90  1  0
 91 94  1  0
 92 91  1  0
M  ISO  4   7 101   8 101  49 100  50 100
M  END
>  <TORSDO>  (63) 
F 25

>  <SCORE>  (63) 
-13.611

>  <name>  (63) 
65

>  <ligand_id>  (63) 
65

>  <original_smiles>  (63) 
[H]c1c([H])c([H])c2c(c1[H])C([H])([H])C([H])([H])C([H])([H])C2([H])N([H])C(=O)C1([H])N(C(=O)C([H])(N([H])C(=O)C([H])(N([H])C([H])([H])[H])C([H])([H])[H])C(C([H])([H])[H])(C([H])([H])[H])C([H])([H])[H])C([H])([H])c2c([H])c(OC([H])([H])C([H])([H])C([H])([H])[N+]([H])(C([H])([H])[H])C([H])([H])C([H])(C(=O)N3C([H])([H])C([H])([H])C([H])([H])C([H])(n4nc(-c5c([H])c([H])c(Oc6c([H])c([H])c(F)c([H])c6F)c([H])c5[H])c(C(=O)N([H])[H])c4N([H])[H])C3([H])[H])C([H])(N([H])[H])C([H])([H])[N+]([H])([H])[H])c([H])c([H])c2C1([H])[H]

>  <smiles>  (63) 
[H]c1c([H])c([H])c2c(c1[H])C([H])([H])C([H])([H])C([H])([H])C2([H])N([H])C(=O)C1([H])N(C(=O)C([H])(N([H])C(=O)C([H])(N([H])C([H])([H])[H])C([H])([H])[H])C(C([H])([H])[H])(C([H])([H])[H])C([H])([H])[H])C([H])([H])c2c([H])c(OC([H])([H])C([H])([H])C([H])([H])[N+]([H])(C([H])([H])[H])C([H])([H])C([H])(C(=O)N3C([H])([H])C([H])([H])C([H])([H])C([H])(n4nc(-c5c([H])c([H])c(Oc6c([H])c([H])c(F)c([H])c6F)c([H])c5[H])c(C(=O)N([H])[H])c4N([H])[H])C3([H])[H])C([H])(N([H])[H])C([H])([H])[N+]([H])([H])[H])c([H])c([H])c2C1([H])[H]

$$$$
66:0:0
     RDKit          3D

 94101  0  0  1  0  0  0  0  0999 V2000
  -29.8410  -20.4160   19.6960 C   0  0  0  0  0  2  0  0  0  0  0  0
  -30.4740  -22.5580   18.5080 C   0  0  0  0  0  1  0  0  0  0  0  0
  -29.4810  -21.9550   19.5200 C   0  0  0  0  0  3  0  0  0  0  0  0
  -29.4250  -22.8200   20.8270 C   0  0  0  0  0  2  0  0  0  0  0  0
  -29.7710  -24.9300   22.1840 C   0  0  0  0  0  1  0  0  0  0  0  0
  -29.5040  -24.4040   20.7620 C   0  0  0  0  0  3  0  0  0  0  0  0
  -28.2800  -25.1750   20.1610 C   0  0  0  0  0  2  0  0  0  0  0  0
  -28.4280  -26.6270   20.2100 O   0  0  0  0  0  0  0  0  0  0  0  0
  -24.5940  -31.8810   23.2020 C   0  0  0  0  0  0  0  0  0  0  0  0
  -27.2720  -27.3980   20.1620 C   0  0  0  0  0  0  0  0  0  0  0  0
  -23.4100  -30.4770   21.5480 C   0  0  0  0  0  3  0  0  0  0  0  0
  -24.8830  -28.9410   20.1370 C   0  0  0  0  0  0  0  0  0  0  0  0
  -25.9430  -30.8290   21.3820 C   0  0  0  0  0  2  0  0  0  0  0  0
  -26.0380  -29.4550   20.7370 C   0  0  0  0  0  0  0  0  0  0  0  0
  -27.2360  -28.6950   20.7410 C   0  0  0  0  0  3  0  0  0  0  0  0
  -26.0960  -26.9130   19.5460 C   0  0  0  0  0  3  0  0  0  0  0  0
  -24.9100  -27.6720   19.5350 C   0  0  0  0  0  3  0  0  0  0  0  0
  -23.6380  -29.8000   20.1700 C   0  0  0  0  0  2  0  0  0  0  0  0
  -24.6670  -31.0780   22.1010 N   0  0  0  0  0  0  0  0  0  0  0  0
  -23.5050  -32.1510   23.7290 O   0  0  0  0  0  0  0  0  0  0  0  0
  -22.7480  -29.4550   22.5010 C   0  0  0  0  0  0  0  0  0  0  0  0
  -21.4240  -29.2760   22.3640 N   0  0  0  0  0  0  0  0  0  0  0  0
  -23.4240  -28.8270   23.3190 O   0  0  0  0  0  0  0  0  0  0  0  0
  -20.9400  -29.8350   21.6760 H   0  0  0  0  0  0  0  0  0  0  0  0
  -18.0410  -28.0990   22.8500 C   0  0  0  0  0  0  0  0  0  0  0  0
  -20.6000  -28.3360   23.1250 C   0  0  0  0  0  3  0  0  0  0  0  0
  -20.6930  -26.9110   22.5340 C   0  0  0  0  0  2  0  0  0  0  0  0
  -19.5880  -26.6050   21.5180 C   0  0  0  0  0  2  0  0  0  0  0  0
  -18.2070  -26.7550   22.1630 C   0  0  0  0  0  2  0  0  0  0  0  0
  -19.1650  -28.8490   23.2880 C   0  0  0  0  0  0  0  0  0  0  0  0
  -18.9550  -30.1090   23.8900 C   0  0  0  0  0  3  0  0  0  0  0  0
  -17.6540  -30.6190   24.0590 C   0  0  0  0  0  3  0  0  0  0  0  0
  -16.5440  -29.8650   23.6390 C   0  0  0  0  0  3  0  0  0  0  0  0
  -16.7390  -28.6070   23.0410 C   0  0  0  0  0  3  0  0  0  0  0  0
  -25.8690  -32.5160   23.8370 C   0  0  0  0  0  3  0  0  0  0  0  0
  -26.3800  -31.7410   25.1130 C   0  0  1  0  0  0  0  0  0  0  0  0
  -25.2800  -31.4860   26.1690 C   0  0  0  0  0  1  0  0  0  0  0  0
  -26.9800  -30.3710   24.7150 C   0  0  0  0  0  1  0  0  0  0  0  0
  -27.5170  -32.5420   25.7920 C   0  0  0  0  0  1  0  0  0  0  0  0
  -25.5510  -33.9110   24.1700 N   0  0  0  0  0  0  0  0  0  0  0  0
  -25.8780  -34.9680   23.4140 C   0  0  0  0  0  0  0  0  0  0  0  0
  -26.5510  -34.8710   22.3840 O   0  0  0  0  0  0  0  0  0  0  0  0
  -24.9550  -34.0590   24.9720 H   0  0  0  0  0  0  0  0  0  0  0  0
  -24.1530  -36.7600   23.0450 C   0  0  0  0  0  1  0  0  0  0  0  0
  -25.3800  -36.3520   23.8740 C   0  0  0  0  0  3  0  0  0  0  0  0
  -27.4890  -37.2440   24.7610 C   0  0  0  0  0  1  0  0  0  0  0  0
  -26.4130  -37.4080   23.7880 N   0  0  0  0  0  0  0  0  0  0  0  0
  -26.0010  -38.3260   23.9210 H   0  0  0  0  0  0  0  0  0  0  0  0
  -28.9280  -19.4440   20.5300 C   0  0  0  0  0  3  0  0  0  0  0  0
  -27.5010  -19.7270   20.2840 N   0  0  0  0  0  4  0  0  0  0  0  0
  -27.2900  -19.5610   19.3140 H   0  0  0  0  0  0  0  0  0  0  0  0
  -27.2440  -20.6600   20.5440 H   0  0  0  0  0  0  0  0  0  0  0  0
  -26.9500  -19.0780   20.8180 H   0  0  0  0  0  0  0  0  0  0  0  0
  -29.0990  -17.9090   20.1770 C   0  0  0  0  0  0  0  0  0  0  0  0
  -28.2380  -17.3030   19.5230 O   0  0  0  0  0  0  0  0  0  0  0  0
  -30.3300  -17.0870   20.6540 C   0  0  0  0  0  2  0  0  0  0  0  0
  -30.7750  -14.5910   20.2750 C   0  0  0  0  0  0  0  0  0  0  0  0
  -30.5050  -12.3760   19.2040 C   0  0  0  0  0  2  0  0  0  0  0  0
  -29.5360  -12.5200   18.0120 C   0  0  0  0  0  2  0  0  0  0  0  0
  -28.0720  -12.3770   18.4740 C   0  0  0  0  0  2  0  0  0  0  0  0
  -27.7480  -13.2480   19.7170 C   0  0  0  0  0  3  0  0  0  0  0  0
  -28.8270  -13.0770   20.8100 C   0  0  0  0  0  2  0  0  0  0  0  0
  -30.1320  -13.3900   20.2040 N   0  0  0  0  0  0  0  0  0  0  0  0
  -31.9030  -14.7690   19.8120 O   0  0  0  0  0  0  0  0  0  0  0  0
  -30.0270  -15.6260   20.7190 N   0  0  0  0  0  0  0  0  0  0  0  0
  -29.0900  -15.3960   21.0120 H   0  0  0  0  0  0  0  0  0  0  0  0
  -25.3810  -13.8670   20.5060 C   0  0  0  0  0  0  0  0  0  0  0  0
  -24.3140  -13.0990   20.8890 C   0  0  0  0  0  0  0  0  0  0  0  0
  -24.7600  -11.7430   20.8250 C   0  0  0  0  0  0  0  0  0  0  0  0
  -26.4080  -12.9790   20.2310 N   0  0  0  0  0  0  0  0  0  0  0  0
  -26.0400  -11.6950   20.4800 N   0  0  0  0  0  0  0  0  0  0  0  0
  -24.0260  -10.4850   21.0150 C   0  0  0  0  0  0  0  0  0  0  0  0
  -24.4470   -9.5190   21.9570 C   0  0  0  0  0  3  0  0  0  0  0  0
  -23.7150   -8.3260   22.1340 C   0  0  0  0  0  3  0  0  0  0  0  0
  -22.5480   -8.0880   21.3700 C   0  0  0  0  0  0  0  0  0  0  0  0
  -22.1460   -9.0420   20.4180 C   0  0  0  0  0  3  0  0  0  0  0  0
  -22.8790  -10.2270   20.2380 C   0  0  0  0  0  3  0  0  0  0  0  0
  -21.7890   -6.9460   21.4560 O   0  0  0  0  0  0  0  0  0  0  0  0
  -21.6980   -6.2280   22.6220 C   0  0  0  0  0  0  0  0  0  0  0  0
  -21.1660   -6.7900   23.8030 C   0  0  0  0  0  3  0  0  0  0  0  0
  -21.0260   -5.9950   24.9580 C   0  0  0  0  0  3  0  0  0  0  0  0
  -21.4070   -4.6400   24.9330 C   0  0  0  0  0  0  0  0  0  0  0  0
  -21.9310   -4.0790   23.7560 C   0  0  0  0  0  3  0  0  0  0  0  0
  -22.0730   -4.8700   22.6030 C   0  0  0  0  0  0  0  0  0  0  0  0
  -22.5590   -4.3170   21.4650 F   0  0  0  0  0  0  0  0  0  0  0  0
  -21.2650   -3.8750   26.0400 F   0  0  0  0  0  0  0  0  0  0  0  0
  -22.9300  -13.5860   21.2070 C   0  0  0  0  0  0  0  0  0  0  0  0
  -22.2130  -12.8780   22.0730 N   0  0  0  0  0  0  0  0  0  0  0  0
  -22.4920  -14.6290   20.7230 O   0  0  0  0  0  0  0  0  0  0  0  0
  -22.5780  -12.0340   22.4890 H   0  0  0  0  0  0  0  0  0  0  0  0
  -21.2850  -13.1870   22.3260 H   0  0  0  0  0  0  0  0  0  0  0  0
  -25.5570  -15.2400   20.3510 N   0  0  0  0  0  0  0  0  0  0  0  0
  -24.8000  -15.8970   20.4990 H   0  0  0  0  0  0  0  0  0  0  0  0
  -26.4090  -15.6850   20.0270 H   0  0  0  0  0  0  0  0  0  0  0  0
  3  2  1  0
  3  1  1  0
  3  4  1  0
  6  4  1  0
  6  5  1  0
  7  8  1  0
  7  6  1  0
  9 20  2  0
 10  8  1  0
 10 15  1  0
 11 19  1  0
 11 21  1  0
 12 18  1  0
 12 14  1  0
 13 19  1  0
 14 15  2  0
 14 13  1  0
 16 10  2  0
 17 16  1  0
 17 12  2  0
 18 11  1  0
 19  9  1  0
 21 23  2  0
 22 21  1  0
 24 22  1  0
 25 34  2  0
 25 30  1  0
 26 22  1  0
 26 30  1  0
 27 26  1  0
 28 29  1  0
 28 27  1  0
 29 25  1  0
 30 31  2  0
 31 32  1  0
 33 32  2  0
 34 33  1  0
 35  9  1  0
 35 40  1  0
 35 36  1  0
 36 39  1  1
 36 37  1  0
 38 36  1  0
 40 43  1  0
 41 45  1  0
 41 40  1  0
 42 41  2  0
 45 44  1  0
 47 45  1  0
 47 48  1  0
 47 46  1  0
 49  1  1  0
 50 49  1  0
 50 52  1  0
 50 53  1  0
 51 50  1  0
 54 49  1  0
 54 56  1  0
 55 54  2  0
 56 65  1  0
 57 65  1  0
 58 63  1  0
 59 60  1  0
 59 58  1  0
 61 60  1  0
 61 70  1  0
 61 62  1  0
 63 57  1  0
 63 62  1  0
 64 57  2  0
 65 66  1  0
 67 68  2  0
 68 87  1  0
 69 68  1  0
 69 72  1  0
 70 71  1  0
 70 67  1  0
 71 69  2  0
 72 73  1  0
 73 74  2  0
 75 78  1  0
 75 74  1  0
 76 75  2  0
 77 76  1  0
 77 72  2  0
 78 79  1  0
 79 80  1  0
 80 81  2  0
 82 81  1  0
 82 86  1  0
 83 82  2  0
 84 79  2  0
 84 83  1  0
 85 84  1  0
 87 88  1  0
 88 91  1  0
 88 90  1  0
 89 87  2  0
 92 93  1  0
 92 67  1  0
 94 92  1  0
M  ISO  4   7 101   8 101  57 100  65 100
M  END
>  <TORSDO>  (64) 
F 24

>  <SCORE>  (64) 
-12.770

>  <name>  (64) 
66

>  <ligand_id>  (64) 
66

>  <original_smiles>  (64) 
[H]c1c([H])c([H])c2c(c1[H])C([H])([H])C([H])([H])C([H])([H])C2([H])N([H])C(=O)C1([H])N(C(=O)C([H])(N([H])C(=O)C([H])(N([H])C([H])([H])[H])C([H])([H])[H])C(C([H])([H])[H])(C([H])([H])[H])C([H])([H])[H])C([H])([H])c2c([H])c(OC([H])([H])C([H])(C([H])([H])[H])C([H])([H])C([H])(C([H])([H])[H])C([H])([H])C([H])(C(=O)C([H])([H])N([H])C(=O)N3C([H])([H])C([H])([H])C([H])([H])C([H])(n4nc(-c5c([H])c([H])c(Oc6c([H])c([H])c(F)c([H])c6F)c([H])c5[H])c(C(=O)N([H])[H])c4N([H])[H])C3([H])[H])[N+]([H])([H])[H])c([H])c([H])c2C1([H])[H]

>  <smiles>  (64) 
[H]c1c([H])c([H])c2c(c1[H])C([H])([H])C([H])([H])C([H])([H])C2([H])N([H])C(=O)C1([H])N(C(=O)C([H])(N([H])C(=O)C([H])(N([H])C([H])([H])[H])C([H])([H])[H])C(C([H])([H])[H])(C([H])([H])[H])C([H])([H])[H])C([H])([H])c2c([H])c(OC([H])([H])C([H])(C([H])([H])[H])C([H])([H])C([H])(C([H])([H])[H])C([H])([H])C([H])(C(=O)C([H])([H])N([H])C(=O)N3C([H])([H])C([H])([H])C([H])([H])C([H])(n4nc(-c5c([H])c([H])c(Oc6c([H])c([H])c(F)c([H])c6F)c([H])c5[H])c(C(=O)N([H])[H])c4N([H])[H])C3([H])[H])[N+]([H])([H])[H])c([H])c([H])c2C1([H])[H]

$$$$
67:0:0
     RDKit          3D

 97104  0  0  1  0  0  0  0  0999 V2000
  -29.7540  -19.9580   22.1500 C   0  0  0  0  0  2  0  0  0  0  0  0
  -29.0920  -21.0310   21.3770 N   0  0  0  0  0  4  0  0  0  0  0  0
  -28.0940  -20.8780   21.3700 H   0  0  0  0  0  0  0  0  0  0  0  0
  -29.4030  -20.9770   20.4210 H   0  0  0  0  0  0  0  0  0  0  0  0
  -29.3580  -22.4050   21.8570 C   0  0  0  0  0  2  0  0  0  0  0  0
  -28.9990  -23.4070   20.7460 C   0  0  0  0  0  2  0  0  0  0  0  0
  -29.2280  -24.8880   21.0900 C   0  0  0  0  0  2  0  0  0  0  0  0
  -28.8870  -25.7660   19.8730 C   0  0  0  0  0  2  0  0  0  0  0  0
  -28.8770  -27.1580   20.2070 O   0  0  0  0  0  0  0  0  0  0  0  0
  -24.9220  -31.9490   23.6460 C   0  0  0  0  0  0  0  0  0  0  0  0
  -27.6800  -27.8460   20.2220 C   0  0  0  0  0  0  0  0  0  0  0  0
  -23.7650  -30.6910   21.8610 C   0  0  0  0  0  3  0  0  0  0  0  0
  -25.2640  -29.3240   20.3210 C   0  0  0  0  0  0  0  0  0  0  0  0
  -26.2850  -31.1000   21.7440 C   0  0  0  0  0  2  0  0  0  0  0  0
  -26.4010  -29.7930   20.9880 C   0  0  0  0  0  0  0  0  0  0  0  0
  -27.6070  -29.0620   20.9420 C   0  0  0  0  0  3  0  0  0  0  0  0
  -26.5290  -27.4190   19.5150 C   0  0  0  0  0  3  0  0  0  0  0  0
  -25.3250  -28.1330   19.5820 C   0  0  0  0  0  3  0  0  0  0  0  0
  -24.0040  -30.1530   20.4270 C   0  0  0  0  0  2  0  0  0  0  0  0
  -25.0100  -31.2550   22.4750 N   0  0  0  0  0  0  0  0  0  0  0  0
  -23.8270  -32.1540   24.1860 O   0  0  0  0  0  0  0  0  0  0  0  0
  -23.1160  -29.5710   22.7030 C   0  0  0  0  0  0  0  0  0  0  0  0
  -21.8080  -29.3550   22.5020 N   0  0  0  0  0  0  0  0  0  0  0  0
  -23.7820  -28.8990   23.4930 O   0  0  0  0  0  0  0  0  0  0  0  0
  -21.3290  -29.9460   21.8370 H   0  0  0  0  0  0  0  0  0  0  0  0
  -18.4600  -28.0250   22.7360 C   0  0  0  0  0  0  0  0  0  0  0  0
  -20.9900  -28.3390   23.1590 C   0  0  0  0  0  3  0  0  0  0  0  0
  -21.1710  -26.9630   22.4820 C   0  0  0  0  0  2  0  0  0  0  0  0
  -20.1320  -26.6840   21.3900 C   0  0  0  0  0  2  0  0  0  0  0  0
  -18.7160  -26.7360   21.9720 C   0  0  0  0  0  2  0  0  0  0  0  0
  -19.5290  -28.7860   23.2780 C   0  0  0  0  0  0  0  0  0  0  0  0
  -19.2380  -29.9920   23.9500 C   0  0  0  0  0  3  0  0  0  0  0  0
  -17.9120  -30.4430   24.0810 C   0  0  0  0  0  3  0  0  0  0  0  0
  -16.8550  -29.6800   23.5580 C   0  0  0  0  0  3  0  0  0  0  0  0
  -17.1300  -28.4710   22.8930 C   0  0  0  0  0  3  0  0  0  0  0  0
  -26.1880  -32.5310   24.3460 C   0  0  0  0  0  3  0  0  0  0  0  0
  -25.8730  -33.9070   24.7450 N   0  0  0  0  0  0  0  0  0  0  0  0
  -26.2440  -34.9970   24.0580 C   0  0  0  0  0  0  0  0  0  0  0  0
  -26.9650  -34.9510   23.0590 O   0  0  0  0  0  0  0  0  0  0  0  0
  -25.2390  -34.0200   25.5230 H   0  0  0  0  0  0  0  0  0  0  0  0
  -24.5520  -36.8200   23.7140 C   0  0  0  0  0  1  0  0  0  0  0  0
  -25.7460  -36.3620   24.5680 C   0  0  0  0  0  3  0  0  0  0  0  0
  -27.8350  -37.1750   25.5700 C   0  0  0  0  0  1  0  0  0  0  0  0
  -26.7910  -37.4100   24.5740 N   0  0  0  0  0  0  0  0  0  0  0  0
  -26.3810  -38.3230   24.7520 H   0  0  0  0  0  0  0  0  0  0  0  0
  -26.6540  -31.6770   25.5850 C   0  0  1  0  0  0  0  0  0  0  0  0
  -25.5210  -31.3610   26.5860 C   0  0  0  0  0  1  0  0  0  0  0  0
  -27.2640  -30.3330   25.1190 C   0  0  0  0  0  1  0  0  0  0  0  0
  -27.7760  -32.4290   26.3450 C   0  0  0  0  0  1  0  0  0  0  0  0
  -29.7460  -18.6090   21.3890 C   0  0  0  0  0  2  0  0  0  0  0  0
  -30.8470  -17.6210   21.8260 C   0  0  0  0  0  2  0  0  0  0  0  0
  -32.2180  -17.6880   21.1060 C   0  0  0  0  0  2  0  0  0  0  0  0
  -32.3670  -17.1020   19.6730 C   0  0  0  0  0  3  0  0  0  0  0  0
  -32.0760  -14.6790   19.2080 C   0  0  0  0  0  0  0  0  0  0  0  0
  -31.6760  -12.2810   18.8430 C   0  0  0  0  0  2  0  0  0  0  0  0
  -30.6450  -12.0200   17.7290 C   0  0  0  0  0  2  0  0  0  0  0  0
  -29.2160  -12.0350   18.3000 C   0  0  0  0  0  2  0  0  0  0  0  0
  -28.9360  -13.2740   19.1910 C   0  0  0  0  0  3  0  0  0  0  0  0
  -30.0720  -13.4970   20.2170 C   0  0  0  0  0  2  0  0  0  0  0  0
  -31.3400  -13.5660   19.4760 N   0  0  0  0  0  0  0  0  0  0  0  0
  -33.1650  -14.6220   18.6380 O   0  0  0  0  0  0  0  0  0  0  0  0
  -31.5530  -15.8770   19.5160 N   0  0  0  0  0  0  0  0  0  0  0  0
  -30.5870  -15.9100   19.8000 H   0  0  0  0  0  0  0  0  0  0  0  0
  -26.7690  -14.1850   20.2470 C   0  0  0  0  0  0  0  0  0  0  0  0
  -25.6460  -13.5570   20.7060 C   0  0  0  0  0  0  0  0  0  0  0  0
  -25.8820  -12.1560   20.5510 C   0  0  0  0  0  0  0  0  0  0  0  0
  -27.6300  -13.1760   19.8380 N   0  0  0  0  0  0  0  0  0  0  0  0
  -27.1040  -11.9470   20.0800 N   0  0  0  0  0  0  0  0  0  0  0  0
  -24.9940  -11.0060   20.7630 C   0  0  0  0  0  0  0  0  0  0  0  0
  -25.3070   -9.9910   21.6960 C   0  0  0  0  0  3  0  0  0  0  0  0
  -24.4270   -8.9050   21.8940 C   0  0  0  0  0  3  0  0  0  0  0  0
  -23.2170   -8.8280   21.1660 C   0  0  0  0  0  0  0  0  0  0  0  0
  -22.9200   -9.8290   20.2250 C   0  0  0  0  0  3  0  0  0  0  0  0
  -23.7980  -10.9060   20.0230 C   0  0  0  0  0  3  0  0  0  0  0  0
  -22.3130   -7.8010   21.2800 O   0  0  0  0  0  0  0  0  0  0  0  0
  -22.0780   -7.1790   22.4820 C   0  0  0  0  0  0  0  0  0  0  0  0
  -21.6210   -7.8910   23.6120 C   0  0  0  0  0  3  0  0  0  0  0  0
  -21.3260   -7.2020   24.8050 C   0  0  0  0  0  3  0  0  0  0  0  0
  -21.4730   -5.8020   24.8650 C   0  0  0  0  0  0  0  0  0  0  0  0
  -21.9230   -5.0920   23.7390 C   0  0  0  0  0  3  0  0  0  0  0  0
  -22.2190   -5.7780   22.5480 C   0  0  0  0  0  0  0  0  0  0  0  0
  -22.6310   -5.0870   21.4600 F   0  0  0  0  0  0  0  0  0  0  0  0
  -21.1800   -5.1390   26.0090 F   0  0  0  0  0  0  0  0  0  0  0  0
  -24.3820  -14.2170   21.1760 C   0  0  0  0  0  0  0  0  0  0  0  0
  -23.6680  -13.5900   22.1050 N   0  0  0  0  0  0  0  0  0  0  0  0
  -24.0510  -15.3250   20.7570 O   0  0  0  0  0  0  0  0  0  0  0  0
  -23.9500  -12.6890   22.4650 H   0  0  0  0  0  0  0  0  0  0  0  0
  -22.8220  -14.0130   22.4600 H   0  0  0  0  0  0  0  0  0  0  0  0
  -27.1300  -15.5210   20.1150 N   0  0  0  0  0  0  0  0  0  0  0  0
  -26.5010  -16.2750   20.3670 H   0  0  0  0  0  0  0  0  0  0  0  0
  -27.9840  -15.8450   19.6780 H   0  0  0  0  0  0  0  0  0  0  0  0
  -32.2550  -18.1790   18.5450 C   0  0  0  0  0  2  0  0  0  0  0  0
  -32.4450  -17.7110   17.0770 C   0  0  0  0  0  2  0  0  0  0  0  0
  -32.2610  -18.8120   16.1070 N   0  0  0  0  0  4  0  0  0  0  0  0
  -31.3650  -19.2490   16.2310 H   0  0  0  0  0  0  0  0  0  0  0  0
  -32.3080  -18.4560   15.1670 H   0  0  0  0  0  0  0  0  0  0  0  0
  -32.9770  -19.5100   16.2160 H   0  0  0  0  0  0  0  0  0  0  0  0
  2  5  1  0
  2  1  1  0
  3  2  1  0
  4  2  1  0
  6  7  1  0
  6  5  1  0
  8  9  1  0
  8  7  1  0
  9 11  1  0
 10 21  2  0
 11 16  1  0
 12 20  1  0
 12 22  1  0
 13 19  1  0
 13 15  1  0
 14 20  1  0
 15 14  1  0
 16 15  2  0
 17 18  1  0
 17 11  2  0
 18 13  2  0
 19 12  1  0
 20 10  1  0
 22 24  2  0
 23 22  1  0
 25 23  1  0
 26 35  2  0
 26 31  1  0
 27 23  1  0
 27 31  1  0
 28 27  1  0
 29 30  1  0
 29 28  1  0
 30 26  1  0
 31 32  2  0
 32 33  1  0
 34 33  2  0
 35 34  1  0
 36 10  1  0
 36 37  1  0
 36 46  1  0
 37 40  1  0
 38 42  1  0
 38 37  1  0
 39 38  2  0
 42 41  1  0
 42 44  1  0
 44 45  1  0
 44 43  1  0
 46 49  1  1
 46 47  1  0
 48 46  1  0
 50 51  1  0
 50  1  1  0
 52 51  1  0
 53 92  1  0
 53 52  1  0
 54 60  1  0
 54 62  1  0
 55 60  1  0
 56 57  1  0
 56 55  1  0
 58 57  1  0
 58 67  1  0
 58 59  1  0
 60 59  1  0
 61 54  2  0
 62 53  1  0
 62 63  1  0
 64 65  2  0
 65 84  1  0
 66 65  1  0
 66 69  1  0
 67 68  1  0
 67 64  1  0
 68 66  2  0
 69 70  1  0
 70 71  2  0
 72 75  1  0
 72 71  1  0
 73 72  2  0
 74 73  1  0
 74 69  2  0
 75 76  1  0
 76 81  2  0
 76 77  1  0
 77 78  2  0
 78 79  1  0
 79 83  1  0
 80 79  2  0
 81 80  1  0
 82 81  1  0
 84 85  1  0
 85 88  1  0
 85 87  1  0
 86 84  2  0
 89 64  1  0
 89 90  1  0
 91 89  1  0
 93 92  1  0
 94 97  1  0
 94 95  1  0
 94 93  1  0
 96 94  1  0
M  ISO  4   8 101   9 101  54 100  62 100
M  END
>  <TORSDO>  (65) 
F 28

>  <SCORE>  (65) 
-8.887

>  <name>  (65) 
67

>  <ligand_id>  (65) 
67

>  <original_smiles>  (65) 
[H]c1c([H])c([H])c2c(c1[H])C([H])([H])C([H])([H])C([H])([H])C2([H])N([H])C(=O)C1([H])N(C(=O)C([H])(N([H])C(=O)C([H])(N([H])C([H])([H])[H])C([H])([H])[H])C(C([H])([H])[H])(C([H])([H])[H])C([H])([H])[H])C([H])([H])c2c([H])c(OC([H])([H])C([H])([H])C([H])([H])C([H])([H])[N+]([H])([H])C([H])([H])C([H])([H])C([H])([H])C([H])([H])C([H])(N([H])C(=O)N3C([H])([H])C([H])([H])C([H])([H])C([H])(n4nc(-c5c([H])c([H])c(Oc6c([H])c([H])c(F)c([H])c6F)c([H])c5[H])c(C(=O)N([H])[H])c4N([H])[H])C3([H])[H])C([H])([H])C([H])([H])[N+]([H])([H])[H])c([H])c([H])c2C1([H])[H]

>  <smiles>  (65) 
[H]c1c([H])c([H])c2c(c1[H])C([H])([H])C([H])([H])C([H])([H])C2([H])N([H])C(=O)C1([H])N(C(=O)C([H])(N([H])C(=O)C([H])(N([H])C([H])([H])[H])C([H])([H])[H])C(C([H])([H])[H])(C([H])([H])[H])C([H])([H])[H])C([H])([H])c2c([H])c(OC([H])([H])C([H])([H])C([H])([H])C([H])([H])[N+]([H])([H])C([H])([H])C([H])([H])C([H])([H])C([H])([H])C([H])(N([H])C(=O)N3C([H])([H])C([H])([H])C([H])([H])C([H])(n4nc(-c5c([H])c([H])c(Oc6c([H])c([H])c(F)c([H])c6F)c([H])c5[H])c(C(=O)N([H])[H])c4N([H])[H])C3([H])[H])C([H])([H])C([H])([H])[N+]([H])([H])[H])c([H])c([H])c2C1([H])[H]

$$$$
68:0:0
     RDKit          3D

 95102  0  0  1  0  0  0  0  0999 V2000
  -28.2820  -21.0940   22.0200 N   0  0  0  0  0  4  0  0  0  0  0  0
  -27.7120  -20.2810   21.8540 H   0  0  0  0  0  0  0  0  0  0  0  0
  -28.6140  -21.0560   22.9700 H   0  0  0  0  0  0  0  0  0  0  0  0
  -29.4510  -21.0300   21.1190 C   0  0  0  0  0  2  0  0  0  0  0  0
  -30.5210  -20.0600   21.6600 C   0  0  0  0  0  2  0  0  0  0  0  0
  -31.9560  -20.5940   21.5020 C   0  0  0  0  0  2  0  0  0  0  0  0
  -32.9190  -20.0310   22.5650 C   0  0  0  0  0  2  0  0  0  0  0  0
  -33.8450  -21.0140   23.0270 O   0  0  0  0  0  0  0  0  0  0  0  0
  -40.0740  -24.3360   22.3590 C   0  0  0  0  0  0  0  0  0  0  0  0
  -35.2030  -20.8420   22.8510 C   0  0  0  0  0  0  0  0  0  0  0  0
  -40.1210  -21.8980   21.9400 C   0  0  0  0  0  3  0  0  0  0  0  0
  -38.0130  -20.6190   22.5910 C   0  0  0  0  0  0  0  0  0  0  0  0
  -38.3820  -22.9150   23.5130 C   0  0  0  0  0  2  0  0  0  0  0  0
  -37.4500  -21.7920   23.1080 C   0  0  0  0  0  0  0  0  0  0  0  0
  -36.0490  -21.9050   23.2390 C   0  0  0  0  0  3  0  0  0  0  0  0
  -35.7870  -19.6690   22.3210 C   0  0  0  0  0  3  0  0  0  0  0  0
  -37.1850  -19.5550   22.1930 C   0  0  0  0  0  3  0  0  0  0  0  0
  -39.5200  -20.5740   22.4850 C   0  0  0  0  0  2  0  0  0  0  0  0
  -39.5210  -23.1110   22.5840 N   0  0  0  0  0  0  0  0  0  0  0  0
  -41.0900  -24.4600   21.6620 O   0  0  0  0  0  0  0  0  0  0  0  0
  -39.9950  -21.8960   20.3990 C   0  0  0  0  0  0  0  0  0  0  0  0
  -40.9660  -21.2630   19.7200 N   0  0  0  0  0  0  0  0  0  0  0  0
  -39.0310  -22.4290   19.8430 O   0  0  0  0  0  0  0  0  0  0  0  0
  -41.7290  -20.8660   20.2500 H   0  0  0  0  0  0  0  0  0  0  0  0
  -42.9890  -19.9530   17.0310 C   0  0  0  0  0  0  0  0  0  0  0  0
  -41.0340  -21.1010   18.2690 C   0  0  0  0  0  3  0  0  0  0  0  0
  -40.1720  -19.9060   17.7980 C   0  0  0  0  0  2  0  0  0  0  0  0
  -40.9580  -18.5960   17.6940 C   0  0  0  0  0  2  0  0  0  0  0  0
  -42.1210  -18.7480   16.7090 C   0  0  0  0  0  2  0  0  0  0  0  0
  -42.4840  -21.0500   17.7770 C   0  0  0  0  0  0  0  0  0  0  0  0
  -43.3450  -22.1270   18.0790 C   0  0  0  0  0  3  0  0  0  0  0  0
  -44.6860  -22.1180   17.6530 C   0  0  0  0  0  3  0  0  0  0  0  0
  -45.1780  -21.0370   16.9000 C   0  0  0  0  0  3  0  0  0  0  0  0
  -44.3270  -19.9610   16.5850 C   0  0  0  0  0  3  0  0  0  0  0  0
  -39.4720  -25.6340   22.9820 C   0  0  0  0  0  3  0  0  0  0  0  0
  -38.4660  -26.3780   22.0200 C   0  0  1  0  0  0  0  0  0  0  0  0
  -39.0270  -26.6230   20.6010 C   0  0  0  0  0  1  0  0  0  0  0  0
  -37.1550  -25.5700   21.8790 C   0  0  0  0  0  1  0  0  0  0  0  0
  -38.0790  -27.7490   22.6240 C   0  0  0  0  0  1  0  0  0  0  0  0
  -40.5920  -26.5130   23.3400 N   0  0  0  0  0  0  0  0  0  0  0  0
  -41.0840  -26.6500   24.5790 C   0  0  0  0  0  0  0  0  0  0  0  0
  -40.5870  -26.0930   25.5610 O   0  0  0  0  0  0  0  0  0  0  0  0
  -41.0760  -26.9610   22.5770 H   0  0  0  0  0  0  0  0  0  0  0  0
  -43.5820  -26.6660   24.8520 C   0  0  0  0  0  1  0  0  0  0  0  0
  -42.3250  -27.5440   24.7520 C   0  0  0  0  0  3  0  0  0  0  0  0
  -41.2300  -29.4770   25.7980 C   0  0  0  0  0  1  0  0  0  0  0  0
  -42.2460  -28.4360   25.9290 N   0  0  0  0  0  0  0  0  0  0  0  0
  -43.1410  -28.8870   26.1000 H   0  0  0  0  0  0  0  0  0  0  0  0
  -27.4330  -22.2950   21.8590 C   0  0  0  0  0  2  0  0  0  0  0  0
  -28.2380  -23.4870   21.3030 C   0  0  0  0  0  2  0  0  0  0  0  0
  -27.3870  -24.7190   20.9440 C   0  0  0  0  0  2  0  0  0  0  0  0
  -27.7770  -25.3740   19.5980 C   0  0  0  0  0  2  0  0  0  0  0  0
  -28.3890  -24.4050   18.5490 C   0  0  0  0  0  3  0  0  0  0  0  0
  -27.4390  -22.0430   18.1820 C   0  0  0  0  0  0  0  0  0  0  0  0
  -28.1220  -20.0520   16.8970 C   0  0  0  0  0  2  0  0  0  0  0  0
  -28.9550  -19.0570   17.7300 C   0  0  0  0  0  2  0  0  0  0  0  0
  -30.4490  -19.4320   17.7130 C   0  0  0  0  0  2  0  0  0  0  0  0
  -30.6820  -20.9280   18.0250 C   0  0  0  0  0  3  0  0  0  0  0  0
  -29.7630  -21.7910   17.1410 C   0  0  0  0  0  2  0  0  0  0  0  0
  -28.3570  -21.4230   17.3870 N   0  0  0  0  0  0  0  0  0  0  0  0
  -26.4400  -21.4580   18.6100 O   0  0  0  0  0  0  0  0  0  0  0  0
  -27.3920  -23.3890   18.1900 N   0  0  0  0  0  0  0  0  0  0  0  0
  -26.4590  -23.7070   18.4020 H   0  0  0  0  0  0  0  0  0  0  0  0
  -32.9470  -21.9320   18.7400 C   0  0  0  0  0  0  0  0  0  0  0  0
  -34.1660  -21.9840   18.1160 C   0  0  0  0  0  0  0  0  0  0  0  0
  -33.9830  -21.3550   16.8490 C   0  0  0  0  0  0  0  0  0  0  0  0
  -32.0880  -21.3000   17.8540 N   0  0  0  0  0  0  0  0  0  0  0  0
  -32.7160  -20.9930   16.6900 N   0  0  0  0  0  0  0  0  0  0  0  0
  -34.9560  -21.0220   15.7980 C   0  0  0  0  0  0  0  0  0  0  0  0
  -34.7270  -21.3690   14.4480 C   0  0  0  0  0  3  0  0  0  0  0  0
  -35.6800  -21.0510   13.4560 C   0  0  0  0  0  3  0  0  0  0  0  0
  -36.8770  -20.3810   13.8090 C   0  0  0  0  0  0  0  0  0  0  0  0
  -37.0880  -20.0180   15.1500 C   0  0  0  0  0  3  0  0  0  0  0  0
  -36.1360  -20.3310   16.1360 C   0  0  0  0  0  3  0  0  0  0  0  0
  -37.8480  -20.0130   12.9080 O   0  0  0  0  0  0  0  0  0  0  0  0
  -37.9710  -20.6230   11.6860 C   0  0  0  0  0  0  0  0  0  0  0  0
  -38.0910  -22.0230   11.5620 C   0  0  0  0  0  3  0  0  0  0  0  0
  -38.2850  -22.6040   10.2920 C   0  0  0  0  0  3  0  0  0  0  0  0
  -38.3660  -21.7880    9.1470 C   0  0  0  0  0  0  0  0  0  0  0  0
  -38.2490  -20.3920    9.2690 C   0  0  0  0  0  3  0  0  0  0  0  0
  -38.0540  -19.8130   10.5350 C   0  0  0  0  0  0  0  0  0  0  0  0
  -37.9590  -18.4650   10.6480 F   0  0  0  0  0  0  0  0  0  0  0  0
  -38.5610  -22.3470    7.9300 F   0  0  0  0  0  0  0  0  0  0  0  0
  -35.4490  -22.4960   18.7020 C   0  0  0  0  0  0  0  0  0  0  0  0
  -36.3360  -23.0310   17.8690 N   0  0  0  0  0  0  0  0  0  0  0  0
  -35.6540  -22.4660   19.9150 O   0  0  0  0  0  0  0  0  0  0  0  0
  -36.1700  -23.0640   16.8740 H   0  0  0  0  0  0  0  0  0  0  0  0
  -37.1990  -23.4070   18.2340 H   0  0  0  0  0  0  0  0  0  0  0  0
  -32.5060  -22.3520   19.9910 N   0  0  0  0  0  0  0  0  0  0  0  0
  -33.1380  -22.7540   20.6740 H   0  0  0  0  0  0  0  0  0  0  0  0
  -31.5720  -22.1980   20.3500 H   0  0  0  0  0  0  0  0  0  0  0  0
  -28.6230  -24.3260   15.9480 C   0  0  0  0  0  1  0  0  0  0  0  0
  -28.2770  -26.5060   17.0630 C   0  0  0  0  0  1  0  0  0  0  0  0
  -30.4530  -25.3010   17.3440 C   0  0  0  0  0  1  0  0  0  0  0  0
  -28.9270  -25.1200   17.2480 C   0  0  1  0  0  0  0  0  0  0  0  0
  1  3  1  0
  2  1  1  0
  4  5  1  0
  4  1  1  0
  6  5  1  0
  6  7  1  0
  7  8  1  0
  9 19  1  0
 10  8  1  0
 10 15  1  0
 11 21  1  0
 11 18  1  0
 11 19  1  0
 12 14  1  0
 14 15  2  0
 14 13  1  0
 16 10  2  0
 17 16  1  0
 17 12  2  0
 18 12  1  0
 19 13  1  0
 20  9  2  0
 22 24  1  0
 22 21  1  0
 23 21  2  0
 25 30  1  0
 26 22  1  0
 27 26  1  0
 28 27  1  0
 29 25  1  0
 29 28  1  0
 30 31  2  0
 30 26  1  0
 32 31  1  0
 33 32  2  0
 34 33  1  0
 34 25  2  0
 35  9  1  0
 35 40  1  0
 36 39  1  1
 36 35  1  0
 37 36  1  0
 38 36  1  0
 40 41  1  0
 41 45  1  0
 41 42  2  0
 43 40  1  0
 45 44  1  0
 45 47  1  0
 46 47  1  0
 47 48  1  0
 49  1  1  0
 50 49  1  0
 51 50  1  0
 52 51  1  0
 53 52  1  0
 54 62  1  0
 54 61  2  0
 55 60  1  0
 55 56  1  0
 57 56  1  0
 57 58  1  0
 58 59  1  0
 59 60  1  0
 60 54  1  0
 62 63  1  0
 62 53  1  0
 64 89  1  0
 65 84  1  0
 65 64  2  0
 66 65  1  0
 67 58  1  0
 67 64  1  0
 68 66  2  0
 68 67  1  0
 69 74  1  0
 69 66  1  0
 70 69  2  0
 71 72  2  0
 71 70  1  0
 72 73  1  0
 73 74  2  0
 75 72  1  0
 76 75  1  0
 77 76  1  0
 78 77  2  0
 79 80  2  0
 79 78  1  0
 80 81  1  0
 81 82  1  0
 81 76  2  0
 83 79  1  0
 84 86  2  0
 85 88  1  0
 85 84  1  0
 87 85  1  0
 89 91  1  0
 89 90  1  0
 95 92  1  6
 93 95  1  0
 95 94  1  0
 95 53  1  0
M  ISO  4   7 101   8 101  54 100  62 100
M  END
>  <TORSDO>  (66) 
F 26

>  <SCORE>  (66) 
-2.082

>  <name>  (66) 
68

>  <ligand_id>  (66) 
68

>  <original_smiles>  (66) 
[H]c1c([H])c([H])c2c(c1[H])C([H])([H])C([H])([H])C([H])([H])C2([H])N([H])C(=O)C1([H])N(C(=O)C([H])(N([H])C(=O)C([H])(N([H])C([H])([H])[H])C([H])([H])[H])C(C([H])([H])[H])(C([H])([H])[H])C([H])([H])[H])C([H])([H])c2c([H])c(OC([H])([H])C([H])([H])C([H])([H])C([H])([H])[N+]([H])([H])C([H])([H])C([H])([H])C([H])([H])C([H])([H])C([H])(N([H])C(=O)N3C([H])([H])C([H])([H])C([H])([H])C([H])(n4nc(-c5c([H])c([H])c(Oc6c([H])c([H])c(F)c([H])c6F)c([H])c5[H])c(C(=O)N([H])[H])c4N([H])[H])C3([H])[H])C(C([H])([H])[H])(C([H])([H])[H])C([H])([H])[H])c([H])c([H])c2C1([H])[H]

>  <smiles>  (66) 
[H]c1c([H])c([H])c2c(c1[H])C([H])([H])C([H])([H])C([H])([H])C2([H])N([H])C(=O)C1([H])N(C(=O)C([H])(N([H])C(=O)C([H])(N([H])C([H])([H])[H])C([H])([H])[H])C(C([H])([H])[H])(C([H])([H])[H])C([H])([H])[H])C([H])([H])c2c([H])c(OC([H])([H])C([H])([H])C([H])([H])C([H])([H])[N+]([H])([H])C([H])([H])C([H])([H])C([H])([H])C([H])([H])C([H])(N([H])C(=O)N3C([H])([H])C([H])([H])C([H])([H])C([H])(n4nc(-c5c([H])c([H])c(Oc6c([H])c([H])c(F)c([H])c6F)c([H])c5[H])c(C(=O)N([H])[H])c4N([H])[H])C3([H])[H])C(C([H])([H])[H])(C([H])([H])[H])C([H])([H])[H])c([H])c([H])c2C1([H])[H]

$$$$
69:0:0
     RDKit          3D

 99107  0  0  1  0  0  0  0  0999 V2000
  -29.7660  -18.5830   21.3880 C   0  0  0  0  0  3  0  0  0  0  0  0
  -31.0290  -18.1470   25.6590 C   0  0  0  0  0  2  0  0  0  0  0  0
  -31.3610  -17.0220   24.6670 C   0  0  0  0  0  2  0  0  0  0  0  0
  -29.6630  -18.7730   25.3400 C   0  0  0  0  0  2  0  0  0  0  0  0
  -31.3060  -17.5200   23.2140 C   0  0  0  0  0  2  0  0  0  0  0  0
  -29.6080  -19.2840   23.8910 C   0  0  0  0  0  2  0  0  0  0  0  0
  -29.9330  -18.1540   22.8830 C   0  0  0  0  0  3  0  0  0  0  0  0
  -30.3270  -20.0390   21.1310 C   0  0  0  0  0  2  0  0  0  0  0  0
  -29.4330  -20.9650   20.3700 N   0  0  0  0  0  4  0  0  0  0  0  0
  -29.3220  -20.6160   19.4330 H   0  0  0  0  0  0  0  0  0  0  0  0
  -28.5260  -20.9660   20.8100 H   0  0  0  0  0  0  0  0  0  0  0  0
  -29.9040  -22.3830   20.2940 C   0  0  0  0  0  2  0  0  0  0  0  0
  -28.8910  -23.3400   19.5950 C   0  0  0  0  0  2  0  0  0  0  0  0
  -29.2330  -24.8640   19.6490 C   0  0  0  0  0  2  0  0  0  0  0  0
  -28.0990  -25.7560   19.0760 C   0  0  0  0  0  2  0  0  0  0  0  0
  -28.2220  -27.1780   19.3300 O   0  0  0  0  0  0  0  0  0  0  0  0
  -24.4280  -31.9080   23.0980 C   0  0  0  0  0  0  0  0  0  0  0  0
  -27.0340  -27.8900   19.4300 C   0  0  0  0  0  0  0  0  0  0  0  0
  -23.1720  -30.6110   21.4120 C   0  0  0  0  0  3  0  0  0  0  0  0
  -24.5840  -29.2970   19.7430 C   0  0  0  0  0  0  0  0  0  0  0  0
  -25.6630  -31.1070   21.0830 C   0  0  0  0  0  2  0  0  0  0  0  0
  -25.7620  -29.8100   20.3030 C   0  0  0  0  0  0  0  0  0  0  0  0
  -26.9880  -29.1170   20.1410 C   0  0  0  0  0  3  0  0  0  0  0  0
  -25.8320  -27.4110   18.8540 C   0  0  0  0  0  3  0  0  0  0  0  0
  -24.6170  -28.0990   19.0130 C   0  0  0  0  0  3  0  0  0  0  0  0
  -23.3100  -30.0820   19.9610 C   0  0  0  0  0  2  0  0  0  0  0  0
  -24.4420  -31.2180   21.9220 N   0  0  0  0  0  0  0  0  0  0  0  0
  -23.3770  -32.0730   23.7330 O   0  0  0  0  0  0  0  0  0  0  0  0
  -22.6360  -29.4690   22.3070 C   0  0  0  0  0  0  0  0  0  0  0  0
  -21.3250  -29.1900   22.2050 N   0  0  0  0  0  0  0  0  0  0  0  0
  -23.3940  -28.8410   23.0510 O   0  0  0  0  0  0  0  0  0  0  0  0
  -20.7690  -29.7560   21.5790 H   0  0  0  0  0  0  0  0  0  0  0  0
  -18.0820  -27.6670   22.6740 C   0  0  0  0  0  0  0  0  0  0  0  0
  -20.6130  -28.1340   22.9240 C   0  0  0  0  0  3  0  0  0  0  0  0
  -20.8290  -26.7590   22.2510 C   0  0  0  0  0  2  0  0  0  0  0  0
  -19.7390  -26.4050   21.2350 C   0  0  0  0  0  2  0  0  0  0  0  0
  -18.3620  -26.3850   21.9070 C   0  0  0  0  0  2  0  0  0  0  0  0
  -19.1390  -28.4950   23.1360 C   0  0  0  0  0  0  0  0  0  0  0  0
  -18.8220  -29.6920   23.8140 C   0  0  0  0  0  3  0  0  0  0  0  0
  -17.4830  -30.0640   24.0330 C   0  0  0  0  0  3  0  0  0  0  0  0
  -16.4420  -29.2320   23.5870 C   0  0  0  0  0  3  0  0  0  0  0  0
  -16.7420  -28.0350   22.9130 C   0  0  0  0  0  3  0  0  0  0  0  0
  -25.7260  -32.5420   23.6880 C   0  0  0  0  0  3  0  0  0  0  0  0
  -26.3270  -31.7190   24.8930 C   0  0  1  0  0  0  0  0  0  0  0  0
  -25.2910  -31.3800   25.9910 C   0  0  0  0  0  1  0  0  0  0  0  0
  -26.9400  -30.3890   24.3940 C   0  0  0  0  0  1  0  0  0  0  0  0
  -27.4770  -32.5180   25.5510 C   0  0  0  0  0  1  0  0  0  0  0  0
  -25.3990  -33.9100   24.1080 N   0  0  0  0  0  0  0  0  0  0  0  0
  -25.6830  -35.0130   23.4000 C   0  0  0  0  0  0  0  0  0  0  0  0
  -26.3210  -34.9830   22.3440 O   0  0  0  0  0  0  0  0  0  0  0  0
  -24.8290  -34.0070   24.9360 H   0  0  0  0  0  0  0  0  0  0  0  0
  -23.9150  -36.7870   23.1880 C   0  0  0  0  0  1  0  0  0  0  0  0
  -25.1790  -36.3600   23.9510 C   0  0  0  0  0  3  0  0  0  0  0  0
  -27.3090  -37.2360   24.8000 C   0  0  0  0  0  1  0  0  0  0  0  0
  -26.1890  -37.4370   23.8830 N   0  0  0  0  0  0  0  0  0  0  0  0
  -25.7690  -38.3400   24.0890 H   0  0  0  0  0  0  0  0  0  0  0  0
  -30.3620  -17.4910   20.4130 C   0  0  0  0  0  3  0  0  0  0  0  0
  -30.9020  -15.0220   20.5710 C   0  0  0  0  0  0  0  0  0  0  0  0
  -30.7740  -12.7300   19.6750 C   0  0  0  0  0  2  0  0  0  0  0  0
  -29.8850  -12.7400   18.4140 C   0  0  0  0  0  2  0  0  0  0  0  0
  -28.4030  -12.5560   18.7930 C   0  0  0  0  0  2  0  0  0  0  0  0
  -27.9520  -13.4960   19.9440 C   0  0  0  0  0  3  0  0  0  0  0  0
  -28.9670  -13.4850   21.1110 C   0  0  0  0  0  2  0  0  0  0  0  0
  -30.2960  -13.8020   20.5650 N   0  0  0  0  0  0  0  0  0  0  0  0
  -32.0520  -15.1880   20.1620 O   0  0  0  0  0  0  0  0  0  0  0  0
  -30.1050  -16.0830   20.8310 N   0  0  0  0  0  0  0  0  0  0  0  0
  -29.1760  -15.8670   21.1550 H   0  0  0  0  0  0  0  0  0  0  0  0
  -25.5730  -14.0320   20.7710 C   0  0  0  0  0  0  0  0  0  0  0  0
  -24.4930  -13.2350   21.0330 C   0  0  0  0  0  0  0  0  0  0  0  0
  -24.9220  -11.8970   20.7840 C   0  0  0  0  0  0  0  0  0  0  0  0
  -26.5970  -13.1770   20.3930 N   0  0  0  0  0  0  0  0  0  0  0  0
  -26.2090  -11.8780   20.4570 N   0  0  0  0  0  0  0  0  0  0  0  0
  -24.1670  -10.6380   20.7830 C   0  0  0  0  0  0  0  0  0  0  0  0
  -24.5830   -9.5250   21.5430 C   0  0  0  0  0  3  0  0  0  0  0  0
  -23.8280   -8.3320   21.5410 C   0  0  0  0  0  3  0  0  0  0  0  0
  -22.6420   -8.2460   20.7740 C   0  0  0  0  0  0  0  0  0  0  0  0
  -22.2440   -9.3490   20.0000 C   0  0  0  0  0  3  0  0  0  0  0  0
  -22.9990  -10.5340   19.9990 C   0  0  0  0  0  3  0  0  0  0  0  0
  -21.8590   -7.1200   20.6900 O   0  0  0  0  0  0  0  0  0  0  0  0
  -21.8160   -6.1970   21.7040 C   0  0  0  0  0  0  0  0  0  0  0  0
  -21.4080   -6.5450   23.0110 C   0  0  0  0  0  3  0  0  0  0  0  0
  -21.3120   -5.5510   24.0060 C   0  0  0  0  0  3  0  0  0  0  0  0
  -21.6120   -4.2110   23.6950 C   0  0  0  0  0  0  0  0  0  0  0  0
  -22.0110   -3.8620   22.3930 C   0  0  0  0  0  3  0  0  0  0  0  0
  -22.1100   -4.8530   21.3990 C   0  0  0  0  0  0  0  0  0  0  0  0
  -22.4760   -4.5090   20.1410 F   0  0  0  0  0  0  0  0  0  0  0  0
  -21.5120   -3.2550   24.6470 F   0  0  0  0  0  0  0  0  0  0  0  0
  -23.1110  -13.6970   21.3970 C   0  0  0  0  0  0  0  0  0  0  0  0
  -22.3880  -12.9080   22.1840 N   0  0  0  0  0  0  0  0  0  0  0  0
  -22.6820  -14.7880   21.0230 O   0  0  0  0  0  0  0  0  0  0  0  0
  -22.7490  -12.0230   22.5080 H   0  0  0  0  0  0  0  0  0  0  0  0
  -21.4630  -13.1950   22.4690 H   0  0  0  0  0  0  0  0  0  0  0  0
  -25.7540  -15.4080   20.8000 N   0  0  0  0  0  0  0  0  0  0  0  0
  -24.9870  -16.0420   21.0020 H   0  0  0  0  0  0  0  0  0  0  0  0
  -26.5820  -15.8840   20.4720 H   0  0  0  0  0  0  0  0  0  0  0  0
  -28.5540  -17.0370   18.6460 C   0  0  0  0  0  1  0  0  0  0  0  0
  -29.9240  -17.6800   18.9300 C   0  0  0  0  0  3  0  0  0  0  0  0
  -30.9510  -17.8260   16.5570 C   0  0  0  0  0  1  0  0  0  0  0  0
  -30.9940  -17.1610   17.9410 C   0  0  0  0  0  2  0  0  0  0  0  0
  1  8  1  0
  1  7  1  0
  3  2  1  0
  4  2  1  0
  5  3  1  0
  6  4  1  0
  7  5  1  0
  7  6  1  0
  9 11  1  0
  9  8  1  0
 10  9  1  0
 12  9  1  0
 13 14  1  0
 13 12  1  0
 15 16  1  0
 15 14  1  0
 16 18  1  0
 17 28  2  0
 18 23  1  0
 19 27  1  0
 19 29  1  0
 20 26  1  0
 20 22  1  0
 21 27  1  0
 22 21  1  0
 23 22  2  0
 24 25  1  0
 24 18  2  0
 25 20  2  0
 26 19  1  0
 27 17  1  0
 29 31  2  0
 30 29  1  0
 32 30  1  0
 33 42  2  0
 33 38  1  0
 34 30  1  0
 34 38  1  0
 35 34  1  0
 36 37  1  0
 36 35  1  0
 37 33  1  0
 38 39  2  0
 39 40  1  0
 41 40  2  0
 42 41  1  0
 43 17  1  0
 43 48  1  0
 43 44  1  0
 44 47  1  1
 44 45  1  0
 46 44  1  0
 48 51  1  0
 49 53  1  0
 49 48  1  0
 50 49  2  0
 53 52  1  0
 55 53  1  0
 55 56  1  0
 55 54  1  0
 57 66  1  0
 57  1  1  0
 58 66  1  0
 59 64  1  0
 60 61  1  0
 60 59  1  0
 62 61  1  0
 62 71  1  0
 62 63  1  0
 64 58  1  0
 64 63  1  0
 65 58  2  0
 66 67  1  0
 68 93  1  0
 68 69  2  0
 69 88  1  0
 70 69  1  0
 71 72  1  0
 71 68  1  0
 72 70  2  0
 73 70  1  0
 73 74  1  0
 75 74  2  0
 76 75  1  0
 77 76  2  0
 78 77  1  0
 78 73  2  0
 79 76  1  0
 79 80  1  0
 80 81  1  0
 81 82  2  0
 83 82  1  0
 83 87  1  0
 84 83  2  0
 85 80  2  0
 85 84  1  0
 86 85  1  0
 88 89  1  0
 89 92  1  0
 89 91  1  0
 90 88  2  0
 93 94  1  0
 95 93  1  0
 97 96  1  0
 97 57  1  0
 98 99  1  0
 99 97  1  0
M  ISO  4  15 101  16 101  58 100  66 100
M  END
>  <TORSDO>  (67) 
F 26

>  <SCORE>  (67) 
0.611

>  <name>  (67) 
69

>  <ligand_id>  (67) 
69

>  <original_smiles>  (67) 
[H]c1c([H])c([H])c2c(c1[H])C([H])([H])C([H])([H])C([H])([H])C2([H])N([H])C(=O)C1([H])N(C(=O)C([H])(N([H])C(=O)C([H])(N([H])C([H])([H])[H])C([H])([H])[H])C(C([H])([H])[H])(C([H])([H])[H])C([H])([H])[H])C([H])([H])c2c([H])c(OC([H])([H])C([H])([H])C([H])([H])C([H])([H])[N+]([H])([H])C([H])([H])C([H])(C([H])(N([H])C(=O)N3C([H])([H])C([H])([H])C([H])([H])C([H])(n4nc(-c5c([H])c([H])c(Oc6c([H])c([H])c(F)c([H])c6F)c([H])c5[H])c(C(=O)N([H])[H])c4N([H])[H])C3([H])[H])C([H])(C([H])([H])[H])C([H])([H])C([H])([H])[H])C3([H])C([H])([H])C([H])([H])C([H])([H])C([H])([H])C3([H])[H])c([H])c([H])c2C1([H])[H]

>  <smiles>  (67) 
[H]c1c([H])c([H])c2c(c1[H])C([H])([H])C([H])([H])C([H])([H])C2([H])N([H])C(=O)C1([H])N(C(=O)C([H])(N([H])C(=O)C([H])(N([H])C([H])([H])[H])C([H])([H])[H])C(C([H])([H])[H])(C([H])([H])[H])C([H])([H])[H])C([H])([H])c2c([H])c(OC([H])([H])C([H])([H])C([H])([H])C([H])([H])[N+]([H])([H])C([H])([H])C([H])(C([H])(N([H])C(=O)N3C([H])([H])C([H])([H])C([H])([H])C([H])(n4nc(-c5c([H])c([H])c(Oc6c([H])c([H])c(F)c([H])c6F)c([H])c5[H])c(C(=O)N([H])[H])c4N([H])[H])C3([H])[H])C([H])(C([H])([H])[H])C([H])([H])C([H])([H])[H])C3([H])C([H])([H])C([H])([H])C([H])([H])C([H])([H])C3([H])[H])c([H])c([H])c2C1([H])[H]

$$$$
70:0:0
     RDKit          3D

 95102  0  0  1  0  0  0  0  0999 V2000
  -28.9130  -21.3930   20.2780 C   0  0  0  0  0  3  0  0  0  0  0  0
  -31.2110  -22.4260   20.8680 C   0  0  0  0  0  1  0  0  0  0  0  0
  -29.1360  -23.6060   21.6080 C   0  0  0  0  0  1  0  0  0  0  0  0
  -29.7560  -22.2110   21.3420 C   0  0  1  0  0  0  0  0  0  0  0  0
  -30.7790  -21.8850   23.7570 C   0  0  0  0  0  1  0  0  0  0  0  0
  -29.7330  -21.4590   22.7100 C   0  0  0  0  0  2  0  0  0  0  0  0
  -28.1600  -22.2490   19.2030 C   0  0  0  0  0  2  0  0  0  0  0  0
  -29.0470  -23.1050   18.3720 N   0  0  0  0  0  4  0  0  0  0  0  0
  -29.7910  -23.4850   18.9370 H   0  0  0  0  0  0  0  0  0  0  0  0
  -29.4740  -22.5020   17.6870 H   0  0  0  0  0  0  0  0  0  0  0  0
  -28.3740  -24.2020   17.6220 C   0  0  0  0  0  2  0  0  0  0  0  0
  -27.9360  -25.3800   18.5130 C   0  0  0  0  0  2  0  0  0  0  0  0
  -27.8080  -26.5940   17.7500 O   0  0  0  0  0  0  0  0  0  0  0  0
  -25.1720  -30.5750   23.0160 C   0  0  0  0  0  0  0  0  0  0  0  0
  -26.7800  -27.4000   18.1800 C   0  0  0  0  0  0  0  0  0  0  0  0
  -23.5850  -29.9560   21.2230 C   0  0  0  0  0  3  0  0  0  0  0  0
  -24.6240  -28.9620   19.1180 C   0  0  0  0  0  0  0  0  0  0  0  0
  -26.0830  -30.1960   20.7290 C   0  0  0  0  0  2  0  0  0  0  0  0
  -25.9080  -29.1550   19.6430 C   0  0  0  0  0  0  0  0  0  0  0  0
  -26.9940  -28.3820   19.1710 C   0  0  0  0  0  3  0  0  0  0  0  0
  -25.4870  -27.2400   17.6390 C   0  0  0  0  0  3  0  0  0  0  0  0
  -24.4070  -28.0070   18.1100 C   0  0  0  0  0  3  0  0  0  0  0  0
  -23.5130  -29.8200   19.6790 C   0  0  0  0  0  2  0  0  0  0  0  0
  -24.9740  -30.2350   21.7110 N   0  0  0  0  0  0  0  0  0  0  0  0
  -24.2180  -30.7030   23.7950 O   0  0  0  0  0  0  0  0  0  0  0  0
  -22.9540  -28.6970   21.8590 C   0  0  0  0  0  0  0  0  0  0  0  0
  -21.6200  -28.5770   21.7520 N   0  0  0  0  0  0  0  0  0  0  0  0
  -23.6580  -27.8430   22.4080 O   0  0  0  0  0  0  0  0  0  0  0  0
  -21.1150  -29.3230   21.2950 H   0  0  0  0  0  0  0  0  0  0  0  0
  -18.2640  -27.2470   21.8710 C   0  0  0  0  0  0  0  0  0  0  0  0
  -20.8120  -27.4630   22.2450 C   0  0  0  0  0  3  0  0  0  0  0  0
  -20.9490  -26.2270   21.3240 C   0  0  0  0  0  2  0  0  0  0  0  0
  -19.8660  -26.1590   20.2440 C   0  0  0  0  0  2  0  0  0  0  0  0
  -18.4720  -26.1150   20.8770 C   0  0  0  0  0  2  0  0  0  0  0  0
  -19.3620  -27.8890   22.5000 C   0  0  0  0  0  0  0  0  0  0  0  0
  -19.1120  -28.9590   23.3870 C   0  0  0  0  0  3  0  0  0  0  0  0
  -17.7960  -29.3820   23.6520 C   0  0  0  0  0  3  0  0  0  0  0  0
  -16.7120  -28.7310   23.0380 C   0  0  0  0  0  3  0  0  0  0  0  0
  -16.9470  -27.6650   22.1520 C   0  0  0  0  0  3  0  0  0  0  0  0
  -26.6000  -30.8460   23.5830 C   0  0  0  0  0  3  0  0  0  0  0  0
  -27.1950  -29.6220   24.3840 C   0  0  1  0  0  0  0  0  0  0  0  0
  -26.2480  -29.0710   25.4750 C   0  0  0  0  0  1  0  0  0  0  0  0
  -27.5350  -28.4580   23.4220 C   0  0  0  0  0  1  0  0  0  0  0  0
  -28.5210  -30.0370   25.0650 C   0  0  0  0  0  1  0  0  0  0  0  0
  -26.5170  -32.0350   24.4410 N   0  0  0  0  0  0  0  0  0  0  0  0
  -26.9510  -33.2540   24.0940 C   0  0  0  0  0  0  0  0  0  0  0  0
  -27.5370  -33.4790   23.0310 O   0  0  0  0  0  0  0  0  0  0  0  0
  -25.9990  -31.9350   25.3020 H   0  0  0  0  0  0  0  0  0  0  0  0
  -25.5100  -35.2540   24.5890 C   0  0  0  0  0  1  0  0  0  0  0  0
  -26.6950  -34.4070   25.0810 C   0  0  0  0  0  3  0  0  0  0  0  0
  -28.9550  -34.6140   26.0140 C   0  0  0  0  0  1  0  0  0  0  0  0
  -27.8730  -35.2760   25.2900 N   0  0  0  0  0  0  0  0  0  0  0  0
  -27.6160  -36.1150   25.8030 H   0  0  0  0  0  0  0  0  0  0  0  0
  -29.6310  -20.1950   19.5650 C   0  0  0  0  0  2  0  0  0  0  0  0
  -29.5800  -18.7670   20.1810 C   0  0  0  0  0  2  0  0  0  0  0  0
  -30.6820  -18.4600   21.2250 C   0  0  0  0  0  2  0  0  0  0  0  0
  -31.6060  -17.2780   20.8700 C   0  0  0  0  0  2  0  0  0  0  0  0
  -31.4680  -14.9470   20.0490 C   0  0  0  0  0  0  0  0  0  0  0  0
  -31.1170  -12.6710   19.1710 C   0  0  0  0  0  2  0  0  0  0  0  0
  -30.1760  -12.7100   17.9530 C   0  0  0  0  0  2  0  0  0  0  0  0
  -28.7060  -12.6320   18.4030 C   0  0  0  0  0  2  0  0  0  0  0  0
  -28.3720  -13.6420   19.5340 C   0  0  0  0  0  3  0  0  0  0  0  0
  -29.4280  -13.5850   20.6620 C   0  0  0  0  0  2  0  0  0  0  0  0
  -30.7540  -13.7910   20.0550 N   0  0  0  0  0  0  0  0  0  0  0  0
  -32.5490  -15.0610   19.4650 O   0  0  0  0  0  0  0  0  0  0  0  0
  -30.9170  -15.9970   20.6780 N   0  0  0  0  0  0  0  0  0  0  0  0
  -30.0190  -15.8620   21.1160 H   0  0  0  0  0  0  0  0  0  0  0  0
  -26.0430  -14.3670   20.3580 C   0  0  0  0  0  0  0  0  0  0  0  0
  -24.9370  -13.6480   20.7250 C   0  0  0  0  0  0  0  0  0  0  0  0
  -25.3030  -12.2730   20.6080 C   0  0  0  0  0  0  0  0  0  0  0  0
  -27.0190  -13.4320   20.0460 N   0  0  0  0  0  0  0  0  0  0  0  0
  -26.5780  -12.1640   20.2520 N   0  0  0  0  0  0  0  0  0  0  0  0
  -24.5000  -11.0530   20.7600 C   0  0  0  0  0  0  0  0  0  0  0  0
  -24.8300  -10.0640   21.7110 C   0  0  0  0  0  3  0  0  0  0  0  0
  -24.0310   -8.9080   21.8490 C   0  0  0  0  0  3  0  0  0  0  0  0
  -22.8880   -8.7340   21.0350 C   0  0  0  0  0  0  0  0  0  0  0  0
  -22.5760   -9.7110   20.0730 C   0  0  0  0  0  3  0  0  0  0  0  0
  -23.3760  -10.8590   19.9320 C   0  0  0  0  0  3  0  0  0  0  0  0
  -22.0660   -7.6330   21.0820 O   0  0  0  0  0  0  0  0  0  0  0  0
  -21.8140   -6.9740   22.2590 C   0  0  0  0  0  0  0  0  0  0  0  0
  -21.2240   -7.6230   23.3660 C   0  0  0  0  0  3  0  0  0  0  0  0
  -20.9190   -6.8900   24.5300 C   0  0  0  0  0  3  0  0  0  0  0  0
  -21.1920   -5.5100   24.5880 C   0  0  0  0  0  0  0  0  0  0  0  0
  -21.7750   -4.8620   23.4840 C   0  0  0  0  0  3  0  0  0  0  0  0
  -22.0820   -5.5920   22.3220 C   0  0  0  0  0  0  0  0  0  0  0  0
  -22.6230   -4.9560   21.2550 F   0  0  0  0  0  0  0  0  0  0  0  0
  -20.8920   -4.8060   25.7030 F   0  0  0  0  0  0  0  0  0  0  0  0
  -23.5860  -14.2030   21.0730 C   0  0  0  0  0  0  0  0  0  0  0  0
  -22.8460  -13.5160   21.9370 N   0  0  0  0  0  0  0  0  0  0  0  0
  -23.1990  -15.2770   20.6160 O   0  0  0  0  0  0  0  0  0  0  0  0
  -23.1710  -12.6430   22.3270 H   0  0  0  0  0  0  0  0  0  0  0  0
  -21.9390  -13.8690   22.2110 H   0  0  0  0  0  0  0  0  0  0  0  0
  -26.2960  -15.7310   20.2450 N   0  0  0  0  0  0  0  0  0  0  0  0
  -25.5860  -16.4320   20.4250 H   0  0  0  0  0  0  0  0  0  0  0  0
  -27.1680  -16.1270   19.9180 H   0  0  0  0  0  0  0  0  0  0  0  0
  1  7  1  0
  1  4  1  0
  4  2  1  6
  4  3  1  0
  4  6  1  0
  6  5  1  0
  8  9  1  0
  8  7  1  0
 10  8  1  0
 11  8  1  0
 11 12  1  0
 13 15  1  0
 13 12  1  0
 14 25  2  0
 15 20  1  0
 16 24  1  0
 16 26  1  0
 17 19  1  0
 17 23  1  0
 18 24  1  0
 19 18  1  0
 20 19  2  0
 21 22  1  0
 21 15  2  0
 22 17  2  0
 23 16  1  0
 24 14  1  0
 26 28  2  0
 27 26  1  0
 29 27  1  0
 30 39  2  0
 30 35  1  0
 31 27  1  0
 31 35  1  0
 32 31  1  0
 33 34  1  0
 33 32  1  0
 34 30  1  0
 35 36  2  0
 36 37  1  0
 38 37  2  0
 39 38  1  0
 40 14  1  0
 40 41  1  0
 40 45  1  0
 41 44  1  1
 41 42  1  0
 43 41  1  0
 45 48  1  0
 46 45  1  0
 46 50  1  0
 47 46  2  0
 50 49  1  0
 50 52  1  0
 52 53  1  0
 52 51  1  0
 54 55  1  0
 54  1  1  0
 55 56  1  0
 57 56  1  0
 58 64  1  0
 58 66  1  0
 59 64  1  0
 60 61  1  0
 60 59  1  0
 62 61  1  0
 62 71  1  0
 62 63  1  0
 64 63  1  0
 65 58  2  0
 66 57  1  0
 66 67  1  0
 68 69  2  0
 69 88  1  0
 70 69  1  0
 70 73  1  0
 71 72  1  0
 71 68  1  0
 72 70  2  0
 73 74  1  0
 74 75  2  0
 76 79  1  0
 76 75  1  0
 77 76  2  0
 78 77  1  0
 78 73  2  0
 79 80  1  0
 80 85  2  0
 80 81  1  0
 81 82  2  0
 82 83  1  0
 83 87  1  0
 84 83  2  0
 85 84  1  0
 86 85  1  0
 88 89  1  0
 89 92  1  0
 89 91  1  0
 90 88  2  0
 93 68  1  0
 93 94  1  0
 95 93  1  0
M  ISO  4  12 101  13 101  58 100  66 100
M  END
>  <TORSDO>  (68) 
F 26

>  <SCORE>  (68) 
-9.187

>  <name>  (68) 
70

>  <ligand_id>  (68) 
70

>  <original_smiles>  (68) 
[H]c1c([H])c([H])c2c(c1[H])C([H])([H])C([H])([H])C([H])([H])C2([H])N([H])C(=O)C1([H])N(C(=O)C([H])(N([H])C(=O)C([H])(N([H])C([H])([H])[H])C([H])([H])[H])C(C([H])([H])[H])(C([H])([H])[H])C([H])([H])[H])C([H])([H])c2c([H])c(OC([H])([H])C([H])([H])[N+]([H])([H])C([H])([H])C([H])(C([H])([H])C([H])([H])C([H])([H])C([H])([H])N([H])C(=O)N3C([H])([H])C([H])([H])C([H])([H])C([H])(n4nc(-c5c([H])c([H])c(Oc6c([H])c([H])c(F)c([H])c6F)c([H])c5[H])c(C(=O)N([H])[H])c4N([H])[H])C3([H])[H])C(C([H])([H])[H])(C([H])([H])[H])C([H])([H])C([H])([H])[H])c([H])c([H])c2C1([H])[H]

>  <smiles>  (68) 
[H]c1c([H])c([H])c2c(c1[H])C([H])([H])C([H])([H])C([H])([H])C2([H])N([H])C(=O)C1([H])N(C(=O)C([H])(N([H])C(=O)C([H])(N([H])C([H])([H])[H])C([H])([H])[H])C(C([H])([H])[H])(C([H])([H])[H])C([H])([H])[H])C([H])([H])c2c([H])c(OC([H])([H])C([H])([H])[N+]([H])([H])C([H])([H])C([H])(C([H])([H])C([H])([H])C([H])([H])C([H])([H])N([H])C(=O)N3C([H])([H])C([H])([H])C([H])([H])C([H])(n4nc(-c5c([H])c([H])c(Oc6c([H])c([H])c(F)c([H])c6F)c([H])c5[H])c(C(=O)N([H])[H])c4N([H])[H])C3([H])[H])C(C([H])([H])[H])(C([H])([H])[H])C([H])([H])C([H])([H])[H])c([H])c([H])c2C1([H])[H]

$$$$
71:0:0
     RDKit          3D

 89 97  0  0  1  0  0  0  0  0999 V2000
  -29.4570  -20.4040   18.0830 C   0  0  0  0  0  3  0  0  0  0  0  0
  -29.7510  -18.8900   18.4580 C   0  0  0  0  0  3  0  0  0  0  0  0
  -29.6180  -20.2420   20.7190 C   0  0  0  0  0  3  0  0  0  0  0  0
  -28.3090  -21.1910   18.8510 C   0  0  0  0  0  0  0  0  0  0  0  0
  -28.7210  -21.8320   20.2600 C   0  0  0  0  0  0  0  0  0  0  0  0
  -29.5600  -18.5240   19.9470 C   0  0  0  0  0  0  0  0  0  0  0  0
  -30.5680  -15.4710   19.9220 C   0  0  0  0  0  0  0  0  0  0  0  0
  -30.5490  -12.9830   18.9480 C   0  0  0  0  0  2  0  0  0  0  0  0
  -29.5390  -12.7040   17.7970 C   0  0  0  0  0  2  0  0  0  0  0  0
  -28.1530  -12.3450   18.3510 C   0  0  0  0  0  2  0  0  0  0  0  0
  -27.7760  -13.2590   19.5380 C   0  0  0  0  0  3  0  0  0  0  0  0
  -28.9130  -13.4430   20.5700 C   0  0  0  0  0  2  0  0  0  0  0  0
  -30.0390  -14.1040   19.8650 N   0  0  0  0  0  0  0  0  0  0  0  0
  -31.7180  -15.4450   19.4410 O   0  0  0  0  0  0  0  0  0  0  0  0
  -29.2610  -16.6640   21.6600 C   0  0  0  0  0  1  0  0  0  0  0  0
  -29.8720  -16.8100   20.3380 N   0  0  0  0  0  0  0  0  0  0  0  0
  -25.4970  -13.7530   20.5470 C   0  0  0  0  0  0  0  0  0  0  0  0
  -24.4710  -12.9550   20.9670 C   0  0  0  0  0  0  0  0  0  0  0  0
  -24.9260  -11.6090   20.8100 C   0  0  0  0  0  0  0  0  0  0  0  0
  -26.5060  -12.8960   20.1530 N   0  0  0  0  0  0  0  0  0  0  0  0
  -26.1830  -11.5940   20.3750 N   0  0  0  0  0  0  0  0  0  0  0  0
  -24.2100  -10.3390   20.9940 C   0  0  0  0  0  0  0  0  0  0  0  0
  -24.6420   -9.3730   21.9290 C   0  0  0  0  0  3  0  0  0  0  0  0
  -23.9210   -8.1710   22.1030 C   0  0  0  0  0  3  0  0  0  0  0  0
  -22.7540   -7.9270   21.3400 C   0  0  0  0  0  0  0  0  0  0  0  0
  -22.3410   -8.8810   20.3950 C   0  0  0  0  0  3  0  0  0  0  0  0
  -23.0620  -10.0750   20.2190 C   0  0  0  0  0  3  0  0  0  0  0  0
  -22.0060   -6.7760   21.4230 O   0  0  0  0  0  0  0  0  0  0  0  0
  -21.8370   -6.1090   22.6090 C   0  0  0  0  0  0  0  0  0  0  0  0
  -21.2370   -6.7230   23.7310 C   0  0  0  0  0  3  0  0  0  0  0  0
  -21.0220   -5.9800   24.9090 C   0  0  0  0  0  3  0  0  0  0  0  0
  -21.3950   -4.6250   24.9650 C   0  0  0  0  0  0  0  0  0  0  0  0
  -21.9870   -4.0100   23.8470 C   0  0  0  0  0  3  0  0  0  0  0  0
  -22.2050   -4.7500   22.6720 C   0  0  0  0  0  0  0  0  0  0  0  0
  -22.7560   -4.1480   21.5910 F   0  0  0  0  0  0  0  0  0  0  0  0
  -21.1810   -3.9080   26.0930 F   0  0  0  0  0  0  0  0  0  0  0  0
  -23.1090  -13.4180   21.3920 C   0  0  0  0  0  0  0  0  0  0  0  0
  -22.4690  -12.6880   22.2970 N   0  0  0  0  0  0  0  0  0  0  0  0
  -22.6270  -14.4650   20.9590 O   0  0  0  0  0  0  0  0  0  0  0  0
  -22.8750  -11.8410   22.6670 H   0  0  0  0  0  0  0  0  0  0  0  0
  -21.5600  -12.9800   22.6260 H   0  0  0  0  0  0  0  0  0  0  0  0
  -25.6530  -15.1320   20.4350 N   0  0  0  0  0  0  0  0  0  0  0  0
  -24.9060  -15.7820   20.6580 H   0  0  0  0  0  0  0  0  0  0  0  0
  -26.4660  -15.5850   20.0410 H   0  0  0  0  0  0  0  0  0  0  0  0
  -28.2250  -22.8820   16.8720 C   0  0  0  0  0  1  0  0  0  0  0  0
  -26.3830  -21.1940   17.1530 C   0  0  0  0  0  1  0  0  0  0  0  0
  -27.4260  -22.0490   17.8970 C   0  0  0  0  0  3  0  0  0  0  0  0
  -28.8000  -23.7910   20.1940 C   0  0  0  0  0  2  0  0  0  0  0  0
  -28.4910  -25.4050   20.8050 O   0  0  0  0  0  0  0  0  0  0  0  0
  -24.8080  -31.6750   23.3700 C   0  0  0  0  0  0  0  0  0  0  0  0
  -27.5340  -26.6010   20.5750 C   0  0  0  0  0  0  0  0  0  0  0  0
  -23.7240  -30.2580   21.6740 C   0  0  0  0  0  3  0  0  0  0  0  0
  -25.2620  -28.6080   20.3570 C   0  0  0  0  0  0  0  0  0  0  0  0
  -26.3020  -30.4130   21.7090 C   0  0  0  0  0  2  0  0  0  0  0  0
  -26.4090  -28.9780   21.0680 C   0  0  0  0  0  0  0  0  0  0  0  0
  -27.5240  -27.9960   21.1540 C   0  0  0  0  0  3  0  0  0  0  0  0
  -26.3660  -26.4390   19.7880 C   0  0  0  0  0  3  0  0  0  0  0  0
  -25.2800  -27.3650   19.6960 C   0  0  0  0  0  3  0  0  0  0  0  0
  -24.0470  -29.5480   20.3260 C   0  0  0  0  0  2  0  0  0  0  0  0
  -24.9650  -30.8160   22.3040 N   0  0  0  0  0  0  0  0  0  0  0  0
  -23.6870  -31.9750   23.8110 O   0  0  0  0  0  0  0  0  0  0  0  0
  -22.9550  -29.2870   22.6110 C   0  0  0  0  0  0  0  0  0  0  0  0
  -21.6360  -29.1140   22.3960 N   0  0  0  0  0  0  0  0  0  0  0  0
  -23.5570  -28.6870   23.5050 O   0  0  0  0  0  0  0  0  0  0  0  0
  -21.2000  -29.6480   21.6590 H   0  0  0  0  0  0  0  0  0  0  0  0
  -18.2330  -27.8810   22.7050 C   0  0  0  0  0  0  0  0  0  0  0  0
  -20.7690  -28.1810   23.1270 C   0  0  0  0  0  3  0  0  0  0  0  0
  -20.9190  -26.7400   22.5810 C   0  0  0  0  0  2  0  0  0  0  0  0
  -19.8890  -26.3940   21.5010 C   0  0  0  0  0  2  0  0  0  0  0  0
  -18.4670  -26.5280   22.0520 C   0  0  0  0  0  2  0  0  0  0  0  0
  -19.3130  -28.6630   23.1930 C   0  0  0  0  0  0  0  0  0  0  0  0
  -19.0380  -29.9250   23.7650 C   0  0  0  0  0  3  0  0  0  0  0  0
  -17.7170  -30.4050   23.8490 C   0  0  0  0  0  3  0  0  0  0  0  0
  -16.6520  -29.6220   23.3730 C   0  0  0  0  0  3  0  0  0  0  0  0
  -16.9100  -28.3600   22.8080 C   0  0  0  0  0  3  0  0  0  0  0  0
  -26.0300  -32.3350   24.0790 C   0  0  0  0  0  3  0  0  0  0  0  0
  -25.7110  -33.7560   24.3180 N   0  0  0  0  0  0  0  0  0  0  0  0
  -26.0830  -34.7730   23.5280 C   0  0  0  0  0  0  0  0  0  0  0  0
  -26.7860  -34.6140   22.5280 O   0  0  0  0  0  0  0  0  0  0  0  0
  -25.0890  -33.9530   25.0870 H   0  0  0  0  0  0  0  0  0  0  0  0
  -24.3720  -36.5650   23.0630 C   0  0  0  0  0  1  0  0  0  0  0  0
  -25.6020  -36.1920   23.9060 C   0  0  0  0  0  3  0  0  0  0  0  0
  -27.7280  -37.1200   24.7150 C   0  0  0  0  0  1  0  0  0  0  0  0
  -26.6420  -37.2320   23.7440 N   0  0  0  0  0  0  0  0  0  0  0  0
  -26.2390  -38.1610   23.8250 H   0  0  0  0  0  0  0  0  0  0  0  0
  -26.4020  -31.6340   25.4460 C   0  0  1  0  0  0  0  0  0  0  0  0
  -25.2050  -31.4770   26.4140 C   0  0  0  0  0  1  0  0  0  0  0  0
  -26.9950  -30.2270   25.2070 C   0  0  0  0  0  1  0  0  0  0  0  0
  -27.4980  -32.4530   26.1710 C   0  0  0  0  0  1  0  0  0  0  0  0
  1  2  2  0
  1  4  1  0
  2  6  1  0
  4  5  2  0
  5  3  1  0
  6 16  1  0
  6  3  2  0
  7 16  1  0
  8 13  1  0
  9 10  1  0
  9  8  1  0
 11 10  1  0
 11 20  1  0
 11 12  1  0
 13  7  1  0
 13 12  1  0
 14  7  2  0
 16 15  1  0
 17 18  2  0
 18 37  1  0
 19 18  1  0
 19 22  1  0
 20 21  1  0
 20 17  1  0
 21 19  2  0
 22 23  1  0
 23 24  2  0
 25 28  1  0
 25 24  1  0
 26 25  2  0
 27 26  1  0
 27 22  2  0
 28 29  1  0
 29 34  2  0
 29 30  1  0
 30 31  2  0
 31 32  1  0
 32 36  1  0
 33 32  2  0
 34 33  1  0
 35 34  1  0
 37 38  1  0
 38 41  1  0
 38 40  1  0
 39 37  2  0
 42 17  1  0
 42 43  1  0
 44 42  1  0
 45 47  1  0
 46 47  1  0
 47  4  1  0
 48  5  1  0
 48 49  1  0
 50 61  2  0
 51 49  1  0
 51 56  1  0
 52 60  1  0
 52 62  1  0
 53 55  1  0
 54 60  1  0
 55 56  2  0
 55 54  1  0
 57 51  2  0
 58 57  1  0
 58 53  2  0
 59 53  1  0
 59 52  1  0
 60 50  1  0
 62 64  2  0
 63 62  1  0
 65 63  1  0
 66 75  2  0
 66 71  1  0
 67 63  1  0
 67 71  1  0
 68 67  1  0
 69 70  1  0
 69 68  1  0
 70 66  1  0
 71 72  2  0
 72 73  1  0
 74 73  2  0
 75 74  1  0
 76 50  1  0
 76 77  1  0
 76 86  1  0
 77 80  1  0
 78 82  1  0
 78 77  1  0
 79 78  2  0
 82 81  1  0
 84 85  1  0
 84 82  1  0
 84 83  1  0
 86 89  1  1
 86 87  1  0
 88 86  1  0
M  ISO  4   7 100  16 100  48 101  49 101
M  END
>  <TORSDO>  (69) 
F 18

>  <SCORE>  (69) 
-13.698

>  <name>  (69) 
71

>  <ligand_id>  (69) 
71

>  <original_smiles>  (69) 
[H]c1c([H])c([H])c2c(c1[H])C([H])([H])C([H])([H])C([H])([H])C2([H])N([H])C(=O)C1([H])N(C(=O)C([H])(N([H])C(=O)C([H])(N([H])C([H])([H])[H])C([H])([H])[H])C(C([H])([H])[H])(C([H])([H])[H])C([H])([H])[H])C([H])([H])c2c([H])c(OC([H])([H])C3([H])C([H])([H])C([H])(N(C(=O)N4C([H])([H])C([H])([H])C([H])([H])C([H])(n5nc(-c6c([H])c([H])c(Oc7c([H])c([H])c(F)c([H])c7F)c([H])c6[H])c(C(=O)N([H])[H])c5N([H])[H])C4([H])[H])C([H])([H])[H])C([H])([H])C([H])([H])C3([H])C([H])(C([H])([H])[H])C([H])([H])[H])c([H])c([H])c2C1([H])[H]

>  <smiles>  (69) 
[H]c1c([H])c([H])c2c(c1[H])C([H])([H])C([H])([H])C([H])([H])C2([H])N([H])C(=O)C1([H])N(C(=O)C([H])(N([H])C(=O)C([H])(N([H])C([H])([H])[H])C([H])([H])[H])C(C([H])([H])[H])(C([H])([H])[H])C([H])([H])[H])C([H])([H])c2c([H])c(OC([H])([H])C3([H])C([H])([H])C([H])(N(C(=O)N4C([H])([H])C([H])([H])C([H])([H])C([H])(n5nc(-c6c([H])c([H])c(Oc7c([H])c([H])c(F)c([H])c7F)c([H])c6[H])c(C(=O)N([H])[H])c5N([H])[H])C4([H])[H])C([H])([H])[H])C([H])([H])C([H])([H])C3([H])C([H])(C([H])([H])[H])C([H])([H])[H])c([H])c([H])c2C1([H])[H]

$$$$
72:0:0
     RDKit          3D

 90 97  0  0  1  0  0  0  0  0999 V2000
  -29.2820  -19.9220   19.6460 C   0  0  0  0  0  0  0  0  0  0  0  0
  -29.1970  -21.3090   20.1800 N   0  0  0  0  0  0  0  0  0  0  0  0
  -28.6840  -19.7400   18.5850 O   0  0  0  0  0  0  0  0  0  0  0  0
  -29.6590  -21.3760   21.0770 H   0  0  0  0  0  0  0  0  0  0  0  0
  -28.7250  -22.8350   19.6380 C   0  0  0  0  0  2  0  0  0  0  0  0
  -28.1290  -24.3640   20.4230 C   0  0  0  0  0  2  0  0  0  0  0  0
  -28.2760  -26.0010   20.1760 O   0  0  0  0  0  0  0  0  0  0  0  0
  -24.6370  -31.9240   23.2490 C   0  0  0  0  0  0  0  0  0  0  0  0
  -27.2360  -27.0760   20.2020 C   0  0  0  0  0  0  0  0  0  0  0  0
  -23.4580  -30.5320   21.5970 C   0  0  0  0  0  3  0  0  0  0  0  0
  -24.9210  -28.9440   20.1700 C   0  0  0  0  0  0  0  0  0  0  0  0
  -26.0220  -30.7620   21.4550 C   0  0  0  0  0  2  0  0  0  0  0  0
  -26.1060  -29.3550   20.7910 C   0  0  0  0  0  0  0  0  0  0  0  0
  -27.2610  -28.4450   20.7750 C   0  0  0  0  0  3  0  0  0  0  0  0
  -26.0120  -26.8150   19.5480 C   0  0  0  0  0  3  0  0  0  0  0  0
  -24.8980  -27.6940   19.5280 C   0  0  0  0  0  3  0  0  0  0  0  0
  -23.6980  -29.8590   20.2160 C   0  0  0  0  0  2  0  0  0  0  0  0
  -24.7280  -31.1000   22.1550 N   0  0  0  0  0  0  0  0  0  0  0  0
  -23.5450  -32.2000   23.7700 O   0  0  0  0  0  0  0  0  0  0  0  0
  -22.7690  -29.5240   22.5530 C   0  0  0  0  0  0  0  0  0  0  0  0
  -21.4500  -29.3130   22.3940 N   0  0  0  0  0  0  0  0  0  0  0  0
  -23.4310  -28.9320   23.4090 O   0  0  0  0  0  0  0  0  0  0  0  0
  -20.9670  -29.8430   21.6810 H   0  0  0  0  0  0  0  0  0  0  0  0
  -18.1120  -27.9440   22.7800 C   0  0  0  0  0  0  0  0  0  0  0  0
  -20.6390  -28.3550   23.1540 C   0  0  0  0  0  3  0  0  0  0  0  0
  -20.8430  -26.9150   22.6280 C   0  0  0  0  0  2  0  0  0  0  0  0
  -19.8100  -26.5060   21.5730 C   0  0  0  0  0  2  0  0  0  0  0  0
  -18.3930  -26.5910   22.1470 C   0  0  0  0  0  2  0  0  0  0  0  0
  -19.1670  -28.7790   23.2380 C   0  0  0  0  0  0  0  0  0  0  0  0
  -18.8500  -30.0370   23.7940 C   0  0  0  0  0  3  0  0  0  0  0  0
  -17.5140  -30.4690   23.8870 C   0  0  0  0  0  3  0  0  0  0  0  0
  -16.4740  -29.6330   23.4440 C   0  0  0  0  0  3  0  0  0  0  0  0
  -16.7730  -28.3720   22.8990 C   0  0  0  0  0  3  0  0  0  0  0  0
  -25.9010  -32.5740   23.8900 C   0  0  0  0  0  3  0  0  0  0  0  0
  -25.5880  -33.9830   24.1850 N   0  0  0  0  0  0  0  0  0  0  0  0
  -25.9560  -35.0270   23.4280 C   0  0  0  0  0  0  0  0  0  0  0  0
  -26.6550  -34.9020   22.4210 O   0  0  0  0  0  0  0  0  0  0  0  0
  -24.9680  -34.1520   24.9650 H   0  0  0  0  0  0  0  0  0  0  0  0
  -24.2720  -36.8470   22.9910 C   0  0  0  0  0  1  0  0  0  0  0  0
  -25.4740  -36.4280   23.8540 C   0  0  0  0  0  3  0  0  0  0  0  0
  -27.5820  -37.2970   24.7670 C   0  0  0  0  0  1  0  0  0  0  0  0
  -26.5280  -37.4650   23.7720 N   0  0  0  0  0  0  0  0  0  0  0  0
  -26.1290  -38.3940   23.8860 H   0  0  0  0  0  0  0  0  0  0  0  0
  -26.3730  -31.8400   25.2060 C   0  0  1  0  0  0  0  0  0  0  0  0
  -25.2460  -31.6430   26.2480 C   0  0  0  0  0  1  0  0  0  0  0  0
  -26.9600  -30.4490   24.8820 C   0  0  0  0  0  1  0  0  0  0  0  0
  -27.5110  -32.6470   25.8770 C   0  0  0  0  0  1  0  0  0  0  0  0
  -30.1510  -18.4850   20.1990 C   0  0  0  0  0  0  0  0  0  0  0  0
  -30.7400  -15.5530   20.0310 C   0  0  0  0  0  0  0  0  0  0  0  0
  -30.7460  -13.0490   19.2900 C   0  0  0  0  0  2  0  0  0  0  0  0
  -29.8280  -12.7350   18.0820 C   0  0  0  0  0  2  0  0  0  0  0  0
  -28.3840  -12.4720   18.5470 C   0  0  0  0  0  2  0  0  0  0  0  0
  -27.9200  -13.5040   19.6020 C   0  0  0  0  0  3  0  0  0  0  0  0
  -28.9670  -13.7550   20.7070 C   0  0  0  0  0  2  0  0  0  0  0  0
  -30.1800  -14.2390   20.0280 N   0  0  0  0  0  0  0  0  0  0  0  0
  -31.9710  -15.5390   19.8890 O   0  0  0  0  0  0  0  0  0  0  0  0
  -29.9600  -16.8220   20.0010 N   0  0  0  0  0  4  0  0  0  0  0  0
  -28.9790  -16.6070   19.9250 H   0  0  0  0  0  0  0  0  0  0  0  0
  -25.5700  -14.0940   20.3910 C   0  0  0  0  0  0  0  0  0  0  0  0
  -24.5020  -13.3320   20.7710 C   0  0  0  0  0  0  0  0  0  0  0  0
  -24.9520  -11.9750   20.7380 C   0  0  0  0  0  0  0  0  0  0  0  0
  -26.5980  -13.2050   20.1340 N   0  0  0  0  0  0  0  0  0  0  0  0
  -26.2400  -11.9250   20.4130 N   0  0  0  0  0  0  0  0  0  0  0  0
  -24.2100  -10.7230   20.9350 C   0  0  0  0  0  0  0  0  0  0  0  0
  -24.6070   -9.7690   21.8990 C   0  0  0  0  0  3  0  0  0  0  0  0
  -23.8610   -8.5860   22.0850 C   0  0  0  0  0  3  0  0  0  0  0  0
  -22.7040   -8.3470   21.3060 C   0  0  0  0  0  0  0  0  0  0  0  0
  -22.3250   -9.2890   20.3330 C   0  0  0  0  0  3  0  0  0  0  0  0
  -23.0730  -10.4630   20.1440 C   0  0  0  0  0  3  0  0  0  0  0  0
  -21.9340   -7.2120   21.3970 O   0  0  0  0  0  0  0  0  0  0  0  0
  -21.8160   -6.5160   22.5730 C   0  0  0  0  0  0  0  0  0  0  0  0
  -21.2820   -7.1070   23.7390 C   0  0  0  0  0  3  0  0  0  0  0  0
  -21.1110   -6.3360   24.9050 C   0  0  0  0  0  3  0  0  0  0  0  0
  -21.4700   -4.9740   24.9060 C   0  0  0  0  0  0  0  0  0  0  0  0
  -22.0000   -4.3830   23.7470 C   0  0  0  0  0  3  0  0  0  0  0  0
  -22.1700   -5.1530   22.5820 C   0  0  0  0  0  0  0  0  0  0  0  0
  -22.6610   -4.5720   21.4600 F   0  0  0  0  0  0  0  0  0  0  0  0
  -21.2990   -4.2310   26.0260 F   0  0  0  0  0  0  0  0  0  0  0  0
  -23.1140  -13.8300   21.0460 C   0  0  0  0  0  0  0  0  0  0  0  0
  -22.3790  -13.1510   21.9170 N   0  0  0  0  0  0  0  0  0  0  0  0
  -22.6910  -14.8610   20.5250 O   0  0  0  0  0  0  0  0  0  0  0  0
  -22.7300  -12.3140   22.3570 H   0  0  0  0  0  0  0  0  0  0  0  0
  -21.4510  -13.4770   22.1500 H   0  0  0  0  0  0  0  0  0  0  0  0
  -25.7440  -15.4630   20.2120 N   0  0  0  0  0  0  0  0  0  0  0  0
  -24.9760  -16.1150   20.3240 H   0  0  0  0  0  0  0  0  0  0  0  0
  -26.5770  -15.8980   19.8400 H   0  0  0  0  0  0  0  0  0  0  0  0
  -30.5690  -18.7340   21.6700 C   0  0  0  0  0  2  0  0  0  0  0  0
  -32.9790  -19.5570   21.7880 C   0  0  0  0  0  1  0  0  0  0  0  0
  -31.2210  -20.6910   23.2000 C   0  0  0  0  0  1  0  0  0  0  0  0
  -31.5000  -19.9590   21.8780 C   0  0  0  0  0  3  0  0  0  0  0  0
  1  2  1  0
  1 48  1  0
  2  4  1  0
  3  1  2  0
  5  2  1  0
  5  6  1  0
  7  9  1  0
  7  6  1  0
  8 19  2  0
  9 14  1  0
 10 18  1  0
 10 20  1  0
 11 17  1  0
 11 13  1  0
 12 18  1  0
 13 12  1  0
 14 13  2  0
 15  9  2  0
 16 15  1  0
 16 11  2  0
 17 10  1  0
 18  8  1  0
 20 22  2  0
 21 20  1  0
 23 21  1  0
 24 33  2  0
 24 29  1  0
 25 21  1  0
 25 29  1  0
 26 25  1  0
 27 28  1  0
 27 26  1  0
 28 24  1  0
 29 30  2  0
 30 31  1  0
 32 31  2  0
 33 32  1  0
 34  8  1  0
 34 35  1  0
 34 44  1  0
 35 38  1  0
 36 40  1  0
 36 35  1  0
 37 36  2  0
 40 39  1  0
 42 40  1  0
 42 43  1  0
 42 41  1  0
 44 47  1  1
 44 45  1  0
 46 44  1  0
 48 87  1  0
 50 55  1  0
 51 52  1  0
 51 50  1  0
 53 52  1  0
 53 62  1  0
 53 54  1  0
 55 49  1  0
 55 54  1  0
 56 49  2  0
 57 49  1  0
 57 48  2  0
 58 57  1  0
 59 60  2  0
 60 79  1  0
 61 60  1  0
 61 64  1  0
 62 59  1  0
 62 63  1  0
 63 61  2  0
 64 65  1  0
 65 66  2  0
 67 70  1  0
 67 66  1  0
 68 67  2  0
 69 68  1  0
 69 64  2  0
 70 71  1  0
 71 76  2  0
 71 72  1  0
 72 73  2  0
 73 74  1  0
 74 78  1  0
 75 74  2  0
 76 75  1  0
 77 76  1  0
 79 80  1  0
 80 83  1  0
 80 82  1  0
 81 79  2  0
 84 85  1  0
 84 59  1  0
 86 84  1  0
 87 90  1  0
 88 90  1  0
 90 89  1  0
M  ISO  4   6 101   7 101  49 100  57 100
M  END
>  <TORSDO>  (70) 
F 21

>  <SCORE>  (70) 
-15.820

>  <name>  (70) 
72

>  <ligand_id>  (70) 
72

>  <original_smiles>  (70) 
[H]c1c([H])c([H])c2c(c1[H])C([H])([H])C([H])([H])C([H])([H])C2([H])N([H])C(=O)C1([H])N(C(=O)C([H])(N([H])C(=O)C([H])(N([H])C([H])([H])[H])C([H])([H])[H])C(C([H])([H])[H])(C([H])([H])[H])C([H])([H])[H])C([H])([H])c2c([H])c(OC([H])([H])C([H])([H])N([H])C(=O)C([H])(N([H])C(=O)N3C([H])([H])C([H])([H])C([H])([H])C([H])(n4nc(-c5c([H])c([H])c(Oc6c([H])c([H])c(F)c([H])c6F)c([H])c5[H])c(C(=O)N([H])[H])c4N([H])[H])C3([H])[H])C([H])([H])C([H])(C([H])([H])[H])C([H])([H])[H])c([H])c([H])c2C1([H])[H]

>  <smiles>  (70) 
[H]c1c([H])c([H])c2c(c1[H])C([H])([H])C([H])([H])C([H])([H])C2([H])N([H])C(=O)C1([H])N(C(=O)C([H])(N([H])C(=O)C([H])(N([H])C([H])([H])[H])C([H])([H])[H])C(C([H])([H])[H])(C([H])([H])[H])C([H])([H])[H])C([H])([H])c2c([H])c(OC([H])([H])C([H])([H])N([H])C(=O)C([H])(N([H])C(=O)N3C([H])([H])C([H])([H])C([H])([H])C([H])(n4nc(-c5c([H])c([H])c(Oc6c([H])c([H])c(F)c([H])c6F)c([H])c5[H])c(C(=O)N([H])[H])c4N([H])[H])C3([H])[H])C([H])([H])C([H])(C([H])([H])[H])C([H])([H])[H])c([H])c([H])c2C1([H])[H]

$$$$
73:0:0
     RDKit          3D

 90 97  0  0  1  0  0  0  0  0999 V2000
  -29.8900  -23.0380   20.3330 C   0  0  0  0  0  3  0  0  0  0  0  0
  -29.8220  -24.7140   18.3350 C   0  0  0  0  0  1  0  0  0  0  0  0
  -29.6260  -24.5300   19.8540 C   0  0  0  0  0  3  0  0  0  0  0  0
  -28.3010  -25.2140   20.3030 C   0  0  0  0  0  2  0  0  0  0  0  0
  -28.3760  -26.6600   20.1390 O   0  0  0  0  0  0  0  0  0  0  0  0
  -24.6210  -31.9120   23.2350 C   0  0  0  0  0  0  0  0  0  0  0  0
  -27.2050  -27.4060   20.1520 C   0  0  0  0  0  0  0  0  0  0  0  0
  -23.3950  -30.5130   21.6090 C   0  0  0  0  0  3  0  0  0  0  0  0
  -24.8250  -28.9590   20.1780 C   0  0  0  0  0  0  0  0  0  0  0  0
  -25.9250  -30.8460   21.3900 C   0  0  0  0  0  2  0  0  0  0  0  0
  -25.9950  -29.4700   20.7520 C   0  0  0  0  0  0  0  0  0  0  0  0
  -27.1890  -28.7040   20.7280 C   0  0  0  0  0  3  0  0  0  0  0  0
  -26.0110  -26.9230   19.5690 C   0  0  0  0  0  3  0  0  0  0  0  0
  -24.8300  -27.6870   19.5830 C   0  0  0  0  0  3  0  0  0  0  0  0
  -23.5890  -29.8300   20.2300 C   0  0  0  0  0  2  0  0  0  0  0  0
  -24.6660  -31.1060   22.1360 N   0  0  0  0  0  0  0  0  0  0  0  0
  -23.5450  -32.1910   23.7830 O   0  0  0  0  0  0  0  0  0  0  0  0
  -22.7440  -29.4980   22.5770 C   0  0  0  0  0  0  0  0  0  0  0  0
  -21.4200  -29.3130   22.4540 N   0  0  0  0  0  0  0  0  0  0  0  0
  -23.4290  -28.8780   23.3960 O   0  0  0  0  0  0  0  0  0  0  0  0
  -20.9280  -29.8630   21.7640 H   0  0  0  0  0  0  0  0  0  0  0  0
  -18.0500  -28.1040   22.9530 C   0  0  0  0  0  0  0  0  0  0  0  0
  -20.6050  -28.3790   23.2320 C   0  0  0  0  0  3  0  0  0  0  0  0
  -20.7180  -26.9420   22.6710 C   0  0  0  0  0  2  0  0  0  0  0  0
  -19.6210  -26.6020   21.6570 C   0  0  0  0  0  2  0  0  0  0  0  0
  -18.2360  -26.7480   22.2930 C   0  0  0  0  0  2  0  0  0  0  0  0
  -19.1630  -28.8770   23.3790 C   0  0  0  0  0  0  0  0  0  0  0  0
  -18.9340  -30.1460   23.9540 C   0  0  0  0  0  3  0  0  0  0  0  0
  -17.6270  -30.6430   24.1070 C   0  0  0  0  0  3  0  0  0  0  0  0
  -16.5290  -29.8670   23.6980 C   0  0  0  0  0  3  0  0  0  0  0  0
  -16.7400  -28.5990   23.1270 C   0  0  0  0  0  3  0  0  0  0  0  0
  -25.9140  -32.5390   23.8420 C   0  0  0  0  0  3  0  0  0  0  0  0
  -25.6130  -33.9390   24.1720 N   0  0  0  0  0  0  0  0  0  0  0  0
  -25.9440  -34.9880   23.4090 C   0  0  0  0  0  0  0  0  0  0  0  0
  -26.6050  -34.8800   22.3720 O   0  0  0  0  0  0  0  0  0  0  0  0
  -25.0250  -34.0970   24.9770 H   0  0  0  0  0  0  0  0  0  0  0  0
  -24.2220  -36.7890   23.0610 C   0  0  0  0  0  1  0  0  0  0  0  0
  -25.4670  -36.3800   23.8670 C   0  0  0  0  0  3  0  0  0  0  0  0
  -27.6110  -37.2540   24.6820 C   0  0  0  0  0  1  0  0  0  0  0  0
  -26.5030  -37.4280   23.7460 N   0  0  0  0  0  0  0  0  0  0  0  0
  -26.1040  -38.3510   23.8950 H   0  0  0  0  0  0  0  0  0  0  0  0
  -26.4400  -31.7680   25.1140 C   0  0  1  0  0  0  0  0  0  0  0  0
  -25.3580  -31.5360   26.1940 C   0  0  0  0  0  1  0  0  0  0  0  0
  -27.0130  -30.3880   24.7160 C   0  0  0  0  0  1  0  0  0  0  0  0
  -27.6020  -32.5570   25.7630 C   0  0  0  0  0  1  0  0  0  0  0  0
  -32.4510  -23.5110   20.5310 C   0  0  0  0  0  1  0  0  0  0  0  0
  -31.3400  -22.5820   20.0160 C   0  0  0  0  0  2  0  0  0  0  0  0
  -28.8240  -21.9740   19.8790 C   0  0  0  0  0  2  0  0  0  0  0  0
  -29.2370  -20.4950   19.5240 C   0  0  0  0  0  2  0  0  0  0  0  0
  -29.5780  -19.4710   20.6540 C   0  0  0  0  0  2  0  0  0  0  0  0
  -29.5700  -17.9720   20.1890 C   0  0  0  0  0  2  0  0  0  0  0  0
  -30.1990  -16.9510   21.1900 C   0  0  0  0  0  2  0  0  0  0  0  0
  -30.5920  -14.5320   20.4450 C   0  0  0  0  0  0  0  0  0  0  0  0
  -30.3490  -12.3620   19.2810 C   0  0  0  0  0  2  0  0  0  0  0  0
  -29.4060  -12.5530   18.0730 C   0  0  0  0  0  2  0  0  0  0  0  0
  -27.9300  -12.4010   18.4940 C   0  0  0  0  0  2  0  0  0  0  0  0
  -27.5790  -13.2260   19.7610 C   0  0  0  0  0  3  0  0  0  0  0  0
  -28.6310  -13.0030   20.8700 C   0  0  0  0  0  2  0  0  0  0  0  0
  -29.9510  -13.3370   20.3090 N   0  0  0  0  0  0  0  0  0  0  0  0
  -31.7320  -14.7300   20.0160 O   0  0  0  0  0  0  0  0  0  0  0  0
  -29.8370  -15.5350   20.9460 N   0  0  0  0  0  0  0  0  0  0  0  0
  -28.9070  -15.2640   21.2290 H   0  0  0  0  0  0  0  0  0  0  0  0
  -25.1700  -13.8190   20.4380 C   0  0  0  0  0  0  0  0  0  0  0  0
  -24.1060  -13.0410   20.8090 C   0  0  0  0  0  0  0  0  0  0  0  0
  -24.5810  -11.6940   20.8040 C   0  0  0  0  0  0  0  0  0  0  0  0
  -26.2250  -12.9450   20.2310 N   0  0  0  0  0  0  0  0  0  0  0  0
  -25.8750  -11.6620   20.5090 N   0  0  0  0  0  0  0  0  0  0  0  0
  -23.8670  -10.4270   21.0060 C   0  0  0  0  0  0  0  0  0  0  0  0
  -24.3030   -9.4790   21.9570 C   0  0  0  0  0  3  0  0  0  0  0  0
  -23.5880   -8.2760   22.1460 C   0  0  0  0  0  3  0  0  0  0  0  0
  -22.4250   -8.0140   21.3850 C   0  0  0  0  0  0  0  0  0  0  0  0
  -22.0080   -8.9520   20.4230 C   0  0  0  0  0  3  0  0  0  0  0  0
  -22.7240  -10.1460   20.2320 C   0  0  0  0  0  3  0  0  0  0  0  0
  -21.6840   -6.8620   21.4820 O   0  0  0  0  0  0  0  0  0  0  0  0
  -21.6360   -6.1320   22.6430 C   0  0  0  0  0  0  0  0  0  0  0  0
  -21.1950   -6.6950   23.8600 C   0  0  0  0  0  3  0  0  0  0  0  0
  -21.0960   -5.8910   25.0130 C   0  0  0  0  0  3  0  0  0  0  0  0
  -21.4280   -4.5250   24.9500 C   0  0  0  0  0  0  0  0  0  0  0  0
  -21.8620   -3.9610   23.7360 C   0  0  0  0  0  3  0  0  0  0  0  0
  -21.9620   -4.7630   22.5860 C   0  0  0  0  0  0  0  0  0  0  0  0
  -22.3600   -4.2100   21.4150 F   0  0  0  0  0  0  0  0  0  0  0  0
  -21.3260   -3.7480   26.0550 F   0  0  0  0  0  0  0  0  0  0  0  0
  -22.7000  -13.5070   21.0590 C   0  0  0  0  0  0  0  0  0  0  0  0
  -21.9720  -12.8160   21.9280 N   0  0  0  0  0  0  0  0  0  0  0  0
  -22.2560  -14.5200   20.5180 O   0  0  0  0  0  0  0  0  0  0  0  0
  -22.3440  -11.9990   22.3880 H   0  0  0  0  0  0  0  0  0  0  0  0
  -21.0280  -13.1100   22.1370 H   0  0  0  0  0  0  0  0  0  0  0  0
  -25.3210  -15.1880   20.2390 N   0  0  0  0  0  0  0  0  0  0  0  0
  -24.5460  -15.8360   20.3290 H   0  0  0  0  0  0  0  0  0  0  0  0
  -26.1680  -15.6300   19.9040 H   0  0  0  0  0  0  0  0  0  0  0  0
  1 48  1  0
  3  2  1  0
  3  4  1  0
  3  1  1  0
  5  7  1  0
  5  4  1  0
  6 17  2  0
  7 12  1  0
  8 16  1  0
  8 18  1  0
  9 15  1  0
  9 11  1  0
 10 16  1  0
 11 10  1  0
 12 11  2  0
 13 14  1  0
 13  7  2  0
 14  9  2  0
 15  8  1  0
 16  6  1  0
 18 20  2  0
 19 18  1  0
 21 19  1  0
 22 31  2  0
 22 27  1  0
 23 19  1  0
 23 27  1  0
 24 23  1  0
 25 26  1  0
 25 24  1  0
 26 22  1  0
 27 28  2  0
 28 29  1  0
 30 29  2  0
 31 30  1  0
 32  6  1  0
 32 33  1  0
 32 42  1  0
 33 36  1  0
 34 38  1  0
 34 33  1  0
 35 34  2  0
 38 37  1  0
 40 38  1  0
 40 41  1  0
 40 39  1  0
 42 45  1  1
 42 43  1  0
 44 42  1  0
 47  1  1  0
 47 46  1  0
 49 48  1  0
 49 50  1  0
 51 50  1  0
 51 52  1  0
 53 61  1  0
 54 59  1  0
 55 56  1  0
 55 54  1  0
 57 56  1  0
 57 66  1  0
 57 58  1  0
 59 53  1  0
 59 58  1  0
 60 53  2  0
 61 52  1  0
 61 62  1  0
 63 64  2  0
 64 83  1  0
 65 64  1  0
 65 68  1  0
 66 63  1  0
 66 67  1  0
 67 65  2  0
 68 69  1  0
 69 70  2  0
 71 74  1  0
 71 70  1  0
 72 71  2  0
 73 72  1  0
 73 68  2  0
 74 75  1  0
 75 76  1  0
 76 77  2  0
 78 77  1  0
 78 82  1  0
 79 78  2  0
 80 75  2  0
 80 79  1  0
 81 80  1  0
 83 84  1  0
 84 87  1  0
 84 86  1  0
 85 83  2  0
 88 89  1  0
 88 63  1  0
 90 88  1  0
M  ISO  4   4 101   5 101  53 100  61 100
M  END
>  <TORSDO>  (71) 
F 24

>  <SCORE>  (71) 
-12.112

>  <name>  (71) 
73

>  <ligand_id>  (71) 
73

>  <original_smiles>  (71) 
[H]c1c([H])c([H])c2c(c1[H])C([H])([H])C([H])([H])C([H])([H])C2([H])N([H])C(=O)C1([H])N(C(=O)C([H])(N([H])C(=O)C([H])(N([H])C([H])([H])[H])C([H])([H])[H])C(C([H])([H])[H])(C([H])([H])[H])C([H])([H])[H])C([H])([H])c2c([H])c(OC([H])([H])C([H])(C([H])([H])[H])C([H])(C([H])([H])C([H])([H])[H])C([H])([H])C([H])([H])C([H])([H])C([H])([H])C([H])([H])N([H])C(=O)N3C([H])([H])C([H])([H])C([H])([H])C([H])(n4nc(-c5c([H])c([H])c(Oc6c([H])c([H])c(F)c([H])c6F)c([H])c5[H])c(C(=O)N([H])[H])c4N([H])[H])C3([H])[H])c([H])c([H])c2C1([H])[H]

>  <smiles>  (71) 
[H]c1c([H])c([H])c2c(c1[H])C([H])([H])C([H])([H])C([H])([H])C2([H])N([H])C(=O)C1([H])N(C(=O)C([H])(N([H])C(=O)C([H])(N([H])C([H])([H])[H])C([H])([H])[H])C(C([H])([H])[H])(C([H])([H])[H])C([H])([H])[H])C([H])([H])c2c([H])c(OC([H])([H])C([H])(C([H])([H])[H])C([H])(C([H])([H])C([H])([H])[H])C([H])([H])C([H])([H])C([H])([H])C([H])([H])C([H])([H])N([H])C(=O)N3C([H])([H])C([H])([H])C([H])([H])C([H])(n4nc(-c5c([H])c([H])c(Oc6c([H])c([H])c(F)c([H])c6F)c([H])c5[H])c(C(=O)N([H])[H])c4N([H])[H])C3([H])[H])c([H])c([H])c2C1([H])[H]

$$$$
74:0:0
     RDKit          3D

 88 96  0  0  1  0  0  0  0  0999 V2000
  -30.2570  -15.6810   20.2860 C   0  0  0  0  0  0  0  0  0  0  0  0
  -30.3540  -13.1490   19.4530 C   0  0  0  0  0  2  0  0  0  0  0  0
  -29.4660  -12.7370   18.2430 C   0  0  0  0  0  2  0  0  0  0  0  0
  -28.0470  -12.3600   18.6960 C   0  0  0  0  0  2  0  0  0  0  0  0
  -27.5250  -13.3610   19.7520 C   0  0  0  0  0  3  0  0  0  0  0  0
  -28.5550  -13.6980   20.8580 C   0  0  0  0  0  2  0  0  0  0  0  0
  -29.7150  -14.3280   20.1880 N   0  0  0  0  0  0  0  0  0  0  0  0
  -31.5010  -15.5900   20.2290 O   0  0  0  0  0  0  0  0  0  0  0  0
  -28.1540  -17.1250   19.6920 C   0  0  0  0  0  2  0  0  0  0  0  0
  -29.8750  -18.7660   20.3680 C   0  0  0  0  0  2  0  0  0  0  0  0
  -27.2180  -18.3720   20.0060 C   0  0  0  0  0  2  0  0  0  0  0  0
  -28.7840  -20.2920   20.4000 C   0  0  0  0  0  3  0  0  0  0  0  0
  -29.5270  -17.0720   20.2640 N   0  0  0  0  0  0  0  0  0  0  0  0
  -27.6670  -19.7520   19.5930 N   0  0  0  0  0  4  0  0  0  0  0  0
  -26.8790  -20.3740   19.6810 H   0  0  0  0  0  0  0  0  0  0  0  0
  -27.9340  -19.7440   18.6190 H   0  0  0  0  0  0  0  0  0  0  0  0
  -25.1650  -13.8830   20.5380 C   0  0  0  0  0  0  0  0  0  0  0  0
  -24.1090  -13.0960   20.8950 C   0  0  0  0  0  0  0  0  0  0  0  0
  -24.5910  -11.7510   20.8590 C   0  0  0  0  0  0  0  0  0  0  0  0
  -26.2150  -13.0200   20.2830 N   0  0  0  0  0  0  0  0  0  0  0  0
  -25.8850  -11.7330   20.5490 N   0  0  0  0  0  0  0  0  0  0  0  0
  -23.8730  -10.4850   21.0410 C   0  0  0  0  0  0  0  0  0  0  0  0
  -24.2990   -9.5260   21.9870 C   0  0  0  0  0  3  0  0  0  0  0  0
  -23.5780   -8.3270   22.1530 C   0  0  0  0  0  3  0  0  0  0  0  0
  -22.4200   -8.0770   21.3780 C   0  0  0  0  0  0  0  0  0  0  0  0
  -22.0160   -9.0260   20.4250 C   0  0  0  0  0  3  0  0  0  0  0  0
  -22.7360  -10.2190   20.2550 C   0  0  0  0  0  3  0  0  0  0  0  0
  -21.6700   -6.9290   21.4590 O   0  0  0  0  0  0  0  0  0  0  0  0
  -21.5930   -6.2010   22.6190 C   0  0  0  0  0  0  0  0  0  0  0  0
  -21.1110   -6.7630   23.8210 C   0  0  0  0  0  3  0  0  0  0  0  0
  -20.9820   -5.9590   24.9720 C   0  0  0  0  0  3  0  0  0  0  0  0
  -21.3250   -4.5950   24.9210 C   0  0  0  0  0  0  0  0  0  0  0  0
  -21.7990   -4.0310   23.7240 C   0  0  0  0  0  3  0  0  0  0  0  0
  -21.9310   -4.8320   22.5740 C   0  0  0  0  0  0  0  0  0  0  0  0
  -22.3690   -4.2790   21.4190 F   0  0  0  0  0  0  0  0  0  0  0  0
  -21.1940   -3.8220   26.0260 F   0  0  0  0  0  0  0  0  0  0  0  0
  -22.7080  -13.5650   21.1490 C   0  0  0  0  0  0  0  0  0  0  0  0
  -21.9750  -12.8770   22.0130 N   0  0  0  0  0  0  0  0  0  0  0  0
  -22.2720  -14.5830   20.6130 O   0  0  0  0  0  0  0  0  0  0  0  0
  -22.3400  -12.0520   22.4660 H   0  0  0  0  0  0  0  0  0  0  0  0
  -21.0310  -13.1750   22.2200 H   0  0  0  0  0  0  0  0  0  0  0  0
  -25.3120  -15.2550   20.3750 N   0  0  0  0  0  0  0  0  0  0  0  0
  -24.5560  -15.9160   20.5120 H   0  0  0  0  0  0  0  0  0  0  0  0
  -26.1800  -15.6760   20.0860 H   0  0  0  0  0  0  0  0  0  0  0  0
  -30.2630  -22.5080   20.9990 C   0  0  0  0  0  1  0  0  0  0  0  0
  -28.9730  -22.2130   20.2260 C   0  0  0  0  0  3  0  0  0  0  0  0
  -27.9720  -23.8560   20.3990 C   0  0  0  0  0  2  0  0  0  0  0  0
  -28.1690  -25.5960   20.3660 O   0  0  0  0  0  0  0  0  0  0  0  0
  -24.6550  -31.9040   23.2190 C   0  0  0  0  0  0  0  0  0  0  0  0
  -27.1880  -26.7900   20.3270 C   0  0  0  0  0  0  0  0  0  0  0  0
  -23.4730  -30.4800   21.6020 C   0  0  0  0  0  3  0  0  0  0  0  0
  -24.9200  -28.8060   20.2310 C   0  0  0  0  0  0  0  0  0  0  0  0
  -26.0540  -30.6180   21.4900 C   0  0  0  0  0  2  0  0  0  0  0  0
  -26.1150  -29.1770   20.8600 C   0  0  0  0  0  0  0  0  0  0  0  0
  -27.2360  -28.1980   20.8720 C   0  0  0  0  0  3  0  0  0  0  0  0
  -25.9590  -26.6200   19.6410 C   0  0  0  0  0  3  0  0  0  0  0  0
  -24.8810  -27.5510   19.6000 C   0  0  0  0  0  3  0  0  0  0  0  0
  -23.7180  -29.7590   20.2470 C   0  0  0  0  0  2  0  0  0  0  0  0
  -24.7520  -31.0340   22.1570 N   0  0  0  0  0  0  0  0  0  0  0  0
  -23.5590  -32.2190   23.7140 O   0  0  0  0  0  0  0  0  0  0  0  0
  -22.7510  -29.5200   22.5860 C   0  0  0  0  0  0  0  0  0  0  0  0
  -21.4180  -29.3700   22.4590 N   0  0  0  0  0  0  0  0  0  0  0  0
  -23.4000  -28.9060   23.4380 O   0  0  0  0  0  0  0  0  0  0  0  0
  -20.9420  -29.9150   21.7540 H   0  0  0  0  0  0  0  0  0  0  0  0
  -18.0220  -28.1830   22.9790 C   0  0  0  0  0  0  0  0  0  0  0  0
  -20.5840  -28.4470   23.2420 C   0  0  0  0  0  3  0  0  0  0  0  0
  -20.6780  -27.0040   22.6930 C   0  0  0  0  0  2  0  0  0  0  0  0
  -19.5790  -26.6680   21.6800 C   0  0  0  0  0  2  0  0  0  0  0  0
  -18.1950  -26.8260   22.3170 C   0  0  0  0  0  2  0  0  0  0  0  0
  -19.1430  -28.9520   23.3980 C   0  0  0  0  0  0  0  0  0  0  0  0
  -18.9220  -30.2200   23.9780 C   0  0  0  0  0  3  0  0  0  0  0  0
  -17.6170  -30.7210   24.1410 C   0  0  0  0  0  3  0  0  0  0  0  0
  -16.5120  -29.9520   23.7340 C   0  0  0  0  0  3  0  0  0  0  0  0
  -16.7160  -28.6850   23.1590 C   0  0  0  0  0  3  0  0  0  0  0  0
  -25.9140  -32.5610   23.8580 C   0  0  0  0  0  3  0  0  0  0  0  0
  -25.5900  -33.9650   24.1800 N   0  0  0  0  0  0  0  0  0  0  0  0
  -25.9180  -35.0250   23.4300 C   0  0  0  0  0  0  0  0  0  0  0  0
  -26.5870  -34.9250   22.3980 O   0  0  0  0  0  0  0  0  0  0  0  0
  -24.9990  -34.1170   24.9830 H   0  0  0  0  0  0  0  0  0  0  0  0
  -24.1850  -36.8240   23.0950 C   0  0  0  0  0  1  0  0  0  0  0  0
  -25.4320  -36.4150   23.8950 C   0  0  0  0  0  3  0  0  0  0  0  0
  -27.5700  -37.3130   24.7110 C   0  0  0  0  0  1  0  0  0  0  0  0
  -26.4610  -37.4730   23.7740 N   0  0  0  0  0  0  0  0  0  0  0  0
  -26.0530  -38.3920   23.9150 H   0  0  0  0  0  0  0  0  0  0  0  0
  -26.4080  -31.8160   25.1600 C   0  0  1  0  0  0  0  0  0  0  0  0
  -25.2990  -31.6070   26.2190 C   0  0  0  0  0  1  0  0  0  0  0  0
  -26.9930  -30.4270   24.8170 C   0  0  0  0  0  1  0  0  0  0  0  0
  -27.5560  -32.6200   25.8190 C   0  0  0  0  0  1  0  0  0  0  0  0
  2  7  1  0
  3  4  1  0
  3  2  1  0
  5  4  1  0
  5 20  1  0
  5  6  1  0
  7  1  1  0
  7  6  1  0
  8  1  2  0
  9 11  1  0
  9 13  1  0
 10 12  1  0
 12 46  1  0
 13  1  1  0
 13 10  1  0
 14 15  1  0
 14 11  1  0
 14 12  1  0
 16 14  1  0
 17 18  2  0
 18 37  1  0
 19 18  1  0
 19 22  1  0
 20 17  1  0
 20 21  1  0
 21 19  2  0
 22 23  1  0
 23 24  2  0
 25 28  1  0
 25 24  1  0
 26 25  2  0
 27 26  1  0
 27 22  2  0
 28 29  1  0
 29 30  1  0
 30 31  2  0
 32 31  1  0
 32 36  1  0
 33 32  2  0
 34 29  2  0
 34 33  1  0
 35 34  1  0
 37 38  1  0
 38 41  1  0
 38 40  1  0
 39 37  2  0
 42 43  1  0
 42 17  1  0
 44 42  1  0
 46 47  1  0
 46 45  1  0
 48 47  1  0
 49 60  2  0
 50 48  1  0
 50 55  1  0
 51 59  1  0
 51 61  1  0
 52 58  1  0
 52 54  1  0
 53 59  1  0
 54 55  2  0
 54 53  1  0
 56 50  2  0
 57 56  1  0
 57 52  2  0
 58 51  1  0
 59 49  1  0
 61 63  2  0
 62 61  1  0
 64 62  1  0
 65 74  2  0
 65 70  1  0
 66 62  1  0
 66 70  1  0
 67 66  1  0
 68 69  1  0
 68 67  1  0
 69 65  1  0
 70 71  2  0
 71 72  1  0
 73 72  2  0
 74 73  1  0
 75 49  1  0
 75 76  1  0
 75 85  1  0
 76 79  1  0
 77 81  1  0
 77 76  1  0
 78 77  2  0
 81 80  1  0
 83 81  1  0
 83 84  1  0
 83 82  1  0
 85 88  1  1
 85 86  1  0
 87 85  1  0
M  ISO  4   1 100  13 100  47 101  48 101
M  END
>  <TORSDO>  (72) 
F 17

>  <SCORE>  (72) 
-16.791

>  <name>  (72) 
74

>  <ligand_id>  (72) 
74

>  <original_smiles>  (72) 
[H]c1c([H])c([H])c2c(c1[H])C([H])([H])C([H])([H])C([H])([H])C2([H])N([H])C(=O)C1([H])N(C(=O)C([H])(N([H])C(=O)C([H])(N([H])C([H])([H])[H])C([H])([H])[H])C(C([H])([H])[H])(C([H])([H])[H])C([H])([H])[H])C([H])([H])c2c([H])c(OC([H])([H])C([H])(C([H])([H])[H])C3([H])C([H])([H])N(C(=O)N4C([H])([H])C([H])([H])C([H])([H])C([H])(n5nc(-c6c([H])c([H])c(Oc7c([H])c([H])c(F)c([H])c7F)c([H])c6[H])c(C(=O)N([H])[H])c5N([H])[H])C4([H])[H])C([H])([H])C([H])([H])[N+]3([H])[H])c([H])c([H])c2C1([H])[H]

>  <smiles>  (72) 
[H]c1c([H])c([H])c2c(c1[H])C([H])([H])C([H])([H])C([H])([H])C2([H])N([H])C(=O)C1([H])N(C(=O)C([H])(N([H])C(=O)C([H])(N([H])C([H])([H])[H])C([H])([H])[H])C(C([H])([H])[H])(C([H])([H])[H])C([H])([H])[H])C([H])([H])c2c([H])c(OC([H])([H])C([H])(C([H])([H])[H])C3([H])C([H])([H])N(C(=O)N4C([H])([H])C([H])([H])C([H])([H])C([H])(n5nc(-c6c([H])c([H])c(Oc7c([H])c([H])c(F)c([H])c7F)c([H])c6[H])c(C(=O)N([H])[H])c5N([H])[H])C4([H])[H])C([H])([H])C([H])([H])[N+]3([H])[H])c([H])c([H])c2C1([H])[H]

$$$$
75:0:0
     RDKit          3D

 97104  0  0  1  0  0  0  0  0999 V2000
  -28.9420  -21.8850   20.3220 C   0  0  0  0  0  3  0  0  0  0  0  0
  -30.0560  -20.7790   20.1100 N   0  0  0  0  0  4  0  0  0  0  0  0
  -30.9370  -21.1900   20.3790 H   0  0  0  0  0  0  0  0  0  0  0  0
  -30.0960  -20.6850   19.1070 H   0  0  0  0  0  0  0  0  0  0  0  0
  -30.3620  -19.2880   22.1660 C   0  0  0  0  0  1  0  0  0  0  0  0
  -29.9710  -19.2900   20.6850 C   0  0  0  0  0  3  0  0  0  0  0  0
  -30.6520  -17.9340   19.9170 C   0  0  0  0  0  0  0  0  0  0  0  0
  -31.1580  -15.1860   20.3030 C   0  0  0  0  0  0  0  0  0  0  0  0
  -30.9700  -12.8990   19.2500 C   0  0  0  0  0  2  0  0  0  0  0  0
  -30.0200  -12.9380   18.0360 C   0  0  0  0  0  2  0  0  0  0  0  0
  -28.5550  -12.7450   18.4680 C   0  0  0  0  0  2  0  0  0  0  0  0
  -28.1890  -13.5910   19.7170 C   0  0  0  0  0  3  0  0  0  0  0  0
  -29.2600  -13.5140   20.8220 C   0  0  0  0  0  2  0  0  0  0  0  0
  -30.5220  -13.9480   20.2070 N   0  0  0  0  0  0  0  0  0  0  0  0
  -32.3800  -15.1790   20.1340 O   0  0  0  0  0  0  0  0  0  0  0  0
  -30.4160  -16.4070   20.3490 N   0  0  0  0  0  4  0  0  0  0  0  0
  -29.4400  -16.2200   20.5290 H   0  0  0  0  0  0  0  0  0  0  0  0
  -25.8290  -14.1930   20.4980 C   0  0  0  0  0  0  0  0  0  0  0  0
  -24.7510  -13.4260   20.8500 C   0  0  0  0  0  0  0  0  0  0  0  0
  -25.1870  -12.0680   20.7590 C   0  0  0  0  0  0  0  0  0  0  0  0
  -26.8500  -13.3020   20.2120 N   0  0  0  0  0  0  0  0  0  0  0  0
  -26.4750  -12.0160   20.4350 N   0  0  0  0  0  0  0  0  0  0  0  0
  -24.4370  -10.8130   20.9000 C   0  0  0  0  0  0  0  0  0  0  0  0
  -24.7620   -9.8680   21.8980 C   0  0  0  0  0  3  0  0  0  0  0  0
  -24.0130   -8.6800   22.0290 C   0  0  0  0  0  3  0  0  0  0  0  0
  -22.9230   -8.4280   21.1630 C   0  0  0  0  0  0  0  0  0  0  0  0
  -22.6180   -9.3590   20.1550 C   0  0  0  0  0  3  0  0  0  0  0  0
  -23.3680  -10.5410   20.0230 C   0  0  0  0  0  3  0  0  0  0  0  0
  -22.1580   -7.2870   21.1980 O   0  0  0  0  0  0  0  0  0  0  0  0
  -21.8510   -6.6610   22.3770 C   0  0  0  0  0  0  0  0  0  0  0  0
  -21.1040   -7.3010   23.3910 C   0  0  0  0  0  3  0  0  0  0  0  0
  -20.7560   -6.5970   24.5590 C   0  0  0  0  0  3  0  0  0  0  0  0
  -21.1400   -5.2510   24.7150 C   0  0  0  0  0  0  0  0  0  0  0  0
  -21.8720   -4.6080   23.7010 C   0  0  0  0  0  3  0  0  0  0  0  0
  -22.2260   -5.3110   22.5370 C   0  0  0  0  0  0  0  0  0  0  0  0
  -22.9150   -4.6790   21.5540 F   0  0  0  0  0  0  0  0  0  0  0  0
  -20.7980   -4.5730   25.8350 F   0  0  0  0  0  0  0  0  0  0  0  0
  -23.3640  -13.9220   21.1380 C   0  0  0  0  0  0  0  0  0  0  0  0
  -22.6250  -13.2240   21.9920 N   0  0  0  0  0  0  0  0  0  0  0  0
  -22.9410  -14.9610   20.6350 O   0  0  0  0  0  0  0  0  0  0  0  0
  -22.9720  -12.3840   22.4320 H   0  0  0  0  0  0  0  0  0  0  0  0
  -21.6910  -13.5400   22.2110 H   0  0  0  0  0  0  0  0  0  0  0  0
  -26.0230  -15.5660   20.3750 N   0  0  0  0  0  0  0  0  0  0  0  0
  -25.2900  -16.2420   20.5550 H   0  0  0  0  0  0  0  0  0  0  0  0
  -26.8430  -15.9800   19.9550 H   0  0  0  0  0  0  0  0  0  0  0  0
  -32.0770  -18.2130   19.3610 C   0  0  0  0  0  2  0  0  0  0  0  0
  -33.8290  -17.9790   17.5210 C   0  0  0  0  0  1  0  0  0  0  0  0
  -31.4720  -18.4730   16.8270 C   0  0  0  0  0  1  0  0  0  0  0  0
  -32.3510  -17.7790   17.8850 C   0  0  0  0  0  3  0  0  0  0  0  0
  -29.3270  -23.5280   20.5640 C   0  0  0  0  0  0  0  0  0  0  0  0
  -30.4980  -23.8450   20.8010 O   0  0  0  0  0  0  0  0  0  0  0  0
  -28.2020  -24.7510   20.5010 C   0  0  0  0  0  2  0  0  0  0  0  0
  -28.4960  -26.2800   20.6440 O   0  0  0  0  0  0  0  0  0  0  0  0
  -24.5860  -31.9740   23.2950 C   0  0  0  0  0  0  0  0  0  0  0  0
  -27.4200  -27.2390   20.5180 C   0  0  0  0  0  0  0  0  0  0  0  0
  -23.4930  -30.4910   21.6610 C   0  0  0  0  0  3  0  0  0  0  0  0
  -25.0410  -28.9140   20.3480 C   0  0  0  0  0  0  0  0  0  0  0  0
  -26.0430  -30.8320   21.5760 C   0  0  0  0  0  2  0  0  0  0  0  0
  -26.1840  -29.4160   20.9780 C   0  0  0  0  0  0  0  0  0  0  0  0
  -27.3750  -28.5950   21.0470 C   0  0  0  0  0  3  0  0  0  0  0  0
  -26.2460  -26.8440   19.8420 C   0  0  0  0  0  3  0  0  0  0  0  0
  -25.0840  -27.6400   19.7670 C   0  0  0  0  0  3  0  0  0  0  0  0
  -23.7830  -29.7660   20.3190 C   0  0  0  0  0  2  0  0  0  0  0  0
  -24.7270  -31.1210   22.2330 N   0  0  0  0  0  0  0  0  0  0  0  0
  -23.4740  -32.2420   23.7690 O   0  0  0  0  0  0  0  0  0  0  0  0
  -22.8020  -29.4990   22.6310 C   0  0  0  0  0  0  0  0  0  0  0  0
  -21.4850  -29.2830   22.4550 N   0  0  0  0  0  0  0  0  0  0  0  0
  -23.4540  -28.9220   23.5030 O   0  0  0  0  0  0  0  0  0  0  0  0
  -21.0130  -29.7980   21.7250 H   0  0  0  0  0  0  0  0  0  0  0  0
  -18.1150  -28.0220   22.8860 C   0  0  0  0  0  0  0  0  0  0  0  0
  -20.6590  -28.3470   23.2250 C   0  0  0  0  0  3  0  0  0  0  0  0
  -20.8080  -26.9030   22.6940 C   0  0  0  0  0  2  0  0  0  0  0  0
  -19.7430  -26.5290   21.6570 C   0  0  0  0  0  2  0  0  0  0  0  0
  -18.3390  -26.6610   22.2510 C   0  0  0  0  0  2  0  0  0  0  0  0
  -19.2040  -28.8220   23.3280 C   0  0  0  0  0  0  0  0  0  0  0  0
  -18.9370  -30.0940   23.8790 C   0  0  0  0  0  3  0  0  0  0  0  0
  -17.6180  -30.5680   23.9960 C   0  0  0  0  0  3  0  0  0  0  0  0
  -16.5430  -29.7680   23.5680 C   0  0  0  0  0  3  0  0  0  0  0  0
  -16.7940  -28.4960   23.0210 C   0  0  0  0  0  3  0  0  0  0  0  0
  -25.8190  -32.6660   23.9460 C   0  0  0  0  0  3  0  0  0  0  0  0
  -26.3010  -31.9510   25.2680 C   0  0  1  0  0  0  0  0  0  0  0  0
  -25.1680  -31.6850   26.2860 C   0  0  0  0  0  1  0  0  0  0  0  0
  -26.9660  -30.5920   24.9450 C   0  0  0  0  0  1  0  0  0  0  0  0
  -27.3800  -32.8130   25.9640 C   0  0  0  0  0  1  0  0  0  0  0  0
  -25.4510  -34.0670   24.2230 N   0  0  0  0  0  0  0  0  0  0  0  0
  -25.7950  -35.1100   23.4570 C   0  0  0  0  0  0  0  0  0  0  0  0
  -26.5230  -35.0010   22.4660 O   0  0  0  0  0  0  0  0  0  0  0  0
  -24.8060  -34.2210   24.9840 H   0  0  0  0  0  0  0  0  0  0  0  0
  -24.0640  -36.8650   22.9510 C   0  0  0  0  0  1  0  0  0  0  0  0
  -25.2530  -36.4980   23.8540 C   0  0  0  0  0  3  0  0  0  0  0  0
  -27.3000  -37.4490   24.8240 C   0  0  0  0  0  1  0  0  0  0  0  0
  -26.2720  -37.5700   23.7900 N   0  0  0  0  0  0  0  0  0  0  0  0
  -25.8400  -38.4860   23.8760 H   0  0  0  0  0  0  0  0  0  0  0  0
  -27.9550  -21.7800   19.1310 C   0  0  0  0  0  2  0  0  0  0  0  0
  -28.8510  -21.0540   16.7780 C   0  0  0  0  0  1  0  0  0  0  0  0
  -27.4670  -23.1020   17.0270 C   0  0  0  0  0  1  0  0  0  0  0  0
  -28.4950  -22.2110   17.7320 C   0  0  0  0  0  3  0  0  0  0  0  0
  1 94  1  0
  1 50  1  0
  2  1  1  0
  2  3  1  0
  2  6  1  0
  4  2  1  0
  6  5  1  0
  7 16  2  0
  7  6  1  0
  8 16  1  0
  9 14  1  0
 10 11  1  0
 10  9  1  0
 12 11  1  0
 12 21  1  0
 12 13  1  0
 14  8  1  0
 14 13  1  0
 15  8  2  0
 16 17  1  0
 18 19  2  0
 19 38  1  0
 20 19  1  0
 20 23  1  0
 21 22  1  0
 21 18  1  0
 22 20  2  0
 23 24  1  0
 24 25  2  0
 26 29  1  0
 26 25  1  0
 27 26  2  0
 28 27  1  0
 28 23  2  0
 29 30  1  0
 30 35  2  0
 30 31  1  0
 31 32  2  0
 32 33  1  0
 33 37  1  0
 34 33  2  0
 35 34  1  0
 36 35  1  0
 38 39  1  0
 39 42  1  0
 39 41  1  0
 40 38  2  0
 43 18  1  0
 43 44  1  0
 45 43  1  0
 46  7  1  0
 47 49  1  0
 48 49  1  0
 49 46  1  0
 50 51  2  0
 52 50  1  0
 52 53  1  0
 54 65  2  0
 55 53  1  0
 55 60  1  0
 56 64  1  0
 56 66  1  0
 57 59  1  0
 58 64  1  0
 59 60  2  0
 59 58  1  0
 61 55  2  0
 62 61  1  0
 62 57  2  0
 63 57  1  0
 63 56  1  0
 64 54  1  0
 66 68  2  0
 67 66  1  0
 69 67  1  0
 70 79  2  0
 70 75  1  0
 71 67  1  0
 71 75  1  0
 72 71  1  0
 73 74  1  0
 73 72  1  0
 74 70  1  0
 75 76  2  0
 76 77  1  0
 78 77  2  0
 79 78  1  0
 80 54  1  0
 80 85  1  0
 80 81  1  0
 81 84  1  1
 81 82  1  0
 83 81  1  0
 85 88  1  0
 86 90  1  0
 86 85  1  0
 87 86  2  0
 90 89  1  0
 92 90  1  0
 92 93  1  0
 92 91  1  0
 95 97  1  0
 96 97  1  0
 97 94  1  0
M  ISO  4   8 100  16 100  52 101  53 101
M  END
>  <TORSDO>  (73) 
F 25

>  <SCORE>  (73) 
-11.349

>  <name>  (73) 
75

>  <ligand_id>  (73) 
75

>  <original_smiles>  (73) 
[H]c1c([H])c([H])c2c(c1[H])C([H])([H])C([H])([H])C([H])([H])C2([H])N([H])C(=O)C1([H])N(C(=O)C([H])(N([H])C(=O)C([H])(N([H])C([H])([H])[H])C([H])([H])[H])C(C([H])([H])[H])(C([H])([H])[H])C([H])([H])[H])C([H])([H])c2c([H])c(OC([H])([H])C(=O)C([H])(C([H])([H])C([H])(C([H])([H])[H])C([H])([H])[H])[N+]([H])([H])C([H])(C([H])([H])[H])C([H])(N([H])C(=O)N3C([H])([H])C([H])([H])C([H])([H])C([H])(n4nc(-c5c([H])c([H])c(Oc6c([H])c([H])c(F)c([H])c6F)c([H])c5[H])c(C(=O)N([H])[H])c4N([H])[H])C3([H])[H])C([H])([H])C([H])(C([H])([H])[H])C([H])([H])[H])c([H])c([H])c2C1([H])[H]

>  <smiles>  (73) 
[H]c1c([H])c([H])c2c(c1[H])C([H])([H])C([H])([H])C([H])([H])C2([H])N([H])C(=O)C1([H])N(C(=O)C([H])(N([H])C(=O)C([H])(N([H])C([H])([H])[H])C([H])([H])[H])C(C([H])([H])[H])(C([H])([H])[H])C([H])([H])[H])C([H])([H])c2c([H])c(OC([H])([H])C(=O)C([H])(C([H])([H])C([H])(C([H])([H])[H])C([H])([H])[H])[N+]([H])([H])C([H])(C([H])([H])[H])C([H])(N([H])C(=O)N3C([H])([H])C([H])([H])C([H])([H])C([H])(n4nc(-c5c([H])c([H])c(Oc6c([H])c([H])c(F)c([H])c6F)c([H])c5[H])c(C(=O)N([H])[H])c4N([H])[H])C3([H])[H])C([H])([H])C([H])(C([H])([H])[H])C([H])([H])[H])c([H])c([H])c2C1([H])[H]

$$$$
76:0:0
     RDKit          3D

 91 99  0  0  1  0  0  0  0  0999 V2000
  -27.8060  -20.2420   20.5250 C   0  0  0  0  0  2  0  0  0  0  0  0
  -29.1830  -20.4680   21.1540 C   0  0  0  0  0  2  0  0  0  0  0  0
  -27.7460  -20.6850   19.0400 C   0  0  0  0  0  2  0  0  0  0  0  0
  -30.2610  -19.6040   20.4790 C   0  0  0  0  0  2  0  0  0  0  0  0
  -29.1340  -20.8370   18.3180 C   0  0  0  0  0  3  0  0  0  0  0  0
  -30.1580  -19.4990   18.9280 C   0  0  0  0  0  3  0  0  0  0  0  0
  -29.5220  -22.5740   18.1040 C   0  0  0  0  0  3  0  0  0  0  0  0
  -28.5260  -24.0440   17.8850 C   0  0  0  0  0  3  0  0  0  0  0  0
  -28.7930  -25.6610   17.9250 O   0  0  0  0  0  0  0  0  0  0  0  0
  -25.5690  -30.0230   23.0920 C   0  0  0  0  0  0  0  0  0  0  0  0
  -27.8060  -26.6930   18.3110 C   0  0  0  0  0  0  0  0  0  0  0  0
  -24.2170  -29.2210   21.1990 C   0  0  0  0  0  3  0  0  0  0  0  0
  -25.5130  -28.3440   19.1460 C   0  0  0  0  0  0  0  0  0  0  0  0
  -26.7440  -29.6370   20.8740 C   0  0  0  0  0  2  0  0  0  0  0  0
  -26.7560  -28.5670   19.7490 C   0  0  0  0  0  0  0  0  0  0  0  0
  -27.9010  -27.7730   19.3110 C   0  0  0  0  0  3  0  0  0  0  0  0
  -26.5380  -26.6380   17.6970 C   0  0  0  0  0  3  0  0  0  0  0  0
  -25.4250  -27.4120   18.1020 C   0  0  0  0  0  3  0  0  0  0  0  0
  -24.2910  -29.1040   19.6540 C   0  0  0  0  0  2  0  0  0  0  0  0
  -25.5380  -29.6360   21.7770 N   0  0  0  0  0  0  0  0  0  0  0  0
  -24.5470  -30.0320   23.7940 O   0  0  0  0  0  0  0  0  0  0  0  0
  -23.6810  -27.8950   21.7990 C   0  0  0  0  0  0  0  0  0  0  0  0
  -22.3810  -27.6020   21.6010 N   0  0  0  0  0  0  0  0  0  0  0  0
  -24.4390  -27.1440   22.4160 O   0  0  0  0  0  0  0  0  0  0  0  0
  -21.8120  -28.2730   21.1020 H   0  0  0  0  0  0  0  0  0  0  0  0
  -19.2610  -25.7680   21.4610 C   0  0  0  0  0  0  0  0  0  0  0  0
  -21.7040  -26.3800   22.0460 C   0  0  0  0  0  3  0  0  0  0  0  0
  -22.1040  -25.1680   21.1680 C   0  0  0  0  0  2  0  0  0  0  0  0
  -21.1470  -24.9310   19.9960 C   0  0  0  0  0  2  0  0  0  0  0  0
  -19.7250  -24.6810   20.5060 C   0  0  0  0  0  2  0  0  0  0  0  0
  -20.1860  -26.5740   22.1710 C   0  0  0  0  0  0  0  0  0  0  0  0
  -19.6970  -27.5920   23.0200 C   0  0  0  0  0  3  0  0  0  0  0  0
  -18.3110  -27.8070   23.1600 C   0  0  0  0  0  3  0  0  0  0  0  0
  -17.3990  -26.9950   22.4640 C   0  0  0  0  0  3  0  0  0  0  0  0
  -17.8740  -25.9740   21.6210 C   0  0  0  0  0  3  0  0  0  0  0  0
  -26.8930  -30.4860   23.7720 C   0  0  0  0  0  3  0  0  0  0  0  0
  -27.5720  -29.3570   24.6460 C   0  0  1  0  0  0  0  0  0  0  0  0
  -26.6210  -28.7100   25.6790 C   0  0  0  0  0  1  0  0  0  0  0  0
  -28.1310  -28.2230   23.7570 C   0  0  0  0  0  1  0  0  0  0  0  0
  -28.7770  -29.9470   25.4170 C   0  0  0  0  0  1  0  0  0  0  0  0
  -26.5840  -31.6540   24.6120 N   0  0  0  0  0  0  0  0  0  0  0  0
  -26.9180  -32.9180   24.3260 C   0  0  0  0  0  0  0  0  0  0  0  0
  -27.5850  -33.2200   23.3290 O   0  0  0  0  0  0  0  0  0  0  0  0
  -25.9910  -31.4880   25.4140 H   0  0  0  0  0  0  0  0  0  0  0  0
  -25.2440  -34.7690   24.6740 C   0  0  0  0  0  1  0  0  0  0  0  0
  -26.4400  -34.0230   25.2870 C   0  0  0  0  0  3  0  0  0  0  0  0
  -28.5490  -34.4350   26.4800 C   0  0  0  0  0  1  0  0  0  0  0  0
  -27.4950  -34.9980   25.6410 N   0  0  0  0  0  0  0  0  0  0  0  0
  -27.0960  -35.7950   26.1290 H   0  0  0  0  0  0  0  0  0  0  0  0
  -30.2390  -17.7540   18.5240 C   0  0  0  0  0  0  0  0  0  0  0  0
  -31.4070  -15.2310   19.5290 C   0  0  0  0  0  0  0  0  0  0  0  0
  -31.5200  -12.6620   19.2970 C   0  0  0  0  0  2  0  0  0  0  0  0
  -30.6350  -12.2130   18.1070 C   0  0  0  0  0  2  0  0  0  0  0  0
  -29.1740  -12.0300   18.5660 C   0  0  0  0  0  2  0  0  0  0  0  0
  -28.6950  -13.2020   19.4610 C   0  0  0  0  0  3  0  0  0  0  0  0
  -29.7110  -13.5770   20.5520 C   0  0  0  0  0  2  0  0  0  0  0  0
  -30.9500  -13.9370   19.8600 N   0  0  0  0  0  0  0  0  0  0  0  0
  -32.5950  -15.2460   19.1650 O   0  0  0  0  0  0  0  0  0  0  0  0
  -30.5260  -16.4060   19.4550 N   0  0  0  0  0  4  0  0  0  0  0  0
  -29.6780  -16.1790   19.9590 H   0  0  0  0  0  0  0  0  0  0  0  0
  -26.4250  -13.9290   20.3630 C   0  0  0  0  0  0  0  0  0  0  0  0
  -25.3270  -13.2270   20.7740 C   0  0  0  0  0  0  0  0  0  0  0  0
  -25.6800  -11.8450   20.6680 C   0  0  0  0  0  0  0  0  0  0  0  0
  -27.3710  -12.9810   20.0200 N   0  0  0  0  0  0  0  0  0  0  0  0
  -26.9420  -11.7190   20.2760 N   0  0  0  0  0  0  0  0  0  0  0  0
  -24.8620  -10.6410   20.8630 C   0  0  0  0  0  0  0  0  0  0  0  0
  -25.1080   -9.7460   21.9320 C   0  0  0  0  0  3  0  0  0  0  0  0
  -24.2940   -8.6080   22.1120 C   0  0  0  0  0  3  0  0  0  0  0  0
  -23.2200   -8.3560   21.2250 C   0  0  0  0  0  0  0  0  0  0  0  0
  -22.9920   -9.2380   20.1520 C   0  0  0  0  0  3  0  0  0  0  0  0
  -23.8070  -10.3660   19.9710 C   0  0  0  0  0  3  0  0  0  0  0  0
  -22.3980   -7.2580   21.3000 O   0  0  0  0  0  0  0  0  0  0  0  0
  -21.9640   -6.7690   22.5040 C   0  0  0  0  0  0  0  0  0  0  0  0
  -21.1670   -7.5390   23.3790 C   0  0  0  0  0  3  0  0  0  0  0  0
  -20.6840   -6.9740   24.5760 C   0  0  0  0  0  3  0  0  0  0  0  0
  -20.9890   -5.6370   24.8960 C   0  0  0  0  0  0  0  0  0  0  0  0
  -21.7810   -4.8670   24.0230 C   0  0  0  0  0  3  0  0  0  0  0  0
  -22.2650   -5.4310   22.8310 C   0  0  0  0  0  0  0  0  0  0  0  0
  -23.0100   -4.6790   21.9840 F   0  0  0  0  0  0  0  0  0  0  0  0
  -20.5200   -5.0900   26.0400 F   0  0  0  0  0  0  0  0  0  0  0  0
  -23.9950  -13.8060   21.1430 C   0  0  0  0  0  0  0  0  0  0  0  0
  -23.2720  -13.1530   22.0470 N   0  0  0  0  0  0  0  0  0  0  0  0
  -23.6050  -14.8730   20.6660 O   0  0  0  0  0  0  0  0  0  0  0  0
  -23.6060  -12.2930   22.4580 H   0  0  0  0  0  0  0  0  0  0  0  0
  -22.3810  -13.5250   22.3450 H   0  0  0  0  0  0  0  0  0  0  0  0
  -26.6850  -15.2880   20.2270 N   0  0  0  0  0  0  0  0  0  0  0  0
  -25.9530  -15.9710   20.3860 H   0  0  0  0  0  0  0  0  0  0  0  0
  -27.5080  -15.6870   19.7920 H   0  0  0  0  0  0  0  0  0  0  0  0
  -30.2970  -18.0690   15.9400 C   0  0  0  0  0  1  0  0  0  0  0  0
  -32.4540  -18.0150   17.2860 C   0  0  0  0  0  1  0  0  0  0  0  0
  -31.0020  -17.5260   17.1910 C   0  0  0  0  0  3  0  0  0  0  0  0
  1  2  1  0
  3  1  1  0
  4  2  1  0
  5  7  1  0
  5  6  1  0
  5  3  1  0
  6 50  1  0
  6  4  1  0
  8  9  1  0
  8  7  2  0
  9 11  1  0
 10 21  2  0
 11 16  1  0
 12 20  1  0
 12 22  1  0
 13 19  1  0
 13 15  1  0
 14 20  1  0
 15 14  1  0
 16 15  2  0
 17 18  1  0
 17 11  2  0
 18 13  2  0
 19 12  1  0
 20 10  1  0
 22 24  2  0
 23 22  1  0
 25 23  1  0
 26 35  2  0
 26 31  1  0
 27 23  1  0
 27 31  1  0
 28 27  1  0
 29 30  1  0
 29 28  1  0
 30 26  1  0
 31 32  2  0
 32 33  1  0
 34 33  2  0
 35 34  1  0
 36 10  1  0
 36 41  1  0
 36 37  1  0
 37 40  1  1
 37 38  1  0
 39 37  1  0
 41 44  1  0
 42 41  1  0
 42 46  1  0
 43 42  2  0
 46 45  1  0
 46 48  1  0
 48 49  1  0
 48 47  1  0
 50 59  2  0
 51 57  1  0
 52 57  1  0
 53 54  1  0
 53 52  1  0
 55 54  1  0
 55 64  1  0
 55 56  1  0
 57 56  1  0
 58 51  2  0
 59 51  1  0
 59 60  1  0
 61 62  2  0
 62 81  1  0
 63 62  1  0
 63 66  1  0
 64 65  1  0
 64 61  1  0
 65 63  2  0
 66 67  1  0
 67 68  2  0
 69 72  1  0
 69 68  1  0
 70 69  2  0
 71 70  1  0
 71 66  2  0
 72 73  1  0
 73 78  2  0
 73 74  1  0
 74 75  2  0
 75 76  1  0
 76 80  1  0
 77 76  2  0
 78 77  1  0
 79 78  1  0
 81 82  1  0
 82 85  1  0
 82 84  1  0
 83 81  2  0
 86 61  1  0
 86 87  1  0
 88 86  1  0
 89 91  1  0
 91 90  1  0
 91 50  1  0
M  ISO  4   8 101   9 101  51 100  59 100
M  END
>  <TORSDO>  (74) 
F 20

>  <SCORE>  (74) 
-9.231

>  <name>  (74) 
76

>  <ligand_id>  (74) 
76

>  <original_smiles>  (74) 
[H]c1c([H])c([H])c2c(c1[H])C([H])([H])C([H])([H])C([H])([H])C2([H])N([H])C(=O)C1([H])N(C(=O)C([H])(N([H])C(=O)C([H])(N([H])C([H])([H])[H])C([H])([H])[H])C(C([H])([H])[H])(C([H])([H])[H])C([H])([H])[H])C([H])([H])c2c([H])c(OC([H])([H])C([H])([H])C3([H])C([H])([H])C([H])([H])C([H])([H])C([H])([H])C3([H])C([H])(N([H])C(=O)N3C([H])([H])C([H])([H])C([H])([H])C([H])(n4nc(-c5c([H])c([H])c(Oc6c([H])c([H])c(F)c([H])c6F)c([H])c5[H])c(C(=O)N([H])[H])c4N([H])[H])C3([H])[H])C([H])(C([H])([H])[H])C([H])([H])[H])c([H])c([H])c2C1([H])[H]

>  <smiles>  (74) 
[H]c1c([H])c([H])c2c(c1[H])C([H])([H])C([H])([H])C([H])([H])C2([H])N([H])C(=O)C1([H])N(C(=O)C([H])(N([H])C(=O)C([H])(N([H])C([H])([H])[H])C([H])([H])[H])C(C([H])([H])[H])(C([H])([H])[H])C([H])([H])[H])C([H])([H])c2c([H])c(OC([H])([H])C([H])([H])C3([H])C([H])([H])C([H])([H])C([H])([H])C([H])([H])C3([H])C([H])(N([H])C(=O)N3C([H])([H])C([H])([H])C([H])([H])C([H])(n4nc(-c5c([H])c([H])c(Oc6c([H])c([H])c(F)c([H])c6F)c([H])c5[H])c(C(=O)N([H])[H])c4N([H])[H])C3([H])[H])C([H])(C([H])([H])[H])C([H])([H])[H])c([H])c([H])c2C1([H])[H]

$$$$
77:0:0
     RDKit          3D

 91 98  0  0  1  0  0  0  0  0999 V2000
  -28.6890  -22.1600   20.5800 C   0  0  0  0  0  3  0  0  0  0  0  0
  -27.7860  -21.9700   21.7320 N   0  0  0  0  0  4  0  0  0  0  0  0
  -26.8460  -21.7990   21.4190 H   0  0  0  0  0  0  0  0  0  0  0  0
  -27.7690  -22.7790   22.3280 H   0  0  0  0  0  0  0  0  0  0  0  0
  -28.0720  -21.1810   22.2850 H   0  0  0  0  0  0  0  0  0  0  0  0
  -28.1960  -23.9160   19.9450 C   0  0  0  0  0  2  0  0  0  0  0  0
  -28.2080  -25.6090   20.3920 O   0  0  0  0  0  0  0  0  0  0  0  0
  -24.7440  -31.8610   23.3120 C   0  0  0  0  0  0  0  0  0  0  0  0
  -27.2470  -26.8130   20.2860 C   0  0  0  0  0  0  0  0  0  0  0  0
  -23.5540  -30.4930   21.6510 C   0  0  0  0  0  3  0  0  0  0  0  0
  -24.9980  -28.8440   20.2340 C   0  0  0  0  0  0  0  0  0  0  0  0
  -26.1350  -30.6150   21.5550 C   0  0  0  0  0  2  0  0  0  0  0  0
  -26.1890  -29.1910   20.8830 C   0  0  0  0  0  0  0  0  0  0  0  0
  -27.2970  -28.1990   20.8820 C   0  0  0  0  0  3  0  0  0  0  0  0
  -26.0300  -26.6730   19.5760 C   0  0  0  0  0  3  0  0  0  0  0  0
  -24.9530  -27.6130   19.5590 C   0  0  0  0  0  3  0  0  0  0  0  0
  -23.7980  -29.8020   20.2780 C   0  0  0  0  0  2  0  0  0  0  0  0
  -24.8340  -31.0180   22.2290 N   0  0  0  0  0  0  0  0  0  0  0  0
  -23.6470  -32.1710   23.8140 O   0  0  0  0  0  0  0  0  0  0  0  0
  -22.8120  -29.5180   22.6060 C   0  0  0  0  0  0  0  0  0  0  0  0
  -21.4810  -29.3800   22.4580 N   0  0  0  0  0  0  0  0  0  0  0  0
  -23.4490  -28.8840   23.4510 O   0  0  0  0  0  0  0  0  0  0  0  0
  -21.0220  -29.9350   21.7480 H   0  0  0  0  0  0  0  0  0  0  0  0
  -18.0670  -28.2150   22.9240 C   0  0  0  0  0  0  0  0  0  0  0  0
  -20.6290  -28.4510   23.2130 C   0  0  0  0  0  3  0  0  0  0  0  0
  -20.7210  -27.0220   22.6320 C   0  0  0  0  0  2  0  0  0  0  0  0
  -19.6260  -26.7190   21.6030 C   0  0  0  0  0  2  0  0  0  0  0  0
  -18.2370  -26.8720   22.2320 C   0  0  0  0  0  2  0  0  0  0  0  0
  -19.1900  -28.9630   23.3700 C   0  0  0  0  0  0  0  0  0  0  0  0
  -18.9770  -30.2140   23.9840 C   0  0  0  0  0  3  0  0  0  0  0  0
  -17.6760  -30.7240   24.1510 C   0  0  0  0  0  3  0  0  0  0  0  0
  -16.5670  -29.9760   23.7180 C   0  0  0  0  0  3  0  0  0  0  0  0
  -16.7630  -28.7230   23.1120 C   0  0  0  0  0  3  0  0  0  0  0  0
  -26.0080  -32.4880   23.9750 C   0  0  0  0  0  3  0  0  0  0  0  0
  -25.7040  -33.8970   24.3050 N   0  0  0  0  0  0  0  0  0  0  0  0
  -26.0830  -34.9560   23.5790 C   0  0  0  0  0  0  0  0  0  0  0  0
  -26.7840  -34.8520   22.5690 O   0  0  0  0  0  0  0  0  0  0  0  0
  -25.0790  -34.0500   25.0820 H   0  0  0  0  0  0  0  0  0  0  0  0
  -24.4230  -36.8110   23.1950 C   0  0  0  0  0  1  0  0  0  0  0  0
  -25.6210  -36.3540   24.0450 C   0  0  0  0  0  3  0  0  0  0  0  0
  -27.7390  -37.1690   24.9810 C   0  0  0  0  0  1  0  0  0  0  0  0
  -26.6850  -37.3800   23.9890 N   0  0  0  0  0  0  0  0  0  0  0  0
  -26.3000  -38.3080   24.1270 H   0  0  0  0  0  0  0  0  0  0  0  0
  -26.4650  -31.7220   25.2780 C   0  0  1  0  0  0  0  0  0  0  0  0
  -25.3330  -31.5210   26.3140 C   0  0  0  0  0  1  0  0  0  0  0  0
  -27.0320  -30.3270   24.9300 C   0  0  0  0  0  1  0  0  0  0  0  0
  -27.6190  -32.4920   25.9660 C   0  0  0  0  0  1  0  0  0  0  0  0
  -28.9210  -20.3530   19.9380 C   0  0  0  0  0  3  0  0  0  0  0  0
  -27.6370  -19.9730   19.1660 C   0  0  0  0  0  2  0  0  0  0  0  0
  -26.1140  -20.3510   17.1900 C   0  0  0  0  0  1  0  0  0  0  0  0
  -28.5710  -19.8910   16.7610 C   0  0  0  0  0  1  0  0  0  0  0  0
  -27.5450  -20.5320   17.7220 C   0  0  0  0  0  3  0  0  0  0  0  0
  -29.6360  -18.6850   20.5700 C   0  0  0  0  0  2  0  0  0  0  0  0
  -30.3430  -15.6140   20.2860 C   0  0  0  0  0  0  0  0  0  0  0  0
  -30.4550  -13.0840   19.4700 C   0  0  0  0  0  2  0  0  0  0  0  0
  -29.5820  -12.6970   18.2500 C   0  0  0  0  0  2  0  0  0  0  0  0
  -28.1420  -12.3630   18.6860 C   0  0  0  0  0  2  0  0  0  0  0  0
  -27.6190  -13.3550   19.7530 C   0  0  0  0  0  3  0  0  0  0  0  0
  -28.6410  -13.6620   20.8650 C   0  0  0  0  0  2  0  0  0  0  0  0
  -29.8160  -14.2610   20.1970 N   0  0  0  0  0  0  0  0  0  0  0  0
  -31.5860  -15.5590   20.2230 O   0  0  0  0  0  0  0  0  0  0  0  0
  -29.5700  -16.9510   20.2470 N   0  0  0  0  0  0  0  0  0  0  0  0
  -28.6020  -16.7040   20.0870 H   0  0  0  0  0  0  0  0  0  0  0  0
  -25.2410  -13.8690   20.4970 C   0  0  0  0  0  0  0  0  0  0  0  0
  -24.1840  -13.0830   20.8540 C   0  0  0  0  0  0  0  0  0  0  0  0
  -24.6700  -11.7380   20.8340 C   0  0  0  0  0  0  0  0  0  0  0  0
  -26.2980  -13.0080   20.2660 N   0  0  0  0  0  0  0  0  0  0  0  0
  -25.9660  -11.7180   20.5380 N   0  0  0  0  0  0  0  0  0  0  0  0
  -23.9520  -10.4680   21.0160 C   0  0  0  0  0  0  0  0  0  0  0  0
  -24.3580   -9.5130   21.9750 C   0  0  0  0  0  3  0  0  0  0  0  0
  -23.6320   -8.3140   22.1480 C   0  0  0  0  0  3  0  0  0  0  0  0
  -22.4850   -8.0560   21.3580 C   0  0  0  0  0  0  0  0  0  0  0  0
  -22.0990   -9.0010   20.3870 C   0  0  0  0  0  3  0  0  0  0  0  0
  -22.8280  -10.1890   20.2130 C   0  0  0  0  0  3  0  0  0  0  0  0
  -21.7310   -6.9100   21.4350 O   0  0  0  0  0  0  0  0  0  0  0  0
  -21.6250   -6.1960   22.6020 C   0  0  0  0  0  0  0  0  0  0  0  0
  -21.0910   -6.7660   23.7780 C   0  0  0  0  0  3  0  0  0  0  0  0
  -20.9380   -5.9750   24.9340 C   0  0  0  0  0  3  0  0  0  0  0  0
  -21.3110   -4.6170   24.9160 C   0  0  0  0  0  0  0  0  0  0  0  0
  -21.8390   -4.0510   23.7420 C   0  0  0  0  0  3  0  0  0  0  0  0
  -21.9940   -4.8350   22.5900 C   0  0  0  0  0  0  0  0  0  0  0  0
  -22.4840   -4.2780   21.4560 F   0  0  0  0  0  0  0  0  0  0  0  0
  -21.1570   -3.8560   26.0250 F   0  0  0  0  0  0  0  0  0  0  0  0
  -22.7770  -13.5470   21.0880 C   0  0  0  0  0  0  0  0  0  0  0  0
  -22.0300  -12.8520   21.9400 N   0  0  0  0  0  0  0  0  0  0  0  0
  -22.3440  -14.5710   20.5540 O   0  0  0  0  0  0  0  0  0  0  0  0
  -22.3870  -12.0360   22.4110 H   0  0  0  0  0  0  0  0  0  0  0  0
  -21.0850  -13.1530   22.1340 H   0  0  0  0  0  0  0  0  0  0  0  0
  -25.3940  -15.2380   20.3110 N   0  0  0  0  0  0  0  0  0  0  0  0
  -24.6190  -15.8900   20.3950 H   0  0  0  0  0  0  0  0  0  0  0  0
  -26.2340  -15.6760   19.9600 H   0  0  0  0  0  0  0  0  0  0  0  0
  1  6  1  0
  1  2  1  0
  2  5  1  0
  2  4  1  0
  3  2  1  0
  6  7  1  0
  8 19  2  0
  9  7  1  0
  9 14  1  0
 10 18  1  0
 10 20  1  0
 11 17  1  0
 11 13  1  0
 12 18  1  0
 13 12  1  0
 14 13  2  0
 15  9  2  0
 16 15  1  0
 16 11  2  0
 17 10  1  0
 18  8  1  0
 20 22  2  0
 21 20  1  0
 23 21  1  0
 24 33  2  0
 24 29  1  0
 25 21  1  0
 25 29  1  0
 26 25  1  0
 27 28  1  0
 27 26  1  0
 28 24  1  0
 29 30  2  0
 30 31  1  0
 32 31  2  0
 33 32  1  0
 34  8  1  0
 34 35  1  0
 34 44  1  0
 35 38  1  0
 36 40  1  0
 36 35  1  0
 37 36  2  0
 40 39  1  0
 42 40  1  0
 42 43  1  0
 42 41  1  0
 44 47  1  1
 44 45  1  0
 46 44  1  0
 48 49  1  0
 48 53  1  0
 48  1  1  0
 50 52  1  0
 51 52  1  0
 52 49  1  0
 55 60  1  0
 56 57  1  0
 56 55  1  0
 58 57  1  0
 58 67  1  0
 58 59  1  0
 60 54  1  0
 60 59  1  0
 61 54  2  0
 62 54  1  0
 62 53  1  0
 63 62  1  0
 64 65  2  0
 65 84  1  0
 66 65  1  0
 66 69  1  0
 67 64  1  0
 67 68  1  0
 68 66  2  0
 69 70  1  0
 70 71  2  0
 72 75  1  0
 72 71  1  0
 73 72  2  0
 74 73  1  0
 74 69  2  0
 75 76  1  0
 76 77  1  0
 77 78  2  0
 79 78  1  0
 79 83  1  0
 80 79  2  0
 81 76  2  0
 81 80  1  0
 82 81  1  0
 84 85  1  0
 85 88  1  0
 85 87  1  0
 86 84  2  0
 89 90  1  0
 89 64  1  0
 91 89  1  0
M  ISO  4   6 101   7 101  54 100  62 100
M  END
>  <TORSDO>  (75) 
F 22

>  <SCORE>  (75) 
-15.784

>  <name>  (75) 
77

>  <ligand_id>  (75) 
77

>  <original_smiles>  (75) 
[H]c1c([H])c([H])c2c(c1[H])C([H])([H])C([H])([H])C([H])([H])C2([H])N([H])C(=O)C1([H])N(C(=O)C([H])(N([H])C(=O)C([H])(N([H])C([H])([H])[H])C([H])([H])[H])C(C([H])([H])[H])(C([H])([H])[H])C([H])([H])[H])C([H])([H])c2c([H])c(OC([H])([H])C([H])(C([H])(C([H])([H])N([H])C(=O)N3C([H])([H])C([H])([H])C([H])([H])C([H])(n4nc(-c5c([H])c([H])c(Oc6c([H])c([H])c(F)c([H])c6F)c([H])c5[H])c(C(=O)N([H])[H])c4N([H])[H])C3([H])[H])C([H])([H])C([H])(C([H])([H])[H])C([H])([H])[H])[N+]([H])([H])[H])c([H])c([H])c2C1([H])[H]

>  <smiles>  (75) 
[H]c1c([H])c([H])c2c(c1[H])C([H])([H])C([H])([H])C([H])([H])C2([H])N([H])C(=O)C1([H])N(C(=O)C([H])(N([H])C(=O)C([H])(N([H])C([H])([H])[H])C([H])([H])[H])C(C([H])([H])[H])(C([H])([H])[H])C([H])([H])[H])C([H])([H])c2c([H])c(OC([H])([H])C([H])(C([H])(C([H])([H])N([H])C(=O)N3C([H])([H])C([H])([H])C([H])([H])C([H])(n4nc(-c5c([H])c([H])c(Oc6c([H])c([H])c(F)c([H])c6F)c([H])c5[H])c(C(=O)N([H])[H])c4N([H])[H])C3([H])[H])C([H])([H])C([H])(C([H])([H])[H])C([H])([H])[H])[N+]([H])([H])[H])c([H])c([H])c2C1([H])[H]

$$$$
78:0:0
     RDKit          3D

102112  0  0  1  0  0  0  0  0999 V2000
  -30.9570  -18.0710   21.6400 C   0  0  0  0  0  0  0  0  0  0  0  0
  -31.9310  -23.2380   19.7440 C   0  0  0  0  0  2  0  0  0  0  0  0
  -31.4430  -24.4670   20.5210 C   0  0  0  0  0  2  0  0  0  0  0  0
  -32.6170  -20.8010   19.9180 C   0  0  0  0  0  2  0  0  0  0  0  0
  -30.3040  -22.9440   22.1850 C   0  0  0  0  0  2  0  0  0  0  0  0
  -32.8070  -19.6200   20.8800 C   0  0  0  0  0  2  0  0  0  0  0  0
  -31.0430  -20.4640   22.3530 C   0  0  0  0  0  2  0  0  0  0  0  0
  -32.1200  -22.0340   20.6760 C   0  0  0  0  0  3  0  0  0  0  0  0
  -30.8190  -21.6950   21.4300 C   0  0  0  0  0  3  0  0  0  0  0  0
  -30.1180  -24.1870   21.2650 C   0  0  0  0  0  3  0  0  0  0  0  0
  -31.5520  -19.3010   21.5920 N   0  0  0  0  0  0  0  0  0  0  0  0
  -29.9980  -17.8300   22.3800 O   0  0  0  0  0  0  0  0  0  0  0  0
  -28.2530  -25.1370   22.7580 C   0  0  0  0  0  1  0  0  0  0  0  0
  -29.5770  -25.4390   22.0290 C   0  0  0  0  0  3  0  0  0  0  0  0
  -29.4150  -26.7240   21.1680 C   0  0  0  0  0  2  0  0  0  0  0  0
  -28.3450  -26.5790   20.2300 O   0  0  0  0  0  0  0  0  0  0  0  0
  -24.5110  -31.8340   23.2410 C   0  0  0  0  0  0  0  0  0  0  0  0
  -27.2240  -27.3790   20.2770 C   0  0  0  0  0  0  0  0  0  0  0  0
  -23.3280  -30.4100   21.5960 C   0  0  0  0  0  3  0  0  0  0  0  0
  -24.8090  -28.8570   20.2180 C   0  0  0  0  0  0  0  0  0  0  0  0
  -25.8510  -30.7830   21.4260 C   0  0  0  0  0  2  0  0  0  0  0  0
  -25.9520  -29.4010   20.8160 C   0  0  0  0  0  0  0  0  0  0  0  0
  -27.1630  -28.6760   20.8430 C   0  0  0  0  0  3  0  0  0  0  0  0
  -26.0650  -26.8490   19.6730 C   0  0  0  0  0  3  0  0  0  0  0  0
  -24.8590  -27.5760   19.6420 C   0  0  0  0  0  3  0  0  0  0  0  0
  -23.5580  -29.7080   20.2310 C   0  0  0  0  0  2  0  0  0  0  0  0
  -24.5800  -31.0240   22.1460 N   0  0  0  0  0  0  0  0  0  0  0  0
  -23.4230  -32.1110   23.7630 O   0  0  0  0  0  0  0  0  0  0  0  0
  -22.6660  -29.4010   22.5620 C   0  0  0  0  0  0  0  0  0  0  0  0
  -21.3500  -29.1900   22.3940 N   0  0  0  0  0  0  0  0  0  0  0  0
  -23.3340  -28.8100   23.4150 O   0  0  0  0  0  0  0  0  0  0  0  0
  -20.8750  -29.7170   21.6740 H   0  0  0  0  0  0  0  0  0  0  0  0
  -17.9900  -27.9270   22.7870 C   0  0  0  0  0  0  0  0  0  0  0  0
  -20.5260  -28.2560   23.1590 C   0  0  0  0  0  3  0  0  0  0  0  0
  -20.6870  -26.8110   22.6350 C   0  0  0  0  0  2  0  0  0  0  0  0
  -19.6370  -26.4300   21.5850 C   0  0  0  0  0  2  0  0  0  0  0  0
  -18.2250  -26.5620   22.1640 C   0  0  0  0  0  2  0  0  0  0  0  0
  -19.0700  -28.7290   23.2400 C   0  0  0  0  0  0  0  0  0  0  0  0
  -18.7970  -30.0060   23.7780 C   0  0  0  0  0  3  0  0  0  0  0  0
  -17.4750  -30.4810   23.8700 C   0  0  0  0  0  3  0  0  0  0  0  0
  -16.4080  -29.6760   23.4340 C   0  0  0  0  0  3  0  0  0  0  0  0
  -16.6650  -28.4020   22.8980 C   0  0  0  0  0  3  0  0  0  0  0  0
  -25.7890  -32.4700   23.8700 C   0  0  0  0  0  3  0  0  0  0  0  0
  -25.4780  -33.8710   24.1790 N   0  0  0  0  0  0  0  0  0  0  0  0
  -25.8550  -34.9170   23.4300 C   0  0  0  0  0  0  0  0  0  0  0  0
  -26.5730  -34.8010   22.4330 O   0  0  0  0  0  0  0  0  0  0  0  0
  -24.8470  -34.0340   24.9500 H   0  0  0  0  0  0  0  0  0  0  0  0
  -24.1620  -36.7190   22.9790 C   0  0  0  0  0  1  0  0  0  0  0  0
  -25.3560  -36.3100   23.8550 C   0  0  0  0  0  3  0  0  0  0  0  0
  -27.4520  -37.1870   24.7900 C   0  0  0  0  0  1  0  0  0  0  0  0
  -26.4020  -37.3540   23.7880 N   0  0  0  0  0  0  0  0  0  0  0  0
  -25.9950  -38.2790   23.9050 H   0  0  0  0  0  0  0  0  0  0  0  0
  -26.2930  -31.7120   25.1600 C   0  0  1  0  0  0  0  0  0  0  0  0
  -25.1840  -31.4680   26.2100 C   0  0  0  0  0  1  0  0  0  0  0  0
  -26.9000  -30.3400   24.7830 C   0  0  0  0  0  1  0  0  0  0  0  0
  -27.4200  -32.5250   25.8390 C   0  0  0  0  0  1  0  0  0  0  0  0
  -31.4390  -16.9470   20.6940 C   0  0  0  0  0  3  0  0  0  0  0  0
  -31.7070  -14.4750   20.7510 C   0  0  0  0  0  0  0  0  0  0  0  0
  -31.2500  -12.5060   19.3650 C   0  0  0  0  0  2  0  0  0  0  0  0
  -30.4140  -12.9780   18.1600 C   0  0  0  0  0  2  0  0  0  0  0  0
  -28.9110  -12.9810   18.4920 C   0  0  0  0  0  2  0  0  0  0  0  0
  -28.5880  -13.6680   19.8460 C   0  0  0  0  0  3  0  0  0  0  0  0
  -29.5480  -13.1900   20.9610 C   0  0  0  0  0  2  0  0  0  0  0  0
  -30.9260  -13.3920   20.4930 N   0  0  0  0  0  0  0  0  0  0  0  0
  -32.8950  -14.5350   20.4270 O   0  0  0  0  0  0  0  0  0  0  0  0
  -31.0400  -15.5850   21.1100 N   0  0  0  0  0  0  0  0  0  0  0  0
  -30.0950  -15.4740   21.4410 H   0  0  0  0  0  0  0  0  0  0  0  0
  -26.1830  -14.4350   20.3510 C   0  0  0  0  0  0  0  0  0  0  0  0
  -25.0430  -13.7370   20.6450 C   0  0  0  0  0  0  0  0  0  0  0  0
  -25.4210  -12.3600   20.6750 C   0  0  0  0  0  0  0  0  0  0  0  0
  -27.1860  -13.4880   20.2190 N   0  0  0  0  0  0  0  0  0  0  0  0
  -26.7260  -12.2350   20.4720 N   0  0  0  0  0  0  0  0  0  0  0  0
  -24.6070  -11.1460   20.8290 C   0  0  0  0  0  0  0  0  0  0  0  0
  -24.9440  -10.1430   21.7640 C   0  0  0  0  0  3  0  0  0  0  0  0
  -24.1340   -8.9970   21.9080 C   0  0  0  0  0  3  0  0  0  0  0  0
  -22.9700   -8.8450   21.1160 C   0  0  0  0  0  0  0  0  0  0  0  0
  -22.6500   -9.8370   20.1730 C   0  0  0  0  0  3  0  0  0  0  0  0
  -23.4610  -10.9750   20.0270 C   0  0  0  0  0  3  0  0  0  0  0  0
  -22.1410   -7.7510   21.1680 O   0  0  0  0  0  0  0  0  0  0  0  0
  -21.9760   -7.0260   22.3210 C   0  0  0  0  0  0  0  0  0  0  0  0
  -21.5520   -7.6290   23.5250 C   0  0  0  0  0  3  0  0  0  0  0  0
  -21.3270   -6.8370   24.6680 C   0  0  0  0  0  3  0  0  0  0  0  0
  -21.5150   -5.4430   24.6080 C   0  0  0  0  0  0  0  0  0  0  0  0
  -21.9310   -4.8410   23.4060 C   0  0  0  0  0  3  0  0  0  0  0  0
  -22.1580   -5.6300   22.2660 C   0  0  0  0  0  0  0  0  0  0  0  0
  -22.5370   -5.0410   21.1070 F   0  0  0  0  0  0  0  0  0  0  0  0
  -21.2920   -4.6800   25.7040 F   0  0  0  0  0  0  0  0  0  0  0  0
  -23.6600  -14.3020   20.7980 C   0  0  0  0  0  0  0  0  0  0  0  0
  -22.8370  -13.6910   21.6430 N   0  0  0  0  0  0  0  0  0  0  0  0
  -23.3180  -15.3240   20.2040 O   0  0  0  0  0  0  0  0  0  0  0  0
  -23.1220  -12.8660   22.1500 H   0  0  0  0  0  0  0  0  0  0  0  0
  -21.9070  -14.0570   21.7880 H   0  0  0  0  0  0  0  0  0  0  0  0
  -26.4420  -15.7900   20.1650 N   0  0  0  0  0  0  0  0  0  0  0  0
  -25.7060  -16.4840   20.2010 H   0  0  0  0  0  0  0  0  0  0  0  0
  -27.3390  -16.1730   19.8990 H   0  0  0  0  0  0  0  0  0  0  0  0
  -30.9260  -17.2330   19.2590 C   0  0  0  0  0  2  0  0  0  0  0  0
  -33.6910  -16.9950   15.9110 C   0  0  0  0  0  3  0  0  0  0  0  0
  -34.0450  -17.7270   17.0600 C   0  0  0  0  0  3  0  0  0  0  0  0
  -32.4470  -16.3370   15.8540 C   0  0  0  0  0  3  0  0  0  0  0  0
  -33.1610  -17.8000   18.1530 C   0  0  0  0  0  3  0  0  0  0  0  0
  -31.5650  -16.4040   16.9490 C   0  0  0  0  0  3  0  0  0  0  0  0
  -31.9180  -17.1270   18.1090 C   0  0  0  0  0  0  0  0  0  0  0  0
  1 12  2  0
  2  3  1  0
  3 10  1  0
  4  8  1  0
  4  6  1  0
  6 11  1  0
  8  2  1  0
  8  9  1  0
  9  5  1  0
  9  7  1  0
 10 14  1  0
 10  5  1  0
 11  1  1  0
 11  7  1  0
 14 13  1  0
 15 14  1  0
 16 18  1  0
 16 15  1  0
 17 28  2  0
 18 23  1  0
 19 27  1  0
 19 29  1  0
 20 26  1  0
 20 22  1  0
 21 27  1  0
 22 23  2  0
 22 21  1  0
 24 18  2  0
 25 24  1  0
 25 20  2  0
 26 19  1  0
 27 17  1  0
 29 31  2  0
 30 29  1  0
 32 30  1  0
 33 42  2  0
 33 38  1  0
 34 30  1  0
 34 38  1  0
 35 34  1  0
 36 37  1  0
 36 35  1  0
 37 33  1  0
 38 39  2  0
 39 40  1  0
 41 40  2  0
 42 41  1  0
 43 17  1  0
 43 44  1  0
 43 53  1  0
 44 47  1  0
 45 49  1  0
 45 44  1  0
 46 45  2  0
 49 48  1  0
 51 49  1  0
 51 52  1  0
 51 50  1  0
 53 56  1  1
 53 54  1  0
 55 53  1  0
 57 96  1  0
 57 66  1  0
 57  1  1  0
 58 66  1  0
 59 64  1  0
 60 61  1  0
 60 59  1  0
 62 61  1  0
 62 71  1  0
 62 63  1  0
 64 58  1  0
 64 63  1  0
 65 58  2  0
 66 67  1  0
 68 69  2  0
 69 70  1  0
 69 88  1  0
 70 73  1  0
 71 68  1  0
 71 72  1  0
 72 70  2  0
 73 74  1  0
 74 75  2  0
 76 79  1  0
 76 75  1  0
 77 76  2  0
 78 77  1  0
 78 73  2  0
 79 80  1  0
 80 81  1  0
 81 82  2  0
 83 82  1  0
 83 87  1  0
 84 83  2  0
 85 80  2  0
 85 84  1  0
 86 85  1  0
 88 89  1  0
 89 92  1  0
 89 91  1  0
 90 88  2  0
 93 94  1  0
 93 68  1  0
 95 93  1  0
 97 98  1  0
 98100  2  0
 99 97  2  0
 99101  1  0
101102  2  0
102100  1  0
102 96  1  0
M  ISO  4  15 101  16 101  58 100  66 100
M  END
>  <TORSDO>  (76) 
F 21

>  <SCORE>  (76) 
-12.694

>  <name>  (76) 
78

>  <ligand_id>  (76) 
78

>  <original_smiles>  (76) 
[H]c1c([H])c([H])c(C([H])([H])C([H])(C(=O)N2C([H])([H])C([H])([H])C3([H])C([H])([H])C([H])([H])C([H])(C([H])(C([H])([H])[H])C([H])([H])Oc4c([H])c([H])c5c(c4[H])C([H])([H])N(C(=O)C([H])(N([H])C(=O)C([H])(N([H])C([H])([H])[H])C([H])([H])[H])C(C([H])([H])[H])(C([H])([H])[H])C([H])([H])[H])C([H])(C(=O)N([H])C4([H])c6c([H])c([H])c([H])c([H])c6C([H])([H])C([H])([H])C4([H])[H])C5([H])[H])C([H])([H])C3([H])C2([H])[H])N([H])C(=O)N2C([H])([H])C([H])([H])C([H])([H])C([H])(n3nc(-c4c([H])c([H])c(Oc5c([H])c([H])c(F)c([H])c5F)c([H])c4[H])c(C(=O)N([H])[H])c3N([H])[H])C2([H])[H])c([H])c1[H]

>  <smiles>  (76) 
[H]c1c([H])c([H])c(C([H])([H])C([H])(C(=O)N2C([H])([H])C([H])([H])C3([H])C([H])([H])C([H])([H])C([H])(C([H])(C([H])([H])[H])C([H])([H])Oc4c([H])c([H])c5c(c4[H])C([H])([H])N(C(=O)C([H])(N([H])C(=O)C([H])(N([H])C([H])([H])[H])C([H])([H])[H])C(C([H])([H])[H])(C([H])([H])[H])C([H])([H])[H])C([H])(C(=O)N([H])C4([H])c6c([H])c([H])c([H])c([H])c6C([H])([H])C([H])([H])C4([H])[H])C5([H])[H])C([H])([H])C3([H])C2([H])[H])N([H])C(=O)N2C([H])([H])C([H])([H])C([H])([H])C([H])(n3nc(-c4c([H])c([H])c(Oc5c([H])c([H])c(F)c([H])c5F)c([H])c4[H])c(C(=O)N([H])[H])c3N([H])[H])C2([H])[H])c([H])c1[H]

$$$$
79:0:0
     RDKit          3D

 90 97  0  0  1  0  0  0  0  0999 V2000
  -28.9730  -21.2370   19.9160 C   0  0  0  0  0  2  0  0  0  0  0  0
  -27.9410  -22.6320   21.9030 C   0  0  0  0  0  1  0  0  0  0  0  0
  -28.7240  -22.8580   20.6050 C   0  0  0  0  0  3  0  0  0  0  0  0
  -28.1140  -24.3740   19.8920 C   0  0  0  0  0  2  0  0  0  0  0  0
  -28.2260  -25.9550   20.2770 O   0  0  0  0  0  0  0  0  0  0  0  0
  -24.6260  -31.8450   23.1900 C   0  0  0  0  0  0  0  0  0  0  0  0
  -27.2020  -27.0210   20.1650 C   0  0  0  0  0  0  0  0  0  0  0  0
  -23.4340  -30.4490   21.5470 C   0  0  0  0  0  3  0  0  0  0  0  0
  -24.8880  -28.8590   20.1160 C   0  0  0  0  0  0  0  0  0  0  0  0
  -25.9990  -30.6800   21.4010 C   0  0  0  0  0  2  0  0  0  0  0  0
  -26.0710  -29.2770   20.7400 C   0  0  0  0  0  0  0  0  0  0  0  0
  -27.2210  -28.3770   20.7440 C   0  0  0  0  0  3  0  0  0  0  0  0
  -25.9970  -26.7480   19.4830 C   0  0  0  0  0  3  0  0  0  0  0  0
  -24.8740  -27.6130   19.4680 C   0  0  0  0  0  3  0  0  0  0  0  0
  -23.6620  -29.7700   20.1680 C   0  0  0  0  0  2  0  0  0  0  0  0
  -24.7070  -31.0210   22.0970 N   0  0  0  0  0  0  0  0  0  0  0  0
  -23.5350  -32.1320   23.7110 O   0  0  0  0  0  0  0  0  0  0  0  0
  -22.7480  -29.4470   22.5100 C   0  0  0  0  0  0  0  0  0  0  0  0
  -21.4170  -29.2880   22.3890 N   0  0  0  0  0  0  0  0  0  0  0  0
  -23.4160  -28.8150   23.3300 O   0  0  0  0  0  0  0  0  0  0  0  0
  -20.9340  -29.8500   21.7040 H   0  0  0  0  0  0  0  0  0  0  0  0
  -18.0250  -28.1090   22.9070 C   0  0  0  0  0  0  0  0  0  0  0  0
  -20.5910  -28.3480   23.1540 C   0  0  0  0  0  3  0  0  0  0  0  0
  -20.6730  -26.9220   22.5610 C   0  0  0  0  0  2  0  0  0  0  0  0
  -19.5570  -26.6210   21.5540 C   0  0  0  0  0  2  0  0  0  0  0  0
  -18.1820  -26.7680   22.2110 C   0  0  0  0  0  2  0  0  0  0  0  0
  -19.1540  -28.8590   23.3340 C   0  0  0  0  0  0  0  0  0  0  0  0
  -18.9470  -30.1140   23.9460 C   0  0  0  0  0  3  0  0  0  0  0  0
  -17.6450  -30.6170   24.1370 C   0  0  0  0  0  3  0  0  0  0  0  0
  -16.5330  -29.8630   23.7270 C   0  0  0  0  0  3  0  0  0  0  0  0
  -16.7240  -28.6110   23.1170 C   0  0  0  0  0  3  0  0  0  0  0  0
  -25.8980  -32.4850   23.8270 C   0  0  0  0  0  3  0  0  0  0  0  0
  -25.5760  -33.8810   24.1680 N   0  0  0  0  0  0  0  0  0  0  0  0
  -25.9050  -34.9470   23.4270 C   0  0  0  0  0  0  0  0  0  0  0  0
  -26.5740  -34.8620   22.3940 O   0  0  0  0  0  0  0  0  0  0  0  0
  -24.9900  -34.0200   24.9770 H   0  0  0  0  0  0  0  0  0  0  0  0
  -24.1750  -36.7450   23.1020 C   0  0  0  0  0  1  0  0  0  0  0  0
  -25.4160  -36.3290   23.9070 C   0  0  0  0  0  3  0  0  0  0  0  0
  -27.5490  -37.2070   24.7530 C   0  0  0  0  0  1  0  0  0  0  0  0
  -26.4470  -37.3860   23.8100 N   0  0  0  0  0  0  0  0  0  0  0  0
  -26.0370  -38.3030   23.9700 H   0  0  0  0  0  0  0  0  0  0  0  0
  -26.4040  -31.7150   25.1090 C   0  0  1  0  0  0  0  0  0  0  0  0
  -25.3050  -31.4820   26.1710 C   0  0  0  0  0  1  0  0  0  0  0  0
  -26.9910  -30.3350   24.7310 C   0  0  0  0  0  1  0  0  0  0  0  0
  -27.5510  -32.5110   25.7770 C   0  0  0  0  0  1  0  0  0  0  0  0
  -29.1200  -19.5870   20.5930 C   0  0  0  0  0  2  0  0  0  0  0  0
  -30.0550  -18.1260   20.1540 C   0  0  0  0  0  0  0  0  0  0  0  0
  -30.4690  -15.2340   20.2600 C   0  0  0  0  0  0  0  0  0  0  0  0
  -30.3970  -12.8220   19.3440 C   0  0  0  0  0  2  0  0  0  0  0  0
  -29.4720  -12.6650   18.1140 C   0  0  0  0  0  2  0  0  0  0  0  0
  -28.0220  -12.4000   18.5550 C   0  0  0  0  0  2  0  0  0  0  0  0
  -27.5840  -13.3460   19.7030 C   0  0  0  0  0  3  0  0  0  0  0  0
  -28.6390  -13.4620   20.8270 C   0  0  0  0  0  2  0  0  0  0  0  0
  -29.8760  -13.9490   20.1990 N   0  0  0  0  0  0  0  0  0  0  0  0
  -31.6820  -15.2100   20.0200 O   0  0  0  0  0  0  0  0  0  0  0  0
  -29.7390  -16.5100   20.3870 N   0  0  0  0  0  4  0  0  0  0  0  0
  -28.7670  -16.3390   20.6050 H   0  0  0  0  0  0  0  0  0  0  0  0
  -25.2150  -13.9020   20.4630 C   0  0  0  0  0  0  0  0  0  0  0  0
  -24.1570  -13.1220   20.8360 C   0  0  0  0  0  0  0  0  0  0  0  0
  -24.6270  -11.7720   20.8070 C   0  0  0  0  0  0  0  0  0  0  0  0
  -26.2590  -13.0280   20.2150 N   0  0  0  0  0  0  0  0  0  0  0  0
  -25.9180  -11.7420   20.4880 N   0  0  0  0  0  0  0  0  0  0  0  0
  -23.9040  -10.5090   21.0000 C   0  0  0  0  0  0  0  0  0  0  0  0
  -24.3360   -9.5490   21.9410 C   0  0  0  0  0  3  0  0  0  0  0  0
  -23.6130   -8.3490   22.1220 C   0  0  0  0  0  3  0  0  0  0  0  0
  -22.4450   -8.1020   21.3640 C   0  0  0  0  0  0  0  0  0  0  0  0
  -22.0310   -9.0520   20.4140 C   0  0  0  0  0  3  0  0  0  0  0  0
  -22.7540  -10.2440   20.2310 C   0  0  0  0  0  3  0  0  0  0  0  0
  -21.6910   -6.9590   21.4580 O   0  0  0  0  0  0  0  0  0  0  0  0
  -21.6340   -6.2260   22.6160 C   0  0  0  0  0  0  0  0  0  0  0  0
  -21.1860   -6.7850   23.8340 C   0  0  0  0  0  3  0  0  0  0  0  0
  -21.0790   -5.9770   24.9830 C   0  0  0  0  0  3  0  0  0  0  0  0
  -21.4070   -4.6110   24.9170 C   0  0  0  0  0  0  0  0  0  0  0  0
  -21.8450   -4.0490   23.7040 C   0  0  0  0  0  3  0  0  0  0  0  0
  -21.9560   -4.8530   22.5570 C   0  0  0  0  0  0  0  0  0  0  0  0
  -22.3600   -4.3020   21.3870 F   0  0  0  0  0  0  0  0  0  0  0  0
  -21.2950   -3.8310   26.0180 F   0  0  0  0  0  0  0  0  0  0  0  0
  -22.7580  -13.5970   21.1040 C   0  0  0  0  0  0  0  0  0  0  0  0
  -22.0290  -12.9010   21.9690 N   0  0  0  0  0  0  0  0  0  0  0  0
  -22.3210  -14.6210   20.5800 O   0  0  0  0  0  0  0  0  0  0  0  0
  -22.3930  -12.0740   22.4200 H   0  0  0  0  0  0  0  0  0  0  0  0
  -21.0880  -13.2030   22.1830 H   0  0  0  0  0  0  0  0  0  0  0  0
  -25.3680  -15.2750   20.2840 N   0  0  0  0  0  0  0  0  0  0  0  0
  -24.5870  -15.9130   20.3920 H   0  0  0  0  0  0  0  0  0  0  0  0
  -26.2020  -15.7220   19.9270 H   0  0  0  0  0  0  0  0  0  0  0  0
  -30.6260  -18.3180   18.7190 C   0  0  0  0  0  2  0  0  0  0  0  0
  -32.3350  -20.2040   19.2060 C   0  0  0  0  0  1  0  0  0  0  0  0
  -33.1240  -17.8340   19.1790 C   0  0  0  0  0  1  0  0  0  0  0  0
  -32.4240  -18.9260   17.0680 C   0  0  0  0  0  1  0  0  0  0  0  0
  -32.1020  -18.8160   18.5710 C   0  0  1  0  0  0  0  0  0  0  0  0
  1 46  1  0
  1  3  1  0
  3  2  1  0
  4  5  1  0
  4  3  1  0
  6 17  2  0
  7  5  1  0
  7 12  1  0
  8 16  1  0
  8 18  1  0
  9 15  1  0
  9 11  1  0
 10 16  1  0
 11 12  2  0
 11 10  1  0
 13  7  2  0
 14 13  1  0
 14  9  2  0
 15  8  1  0
 16  6  1  0
 18 20  2  0
 19 18  1  0
 21 19  1  0
 22 31  2  0
 22 27  1  0
 23 19  1  0
 23 27  1  0
 24 23  1  0
 25 26  1  0
 25 24  1  0
 26 22  1  0
 27 28  2  0
 28 29  1  0
 30 29  2  0
 31 30  1  0
 32  6  1  0
 32 33  1  0
 32 42  1  0
 33 36  1  0
 34 38  1  0
 34 33  1  0
 35 34  2  0
 38 37  1  0
 40 38  1  0
 40 41  1  0
 40 39  1  0
 42 45  1  1
 42 43  1  0
 44 42  1  0
 47 56  2  0
 47 46  1  0
 48 56  1  0
 49 54  1  0
 50 51  1  0
 50 49  1  0
 52 51  1  0
 52 61  1  0
 52 53  1  0
 54 48  1  0
 54 53  1  0
 55 48  2  0
 56 57  1  0
 58 59  2  0
 59 78  1  0
 60 59  1  0
 60 63  1  0
 61 58  1  0
 61 62  1  0
 62 60  2  0
 63 64  1  0
 64 65  2  0
 66 69  1  0
 66 65  1  0
 67 66  2  0
 68 67  1  0
 68 63  2  0
 69 70  1  0
 70 71  1  0
 71 72  2  0
 73 72  1  0
 73 77  1  0
 74 73  2  0
 75 70  2  0
 75 74  1  0
 76 75  1  0
 78 79  1  0
 79 82  1  0
 79 81  1  0
 80 78  2  0
 83 84  1  0
 83 58  1  0
 85 83  1  0
 86 47  1  0
 90 89  1  6
 90 86  1  0
 90 88  1  0
 90 87  1  0
M  ISO  4   4 101   5 101  48 100  56 100
M  END
>  <TORSDO>  (77) 
F 22

>  <SCORE>  (77) 
-14.717

>  <name>  (77) 
79

>  <ligand_id>  (77) 
79

>  <original_smiles>  (77) 
[H]c1c([H])c([H])c2c(c1[H])C([H])([H])C([H])([H])C([H])([H])C2([H])N([H])C(=O)C1([H])N(C(=O)C([H])(N([H])C(=O)C([H])(N([H])C([H])([H])[H])C([H])([H])[H])C(C([H])([H])[H])(C([H])([H])[H])C([H])([H])[H])C([H])([H])c2c([H])c(OC([H])([H])C([H])(C([H])([H])[H])C([H])([H])C([H])([H])C([H])(N([H])C(=O)N3C([H])([H])C([H])([H])C([H])([H])C([H])(n4nc(-c5c([H])c([H])c(Oc6c([H])c([H])c(F)c([H])c6F)c([H])c5[H])c(C(=O)N([H])[H])c4N([H])[H])C3([H])[H])C([H])([H])C(C([H])([H])[H])(C([H])([H])[H])C([H])([H])[H])c([H])c([H])c2C1([H])[H]

>  <smiles>  (77) 
[H]c1c([H])c([H])c2c(c1[H])C([H])([H])C([H])([H])C([H])([H])C2([H])N([H])C(=O)C1([H])N(C(=O)C([H])(N([H])C(=O)C([H])(N([H])C([H])([H])[H])C([H])([H])[H])C(C([H])([H])[H])(C([H])([H])[H])C([H])([H])[H])C([H])([H])c2c([H])c(OC([H])([H])C([H])(C([H])([H])[H])C([H])([H])C([H])([H])C([H])(N([H])C(=O)N3C([H])([H])C([H])([H])C([H])([H])C([H])(n4nc(-c5c([H])c([H])c(Oc6c([H])c([H])c(F)c([H])c6F)c([H])c5[H])c(C(=O)N([H])[H])c4N([H])[H])C3([H])[H])C([H])([H])C(C([H])([H])[H])(C([H])([H])[H])C([H])([H])[H])c([H])c([H])c2C1([H])[H]

$$$$
80:0:0
     RDKit          3D

 87 95  0  0  1  0  0  0  0  0999 V2000
  -28.9180  -22.4800   20.0190 C   0  0  0  0  0  3  0  0  0  0  0  0
  -30.3810  -15.4700   20.2430 C   0  0  0  0  0  0  0  0  0  0  0  0
  -30.3300  -13.0010   19.3480 C   0  0  0  0  0  2  0  0  0  0  0  0
  -29.4220  -12.6910   18.1330 C   0  0  0  0  0  2  0  0  0  0  0  0
  -27.9940  -12.3730   18.5940 C   0  0  0  0  0  2  0  0  0  0  0  0
  -27.5180  -13.3620   19.6870 C   0  0  0  0  0  3  0  0  0  0  0  0
  -28.5640  -13.6150   20.7940 C   0  0  0  0  0  2  0  0  0  0  0  0
  -29.7540  -14.1760   20.1250 N   0  0  0  0  0  0  0  0  0  0  0  0
  -31.6120  -15.3330   20.1320 O   0  0  0  0  0  0  0  0  0  0  0  0
  -30.3170  -19.7660   20.7360 C   0  0  0  0  0  2  0  0  0  0  0  0
  -28.4300  -19.3610   19.5760 C   0  0  0  0  0  2  0  0  0  0  0  0
  -30.4630  -18.1080   21.0990 C   0  0  0  0  0  2  0  0  0  0  0  0
  -28.5340  -17.6780   19.9400 C   0  0  0  0  0  2  0  0  0  0  0  0
  -28.9420  -20.6570   20.4910 C   0  0  0  0  0  3  0  0  0  0  0  0
  -29.8070  -16.8870   20.3800 N   0  0  0  0  0  0  0  0  0  0  0  0
  -25.1610  -13.8950   20.4710 C   0  0  0  0  0  0  0  0  0  0  0  0
  -24.1050  -13.1130   20.8390 C   0  0  0  0  0  0  0  0  0  0  0  0
  -24.5800  -11.7640   20.8040 C   0  0  0  0  0  0  0  0  0  0  0  0
  -26.2060  -13.0270   20.2170 N   0  0  0  0  0  0  0  0  0  0  0  0
  -25.8720  -11.7380   20.4870 N   0  0  0  0  0  0  0  0  0  0  0  0
  -23.8570  -10.4980   20.9910 C   0  0  0  0  0  0  0  0  0  0  0  0
  -24.2810   -9.5370   21.9350 C   0  0  0  0  0  3  0  0  0  0  0  0
  -23.5560   -8.3390   22.1130 C   0  0  0  0  0  3  0  0  0  0  0  0
  -22.3900   -8.0940   21.3480 C   0  0  0  0  0  0  0  0  0  0  0  0
  -21.9850   -9.0420   20.3930 C   0  0  0  0  0  3  0  0  0  0  0  0
  -22.7110  -10.2330   20.2130 C   0  0  0  0  0  3  0  0  0  0  0  0
  -21.6380   -6.9460   21.4360 O   0  0  0  0  0  0  0  0  0  0  0  0
  -21.5680   -6.2190   22.5960 C   0  0  0  0  0  0  0  0  0  0  0  0
  -21.1080   -6.7850   23.8050 C   0  0  0  0  0  3  0  0  0  0  0  0
  -20.9860   -5.9820   24.9570 C   0  0  0  0  0  3  0  0  0  0  0  0
  -21.3150   -4.6150   24.9020 C   0  0  0  0  0  0  0  0  0  0  0  0
  -21.7670   -4.0470   23.6960 C   0  0  0  0  0  3  0  0  0  0  0  0
  -21.8900   -4.8470   22.5470 C   0  0  0  0  0  0  0  0  0  0  0  0
  -22.3070   -4.2920   21.3840 F   0  0  0  0  0  0  0  0  0  0  0  0
  -21.1900   -3.8410   26.0050 F   0  0  0  0  0  0  0  0  0  0  0  0
  -22.7070  -13.5830   21.1100 C   0  0  0  0  0  0  0  0  0  0  0  0
  -21.9800  -12.8830   21.9730 N   0  0  0  0  0  0  0  0  0  0  0  0
  -22.2690  -14.6100   20.5900 O   0  0  0  0  0  0  0  0  0  0  0  0
  -22.3460  -12.0520   22.4130 H   0  0  0  0  0  0  0  0  0  0  0  0
  -21.0420  -13.1830   22.1980 H   0  0  0  0  0  0  0  0  0  0  0  0
  -25.3180  -15.2680   20.2980 N   0  0  0  0  0  0  0  0  0  0  0  0
  -24.5520  -15.9190   20.4200 H   0  0  0  0  0  0  0  0  0  0  0  0
  -26.1700  -15.7100   19.9800 H   0  0  0  0  0  0  0  0  0  0  0  0
  -30.8620  -22.8490   18.3530 C   0  0  0  0  0  1  0  0  0  0  0  0
  -30.3970  -22.8960   19.8180 C   0  0  0  0  0  2  0  0  0  0  0  0
  -28.0570  -24.0660   20.5010 C   0  0  0  0  0  2  0  0  0  0  0  0
  -28.2180  -25.7420   20.2490 O   0  0  0  0  0  0  0  0  0  0  0  0
  -24.6470  -31.8580   23.1820 C   0  0  0  0  0  0  0  0  0  0  0  0
  -27.2000  -26.8700   20.2400 C   0  0  0  0  0  0  0  0  0  0  0  0
  -23.4560  -30.4450   21.5580 C   0  0  0  0  0  3  0  0  0  0  0  0
  -24.9060  -28.8050   20.1630 C   0  0  0  0  0  0  0  0  0  0  0  0
  -26.0260  -30.6330   21.4110 C   0  0  0  0  0  2  0  0  0  0  0  0
  -26.0980  -29.2040   20.7800 C   0  0  0  0  0  0  0  0  0  0  0  0
  -27.2390  -28.2640   20.7800 C   0  0  0  0  0  3  0  0  0  0  0  0
  -25.9730  -26.6410   19.5760 C   0  0  0  0  0  3  0  0  0  0  0  0
  -24.8740  -27.5460   19.5380 C   0  0  0  0  0  3  0  0  0  0  0  0
  -23.6900  -29.7370   20.1940 C   0  0  0  0  0  2  0  0  0  0  0  0
  -24.7330  -31.0090   22.1030 N   0  0  0  0  0  0  0  0  0  0  0  0
  -23.5540  -32.1540   23.6950 O   0  0  0  0  0  0  0  0  0  0  0  0
  -22.7540  -29.4650   22.5350 C   0  0  0  0  0  0  0  0  0  0  0  0
  -21.4210  -29.3050   22.4150 N   0  0  0  0  0  0  0  0  0  0  0  0
  -23.4170  -28.8470   23.3720 O   0  0  0  0  0  0  0  0  0  0  0  0
  -20.9360  -29.8600   21.7230 H   0  0  0  0  0  0  0  0  0  0  0  0
  -18.0370  -28.0950   22.9500 C   0  0  0  0  0  0  0  0  0  0  0  0
  -20.5990  -28.3690   23.1940 C   0  0  0  0  0  3  0  0  0  0  0  0
  -20.6990  -26.9320   22.6330 C   0  0  0  0  0  2  0  0  0  0  0  0
  -19.5930  -26.6010   21.6240 C   0  0  0  0  0  2  0  0  0  0  0  0
  -18.2140  -26.7450   22.2750 C   0  0  0  0  0  2  0  0  0  0  0  0
  -19.1570  -28.8640   23.3670 C   0  0  0  0  0  0  0  0  0  0  0  0
  -18.9370  -30.1250   23.9630 C   0  0  0  0  0  3  0  0  0  0  0  0
  -17.6310  -30.6200   24.1390 C   0  0  0  0  0  3  0  0  0  0  0  0
  -16.5260  -29.8490   23.7330 C   0  0  0  0  0  3  0  0  0  0  0  0
  -16.7310  -28.5880   23.1470 C   0  0  0  0  0  3  0  0  0  0  0  0
  -25.9130  -32.5120   23.8130 C   0  0  0  0  0  3  0  0  0  0  0  0
  -25.5850  -33.9090   24.1480 N   0  0  0  0  0  0  0  0  0  0  0  0
  -25.9100  -34.9750   23.4050 C   0  0  0  0  0  0  0  0  0  0  0  0
  -26.5800  -34.8850   22.3730 O   0  0  0  0  0  0  0  0  0  0  0  0
  -24.9870  -34.0490   24.9500 H   0  0  0  0  0  0  0  0  0  0  0  0
  -24.1770  -36.7740   23.0770 C   0  0  0  0  0  1  0  0  0  0  0  0
  -25.4210  -36.3600   23.8780 C   0  0  0  0  0  3  0  0  0  0  0  0
  -27.5530  -37.2460   24.7150 C   0  0  0  0  0  1  0  0  0  0  0  0
  -26.4500  -37.4180   23.7740 N   0  0  0  0  0  0  0  0  0  0  0  0
  -26.0390  -38.3340   23.9320 H   0  0  0  0  0  0  0  0  0  0  0  0
  -26.4210  -31.7540   25.1020 C   0  0  1  0  0  0  0  0  0  0  0  0
  -25.3210  -31.5220   26.1670 C   0  0  0  0  0  1  0  0  0  0  0  0
  -27.0100  -30.3740   24.7320 C   0  0  0  0  0  1  0  0  0  0  0  0
  -27.5680  -32.5560   25.7630 C   0  0  0  0  0  1  0  0  0  0  0  0
  1 45  1  0
  1 46  1  0
  2 15  1  0
  3  8  1  0
  4  5  1  0
  4  3  1  0
  6  5  1  0
  6 19  1  0
  6  7  1  0
  8  2  1  0
  8  7  1  0
  9  2  2  0
 10 12  1  0
 11 13  1  0
 11 14  1  0
 13 15  1  0
 14  1  1  0
 14 10  1  0
 15 12  1  0
 16 17  2  0
 17 36  1  0
 18 17  1  0
 18 21  1  0
 19 16  1  0
 19 20  1  0
 20 18  2  0
 21 22  1  0
 22 23  2  0
 24 27  1  0
 24 23  1  0
 25 24  2  0
 26 25  1  0
 26 21  2  0
 27 28  1  0
 28 29  1  0
 29 30  2  0
 31 30  1  0
 31 35  1  0
 32 31  2  0
 33 28  2  0
 33 32  1  0
 34 33  1  0
 36 37  1  0
 37 40  1  0
 37 39  1  0
 38 36  2  0
 41 42  1  0
 41 16  1  0
 43 41  1  0
 44 45  1  0
 47 46  1  0
 48 59  2  0
 49 47  1  0
 49 54  1  0
 50 58  1  0
 50 60  1  0
 51 57  1  0
 51 53  1  0
 52 58  1  0
 53 52  1  0
 54 53  2  0
 55 49  2  0
 56 55  1  0
 56 51  2  0
 57 50  1  0
 58 48  1  0
 60 62  2  0
 61 60  1  0
 63 61  1  0
 64 73  2  0
 64 69  1  0
 65 61  1  0
 65 69  1  0
 66 65  1  0
 67 68  1  0
 67 66  1  0
 68 64  1  0
 69 70  2  0
 70 71  1  0
 72 71  2  0
 73 72  1  0
 74 48  1  0
 74 75  1  0
 74 84  1  0
 75 78  1  0
 76 80  1  0
 76 75  1  0
 77 76  2  0
 80 79  1  0
 82 80  1  0
 82 83  1  0
 82 81  1  0
 84 87  1  1
 84 85  1  0
 86 84  1  0
M  ISO  4   2 100  15 100  46 101  47 101
M  END
>  <TORSDO>  (78) 
F 18

>  <SCORE>  (78) 
-16.451

>  <name>  (78) 
80

>  <ligand_id>  (78) 
80

>  <original_smiles>  (78) 
[H]c1c([H])c([H])c2c(c1[H])C([H])([H])C([H])([H])C([H])([H])C2([H])N([H])C(=O)C1([H])N(C(=O)C([H])(N([H])C(=O)C([H])(N([H])C([H])([H])[H])C([H])([H])[H])C(C([H])([H])[H])(C([H])([H])[H])C([H])([H])[H])C([H])([H])c2c([H])c(OC([H])([H])C([H])(C([H])([H])C([H])([H])[H])C3([H])C([H])([H])C([H])([H])N(C(=O)N4C([H])([H])C([H])([H])C([H])([H])C([H])(n5nc(-c6c([H])c([H])c(Oc7c([H])c([H])c(F)c([H])c7F)c([H])c6[H])c(C(=O)N([H])[H])c5N([H])[H])C4([H])[H])C([H])([H])C3([H])[H])c([H])c([H])c2C1([H])[H]

>  <smiles>  (78) 
[H]c1c([H])c([H])c2c(c1[H])C([H])([H])C([H])([H])C([H])([H])C2([H])N([H])C(=O)C1([H])N(C(=O)C([H])(N([H])C(=O)C([H])(N([H])C([H])([H])[H])C([H])([H])[H])C(C([H])([H])[H])(C([H])([H])[H])C([H])([H])[H])C([H])([H])c2c([H])c(OC([H])([H])C([H])(C([H])([H])C([H])([H])[H])C3([H])C([H])([H])C([H])([H])N(C(=O)N4C([H])([H])C([H])([H])C([H])([H])C([H])(n5nc(-c6c([H])c([H])c(Oc7c([H])c([H])c(F)c([H])c7F)c([H])c6[H])c(C(=O)N([H])[H])c5N([H])[H])C4([H])[H])C([H])([H])C3([H])[H])c([H])c([H])c2C1([H])[H]

$$$$
81:0:0
     RDKit          3D

 92 99  0  0  1  0  0  0  0  0999 V2000
  -29.0740  -22.0190   19.6810 C   0  0  0  0  0  3  0  0  0  0  0  0
  -28.3530  -21.9530   18.3900 N   0  0  0  0  0  4  0  0  0  0  0  0
  -27.3720  -21.7920   18.5290 H   0  0  0  0  0  0  0  0  0  0  0  0
  -28.7250  -21.2130   17.8180 H   0  0  0  0  0  0  0  0  0  0  0  0
  -28.4660  -22.8070   17.8720 H   0  0  0  0  0  0  0  0  0  0  0  0
  -28.6150  -23.4300   20.4650 C   0  0  0  0  0  3  0  0  0  0  0  0
  -28.4220  -24.9030   19.6880 C   0  0  0  0  0  3  0  0  0  0  0  0
  -28.3210  -26.3160   20.2940 O   0  0  0  0  0  0  0  0  0  0  0  0
  -24.5970  -31.8930   23.2400 C   0  0  0  0  0  0  0  0  0  0  0  0
  -27.2200  -27.2300   20.1940 C   0  0  0  0  0  0  0  0  0  0  0  0
  -23.4060  -30.4890   21.5970 C   0  0  0  0  0  3  0  0  0  0  0  0
  -24.8650  -28.9270   20.1710 C   0  0  0  0  0  0  0  0  0  0  0  0
  -25.9540  -30.7800   21.4300 C   0  0  0  0  0  2  0  0  0  0  0  0
  -26.0360  -29.3910   20.7820 C   0  0  0  0  0  0  0  0  0  0  0  0
  -27.2080  -28.5540   20.7840 C   0  0  0  0  0  3  0  0  0  0  0  0
  -26.0180  -26.8540   19.5510 C   0  0  0  0  0  3  0  0  0  0  0  0
  -24.8670  -27.6710   19.5440 C   0  0  0  0  0  3  0  0  0  0  0  0
  -23.6290  -29.8100   20.2190 C   0  0  0  0  0  2  0  0  0  0  0  0
  -24.6730  -31.0750   22.1450 N   0  0  0  0  0  0  0  0  0  0  0  0
  -23.5100  -32.1700   23.7670 O   0  0  0  0  0  0  0  0  0  0  0  0
  -22.7340  -29.4780   22.5590 C   0  0  0  0  0  0  0  0  0  0  0  0
  -21.4090  -29.2970   22.4270 N   0  0  0  0  0  0  0  0  0  0  0  0
  -23.4080  -28.8580   23.3840 O   0  0  0  0  0  0  0  0  0  0  0  0
  -20.9220  -29.8500   21.7330 H   0  0  0  0  0  0  0  0  0  0  0  0
  -18.0330  -28.0790   22.9110 C   0  0  0  0  0  0  0  0  0  0  0  0
  -20.5880  -28.3560   23.1940 C   0  0  0  0  0  3  0  0  0  0  0  0
  -20.7020  -26.9250   22.6220 C   0  0  0  0  0  2  0  0  0  0  0  0
  -19.6090  -26.5930   21.6020 C   0  0  0  0  0  2  0  0  0  0  0  0
  -18.2220  -26.7300   22.2380 C   0  0  0  0  0  2  0  0  0  0  0  0
  -19.1440  -28.8500   23.3450 C   0  0  0  0  0  0  0  0  0  0  0  0
  -18.9130  -30.1120   23.9350 C   0  0  0  0  0  3  0  0  0  0  0  0
  -17.6040  -30.6030   24.0940 C   0  0  0  0  0  3  0  0  0  0  0  0
  -16.5070  -29.8300   23.6770 C   0  0  0  0  0  3  0  0  0  0  0  0
  -16.7220  -28.5690   23.0910 C   0  0  0  0  0  3  0  0  0  0  0  0
  -25.8730  -32.5340   23.8680 C   0  0  0  0  0  3  0  0  0  0  0  0
  -26.3700  -31.7810   25.1630 C   0  0  1  0  0  0  0  0  0  0  0  0
  -25.2650  -31.5630   26.2220 C   0  0  0  0  0  1  0  0  0  0  0  0
  -26.9520  -30.3960   24.7980 C   0  0  0  0  0  1  0  0  0  0  0  0
  -27.5150  -32.5800   25.8280 C   0  0  0  0  0  1  0  0  0  0  0  0
  -25.5620  -33.9380   24.1820 N   0  0  0  0  0  0  0  0  0  0  0  0
  -25.9050  -34.9840   23.4200 C   0  0  0  0  0  0  0  0  0  0  0  0
  -26.5830  -34.8690   22.3960 O   0  0  0  0  0  0  0  0  0  0  0  0
  -24.9630  -34.1020   24.9780 H   0  0  0  0  0  0  0  0  0  0  0  0
  -24.1920  -36.7870   23.0320 C   0  0  0  0  0  1  0  0  0  0  0  0
  -25.4190  -36.3790   23.8620 C   0  0  0  0  0  3  0  0  0  0  0  0
  -27.5440  -37.2610   24.7210 C   0  0  0  0  0  1  0  0  0  0  0  0
  -26.4590  -37.4260   23.7570 N   0  0  0  0  0  0  0  0  0  0  0  0
  -26.0550  -38.3490   23.8910 H   0  0  0  0  0  0  0  0  0  0  0  0
  -29.2100  -20.4730   20.3940 C   0  0  0  0  0  2  0  0  0  0  0  0
  -28.9990  -18.8070   20.0820 C   0  0  0  0  0  3  0  0  0  0  0  0
  -29.5390  -18.8030   17.5290 C   0  0  0  0  0  1  0  0  0  0  0  0
  -27.0880  -18.8260   18.2800 C   0  0  0  0  0  1  0  0  0  0  0  0
  -28.5340  -18.4330   18.6350 C   0  0  0  0  0  3  0  0  0  0  0  0
  -30.0780  -17.6180   20.5520 C   0  0  0  0  0  2  0  0  0  0  0  0
  -30.5310  -14.9310   20.3560 C   0  0  0  0  0  0  0  0  0  0  0  0
  -30.4000  -12.6190   19.3650 C   0  0  0  0  0  2  0  0  0  0  0  0
  -29.4600  -12.6250   18.1380 C   0  0  0  0  0  2  0  0  0  0  0  0
  -27.9940  -12.4310   18.5730 C   0  0  0  0  0  2  0  0  0  0  0  0
  -27.5990  -13.3240   19.7800 C   0  0  0  0  0  3  0  0  0  0  0  0
  -28.6600  -13.2730   20.9000 C   0  0  0  0  0  2  0  0  0  0  0  0
  -29.9340  -13.6830   20.2920 N   0  0  0  0  0  0  0  0  0  0  0  0
  -31.7310  -15.0200   20.0760 O   0  0  0  0  0  0  0  0  0  0  0  0
  -29.7410  -16.0860   20.5320 N   0  0  0  0  0  0  0  0  0  0  0  0
  -28.7730  -15.8740   20.7270 H   0  0  0  0  0  0  0  0  0  0  0  0
  -25.2080  -13.8890   20.5080 C   0  0  0  0  0  0  0  0  0  0  0  0
  -24.1480  -13.1050   20.8760 C   0  0  0  0  0  0  0  0  0  0  0  0
  -24.6240  -11.7580   20.8430 C   0  0  0  0  0  0  0  0  0  0  0  0
  -26.2580  -13.0200   20.2720 N   0  0  0  0  0  0  0  0  0  0  0  0
  -25.9160  -11.7330   20.5390 N   0  0  0  0  0  0  0  0  0  0  0  0
  -23.9060  -10.4890   21.0290 C   0  0  0  0  0  0  0  0  0  0  0  0
  -24.3360   -9.5250   21.9690 C   0  0  0  0  0  3  0  0  0  0  0  0
  -23.6160   -8.3240   22.1450 C   0  0  0  0  0  3  0  0  0  0  0  0
  -22.4510   -8.0780   21.3790 C   0  0  0  0  0  0  0  0  0  0  0  0
  -22.0370   -9.0290   20.4290 C   0  0  0  0  0  3  0  0  0  0  0  0
  -22.7610  -10.2230   20.2520 C   0  0  0  0  0  3  0  0  0  0  0  0
  -21.7030   -6.9270   21.4620 O   0  0  0  0  0  0  0  0  0  0  0  0
  -21.6440   -6.1880   22.6150 C   0  0  0  0  0  0  0  0  0  0  0  0
  -21.1860   -6.7400   23.8330 C   0  0  0  0  0  3  0  0  0  0  0  0
  -21.0770   -5.9260   24.9780 C   0  0  0  0  0  3  0  0  0  0  0  0
  -21.4180   -4.5610   24.9080 C   0  0  0  0  0  0  0  0  0  0  0  0
  -21.8690   -4.0100   23.6950 C   0  0  0  0  0  3  0  0  0  0  0  0
  -21.9800   -4.8210   22.5540 C   0  0  0  0  0  0  0  0  0  0  0  0
  -22.3950   -4.2790   21.3830 F   0  0  0  0  0  0  0  0  0  0  0  0
  -21.3050   -3.7780   26.0050 F   0  0  0  0  0  0  0  0  0  0  0  0
  -22.7450  -13.5720   21.1380 C   0  0  0  0  0  0  0  0  0  0  0  0
  -22.0120  -12.8740   21.9980 N   0  0  0  0  0  0  0  0  0  0  0  0
  -22.3050  -14.5960   20.6160 O   0  0  0  0  0  0  0  0  0  0  0  0
  -22.3790  -12.0510   22.4530 H   0  0  0  0  0  0  0  0  0  0  0  0
  -21.0680  -13.1700   22.2070 H   0  0  0  0  0  0  0  0  0  0  0  0
  -25.3530  -15.2620   20.3320 N   0  0  0  0  0  0  0  0  0  0  0  0
  -24.5680  -15.8960   20.4430 H   0  0  0  0  0  0  0  0  0  0  0  0
  -26.1690  -15.7150   19.9460 H   0  0  0  0  0  0  0  0  0  0  0  0
  1 49  1  0
  1  6  1  0
  2  3  1  0
  2  1  1  0
  4  2  1  0
  5  2  1  0
  7  8  1  0
  7  6  2  0
  9 20  2  0
 10  8  1  0
 10 15  1  0
 11 19  1  0
 11 21  1  0
 12 18  1  0
 12 14  1  0
 13 19  1  0
 14 15  2  0
 14 13  1  0
 16 10  2  0
 17 16  1  0
 17 12  2  0
 18 11  1  0
 19  9  1  0
 21 23  2  0
 22 21  1  0
 24 22  1  0
 25 34  2  0
 25 30  1  0
 26 22  1  0
 26 30  1  0
 27 26  1  0
 28 29  1  0
 28 27  1  0
 29 25  1  0
 30 31  2  0
 31 32  1  0
 33 32  2  0
 34 33  1  0
 35  9  1  0
 35 40  1  0
 35 36  1  0
 36 39  1  1
 36 37  1  0
 38 36  1  0
 40 43  1  0
 41 45  1  0
 41 40  1  0
 42 41  2  0
 45 44  1  0
 47 45  1  0
 47 48  1  0
 47 46  1  0
 50 49  1  0
 50 54  1  0
 51 53  1  0
 52 53  1  0
 53 50  1  0
 55 63  1  0
 56 61  1  0
 57 58  1  0
 57 56  1  0
 59 58  1  0
 59 68  1  0
 59 60  1  0
 61 55  1  0
 61 60  1  0
 62 55  2  0
 63 54  1  0
 63 64  1  0
 65 66  2  0
 66 85  1  0
 67 66  1  0
 67 70  1  0
 68 65  1  0
 68 69  1  0
 69 67  2  0
 70 71  1  0
 71 72  2  0
 73 76  1  0
 73 72  1  0
 74 73  2  0
 75 74  1  0
 75 70  2  0
 76 77  1  0
 77 78  1  0
 78 79  2  0
 80 79  1  0
 80 84  1  0
 81 80  2  0
 82 77  2  0
 82 81  1  0
 83 82  1  0
 85 86  1  0
 86 89  1  0
 86 88  1  0
 87 85  2  0
 90 91  1  0
 90 65  1  0
 92 90  1  0
M  ISO  4   7 101   8 101  55 100  63 100
M  END
>  <TORSDO>  (79) 
F 23

>  <SCORE>  (79) 
-13.535

>  <name>  (79) 
81

>  <ligand_id>  (79) 
81

>  <original_smiles>  (79) 
[H]c1c([H])c([H])c2c(c1[H])C([H])([H])C([H])([H])C([H])([H])C2([H])N([H])C(=O)C1([H])N(C(=O)C([H])(N([H])C(=O)C([H])(N([H])C([H])([H])[H])C([H])([H])[H])C(C([H])([H])[H])(C([H])([H])[H])C([H])([H])[H])C([H])([H])c2c([H])c(OC([H])([H])C([H])([H])C([H])(C([H])([H])C([H])(C([H])([H])N([H])C(=O)N3C([H])([H])C([H])([H])C([H])([H])C([H])(n4nc(-c5c([H])c([H])c(Oc6c([H])c([H])c(F)c([H])c6F)c([H])c5[H])c(C(=O)N([H])[H])c4N([H])[H])C3([H])[H])C([H])(C([H])([H])[H])C([H])([H])[H])[N+]([H])([H])[H])c([H])c([H])c2C1([H])[H]

>  <smiles>  (79) 
[H]c1c([H])c([H])c2c(c1[H])C([H])([H])C([H])([H])C([H])([H])C2([H])N([H])C(=O)C1([H])N(C(=O)C([H])(N([H])C(=O)C([H])(N([H])C([H])([H])[H])C([H])([H])[H])C(C([H])([H])[H])(C([H])([H])[H])C([H])([H])[H])C([H])([H])c2c([H])c(OC([H])([H])C([H])([H])C([H])(C([H])([H])C([H])(C([H])([H])N([H])C(=O)N3C([H])([H])C([H])([H])C([H])([H])C([H])(n4nc(-c5c([H])c([H])c(Oc6c([H])c([H])c(F)c([H])c6F)c([H])c5[H])c(C(=O)N([H])[H])c4N([H])[H])C3([H])[H])C([H])(C([H])([H])[H])C([H])([H])[H])[N+]([H])([H])[H])c([H])c([H])c2C1([H])[H]

$$$$
82:0:0
     RDKit          3D

101109  0  0  1  0  0  0  0  0999 V2000
  -29.6430  -23.7060   20.0320 C   0  0  0  0  0  3  0  0  0  0  0  0
  -29.7600  -22.2990   19.2820 N   0  0  0  0  0  4  0  0  0  0  0  0
  -29.2370  -21.6160   19.8090 H   0  0  0  0  0  0  0  0  0  0  0  0
  -29.2560  -22.3990   18.4130 H   0  0  0  0  0  0  0  0  0  0  0  0
  -31.1200  -21.5980   18.8520 C   0  0  0  0  0  3  0  0  0  0  0  0
  -31.2510  -19.9900   18.3290 C   0  0  0  0  0  3  0  0  0  0  0  0
  -33.9630  -16.9610   16.9440 C   0  0  0  0  0  0  0  0  0  0  0  0
  -34.3350  -14.6770   15.9060 C   0  0  0  0  0  2  0  0  0  0  0  0
  -33.0270  -14.0180   15.4110 C   0  0  0  0  0  2  0  0  0  0  0  0
  -32.2850  -13.3180   16.5650 C   0  0  0  0  0  2  0  0  0  0  0  0
  -32.2780  -14.1190   17.8940 C   0  0  0  0  0  3  0  0  0  0  0  0
  -33.6480  -14.7450   18.2110 C   0  0  0  0  0  2  0  0  0  0  0  0
  -34.0030  -15.5710   17.0510 N   0  0  0  0  0  0  0  0  0  0  0  0
  -34.8030  -17.4790   16.2000 O   0  0  0  0  0  0  0  0  0  0  0  0
  -31.7680  -18.7380   15.4180 C   0  0  0  0  0  2  0  0  0  0  0  0
  -32.5980  -19.7890   16.1550 C   0  0  0  0  0  2  0  0  0  0  0  0
  -31.7030  -17.5340   16.3840 C   0  0  0  0  0  2  0  0  0  0  0  0
  -32.6100  -19.2740   17.5980 C   0  0  0  0  0  3  0  0  0  0  0  0
  -32.8020  -17.7130   17.3530 N   0  0  0  0  0  0  0  0  0  0  0  0
  -30.5900  -13.5190   19.7200 C   0  0  0  0  0  0  0  0  0  0  0  0
  -30.5000  -12.4570   20.5790 C   0  0  0  0  0  0  0  0  0  0  0  0
  -31.6570  -11.6530   20.3380 C   0  0  0  0  0  0  0  0  0  0  0  0
  -31.7600  -13.3290   19.0040 N   0  0  0  0  0  0  0  0  0  0  0  0
  -32.4390  -12.2320   19.4330 N   0  0  0  0  0  0  0  0  0  0  0  0
  -32.0310  -10.3380   20.8760 C   0  0  0  0  0  0  0  0  0  0  0  0
  -33.3760  -10.0150   21.1690 C   0  0  0  0  0  3  0  0  0  0  0  0
  -33.7080   -8.7490   21.7000 C   0  0  0  0  0  3  0  0  0  0  0  0
  -32.6920   -7.7960   21.9510 C   0  0  0  0  0  0  0  0  0  0  0  0
  -31.3590   -8.1130   21.6320 C   0  0  0  0  0  3  0  0  0  0  0  0
  -31.0300   -9.3710   21.0990 C   0  0  0  0  0  3  0  0  0  0  0  0
  -32.9250   -6.5360   22.4450 O   0  0  0  0  0  0  0  0  0  0  0  0
  -34.1300   -6.1900   23.0010 C   0  0  0  0  0  0  0  0  0  0  0  0
  -34.9270   -7.1230   23.7000 C   0  0  0  0  0  3  0  0  0  0  0  0
  -36.1270   -6.7090   24.3120 C   0  0  0  0  0  3  0  0  0  0  0  0
  -36.5260   -5.3620   24.2380 C   0  0  0  0  0  0  0  0  0  0  0  0
  -35.7310   -4.4280   23.5490 C   0  0  0  0  0  3  0  0  0  0  0  0
  -34.5350   -4.8410   22.9360 C   0  0  0  0  0  0  0  0  0  0  0  0
  -33.7640   -3.9330   22.2910 F   0  0  0  0  0  0  0  0  0  0  0  0
  -37.6730   -4.9600   24.8330 F   0  0  0  0  0  0  0  0  0  0  0  0
  -29.3500  -12.1480   21.4940 C   0  0  0  0  0  0  0  0  0  0  0  0
  -29.6180  -11.4770   22.6090 N   0  0  0  0  0  0  0  0  0  0  0  0
  -28.2120  -12.5460   21.2490 O   0  0  0  0  0  0  0  0  0  0  0  0
  -30.5560  -11.1670   22.8190 H   0  0  0  0  0  0  0  0  0  0  0  0
  -28.8730  -11.2650   23.2580 H   0  0  0  0  0  0  0  0  0  0  0  0
  -29.7700  -14.6150   19.4670 N   0  0  0  0  0  0  0  0  0  0  0  0
  -28.8970  -14.7620   19.9610 H   0  0  0  0  0  0  0  0  0  0  0  0
  -29.9650  -15.3290   18.7780 H   0  0  0  0  0  0  0  0  0  0  0  0
  -28.3360  -24.7510   19.8080 C   0  0  0  0  0  2  0  0  0  0  0  0
  -28.3350  -26.3110   19.8120 O   0  0  0  0  0  0  0  0  0  0  0  0
  -24.4520  -31.7310   22.9250 C   0  0  0  0  0  0  0  0  0  0  0  0
  -27.1860  -27.1810   19.7780 C   0  0  0  0  0  0  0  0  0  0  0  0
  -23.2690  -30.2410   21.3560 C   0  0  0  0  0  3  0  0  0  0  0  0
  -24.7450  -28.7600   19.8720 C   0  0  0  0  0  0  0  0  0  0  0  0
  -25.7870  -30.6800   21.0620 C   0  0  0  0  0  2  0  0  0  0  0  0
  -25.9200  -29.2920   20.4140 C   0  0  0  0  0  0  0  0  0  0  0  0
  -27.1360  -28.5150   20.3570 C   0  0  0  0  0  3  0  0  0  0  0  0
  -25.9710  -26.7470   19.2060 C   0  0  0  0  0  3  0  0  0  0  0  0
  -24.7800  -27.5020   19.2580 C   0  0  0  0  0  3  0  0  0  0  0  0
  -23.4640  -29.5660   19.9760 C   0  0  0  0  0  2  0  0  0  0  0  0
  -24.5240  -30.9070   21.8350 N   0  0  0  0  0  0  0  0  0  0  0  0
  -23.3790  -31.9480   23.5060 O   0  0  0  0  0  0  0  0  0  0  0  0
  -22.7020  -29.2010   22.3550 C   0  0  0  0  0  0  0  0  0  0  0  0
  -21.4100  -28.8520   22.2180 N   0  0  0  0  0  0  0  0  0  0  0  0
  -23.4300  -28.7080   23.2220 O   0  0  0  0  0  0  0  0  0  0  0  0
  -20.8660  -29.3120   21.4990 H   0  0  0  0  0  0  0  0  0  0  0  0
  -18.2480  -27.1320   22.6240 C   0  0  0  0  0  0  0  0  0  0  0  0
  -20.7020  -27.8510   23.0200 C   0  0  0  0  0  3  0  0  0  0  0  0
  -21.0820  -26.4150   22.5880 C   0  0  0  0  0  2  0  0  0  0  0  0
  -20.1310  -25.8280   21.5420 C   0  0  0  0  0  2  0  0  0  0  0  0
  -18.6990  -25.7840   22.0850 C   0  0  0  0  0  2  0  0  0  0  0  0
  -19.1900  -28.1100   23.0490 C   0  0  0  0  0  0  0  0  0  0  0  0
  -18.7190  -29.3570   23.5100 C   0  0  0  0  0  3  0  0  0  0  0  0
  -17.3400  -29.6370   23.5500 C   0  0  0  0  0  3  0  0  0  0  0  0
  -16.4120  -28.6610   23.1470 C   0  0  0  0  0  3  0  0  0  0  0  0
  -16.8670  -27.4110   22.6900 C   0  0  0  0  0  3  0  0  0  0  0  0
  -25.7160  -32.4530   23.4870 C   0  0  0  0  0  3  0  0  0  0  0  0
  -26.3680  -31.7050   24.7150 C   0  0  1  0  0  0  0  0  0  0  0  0
  -25.3670  -31.3820   25.8500 C   0  0  0  0  0  1  0  0  0  0  0  0
  -27.0140  -30.3750   24.2670 C   0  0  0  0  0  1  0  0  0  0  0  0
  -27.5060  -32.5670   25.3120 C   0  0  0  0  0  1  0  0  0  0  0  0
  -25.3230  -33.8180   23.8730 N   0  0  0  0  0  0  0  0  0  0  0  0
  -25.6990  -34.9330   23.2280 C   0  0  0  0  0  0  0  0  0  0  0  0
  -26.4760  -34.9190   22.2710 O   0  0  0  0  0  0  0  0  0  0  0  0
  -24.6460  -33.9060   24.6170 H   0  0  0  0  0  0  0  0  0  0  0  0
  -23.9990  -36.7340   22.7830 C   0  0  0  0  0  1  0  0  0  0  0  0
  -25.1200  -36.2710   23.7290 C   0  0  0  0  0  3  0  0  0  0  0  0
  -27.1050  -37.0880   24.9160 C   0  0  0  0  0  1  0  0  0  0  0  0
  -26.1320  -37.3420   23.8570 N   0  0  0  0  0  0  0  0  0  0  0  0
  -25.6880  -38.2350   24.0460 H   0  0  0  0  0  0  0  0  0  0  0  0
  -29.8390  -23.4870   21.5550 C   0  0  0  0  0  2  0  0  0  0  0  0
  -29.3980  -22.1030   22.0890 C   0  0  0  0  0  2  0  0  0  0  0  0
  -30.5770  -21.3730   22.6710 C   0  0  0  0  0  0  0  0  0  0  0  0
  -30.4580  -20.7590   23.8640 N   0  0  0  0  0  4  0  0  0  0  0  0
  -31.7200  -21.3570   21.9600 N   0  0  0  0  0  0  0  0  0  0  0  0
  -29.5760  -20.7490   24.3590 H   0  0  0  0  0  0  0  0  0  0  0  0
  -31.2200  -20.2720   24.3140 H   0  0  0  0  0  0  0  0  0  0  0  0
  -31.7250  -21.8490   21.0770 H   0  0  0  0  0  0  0  0  0  0  0  0
  -33.0060  -20.7280   22.2930 C   0  0  0  0  0  2  0  0  0  0  0  0
  -33.9030  -20.6710   21.0460 C   0  0  0  0  0  2  0  0  0  0  0  0
  -34.7750  -21.9640   19.0110 C   0  0  0  0  0  1  0  0  0  0  0  0
  -34.2080  -22.0520   20.4330 C   0  0  0  0  0  2  0  0  0  0  0  0
  1 48  1  0
  1 90  1  0
  2  3  1  0
  2  1  1  0
  4  2  1  0
  5  2  1  0
  6  5  2  0
  7 13  1  0
  7 19  1  0
  8 13  1  0
  9  8  1  0
  9 10  1  0
 11 10  1  0
 11 12  1  0
 11 23  1  0
 13 12  1  0
 14  7  2  0
 15 16  1  0
 15 17  1  0
 16 18  1  0
 17 19  1  0
 18  6  1  0
 19 18  1  0
 20 21  2  0
 21 40  1  0
 22 21  1  0
 22 25  1  0
 23 24  1  0
 23 20  1  0
 24 22  2  0
 25 30  2  0
 25 26  1  0
 26 27  2  0
 27 28  1  0
 28 31  1  0
 29 28  2  0
 30 29  1  0
 31 32  1  0
 32 33  1  0
 33 34  2  0
 35 34  1  0
 35 39  1  0
 36 35  2  0
 37 32  2  0
 37 36  1  0
 38 37  1  0
 40 41  1  0
 41 43  1  0
 41 44  1  0
 42 40  2  0
 45 20  1  0
 45 46  1  0
 47 45  1  0
 48 49  1  0
 50 61  2  0
 51 49  1  0
 51 56  1  0
 52 60  1  0
 52 62  1  0
 53 59  1  0
 53 55  1  0
 54 60  1  0
 55 54  1  0
 56 55  2  0
 57 58  1  0
 57 51  2  0
 58 53  2  0
 59 52  1  0
 60 50  1  0
 62 64  2  0
 63 62  1  0
 65 63  1  0
 66 75  2  0
 66 71  1  0
 67 63  1  0
 67 71  1  0
 68 67  1  0
 69 70  1  0
 69 68  1  0
 70 66  1  0
 71 72  2  0
 72 73  1  0
 74 73  2  0
 75 74  1  0
 76 50  1  0
 76 81  1  0
 76 77  1  0
 77 80  1  1
 77 78  1  0
 79 77  1  0
 81 84  1  0
 82 86  1  0
 82 81  1  0
 83 82  2  0
 86 85  1  0
 86 88  1  0
 88 89  1  0
 88 87  1  0
 90 91  1  0
 91 92  1  0
 92 93  2  0
 93 96  1  0
 93 95  1  0
 94 98  1  0
 94 92  1  0
 97 94  1  0
 99 98  1  0
100101  1  0
101 99  1  0
M  ISO  4   7 100  19 100  48 101  49 101
M  END
>  <TORSDO>  (80) 
F 26

>  <SCORE>  (80) 
-8.589

>  <name>  (80) 
82

>  <ligand_id>  (80) 
82

>  <original_smiles>  (80) 
[H]c1c([H])c([H])c2c(c1[H])C([H])([H])C([H])([H])C([H])([H])C2([H])N([H])C(=O)C1([H])N(C(=O)C([H])(N([H])C(=O)C([H])(N([H])C([H])([H])[H])C([H])([H])[H])C(C([H])([H])[H])(C([H])([H])[H])C([H])([H])[H])C([H])([H])c2c([H])c(OC([H])([H])C([H])(C([H])([H])C([H])([H])C(N([H])[H])=[N+]([H])C([H])([H])C([H])([H])C([H])([H])C([H])([H])[H])[N+]([H])([H])C([H])([H])C([H])([H])C3([H])N(C(=O)N4C([H])([H])C([H])([H])C([H])([H])C([H])(n5nc(-c6c([H])c([H])c(Oc7c([H])c([H])c(F)c([H])c7F)c([H])c6[H])c(C(=O)N([H])[H])c5N([H])[H])C4([H])[H])C([H])([H])C([H])([H])C3([H])[H])c([H])c([H])c2C1([H])[H]

>  <smiles>  (80) 
[H]c1c([H])c([H])c2c(c1[H])C([H])([H])C([H])([H])C([H])([H])C2([H])N([H])C(=O)C1([H])N(C(=O)C([H])(N([H])C(=O)C([H])(N([H])C([H])([H])[H])C([H])([H])[H])C(C([H])([H])[H])(C([H])([H])[H])C([H])([H])[H])C([H])([H])c2c([H])c(OC([H])([H])C([H])(C([H])([H])C([H])([H])C(N([H])[H])=[N+]([H])C([H])([H])C([H])([H])C([H])([H])C([H])([H])[H])[N+]([H])([H])C([H])([H])C([H])([H])C3([H])N(C(=O)N4C([H])([H])C([H])([H])C([H])([H])C([H])(n5nc(-c6c([H])c([H])c(Oc7c([H])c([H])c(F)c([H])c7F)c([H])c6[H])c(C(=O)N([H])[H])c5N([H])[H])C4([H])[H])C([H])([H])C([H])([H])C3([H])[H])c([H])c([H])c2C1([H])[H]

$$$$
83:0:0
     RDKit          3D

 99107  0  0  1  0  0  0  0  0999 V2000
  -29.5050  -19.7620   20.2330 C   0  0  0  0  0  2  0  0  0  0  0  0
  -27.1320  -21.9500   22.4040 C   0  0  0  0  0  2  0  0  0  0  0  0
  -26.3080  -22.2880   21.1490 C   0  0  0  0  0  2  0  0  0  0  0  0
  -28.1260  -20.8240   22.1100 C   0  0  0  0  0  2  0  0  0  0  0  0
  -27.1310  -22.1740   19.8450 C   0  0  0  0  0  2  0  0  0  0  0  0
  -29.1580  -21.1380   20.9850 C   0  0  0  0  0  3  0  0  0  0  0  0
  -28.6520  -22.3610   20.0640 C   0  0  0  0  0  3  0  0  0  0  0  0
  -29.0200  -23.8780   20.4750 C   0  0  0  0  0  3  0  0  0  0  0  0
  -28.1160  -25.0420   19.8710 C   0  0  0  0  0  3  0  0  0  0  0  0
  -28.3370  -26.4750   20.1690 O   0  0  0  0  0  0  0  0  0  0  0  0
  -24.6240  -31.8630   23.2070 C   0  0  0  0  0  0  0  0  0  0  0  0
  -27.2240  -27.3330   20.1010 C   0  0  0  0  0  0  0  0  0  0  0  0
  -23.4170  -30.4880   21.5510 C   0  0  0  0  0  3  0  0  0  0  0  0
  -24.8630  -28.9530   20.1080 C   0  0  0  0  0  0  0  0  0  0  0  0
  -25.9570  -30.7950   21.3800 C   0  0  0  0  0  2  0  0  0  0  0  0
  -26.0320  -29.4240   20.7190 C   0  0  0  0  0  0  0  0  0  0  0  0
  -27.2130  -28.6250   20.7120 C   0  0  0  0  0  3  0  0  0  0  0  0
  -26.0350  -26.9290   19.4450 C   0  0  0  0  0  3  0  0  0  0  0  0
  -24.8660  -27.7090   19.4630 C   0  0  0  0  0  3  0  0  0  0  0  0
  -23.6300  -29.8290   20.1640 C   0  0  0  0  0  2  0  0  0  0  0  0
  -24.6850  -31.0640   22.1040 N   0  0  0  0  0  0  0  0  0  0  0  0
  -23.5410  -32.1440   23.7390 O   0  0  0  0  0  0  0  0  0  0  0  0
  -22.7480  -29.4620   22.4960 C   0  0  0  0  0  0  0  0  0  0  0  0
  -21.4190  -29.3030   22.3700 N   0  0  0  0  0  0  0  0  0  0  0  0
  -23.4220  -28.8150   23.3020 O   0  0  0  0  0  0  0  0  0  0  0  0
  -20.9360  -29.8820   21.6980 H   0  0  0  0  0  0  0  0  0  0  0  0
  -18.0300  -28.1360   22.8470 C   0  0  0  0  0  0  0  0  0  0  0  0
  -20.5880  -28.3670   23.1280 C   0  0  0  0  0  3  0  0  0  0  0  0
  -20.6800  -26.9400   22.5420 C   0  0  0  0  0  2  0  0  0  0  0  0
  -19.5770  -26.6300   21.5240 C   0  0  0  0  0  2  0  0  0  0  0  0
  -18.1960  -26.7860   22.1690 C   0  0  0  0  0  2  0  0  0  0  0  0
  -19.1540  -28.8840   23.2850 C   0  0  0  0  0  0  0  0  0  0  0  0
  -18.9470  -30.1450   23.8870 C   0  0  0  0  0  3  0  0  0  0  0  0
  -17.6480  -30.6580   24.0530 C   0  0  0  0  0  3  0  0  0  0  0  0
  -16.5370  -29.9070   23.6310 C   0  0  0  0  0  3  0  0  0  0  0  0
  -16.7290  -28.6480   23.0340 C   0  0  0  0  0  3  0  0  0  0  0  0
  -25.9100  -32.4800   23.8380 C   0  0  0  0  0  3  0  0  0  0  0  0
  -26.4490  -31.6600   25.0730 C   0  0  1  0  0  0  0  0  0  0  0  0
  -25.3730  -31.3740   26.1460 C   0  0  0  0  0  1  0  0  0  0  0  0
  -27.0330  -30.3030   24.6170 C   0  0  0  0  0  1  0  0  0  0  0  0
  -27.6070  -32.4320   25.7490 C   0  0  0  0  0  1  0  0  0  0  0  0
  -25.5930  -33.8610   24.2310 N   0  0  0  0  0  0  0  0  0  0  0  0
  -25.9050  -34.9460   23.5110 C   0  0  0  0  0  0  0  0  0  0  0  0
  -26.5610  -34.8920   22.4680 O   0  0  0  0  0  0  0  0  0  0  0  0
  -25.0110  -33.9780   25.0470 H   0  0  0  0  0  0  0  0  0  0  0  0
  -24.1490  -36.7290   23.2630 C   0  0  0  0  0  1  0  0  0  0  0  0
  -25.4120  -36.3100   24.0320 C   0  0  0  0  0  3  0  0  0  0  0  0
  -27.5580  -37.1800   24.8460 C   0  0  0  0  0  1  0  0  0  0  0  0
  -26.4300  -37.3790   23.9400 N   0  0  0  0  0  0  0  0  0  0  0  0
  -26.0190  -38.2860   24.1430 H   0  0  0  0  0  0  0  0  0  0  0  0
  -29.7870  -18.4350   21.0830 C   0  0  0  0  0  3  0  0  0  0  0  0
  -29.9490  -17.0410   20.3120 C   0  0  0  0  0  3  0  0  0  0  0  0
  -30.6440  -14.6120   20.5740 C   0  0  0  0  0  0  0  0  0  0  0  0
  -30.4420  -12.3990   19.4340 C   0  0  0  0  0  2  0  0  0  0  0  0
  -29.5060  -12.5440   18.2130 C   0  0  0  0  0  2  0  0  0  0  0  0
  -28.0260  -12.3820   18.6200 C   0  0  0  0  0  2  0  0  0  0  0  0
  -27.6630  -13.2130   19.8820 C   0  0  0  0  0  3  0  0  0  0  0  0
  -28.7170  -12.9800   20.9870 C   0  0  0  0  0  2  0  0  0  0  0  0
  -30.0170  -13.3930   20.4460 N   0  0  0  0  0  0  0  0  0  0  0  0
  -31.7620  -14.7770   20.0710 O   0  0  0  0  0  0  0  0  0  0  0  0
  -29.9240  -15.7040   21.0480 N   0  0  0  0  0  0  0  0  0  0  0  0
  -25.2570  -13.8110   20.5570 C   0  0  0  0  0  0  0  0  0  0  0  0
  -24.1840  -13.0410   20.9130 C   0  0  0  0  0  0  0  0  0  0  0  0
  -24.6400  -11.6890   20.8740 C   0  0  0  0  0  0  0  0  0  0  0  0
  -26.3060  -12.9310   20.3410 N   0  0  0  0  0  0  0  0  0  0  0  0
  -25.9350  -11.6470   20.5790 N   0  0  0  0  0  0  0  0  0  0  0  0
  -23.9070  -10.4280   21.0400 C   0  0  0  0  0  0  0  0  0  0  0  0
  -24.3610   -9.4200   21.9190 C   0  0  0  0  0  3  0  0  0  0  0  0
  -23.6280   -8.2240   22.0760 C   0  0  0  0  0  3  0  0  0  0  0  0
  -22.4270   -8.0280   21.3540 C   0  0  0  0  0  0  0  0  0  0  0  0
  -21.9890   -9.0260   20.4670 C   0  0  0  0  0  3  0  0  0  0  0  0
  -22.7210  -10.2140   20.3070 C   0  0  0  0  0  3  0  0  0  0  0  0
  -21.6640   -6.8860   21.4230 O   0  0  0  0  0  0  0  0  0  0  0  0
  -21.6850   -6.0730   22.5280 C   0  0  0  0  0  0  0  0  0  0  0  0
  -21.4010   -6.5630   23.8220 C   0  0  0  0  0  3  0  0  0  0  0  0
  -21.3660   -5.6790   24.9180 C   0  0  0  0  0  3  0  0  0  0  0  0
  -21.6050   -4.3050   24.7240 C   0  0  0  0  0  0  0  0  0  0  0  0
  -21.8820   -3.8140   23.4360 C   0  0  0  0  0  3  0  0  0  0  0  0
  -21.9180   -4.6950   22.3410 C   0  0  0  0  0  0  0  0  0  0  0  0
  -22.1650   -4.2130   21.0990 F   0  0  0  0  0  0  0  0  0  0  0  0
  -21.5640   -3.4550   25.7750 F   0  0  0  0  0  0  0  0  0  0  0  0
  -22.7880  -13.5240   21.1820 C   0  0  0  0  0  0  0  0  0  0  0  0
  -22.0520  -12.8250   22.0390 N   0  0  0  0  0  0  0  0  0  0  0  0
  -22.3580  -14.5560   20.6690 O   0  0  0  0  0  0  0  0  0  0  0  0
  -22.4110  -11.9900   22.4780 H   0  0  0  0  0  0  0  0  0  0  0  0
  -21.1170  -13.1330   22.2640 H   0  0  0  0  0  0  0  0  0  0  0  0
  -25.4240  -15.1790   20.3810 N   0  0  0  0  0  0  0  0  0  0  0  0
  -24.6580  -15.8290   20.5060 H   0  0  0  0  0  0  0  0  0  0  0  0
  -26.2870  -15.6260   20.1030 H   0  0  0  0  0  0  0  0  0  0  0  0
  -29.6720  -15.7740   22.5060 C   0  0  0  0  0  2  0  0  0  0  0  0
  -28.1780  -15.9090   22.9150 C   0  0  0  0  0  2  0  0  0  0  0  0
  -27.9870  -15.7430   24.4450 C   0  0  0  0  0  2  0  0  0  0  0  0
  -26.8620  -14.8830   26.4710 C   0  0  0  0  0  1  0  0  0  0  0  0
  -26.0780  -14.0770   24.2710 C   0  0  0  0  0  1  0  0  0  0  0  0
  -26.5810  -15.3430   25.0140 C   0  0  2  0  0  0  0  0  0  0  0  0
  -25.8870  -17.6920   25.9140 C   0  0  0  0  0  1  0  0  0  0  0  0
  -24.1110  -15.9960   25.4990 C   0  0  0  0  0  1  0  0  0  0  0  0
  -25.2450  -17.1070   23.6030 C   0  0  0  0  0  1  0  0  0  0  0  0
  -25.4900  -16.5050   25.0050 C   0  0  2  0  0  0  0  0  0  0  0  0
  1 51  1  0
  3  2  1  0
  4  2  1  0
  5  7  1  0
  5  3  1  0
  6  1  1  0
  6  4  1  0
  7  8  1  0
  7  6  1  0
  9 10  1  0
  9  8  2  0
 11 22  2  0
 12 10  1  0
 12 17  1  0
 13 21  1  0
 13 23  1  0
 14 20  1  0
 14 16  1  0
 15 21  1  0
 16 15  1  0
 17 16  2  0
 18 19  1  0
 18 12  2  0
 19 14  2  0
 20 13  1  0
 21 11  1  0
 23 25  2  0
 24 23  1  0
 26 24  1  0
 27 36  2  0
 27 32  1  0
 28 24  1  0
 28 32  1  0
 29 28  1  0
 30 31  1  0
 30 29  1  0
 31 27  1  0
 32 33  2  0
 33 34  1  0
 35 34  2  0
 36 35  1  0
 37 11  1  0
 37 42  1  0
 37 38  1  0
 38 41  1  1
 38 39  1  0
 40 38  1  0
 42 45  1  0
 43 47  1  0
 43 42  1  0
 44 43  2  0
 47 46  1  0
 49 47  1  0
 49 50  1  0
 49 48  1  0
 52 61  1  0
 52 51  2  0
 53 61  1  0
 54 59  1  0
 55 56  1  0
 55 54  1  0
 57 56  1  0
 57 65  1  0
 57 58  1  0
 59 53  1  0
 59 58  1  0
 60 53  2  0
 61 90  1  0
 62 63  2  0
 63 82  1  0
 64 63  1  0
 64 67  1  0
 65 62  1  0
 65 66  1  0
 66 64  2  0
 67 68  1  0
 68 69  2  0
 70 73  1  0
 70 69  1  0
 71 70  2  0
 72 71  1  0
 72 67  2  0
 73 74  1  0
 74 75  1  0
 75 76  2  0
 77 76  1  0
 77 81  1  0
 78 77  2  0
 79 74  2  0
 79 78  1  0
 80 79  1  0
 82 83  1  0
 83 86  1  0
 83 85  1  0
 84 82  2  0
 87 88  1  0
 87 62  1  0
 89 87  1  0
 90 91  1  0
 91 92  1  0
 92 95  1  0
 95 94  1  6
 95 93  1  0
 99 98  1  6
 99 95  1  0
 99 97  1  0
 99 96  1  0
M  ISO  4   9 101  10 101  53 100  61 100
M  END
>  <TORSDO>  (81) 
F 26

>  <SCORE>  (81) 
43.929

>  <name>  (81) 
83

>  <ligand_id>  (81) 
83

>  <original_smiles>  (81) 
[H]c1c([H])c([H])c2c(c1[H])C([H])([H])C([H])([H])C([H])([H])C2([H])N([H])C(=O)C1([H])N(C(=O)C([H])(N([H])C(=O)C([H])(N([H])C([H])([H])[H])C([H])([H])[H])C(C([H])([H])[H])(C([H])([H])[H])C([H])([H])[H])C([H])([H])c2c([H])c(OC([H])([H])C([H])([H])C3([H])C([H])([H])C([H])([H])C([H])([H])C([H])([H])C3([H])C([H])([H])C([H])([H])C([H])([H])N(C(=O)N3C([H])([H])C([H])([H])C([H])([H])C([H])(n4nc(-c5c([H])c([H])c(Oc6c([H])c([H])c(F)c([H])c6F)c([H])c5[H])c(C(=O)N([H])[H])c4N([H])[H])C3([H])[H])C([H])([H])C([H])([H])C([H])([H])C(C([H])([H])[H])(C([H])([H])[H])C(C([H])([H])[H])(C([H])([H])[H])C([H])([H])[H])c([H])c([H])c2C1([H])[H]

>  <smiles>  (81) 
[H]c1c([H])c([H])c2c(c1[H])C([H])([H])C([H])([H])C([H])([H])C2([H])N([H])C(=O)C1([H])N(C(=O)C([H])(N([H])C(=O)C([H])(N([H])C([H])([H])[H])C([H])([H])[H])C(C([H])([H])[H])(C([H])([H])[H])C([H])([H])[H])C([H])([H])c2c([H])c(OC([H])([H])C([H])([H])C3([H])C([H])([H])C([H])([H])C([H])([H])C([H])([H])C3([H])C([H])([H])C([H])([H])C([H])([H])N(C(=O)N3C([H])([H])C([H])([H])C([H])([H])C([H])(n4nc(-c5c([H])c([H])c(Oc6c([H])c([H])c(F)c([H])c6F)c([H])c5[H])c(C(=O)N([H])[H])c4N([H])[H])C3([H])[H])C([H])([H])C([H])([H])C([H])([H])C(C([H])([H])[H])(C([H])([H])[H])C(C([H])([H])[H])(C([H])([H])[H])C([H])([H])[H])c([H])c([H])c2C1([H])[H]

$$$$
84:0:0
     RDKit          3D

 97106  0  0  1  0  0  0  0  0999 V2000
  -28.8720  -23.9110   16.0700 C   0  0  0  0  0  2  0  0  0  0  0  0
  -29.8340  -22.7890   15.6470 C   0  0  0  0  0  2  0  0  0  0  0  0
  -29.0650  -24.2770   17.5560 C   0  0  0  0  0  2  0  0  0  0  0  0
  -28.6780  -21.7910   20.5500 C   0  0  0  0  0  2  0  0  0  0  0  0
  -29.7540  -21.5840   16.6040 C   0  0  0  0  0  2  0  0  0  0  0  0
  -30.5050  -20.9380   18.9090 C   0  0  0  0  0  2  0  0  0  0  0  0
  -29.6550  -20.5210   20.1430 C   0  0  0  0  0  3  0  0  0  0  0  0
  -28.9920  -23.3090   19.9740 C   0  0  0  0  0  3  0  0  0  0  0  0
  -28.9650  -23.0220   18.4500 C   0  0  0  0  0  3  0  0  0  0  0  0
  -30.0040  -22.0280   17.9990 N   0  0  2  0  0  4  0  0  0  0  0  0
  -30.8350  -22.5920   17.9030 H   0  0  0  0  0  0  0  0  0  0  0  0
  -29.2540  -18.8770   20.1380 C   0  0  0  0  0  2  0  0  0  0  0  0
  -30.3280  -17.5660   20.0470 C   0  0  0  0  0  3  0  0  0  0  0  0
  -30.6260  -14.8640   19.8590 C   0  0  0  0  0  0  0  0  0  0  0  0
  -30.4410  -12.5020   18.9990 C   0  0  0  0  0  2  0  0  0  0  0  0
  -29.4420  -12.4410   17.8230 C   0  0  0  0  0  2  0  0  0  0  0  0
  -28.0010  -12.2600   18.3360 C   0  0  0  0  0  2  0  0  0  0  0  0
  -27.6650  -13.2160   19.5130 C   0  0  0  0  0  3  0  0  0  0  0  0
  -28.7780  -13.2480   20.5800 C   0  0  0  0  0  2  0  0  0  0  0  0
  -30.0180  -13.6170   19.8890 N   0  0  0  0  0  0  0  0  0  0  0  0
  -31.8050  -14.9140   19.4930 O   0  0  0  0  0  0  0  0  0  0  0  0
  -29.8800  -16.0570   20.0510 N   0  0  0  0  0  0  0  0  0  0  0  0
  -28.9100  -15.9030   20.2840 H   0  0  0  0  0  0  0  0  0  0  0  0
  -25.3610  -13.8400   20.4370 C   0  0  0  0  0  0  0  0  0  0  0  0
  -24.3020  -13.0840   20.8600 C   0  0  0  0  0  0  0  0  0  0  0  0
  -24.7220  -11.7220   20.7540 C   0  0  0  0  0  0  0  0  0  0  0  0
  -26.3550  -12.9400   20.0940 N   0  0  0  0  0  0  0  0  0  0  0  0
  -25.9860  -11.6590   20.3510 N   0  0  0  0  0  0  0  0  0  0  0  0
  -23.9710  -10.4760   20.9560 C   0  0  0  0  0  0  0  0  0  0  0  0
  -24.4050   -9.4930   21.8730 C   0  0  0  0  0  3  0  0  0  0  0  0
  -23.6560   -8.3120   22.0640 C   0  0  0  0  0  3  0  0  0  0  0  0
  -22.4580   -8.1050   21.3380 C   0  0  0  0  0  0  0  0  0  0  0  0
  -22.0440   -9.0770   20.4090 C   0  0  0  0  0  3  0  0  0  0  0  0
  -22.7930  -10.2490   20.2160 C   0  0  0  0  0  3  0  0  0  0  0  0
  -21.6810   -6.9760   21.4370 O   0  0  0  0  0  0  0  0  0  0  0  0
  -21.6010   -6.2590   22.6050 C   0  0  0  0  0  0  0  0  0  0  0  0
  -21.1420   -6.8380   23.8070 C   0  0  0  0  0  3  0  0  0  0  0  0
  -21.0090   -6.0460   24.9650 C   0  0  0  0  0  3  0  0  0  0  0  0
  -21.3250   -4.6740   24.9210 C   0  0  0  0  0  0  0  0  0  0  0  0
  -21.7770   -4.0930   23.7230 C   0  0  0  0  0  3  0  0  0  0  0  0
  -21.9110   -4.8830   22.5680 C   0  0  0  0  0  0  0  0  0  0  0  0
  -22.3270   -4.3140   21.4100 F   0  0  0  0  0  0  0  0  0  0  0  0
  -21.1910   -3.9120   26.0310 F   0  0  0  0  0  0  0  0  0  0  0  0
  -22.9410  -13.5920   21.2380 C   0  0  0  0  0  0  0  0  0  0  0  0
  -22.2530  -12.8960   22.1370 N   0  0  0  0  0  0  0  0  0  0  0  0
  -22.4980  -14.6410   20.7730 O   0  0  0  0  0  0  0  0  0  0  0  0
  -22.6280  -12.0520   22.5430 H   0  0  0  0  0  0  0  0  0  0  0  0
  -21.3390  -13.2150   22.4200 H   0  0  0  0  0  0  0  0  0  0  0  0
  -25.5530  -15.2100   20.2890 N   0  0  0  0  0  0  0  0  0  0  0  0
  -24.8150  -15.8810   20.4720 H   0  0  0  0  0  0  0  0  0  0  0  0
  -26.3780  -15.6350   19.8850 H   0  0  0  0  0  0  0  0  0  0  0  0
  -30.7700  -17.6690   22.5690 C   0  0  0  0  0  1  0  0  0  0  0  0
  -31.4080  -17.6740   21.1620 C   0  0  0  0  0  3  0  0  0  0  0  0
  -32.8120  -19.6700   22.1050 C   0  0  0  0  0  1  0  0  0  0  0  0
  -32.4530  -18.7870   20.8990 C   0  0  0  0  0  2  0  0  0  0  0  0
  -28.0690  -24.6410   20.4310 C   0  0  0  0  0  2  0  0  0  0  0  0
  -28.3360  -26.1540   20.1890 O   0  0  0  0  0  0  0  0  0  0  0  0
  -24.5540  -31.7570   23.1420 C   0  0  0  0  0  0  0  0  0  0  0  0
  -27.2600  -27.1070   20.1440 C   0  0  0  0  0  0  0  0  0  0  0  0
  -23.4110  -30.3530   21.4710 C   0  0  0  0  0  3  0  0  0  0  0  0
  -24.9080  -28.8070   20.0730 C   0  0  0  0  0  0  0  0  0  0  0  0
  -25.9620  -30.6590   21.3600 C   0  0  0  0  0  2  0  0  0  0  0  0
  -26.0670  -29.2700   20.7070 C   0  0  0  0  0  0  0  0  0  0  0  0
  -27.2460  -28.4370   20.7250 C   0  0  0  0  0  3  0  0  0  0  0  0
  -26.0780  -26.7450   19.4640 C   0  0  0  0  0  3  0  0  0  0  0  0
  -24.9240  -27.5560   19.4390 C   0  0  0  0  0  3  0  0  0  0  0  0
  -23.6690  -29.6860   20.0950 C   0  0  0  0  0  2  0  0  0  0  0  0
  -24.6610  -30.9440   22.0470 N   0  0  0  0  0  0  0  0  0  0  0  0
  -23.4530  -32.0250   23.6460 O   0  0  0  0  0  0  0  0  0  0  0  0
  -22.7250  -29.3320   22.4130 C   0  0  0  0  0  0  0  0  0  0  0  0
  -21.3970  -29.1640   22.2760 N   0  0  0  0  0  0  0  0  0  0  0  0
  -23.3900  -28.6920   23.2310 O   0  0  0  0  0  0  0  0  0  0  0  0
  -20.9180  -29.7320   21.5900 H   0  0  0  0  0  0  0  0  0  0  0  0
  -18.0060  -27.9920   22.7670 C   0  0  0  0  0  0  0  0  0  0  0  0
  -20.5690  -28.2180   23.0260 C   0  0  0  0  0  3  0  0  0  0  0  0
  -20.6510  -26.8000   22.4140 C   0  0  0  0  0  2  0  0  0  0  0  0
  -19.5400  -26.5150   21.4000 C   0  0  0  0  0  2  0  0  0  0  0  0
  -18.1630  -26.6590   22.0540 C   0  0  0  0  0  2  0  0  0  0  0  0
  -19.1350  -28.7310   23.2090 C   0  0  0  0  0  0  0  0  0  0  0  0
  -18.9330  -29.9780   23.8380 C   0  0  0  0  0  3  0  0  0  0  0  0
  -17.6330  -30.4870   24.0270 C   0  0  0  0  0  3  0  0  0  0  0  0
  -16.5180  -29.7460   23.5990 C   0  0  0  0  0  3  0  0  0  0  0  0
  -16.7060  -28.4990   22.9760 C   0  0  0  0  0  3  0  0  0  0  0  0
  -25.8090  -32.4060   23.8000 C   0  0  0  0  0  3  0  0  0  0  0  0
  -25.4700  -33.7980   24.1390 N   0  0  0  0  0  0  0  0  0  0  0  0
  -25.7970  -34.8650   23.3980 C   0  0  0  0  0  0  0  0  0  0  0  0
  -26.4840  -34.7840   22.3760 O   0  0  0  0  0  0  0  0  0  0  0  0
  -24.8620  -33.9340   24.9320 H   0  0  0  0  0  0  0  0  0  0  0  0
  -24.0450  -36.6350   23.0460 C   0  0  0  0  0  1  0  0  0  0  0  0
  -25.2850  -36.2420   23.8640 C   0  0  0  0  0  3  0  0  0  0  0  0
  -27.3920  -37.1560   24.7310 C   0  0  0  0  0  1  0  0  0  0  0  0
  -26.3030  -37.3120   23.7710 N   0  0  0  0  0  0  0  0  0  0  0  0
  -25.8820  -38.2250   23.9150 H   0  0  0  0  0  0  0  0  0  0  0  0
  -26.3040  -31.6340   25.0850 C   0  0  1  0  0  0  0  0  0  0  0  0
  -25.1860  -31.3770   26.1230 C   0  0  0  0  0  1  0  0  0  0  0  0
  -26.9140  -30.2660   24.7040 C   0  0  0  0  0  1  0  0  0  0  0  0
  -27.4320  -32.4360   25.7750 C   0  0  0  0  0  1  0  0  0  0  0  0
  1  3  1  0
  2  1  1  0
  2  5  1  0
  5 10  1  0
  6  7  1  0
  7 12  1  0
  7  4  1  0
  8 56  1  0
  8  4  1  0
  9  3  1  0
  9  8  1  0
 10 11  1  6
 10  9  1  0
 10  6  1  0
 13 22  1  0
 13 12  1  0
 13 53  1  0
 14 20  1  0
 14 22  1  0
 15 20  1  0
 16 17  1  0
 16 15  1  0
 18 17  1  0
 18 27  1  0
 18 19  1  0
 20 19  1  0
 21 14  2  0
 22 23  1  0
 24 25  2  0
 25 44  1  0
 26 25  1  0
 26 29  1  0
 27 28  1  0
 27 24  1  0
 28 26  2  0
 29 30  1  0
 30 31  2  0
 32 35  1  0
 32 31  1  0
 33 32  2  0
 34 33  1  0
 34 29  2  0
 35 36  1  0
 36 37  1  0
 37 38  2  0
 39 38  1  0
 39 43  1  0
 40 39  2  0
 41 36  2  0
 41 40  1  0
 42 41  1  0
 44 45  1  0
 45 48  1  0
 45 47  1  0
 46 44  2  0
 49 24  1  0
 49 50  1  0
 51 49  1  0
 53 52  1  0
 55 53  1  0
 55 54  1  0
 57 56  1  0
 58 69  2  0
 59 57  1  0
 59 64  1  0
 60 68  1  0
 60 70  1  0
 61 67  1  0
 61 63  1  0
 62 68  1  0
 63 64  2  0
 63 62  1  0
 65 59  2  0
 66 65  1  0
 66 61  2  0
 67 60  1  0
 68 58  1  0
 70 72  2  0
 71 70  1  0
 73 71  1  0
 74 83  2  0
 74 79  1  0
 75 71  1  0
 75 79  1  0
 76 75  1  0
 77 78  1  0
 77 76  1  0
 78 74  1  0
 79 80  2  0
 80 81  1  0
 82 81  2  0
 83 82  1  0
 84 58  1  0
 84 85  1  0
 84 94  1  0
 85 88  1  0
 86 90  1  0
 86 85  1  0
 87 86  2  0
 90 89  1  0
 92 90  1  0
 92 93  1  0
 92 91  1  0
 94 97  1  1
 94 95  1  0
 96 94  1  0
M  ISO  4  14 100  22 100  56 101  57 101
M  END
>  <TORSDO>  (82) 
F 21

>  <SCORE>  (82) 
-13.767

>  <name>  (82) 
84

>  <ligand_id>  (82) 
84

>  <original_smiles>  (82) 
[H]c1c([H])c([H])c2c(c1[H])C([H])([H])C([H])([H])C([H])([H])C2([H])N([H])C(=O)C1([H])N(C(=O)C([H])(N([H])C(=O)C([H])(N([H])C([H])([H])[H])C([H])([H])[H])C(C([H])([H])[H])(C([H])([H])[H])C([H])([H])[H])C([H])([H])c2c([H])c(OC([H])([H])C3([H])C([H])([H])C([H])(C([H])([H])C([H])(N([H])C(=O)N4C([H])([H])C([H])([H])C([H])([H])C([H])(n5nc(-c6c([H])c([H])c(Oc7c([H])c([H])c(F)c([H])c7F)c([H])c6[H])c(C(=O)N([H])[H])c5N([H])[H])C4([H])[H])C([H])(C([H])([H])[H])C([H])([H])C([H])([H])[H])C([H])([H])[N+]4([H])C([H])([H])C([H])([H])C([H])([H])C([H])([H])C34[H])c([H])c([H])c2C1([H])[H]

>  <smiles>  (82) 
[H]c1c([H])c([H])c2c(c1[H])C([H])([H])C([H])([H])C([H])([H])C2([H])N([H])C(=O)C1([H])N(C(=O)C([H])(N([H])C(=O)C([H])(N([H])C([H])([H])[H])C([H])([H])[H])C(C([H])([H])[H])(C([H])([H])[H])C([H])([H])[H])C([H])([H])c2c([H])c(OC([H])([H])C3([H])C([H])([H])C([H])(C([H])([H])C([H])(N([H])C(=O)N4C([H])([H])C([H])([H])C([H])([H])C([H])(n5nc(-c6c([H])c([H])c(Oc7c([H])c([H])c(F)c([H])c7F)c([H])c6[H])c(C(=O)N([H])[H])c5N([H])[H])C4([H])[H])C([H])(C([H])([H])[H])C([H])([H])C([H])([H])[H])C([H])([H])[N+]4([H])C([H])([H])C([H])([H])C([H])([H])C([H])([H])C34[H])c([H])c([H])c2C1([H])[H]

$$$$
85:0:0
     RDKit          3D

 91 98  0  0  1  0  0  0  0  0999 V2000
  -30.2630  -21.6270   19.9320 C   0  0  0  0  0  2  0  0  0  0  0  0
  -29.9200  -20.2740   20.6100 C   0  0  0  0  0  2  0  0  0  0  0  0
  -30.0980  -19.0070   19.7340 C   0  0  0  0  0  2  0  0  0  0  0  0
  -30.2010  -17.7020   20.5630 C   0  0  0  0  0  2  0  0  0  0  0  0
  -29.9650  -16.3880   19.7520 C   0  0  0  0  0  2  0  0  0  0  0  0
  -30.7450  -14.1370   19.4350 C   0  0  0  0  0  0  0  0  0  0  0  0
  -30.0420  -12.1510   18.1470 C   0  0  0  0  0  2  0  0  0  0  0  0
  -28.8950  -12.5030   17.1790 C   0  0  0  0  0  2  0  0  0  0  0  0
  -27.5330  -12.3560   17.8810 C   0  0  0  0  0  2  0  0  0  0  0  0
  -27.4920  -13.0690   19.2590 C   0  0  0  0  0  3  0  0  0  0  0  0
  -28.7400  -12.7390   20.1090 C   0  0  0  0  0  2  0  0  0  0  0  0
  -29.9410  -13.0400   19.3160 N   0  0  0  0  0  0  0  0  0  0  0  0
  -31.7160  -14.3270   18.6940 O   0  0  0  0  0  0  0  0  0  0  0  0
  -30.4080  -15.0830   20.3470 N   0  0  0  0  0  0  0  0  0  0  0  0
  -25.2860  -13.6470   20.4560 C   0  0  0  0  0  0  0  0  0  0  0  0
  -24.2890  -12.8610   20.9680 C   0  0  0  0  0  0  0  0  0  0  0  0
  -24.7030  -11.5070   20.7610 C   0  0  0  0  0  0  0  0  0  0  0  0
  -26.2540  -12.7730   19.9810 N   0  0  0  0  0  0  0  0  0  0  0  0
  -25.9140  -11.4770   20.2150 N   0  0  0  0  0  0  0  0  0  0  0  0
  -23.9930  -10.2420   21.0040 C   0  0  0  0  0  0  0  0  0  0  0  0
  -24.4720   -9.2940   21.9370 C   0  0  0  0  0  3  0  0  0  0  0  0
  -23.7620   -8.0940   22.1650 C   0  0  0  0  0  3  0  0  0  0  0  0
  -22.5630   -7.8360   21.4610 C   0  0  0  0  0  0  0  0  0  0  0  0
  -22.1050   -8.7700   20.5160 C   0  0  0  0  0  3  0  0  0  0  0  0
  -22.8130   -9.9600   20.2850 C   0  0  0  0  0  3  0  0  0  0  0  0
  -21.8220   -6.6870   21.6010 O   0  0  0  0  0  0  0  0  0  0  0  0
  -21.7260   -6.0330   22.8020 C   0  0  0  0  0  0  0  0  0  0  0  0
  -21.2140   -6.6640   23.9580 C   0  0  0  0  0  3  0  0  0  0  0  0
  -21.0650   -5.9320   25.1520 C   0  0  0  0  0  3  0  0  0  0  0  0
  -21.4270   -4.5720   25.1930 C   0  0  0  0  0  0  0  0  0  0  0  0
  -21.9340   -3.9410   24.0430 C   0  0  0  0  0  3  0  0  0  0  0  0
  -22.0820   -4.6690   22.8510 C   0  0  0  0  0  0  0  0  0  0  0  0
  -22.5530   -4.0520   21.7400 F   0  0  0  0  0  0  0  0  0  0  0  0
  -21.2740   -3.8630   26.3380 F   0  0  0  0  0  0  0  0  0  0  0  0
  -22.9800  -13.3340   21.5270 C   0  0  0  0  0  0  0  0  0  0  0  0
  -22.4270  -12.6130   22.4960 N   0  0  0  0  0  0  0  0  0  0  0  0
  -22.4560  -14.3790   21.1370 O   0  0  0  0  0  0  0  0  0  0  0  0
  -22.8650  -11.7670   22.8320 H   0  0  0  0  0  0  0  0  0  0  0  0
  -21.5610  -12.9160   22.9120 H   0  0  0  0  0  0  0  0  0  0  0  0
  -25.4350  -15.0240   20.3420 N   0  0  0  0  0  0  0  0  0  0  0  0
  -24.7040  -15.6530   20.6570 H   0  0  0  0  0  0  0  0  0  0  0  0
  -26.2230  -15.5080   19.9280 H   0  0  0  0  0  0  0  0  0  0  0  0
  -31.2890  -15.2090   21.5320 C   0  0  0  0  0  2  0  0  0  0  0  0
  -32.3660  -14.1120   21.7180 C   0  0  0  0  0  2  0  0  0  0  0  0
  -32.7770  -11.5870   21.6590 C   0  0  0  0  0  1  0  0  0  0  0  0
  -31.7630  -12.7120   21.8970 C   0  0  0  0  0  2  0  0  0  0  0  0
  -29.3140  -22.7780   20.3570 C   0  0  0  0  0  2  0  0  0  0  0  0
  -30.7440  -24.3300   18.8290 C   0  0  0  0  0  1  0  0  0  0  0  0
  -29.7210  -24.2440   19.9830 C   0  0  0  0  0  3  0  0  0  0  0  0
  -28.4610  -25.1060   19.6740 C   0  0  0  0  0  2  0  0  0  0  0  0
  -28.4580  -26.4250   20.2380 O   0  0  0  0  0  0  0  0  0  0  0  0
  -24.6130  -31.7040   23.1030 C   0  0  0  0  0  0  0  0  0  0  0  0
  -27.2700  -27.1460   20.1850 C   0  0  0  0  0  0  0  0  0  0  0  0
  -23.4110  -30.2570   21.4940 C   0  0  0  0  0  3  0  0  0  0  0  0
  -24.8730  -28.6660   20.1300 C   0  0  0  0  0  0  0  0  0  0  0  0
  -25.9400  -30.5890   21.3120 C   0  0  0  0  0  2  0  0  0  0  0  0
  -26.0270  -29.1930   20.7280 C   0  0  0  0  0  0  0  0  0  0  0  0
  -27.2190  -28.4330   20.7700 C   0  0  0  0  0  3  0  0  0  0  0  0
  -26.1000  -26.6490   19.5580 C   0  0  0  0  0  3  0  0  0  0  0  0
  -24.9040  -27.3890   19.5500 C   0  0  0  0  0  3  0  0  0  0  0  0
  -23.6300  -29.5260   20.1390 C   0  0  0  0  0  2  0  0  0  0  0  0
  -24.6720  -30.8670   22.0270 N   0  0  0  0  0  0  0  0  0  0  0  0
  -23.5290  -32.0060   23.6210 O   0  0  0  0  0  0  0  0  0  0  0  0
  -22.7460  -29.2710   22.4820 C   0  0  0  0  0  0  0  0  0  0  0  0
  -21.4270  -29.0790   22.3340 N   0  0  0  0  0  0  0  0  0  0  0  0
  -23.4160  -28.6760   23.3320 O   0  0  0  0  0  0  0  0  0  0  0  0
  -20.9500  -29.6210   21.6280 H   0  0  0  0  0  0  0  0  0  0  0  0
  -18.0400  -27.9100   22.8090 C   0  0  0  0  0  0  0  0  0  0  0  0
  -20.5930  -28.1680   23.1180 C   0  0  0  0  0  3  0  0  0  0  0  0
  -20.6980  -26.7190   22.5890 C   0  0  0  0  0  2  0  0  0  0  0  0
  -19.6110  -26.3660   21.5670 C   0  0  0  0  0  2  0  0  0  0  0  0
  -18.2210  -26.5370   22.1840 C   0  0  0  0  0  2  0  0  0  0  0  0
  -19.1560  -28.6820   23.2320 C   0  0  0  0  0  0  0  0  0  0  0  0
  -18.9320  -29.9650   23.7740 C   0  0  0  0  0  3  0  0  0  0  0  0
  -17.6280  -30.4780   23.9020 C   0  0  0  0  0  3  0  0  0  0  0  0
  -16.5270  -29.7030   23.4940 C   0  0  0  0  0  3  0  0  0  0  0  0
  -16.7340  -28.4210   22.9550 C   0  0  0  0  0  3  0  0  0  0  0  0
  -25.8970  -32.3440   23.7200 C   0  0  0  0  0  3  0  0  0  0  0  0
  -26.4530  -31.5490   24.9640 C   0  0  1  0  0  0  0  0  0  0  0  0
  -25.3800  -31.2300   26.0320 C   0  0  0  0  0  1  0  0  0  0  0  0
  -27.0880  -30.2120   24.5120 C   0  0  0  0  0  1  0  0  0  0  0  0
  -27.5690  -32.3680   25.6540 C   0  0  0  0  0  1  0  0  0  0  0  0
  -25.5680  -33.7250   24.0950 N   0  0  0  0  0  0  0  0  0  0  0  0
  -25.8710  -34.8060   23.3620 C   0  0  0  0  0  0  0  0  0  0  0  0
  -26.5370  -34.7440   22.3240 O   0  0  0  0  0  0  0  0  0  0  0  0
  -24.9940  -33.8460   24.9180 H   0  0  0  0  0  0  0  0  0  0  0  0
  -24.1050  -36.5660   23.0650 C   0  0  0  0  0  1  0  0  0  0  0  0
  -25.3600  -36.1700   23.8590 C   0  0  0  0  0  3  0  0  0  0  0  0
  -27.4890  -37.0660   24.6920 C   0  0  0  0  0  1  0  0  0  0  0  0
  -26.3710  -37.2450   23.7670 N   0  0  0  0  0  0  0  0  0  0  0  0
  -25.9540  -38.1510   23.9530 H   0  0  0  0  0  0  0  0  0  0  0  0
  1 47  1  0
  1  2  1  0
  3  4  1  0
  3  2  1  0
  5 14  1  0
  5  4  1  0
  6 14  1  0
  7 12  1  0
  8  9  1  0
  8  7  1  0
 10  9  1  0
 10 18  1  0
 10 11  1  0
 12  6  1  0
 12 11  1  0
 13  6  2  0
 14 43  1  0
 15 16  2  0
 16 35  1  0
 17 16  1  0
 17 20  1  0
 18 19  1  0
 18 15  1  0
 19 17  2  0
 20 21  1  0
 21 22  2  0
 23 26  1  0
 23 22  1  0
 24 23  2  0
 25 24  1  0
 25 20  2  0
 26 27  1  0
 27 32  2  0
 27 28  1  0
 28 29  2  0
 29 30  1  0
 30 34  1  0
 31 30  2  0
 32 31  1  0
 33 32  1  0
 35 36  1  0
 36 38  1  0
 36 39  1  0
 37 35  2  0
 40 15  1  0
 40 41  1  0
 42 40  1  0
 43 44  1  0
 44 46  1  0
 45 46  1  0
 49 48  1  0
 49 47  1  0
 50 49  1  0
 50 51  1  0
 52 63  2  0
 53 51  1  0
 53 58  1  0
 54 62  1  0
 54 64  1  0
 55 61  1  0
 55 57  1  0
 56 62  1  0
 57 58  2  0
 57 56  1  0
 59 53  2  0
 60 59  1  0
 60 55  2  0
 61 54  1  0
 62 52  1  0
 64 66  2  0
 65 64  1  0
 67 65  1  0
 68 77  2  0
 68 73  1  0
 69 65  1  0
 69 73  1  0
 70 69  1  0
 71 72  1  0
 71 70  1  0
 72 68  1  0
 73 74  2  0
 74 75  1  0
 76 75  2  0
 77 76  1  0
 78 52  1  0
 78 83  1  0
 78 79  1  0
 79 82  1  1
 79 80  1  0
 81 79  1  0
 83 86  1  0
 84 88  1  0
 84 83  1  0
 85 84  2  0
 88 87  1  0
 90 88  1  0
 90 91  1  0
 90 89  1  0
M  ISO  4   6 100  14 100  50 101  51 101
M  END
>  <TORSDO>  (83) 
F 26

>  <SCORE>  (83) 
-9.824

>  <name>  (83) 
85

>  <ligand_id>  (83) 
85

>  <original_smiles>  (83) 
[H]c1c([H])c([H])c2c(c1[H])C([H])([H])C([H])([H])C([H])([H])C2([H])N([H])C(=O)C1([H])N(C(=O)C([H])(N([H])C(=O)C([H])(N([H])C([H])([H])[H])C([H])([H])[H])C(C([H])([H])[H])(C([H])([H])[H])C([H])([H])[H])C([H])([H])c2c([H])c(OC([H])([H])C([H])(C([H])([H])[H])C([H])([H])C([H])([H])C([H])([H])C([H])([H])C([H])([H])C([H])([H])N(C(=O)N3C([H])([H])C([H])([H])C([H])([H])C([H])(n4nc(-c5c([H])c([H])c(Oc6c([H])c([H])c(F)c([H])c6F)c([H])c5[H])c(C(=O)N([H])[H])c4N([H])[H])C3([H])[H])C([H])([H])C([H])([H])C([H])([H])C([H])([H])[H])c([H])c([H])c2C1([H])[H]

>  <smiles>  (83) 
[H]c1c([H])c([H])c2c(c1[H])C([H])([H])C([H])([H])C([H])([H])C2([H])N([H])C(=O)C1([H])N(C(=O)C([H])(N([H])C(=O)C([H])(N([H])C([H])([H])[H])C([H])([H])[H])C(C([H])([H])[H])(C([H])([H])[H])C([H])([H])[H])C([H])([H])c2c([H])c(OC([H])([H])C([H])(C([H])([H])[H])C([H])([H])C([H])([H])C([H])([H])C([H])([H])C([H])([H])C([H])([H])N(C(=O)N3C([H])([H])C([H])([H])C([H])([H])C([H])(n4nc(-c5c([H])c([H])c(Oc6c([H])c([H])c(F)c([H])c6F)c([H])c5[H])c(C(=O)N([H])[H])c4N([H])[H])C3([H])[H])C([H])([H])C([H])([H])C([H])([H])C([H])([H])[H])c([H])c([H])c2C1([H])[H]

$$$$
86:0:0
     RDKit          3D

 95102  0  0  1  0  0  0  0  0999 V2000
  -29.4630  -19.8920   20.5870 C   0  0  0  0  0  0  0  0  0  0  0  0
  -28.9850  -21.1890   20.0090 N   0  0  0  0  0  0  0  0  0  0  0  0
  -29.7370  -19.9430   21.7840 O   0  0  0  0  0  0  0  0  0  0  0  0
  -28.6490  -21.0680   19.0620 H   0  0  0  0  0  0  0  0  0  0  0  0
  -29.8580  -18.3230   19.8630 C   0  0  0  0  0  3  0  0  0  0  0  0
  -30.4540  -15.4170   20.2190 C   0  0  0  0  0  0  0  0  0  0  0  0
  -30.4240  -12.9510   19.4000 C   0  0  0  0  0  2  0  0  0  0  0  0
  -29.5130  -12.7520   18.1630 C   0  0  0  0  0  2  0  0  0  0  0  0
  -28.0650  -12.4710   18.5960 C   0  0  0  0  0  2  0  0  0  0  0  0
  -27.6130  -13.4180   19.7340 C   0  0  0  0  0  3  0  0  0  0  0  0
  -28.6590  -13.6000   20.8560 C   0  0  0  0  0  2  0  0  0  0  0  0
  -29.8870  -14.1050   20.2190 N   0  0  0  0  0  0  0  0  0  0  0  0
  -31.6550  -15.3970   19.9090 O   0  0  0  0  0  0  0  0  0  0  0  0
  -29.7170  -16.7110   20.3570 N   0  0  0  0  0  0  0  0  0  0  0  0
  -28.7900  -16.5430   20.7210 H   0  0  0  0  0  0  0  0  0  0  0  0
  -25.2520  -13.9510   20.5140 C   0  0  0  0  0  0  0  0  0  0  0  0
  -24.1970  -13.1650   20.8890 C   0  0  0  0  0  0  0  0  0  0  0  0
  -24.6680  -11.8170   20.8330 C   0  0  0  0  0  0  0  0  0  0  0  0
  -26.2930  -13.0840   20.2480 N   0  0  0  0  0  0  0  0  0  0  0  0
  -25.9570  -11.7920   20.5050 N   0  0  0  0  0  0  0  0  0  0  0  0
  -23.9430  -10.5510   21.0160 C   0  0  0  0  0  0  0  0  0  0  0  0
  -24.3800   -9.5800   21.9430 C   0  0  0  0  0  3  0  0  0  0  0  0
  -23.6550   -8.3810   22.1190 C   0  0  0  0  0  3  0  0  0  0  0  0
  -22.4780   -8.1460   21.3690 C   0  0  0  0  0  0  0  0  0  0  0  0
  -22.0600   -9.1070   20.4290 C   0  0  0  0  0  3  0  0  0  0  0  0
  -22.7860  -10.2970   20.2530 C   0  0  0  0  0  3  0  0  0  0  0  0
  -21.7260   -7.0010   21.4530 O   0  0  0  0  0  0  0  0  0  0  0  0
  -21.6700   -6.2560   22.6050 C   0  0  0  0  0  0  0  0  0  0  0  0
  -21.2120   -6.8030   23.8230 C   0  0  0  0  0  3  0  0  0  0  0  0
  -21.1080   -5.9840   24.9650 C   0  0  0  0  0  3  0  0  0  0  0  0
  -21.4500   -4.6200   24.8900 C   0  0  0  0  0  0  0  0  0  0  0  0
  -21.8980   -4.0730   23.6750 C   0  0  0  0  0  3  0  0  0  0  0  0
  -22.0050   -4.8900   22.5350 C   0  0  0  0  0  0  0  0  0  0  0  0
  -22.4200   -4.3530   21.3610 F   0  0  0  0  0  0  0  0  0  0  0  0
  -21.3390   -3.8320   25.9850 F   0  0  0  0  0  0  0  0  0  0  0  0
  -22.8050  -13.6360   21.1850 C   0  0  0  0  0  0  0  0  0  0  0  0
  -22.0910  -12.9240   22.0500 N   0  0  0  0  0  0  0  0  0  0  0  0
  -22.3630  -14.6680   20.6850 O   0  0  0  0  0  0  0  0  0  0  0  0
  -22.4670  -12.0900   22.4780 H   0  0  0  0  0  0  0  0  0  0  0  0
  -21.1540  -13.2200   22.2900 H   0  0  0  0  0  0  0  0  0  0  0  0
  -25.4070  -15.3240   20.3490 N   0  0  0  0  0  0  0  0  0  0  0  0
  -24.6260  -15.9650   20.4330 H   0  0  0  0  0  0  0  0  0  0  0  0
  -26.2330  -15.7630   19.9640 H   0  0  0  0  0  0  0  0  0  0  0  0
  -31.3640  -18.3880   19.4490 C   0  0  0  0  0  2  0  0  0  0  0  0
  -31.5480  -19.9970   17.5250 C   0  0  0  0  0  1  0  0  0  0  0  0
  -31.9170  -19.6540   18.9130 N   0  0  0  0  0  4  0  0  0  0  0  0
  -31.7200  -20.4200   19.5370 H   0  0  0  0  0  0  0  0  0  0  0  0
  -32.9190  -19.5410   18.9130 H   0  0  0  0  0  0  0  0  0  0  0  0
  -29.0190  -22.8330   20.4170 C   0  0  0  0  0  3  0  0  0  0  0  0
  -30.5300  -23.1430   20.1740 C   0  0  0  0  0  2  0  0  0  0  0  0
  -30.5170  -25.3150   21.6200 C   0  0  0  0  0  1  0  0  0  0  0  0
  -31.3530  -25.3770   19.1690 C   0  0  0  0  0  1  0  0  0  0  0  0
  -31.1420  -24.5400   20.4450 C   0  0  0  0  0  3  0  0  0  0  0  0
  -28.0280  -24.2810   19.8890 C   0  0  0  0  0  2  0  0  0  0  0  0
  -28.1210  -25.9290   20.1140 O   0  0  0  0  0  0  0  0  0  0  0  0
  -24.5490  -31.8780   23.0830 C   0  0  0  0  0  0  0  0  0  0  0  0
  -27.0860  -27.0090   20.0260 C   0  0  0  0  0  0  0  0  0  0  0  0
  -23.3310  -30.4800   21.4630 C   0  0  0  0  0  3  0  0  0  0  0  0
  -24.7670  -28.8830   20.0060 C   0  0  0  0  0  0  0  0  0  0  0  0
  -25.8940  -30.7020   21.2720 C   0  0  0  0  0  2  0  0  0  0  0  0
  -25.9610  -29.2930   20.6120 C   0  0  0  0  0  0  0  0  0  0  0  0
  -27.1100  -28.3790   20.5960 C   0  0  0  0  0  3  0  0  0  0  0  0
  -25.8650  -26.7540   19.3610 C   0  0  0  0  0  3  0  0  0  0  0  0
  -24.7470  -27.6360   19.3570 C   0  0  0  0  0  3  0  0  0  0  0  0
  -23.5400  -29.7970   20.0820 C   0  0  0  0  0  2  0  0  0  0  0  0
  -24.6140  -31.0470   21.9930 N   0  0  0  0  0  0  0  0  0  0  0  0
  -23.4660  -32.1650   23.6210 O   0  0  0  0  0  0  0  0  0  0  0  0
  -22.6570  -29.4810   22.4410 C   0  0  0  0  0  0  0  0  0  0  0  0
  -21.3240  -29.3170   22.3450 N   0  0  0  0  0  0  0  0  0  0  0  0
  -23.3380  -28.8560   23.2570 O   0  0  0  0  0  0  0  0  0  0  0  0
  -20.8240  -29.8730   21.6660 H   0  0  0  0  0  0  0  0  0  0  0  0
  -17.9550  -28.1020   22.9290 C   0  0  0  0  0  0  0  0  0  0  0  0
  -20.5210  -28.3760   23.1340 C   0  0  0  0  0  3  0  0  0  0  0  0
  -20.6110  -26.9440   22.5560 C   0  0  0  0  0  2  0  0  0  0  0  0
  -19.4860  -26.6200   21.5670 C   0  0  0  0  0  2  0  0  0  0  0  0
  -18.1190  -26.7570   22.2420 C   0  0  0  0  0  2  0  0  0  0  0  0
  -19.0810  -28.8680   23.3350 C   0  0  0  0  0  0  0  0  0  0  0  0
  -18.8680  -30.1240   23.9440 C   0  0  0  0  0  3  0  0  0  0  0  0
  -17.5650  -30.6150   24.1510 C   0  0  0  0  0  3  0  0  0  0  0  0
  -16.4550  -29.8470   23.7570 C   0  0  0  0  0  3  0  0  0  0  0  0
  -16.6510  -28.5930   23.1520 C   0  0  0  0  0  3  0  0  0  0  0  0
  -25.8260  -32.5260   23.6950 C   0  0  0  0  0  3  0  0  0  0  0  0
  -25.4990  -33.9160   24.0570 N   0  0  0  0  0  0  0  0  0  0  0  0
  -25.8440  -34.9990   23.3470 C   0  0  0  0  0  0  0  0  0  0  0  0
  -26.5350  -34.9330   22.3280 O   0  0  0  0  0  0  0  0  0  0  0  0
  -24.8880  -34.0400   24.8510 H   0  0  0  0  0  0  0  0  0  0  0  0
  -24.1430  -36.8270   23.0120 C   0  0  0  0  0  1  0  0  0  0  0  0
  -25.3500  -36.3720   23.8490 C   0  0  0  0  0  3  0  0  0  0  0  0
  -27.4520  -37.2150   24.7980 C   0  0  0  0  0  1  0  0  0  0  0  0
  -26.3910  -37.4240   23.8160 N   0  0  0  0  0  0  0  0  0  0  0  0
  -25.9820  -38.3400   23.9790 H   0  0  0  0  0  0  0  0  0  0  0  0
  -26.3730  -31.7480   24.9570 C   0  0  1  0  0  0  0  0  0  0  0  0
  -25.3050  -31.4980   26.0480 C   0  0  0  0  0  1  0  0  0  0  0  0
  -26.9540  -30.3740   24.5520 C   0  0  0  0  0  1  0  0  0  0  0  0
  -27.5290  -32.5470   25.6030 C   0  0  0  0  0  1  0  0  0  0  0  0
  1  3  2  0
  2 49  1  0
  2  1  1  0
  4  2  1  0
  5 44  1  0
  5 14  1  0
  5  1  1  0
  6 14  1  0
  7 12  1  0
  8  9  1  0
  8  7  1  0
 10  9  1  0
 10 19  1  0
 10 11  1  0
 12  6  1  0
 12 11  1  0
 13  6  2  0
 14 15  1  0
 16 17  2  0
 17 36  1  0
 18 17  1  0
 18 21  1  0
 19 20  1  0
 19 16  1  0
 20 18  2  0
 21 22  1  0
 22 23  2  0
 24 27  1  0
 24 23  1  0
 25 24  2  0
 26 25  1  0
 26 21  2  0
 27 28  1  0
 28 29  1  0
 29 30  2  0
 31 30  1  0
 31 35  1  0
 32 31  2  0
 33 28  2  0
 33 32  1  0
 34 33  1  0
 36 37  1  0
 37 40  1  0
 37 39  1  0
 38 36  2  0
 41 42  1  0
 41 16  1  0
 43 41  1  0
 45 46  1  0
 46 48  1  0
 46 44  1  0
 46 47  1  0
 49 54  1  0
 50 49  1  0
 50 53  1  0
 52 53  1  0
 53 51  1  0
 54 55  1  0
 56 67  2  0
 57 55  1  0
 57 62  1  0
 58 66  1  0
 58 68  1  0
 59 65  1  0
 59 61  1  0
 60 66  1  0
 61 60  1  0
 62 61  2  0
 63 57  2  0
 64 63  1  0
 64 59  2  0
 65 58  1  0
 66 56  1  0
 68 70  2  0
 69 68  1  0
 71 69  1  0
 72 81  2  0
 72 77  1  0
 73 69  1  0
 73 77  1  0
 74 73  1  0
 75 76  1  0
 75 74  1  0
 76 72  1  0
 77 78  2  0
 78 79  1  0
 80 79  2  0
 81 80  1  0
 82 56  1  0
 82 83  1  0
 82 92  1  0
 83 86  1  0
 84 88  1  0
 84 83  1  0
 85 84  2  0
 88 87  1  0
 90 88  1  0
 90 91  1  0
 90 89  1  0
 92 95  1  1
 92 93  1  0
 94 92  1  0
M  ISO  4   6 100  14 100  54 101  55 101
M  END
>  <TORSDO>  (84) 
F 23

>  <SCORE>  (84) 
-15.138

>  <name>  (84) 
86

>  <ligand_id>  (84) 
86

>  <original_smiles>  (84) 
[H]c1c([H])c([H])c2c(c1[H])C([H])([H])C([H])([H])C([H])([H])C2([H])N([H])C(=O)C1([H])N(C(=O)C([H])(N([H])C(=O)C([H])(N([H])C([H])([H])[H])C([H])([H])[H])C(C([H])([H])[H])(C([H])([H])[H])C([H])([H])[H])C([H])([H])c2c([H])c(OC([H])([H])C([H])(N([H])C(=O)C([H])(N([H])C(=O)N3C([H])([H])C([H])([H])C([H])([H])C([H])(n4nc(-c5c([H])c([H])c(Oc6c([H])c([H])c(F)c([H])c6F)c([H])c5[H])c(C(=O)N([H])[H])c4N([H])[H])C3([H])[H])C([H])([H])[N+]([H])([H])C([H])([H])[H])C([H])([H])C([H])(C([H])([H])[H])C([H])([H])[H])c([H])c([H])c2C1([H])[H]

>  <smiles>  (84) 
[H]c1c([H])c([H])c2c(c1[H])C([H])([H])C([H])([H])C([H])([H])C2([H])N([H])C(=O)C1([H])N(C(=O)C([H])(N([H])C(=O)C([H])(N([H])C([H])([H])[H])C([H])([H])[H])C(C([H])([H])[H])(C([H])([H])[H])C([H])([H])[H])C([H])([H])c2c([H])c(OC([H])([H])C([H])(N([H])C(=O)C([H])(N([H])C(=O)N3C([H])([H])C([H])([H])C([H])([H])C([H])(n4nc(-c5c([H])c([H])c(Oc6c([H])c([H])c(F)c([H])c6F)c([H])c5[H])c(C(=O)N([H])[H])c4N([H])[H])C3([H])[H])C([H])([H])[N+]([H])([H])C([H])([H])[H])C([H])([H])C([H])(C([H])([H])[H])C([H])([H])[H])c([H])c([H])c2C1([H])[H]

$$$$
87:0:0
     RDKit          3D

 90 99  0  0  1  0  0  0  0  0999 V2000
  -28.8940  -22.9230   20.3560 C   0  0  0  0  0  0  0  0  0  0  0  0
  -29.4390  -22.9980   21.4940 N   0  0  0  0  0  0  0  0  0  0  0  0
  -29.8840  -22.1210   21.7410 H   0  0  0  0  0  0  0  0  0  0  0  0
  -30.5100  -15.3510   20.0380 C   0  0  0  0  0  0  0  0  0  0  0  0
  -30.4470  -12.9350   19.0920 C   0  0  0  0  0  2  0  0  0  0  0  0
  -29.4660  -12.7600   17.9040 C   0  0  0  0  0  2  0  0  0  0  0  0
  -28.0340  -12.4810   18.4010 C   0  0  0  0  0  2  0  0  0  0  0  0
  -27.6420  -13.3950   19.5900 C   0  0  0  0  0  3  0  0  0  0  0  0
  -28.7590  -13.4430   20.6570 C   0  0  0  0  0  2  0  0  0  0  0  0
  -29.9340  -14.0420   19.9830 N   0  0  0  0  0  0  0  0  0  0  0  0
  -31.7110  -15.3390   19.7230 O   0  0  0  0  0  0  0  0  0  0  0  0
  -27.8600  -21.1860   18.6370 C   0  0  0  0  0  2  0  0  0  0  0  0
  -26.9690  -20.1290   19.2940 C   0  0  0  0  0  2  0  0  0  0  0  0
  -27.4560  -17.7400   20.2790 C   0  0  0  0  0  2  0  0  0  0  0  0
  -28.5450  -16.8290   20.9330 C   0  0  0  0  0  2  0  0  0  0  0  0
  -30.2290  -18.2310   19.9100 C   0  0  0  0  0  2  0  0  0  0  0  0
  -29.0790  -21.3420   19.5690 C   0  0  0  0  0  3  0  0  0  0  0  0
  -27.9600  -19.0090   19.5660 C   0  0  0  0  0  3  0  0  0  0  0  0
  -29.2020  -19.6490   20.1840 C   0  0  0  0  0  3  0  0  0  0  0  0
  -29.7980  -16.6620   20.1690 N   0  0  0  0  0  0  0  0  0  0  0  0
  -25.2910  -13.9250   20.4340 C   0  0  0  0  0  0  0  0  0  0  0  0
  -24.2480  -13.1420   20.8270 C   0  0  0  0  0  0  0  0  0  0  0  0
  -24.7190  -11.7980   20.7530 C   0  0  0  0  0  0  0  0  0  0  0  0
  -26.3330  -13.0640   20.1400 N   0  0  0  0  0  0  0  0  0  0  0  0
  -25.9990  -11.7720   20.3930 N   0  0  0  0  0  0  0  0  0  0  0  0
  -24.0040  -10.5330   20.9480 C   0  0  0  0  0  0  0  0  0  0  0  0
  -24.4430   -9.5760   21.8870 C   0  0  0  0  0  3  0  0  0  0  0  0
  -23.7250   -8.3750   22.0700 C   0  0  0  0  0  3  0  0  0  0  0  0
  -22.5530   -8.1280   21.3170 C   0  0  0  0  0  0  0  0  0  0  0  0
  -22.1340   -9.0740   20.3670 C   0  0  0  0  0  3  0  0  0  0  0  0
  -22.8520  -10.2660   20.1800 C   0  0  0  0  0  3  0  0  0  0  0  0
  -21.8050   -6.9790   21.4130 O   0  0  0  0  0  0  0  0  0  0  0  0
  -21.7110   -6.2770   22.5880 C   0  0  0  0  0  0  0  0  0  0  0  0
  -21.1810   -6.8560   23.7610 C   0  0  0  0  0  3  0  0  0  0  0  0
  -21.0360   -6.0780   24.9270 C   0  0  0  0  0  3  0  0  0  0  0  0
  -21.4130   -4.7210   24.9200 C   0  0  0  0  0  0  0  0  0  0  0  0
  -21.9380   -4.1420   23.7510 C   0  0  0  0  0  3  0  0  0  0  0  0
  -22.0830   -4.9180   22.5880 C   0  0  0  0  0  0  0  0  0  0  0  0
  -22.5690   -4.3500   21.4580 F   0  0  0  0  0  0  0  0  0  0  0  0
  -21.2670   -3.9710   26.0370 F   0  0  0  0  0  0  0  0  0  0  0  0
  -22.8610  -13.6130   21.1600 C   0  0  0  0  0  0  0  0  0  0  0  0
  -22.1810  -12.9150   22.0610 N   0  0  0  0  0  0  0  0  0  0  0  0
  -22.3950  -14.6330   20.6540 O   0  0  0  0  0  0  0  0  0  0  0  0
  -22.5760  -12.0920   22.4890 H   0  0  0  0  0  0  0  0  0  0  0  0
  -21.2510  -13.2070   22.3290 H   0  0  0  0  0  0  0  0  0  0  0  0
  -25.4270  -15.2940   20.2810 N   0  0  0  0  0  0  0  0  0  0  0  0
  -24.6670  -15.9410   20.4550 H   0  0  0  0  0  0  0  0  0  0  0  0
  -26.2820  -15.7510   19.9940 H   0  0  0  0  0  0  0  0  0  0  0  0
  -28.0600  -24.3960   19.8260 C   0  0  0  0  0  2  0  0  0  0  0  0
  -28.2380  -25.9690   20.2630 O   0  0  0  0  0  0  0  0  0  0  0  0
  -24.6310  -31.8890   23.2370 C   0  0  0  0  0  0  0  0  0  0  0  0
  -27.2190  -27.0530   20.1840 C   0  0  0  0  0  0  0  0  0  0  0  0
  -23.4460  -30.4940   21.5930 C   0  0  0  0  0  3  0  0  0  0  0  0
  -24.9030  -28.9080   20.1590 C   0  0  0  0  0  0  0  0  0  0  0  0
  -26.0100  -30.7200   21.4490 C   0  0  0  0  0  2  0  0  0  0  0  0
  -26.0880  -29.3170   20.7830 C   0  0  0  0  0  0  0  0  0  0  0  0
  -27.2390  -28.4090   20.7750 C   0  0  0  0  0  3  0  0  0  0  0  0
  -26.0040  -26.7940   19.5090 C   0  0  0  0  0  3  0  0  0  0  0  0
  -24.8840  -27.6660   19.5030 C   0  0  0  0  0  3  0  0  0  0  0  0
  -23.6790  -29.8210   20.2120 C   0  0  0  0  0  2  0  0  0  0  0  0
  -24.7180  -31.0600   22.1470 N   0  0  0  0  0  0  0  0  0  0  0  0
  -23.5400  -32.1750   23.7550 O   0  0  0  0  0  0  0  0  0  0  0  0
  -22.7560  -29.4910   22.5530 C   0  0  0  0  0  0  0  0  0  0  0  0
  -21.4290  -29.3110   22.4180 N   0  0  0  0  0  0  0  0  0  0  0  0
  -23.4230  -28.8730   23.3870 O   0  0  0  0  0  0  0  0  0  0  0  0
  -20.9410  -29.8670   21.7290 H   0  0  0  0  0  0  0  0  0  0  0  0
  -18.0570  -28.0580   22.8960 C   0  0  0  0  0  0  0  0  0  0  0  0
  -20.6100  -28.3630   23.1830 C   0  0  0  0  0  3  0  0  0  0  0  0
  -20.7380  -26.9310   22.6150 C   0  0  0  0  0  2  0  0  0  0  0  0
  -19.6520  -26.5880   21.5900 C   0  0  0  0  0  2  0  0  0  0  0  0
  -18.2610  -26.7120   22.2190 C   0  0  0  0  0  2  0  0  0  0  0  0
  -19.1600  -28.8410   23.3330 C   0  0  0  0  0  0  0  0  0  0  0  0
  -18.9120  -30.0980   23.9250 C   0  0  0  0  0  3  0  0  0  0  0  0
  -17.5970  -30.5750   24.0830 C   0  0  0  0  0  3  0  0  0  0  0  0
  -16.5090  -29.7900   23.6590 C   0  0  0  0  0  3  0  0  0  0  0  0
  -16.7400  -28.5330   23.0720 C   0  0  0  0  0  3  0  0  0  0  0  0
  -25.9000  -32.5340   23.8730 C   0  0  0  0  0  3  0  0  0  0  0  0
  -25.5910  -33.9450   24.1710 N   0  0  0  0  0  0  0  0  0  0  0  0
  -25.9160  -34.9840   23.3910 C   0  0  0  0  0  0  0  0  0  0  0  0
  -26.5710  -34.8560   22.3530 O   0  0  0  0  0  0  0  0  0  0  0  0
  -25.0050  -34.1170   24.9740 H   0  0  0  0  0  0  0  0  0  0  0  0
  -24.1840  -36.7760   23.0390 C   0  0  0  0  0  1  0  0  0  0  0  0
  -25.4450  -36.3860   23.8280 C   0  0  0  0  0  3  0  0  0  0  0  0
  -27.5940  -37.2960   24.5920 C   0  0  0  0  0  1  0  0  0  0  0  0
  -26.4770  -37.4330   23.6630 N   0  0  0  0  0  0  0  0  0  0  0  0
  -26.0740  -38.3600   23.7840 H   0  0  0  0  0  0  0  0  0  0  0  0
  -26.3790  -31.7940   25.1830 C   0  0  1  0  0  0  0  0  0  0  0  0
  -25.2570  -31.5930   26.2300 C   0  0  0  0  0  1  0  0  0  0  0  0
  -26.9610  -30.4020   24.8500 C   0  0  0  0  0  1  0  0  0  0  0  0
  -27.5210  -32.5970   25.8470 C   0  0  0  0  0  1  0  0  0  0  0  0
  1  2  2  0
  2  3  1  0
  4 20  1  0
  5 10  1  0
  6  7  1  0
  6  5  1  0
  8  7  1  0
  8 24  1  0
  8  9  1  0
 10  4  1  0
 10  9  1  0
 11  4  2  0
 12 13  1  0
 12 17  1  0
 14 15  1  0
 16 20  1  0
 17 19  1  0
 17  1  1  0
 18 13  1  0
 18 19  1  0
 18 14  1  0
 19 16  1  0
 20 15  1  0
 21 22  2  0
 22 41  1  0
 23 22  1  0
 23 26  1  0
 24 25  1  0
 24 21  1  0
 25 23  2  0
 26 27  1  0
 27 28  2  0
 29 32  1  0
 29 28  1  0
 30 29  2  0
 31 30  1  0
 31 26  2  0
 32 33  1  0
 33 38  2  0
 33 34  1  0
 34 35  2  0
 36 35  1  0
 36 40  1  0
 37 36  2  0
 38 37  1  0
 39 38  1  0
 41 42  1  0
 42 45  1  0
 42 44  1  0
 43 41  2  0
 46 21  1  0
 46 47  1  0
 48 46  1  0
 49 50  1  0
 49  1  1  0
 51 62  2  0
 52 50  1  0
 52 57  1  0
 53 61  1  0
 53 63  1  0
 54 60  1  0
 54 56  1  0
 55 61  1  0
 56 55  1  0
 57 56  2  0
 58 52  2  0
 59 58  1  0
 59 54  2  0
 60 53  1  0
 61 51  1  0
 63 65  2  0
 64 63  1  0
 66 64  1  0
 67 76  2  0
 67 72  1  0
 68 64  1  0
 68 72  1  0
 69 68  1  0
 70 71  1  0
 70 69  1  0
 71 67  1  0
 72 73  2  0
 73 74  1  0
 75 74  2  0
 76 75  1  0
 77 51  1  0
 77 78  1  0
 77 87  1  0
 78 81  1  0
 79 83  1  0
 79 78  1  0
 80 79  2  0
 83 82  1  0
 85 86  1  0
 85 83  1  0
 85 84  1  0
 87 90  1  1
 87 88  1  0
 89 87  1  0
M  ISO  4   4 100  20 100  49 101  50 101
M  END
>  <TORSDO>  (85) 
F 17

>  <SCORE>  (85) 
-16.040

>  <name>  (85) 
87

>  <ligand_id>  (85) 
87

>  <original_smiles>  (85) 
[H]N=C(C([H])([H])Oc1c([H])c([H])c2c(c1[H])C([H])([H])N(C(=O)C([H])(N([H])C(=O)C([H])(N([H])C([H])([H])[H])C([H])([H])[H])C(C([H])([H])[H])(C([H])([H])[H])C([H])([H])[H])C([H])(C(=O)N([H])C1([H])c3c([H])c([H])c([H])c([H])c3C([H])([H])C([H])([H])C1([H])[H])C2([H])[H])C1([H])C([H])([H])C([H])([H])C2([H])C([H])([H])C([H])([H])N(C(=O)N3C([H])([H])C([H])([H])C([H])([H])C([H])(n4nc(-c5c([H])c([H])c(Oc6c([H])c([H])c(F)c([H])c6F)c([H])c5[H])c(C(=O)N([H])[H])c4N([H])[H])C3([H])[H])C([H])([H])C12[H]

>  <smiles>  (85) 
[H]N=C(C([H])([H])Oc1c([H])c([H])c2c(c1[H])C([H])([H])N(C(=O)C([H])(N([H])C(=O)C([H])(N([H])C([H])([H])[H])C([H])([H])[H])C(C([H])([H])[H])(C([H])([H])[H])C([H])([H])[H])C([H])(C(=O)N([H])C1([H])c3c([H])c([H])c([H])c([H])c3C([H])([H])C([H])([H])C1([H])[H])C2([H])[H])C1([H])C([H])([H])C([H])([H])C2([H])C([H])([H])C([H])([H])N(C(=O)N3C([H])([H])C([H])([H])C([H])([H])C([H])(n4nc(-c5c([H])c([H])c(Oc6c([H])c([H])c(F)c([H])c6F)c([H])c5[H])c(C(=O)N([H])[H])c4N([H])[H])C3([H])[H])C([H])([H])C12[H]

$$$$
88:0:0
     RDKit          3D

 93101  0  0  1  0  0  0  0  0999 V2000
  -28.9480  -21.6160   20.6440 C   0  0  0  0  0  2  0  0  0  0  0  0
  -30.5500  -15.1870   19.8900 C   0  0  0  0  0  0  0  0  0  0  0  0
  -30.3580  -12.8190   18.9380 C   0  0  0  0  0  2  0  0  0  0  0  0
  -29.3530  -12.6900   17.7720 C   0  0  0  0  0  2  0  0  0  0  0  0
  -27.9440  -12.4210   18.3240 C   0  0  0  0  0  2  0  0  0  0  0  0
  -27.5780  -13.3710   19.4910 C   0  0  0  0  0  3  0  0  0  0  0  0
  -28.7030  -13.4720   20.5410 C   0  0  0  0  0  2  0  0  0  0  0  0
  -29.8950  -13.9420   19.8230 N   0  0  0  0  0  0  0  0  0  0  0  0
  -31.7490  -15.1190   19.5820 O   0  0  0  0  0  0  0  0  0  0  0  0
  -28.9900  -18.7550   21.2210 C   0  0  0  0  0  2  0  0  0  0  0  0
  -28.8990  -17.1570   20.8130 C   0  0  0  0  0  2  0  0  0  0  0  0
  -30.6270  -17.7380   19.3010 C   0  0  0  0  0  2  0  0  0  0  0  0
  -28.9480  -19.9360   20.1300 C   0  0  0  0  0  3  0  0  0  0  0  0
  -29.9760  -19.2630   19.0820 C   0  0  0  0  0  3  0  0  0  0  0  0
  -29.9230  -16.5160   19.8950 N   0  0  0  0  0  0  0  0  0  0  0  0
  -25.2690  -13.9080   20.4370 C   0  0  0  0  0  0  0  0  0  0  0  0
  -24.2350  -13.1140   20.8560 C   0  0  0  0  0  0  0  0  0  0  0  0
  -24.7000  -11.7690   20.7450 C   0  0  0  0  0  0  0  0  0  0  0  0
  -26.2880  -13.0410   20.0890 N   0  0  0  0  0  0  0  0  0  0  0  0
  -25.9660  -11.7450   20.3430 N   0  0  0  0  0  0  0  0  0  0  0  0
  -23.9900  -10.4940   20.9400 C   0  0  0  0  0  0  0  0  0  0  0  0
  -24.4420   -9.5280   21.8660 C   0  0  0  0  0  3  0  0  0  0  0  0
  -23.7260   -8.3250   22.0500 C   0  0  0  0  0  3  0  0  0  0  0  0
  -22.5470   -8.0790   21.3080 C   0  0  0  0  0  0  0  0  0  0  0  0
  -22.1150   -9.0360   20.3720 C   0  0  0  0  0  3  0  0  0  0  0  0
  -22.8320  -10.2290   20.1840 C   0  0  0  0  0  3  0  0  0  0  0  0
  -21.8060   -6.9270   21.4010 O   0  0  0  0  0  0  0  0  0  0  0  0
  -21.7220   -6.2170   22.5720 C   0  0  0  0  0  0  0  0  0  0  0  0
  -21.2230   -6.7960   23.7580 C   0  0  0  0  0  3  0  0  0  0  0  0
  -21.0860   -6.0120   24.9200 C   0  0  0  0  0  3  0  0  0  0  0  0
  -21.4430   -4.6500   24.9000 C   0  0  0  0  0  0  0  0  0  0  0  0
  -21.9350   -4.0710   23.7170 C   0  0  0  0  0  3  0  0  0  0  0  0
  -22.0730   -4.8520   22.5560 C   0  0  0  0  0  0  0  0  0  0  0  0
  -22.5290   -4.2830   21.4140 F   0  0  0  0  0  0  0  0  0  0  0  0
  -21.3040   -3.8950   26.0140 F   0  0  0  0  0  0  0  0  0  0  0  0
  -22.8610  -13.5780   21.2330 C   0  0  0  0  0  0  0  0  0  0  0  0
  -22.1920  -12.8530   22.1230 N   0  0  0  0  0  0  0  0  0  0  0  0
  -22.3900  -14.6170   20.7750 O   0  0  0  0  0  0  0  0  0  0  0  0
  -22.5860  -12.0120   22.5180 H   0  0  0  0  0  0  0  0  0  0  0  0
  -21.2720  -13.1500   22.4160 H   0  0  0  0  0  0  0  0  0  0  0  0
  -25.4150  -15.2830   20.2920 N   0  0  0  0  0  0  0  0  0  0  0  0
  -24.6500  -15.9250   20.4670 H   0  0  0  0  0  0  0  0  0  0  0  0
  -26.2250  -15.7340   19.8860 H   0  0  0  0  0  0  0  0  0  0  0  0
  -32.4090  -20.1490   19.4330 C   0  0  0  0  0  1  0  0  0  0  0  0
  -31.0850  -20.2880   18.6560 C   0  0  0  0  0  3  0  0  0  0  0  0
  -32.2510  -21.4870   16.6550 C   0  0  0  0  0  1  0  0  0  0  0  0
  -31.2360  -20.4180   17.1180 C   0  0  0  0  0  2  0  0  0  0  0  0
  -28.4300  -23.1160   19.9230 C   0  0  0  0  0  3  0  0  0  0  0  0
  -28.2250  -23.8840   17.4570 C   0  0  0  0  0  1  0  0  0  0  0  0
  -30.4560  -24.1070   18.6990 C   0  0  0  0  0  1  0  0  0  0  0  0
  -29.1370  -23.3200   18.5630 C   0  0  0  0  0  3  0  0  0  0  0  0
  -28.2430  -24.6390   20.7270 C   0  0  0  0  0  2  0  0  0  0  0  0
  -28.3510  -26.1590   20.2730 O   0  0  0  0  0  0  0  0  0  0  0  0
  -24.6290  -31.8950   23.2020 C   0  0  0  0  0  0  0  0  0  0  0  0
  -27.2830  -27.1410   20.2700 C   0  0  0  0  0  0  0  0  0  0  0  0
  -23.4730  -30.4760   21.5500 C   0  0  0  0  0  3  0  0  0  0  0  0
  -24.9610  -28.9000   20.1700 C   0  0  0  0  0  0  0  0  0  0  0  0
  -26.0310  -30.7550   21.4340 C   0  0  0  0  0  2  0  0  0  0  0  0
  -26.1260  -29.3540   20.7950 C   0  0  0  0  0  0  0  0  0  0  0  0
  -27.2940  -28.4950   20.8170 C   0  0  0  0  0  3  0  0  0  0  0  0
  -26.0910  -26.7880   19.6130 C   0  0  0  0  0  3  0  0  0  0  0  0
  -24.9580  -27.6330   19.5630 C   0  0  0  0  0  3  0  0  0  0  0  0
  -23.7310  -29.7920   20.1790 C   0  0  0  0  0  2  0  0  0  0  0  0
  -24.7310  -31.0660   22.1180 N   0  0  0  0  0  0  0  0  0  0  0  0
  -23.5290  -32.1790   23.7010 O   0  0  0  0  0  0  0  0  0  0  0  0
  -22.7910  -29.4700   22.5100 C   0  0  0  0  0  0  0  0  0  0  0  0
  -21.4620  -29.2960   22.3760 N   0  0  0  0  0  0  0  0  0  0  0  0
  -23.4550  -28.8480   23.3420 O   0  0  0  0  0  0  0  0  0  0  0  0
  -20.9820  -29.8480   21.6790 H   0  0  0  0  0  0  0  0  0  0  0  0
  -18.0790  -28.0910   22.8630 C   0  0  0  0  0  0  0  0  0  0  0  0
  -20.6370  -28.3530   23.1370 C   0  0  0  0  0  3  0  0  0  0  0  0
  -20.7420  -26.9230   22.5580 C   0  0  0  0  0  2  0  0  0  0  0  0
  -19.6430  -26.6060   21.5390 C   0  0  0  0  0  2  0  0  0  0  0  0
  -18.2590  -26.7470   22.1790 C   0  0  0  0  0  2  0  0  0  0  0  0
  -19.1960  -28.8520   23.3000 C   0  0  0  0  0  0  0  0  0  0  0  0
  -18.9720  -30.1070   23.9070 C   0  0  0  0  0  3  0  0  0  0  0  0
  -17.6670  -30.6070   24.0740 C   0  0  0  0  0  3  0  0  0  0  0  0
  -16.5650  -29.8420   23.6540 C   0  0  0  0  0  3  0  0  0  0  0  0
  -16.7710  -28.5860   23.0560 C   0  0  0  0  0  3  0  0  0  0  0  0
  -25.8870  -32.5510   23.8490 C   0  0  0  0  0  3  0  0  0  0  0  0
  -25.5510  -33.9470   24.1700 N   0  0  0  0  0  0  0  0  0  0  0  0
  -25.8790  -35.0060   23.4200 C   0  0  0  0  0  0  0  0  0  0  0  0
  -26.5660  -34.9110   22.4000 O   0  0  0  0  0  0  0  0  0  0  0  0
  -24.9420  -34.0930   24.9600 H   0  0  0  0  0  0  0  0  0  0  0  0
  -24.1390  -36.7840   23.0460 C   0  0  0  0  0  1  0  0  0  0  0  0
  -25.3730  -36.3890   23.8710 C   0  0  0  0  0  3  0  0  0  0  0  0
  -27.4820  -37.3030   24.7370 C   0  0  0  0  0  1  0  0  0  0  0  0
  -26.3970  -37.4530   23.7720 N   0  0  0  0  0  0  0  0  0  0  0  0
  -25.9770  -38.3680   23.9070 H   0  0  0  0  0  0  0  0  0  0  0  0
  -26.3810  -31.7980   25.1470 C   0  0  1  0  0  0  0  0  0  0  0  0
  -25.2650  -31.5570   26.1920 C   0  0  0  0  0  1  0  0  0  0  0  0
  -26.9950  -30.4260   24.7910 C   0  0  0  0  0  1  0  0  0  0  0  0
  -27.5090  -32.6140   25.8290 C   0  0  0  0  0  1  0  0  0  0  0  0
  2 15  1  0
  3  8  1  0
  4  5  1  0
  4  3  1  0
  6  5  1  0
  6 19  1  0
  6  7  1  0
  8  2  1  0
  8  7  1  0
  9  2  2  0
 11 10  1  0
 12 15  1  0
 13  1  1  0
 13 10  1  0
 14 45  1  0
 14 12  1  0
 14 13  1  0
 15 11  1  0
 16 17  2  0
 17 36  1  0
 18 17  1  0
 18 21  1  0
 19 20  1  0
 19 16  1  0
 20 18  2  0
 21 22  1  0
 22 23  2  0
 24 27  1  0
 24 23  1  0
 25 24  2  0
 26 25  1  0
 26 21  2  0
 27 28  1  0
 28 29  1  0
 29 30  2  0
 31 30  1  0
 31 35  1  0
 32 31  2  0
 33 28  2  0
 33 32  1  0
 34 33  1  0
 36 37  1  0
 37 40  1  0
 37 39  1  0
 38 36  2  0
 41 16  1  0
 41 42  1  0
 43 41  1  0
 45 44  1  0
 46 47  1  0
 47 45  1  0
 48  1  1  0
 48 52  1  0
 49 51  1  0
 51 50  1  0
 51 48  1  0
 53 52  1  0
 54 65  2  0
 55 53  1  0
 55 60  1  0
 56 64  1  0
 56 66  1  0
 57 63  1  0
 57 59  1  0
 58 64  1  0
 59 60  2  0
 59 58  1  0
 61 55  2  0
 62 61  1  0
 62 57  2  0
 63 56  1  0
 64 54  1  0
 66 68  2  0
 67 66  1  0
 69 67  1  0
 70 79  2  0
 70 75  1  0
 71 67  1  0
 71 75  1  0
 72 71  1  0
 73 74  1  0
 73 72  1  0
 74 70  1  0
 75 76  2  0
 76 77  1  0
 78 77  2  0
 79 78  1  0
 80 54  1  0
 80 81  1  0
 80 90  1  0
 81 84  1  0
 82 86  1  0
 82 81  1  0
 83 82  2  0
 86 85  1  0
 88 86  1  0
 88 89  1  0
 88 87  1  0
 90 93  1  1
 90 91  1  0
 92 90  1  0
M  ISO  4   2 100  15 100  52 101  53 101
M  END
>  <TORSDO>  (86) 
F 21

>  <SCORE>  (86) 
-14.633

>  <name>  (86) 
88

>  <ligand_id>  (86) 
88

>  <original_smiles>  (86) 
[H]c1c([H])c([H])c2c(c1[H])C([H])([H])C([H])([H])C([H])([H])C2([H])N([H])C(=O)C1([H])N(C(=O)C([H])(N([H])C(=O)C([H])(N([H])C([H])([H])[H])C([H])([H])[H])C(C([H])([H])[H])(C([H])([H])[H])C([H])([H])[H])C([H])([H])c2c([H])c(OC([H])([H])C([H])(C([H])([H])C3([H])C([H])([H])C([H])([H])N(C(=O)N4C([H])([H])C([H])([H])C([H])([H])C([H])(n5nc(-c6c([H])c([H])c(Oc7c([H])c([H])c(F)c([H])c7F)c([H])c6[H])c(C(=O)N([H])[H])c5N([H])[H])C4([H])[H])C([H])([H])C3([H])C([H])(C([H])([H])[H])C([H])([H])C([H])([H])[H])C([H])(C([H])([H])[H])C([H])([H])[H])c([H])c([H])c2C1([H])[H]

>  <smiles>  (86) 
[H]c1c([H])c([H])c2c(c1[H])C([H])([H])C([H])([H])C([H])([H])C2([H])N([H])C(=O)C1([H])N(C(=O)C([H])(N([H])C(=O)C([H])(N([H])C([H])([H])[H])C([H])([H])[H])C(C([H])([H])[H])(C([H])([H])[H])C([H])([H])[H])C([H])([H])c2c([H])c(OC([H])([H])C([H])(C([H])([H])C3([H])C([H])([H])C([H])([H])N(C(=O)N4C([H])([H])C([H])([H])C([H])([H])C([H])(n5nc(-c6c([H])c([H])c(Oc7c([H])c([H])c(F)c([H])c7F)c([H])c6[H])c(C(=O)N([H])[H])c5N([H])[H])C4([H])[H])C([H])([H])C3([H])C([H])(C([H])([H])[H])C([H])([H])C([H])([H])[H])C([H])(C([H])([H])[H])C([H])([H])[H])c([H])c([H])c2C1([H])[H]

$$$$
89:0:0
     RDKit          3D

 91 98  0  0  1  0  0  0  0  0999 V2000
  -29.6250  -20.7340   20.2800 C   0  0  0  0  0  0  0  0  0  0  0  0
  -28.8080  -21.8800   20.5030 N   0  0  0  0  0  0  0  0  0  0  0  0
  -30.6960  -20.9370   19.7080 O   0  0  0  0  0  0  0  0  0  0  0  0
  -27.9260  -21.6860   20.9620 H   0  0  0  0  0  0  0  0  0  0  0  0
  -29.3660  -19.1580   20.7810 C   0  0  0  0  0  2  0  0  0  0  0  0
  -29.7620  -17.6950   19.9840 C   0  0  0  0  0  0  0  0  0  0  0  0
  -30.7060  -15.0820   20.6380 C   0  0  0  0  0  0  0  0  0  0  0  0
  -30.6950  -12.6960   19.7880 C   0  0  0  0  0  2  0  0  0  0  0  0
  -29.8460  -12.6020   18.4990 C   0  0  0  0  0  2  0  0  0  0  0  0
  -28.3580  -12.3890   18.8370 C   0  0  0  0  0  2  0  0  0  0  0  0
  -27.8640  -13.3390   19.9600 C   0  0  0  0  0  3  0  0  0  0  0  0
  -28.8420  -13.3920   21.1530 C   0  0  0  0  0  2  0  0  0  0  0  0
  -30.1470  -13.8050   20.6210 N   0  0  0  0  0  0  0  0  0  0  0  0
  -31.9250  -15.1580   20.4500 O   0  0  0  0  0  0  0  0  0  0  0  0
  -29.8590  -16.2330   20.6430 N   0  0  0  0  0  4  0  0  0  0  0  0
  -28.9460  -15.9440   20.9590 H   0  0  0  0  0  0  0  0  0  0  0  0
  -25.4330  -13.9000   20.5330 C   0  0  0  0  0  0  0  0  0  0  0  0
  -24.3590  -13.1190   20.8560 C   0  0  0  0  0  0  0  0  0  0  0  0
  -24.8430  -11.7750   20.8900 C   0  0  0  0  0  0  0  0  0  0  0  0
  -26.5020  -13.0330   20.3810 N   0  0  0  0  0  0  0  0  0  0  0  0
  -26.1520  -11.7510   20.6630 N   0  0  0  0  0  0  0  0  0  0  0  0
  -24.1230  -10.5070   21.0670 C   0  0  0  0  0  0  0  0  0  0  0  0
  -24.5080   -9.5680   22.0500 C   0  0  0  0  0  3  0  0  0  0  0  0
  -23.7860   -8.3660   22.2140 C   0  0  0  0  0  3  0  0  0  0  0  0
  -22.6650   -8.0940   21.3940 C   0  0  0  0  0  0  0  0  0  0  0  0
  -22.2990   -9.0200   20.4020 C   0  0  0  0  0  3  0  0  0  0  0  0
  -23.0230  -10.2140   20.2360 C   0  0  0  0  0  3  0  0  0  0  0  0
  -21.9190   -6.9420   21.4640 O   0  0  0  0  0  0  0  0  0  0  0  0
  -21.8060   -6.2270   22.6300 C   0  0  0  0  0  0  0  0  0  0  0  0
  -21.2760   -6.8000   23.8060 C   0  0  0  0  0  3  0  0  0  0  0  0
  -21.1120   -6.0100   24.9610 C   0  0  0  0  0  3  0  0  0  0  0  0
  -21.4690   -4.6490   24.9410 C   0  0  0  0  0  0  0  0  0  0  0  0
  -21.9940   -4.0750   23.7690 C   0  0  0  0  0  3  0  0  0  0  0  0
  -22.1580   -4.8620   22.6160 C   0  0  0  0  0  0  0  0  0  0  0  0
  -22.6440   -4.3000   21.4830 F   0  0  0  0  0  0  0  0  0  0  0  0
  -21.3060   -3.8890   26.0490 F   0  0  0  0  0  0  0  0  0  0  0  0
  -22.9400  -13.5820   21.0230 C   0  0  0  0  0  0  0  0  0  0  0  0
  -22.1690  -12.9030   21.8650 N   0  0  0  0  0  0  0  0  0  0  0  0
  -22.5220  -14.5800   20.4400 O   0  0  0  0  0  0  0  0  0  0  0  0
  -22.5200  -12.0970   22.3610 H   0  0  0  0  0  0  0  0  0  0  0  0
  -21.2150  -13.1960   22.0190 H   0  0  0  0  0  0  0  0  0  0  0  0
  -25.5860  -15.2680   20.3270 N   0  0  0  0  0  0  0  0  0  0  0  0
  -24.7980  -15.9050   20.3620 H   0  0  0  0  0  0  0  0  0  0  0  0
  -26.4330  -15.7080   19.9910 H   0  0  0  0  0  0  0  0  0  0  0  0
  -31.2250  -16.6770   18.0250 C   0  0  0  0  0  1  0  0  0  0  0  0
  -30.5290  -17.9140   18.6280 C   0  0  0  0  0  3  0  0  0  0  0  0
  -30.2810  -19.2760   16.4300 C   0  0  0  0  0  1  0  0  0  0  0  0
  -29.5760  -18.4690   17.5320 C   0  0  0  0  0  2  0  0  0  0  0  0
  -29.1120  -23.4300   20.3100 C   0  0  0  0  0  3  0  0  0  0  0  0
  -27.9870  -24.6910   20.2690 C   0  0  0  0  0  3  0  0  0  0  0  0
  -28.2620  -26.2340   20.2840 O   0  0  0  0  0  0  0  0  0  0  0  0
  -24.6170  -31.9210   23.2770 C   0  0  0  0  0  0  0  0  0  0  0  0
  -27.2010  -27.2150   20.2360 C   0  0  0  0  0  0  0  0  0  0  0  0
  -23.4200  -30.5300   21.6320 C   0  0  0  0  0  3  0  0  0  0  0  0
  -24.8720  -28.9620   20.2050 C   0  0  0  0  0  0  0  0  0  0  0  0
  -25.9750  -30.7990   21.4700 C   0  0  0  0  0  2  0  0  0  0  0  0
  -26.0510  -29.4070   20.8150 C   0  0  0  0  0  0  0  0  0  0  0  0
  -27.2180  -28.5510   20.8110 C   0  0  0  0  0  3  0  0  0  0  0  0
  -25.9930  -26.8740   19.5880 C   0  0  0  0  0  3  0  0  0  0  0  0
  -24.8560  -27.7090   19.5760 C   0  0  0  0  0  3  0  0  0  0  0  0
  -23.6460  -29.8590   20.2510 C   0  0  0  0  0  2  0  0  0  0  0  0
  -24.6910  -31.1050   22.1810 N   0  0  0  0  0  0  0  0  0  0  0  0
  -23.5300  -32.2020   23.8050 O   0  0  0  0  0  0  0  0  0  0  0  0
  -22.7430  -29.5180   22.5890 C   0  0  0  0  0  0  0  0  0  0  0  0
  -21.4150  -29.3450   22.4620 N   0  0  0  0  0  0  0  0  0  0  0  0
  -23.4140  -28.8900   23.4130 O   0  0  0  0  0  0  0  0  0  0  0  0
  -20.9290  -29.9050   21.7740 H   0  0  0  0  0  0  0  0  0  0  0  0
  -18.0360  -28.1360   22.9540 C   0  0  0  0  0  0  0  0  0  0  0  0
  -20.5930  -28.4060   23.2290 C   0  0  0  0  0  3  0  0  0  0  0  0
  -20.7000  -26.9740   22.6530 C   0  0  0  0  0  2  0  0  0  0  0  0
  -19.6020  -26.6500   21.6350 C   0  0  0  0  0  2  0  0  0  0  0  0
  -18.2190  -26.7890   22.2760 C   0  0  0  0  0  2  0  0  0  0  0  0
  -19.1510  -28.9020   23.3880 C   0  0  0  0  0  0  0  0  0  0  0  0
  -18.9250  -30.1620   23.9840 C   0  0  0  0  0  3  0  0  0  0  0  0
  -17.6180  -30.6560   24.1500 C   0  0  0  0  0  3  0  0  0  0  0  0
  -16.5170  -29.8880   23.7310 C   0  0  0  0  0  3  0  0  0  0  0  0
  -16.7280  -28.6300   23.1400 C   0  0  0  0  0  3  0  0  0  0  0  0
  -25.8930  -32.5570   23.9080 C   0  0  0  0  0  3  0  0  0  0  0  0
  -25.5890  -33.9650   24.2140 N   0  0  0  0  0  0  0  0  0  0  0  0
  -25.9400  -35.0060   23.4490 C   0  0  0  0  0  0  0  0  0  0  0  0
  -26.6220  -34.8840   22.4280 O   0  0  0  0  0  0  0  0  0  0  0  0
  -24.9850  -34.1330   25.0060 H   0  0  0  0  0  0  0  0  0  0  0  0
  -24.2470  -36.8240   23.0430 C   0  0  0  0  0  1  0  0  0  0  0  0
  -25.4620  -36.4060   23.8860 C   0  0  0  0  0  3  0  0  0  0  0  0
  -27.5850  -37.2730   24.7670 C   0  0  0  0  0  1  0  0  0  0  0  0
  -26.5120  -37.4440   23.7910 N   0  0  0  0  0  0  0  0  0  0  0  0
  -26.1140  -38.3710   23.9160 H   0  0  0  0  0  0  0  0  0  0  0  0
  -26.3820  -31.8070   25.2080 C   0  0  1  0  0  0  0  0  0  0  0  0
  -25.2690  -31.6010   26.2630 C   0  0  0  0  0  1  0  0  0  0  0  0
  -26.9590  -30.4170   24.8570 C   0  0  0  0  0  1  0  0  0  0  0  0
  -27.5290  -32.6040   25.8720 C   0  0  0  0  0  1  0  0  0  0  0  0
  1  2  1  0
  1  5  1  0
  2  4  1  0
  3  1  2  0
  6 15  2  0
  6  5  1  0
  7 15  1  0
  8 13  1  0
  9 10  1  0
  9  8  1  0
 11 10  1  0
 11 20  1  0
 11 12  1  0
 13  7  1  0
 13 12  1  0
 14  7  2  0
 15 16  1  0
 17 18  2  0
 18 19  1  0
 18 37  1  0
 19 22  1  0
 20 17  1  0
 20 21  1  0
 21 19  2  0
 22 23  1  0
 23 24  2  0
 25 28  1  0
 25 24  1  0
 26 25  2  0
 27 26  1  0
 27 22  2  0
 28 29  1  0
 29 30  1  0
 30 31  2  0
 32 31  1  0
 32 36  1  0
 33 32  2  0
 34 29  2  0
 34 33  1  0
 35 34  1  0
 37 38  1  0
 38 41  1  0
 38 40  1  0
 39 37  2  0
 42 43  1  0
 42 17  1  0
 44 42  1  0
 46 45  1  0
 46  6  1  0
 47 48  1  0
 48 46  1  0
 49  2  1  0
 50 51  1  0
 50 49  2  0
 52 63  2  0
 53 51  1  0
 53 58  1  0
 54 62  1  0
 54 64  1  0
 55 61  1  0
 55 57  1  0
 56 62  1  0
 57 56  1  0
 58 57  2  0
 59 53  2  0
 60 59  1  0
 60 55  2  0
 61 54  1  0
 62 52  1  0
 64 66  2  0
 65 64  1  0
 67 65  1  0
 68 77  2  0
 68 73  1  0
 69 65  1  0
 69 73  1  0
 70 69  1  0
 71 72  1  0
 71 70  1  0
 72 68  1  0
 73 74  2  0
 74 75  1  0
 76 75  2  0
 77 76  1  0
 78 52  1  0
 78 79  1  0
 78 88  1  0
 79 82  1  0
 80 84  1  0
 80 79  1  0
 81 80  2  0
 84 83  1  0
 86 84  1  0
 86 87  1  0
 86 85  1  0
 88 91  1  1
 88 89  1  0
 90 88  1  0
M  ISO  4   7 100  15 100  50 101  51 101
M  END
>  <TORSDO>  (87) 
F 22

>  <SCORE>  (87) 
-13.262

>  <name>  (87) 
89

>  <ligand_id>  (87) 
89

>  <original_smiles>  (87) 
[H]c1c([H])c([H])c2c(c1[H])C([H])([H])C([H])([H])C([H])([H])C2([H])N([H])C(=O)C1([H])N(C(=O)C([H])(N([H])C(=O)C([H])(N([H])C([H])([H])[H])C([H])([H])[H])C(C([H])([H])[H])(C([H])([H])[H])C([H])([H])[H])C([H])([H])c2c([H])c(OC([H])([H])C([H])([H])N([H])C(=O)C([H])([H])C([H])(N([H])C(=O)N3C([H])([H])C([H])([H])C([H])([H])C([H])(n4nc(-c5c([H])c([H])c(Oc6c([H])c([H])c(F)c([H])c6F)c([H])c5[H])c(C(=O)N([H])[H])c4N([H])[H])C3([H])[H])C([H])(C([H])([H])[H])C([H])([H])C([H])([H])[H])c([H])c([H])c2C1([H])[H]

>  <smiles>  (87) 
[H]c1c([H])c([H])c2c(c1[H])C([H])([H])C([H])([H])C([H])([H])C2([H])N([H])C(=O)C1([H])N(C(=O)C([H])(N([H])C(=O)C([H])(N([H])C([H])([H])[H])C([H])([H])[H])C(C([H])([H])[H])(C([H])([H])[H])C([H])([H])[H])C([H])([H])c2c([H])c(OC([H])([H])C([H])([H])N([H])C(=O)C([H])([H])C([H])(N([H])C(=O)N3C([H])([H])C([H])([H])C([H])([H])C([H])(n4nc(-c5c([H])c([H])c(Oc6c([H])c([H])c(F)c([H])c6F)c([H])c5[H])c(C(=O)N([H])[H])c4N([H])[H])C3([H])[H])C([H])(C([H])([H])[H])C([H])([H])C([H])([H])[H])c([H])c([H])c2C1([H])[H]

$$$$
90:0:0
     RDKit          3D

 93100  0  0  1  0  0  0  0  0999 V2000
  -29.8240  -18.7010   20.4350 C   0  0  0  0  0  0  0  0  0  0  0  0
  -30.3200  -15.6060   20.0570 C   0  0  0  0  0  0  0  0  0  0  0  0
  -30.3530  -13.1040   19.1500 C   0  0  0  0  0  2  0  0  0  0  0  0
  -29.4130  -12.7510   17.9620 C   0  0  0  0  0  2  0  0  0  0  0  0
  -28.0060  -12.4000   18.4650 C   0  0  0  0  0  2  0  0  0  0  0  0
  -27.5450  -13.3810   19.5660 C   0  0  0  0  0  3  0  0  0  0  0  0
  -28.6180  -13.6430   20.6490 C   0  0  0  0  0  2  0  0  0  0  0  0
  -29.7710  -14.2630   19.9590 N   0  0  0  0  0  0  0  0  0  0  0  0
  -31.5450  -15.5490   19.8530 O   0  0  0  0  0  0  0  0  0  0  0  0
  -29.5820  -16.9580   20.2140 N   0  0  0  0  0  4  0  0  0  0  0  0
  -28.5920  -16.7650   20.2090 H   0  0  0  0  0  0  0  0  0  0  0  0
  -25.2010  -13.8990   20.3960 C   0  0  0  0  0  0  0  0  0  0  0  0
  -24.1620  -13.1100   20.7940 C   0  0  0  0  0  0  0  0  0  0  0  0
  -24.6420  -11.7640   20.7490 C   0  0  0  0  0  0  0  0  0  0  0  0
  -26.2450  -13.0360   20.1220 N   0  0  0  0  0  0  0  0  0  0  0  0
  -25.9260  -11.7450   20.4010 N   0  0  0  0  0  0  0  0  0  0  0  0
  -23.9310  -10.4950   20.9570 C   0  0  0  0  0  0  0  0  0  0  0  0
  -24.3890   -9.5370   21.8890 C   0  0  0  0  0  3  0  0  0  0  0  0
  -23.6730   -8.3370   22.0900 C   0  0  0  0  0  3  0  0  0  0  0  0
  -22.4880   -8.0830   21.3590 C   0  0  0  0  0  0  0  0  0  0  0  0
  -22.0480   -9.0310   20.4180 C   0  0  0  0  0  3  0  0  0  0  0  0
  -22.7630  -10.2240   20.2150 C   0  0  0  0  0  3  0  0  0  0  0  0
  -21.7460   -6.9320   21.4660 O   0  0  0  0  0  0  0  0  0  0  0  0
  -21.7130   -6.2040   22.6280 C   0  0  0  0  0  0  0  0  0  0  0  0
  -21.2730   -6.7660   23.8460 C   0  0  0  0  0  3  0  0  0  0  0  0
  -21.1890   -5.9660   25.0020 C   0  0  0  0  0  3  0  0  0  0  0  0
  -21.5320   -4.6020   24.9400 C   0  0  0  0  0  0  0  0  0  0  0  0
  -21.9640   -4.0370   23.7260 C   0  0  0  0  0  3  0  0  0  0  0  0
  -22.0500   -4.8360   22.5730 C   0  0  0  0  0  0  0  0  0  0  0  0
  -22.4470   -4.2830   21.4010 F   0  0  0  0  0  0  0  0  0  0  0  0
  -21.4430   -3.8290   26.0480 F   0  0  0  0  0  0  0  0  0  0  0  0
  -22.7680  -13.5740   21.0980 C   0  0  0  0  0  0  0  0  0  0  0  0
  -22.0750  -12.8810   21.9900 N   0  0  0  0  0  0  0  0  0  0  0  0
  -22.3070  -14.5900   20.5780 O   0  0  0  0  0  0  0  0  0  0  0  0
  -22.4670  -12.0600   22.4310 H   0  0  0  0  0  0  0  0  0  0  0  0
  -21.1410  -13.1720   22.2410 H   0  0  0  0  0  0  0  0  0  0  0  0
  -25.3390  -15.2720   20.2110 N   0  0  0  0  0  0  0  0  0  0  0  0
  -24.5500  -15.8990   20.3270 H   0  0  0  0  0  0  0  0  0  0  0  0
  -26.1320  -15.7090   19.7640 H   0  0  0  0  0  0  0  0  0  0  0  0
  -28.7800  -20.3300   20.3610 C   0  0  0  0  0  2  0  0  0  0  0  0
  -29.5860  -22.4520   21.9710 C   0  0  0  0  0  1  0  0  0  0  0  0
  -28.9940  -22.2430   20.5610 C   0  0  0  0  0  3  0  0  0  0  0  0
  -28.0090  -23.8790   20.3070 C   0  0  0  0  0  2  0  0  0  0  0  0
  -28.1920  -25.6100   20.4430 O   0  0  0  0  0  0  0  0  0  0  0  0
  -24.7530  -31.9270   23.2580 C   0  0  0  0  0  0  0  0  0  0  0  0
  -27.2230  -26.8090   20.3460 C   0  0  0  0  0  0  0  0  0  0  0  0
  -23.5480  -30.5270   21.6370 C   0  0  0  0  0  3  0  0  0  0  0  0
  -24.9750  -28.8440   20.2490 C   0  0  0  0  0  0  0  0  0  0  0  0
  -26.1240  -30.6400   21.5140 C   0  0  0  0  0  2  0  0  0  0  0  0
  -26.1710  -29.2020   20.8790 C   0  0  0  0  0  0  0  0  0  0  0  0
  -27.2810  -28.2110   20.8960 C   0  0  0  0  0  3  0  0  0  0  0  0
  -25.9960  -26.6490   19.6550 C   0  0  0  0  0  3  0  0  0  0  0  0
  -24.9220  -27.5900   19.6140 C   0  0  0  0  0  3  0  0  0  0  0  0
  -23.7800  -29.8100   20.2760 C   0  0  0  0  0  2  0  0  0  0  0  0
  -24.8330  -31.0630   22.1900 N   0  0  0  0  0  0  0  0  0  0  0  0
  -23.6650  -32.2520   23.7640 O   0  0  0  0  0  0  0  0  0  0  0  0
  -22.8180  -29.5720   22.6180 C   0  0  0  0  0  0  0  0  0  0  0  0
  -21.4840  -29.4320   22.4880 N   0  0  0  0  0  0  0  0  0  0  0  0
  -23.4610  -28.9500   23.4660 O   0  0  0  0  0  0  0  0  0  0  0  0
  -21.0150  -29.9880   21.7870 H   0  0  0  0  0  0  0  0  0  0  0  0
  -18.0820  -28.2580   22.9900 C   0  0  0  0  0  0  0  0  0  0  0  0
  -20.6440  -28.5130   23.2680 C   0  0  0  0  0  3  0  0  0  0  0  0
  -20.7380  -27.0680   22.7220 C   0  0  0  0  0  2  0  0  0  0  0  0
  -19.6440  -26.7360   21.7020 C   0  0  0  0  0  2  0  0  0  0  0  0
  -18.2570  -26.9000   22.3300 C   0  0  0  0  0  2  0  0  0  0  0  0
  -19.2030  -29.0230   23.4130 C   0  0  0  0  0  0  0  0  0  0  0  0
  -18.9860  -30.2930   23.9900 C   0  0  0  0  0  3  0  0  0  0  0  0
  -17.6810  -30.8010   24.1420 C   0  0  0  0  0  3  0  0  0  0  0  0
  -16.5760  -30.0380   23.7300 C   0  0  0  0  0  3  0  0  0  0  0  0
  -16.7770  -28.7660   23.1610 C   0  0  0  0  0  3  0  0  0  0  0  0
  -26.0280  -32.5630   23.8920 C   0  0  0  0  0  3  0  0  0  0  0  0
  -26.5210  -31.7970   25.1840 C   0  0  1  0  0  0  0  0  0  0  0  0
  -25.4140  -31.5890   26.2480 C   0  0  0  0  0  1  0  0  0  0  0  0
  -27.0760  -30.4030   24.8200 C   0  0  0  0  0  1  0  0  0  0  0  0
  -27.6840  -32.5800   25.8360 C   0  0  0  0  0  1  0  0  0  0  0  0
  -25.7220  -33.9660   24.2300 N   0  0  0  0  0  0  0  0  0  0  0  0
  -26.0520  -35.0290   23.4820 C   0  0  0  0  0  0  0  0  0  0  0  0
  -26.6980  -34.9290   22.4370 O   0  0  0  0  0  0  0  0  0  0  0  0
  -25.1320  -34.1140   25.0360 H   0  0  0  0  0  0  0  0  0  0  0  0
  -24.3230  -36.8450   23.2110 C   0  0  0  0  0  1  0  0  0  0  0  0
  -25.5920  -36.4220   23.9670 C   0  0  0  0  0  3  0  0  0  0  0  0
  -27.7610  -37.2990   24.7190 C   0  0  0  0  0  1  0  0  0  0  0  0
  -26.6260  -37.4710   23.8190 N   0  0  0  0  0  0  0  0  0  0  0  0
  -26.2290  -38.3920   23.9890 H   0  0  0  0  0  0  0  0  0  0  0  0
  -30.5930  -18.8730   21.7950 C   0  0  0  0  0  3  0  0  0  0  0  0
  -30.6720  -17.6610   22.6300 N   0  0  0  0  0  4  0  0  0  0  0  0
  -31.3410  -17.0040   22.2720 H   0  0  0  0  0  0  0  0  0  0  0  0
  -29.7690  -17.2240   22.6780 H   0  0  0  0  0  0  0  0  0  0  0  0
  -30.9360  -17.9130   23.5680 H   0  0  0  0  0  0  0  0  0  0  0  0
  -33.0460  -18.7920   20.9630 C   0  0  0  0  0  1  0  0  0  0  0  0
  -31.9560  -19.6180   21.6820 C   0  0  0  0  0  3  0  0  0  0  0  0
  -33.7040  -21.0530   22.9190 C   0  0  0  0  0  1  0  0  0  0  0  0
  -32.4670  -20.1500   23.0430 C   0  0  0  0  0  2  0  0  0  0  0  0
  2 10  1  0
  3  8  1  0
  4  5  1  0
  4  3  1  0
  6  5  1  0
  6 15  1  0
  6  7  1  0
  8  2  1  0
  8  7  1  0
  9  2  2  0
 10  1  2  0
 11 10  1  0
 12 13  2  0
 13 32  1  0
 14 13  1  0
 14 17  1  0
 15 12  1  0
 15 16  1  0
 16 14  2  0
 17 18  1  0
 18 19  2  0
 20 23  1  0
 20 19  1  0
 21 20  2  0
 22 21  1  0
 22 17  2  0
 23 24  1  0
 24 25  1  0
 25 26  2  0
 27 26  1  0
 27 31  1  0
 28 27  2  0
 29 24  2  0
 29 28  1  0
 30 29  1  0
 32 33  1  0
 33 36  1  0
 33 35  1  0
 34 32  2  0
 37 38  1  0
 37 12  1  0
 39 37  1  0
 40  1  1  0
 40 42  1  0
 42 41  1  0
 43 44  1  0
 43 42  1  0
 45 56  2  0
 46 44  1  0
 46 51  1  0
 47 55  1  0
 47 57  1  0
 48 54  1  0
 48 50  1  0
 49 55  1  0
 50 51  2  0
 50 49  1  0
 52 46  2  0
 53 52  1  0
 53 48  2  0
 54 47  1  0
 55 45  1  0
 57 59  2  0
 58 57  1  0
 60 58  1  0
 61 70  2  0
 61 66  1  0
 62 58  1  0
 62 66  1  0
 63 62  1  0
 64 65  1  0
 64 63  1  0
 65 61  1  0
 66 67  2  0
 67 68  1  0
 69 68  2  0
 70 69  1  0
 71 45  1  0
 71 76  1  0
 71 72  1  0
 72 75  1  1
 72 73  1  0
 74 72  1  0
 76 79  1  0
 77 81  1  0
 77 76  1  0
 78 77  2  0
 81 80  1  0
 83 81  1  0
 83 84  1  0
 83 82  1  0
 85  1  1  0
 85 86  1  0
 86 88  1  0
 86 89  1  0
 87 86  1  0
 91 90  1  0
 91 85  1  0
 91 93  1  0
 92 93  1  0
M  ISO  4   2 100  10 100  43 101  44 101
M  END
>  <TORSDO>  (88) 
F 23

>  <SCORE>  (88) 
-15.349

>  <name>  (88) 
90

>  <ligand_id>  (88) 
90

>  <original_smiles>  (88) 
[H]c1c([H])c([H])c2c(c1[H])C([H])([H])C([H])([H])C([H])([H])C2([H])N([H])C(=O)C1([H])N(C(=O)C([H])(N([H])C(=O)C([H])(N([H])C([H])([H])[H])C([H])([H])[H])C(C([H])([H])[H])(C([H])([H])[H])C([H])([H])[H])C([H])([H])c2c([H])c(OC([H])([H])C([H])(C([H])([H])[H])C([H])([H])C([H])(N([H])C(=O)N3C([H])([H])C([H])([H])C([H])([H])C([H])(n4nc(-c5c([H])c([H])c(Oc6c([H])c([H])c(F)c([H])c6F)c([H])c5[H])c(C(=O)N([H])[H])c4N([H])[H])C3([H])[H])C([H])(C([H])(C([H])([H])[H])C([H])([H])C([H])([H])[H])[N+]([H])([H])[H])c([H])c([H])c2C1([H])[H]

>  <smiles>  (88) 
[H]c1c([H])c([H])c2c(c1[H])C([H])([H])C([H])([H])C([H])([H])C2([H])N([H])C(=O)C1([H])N(C(=O)C([H])(N([H])C(=O)C([H])(N([H])C([H])([H])[H])C([H])([H])[H])C(C([H])([H])[H])(C([H])([H])[H])C([H])([H])[H])C([H])([H])c2c([H])c(OC([H])([H])C([H])(C([H])([H])[H])C([H])([H])C([H])(N([H])C(=O)N3C([H])([H])C([H])([H])C([H])([H])C([H])(n4nc(-c5c([H])c([H])c(Oc6c([H])c([H])c(F)c([H])c6F)c([H])c5[H])c(C(=O)N([H])[H])c4N([H])[H])C3([H])[H])C([H])(C([H])(C([H])([H])[H])C([H])([H])C([H])([H])[H])[N+]([H])([H])[H])c([H])c([H])c2C1([H])[H]

$$$$
91:0:0
     RDKit          3D

 92 99  0  0  1  0  0  0  0  0999 V2000
  -28.7770  -22.9230   20.7070 C   0  0  0  0  0  3  0  0  0  0  0  0
  -29.9120  -23.3250   21.5620 N   0  0  0  0  0  4  0  0  0  0  0  0
  -30.7260  -23.5340   21.0110 H   0  0  0  0  0  0  0  0  0  0  0  0
  -30.1460  -22.6010   22.2170 H   0  0  0  0  0  0  0  0  0  0  0  0
  -29.6760  -24.1510   22.0850 H   0  0  0  0  0  0  0  0  0  0  0  0
  -29.1700  -21.2980   20.0710 C   0  0  0  0  0  3  0  0  0  0  0  0
  -29.3480  -19.6740   20.7990 C   0  0  0  0  0  3  0  0  0  0  0  0
  -30.1680  -18.1950   20.2300 C   0  0  0  0  0  3  0  0  0  0  0  0
  -30.7300  -15.3460   20.5060 C   0  0  0  0  0  0  0  0  0  0  0  0
  -30.6850  -12.9430   19.5680 C   0  0  0  0  0  2  0  0  0  0  0  0
  -29.8050  -12.8340   18.2980 C   0  0  0  0  0  2  0  0  0  0  0  0
  -28.3360  -12.5780   18.6760 C   0  0  0  0  0  2  0  0  0  0  0  0
  -27.8670  -13.5010   19.8290 C   0  0  0  0  0  3  0  0  0  0  0  0
  -28.8780  -13.5750   20.9930 C   0  0  0  0  0  2  0  0  0  0  0  0
  -30.1470  -14.0560   20.4280 N   0  0  0  0  0  0  0  0  0  0  0  0
  -31.9450  -15.3530   20.2640 O   0  0  0  0  0  0  0  0  0  0  0  0
  -29.9740  -16.6010   20.6410 N   0  0  0  0  0  0  0  0  0  0  0  0
  -29.0220  -16.4060   20.9120 H   0  0  0  0  0  0  0  0  0  0  0  0
  -25.4570  -14.0520   20.4620 C   0  0  0  0  0  0  0  0  0  0  0  0
  -24.3880  -13.2710   20.8010 C   0  0  0  0  0  0  0  0  0  0  0  0
  -24.8690  -11.9260   20.8200 C   0  0  0  0  0  0  0  0  0  0  0  0
  -26.5180  -13.1830   20.2830 N   0  0  0  0  0  0  0  0  0  0  0  0
  -26.1730  -11.9000   20.5660 N   0  0  0  0  0  0  0  0  0  0  0  0
  -24.1460  -10.6600   21.0030 C   0  0  0  0  0  0  0  0  0  0  0  0
  -24.5430   -9.7160   21.9760 C   0  0  0  0  0  3  0  0  0  0  0  0
  -23.8170   -8.5180   22.1490 C   0  0  0  0  0  3  0  0  0  0  0  0
  -22.6810   -8.2540   21.3470 C   0  0  0  0  0  0  0  0  0  0  0  0
  -22.3050   -9.1860   20.3640 C   0  0  0  0  0  3  0  0  0  0  0  0
  -23.0310  -10.3750   20.1900 C   0  0  0  0  0  3  0  0  0  0  0  0
  -21.9320   -7.1040   21.4260 O   0  0  0  0  0  0  0  0  0  0  0  0
  -21.8280   -6.3910   22.5940 C   0  0  0  0  0  0  0  0  0  0  0  0
  -21.3350   -6.9730   23.7810 C   0  0  0  0  0  3  0  0  0  0  0  0
  -21.1790   -6.1860   24.9390 C   0  0  0  0  0  3  0  0  0  0  0  0
  -21.5070   -4.8170   24.9120 C   0  0  0  0  0  0  0  0  0  0  0  0
  -21.9930   -4.2340   23.7270 C   0  0  0  0  0  3  0  0  0  0  0  0
  -22.1500   -5.0190   22.5710 C   0  0  0  0  0  0  0  0  0  0  0  0
  -22.5990   -4.4480   21.4280 F   0  0  0  0  0  0  0  0  0  0  0  0
  -21.3510   -4.0590   26.0210 F   0  0  0  0  0  0  0  0  0  0  0  0
  -22.9750  -13.7390   20.9960 C   0  0  0  0  0  0  0  0  0  0  0  0
  -22.2170  -13.0600   21.8490 N   0  0  0  0  0  0  0  0  0  0  0  0
  -22.5510  -14.7430   20.4260 O   0  0  0  0  0  0  0  0  0  0  0  0
  -22.5720  -12.2490   22.3340 H   0  0  0  0  0  0  0  0  0  0  0  0
  -21.2670  -13.3570   22.0220 H   0  0  0  0  0  0  0  0  0  0  0  0
  -25.6120  -15.4210   20.2620 N   0  0  0  0  0  0  0  0  0  0  0  0
  -24.8310  -16.0650   20.3260 H   0  0  0  0  0  0  0  0  0  0  0  0
  -26.4600  -15.8630   19.9340 H   0  0  0  0  0  0  0  0  0  0  0  0
  -31.2180  -17.4600   17.9760 C   0  0  0  0  0  1  0  0  0  0  0  0
  -30.1250  -18.2790   18.6820 C   0  0  0  0  0  3  0  0  0  0  0  0
  -27.9430  -18.7270   17.4730 C   0  0  0  0  0  2  0  0  0  0  0  0
  -28.7590  -17.8970   18.1400 C   0  0  0  0  0  3  0  0  0  0  0  0
  -28.2150  -24.4140   19.9040 C   0  0  0  0  0  2  0  0  0  0  0  0
  -28.2650  -26.0080   20.2770 O   0  0  0  0  0  0  0  0  0  0  0  0
  -24.5780  -31.8900   23.1100 C   0  0  0  0  0  0  0  0  0  0  0  0
  -27.2260  -27.0580   20.1460 C   0  0  0  0  0  0  0  0  0  0  0  0
  -23.4100  -30.4570   21.4830 C   0  0  0  0  0  3  0  0  0  0  0  0
  -24.8890  -28.8710   20.0760 C   0  0  0  0  0  0  0  0  0  0  0  0
  -25.9700  -30.7190   21.3390 C   0  0  0  0  0  2  0  0  0  0  0  0
  -26.0640  -29.3090   20.6970 C   0  0  0  0  0  0  0  0  0  0  0  0
  -27.2240  -28.4200   20.7140 C   0  0  0  0  0  3  0  0  0  0  0  0
  -26.0240  -26.7670   19.4620 C   0  0  0  0  0  3  0  0  0  0  0  0
  -24.8920  -27.6200   19.4380 C   0  0  0  0  0  3  0  0  0  0  0  0
  -23.6520  -29.7650   20.1130 C   0  0  0  0  0  2  0  0  0  0  0  0
  -24.6730  -31.0500   22.0310 N   0  0  0  0  0  0  0  0  0  0  0  0
  -23.4830  -32.1660   23.6270 O   0  0  0  0  0  0  0  0  0  0  0  0
  -22.7330  -29.4580   22.4570 C   0  0  0  0  0  0  0  0  0  0  0  0
  -21.4010  -29.2930   22.3520 N   0  0  0  0  0  0  0  0  0  0  0  0
  -23.4120  -28.8320   23.2750 O   0  0  0  0  0  0  0  0  0  0  0  0
  -20.9060  -29.8510   21.6700 H   0  0  0  0  0  0  0  0  0  0  0  0
  -18.0240  -28.1020   22.9240 C   0  0  0  0  0  0  0  0  0  0  0  0
  -20.5900  -28.3540   23.1340 C   0  0  0  0  0  3  0  0  0  0  0  0
  -20.6710  -26.9250   22.5480 C   0  0  0  0  0  2  0  0  0  0  0  0
  -19.5470  -26.6150   21.5550 C   0  0  0  0  0  2  0  0  0  0  0  0
  -18.1800  -26.7580   22.2310 C   0  0  0  0  0  2  0  0  0  0  0  0
  -19.1540  -28.8580   23.3340 C   0  0  0  0  0  0  0  0  0  0  0  0
  -18.9520  -30.1140   23.9460 C   0  0  0  0  0  3  0  0  0  0  0  0
  -17.6520  -30.6140   24.1500 C   0  0  0  0  0  3  0  0  0  0  0  0
  -16.5360  -29.8560   23.7540 C   0  0  0  0  0  3  0  0  0  0  0  0
  -16.7230  -28.6020   23.1470 C   0  0  0  0  0  3  0  0  0  0  0  0
  -25.8380  -32.5580   23.7390 C   0  0  0  0  0  3  0  0  0  0  0  0
  -26.3780  -31.7910   25.0090 C   0  0  1  0  0  0  0  0  0  0  0  0
  -25.2960  -31.5170   26.0800 C   0  0  0  0  0  1  0  0  0  0  0  0
  -26.9960  -30.4300   24.6120 C   0  0  0  0  0  1  0  0  0  0  0  0
  -27.5100  -32.6090   25.6740 C   0  0  0  0  0  1  0  0  0  0  0  0
  -25.4840  -33.9430   24.0970 N   0  0  0  0  0  0  0  0  0  0  0  0
  -25.8050  -35.0280   23.3780 C   0  0  0  0  0  0  0  0  0  0  0  0
  -26.4920  -34.9700   22.3560 O   0  0  0  0  0  0  0  0  0  0  0  0
  -24.8730  -34.0600   24.8920 H   0  0  0  0  0  0  0  0  0  0  0  0
  -24.0570  -36.8110   23.0420 C   0  0  0  0  0  1  0  0  0  0  0  0
  -25.2830  -36.3940   23.8710 C   0  0  0  0  0  3  0  0  0  0  0  0
  -27.3790  -37.2870   24.7890 C   0  0  0  0  0  1  0  0  0  0  0  0
  -26.3010  -37.4670   23.8220 N   0  0  0  0  0  0  0  0  0  0  0  0
  -25.8750  -38.3750   23.9870 H   0  0  0  0  0  0  0  0  0  0  0  0
  1 51  1  0
  1  2  1  0
  2  5  1  0
  2  4  1  0
  3  2  1  0
  6  1  1  0
  6  7  2  0
  8 17  1  0
  8  7  1  0
  9 17  1  0
 10 15  1  0
 11 12  1  0
 11 10  1  0
 13 12  1  0
 13 22  1  0
 13 14  1  0
 15  9  1  0
 15 14  1  0
 16  9  2  0
 17 18  1  0
 19 20  2  0
 20 21  1  0
 20 39  1  0
 21 24  1  0
 22 19  1  0
 22 23  1  0
 23 21  2  0
 24 25  1  0
 25 26  2  0
 27 30  1  0
 27 26  1  0
 28 27  2  0
 29 28  1  0
 29 24  2  0
 30 31  1  0
 31 32  1  0
 32 33  2  0
 34 33  1  0
 34 38  1  0
 35 34  2  0
 36 31  2  0
 36 35  1  0
 37 36  1  0
 39 40  1  0
 40 43  1  0
 40 42  1  0
 41 39  2  0
 44 45  1  0
 44 19  1  0
 46 44  1  0
 48 47  1  0
 48  8  1  0
 49 50  2  0
 50 48  1  0
 51 52  1  0
 53 64  2  0
 54 52  1  0
 54 59  1  0
 55 63  1  0
 55 65  1  0
 56 62  1  0
 56 58  1  0
 57 63  1  0
 58 59  2  0
 58 57  1  0
 60 54  2  0
 61 60  1  0
 61 56  2  0
 62 55  1  0
 63 53  1  0
 65 67  2  0
 66 65  1  0
 68 66  1  0
 69 78  2  0
 69 74  1  0
 70 66  1  0
 70 74  1  0
 71 70  1  0
 72 73  1  0
 72 71  1  0
 73 69  1  0
 74 75  2  0
 75 76  1  0
 77 76  2  0
 78 77  1  0
 79 53  1  0
 79 84  1  0
 79 80  1  0
 80 83  1  1
 80 81  1  0
 82 80  1  0
 84 87  1  0
 85 89  1  0
 85 84  1  0
 86 85  2  0
 89 88  1  0
 91 89  1  0
 91 92  1  0
 91 90  1  0
M  ISO  4   9 100  17 100  51 101  52 101
M  END
>  <TORSDO>  (89) 
F 23

>  <SCORE>  (89) 
-14.723

>  <name>  (89) 
91

>  <ligand_id>  (89) 
91

>  <original_smiles>  (89) 
[H]C([H])=C([H])C([H])(C([H])([H])[H])C([H])(N([H])C(=O)N1C([H])([H])C([H])([H])C([H])([H])C([H])(n2nc(-c3c([H])c([H])c(Oc4c([H])c([H])c(F)c([H])c4F)c([H])c3[H])c(C(=O)N([H])[H])c2N([H])[H])C1([H])[H])C([H])([H])C([H])([H])C([H])(C([H])([H])Oc1c([H])c([H])c2c(c1[H])C([H])([H])N(C(=O)C([H])(N([H])C(=O)C([H])(N([H])C([H])([H])[H])C([H])([H])[H])C(C([H])([H])[H])(C([H])([H])[H])C([H])([H])[H])C([H])(C(=O)N([H])C1([H])c3c([H])c([H])c([H])c([H])c3C([H])([H])C([H])([H])C1([H])[H])C2([H])[H])[N+]([H])([H])[H]

>  <smiles>  (89) 
[H]C([H])=C([H])C([H])(C([H])([H])[H])C([H])(N([H])C(=O)N1C([H])([H])C([H])([H])C([H])([H])C([H])(n2nc(-c3c([H])c([H])c(Oc4c([H])c([H])c(F)c([H])c4F)c([H])c3[H])c(C(=O)N([H])[H])c2N([H])[H])C1([H])[H])C([H])([H])C([H])([H])C([H])(C([H])([H])Oc1c([H])c([H])c2c(c1[H])C([H])([H])N(C(=O)C([H])(N([H])C(=O)C([H])(N([H])C([H])([H])[H])C([H])([H])[H])C(C([H])([H])[H])(C([H])([H])[H])C([H])([H])[H])C([H])(C(=O)N([H])C1([H])c3c([H])c([H])c([H])c([H])c3C([H])([H])C([H])([H])C1([H])[H])C2([H])[H])[N+]([H])([H])[H]

$$$$
92:0:0
     RDKit          3D

 91 98  0  0  1  0  0  0  0  0999 V2000
  -28.3040  -22.6900   20.5660 C   0  0  0  0  0  3  0  0  0  0  0  0
  -28.3510  -22.7230   22.0480 N   0  0  0  0  0  4  0  0  0  0  0  0
  -29.2460  -23.0390   22.3770 H   0  0  0  0  0  0  0  0  0  0  0  0
  -28.1680  -21.8130   22.4340 H   0  0  0  0  0  0  0  0  0  0  0  0
  -27.6530  -23.3490   22.4140 H   0  0  0  0  0  0  0  0  0  0  0  0
  -29.2140  -21.2460   20.0690 C   0  0  0  0  0  3  0  0  0  0  0  0
  -28.9920  -19.5010   20.3930 C   0  0  0  0  0  3  0  0  0  0  0  0
  -30.0520  -18.0780   20.2090 C   0  0  0  0  0  3  0  0  0  0  0  0
  -30.4310  -15.2050   20.0280 C   0  0  0  0  0  0  0  0  0  0  0  0
  -30.3290  -12.8030   19.0940 C   0  0  0  0  0  2  0  0  0  0  0  0
  -29.3550  -12.6620   17.8990 C   0  0  0  0  0  2  0  0  0  0  0  0
  -27.9220  -12.4030   18.3960 C   0  0  0  0  0  2  0  0  0  0  0  0
  -27.5340  -13.3400   19.5670 C   0  0  0  0  0  3  0  0  0  0  0  0
  -28.6300  -13.4340   20.6500 C   0  0  0  0  0  2  0  0  0  0  0  0
  -29.8430  -13.9190   19.9770 N   0  0  0  0  0  0  0  0  0  0  0  0
  -31.6330  -15.2090   19.7230 O   0  0  0  0  0  0  0  0  0  0  0  0
  -29.6910  -16.4630   20.2190 N   0  0  0  0  0  0  0  0  0  0  0  0
  -28.7140  -16.2870   20.4050 H   0  0  0  0  0  0  0  0  0  0  0  0
  -25.1960  -13.8920   20.4250 C   0  0  0  0  0  0  0  0  0  0  0  0
  -24.1520  -13.1070   20.8310 C   0  0  0  0  0  0  0  0  0  0  0  0
  -24.6200  -11.7580   20.7640 C   0  0  0  0  0  0  0  0  0  0  0  0
  -26.2290  -13.0200   20.1280 N   0  0  0  0  0  0  0  0  0  0  0  0
  -25.8970  -11.7310   20.4000 N   0  0  0  0  0  0  0  0  0  0  0  0
  -23.9050  -10.4920   20.9690 C   0  0  0  0  0  0  0  0  0  0  0  0
  -24.3580   -9.5280   21.8950 C   0  0  0  0  0  3  0  0  0  0  0  0
  -23.6380   -8.3280   22.0880 C   0  0  0  0  0  3  0  0  0  0  0  0
  -22.4530   -8.0840   21.3540 C   0  0  0  0  0  0  0  0  0  0  0  0
  -22.0210   -9.0370   20.4170 C   0  0  0  0  0  3  0  0  0  0  0  0
  -22.7400  -10.2280   20.2210 C   0  0  0  0  0  3  0  0  0  0  0  0
  -21.7040   -6.9370   21.4580 O   0  0  0  0  0  0  0  0  0  0  0  0
  -21.6590   -6.2100   22.6190 C   0  0  0  0  0  0  0  0  0  0  0  0
  -21.2210   -6.7750   23.8370 C   0  0  0  0  0  3  0  0  0  0  0  0
  -21.1230   -5.9730   24.9920 C   0  0  0  0  0  3  0  0  0  0  0  0
  -21.4540   -4.6050   24.9300 C   0  0  0  0  0  0  0  0  0  0  0  0
  -21.8830   -4.0390   23.7170 C   0  0  0  0  0  3  0  0  0  0  0  0
  -21.9830   -4.8380   22.5650 C   0  0  0  0  0  0  0  0  0  0  0  0
  -22.3780   -4.2830   21.3930 F   0  0  0  0  0  0  0  0  0  0  0  0
  -21.3530   -3.8330   26.0360 F   0  0  0  0  0  0  0  0  0  0  0  0
  -22.7660  -13.5760   21.1610 C   0  0  0  0  0  0  0  0  0  0  0  0
  -22.0730  -12.8690   22.0450 N   0  0  0  0  0  0  0  0  0  0  0  0
  -22.3090  -14.6080   20.6700 O   0  0  0  0  0  0  0  0  0  0  0  0
  -22.4580  -12.0340   22.4630 H   0  0  0  0  0  0  0  0  0  0  0  0
  -21.1430  -13.1640   22.3070 H   0  0  0  0  0  0  0  0  0  0  0  0
  -25.3450  -15.2640   20.2520 N   0  0  0  0  0  0  0  0  0  0  0  0
  -24.5750  -15.9100   20.3930 H   0  0  0  0  0  0  0  0  0  0  0  0
  -26.1630  -15.7070   19.8510 H   0  0  0  0  0  0  0  0  0  0  0  0
  -30.7870  -17.9160   22.6760 C   0  0  0  0  0  1  0  0  0  0  0  0
  -31.9890  -19.5360   21.1570 C   0  0  0  0  0  1  0  0  0  0  0  0
  -31.2230  -18.2100   21.2270 C   0  0  0  0  0  3  0  0  0  0  0  0
  -28.2340  -24.3890   19.9880 C   0  0  0  0  0  2  0  0  0  0  0  0
  -28.2340  -25.9830   20.3490 O   0  0  0  0  0  0  0  0  0  0  0  0
  -24.6440  -31.8700   23.2250 C   0  0  0  0  0  0  0  0  0  0  0  0
  -27.1970  -27.0270   20.2320 C   0  0  0  0  0  0  0  0  0  0  0  0
  -23.4470  -30.4740   21.5860 C   0  0  0  0  0  3  0  0  0  0  0  0
  -24.8920  -28.8670   20.1680 C   0  0  0  0  0  0  0  0  0  0  0  0
  -26.0080  -30.6940   21.4380 C   0  0  0  0  0  2  0  0  0  0  0  0
  -26.0730  -29.2870   20.7890 C   0  0  0  0  0  0  0  0  0  0  0  0
  -27.2180  -28.3850   20.8000 C   0  0  0  0  0  3  0  0  0  0  0  0
  -25.9920  -26.7410   19.5560 C   0  0  0  0  0  3  0  0  0  0  0  0
  -24.8710  -27.6120   19.5350 C   0  0  0  0  0  3  0  0  0  0  0  0
  -23.6720  -29.7840   20.2110 C   0  0  0  0  0  2  0  0  0  0  0  0
  -24.7200  -31.0400   22.1360 N   0  0  0  0  0  0  0  0  0  0  0  0
  -23.5550  -32.1630   23.7450 O   0  0  0  0  0  0  0  0  0  0  0  0
  -22.7520  -29.4820   22.5540 C   0  0  0  0  0  0  0  0  0  0  0  0
  -21.4210  -29.3220   22.4330 N   0  0  0  0  0  0  0  0  0  0  0  0
  -23.4180  -28.8530   23.3810 O   0  0  0  0  0  0  0  0  0  0  0  0
  -20.9370  -29.8800   21.7420 H   0  0  0  0  0  0  0  0  0  0  0  0
  -18.0350  -28.1350   22.9420 C   0  0  0  0  0  0  0  0  0  0  0  0
  -20.5950  -28.3890   23.2070 C   0  0  0  0  0  3  0  0  0  0  0  0
  -20.6910  -26.9550   22.6370 C   0  0  0  0  0  2  0  0  0  0  0  0
  -19.5890  -26.6340   21.6230 C   0  0  0  0  0  2  0  0  0  0  0  0
  -18.2070  -26.7850   22.2650 C   0  0  0  0  0  2  0  0  0  0  0  0
  -19.1560  -28.8950   23.3710 C   0  0  0  0  0  0  0  0  0  0  0  0
  -18.9400  -30.1570   23.9640 C   0  0  0  0  0  3  0  0  0  0  0  0
  -17.6350  -30.6580   24.1340 C   0  0  0  0  0  3  0  0  0  0  0  0
  -16.5290  -29.8950   23.7210 C   0  0  0  0  0  3  0  0  0  0  0  0
  -16.7290  -28.6350   23.1320 C   0  0  0  0  0  3  0  0  0  0  0  0
  -25.9180  -32.5100   23.8570 C   0  0  0  0  0  3  0  0  0  0  0  0
  -25.6090  -33.9130   24.1810 N   0  0  0  0  0  0  0  0  0  0  0  0
  -25.9460  -34.9670   23.4260 C   0  0  0  0  0  0  0  0  0  0  0  0
  -26.6180  -34.8610   22.3970 O   0  0  0  0  0  0  0  0  0  0  0  0
  -25.0150  -34.0700   24.9820 H   0  0  0  0  0  0  0  0  0  0  0  0
  -24.2280  -36.7760   23.0810 C   0  0  0  0  0  1  0  0  0  0  0  0
  -25.4700  -36.3600   23.8860 C   0  0  0  0  0  3  0  0  0  0  0  0
  -27.6100  -37.2400   24.7100 C   0  0  0  0  0  1  0  0  0  0  0  0
  -26.5060  -37.4090   23.7690 N   0  0  0  0  0  0  0  0  0  0  0  0
  -26.1040  -38.3310   23.9150 H   0  0  0  0  0  0  0  0  0  0  0  0
  -26.4150  -31.7520   25.1510 C   0  0  1  0  0  0  0  0  0  0  0  0
  -25.3070  -31.5390   26.2100 C   0  0  0  0  0  1  0  0  0  0  0  0
  -26.9930  -30.3650   24.7900 C   0  0  0  0  0  1  0  0  0  0  0  0
  -27.5650  -32.5450   25.8130 C   0  0  0  0  0  1  0  0  0  0  0  0
  1 50  1  0
  1  2  1  0
  2  3  1  0
  2  5  1  0
  2  4  1  0
  6  7  2  0
  6  1  1  0
  8 17  1  0
  8  7  1  0
  8 49  1  0
  9 17  1  0
 10 15  1  0
 11 12  1  0
 11 10  1  0
 13 12  1  0
 13 22  1  0
 13 14  1  0
 15  9  1  0
 15 14  1  0
 16  9  2  0
 17 18  1  0
 19 20  2  0
 20 39  1  0
 21 20  1  0
 21 24  1  0
 22 23  1  0
 22 19  1  0
 23 21  2  0
 24 25  1  0
 25 26  2  0
 27 30  1  0
 27 26  1  0
 28 27  2  0
 29 28  1  0
 29 24  2  0
 30 31  1  0
 31 32  1  0
 32 33  2  0
 34 33  1  0
 34 38  1  0
 35 34  2  0
 36 31  2  0
 36 35  1  0
 37 36  1  0
 39 40  1  0
 40 43  1  0
 40 42  1  0
 41 39  2  0
 44 45  1  0
 44 19  1  0
 46 44  1  0
 48 49  1  0
 49 47  1  0
 50 51  1  0
 52 63  2  0
 53 51  1  0
 53 58  1  0
 54 62  1  0
 54 64  1  0
 55 61  1  0
 55 57  1  0
 56 62  1  0
 57 58  2  0
 57 56  1  0
 59 53  2  0
 60 59  1  0
 60 55  2  0
 61 54  1  0
 62 52  1  0
 64 66  2  0
 65 64  1  0
 67 65  1  0
 68 77  2  0
 68 73  1  0
 69 65  1  0
 69 73  1  0
 70 69  1  0
 71 72  1  0
 71 70  1  0
 72 68  1  0
 73 74  2  0
 74 75  1  0
 76 75  2  0
 77 76  1  0
 78 52  1  0
 78 79  1  0
 78 88  1  0
 79 82  1  0
 80 84  1  0
 80 79  1  0
 81 80  2  0
 84 83  1  0
 86 84  1  0
 86 87  1  0
 86 85  1  0
 88 91  1  1
 88 89  1  0
 90 88  1  0
M  ISO  4   9 100  17 100  50 101  51 101
M  END
>  <TORSDO>  (90) 
F 22

>  <SCORE>  (90) 
-15.269

>  <name>  (90) 
92

>  <ligand_id>  (90) 
92

>  <original_smiles>  (90) 
[H]c1c([H])c([H])c2c(c1[H])C([H])([H])C([H])([H])C([H])([H])C2([H])N([H])C(=O)C1([H])N(C(=O)C([H])(N([H])C(=O)C([H])(N([H])C([H])([H])[H])C([H])([H])[H])C(C([H])([H])[H])(C([H])([H])[H])C([H])([H])[H])C([H])([H])c2c([H])c(OC([H])([H])C([H])(C([H])([H])C([H])([H])C([H])(N([H])C(=O)N3C([H])([H])C([H])([H])C([H])([H])C([H])(n4nc(-c5c([H])c([H])c(Oc6c([H])c([H])c(F)c([H])c6F)c([H])c5[H])c(C(=O)N([H])[H])c4N([H])[H])C3([H])[H])C([H])(C([H])([H])[H])C([H])([H])[H])[N+]([H])([H])[H])c([H])c([H])c2C1([H])[H]

>  <smiles>  (90) 
[H]c1c([H])c([H])c2c(c1[H])C([H])([H])C([H])([H])C([H])([H])C2([H])N([H])C(=O)C1([H])N(C(=O)C([H])(N([H])C(=O)C([H])(N([H])C([H])([H])[H])C([H])([H])[H])C(C([H])([H])[H])(C([H])([H])[H])C([H])([H])[H])C([H])([H])c2c([H])c(OC([H])([H])C([H])(C([H])([H])C([H])([H])C([H])(N([H])C(=O)N3C([H])([H])C([H])([H])C([H])([H])C([H])(n4nc(-c5c([H])c([H])c(Oc6c([H])c([H])c(F)c([H])c6F)c([H])c5[H])c(C(=O)N([H])[H])c4N([H])[H])C3([H])[H])C([H])(C([H])([H])[H])C([H])([H])[H])[N+]([H])([H])[H])c([H])c([H])c2C1([H])[H]

$$$$
93:0:0
     RDKit          3D

 94101  0  0  1  0  0  0  0  0999 V2000
  -30.2220  -19.2140   20.4310 C   0  0  0  0  0  3  0  0  0  0  0  0
  -29.2200  -20.5510   20.7000 C   0  0  0  0  0  3  0  0  0  0  0  0
  -29.4600  -22.1250   20.1360 C   0  0  0  0  0  3  0  0  0  0  0  0
  -28.7670  -23.5500   20.7160 C   0  0  0  0  0  2  0  0  0  0  0  0
  -28.5640  -24.9730   19.8440 C   0  0  0  0  0  2  0  0  0  0  0  0
  -28.4370  -26.4240   20.3730 O   0  0  0  0  0  0  0  0  0  0  0  0
  -24.6500  -32.0090   23.2420 C   0  0  0  0  0  0  0  0  0  0  0  0
  -27.3200  -27.3250   20.2570 C   0  0  0  0  0  0  0  0  0  0  0  0
  -23.4670  -30.5700   21.6250 C   0  0  0  0  0  3  0  0  0  0  0  0
  -24.9400  -29.0050   20.2100 C   0  0  0  0  0  0  0  0  0  0  0  0
  -26.0140  -30.8830   21.4500 C   0  0  0  0  0  2  0  0  0  0  0  0
  -26.1100  -29.4880   20.8100 C   0  0  0  0  0  0  0  0  0  0  0  0
  -27.2930  -28.6630   20.8170 C   0  0  0  0  0  3  0  0  0  0  0  0
  -26.1180  -26.9280   19.6250 C   0  0  0  0  0  3  0  0  0  0  0  0
  -24.9590  -27.7390   19.6010 C   0  0  0  0  0  3  0  0  0  0  0  0
  -23.6920  -29.8780   20.2540 C   0  0  0  0  0  2  0  0  0  0  0  0
  -24.7280  -31.1790   22.1580 N   0  0  0  0  0  0  0  0  0  0  0  0
  -23.5610  -32.2850   23.7680 O   0  0  0  0  0  0  0  0  0  0  0  0
  -22.8110  -29.5640   22.6020 C   0  0  0  0  0  0  0  0  0  0  0  0
  -21.4880  -29.3590   22.4690 N   0  0  0  0  0  0  0  0  0  0  0  0
  -23.4930  -28.9700   23.4400 O   0  0  0  0  0  0  0  0  0  0  0  0
  -20.9930  -29.8900   21.7690 H   0  0  0  0  0  0  0  0  0  0  0  0
  -18.1310  -28.1070   22.9880 C   0  0  0  0  0  0  0  0  0  0  0  0
  -20.6840  -28.4200   23.2540 C   0  0  0  0  0  3  0  0  0  0  0  0
  -20.8120  -26.9810   22.7030 C   0  0  0  0  0  2  0  0  0  0  0  0
  -19.7190  -26.6230   21.6910 C   0  0  0  0  0  2  0  0  0  0  0  0
  -18.3330  -26.7500   22.3290 C   0  0  0  0  0  2  0  0  0  0  0  0
  -19.2330  -28.8970   23.4050 C   0  0  0  0  0  0  0  0  0  0  0  0
  -18.9890  -30.1630   23.9790 C   0  0  0  0  0  3  0  0  0  0  0  0
  -17.6740  -30.6390   24.1420 C   0  0  0  0  0  3  0  0  0  0  0  0
  -16.5850  -29.8470   23.7390 C   0  0  0  0  0  3  0  0  0  0  0  0
  -16.8150  -28.5830   23.1650 C   0  0  0  0  0  3  0  0  0  0  0  0
  -25.9210  -32.6750   23.8550 C   0  0  0  0  0  3  0  0  0  0  0  0
  -26.4540  -31.9270   25.1400 C   0  0  1  0  0  0  0  0  0  0  0  0
  -25.3570  -31.6420   26.1930 C   0  0  0  0  0  1  0  0  0  0  0  0
  -27.1020  -30.5750   24.7630 C   0  0  0  0  0  1  0  0  0  0  0  0
  -27.5590  -32.7730   25.8170 C   0  0  0  0  0  1  0  0  0  0  0  0
  -25.5840  -34.0690   24.1800 N   0  0  0  0  0  0  0  0  0  0  0  0
  -25.8920  -35.1290   23.4200 C   0  0  0  0  0  0  0  0  0  0  0  0
  -26.5580  -35.0350   22.3860 O   0  0  0  0  0  0  0  0  0  0  0  0
  -24.9930  -34.2150   24.9860 H   0  0  0  0  0  0  0  0  0  0  0  0
  -24.1430  -36.9030   23.0600 C   0  0  0  0  0  1  0  0  0  0  0  0
  -25.3820  -36.5080   23.8790 C   0  0  0  0  0  3  0  0  0  0  0  0
  -27.4890  -37.4290   24.7430 C   0  0  0  0  0  1  0  0  0  0  0  0
  -26.4010  -37.5770   23.7810 N   0  0  0  0  0  0  0  0  0  0  0  0
  -25.9760  -38.4900   23.9210 H   0  0  0  0  0  0  0  0  0  0  0  0
  -31.3020  -19.1200   21.5340 C   0  0  0  0  0  2  0  0  0  0  0  0
  -32.5650  -18.5150   21.0640 N   0  0  0  0  0  4  0  0  0  0  0  0
  -32.4400  -17.5380   20.8610 H   0  0  0  0  0  0  0  0  0  0  0  0
  -33.2680  -18.5920   21.7790 H   0  0  0  0  0  0  0  0  0  0  0  0
  -32.9090  -18.9840   20.2430 H   0  0  0  0  0  0  0  0  0  0  0  0
  -29.7730  -17.6750   19.8740 C   0  0  0  0  0  0  0  0  0  0  0  0
  -30.6590  -15.1060   20.2650 C   0  0  0  0  0  0  0  0  0  0  0  0
  -30.5000  -12.7980   19.2540 C   0  0  0  0  0  2  0  0  0  0  0  0
  -29.5480  -12.8360   18.0330 C   0  0  0  0  0  2  0  0  0  0  0  0
  -28.0950  -12.5990   18.4780 C   0  0  0  0  0  2  0  0  0  0  0  0
  -27.7130  -13.4660   19.7070 C   0  0  0  0  0  3  0  0  0  0  0  0
  -28.7890  -13.4280   20.8180 C   0  0  0  0  0  2  0  0  0  0  0  0
  -30.0610  -13.8500   20.2150 N   0  0  0  0  0  0  0  0  0  0  0  0
  -31.8180  -15.2120   19.8560 O   0  0  0  0  0  0  0  0  0  0  0  0
  -29.9120  -16.2690   20.5830 N   0  0  0  0  0  4  0  0  0  0  0  0
  -29.0740  -16.0220   21.0870 H   0  0  0  0  0  0  0  0  0  0  0  0
  -25.3260  -14.0010   20.4720 C   0  0  0  0  0  0  0  0  0  0  0  0
  -24.2770  -13.2050   20.8390 C   0  0  0  0  0  0  0  0  0  0  0  0
  -24.7610  -11.8610   20.7820 C   0  0  0  0  0  0  0  0  0  0  0  0
  -26.3820  -13.1430   20.2120 N   0  0  0  0  0  0  0  0  0  0  0  0
  -26.0490  -11.8490   20.4600 N   0  0  0  0  0  0  0  0  0  0  0  0
  -24.0540  -10.5850   20.9540 C   0  0  0  0  0  0  0  0  0  0  0  0
  -24.4750   -9.6290   21.9020 C   0  0  0  0  0  3  0  0  0  0  0  0
  -23.7630   -8.4210   22.0650 C   0  0  0  0  0  3  0  0  0  0  0  0
  -22.6180   -8.1590   21.2760 C   0  0  0  0  0  0  0  0  0  0  0  0
  -22.2170   -9.1060   20.3180 C   0  0  0  0  0  3  0  0  0  0  0  0
  -22.9290  -10.3040   20.1540 C   0  0  0  0  0  3  0  0  0  0  0  0
  -21.8830   -7.0020   21.3440 O   0  0  0  0  0  0  0  0  0  0  0  0
  -21.7820   -6.2800   22.5070 C   0  0  0  0  0  0  0  0  0  0  0  0
  -21.2300   -6.8360   23.6820 C   0  0  0  0  0  3  0  0  0  0  0  0
  -21.0790   -6.0380   24.8340 C   0  0  0  0  0  3  0  0  0  0  0  0
  -21.4750   -4.6870   24.8130 C   0  0  0  0  0  0  0  0  0  0  0  0
  -22.0210   -4.1310   23.6430 C   0  0  0  0  0  3  0  0  0  0  0  0
  -22.1710   -4.9250   22.4930 C   0  0  0  0  0  0  0  0  0  0  0  0
  -22.6790   -4.3780   21.3620 F   0  0  0  0  0  0  0  0  0  0  0  0
  -21.3230   -3.9200   25.9180 F   0  0  0  0  0  0  0  0  0  0  0  0
  -22.8770  -13.6590   21.1320 C   0  0  0  0  0  0  0  0  0  0  0  0
  -22.1630  -12.9260   21.9790 N   0  0  0  0  0  0  0  0  0  0  0  0
  -22.4280  -14.6970   20.6500 O   0  0  0  0  0  0  0  0  0  0  0  0
  -22.5420  -12.0850   22.3860 H   0  0  0  0  0  0  0  0  0  0  0  0
  -21.2260  -13.2110   22.2240 H   0  0  0  0  0  0  0  0  0  0  0  0
  -25.4650  -15.3790   20.3160 N   0  0  0  0  0  0  0  0  0  0  0  0
  -24.6770  -16.0060   20.4280 H   0  0  0  0  0  0  0  0  0  0  0  0
  -26.2900  -15.8390   19.9610 H   0  0  0  0  0  0  0  0  0  0  0  0
  -28.3530  -17.7360   19.2500 C   0  0  0  0  0  2  0  0  0  0  0  0
  -29.3720  -19.0600   17.1880 C   0  0  0  0  0  1  0  0  0  0  0  0
  -26.9760  -19.3690   17.8880 C   0  0  0  0  0  1  0  0  0  0  0  0
  -28.1540  -18.3850   17.8470 C   0  0  0  0  0  3  0  0  0  0  0  0
  1  2  1  0
  1 47  1  0
  3  2  2  0
  3  4  1  0
  5  6  1  0
  5  4  1  0
  7 18  2  0
  8  6  1  0
  8 13  1  0
  9 17  1  0
  9 19  1  0
 10 16  1  0
 10 12  1  0
 11 17  1  0
 12 13  2  0
 12 11  1  0
 14  8  2  0
 15 14  1  0
 15 10  2  0
 16  9  1  0
 17  7  1  0
 19 21  2  0
 20 19  1  0
 22 20  1  0
 23 32  2  0
 23 28  1  0
 24 20  1  0
 24 28  1  0
 25 24  1  0
 26 27  1  0
 26 25  1  0
 27 23  1  0
 28 29  2  0
 29 30  1  0
 31 30  2  0
 32 31  1  0
 33  7  1  0
 33 38  1  0
 33 34  1  0
 34 37  1  1
 34 35  1  0
 36 34  1  0
 38 41  1  0
 39 43  1  0
 39 38  1  0
 40 39  2  0
 43 42  1  0
 45 43  1  0
 45 46  1  0
 45 44  1  0
 48 47  1  0
 48 50  1  0
 49 48  1  0
 51 48  1  0
 52  1  1  0
 52 61  2  3
 53 61  1  0
 54 59  1  0
 55 56  1  0
 55 54  1  0
 57 56  1  0
 57 66  1  0
 57 58  1  0
 59 53  1  0
 59 58  1  0
 60 53  2  0
 61 62  1  0
 63 64  2  0
 64 83  1  0
 65 64  1  0
 65 68  1  0
 66 67  1  0
 66 63  1  0
 67 65  2  0
 68 69  1  0
 69 70  2  0
 71 74  1  0
 71 70  1  0
 72 71  2  0
 73 72  1  0
 73 68  2  0
 74 75  1  0
 75 76  1  0
 76 77  2  0
 78 77  1  0
 78 82  1  0
 79 78  2  0
 80 75  2  0
 80 79  1  0
 81 80  1  0
 83 84  1  0
 84 87  1  0
 84 86  1  0
 85 83  2  0
 88 89  1  0
 88 63  1  0
 90 88  1  0
 91 52  1  0
 92 94  1  0
 94 93  1  0
 94 91  1  0
M  ISO  4   5 101   6 101  53 100  61 100
M  END
>  <TORSDO>  (91) 
F 25

>  <SCORE>  (91) 
-12.793

>  <name>  (91) 
93

>  <ligand_id>  (91) 
93

>  <original_smiles>  (91) 
[H]c1c([H])c([H])c2c(c1[H])C([H])([H])C([H])([H])C([H])([H])C2([H])N([H])C(=O)C1([H])N(C(=O)C([H])(N([H])C(=O)C([H])(N([H])C([H])([H])[H])C([H])([H])[H])C(C([H])([H])[H])(C([H])([H])[H])C([H])([H])[H])C([H])([H])c2c([H])c(OC([H])([H])C([H])([H])C([H])([H])C([H])([H])C([H])(C([H])(N([H])C(=O)N3C([H])([H])C([H])([H])C([H])([H])C([H])(n4nc(-c5c([H])c([H])c(Oc6c([H])c([H])c(F)c([H])c6F)c([H])c5[H])c(C(=O)N([H])[H])c4N([H])[H])C3([H])[H])C([H])([H])C([H])(C([H])([H])[H])C([H])([H])[H])C([H])([H])[N+]([H])([H])[H])c([H])c([H])c2C1([H])[H]

>  <smiles>  (91) 
[H]c1c([H])c([H])c2c(c1[H])C([H])([H])C([H])([H])C([H])([H])C2([H])N([H])C(=O)C1([H])N(C(=O)C([H])(N([H])C(=O)C([H])(N([H])C([H])([H])[H])C([H])([H])[H])C(C([H])([H])[H])(C([H])([H])[H])C([H])([H])[H])C([H])([H])c2c([H])c(OC([H])([H])C([H])([H])C([H])([H])C([H])([H])C([H])(C([H])(N([H])C(=O)N3C([H])([H])C([H])([H])C([H])([H])C([H])(n4nc(-c5c([H])c([H])c(Oc6c([H])c([H])c(F)c([H])c6F)c([H])c5[H])c(C(=O)N([H])[H])c4N([H])[H])C3([H])[H])C([H])([H])C([H])(C([H])([H])[H])C([H])([H])[H])C([H])([H])[N+]([H])([H])[H])c([H])c([H])c2C1([H])[H]

$$$$
94:0:0
     RDKit          3D

 93101  0  0  1  0  0  0  0  0999 V2000
  -29.1390  -22.2350   22.0640 N   0  0  0  0  0  4  0  0  0  0  0  0
  -28.2670  -21.9210   22.4590 H   0  0  0  0  0  0  0  0  0  0  0  0
  -29.1720  -21.9000   21.1170 H   0  0  0  0  0  0  0  0  0  0  0  0
  -30.2500  -21.5530   22.7710 C   0  0  0  0  0  2  0  0  0  0  0  0
  -30.2770  -17.7020   22.4460 C   0  0  0  0  0  3  0  0  0  0  0  0
  -30.8460  -18.6720   20.2860 C   0  0  0  0  0  3  0  0  0  0  0  0
  -30.2030  -18.9970   23.0080 C   0  0  0  0  0  3  0  0  0  0  0  0
  -30.8010  -19.9630   20.8560 C   0  0  0  0  0  3  0  0  0  0  0  0
  -30.5500  -17.5340   21.0680 C   0  0  0  0  0  0  0  0  0  0  0  0
  -30.4310  -20.1400   22.2090 C   0  0  0  0  0  0  0  0  0  0  0  0
  -30.4350  -16.1500   20.4230 C   0  0  0  0  0  2  0  0  0  0  0  0
  -31.9090  -14.2290   19.9020 C   0  0  0  0  0  0  0  0  0  0  0  0
  -31.3750  -12.0130   18.9230 C   0  0  0  0  0  2  0  0  0  0  0  0
  -30.4090  -12.1580   17.7300 C   0  0  0  0  0  2  0  0  0  0  0  0
  -28.9450  -12.1670   18.2180 C   0  0  0  0  0  2  0  0  0  0  0  0
  -28.7130  -13.1580   19.3930 C   0  0  0  0  0  3  0  0  0  0  0  0
  -29.7910  -12.9650   20.4880 C   0  0  0  0  0  2  0  0  0  0  0  0
  -31.1120  -13.1220   19.8580 N   0  0  0  0  0  0  0  0  0  0  0  0
  -32.9770  -14.2980   19.2940 O   0  0  0  0  0  0  0  0  0  0  0  0
  -31.5510  -15.2430   20.7140 N   0  0  0  0  0  0  0  0  0  0  0  0
  -32.3570  -15.7810   20.9960 H   0  0  0  0  0  0  0  0  0  0  0  0
  -26.4510  -14.0410   20.2540 C   0  0  0  0  0  0  0  0  0  0  0  0
  -25.3140  -13.3990   20.6590 C   0  0  0  0  0  0  0  0  0  0  0  0
  -25.5910  -12.0000   20.5540 C   0  0  0  0  0  0  0  0  0  0  0  0
  -27.3610  -13.0430   19.9370 N   0  0  0  0  0  0  0  0  0  0  0  0
  -26.8470  -11.8090   20.1720 N   0  0  0  0  0  0  0  0  0  0  0  0
  -24.7180  -10.8370   20.7440 C   0  0  0  0  0  0  0  0  0  0  0  0
  -25.1370   -9.7120   21.4900 C   0  0  0  0  0  3  0  0  0  0  0  0
  -24.2710   -8.6130   21.6740 C   0  0  0  0  0  3  0  0  0  0  0  0
  -22.9720   -8.6320   21.1150 C   0  0  0  0  0  0  0  0  0  0  0  0
  -22.5670   -9.7450   20.3570 C   0  0  0  0  0  3  0  0  0  0  0  0
  -23.4310  -10.8350   20.1710 C   0  0  0  0  0  3  0  0  0  0  0  0
  -22.0710   -7.5990   21.2210 O   0  0  0  0  0  0  0  0  0  0  0  0
  -21.7980   -7.0030   22.4260 C   0  0  0  0  0  0  0  0  0  0  0  0
  -21.4730   -7.7600   23.5730 C   0  0  0  0  0  3  0  0  0  0  0  0
  -21.1310   -7.1080   24.7750 C   0  0  0  0  0  3  0  0  0  0  0  0
  -21.1050   -5.7020   24.8300 C   0  0  0  0  0  0  0  0  0  0  0  0
  -21.4230   -4.9450   23.6880 C   0  0  0  0  0  3  0  0  0  0  0  0
  -21.7670   -5.5950   22.4880 C   0  0  0  0  0  0  0  0  0  0  0  0
  -22.0520   -4.8620   21.3850 F   0  0  0  0  0  0  0  0  0  0  0  0
  -20.7680   -5.0740   25.9800 F   0  0  0  0  0  0  0  0  0  0  0  0
  -24.0110  -14.0390   21.0310 C   0  0  0  0  0  0  0  0  0  0  0  0
  -23.2970  -13.4700   21.9960 N   0  0  0  0  0  0  0  0  0  0  0  0
  -23.6410  -15.0880   20.5010 O   0  0  0  0  0  0  0  0  0  0  0  0
  -23.6080  -12.6240   22.4500 H   0  0  0  0  0  0  0  0  0  0  0  0
  -22.4220  -13.8860   22.2830 H   0  0  0  0  0  0  0  0  0  0  0  0
  -26.7750  -15.3870   20.1060 N   0  0  0  0  0  0  0  0  0  0  0  0
  -26.0800  -16.1120   20.2500 H   0  0  0  0  0  0  0  0  0  0  0  0
  -27.6310  -15.7330   19.6920 H   0  0  0  0  0  0  0  0  0  0  0  0
  -29.2120  -23.7190   22.0280 C   0  0  0  0  0  2  0  0  0  0  0  0
  -28.2840  -24.3760   20.9690 C   0  0  0  0  0  2  0  0  0  0  0  0
  -28.6720  -25.8500   20.6870 C   0  0  0  0  0  2  0  0  0  0  0  0
  -28.1260  -26.3650   19.4640 O   0  0  0  0  0  0  0  0  0  0  0  0
  -24.7280  -31.2780   23.3250 C   0  0  0  0  0  0  0  0  0  0  0  0
  -27.0320  -27.1800   19.6120 C   0  0  0  0  0  0  0  0  0  0  0  0
  -23.4110  -30.2060   21.5220 C   0  0  0  0  0  3  0  0  0  0  0  0
  -24.7420  -28.8090   19.8560 C   0  0  0  0  0  0  0  0  0  0  0  0
  -25.9450  -30.4460   21.3140 C   0  0  0  0  0  2  0  0  0  0  0  0
  -25.9350  -29.1740   20.4940 C   0  0  0  0  0  0  0  0  0  0  0  0
  -27.0850  -28.3660   20.3750 C   0  0  0  0  0  3  0  0  0  0  0  0
  -25.8380  -26.8300   18.9580 C   0  0  0  0  0  3  0  0  0  0  0  0
  -24.6890  -27.6370   19.0770 C   0  0  0  0  0  3  0  0  0  0  0  0
  -23.5570  -29.7290   20.0520 C   0  0  0  0  0  2  0  0  0  0  0  0
  -24.7140  -30.6530   22.1120 N   0  0  0  0  0  0  0  0  0  0  0  0
  -23.6750  -31.5280   23.9270 O   0  0  0  0  0  0  0  0  0  0  0  0
  -22.7110  -29.0980   22.3430 C   0  0  0  0  0  0  0  0  0  0  0  0
  -21.3830  -28.9850   22.1840 N   0  0  0  0  0  0  0  0  0  0  0  0
  -23.3610  -28.3510   23.0810 O   0  0  0  0  0  0  0  0  0  0  0  0
  -20.9270  -29.6480   21.5730 H   0  0  0  0  0  0  0  0  0  0  0  0
  -17.9620  -27.8280   22.4270 C   0  0  0  0  0  0  0  0  0  0  0  0
  -20.5140  -27.9880   22.8140 C   0  0  0  0  0  3  0  0  0  0  0  0
  -20.6080  -26.6260   22.0910 C   0  0  0  0  0  2  0  0  0  0  0  0
  -19.5360  -26.4440   21.0120 C   0  0  0  0  0  2  0  0  0  0  0  0
  -18.1340  -26.5530   21.6170 C   0  0  0  0  0  2  0  0  0  0  0  0
  -19.0810  -28.5070   22.9760 C   0  0  0  0  0  0  0  0  0  0  0  0
  -18.8730  -29.7040   23.6920 C   0  0  0  0  0  3  0  0  0  0  0  0
  -17.5770  -30.2230   23.8650 C   0  0  0  0  0  3  0  0  0  0  0  0
  -16.4700  -29.5360   23.3380 C   0  0  0  0  0  3  0  0  0  0  0  0
  -16.6630  -28.3420   22.6230 C   0  0  0  0  0  3  0  0  0  0  0  0
  -26.0620  -31.7270   23.9970 C   0  0  0  0  0  3  0  0  0  0  0  0
  -25.8890  -33.1170   24.4370 N   0  0  0  0  0  0  0  0  0  0  0  0
  -26.3500  -34.1880   23.7760 C   0  0  0  0  0  0  0  0  0  0  0  0
  -27.0380  -34.0990   22.7550 O   0  0  0  0  0  0  0  0  0  0  0  0
  -25.2840  -33.2600   25.2300 H   0  0  0  0  0  0  0  0  0  0  0  0
  -24.8190  -36.1670   23.5330 C   0  0  0  0  0  1  0  0  0  0  0  0
  -25.9900  -35.5780   24.3350 C   0  0  0  0  0  3  0  0  0  0  0  0
  -28.1670  -36.1910   25.2890 C   0  0  0  0  0  1  0  0  0  0  0  0
  -27.1250  -36.5270   24.3240 N   0  0  0  0  0  0  0  0  0  0  0  0
  -26.8080  -37.4750   24.5080 H   0  0  0  0  0  0  0  0  0  0  0  0
  -26.4850  -30.8070   25.2090 C   0  0  1  0  0  0  0  0  0  0  0  0
  -25.3780  -30.6220   26.2740 C   0  0  0  0  0  1  0  0  0  0  0  0
  -26.8980  -29.4040   24.7070 C   0  0  0  0  0  1  0  0  0  0  0  0
  -27.7210  -31.4100   25.9140 C   0  0  0  0  0  1  0  0  0  0  0  0
  1  2  1  0
  1  4  1  0
  3  1  1  0
  5  7  1  0
  6  8  2  0
  6  9  1  0
  8 10  1  0
  9  5  2  0
 10  4  1  0
 10  7  2  0
 11 20  1  0
 11  9  1  0
 12 20  1  0
 13 18  1  0
 14 15  1  0
 14 13  1  0
 16 15  1  0
 16 25  1  0
 16 17  1  0
 18 12  1  0
 18 17  1  0
 19 12  2  0
 20 21  1  0
 22 23  2  0
 23 42  1  0
 24 23  1  0
 24 27  1  0
 25 26  1  0
 25 22  1  0
 26 24  2  0
 27 28  1  0
 28 29  2  0
 30 33  1  0
 30 29  1  0
 31 30  2  0
 32 31  1  0
 32 27  2  0
 33 34  1  0
 34 39  2  0
 34 35  1  0
 35 36  2  0
 36 37  1  0
 37 41  1  0
 38 37  2  0
 39 38  1  0
 40 39  1  0
 42 43  1  0
 43 46  1  0
 43 45  1  0
 44 42  2  0
 47 48  1  0
 47 22  1  0
 49 47  1  0
 50  1  1  0
 51 50  1  0
 52 51  1  0
 53 55  1  0
 53 52  1  0
 54 65  2  0
 55 60  1  0
 56 64  1  0
 56 66  1  0
 57 63  1  0
 57 59  1  0
 58 64  1  0
 59 58  1  0
 60 59  2  0
 61 62  1  0
 61 55  2  0
 62 57  2  0
 63 56  1  0
 64 54  1  0
 66 68  2  0
 67 66  1  0
 69 67  1  0
 70 79  2  0
 70 75  1  0
 71 67  1  0
 71 75  1  0
 72 71  1  0
 73 74  1  0
 73 72  1  0
 74 70  1  0
 75 76  2  0
 76 77  1  0
 78 77  2  0
 79 78  1  0
 80 54  1  0
 80 81  1  0
 80 90  1  0
 81 84  1  0
 82 86  1  0
 82 81  1  0
 83 82  2  0
 86 85  1  0
 88 86  1  0
 88 89  1  0
 88 87  1  0
 90 93  1  1
 90 91  1  0
 92 90  1  0
M  ISO  4  12 100  20 100  52 101  53 101
M  END
>  <TORSDO>  (92) 
F 22

>  <SCORE>  (92) 
-10.198

>  <name>  (92) 
94

>  <ligand_id>  (92) 
94

>  <original_smiles>  (92) 
[H]c1c([H])c([H])c2c(c1[H])C([H])([H])C([H])([H])C([H])([H])C2([H])N([H])C(=O)C1([H])N(C(=O)C([H])(N([H])C(=O)C([H])(N([H])C([H])([H])[H])C([H])([H])[H])C(C([H])([H])[H])(C([H])([H])[H])C([H])([H])[H])C([H])([H])c2c([H])c(OC([H])([H])C([H])([H])C([H])([H])[N+]([H])([H])C([H])([H])c3c([H])c([H])c(C([H])([H])N([H])C(=O)N4C([H])([H])C([H])([H])C([H])([H])C([H])(n5nc(-c6c([H])c([H])c(Oc7c([H])c([H])c(F)c([H])c7F)c([H])c6[H])c(C(=O)N([H])[H])c5N([H])[H])C4([H])[H])c([H])c3[H])c([H])c([H])c2C1([H])[H]

>  <smiles>  (92) 
[H]c1c([H])c([H])c2c(c1[H])C([H])([H])C([H])([H])C([H])([H])C2([H])N([H])C(=O)C1([H])N(C(=O)C([H])(N([H])C(=O)C([H])(N([H])C([H])([H])[H])C([H])([H])[H])C(C([H])([H])[H])(C([H])([H])[H])C([H])([H])[H])C([H])([H])c2c([H])c(OC([H])([H])C([H])([H])C([H])([H])[N+]([H])([H])C([H])([H])c3c([H])c([H])c(C([H])([H])N([H])C(=O)N4C([H])([H])C([H])([H])C([H])([H])C([H])(n5nc(-c6c([H])c([H])c(Oc7c([H])c([H])c(F)c([H])c7F)c([H])c6[H])c(C(=O)N([H])[H])c5N([H])[H])C4([H])[H])c([H])c3[H])c([H])c([H])c2C1([H])[H]

$$$$
95:0:0
     RDKit          3D

 94101  0  0  1  0  0  0  0  0999 V2000
  -29.1650  -22.8880   20.4120 C   0  0  0  0  0  3  0  0  0  0  0  0
  -29.5670  -19.9700   20.9000 C   0  0  0  0  0  0  0  0  0  0  0  0
  -28.9210  -21.2140   20.3740 N   0  0  0  0  0  0  0  0  0  0  0  0
  -30.3900  -20.1510   21.7960 O   0  0  0  0  0  0  0  0  0  0  0  0
  -28.1940  -20.9770   19.7100 H   0  0  0  0  0  0  0  0  0  0  0  0
  -29.4120  -18.2710   20.4380 C   0  0  0  0  0  0  0  0  0  0  0  0
  -30.5260  -15.5350   21.1360 C   0  0  0  0  0  0  0  0  0  0  0  0
  -30.7470  -13.0250   20.4860 C   0  0  0  0  0  2  0  0  0  0  0  0
  -30.0190  -12.7020   19.1540 C   0  0  0  0  0  2  0  0  0  0  0  0
  -28.5360  -12.3830   19.4090 C   0  0  0  0  0  2  0  0  0  0  0  0
  -27.8960  -13.3870   20.3960 C   0  0  0  0  0  3  0  0  0  0  0  0
  -28.7670  -13.6570   21.6430 C   0  0  0  0  0  2  0  0  0  0  0  0
  -30.0540  -14.1880   21.1620 N   0  0  0  0  0  0  0  0  0  0  0  0
  -31.7520  -15.5980   20.9660 O   0  0  0  0  0  0  0  0  0  0  0  0
  -29.6490  -16.7390   21.1210 N   0  0  0  0  0  4  0  0  0  0  0  0
  -28.7580  -16.4440   21.4930 H   0  0  0  0  0  0  0  0  0  0  0  0
  -25.4370  -13.8830   20.8520 C   0  0  0  0  0  0  0  0  0  0  0  0
  -24.3600  -13.0800   21.0960 C   0  0  0  0  0  0  0  0  0  0  0  0
  -24.8620  -11.7440   21.1330 C   0  0  0  0  0  0  0  0  0  0  0  0
  -26.5250  -13.0360   20.7380 N   0  0  0  0  0  0  0  0  0  0  0  0
  -26.1820  -11.7420   20.9750 N   0  0  0  0  0  0  0  0  0  0  0  0
  -24.1500  -10.4630   21.2450 C   0  0  0  0  0  0  0  0  0  0  0  0
  -24.5180   -9.4920   22.2030 C   0  0  0  0  0  3  0  0  0  0  0  0
  -23.8010   -8.2800   22.3050 C   0  0  0  0  0  3  0  0  0  0  0  0
  -22.7040   -8.0290   21.4470 C   0  0  0  0  0  0  0  0  0  0  0  0
  -22.3570   -8.9890   20.4800 C   0  0  0  0  0  3  0  0  0  0  0  0
  -23.0740  -10.1920   20.3750 C   0  0  0  0  0  3  0  0  0  0  0  0
  -21.9670   -6.8690   21.4570 O   0  0  0  0  0  0  0  0  0  0  0  0
  -21.8580   -6.0930   22.5820 C   0  0  0  0  0  0  0  0  0  0  0  0
  -21.3340   -6.6030   23.7900 C   0  0  0  0  0  3  0  0  0  0  0  0
  -21.1770   -5.7540   24.9040 C   0  0  0  0  0  3  0  0  0  0  0  0
  -21.5340   -4.3950   24.8080 C   0  0  0  0  0  0  0  0  0  0  0  0
  -22.0520   -3.8840   23.6050 C   0  0  0  0  0  3  0  0  0  0  0  0
  -22.2100   -4.7310   22.4950 C   0  0  0  0  0  0  0  0  0  0  0  0
  -22.6910   -4.2290   21.3310 F   0  0  0  0  0  0  0  0  0  0  0  0
  -21.3770   -3.5770   25.8760 F   0  0  0  0  0  0  0  0  0  0  0  0
  -22.9280  -13.5230   21.1910 C   0  0  0  0  0  0  0  0  0  0  0  0
  -22.1200  -12.8210   21.9760 N   0  0  0  0  0  0  0  0  0  0  0  0
  -22.5310  -14.5270   20.6020 O   0  0  0  0  0  0  0  0  0  0  0  0
  -22.4520  -12.0100   22.4750 H   0  0  0  0  0  0  0  0  0  0  0  0
  -21.1540  -13.0980   22.0780 H   0  0  0  0  0  0  0  0  0  0  0  0
  -25.5860  -15.2550   20.6870 N   0  0  0  0  0  0  0  0  0  0  0  0
  -24.7940  -15.8870   20.6810 H   0  0  0  0  0  0  0  0  0  0  0  0
  -26.4450  -15.7000   20.3960 H   0  0  0  0  0  0  0  0  0  0  0  0
  -30.9620  -17.9630   18.4330 C   0  0  0  0  0  1  0  0  0  0  0  0
  -29.5080  -18.1490   18.8870 C   0  0  0  0  0  3  0  0  0  0  0  0
  -27.1050  -17.2560   18.4500 C   0  0  0  0  0  1  0  0  0  0  0  0
  -28.6130  -17.0530   18.2490 C   0  0  0  0  0  2  0  0  0  0  0  0
  -30.1780  -23.1970   19.2750 C   0  0  0  0  0  2  0  0  0  0  0  0
  -32.4560  -22.8490   20.3930 C   0  0  0  0  0  1  0  0  0  0  0  0
  -32.2180  -22.6250   17.8910 C   0  0  0  0  0  1  0  0  0  0  0  0
  -31.5200  -22.4300   19.2460 C   0  0  0  0  0  3  0  0  0  0  0  0
  -28.0580  -24.3300   20.2830 C   0  0  0  0  0  2  0  0  0  0  0  0
  -28.2800  -25.9790   20.3160 O   0  0  0  0  0  0  0  0  0  0  0  0
  -24.6530  -31.9240   23.3030 C   0  0  0  0  0  0  0  0  0  0  0  0
  -27.2580  -27.0740   20.2630 C   0  0  0  0  0  0  0  0  0  0  0  0
  -23.4800  -30.5350   21.6440 C   0  0  0  0  0  3  0  0  0  0  0  0
  -24.9480  -28.9500   20.2160 C   0  0  0  0  0  0  0  0  0  0  0  0
  -26.0460  -30.7610   21.5170 C   0  0  0  0  0  2  0  0  0  0  0  0
  -26.1300  -29.3560   20.8470 C   0  0  0  0  0  0  0  0  0  0  0  0
  -27.2800  -28.4420   20.8410 C   0  0  0  0  0  3  0  0  0  0  0  0
  -26.0430  -26.8230   19.5880 C   0  0  0  0  0  3  0  0  0  0  0  0
  -24.9310  -27.7040   19.5660 C   0  0  0  0  0  3  0  0  0  0  0  0
  -23.7240  -29.8650   20.2640 C   0  0  0  0  0  2  0  0  0  0  0  0
  -24.7480  -31.0990   22.2090 N   0  0  0  0  0  0  0  0  0  0  0  0
  -23.5590  -32.2030   23.8180 O   0  0  0  0  0  0  0  0  0  0  0  0
  -22.7830  -29.5280   22.5960 C   0  0  0  0  0  0  0  0  0  0  0  0
  -21.4540  -29.3590   22.4610 N   0  0  0  0  0  0  0  0  0  0  0  0
  -23.4450  -28.9000   23.4260 O   0  0  0  0  0  0  0  0  0  0  0  0
  -20.9720  -29.9170   21.7700 H   0  0  0  0  0  0  0  0  0  0  0  0
  -18.0770  -28.1140   22.9220 C   0  0  0  0  0  0  0  0  0  0  0  0
  -20.6290  -28.4110   23.2190 C   0  0  0  0  0  3  0  0  0  0  0  0
  -20.7570  -26.9820   22.6410 C   0  0  0  0  0  2  0  0  0  0  0  0
  -19.6720  -26.6500   21.6120 C   0  0  0  0  0  2  0  0  0  0  0  0
  -18.2800  -26.7710   22.2390 C   0  0  0  0  0  2  0  0  0  0  0  0
  -19.1790  -28.8910   23.3680 C   0  0  0  0  0  0  0  0  0  0  0  0
  -18.9350  -30.1440   23.9690 C   0  0  0  0  0  3  0  0  0  0  0  0
  -17.6210  -30.6210   24.1290 C   0  0  0  0  0  3  0  0  0  0  0  0
  -16.5320  -29.8430   23.6980 C   0  0  0  0  0  3  0  0  0  0  0  0
  -16.7620  -28.5900   23.0990 C   0  0  0  0  0  3  0  0  0  0  0  0
  -25.9160  -32.5680   23.9510 C   0  0  0  0  0  3  0  0  0  0  0  0
  -26.4230  -31.7870   25.2270 C   0  0  1  0  0  0  0  0  0  0  0  0
  -25.3210  -31.5350   26.2830 C   0  0  0  0  0  1  0  0  0  0  0  0
  -27.0170  -30.4130   24.8380 C   0  0  0  0  0  1  0  0  0  0  0  0
  -27.5650  -32.5780   25.9070 C   0  0  0  0  0  1  0  0  0  0  0  0
  -25.5840  -33.9580   24.3080 N   0  0  0  0  0  0  0  0  0  0  0  0
  -25.9350  -35.0390   23.5970 C   0  0  0  0  0  0  0  0  0  0  0  0
  -26.6360  -34.9700   22.5850 O   0  0  0  0  0  0  0  0  0  0  0  0
  -24.9630  -34.0840   25.0940 H   0  0  0  0  0  0  0  0  0  0  0  0
  -24.2220  -36.8520   23.2510 C   0  0  0  0  0  1  0  0  0  0  0  0
  -25.4360  -36.4150   24.0870 C   0  0  0  0  0  3  0  0  0  0  0  0
  -27.5430  -37.2710   25.0160 C   0  0  0  0  0  1  0  0  0  0  0  0
  -26.4720  -37.4710   24.0430 N   0  0  0  0  0  0  0  0  0  0  0  0
  -26.0630  -38.3860   24.2050 H   0  0  0  0  0  0  0  0  0  0  0  0
  1 49  1  0
  2  4  2  0
  3  1  1  0
  3  2  1  0
  5  3  1  0
  6  2  1  0
  6 15  2  3
  7 13  1  0
  8 13  1  0
  9 10  1  0
  9  8  1  0
 11 10  1  0
 11 20  1  0
 11 12  1  0
 13 12  1  0
 14  7  2  0
 15  7  1  0
 15 16  1  0
 17 18  2  0
 18 19  1  0
 18 37  1  0
 19 22  1  0
 20 17  1  0
 20 21  1  0
 21 19  2  0
 22 23  1  0
 23 24  2  0
 25 28  1  0
 25 24  1  0
 26 25  2  0
 27 26  1  0
 27 22  2  0
 28 29  1  0
 29 30  1  0
 30 31  2  0
 32 31  1  0
 32 36  1  0
 33 32  2  0
 34 29  2  0
 34 33  1  0
 35 34  1  0
 37 38  1  0
 38 41  1  0
 38 40  1  0
 39 37  2  0
 42 17  1  0
 43 42  1  0
 44 42  1  0
 46 45  1  0
 46  6  1  0
 48 47  1  0
 48 46  1  0
 51 52  1  0
 52 49  1  0
 52 50  1  0
 53 54  1  0
 53  1  1  0
 55 66  2  0
 56 54  1  0
 56 61  1  0
 57 65  1  0
 57 67  1  0
 58 64  1  0
 58 60  1  0
 59 65  1  0
 60 59  1  0
 61 60  2  0
 62 56  2  0
 63 62  1  0
 63 58  2  0
 64 57  1  0
 65 55  1  0
 67 69  2  0
 68 67  1  0
 70 68  1  0
 71 80  2  0
 71 76  1  0
 72 68  1  0
 72 76  1  0
 73 72  1  0
 74 75  1  0
 74 73  1  0
 75 71  1  0
 76 77  2  0
 77 78  1  0
 79 78  2  0
 80 79  1  0
 81 55  1  0
 81 86  1  0
 81 82  1  0
 82 85  1  1
 82 83  1  0
 84 82  1  0
 86 89  1  0
 87 91  1  0
 87 86  1  0
 88 87  2  0
 91 90  1  0
 93 91  1  0
 93 94  1  0
 93 92  1  0
M  ISO  4   7 100  15 100  53 101  54 101
M  END
>  <TORSDO>  (93) 
F 23

>  <SCORE>  (93) 
-13.835

>  <name>  (93) 
95

>  <ligand_id>  (93) 
95

>  <original_smiles>  (93) 
[H]c1c([H])c([H])c2c(c1[H])C([H])([H])C([H])([H])C([H])([H])C2([H])N([H])C(=O)C1([H])N(C(=O)C([H])(N([H])C(=O)C([H])(N([H])C([H])([H])[H])C([H])([H])[H])C(C([H])([H])[H])(C([H])([H])[H])C([H])([H])[H])C([H])([H])c2c([H])c(OC([H])([H])C([H])(N([H])C(=O)C([H])(N([H])C(=O)N3C([H])([H])C([H])([H])C([H])([H])C([H])(n4nc(-c5c([H])c([H])c(Oc6c([H])c([H])c(F)c([H])c6F)c([H])c5[H])c(C(=O)N([H])[H])c4N([H])[H])C3([H])[H])C([H])(C([H])([H])[H])C([H])([H])C([H])([H])[H])C([H])([H])C([H])(C([H])([H])[H])C([H])([H])[H])c([H])c([H])c2C1([H])[H]

>  <smiles>  (93) 
[H]c1c([H])c([H])c2c(c1[H])C([H])([H])C([H])([H])C([H])([H])C2([H])N([H])C(=O)C1([H])N(C(=O)C([H])(N([H])C(=O)C([H])(N([H])C([H])([H])[H])C([H])([H])[H])C(C([H])([H])[H])(C([H])([H])[H])C([H])([H])[H])C([H])([H])c2c([H])c(OC([H])([H])C([H])(N([H])C(=O)C([H])(N([H])C(=O)N3C([H])([H])C([H])([H])C([H])([H])C([H])(n4nc(-c5c([H])c([H])c(Oc6c([H])c([H])c(F)c([H])c6F)c([H])c5[H])c(C(=O)N([H])[H])c4N([H])[H])C3([H])[H])C([H])(C([H])([H])[H])C([H])([H])C([H])([H])[H])C([H])([H])C([H])(C([H])([H])[H])C([H])([H])[H])c([H])c([H])c2C1([H])[H]

$$$$
96:0:0
     RDKit          3D

 99108  0  0  1  0  0  0  0  0999 V2000
  -30.6730  -20.6540   19.5720 C   0  0  0  0  0  3  0  0  0  0  0  0
  -29.5610  -22.9220   19.6600 C   0  0  0  0  0  0  0  0  0  0  0  0
  -30.1950  -23.0060   22.4890 C   0  0  0  0  0  2  0  0  0  0  0  0
  -29.2230  -24.0610   21.9580 C   0  0  0  0  0  2  0  0  0  0  0  0
  -29.9890  -21.6700   21.7600 C   0  0  0  0  0  2  0  0  0  0  0  0
  -29.3760  -24.2720   20.4390 C   0  0  0  0  0  3  0  0  0  0  0  0
  -30.0410  -21.8030   20.2970 N   0  0  0  0  0  0  0  0  0  0  0  0
  -29.3580  -22.9330   18.4440 O   0  0  0  0  0  0  0  0  0  0  0  0
  -28.2420  -25.1940   19.8710 C   0  0  0  0  0  2  0  0  0  0  0  0
  -28.3370  -26.6020   20.2190 O   0  0  0  0  0  0  0  0  0  0  0  0
  -24.5920  -31.8870   23.2360 C   0  0  0  0  0  0  0  0  0  0  0  0
  -27.1800  -27.3750   20.1660 C   0  0  0  0  0  0  0  0  0  0  0  0
  -23.3680  -30.4920   21.6050 C   0  0  0  0  0  3  0  0  0  0  0  0
  -24.8030  -28.9420   20.1700 C   0  0  0  0  0  0  0  0  0  0  0  0
  -25.9000  -30.8160   21.4000 C   0  0  0  0  0  2  0  0  0  0  0  0
  -25.9700  -29.4420   20.7600 C   0  0  0  0  0  0  0  0  0  0  0  0
  -27.1580  -28.6660   20.7560 C   0  0  0  0  0  3  0  0  0  0  0  0
  -25.9910  -26.9090   19.5540 C   0  0  0  0  0  3  0  0  0  0  0  0
  -24.8110  -27.6760   19.5620 C   0  0  0  0  0  3  0  0  0  0  0  0
  -23.5670  -29.8140   20.2230 C   0  0  0  0  0  2  0  0  0  0  0  0
  -24.6390  -31.0810   22.1370 N   0  0  0  0  0  0  0  0  0  0  0  0
  -23.5150  -32.1700   23.7800 O   0  0  0  0  0  0  0  0  0  0  0  0
  -22.7120  -29.4770   22.5690 C   0  0  0  0  0  0  0  0  0  0  0  0
  -21.3860  -29.3020   22.4450 N   0  0  0  0  0  0  0  0  0  0  0  0
  -23.3930  -28.8500   23.3850 O   0  0  0  0  0  0  0  0  0  0  0  0
  -20.8980  -29.8590   21.7570 H   0  0  0  0  0  0  0  0  0  0  0  0
  -18.0060  -28.1260   22.9520 C   0  0  0  0  0  0  0  0  0  0  0  0
  -20.5660  -28.3740   23.2220 C   0  0  0  0  0  3  0  0  0  0  0  0
  -20.6620  -26.9390   22.6550 C   0  0  0  0  0  2  0  0  0  0  0  0
  -19.5590  -26.6160   21.6420 C   0  0  0  0  0  2  0  0  0  0  0  0
  -18.1760  -26.7720   22.2830 C   0  0  0  0  0  2  0  0  0  0  0  0
  -19.1280  -28.8850   23.3780 C   0  0  0  0  0  0  0  0  0  0  0  0
  -18.9160  -30.1520   23.9610 C   0  0  0  0  0  3  0  0  0  0  0  0
  -17.6130  -30.6620   24.1220 C   0  0  0  0  0  3  0  0  0  0  0  0
  -16.5060  -29.8990   23.7120 C   0  0  0  0  0  3  0  0  0  0  0  0
  -16.7030  -28.6340   23.1320 C   0  0  0  0  0  3  0  0  0  0  0  0
  -25.8850  -32.5080   23.8490 C   0  0  0  0  0  3  0  0  0  0  0  0
  -25.5860  -33.9070   24.1850 N   0  0  0  0  0  0  0  0  0  0  0  0
  -25.9190  -34.9590   23.4250 C   0  0  0  0  0  0  0  0  0  0  0  0
  -26.5820  -34.8550   22.3880 O   0  0  0  0  0  0  0  0  0  0  0  0
  -24.9960  -34.0620   24.9890 H   0  0  0  0  0  0  0  0  0  0  0  0
  -24.1960  -36.7610   23.0830 C   0  0  0  0  0  1  0  0  0  0  0  0
  -25.4400  -36.3500   23.8870 C   0  0  0  0  0  3  0  0  0  0  0  0
  -27.5870  -37.2200   24.7030 C   0  0  0  0  0  1  0  0  0  0  0  0
  -26.4780  -37.3980   23.7690 N   0  0  0  0  0  0  0  0  0  0  0  0
  -26.0790  -38.3210   23.9200 H   0  0  0  0  0  0  0  0  0  0  0  0
  -26.4080  -31.7300   25.1180 C   0  0  1  0  0  0  0  0  0  0  0  0
  -25.3220  -31.5000   26.1960 C   0  0  0  0  0  1  0  0  0  0  0  0
  -26.9790  -30.3490   24.7190 C   0  0  0  0  0  1  0  0  0  0  0  0
  -27.5700  -32.5150   25.7700 C   0  0  0  0  0  1  0  0  0  0  0  0
  -32.2210  -20.6170   19.6880 C   0  0  0  0  0  2  0  0  0  0  0  0
  -34.4000  -22.7810   16.6120 C   0  0  0  0  0  3  0  0  0  0  0  0
  -34.3590  -21.3760   16.5940 C   0  0  0  0  0  3  0  0  0  0  0  0
  -33.7150  -23.4930   17.6170 C   0  0  0  0  0  3  0  0  0  0  0  0
  -33.6400  -20.6810   17.5840 C   0  0  0  0  0  3  0  0  0  0  0  0
  -33.0030  -22.7980   18.6150 C   0  0  0  0  0  3  0  0  0  0  0  0
  -32.9620  -21.3880   18.6040 C   0  0  0  0  0  0  0  0  0  0  0  0
  -29.9480  -19.2550   19.6050 C   0  0  0  0  0  2  0  0  0  0  0  0
  -31.4760  -17.9920   21.3710 C   0  0  0  0  0  1  0  0  0  0  0  0
  -30.0940  -18.1420   20.7160 C   0  0  0  0  0  3  0  0  0  0  0  0
  -29.6530  -16.7760   20.0820 C   0  0  0  0  0  2  0  0  0  0  0  0
  -30.6110  -14.4970   20.4330 C   0  0  0  0  0  0  0  0  0  0  0  0
  -30.3560  -12.3160   19.3100 C   0  0  0  0  0  2  0  0  0  0  0  0
  -29.4160  -12.5280   18.1040 C   0  0  0  0  0  2  0  0  0  0  0  0
  -27.9390  -12.3910   18.5240 C   0  0  0  0  0  2  0  0  0  0  0  0
  -27.6010  -13.2190   19.7940 C   0  0  0  0  0  3  0  0  0  0  0  0
  -28.6510  -12.9840   20.9040 C   0  0  0  0  0  2  0  0  0  0  0  0
  -29.9820  -13.2920   20.3500 N   0  0  0  0  0  0  0  0  0  0  0  0
  -31.7270  -14.6990   19.9450 O   0  0  0  0  0  0  0  0  0  0  0  0
  -29.8290  -15.5200   20.8490 N   0  0  0  0  0  0  0  0  0  0  0  0
  -29.0120  -15.2280   21.3640 H   0  0  0  0  0  0  0  0  0  0  0  0
  -25.2030  -13.8400   20.4930 C   0  0  0  0  0  0  0  0  0  0  0  0
  -24.1320  -13.0730   20.8670 C   0  0  0  0  0  0  0  0  0  0  0  0
  -24.5890  -11.7190   20.8420 C   0  0  0  0  0  0  0  0  0  0  0  0
  -26.2450  -12.9530   20.2680 N   0  0  0  0  0  0  0  0  0  0  0  0
  -25.8780  -11.6730   20.5330 N   0  0  0  0  0  0  0  0  0  0  0  0
  -23.8590  -10.4600   21.0380 C   0  0  0  0  0  0  0  0  0  0  0  0
  -24.3010   -9.4890   21.9630 C   0  0  0  0  0  3  0  0  0  0  0  0
  -23.5750   -8.2940   22.1490 C   0  0  0  0  0  3  0  0  0  0  0  0
  -22.3920   -8.0600   21.4080 C   0  0  0  0  0  0  0  0  0  0  0  0
  -21.9680   -9.0200   20.4720 C   0  0  0  0  0  3  0  0  0  0  0  0
  -22.6940  -10.2070   20.2870 C   0  0  0  0  0  3  0  0  0  0  0  0
  -21.6340   -6.9170   21.5030 O   0  0  0  0  0  0  0  0  0  0  0  0
  -21.6080   -6.1650   22.6490 C   0  0  0  0  0  0  0  0  0  0  0  0
  -21.2250   -6.7120   23.8940 C   0  0  0  0  0  3  0  0  0  0  0  0
  -21.1450   -5.8850   25.0310 C   0  0  0  0  0  3  0  0  0  0  0  0
  -21.4390   -4.5120   24.9280 C   0  0  0  0  0  0  0  0  0  0  0  0
  -21.8130   -3.9630   23.6890 C   0  0  0  0  0  3  0  0  0  0  0  0
  -21.8960   -4.7860   22.5520 C   0  0  0  0  0  0  0  0  0  0  0  0
  -22.2380   -4.2490   21.3560 F   0  0  0  0  0  0  0  0  0  0  0  0
  -21.3550   -3.7160   26.0190 F   0  0  0  0  0  0  0  0  0  0  0  0
  -22.7360  -13.5550   21.1380 C   0  0  0  0  0  0  0  0  0  0  0  0
  -22.0080  -12.8670   22.0100 N   0  0  0  0  0  0  0  0  0  0  0  0
  -22.3010  -14.5770   20.6110 O   0  0  0  0  0  0  0  0  0  0  0  0
  -22.3720  -12.0410   22.4610 H   0  0  0  0  0  0  0  0  0  0  0  0
  -21.0700  -13.1730   22.2290 H   0  0  0  0  0  0  0  0  0  0  0  0
  -25.3740  -15.2080   20.3090 N   0  0  0  0  0  0  0  0  0  0  0  0
  -24.6080  -15.8670   20.4060 H   0  0  0  0  0  0  0  0  0  0  0  0
  -26.2250  -15.6380   19.9720 H   0  0  0  0  0  0  0  0  0  0  0  0
  1 58  1  0
  1 51  1  0
  1  7  1  0
  2  7  1  0
  2  6  1  0
  4  3  1  0
  5  3  1  0
  6  9  1  0
  6  4  1  0
  7  5  1  0
  8  2  2  0
  9 10  1  0
 11 22  2  0
 12 10  1  0
 12 17  1  0
 13 21  1  0
 13 23  1  0
 14 20  1  0
 14 16  1  0
 15 21  1  0
 16 15  1  0
 17 16  2  0
 18 19  1  0
 18 12  2  0
 19 14  2  0
 20 13  1  0
 21 11  1  0
 23 25  2  0
 24 23  1  0
 26 24  1  0
 27 36  2  0
 27 32  1  0
 28 24  1  0
 28 32  1  0
 29 28  1  0
 30 31  1  0
 30 29  1  0
 31 27  1  0
 32 33  2  0
 33 34  1  0
 35 34  2  0
 36 35  1  0
 37 11  1  0
 37 38  1  0
 37 47  1  0
 38 41  1  0
 39 43  1  0
 39 38  1  0
 40 39  2  0
 43 42  1  0
 45 43  1  0
 45 46  1  0
 45 44  1  0
 47 50  1  1
 47 48  1  0
 49 47  1  0
 52 54  1  0
 53 52  2  0
 53 55  1  0
 54 56  2  0
 55 57  2  0
 57 56  1  0
 57 51  1  0
 58 60  1  0
 60 59  1  0
 61 60  1  0
 61 70  1  0
 62 70  1  0
 63 68  1  0
 64 65  1  0
 64 63  1  0
 66 65  1  0
 66 75  1  0
 66 67  1  0
 68 62  1  0
 68 67  1  0
 69 62  2  0
 70 71  1  0
 72 73  2  0
 73 92  1  0
 74 73  1  0
 74 77  1  0
 75 72  1  0
 75 76  1  0
 76 74  2  0
 77 78  1  0
 78 79  2  0
 80 83  1  0
 80 79  1  0
 81 80  2  0
 82 81  1  0
 82 77  2  0
 83 84  1  0
 84 85  1  0
 85 86  2  0
 87 86  1  0
 87 91  1  0
 88 87  2  0
 89 84  2  0
 89 88  1  0
 90 89  1  0
 92 93  1  0
 93 96  1  0
 93 95  1  0
 94 92  2  0
 97 98  1  0
 97 72  1  0
 99 97  1  0
M  ISO  4   9 101  10 101  62 100  70 100
M  END
>  <TORSDO>  (94) 
F 23

>  <SCORE>  (94) 
-13.136

>  <name>  (94) 
96

>  <ligand_id>  (94) 
96

>  <original_smiles>  (94) 
[H]c1c([H])c([H])c(C([H])([H])C([H])(N2C(=O)C([H])(C([H])([H])Oc3c([H])c([H])c4c(c3[H])C([H])([H])N(C(=O)C([H])(N([H])C(=O)C([H])(N([H])C([H])([H])[H])C([H])([H])[H])C(C([H])([H])[H])(C([H])([H])[H])C([H])([H])[H])C([H])(C(=O)N([H])C3([H])c5c([H])c([H])c([H])c([H])c5C([H])([H])C([H])([H])C3([H])[H])C4([H])[H])C([H])([H])C([H])([H])C2([H])[H])C([H])([H])C([H])(C([H])([H])[H])C([H])([H])N([H])C(=O)N2C([H])([H])C([H])([H])C([H])([H])C([H])(n3nc(-c4c([H])c([H])c(Oc5c([H])c([H])c(F)c([H])c5F)c([H])c4[H])c(C(=O)N([H])[H])c3N([H])[H])C2([H])[H])c([H])c1[H]

>  <smiles>  (94) 
[H]c1c([H])c([H])c(C([H])([H])C([H])(N2C(=O)C([H])(C([H])([H])Oc3c([H])c([H])c4c(c3[H])C([H])([H])N(C(=O)C([H])(N([H])C(=O)C([H])(N([H])C([H])([H])[H])C([H])([H])[H])C(C([H])([H])[H])(C([H])([H])[H])C([H])([H])[H])C([H])(C(=O)N([H])C3([H])c5c([H])c([H])c([H])c([H])c5C([H])([H])C([H])([H])C3([H])[H])C4([H])[H])C([H])([H])C([H])([H])C2([H])[H])C([H])([H])C([H])(C([H])([H])[H])C([H])([H])N([H])C(=O)N2C([H])([H])C([H])([H])C([H])([H])C([H])(n3nc(-c4c([H])c([H])c(Oc5c([H])c([H])c(F)c([H])c5F)c([H])c4[H])c(C(=O)N([H])[H])c3N([H])[H])C2([H])[H])c([H])c1[H]

$$$$
