0:0:0
     RDKit          3D

 90 97  0  0  1  0  0  0  0  0999 V2000
  -28.7860  -21.3560   19.8000 C   0  0  0  0  0  2  0  0  0  0  0  0
  -28.7040  -23.0000   20.4300 C   0  0  0  0  0  0  0  0  0  0  0  0
  -29.4330  -23.2140   21.4020 O   0  0  0  0  0  0  0  0  0  0  0  0
  -27.7570  -24.3870   19.9700 C   0  0  0  0  0  2  0  0  0  0  0  0
  -27.9600  -25.9540   20.4150 O   0  0  0  0  0  0  0  0  0  0  0  0
  -24.4900  -31.9500   23.3370 C   0  0  0  0  0  0  0  0  0  0  0  0
  -26.9690  -27.0570   20.3150 C   0  0  0  0  0  0  0  0  0  0  0  0
  -23.2680  -30.5660   21.7100 C   0  0  0  0  0  3  0  0  0  0  0  0
  -24.6890  -28.9480   20.2760 C   0  0  0  0  0  0  0  0  0  0  0  0
  -25.8330  -30.7540   21.5430 C   0  0  0  0  0  2  0  0  0  0  0  0
  -25.8840  -29.3450   20.8890 C   0  0  0  0  0  0  0  0  0  0  0  0
  -27.0180  -28.4190   20.8880 C   0  0  0  0  0  3  0  0  0  0  0  0
  -25.7500  -26.8100   19.6430 C   0  0  0  0  0  3  0  0  0  0  0  0
  -24.6460  -27.6990   19.6330 C   0  0  0  0  0  3  0  0  0  0  0  0
  -23.4790  -29.8790   20.3330 C   0  0  0  0  0  2  0  0  0  0  0  0
  -24.5530  -31.1160   22.2510 N   0  0  0  0  0  0  0  0  0  0  0  0
  -23.4090  -32.2540   23.8670 O   0  0  0  0  0  0  0  0  0  0  0  0
  -22.5710  -29.5790   22.6820 C   0  0  0  0  0  0  0  0  0  0  0  0
  -21.2480  -29.3810   22.5280 N   0  0  0  0  0  0  0  0  0  0  0  0
  -23.2280  -28.9880   23.5440 O   0  0  0  0  0  0  0  0  0  0  0  0
  -20.7700  -29.9100   21.8110 H   0  0  0  0  0  0  0  0  0  0  0  0
  -17.8940  -28.0660   22.9370 C   0  0  0  0  0  0  0  0  0  0  0  0
  -20.4260  -28.4460   23.3020 C   0  0  0  0  0  3  0  0  0  0  0  0
  -20.6080  -26.9940   22.7990 C   0  0  0  0  0  2  0  0  0  0  0  0
  -19.5680  -26.5830   21.7520 C   0  0  0  0  0  2  0  0  0  0  0  0
  -18.1530  -26.6970   22.3270 C   0  0  0  0  0  2  0  0  0  0  0  0
  -18.9610  -28.8920   23.3800 C   0  0  0  0  0  0  0  0  0  0  0  0
  -18.6630  -30.1650   23.9120 C   0  0  0  0  0  3  0  0  0  0  0  0
  -17.3320  -30.6140   24.0060 C   0  0  0  0  0  3  0  0  0  0  0  0
  -16.2800  -29.7870   23.5750 C   0  0  0  0  0  3  0  0  0  0  0  0
  -16.5610  -28.5150   23.0460 C   0  0  0  0  0  3  0  0  0  0  0  0
  -25.7750  -32.5790   23.9590 C   0  0  0  0  0  3  0  0  0  0  0  0
  -26.2580  -31.8350   25.2660 C   0  0  1  0  0  0  0  0  0  0  0  0
  -25.1410  -31.6430   26.3200 C   0  0  0  0  0  1  0  0  0  0  0  0
  -26.8280  -30.4380   24.9300 C   0  0  0  0  0  1  0  0  0  0  0  0
  -27.4100  -32.6310   25.9250 C   0  0  0  0  0  1  0  0  0  0  0  0
  -25.4870  -33.9930   24.2580 N   0  0  0  0  0  0  0  0  0  0  0  0
  -25.8340  -35.0280   23.4810 C   0  0  0  0  0  0  0  0  0  0  0  0
  -26.4890  -34.8910   22.4450 O   0  0  0  0  0  0  0  0  0  0  0  0
  -24.9050  -34.1740   25.0620 H   0  0  0  0  0  0  0  0  0  0  0  0
  -24.1320  -36.8510   23.1280 C   0  0  0  0  0  1  0  0  0  0  0  0
  -25.3810  -36.4360   23.9200 C   0  0  0  0  0  3  0  0  0  0  0  0
  -27.5490  -37.3010   24.6860 C   0  0  0  0  0  1  0  0  0  0  0  0
  -26.4310  -37.4670   23.7630 N   0  0  0  0  0  0  0  0  0  0  0  0
  -26.0440  -38.3970   23.9000 H   0  0  0  0  0  0  0  0  0  0  0  0
  -31.1750  -20.8300   20.3240 C   0  0  0  0  0  1  0  0  0  0  0  0
  -29.8550  -20.0030   20.3080 C   0  0  0  0  0  3  0  0  0  0  0  0
  -30.5020  -18.3010   19.9760 C   0  0  0  0  0  3  0  0  0  0  0  0
  -30.7410  -15.4370   19.6340 C   0  0  0  0  0  0  0  0  0  0  0  0
  -30.6610  -12.9370   18.9550 C   0  0  0  0  0  2  0  0  0  0  0  0
  -29.6840  -12.6250   17.7950 C   0  0  0  0  0  2  0  0  0  0  0  0
  -28.2660  -12.3860   18.3360 C   0  0  0  0  0  2  0  0  0  0  0  0
  -27.8610  -13.4400   19.3970 C   0  0  0  0  0  3  0  0  0  0  0  0
  -28.9640  -13.7060   20.4440 C   0  0  0  0  0  2  0  0  0  0  0  0
  -30.1530  -14.1460   19.6990 N   0  0  0  0  0  0  0  0  0  0  0  0
  -31.9450  -15.3960   19.3500 O   0  0  0  0  0  0  0  0  0  0  0  0
  -30.0260  -16.7340   19.7120 N   0  0  0  0  0  0  0  0  0  0  0  0
  -29.0270  -16.6160   19.7710 H   0  0  0  0  0  0  0  0  0  0  0  0
  -25.5820  -14.0530   20.3590 C   0  0  0  0  0  0  0  0  0  0  0  0
  -24.5250  -13.3000   20.7840 C   0  0  0  0  0  0  0  0  0  0  0  0
  -24.9360  -11.9370   20.6670 C   0  0  0  0  0  0  0  0  0  0  0  0
  -26.5680  -13.1520   20.0020 N   0  0  0  0  0  0  0  0  0  0  0  0
  -26.1990  -11.8690   20.2560 N   0  0  0  0  0  0  0  0  0  0  0  0
  -24.1770  -10.6940   20.8670 C   0  0  0  0  0  0  0  0  0  0  0  0
  -24.5940   -9.7110   21.7910 C   0  0  0  0  0  3  0  0  0  0  0  0
  -23.8340   -8.5380   21.9800 C   0  0  0  0  0  3  0  0  0  0  0  0
  -22.6430   -8.3380   21.2430 C   0  0  0  0  0  0  0  0  0  0  0  0
  -22.2440   -9.3070   20.3070 C   0  0  0  0  0  3  0  0  0  0  0  0
  -23.0050  -10.4720   20.1170 C   0  0  0  0  0  3  0  0  0  0  0  0
  -21.8540   -7.2160   21.3420 O   0  0  0  0  0  0  0  0  0  0  0  0
  -21.7390   -6.5170   22.5160 C   0  0  0  0  0  0  0  0  0  0  0  0
  -21.2740   -7.1260   23.7030 C   0  0  0  0  0  3  0  0  0  0  0  0
  -21.1050   -6.3540   24.8710 C   0  0  0  0  0  3  0  0  0  0  0  0
  -21.3920   -4.9770   24.8520 C   0  0  0  0  0  0  0  0  0  0  0  0
  -21.8500   -4.3680   23.6710 C   0  0  0  0  0  3  0  0  0  0  0  0
  -22.0190   -5.1360   22.5060 C   0  0  0  0  0  0  0  0  0  0  0  0
  -22.4410   -4.5400   21.3630 F   0  0  0  0  0  0  0  0  0  0  0  0
  -21.2230   -4.2340   25.9710 F   0  0  0  0  0  0  0  0  0  0  0  0
  -23.1720  -13.8160   21.1740 C   0  0  0  0  0  0  0  0  0  0  0  0
  -22.4890  -13.1200   22.0780 N   0  0  0  0  0  0  0  0  0  0  0  0
  -22.7310  -14.8690   20.7170 O   0  0  0  0  0  0  0  0  0  0  0  0
  -22.8590  -12.2650   22.4670 H   0  0  0  0  0  0  0  0  0  0  0  0
  -21.5870  -13.4480   22.3870 H   0  0  0  0  0  0  0  0  0  0  0  0
  -25.7790  -15.4230   20.2160 N   0  0  0  0  0  0  0  0  0  0  0  0
  -25.0380  -16.0920   20.4010 H   0  0  0  0  0  0  0  0  0  0  0  0
  -26.5980  -15.8470   19.8030 H   0  0  0  0  0  0  0  0  0  0  0  0
  -30.7910  -17.0230   22.2320 C   0  0  0  0  0  1  0  0  0  0  0  0
  -31.3990  -18.0770   21.2800 C   0  0  0  0  0  3  0  0  0  0  0  0
  -33.6950  -18.8160   20.2680 C   0  0  0  0  0  1  0  0  0  0  0  0
  -32.9130  -17.7910   21.1010 C   0  0  0  0  0  2  0  0  0  0  0  0
  1 47  1  0
  1  2  1  0
  2  3  2  0
  4  5  1  0
  4  2  1  0
  6 17  2  0
  7  5  1  0
  7 12  1  0
  8 16  1  0
  8 18  1  0
  9 15  1  0
  9 11  1  0
 10 16  1  0
 11 10  1  0
 12 11  2  0
 13  7  2  0
 14 13  1  0
 14  9  2  0
 15  8  1  0
 16  6  1  0
 18 20  2  0
 19 18  1  0
 21 19  1  0
 22 31  2  0
 22 27  1  0
 23 19  1  0
 23 27  1  0
 24 23  1  0
 25 26  1  0
 25 24  1  0
 26 22  1  0
 27 28  2  0
 28 29  1  0
 30 29  2  0
 31 30  1  0
 32  6  1  0
 32 37  1  0
 32 33  1  0
 33 36  1  1
 33 34  1  0
 35 33  1  0
 37 40  1  0
 38 42  1  0
 38 37  1  0
 39 38  2  0
 42 41  1  0
 44 45  1  0
 44 42  1  0
 44 43  1  0
 47 46  1  0
 48 57  1  0
 48 47  1  0
 48 88  1  0
 49 55  1  0
 49 57  1  0
 50 55  1  0
 51 52  1  0
 51 50  1  0
 53 52  1  0
 53 62  1  0
 53 54  1  0
 55 54  1  0
 56 49  2  0
 57 58  1  0
 59 60  2  0
 60 79  1  0
 61 60  1  0
 61 64  1  0
 62 63  1  0
 62 59  1  0
 63 61  2  0
 64 65  1  0
 65 66  2  0
 67 70  1  0
 67 66  1  0
 68 67  2  0
 69 68  1  0
 69 64  2  0
 70 71  1  0
 71 72  1  0
 72 73  2  0
 74 73  1  0
 74 78  1  0
 75 74  2  0
 76 71  2  0
 76 75  1  0
 77 76  1  0
 79 80  1  0
 80 83  1  0
 80 82  1  0
 81 79  2  0
 84 59  1  0
 84 85  1  0
 86 84  1  0
 88 87  1  0
 89 90  1  0
 90 88  1  0
M  ISO  4   4 101   5 101  49 100  57 100
M  END
>  <TORSDO>  (1) 
F 22

>  <SCORE>  (1) 
-13.928

>  <name>  (1) 
0

>  <ligand_id>  (1) 
0

>  <original_smiles>  (1) 
[H]c1c([H])c([H])c2c(c1[H])C([H])([H])C([H])([H])C([H])([H])C2([H])N([H])C(=O)C1([H])N(C(=O)C([H])(N([H])C(=O)C([H])(N([H])C([H])([H])[H])C([H])([H])[H])C(C([H])([H])[H])(C([H])([H])[H])C([H])([H])[H])C([H])([H])c2c([H])c(OC([H])([H])C(=O)C([H])([H])C([H])(C([H])([H])[H])C([H])(N([H])C(=O)N3C([H])([H])C([H])([H])C([H])([H])C([H])(n4nc(-c5c([H])c([H])c(Oc6c([H])c([H])c(F)c([H])c6F)c([H])c5[H])c(C(=O)N([H])[H])c4N([H])[H])C3([H])[H])C([H])(C([H])([H])[H])C([H])([H])C([H])([H])[H])c([H])c([H])c2C1([H])[H]

>  <smiles>  (1) 
[H]c1c([H])c([H])c2c(c1[H])C([H])([H])C([H])([H])C([H])([H])C2([H])N([H])C(=O)C1([H])N(C(=O)C([H])(N([H])C(=O)C([H])(N([H])C([H])([H])[H])C([H])([H])[H])C(C([H])([H])[H])(C([H])([H])[H])C([H])([H])[H])C([H])([H])c2c([H])c(OC([H])([H])C(=O)C([H])([H])C([H])(C([H])([H])[H])C([H])(N([H])C(=O)N3C([H])([H])C([H])([H])C([H])([H])C([H])(n4nc(-c5c([H])c([H])c(Oc6c([H])c([H])c(F)c([H])c6F)c([H])c5[H])c(C(=O)N([H])[H])c4N([H])[H])C3([H])[H])C([H])(C([H])([H])[H])C([H])([H])C([H])([H])[H])c([H])c([H])c2C1([H])[H]

$$$$
1:0:0
     RDKit          3D

 94101  0  0  1  0  0  0  0  0999 V2000
  -29.6460  -21.0940   19.8720 C   0  0  0  0  0  0  0  0  0  0  0  0
  -29.8450  -21.0270   18.5450 N   0  0  0  0  0  4  0  0  0  0  0  0
  -29.2400  -22.3030   20.4410 N   0  0  0  0  0  0  0  0  0  0  0  0
  -30.1350  -20.1610   18.1100 H   0  0  0  0  0  0  0  0  0  0  0  0
  -29.7350  -21.8200   17.9290 H   0  0  0  0  0  0  0  0  0  0  0  0
  -29.1090  -22.2900   21.4450 H   0  0  0  0  0  0  0  0  0  0  0  0
  -29.9230  -19.8030   20.7300 C   0  0  0  0  0  2  0  0  0  0  0  0
  -30.6450  -18.4820   20.0760 C   0  0  0  0  0  2  0  0  0  0  0  0
  -30.1660  -16.9570   19.7020 C   0  0  0  0  0  3  0  0  0  0  0  0
  -31.4560  -14.5950   19.6220 C   0  0  0  0  0  0  0  0  0  0  0  0
  -31.1640  -12.2100   18.9180 C   0  0  0  0  0  2  0  0  0  0  0  0
  -30.1840  -12.1790   17.7230 C   0  0  0  0  0  2  0  0  0  0  0  0
  -28.7210  -12.1370   18.2060 C   0  0  0  0  0  2  0  0  0  0  0  0
  -28.4350  -13.1700   19.3290 C   0  0  0  0  0  3  0  0  0  0  0  0
  -29.5290  -13.1460   20.4220 C   0  0  0  0  0  2  0  0  0  0  0  0
  -30.8310  -13.3750   19.7720 N   0  0  0  0  0  0  0  0  0  0  0  0
  -32.5030  -14.6850   18.9750 O   0  0  0  0  0  0  0  0  0  0  0  0
  -30.8730  -15.6960   20.2110 N   0  0  0  0  0  0  0  0  0  0  0  0
  -30.3920  -15.3830   21.0400 H   0  0  0  0  0  0  0  0  0  0  0  0
  -26.1540  -13.9660   20.2040 C   0  0  0  0  0  0  0  0  0  0  0  0
  -25.0490  -13.2950   20.6480 C   0  0  0  0  0  0  0  0  0  0  0  0
  -25.3720  -11.9070   20.5530 C   0  0  0  0  0  0  0  0  0  0  0  0
  -27.0960  -12.9990   19.8910 N   0  0  0  0  0  0  0  0  0  0  0  0
  -26.6300  -11.7510   20.1510 N   0  0  0  0  0  0  0  0  0  0  0  0
  -24.5340  -10.7210   20.7640 C   0  0  0  0  0  0  0  0  0  0  0  0
  -24.9180   -9.6980   21.6580 C   0  0  0  0  0  3  0  0  0  0  0  0
  -24.0860   -8.5750   21.8590 C   0  0  0  0  0  3  0  0  0  0  0  0
  -22.8550   -8.4690   21.1670 C   0  0  0  0  0  0  0  0  0  0  0  0
  -22.4890   -9.4800   20.2610 C   0  0  0  0  0  3  0  0  0  0  0  0
  -23.3200  -10.5940   20.0580 C   0  0  0  0  0  3  0  0  0  0  0  0
  -21.9970   -7.4020   21.2780 O   0  0  0  0  0  0  0  0  0  0  0  0
  -21.8930   -6.6800   22.4410 C   0  0  0  0  0  0  0  0  0  0  0  0
  -21.5380   -7.2880   23.6650 C   0  0  0  0  0  3  0  0  0  0  0  0
  -21.3760   -6.4990   24.8210 C   0  0  0  0  0  3  0  0  0  0  0  0
  -21.5560   -5.1040   24.7530 C   0  0  0  0  0  0  0  0  0  0  0  0
  -21.9020   -4.4970   23.5340 C   0  0  0  0  0  3  0  0  0  0  0  0
  -22.0670   -5.2840   22.3800 C   0  0  0  0  0  0  0  0  0  0  0  0
  -22.3820   -4.6910   21.2020 F   0  0  0  0  0  0  0  0  0  0  0  0
  -21.3920   -4.3440   25.8610 F   0  0  0  0  0  0  0  0  0  0  0  0
  -23.7310  -13.9040   21.0340 C   0  0  0  0  0  0  0  0  0  0  0  0
  -23.0150  -13.2800   21.9620 N   0  0  0  0  0  0  0  0  0  0  0  0
  -23.3530  -14.9680   20.5490 O   0  0  0  0  0  0  0  0  0  0  0  0
  -23.3350  -12.4190   22.3810 H   0  0  0  0  0  0  0  0  0  0  0  0
  -22.1320  -13.6710   22.2560 H   0  0  0  0  0  0  0  0  0  0  0  0
  -26.4240  -15.3130   20.0170 N   0  0  0  0  0  0  0  0  0  0  0  0
  -25.7400  -16.0310   20.2180 H   0  0  0  0  0  0  0  0  0  0  0  0
  -27.2890  -15.6800   19.6440 H   0  0  0  0  0  0  0  0  0  0  0  0
  -28.3870  -16.5130   21.5430 C   0  0  0  0  0  1  0  0  0  0  0  0
  -28.6520  -16.6870   20.0280 C   0  0  0  0  0  3  0  0  0  0  0  0
  -26.1650  -17.2990   19.6370 C   0  0  0  0  0  1  0  0  0  0  0  0
  -27.6360  -17.6450   19.3500 C   0  0  0  0  0  2  0  0  0  0  0  0
  -29.0510  -23.7050   19.8310 C   0  0  0  0  0  2  0  0  0  0  0  0
  -28.3320  -24.8530   20.7110 C   0  0  0  0  0  2  0  0  0  0  0  0
  -28.5430  -26.3160   20.4420 O   0  0  0  0  0  0  0  0  0  0  0  0
  -24.6690  -31.7800   23.2350 C   0  0  0  0  0  0  0  0  0  0  0  0
  -27.4270  -27.1740   20.3690 C   0  0  0  0  0  0  0  0  0  0  0  0
  -23.5480  -30.3670   21.5490 C   0  0  0  0  0  3  0  0  0  0  0  0
  -25.0680  -28.7980   20.2130 C   0  0  0  0  0  0  0  0  0  0  0  0
  -26.0930  -30.6830   21.4850 C   0  0  0  0  0  2  0  0  0  0  0  0
  -26.2060  -29.2940   20.8610 C   0  0  0  0  0  0  0  0  0  0  0  0
  -27.3910  -28.4950   20.9250 C   0  0  0  0  0  3  0  0  0  0  0  0
  -26.2690  -26.7360   19.6930 C   0  0  0  0  0  3  0  0  0  0  0  0
  -25.1030  -27.5260   19.6180 C   0  0  0  0  0  3  0  0  0  0  0  0
  -23.8290  -29.6760   20.1890 C   0  0  0  0  0  2  0  0  0  0  0  0
  -24.7870  -30.9610   22.1490 N   0  0  0  0  0  0  0  0  0  0  0  0
  -23.5610  -32.0610   23.7140 O   0  0  0  0  0  0  0  0  0  0  0  0
  -22.8370  -29.3600   22.4850 C   0  0  0  0  0  0  0  0  0  0  0  0
  -21.5120  -29.2070   22.3170 N   0  0  0  0  0  0  0  0  0  0  0  0
  -23.4790  -28.7200   23.3220 O   0  0  0  0  0  0  0  0  0  0  0  0
  -21.0550  -29.7760   21.6180 H   0  0  0  0  0  0  0  0  0  0  0  0
  -18.0960  -28.0950   22.7330 C   0  0  0  0  0  0  0  0  0  0  0  0
  -20.6540  -28.2810   23.0590 C   0  0  0  0  0  3  0  0  0  0  0  0
  -20.7310  -26.8570   22.4650 C   0  0  0  0  0  2  0  0  0  0  0  0
  -19.6420  -26.5770   21.4250 C   0  0  0  0  0  2  0  0  0  0  0  0
  -18.2510  -26.7500   22.0420 C   0  0  0  0  0  2  0  0  0  0  0  0
  -19.2250  -28.8200   23.1960 C   0  0  0  0  0  0  0  0  0  0  0  0
  -19.0280  -30.0800   23.8020 C   0  0  0  0  0  3  0  0  0  0  0  0
  -17.7340  -30.6130   23.9510 C   0  0  0  0  0  3  0  0  0  0  0  0
  -16.6190  -29.8850   23.5030 C   0  0  0  0  0  3  0  0  0  0  0  0
  -16.8010  -28.6270   22.8990 C   0  0  0  0  0  3  0  0  0  0  0  0
  -25.9200  -32.4180   23.9150 C   0  0  0  0  0  3  0  0  0  0  0  0
  -25.5660  -33.7940   24.2940 N   0  0  0  0  0  0  0  0  0  0  0  0
  -25.8770  -34.8840   23.5800 C   0  0  0  0  0  0  0  0  0  0  0  0
  -26.5610  -34.8380   22.5540 O   0  0  0  0  0  0  0  0  0  0  0  0
  -24.9550  -33.9000   25.0900 H   0  0  0  0  0  0  0  0  0  0  0  0
  -24.0950  -36.6360   23.2860 C   0  0  0  0  0  1  0  0  0  0  0  0
  -25.3470  -36.2400   24.0850 C   0  0  0  0  0  3  0  0  0  0  0  0
  -27.4510  -37.1630   24.9540 C   0  0  0  0  0  1  0  0  0  0  0  0
  -26.3470  -37.3280   24.0120 N   0  0  0  0  0  0  0  0  0  0  0  0
  -25.9110  -38.2290   24.1880 H   0  0  0  0  0  0  0  0  0  0  0  0
  -26.4220  -31.6080   25.1750 C   0  0  1  0  0  0  0  0  0  0  0  0
  -25.3030  -31.2910   26.1940 C   0  0  0  0  0  1  0  0  0  0  0  0
  -27.0620  -30.2670   24.7450 C   0  0  0  0  0  1  0  0  0  0  0  0
  -27.5210  -32.4100   25.9090 C   0  0  0  0  0  1  0  0  0  0  0  0
  1  3  1  0
  1  7  1  0
  2  1  2  0
  3  6  1  0
  4  2  1  0
  5  2  1  0
  8  7  1  0
  9 49  1  0
  9  8  1  0
  9 18  1  0
 10 16  1  0
 10 18  1  0
 11 16  1  0
 12 13  1  0
 12 11  1  0
 14 13  1  0
 14 23  1  0
 14 15  1  0
 16 15  1  0
 17 10  2  0
 18 19  1  0
 20 21  2  0
 21 40  1  0
 22 21  1  0
 22 25  1  0
 23 24  1  0
 23 20  1  0
 24 22  2  0
 25 26  1  0
 26 27  2  0
 28 31  1  0
 28 27  1  0
 29 28  2  0
 30 29  1  0
 30 25  2  0
 31 32  1  0
 32 33  1  0
 33 34  2  0
 35 34  1  0
 35 39  1  0
 36 35  2  0
 37 32  2  0
 37 36  1  0
 38 37  1  0
 40 41  1  0
 41 44  1  0
 41 43  1  0
 42 40  2  0
 45 20  1  0
 45 46  1  0
 47 45  1  0
 49 48  1  0
 51 50  1  0
 51 49  1  0
 52  3  1  0
 52 53  1  0
 54 53  1  0
 55 66  2  0
 56 54  1  0
 56 61  1  0
 57 65  1  0
 57 67  1  0
 58 60  1  0
 59 65  1  0
 60 61  2  0
 60 59  1  0
 62 56  2  0
 63 62  1  0
 63 58  2  0
 64 58  1  0
 64 57  1  0
 65 55  1  0
 67 69  2  0
 68 67  1  0
 70 68  1  0
 71 80  2  0
 71 76  1  0
 72 68  1  0
 72 76  1  0
 73 72  1  0
 74 75  1  0
 74 73  1  0
 75 71  1  0
 76 77  2  0
 77 78  1  0
 79 78  2  0
 80 79  1  0
 81 55  1  0
 81 82  1  0
 81 91  1  0
 82 85  1  0
 83 87  1  0
 83 82  1  0
 84 83  2  0
 87 86  1  0
 89 87  1  0
 89 90  1  0
 89 88  1  0
 91 94  1  1
 91 92  1  0
 93 91  1  0
M  ISO  4  10 100  18 100  53 101  54 101
M  END
>  <TORSDO>  (2) 
F 23

>  <SCORE>  (2) 
-11.284

>  <name>  (2) 
1

>  <ligand_id>  (2) 
1

>  <original_smiles>  (2) 
[H]c1c([H])c([H])c2c(c1[H])C([H])([H])C([H])([H])C([H])([H])C2([H])N([H])C(=O)C1([H])N(C(=O)C([H])(N([H])C(=O)C([H])(N([H])C([H])([H])[H])C([H])([H])[H])C(C([H])([H])[H])(C([H])([H])[H])C([H])([H])[H])C([H])([H])c2c([H])c(OC([H])([H])C([H])([H])[N+]([H])=C(N([H])[H])C([H])([H])C([H])([H])C([H])(N([H])C(=O)N3C([H])([H])C([H])([H])C([H])([H])C([H])(n4nc(-c5c([H])c([H])c(Oc6c([H])c([H])c(F)c([H])c6F)c([H])c5[H])c(C(=O)N([H])[H])c4N([H])[H])C3([H])[H])C([H])(C([H])([H])[H])C([H])([H])C([H])([H])[H])c([H])c([H])c2C1([H])[H]

>  <smiles>  (2) 
[H]c1c([H])c([H])c2c(c1[H])C([H])([H])C([H])([H])C([H])([H])C2([H])N([H])C(=O)C1([H])N(C(=O)C([H])(N([H])C(=O)C([H])(N([H])C([H])([H])[H])C([H])([H])[H])C(C([H])([H])[H])(C([H])([H])[H])C([H])([H])[H])C([H])([H])c2c([H])c(OC([H])([H])C([H])([H])[N+]([H])=C(N([H])[H])C([H])([H])C([H])([H])C([H])(N([H])C(=O)N3C([H])([H])C([H])([H])C([H])([H])C([H])(n4nc(-c5c([H])c([H])c(Oc6c([H])c([H])c(F)c([H])c6F)c([H])c5[H])c(C(=O)N([H])[H])c4N([H])[H])C3([H])[H])C([H])(C([H])([H])[H])C([H])([H])C([H])([H])[H])c([H])c([H])c2C1([H])[H]

$$$$
2:0:0
     RDKit          3D

105112  0  0  1  0  0  0  0  0999 V2000
  -28.5250  -22.3580   20.8120 C   0  0  0  0  0  3  0  0  0  0  0  0
  -29.9650  -23.6990   19.0690 C   0  0  0  0  0  1  0  0  0  0  0  0
  -29.1030  -23.7990   20.3350 C   0  0  0  0  0  3  0  0  0  0  0  0
  -28.0060  -24.9560   20.1400 C   0  0  0  0  0  2  0  0  0  0  0  0
  -28.3150  -26.4160   20.1560 O   0  0  0  0  0  0  0  0  0  0  0  0
  -24.6290  -31.8610   23.2020 C   0  0  0  0  0  0  0  0  0  0  0  0
  -27.2150  -27.2990   20.1110 C   0  0  0  0  0  0  0  0  0  0  0  0
  -23.4220  -30.4830   21.5490 C   0  0  0  0  0  3  0  0  0  0  0  0
  -24.8660  -28.9450   20.1100 C   0  0  0  0  0  0  0  0  0  0  0  0
  -25.9660  -30.7890   21.3700 C   0  0  0  0  0  2  0  0  0  0  0  0
  -26.0400  -29.4140   20.7130 C   0  0  0  0  0  0  0  0  0  0  0  0
  -27.2200  -28.6050   20.6990 C   0  0  0  0  0  3  0  0  0  0  0  0
  -26.0090  -26.8950   19.4870 C   0  0  0  0  0  3  0  0  0  0  0  0
  -24.8540  -27.6910   19.4870 C   0  0  0  0  0  3  0  0  0  0  0  0
  -23.6330  -29.8220   20.1630 C   0  0  0  0  0  2  0  0  0  0  0  0
  -24.6920  -31.0590   22.0980 N   0  0  0  0  0  0  0  0  0  0  0  0
  -23.5440  -32.1410   23.7320 O   0  0  0  0  0  0  0  0  0  0  0  0
  -22.7490  -29.4600   22.4970 C   0  0  0  0  0  0  0  0  0  0  0  0
  -21.4200  -29.3020   22.3700 N   0  0  0  0  0  0  0  0  0  0  0  0
  -23.4220  -28.8120   23.3020 O   0  0  0  0  0  0  0  0  0  0  0  0
  -20.9350  -29.8770   21.6950 H   0  0  0  0  0  0  0  0  0  0  0  0
  -18.0290  -28.1360   22.8490 C   0  0  0  0  0  0  0  0  0  0  0  0
  -20.5890  -28.3650   23.1290 C   0  0  0  0  0  3  0  0  0  0  0  0
  -20.6780  -26.9380   22.5410 C   0  0  0  0  0  2  0  0  0  0  0  0
  -19.5770  -26.6370   21.5200 C   0  0  0  0  0  2  0  0  0  0  0  0
  -18.1950  -26.7910   22.1620 C   0  0  0  0  0  2  0  0  0  0  0  0
  -19.1550  -28.8830   23.2890 C   0  0  0  0  0  0  0  0  0  0  0  0
  -18.9470  -30.1430   23.8910 C   0  0  0  0  0  3  0  0  0  0  0  0
  -17.6470  -30.6570   24.0560 C   0  0  0  0  0  3  0  0  0  0  0  0
  -16.5350  -29.9070   23.6340 C   0  0  0  0  0  3  0  0  0  0  0  0
  -16.7280  -28.6490   23.0350 C   0  0  0  0  0  3  0  0  0  0  0  0
  -25.9110  -32.4800   23.8360 C   0  0  0  0  0  3  0  0  0  0  0  0
  -25.5910  -33.8600   24.2280 N   0  0  0  0  0  0  0  0  0  0  0  0
  -25.9040  -34.9480   23.5100 C   0  0  0  0  0  0  0  0  0  0  0  0
  -26.5600  -34.8940   22.4670 O   0  0  0  0  0  0  0  0  0  0  0  0
  -25.0070  -33.9760   25.0430 H   0  0  0  0  0  0  0  0  0  0  0  0
  -24.1480  -36.7310   23.2640 C   0  0  0  0  0  1  0  0  0  0  0  0
  -25.4100  -36.3100   24.0330 C   0  0  0  0  0  3  0  0  0  0  0  0
  -27.5570  -37.1800   24.8460 C   0  0  0  0  0  1  0  0  0  0  0  0
  -26.4280  -37.3800   23.9420 N   0  0  0  0  0  0  0  0  0  0  0  0
  -26.0160  -38.2870   24.1410 H   0  0  0  0  0  0  0  0  0  0  0  0
  -26.4470  -31.6630   25.0760 C   0  0  1  0  0  0  0  0  0  0  0  0
  -25.3660  -31.3810   26.1450 C   0  0  0  0  0  1  0  0  0  0  0  0
  -27.0300  -30.3050   24.6220 C   0  0  0  0  0  1  0  0  0  0  0  0
  -27.6030  -32.4360   25.7530 C   0  0  0  0  0  1  0  0  0  0  0  0
  -28.8380  -20.9450   20.0720 C   0  0  0  0  0  2  0  0  0  0  0  0
  -29.6770  -19.8620   20.7430 N   0  0  0  0  0  4  0  0  0  0  0  0
  -29.6530  -20.0270   21.7360 H   0  0  0  0  0  0  0  0  0  0  0  0
  -30.6260  -20.0030   20.4370 H   0  0  0  0  0  0  0  0  0  0  0  0
  -29.3040  -18.3940   20.5050 C   0  0  0  0  0  2  0  0  0  0  0  0
  -30.3710  -17.2460   20.8900 C   0  0  0  0  0  3  0  0  0  0  0  0
  -30.6450  -14.6790   20.4930 C   0  0  0  0  0  0  0  0  0  0  0  0
  -30.4310  -12.4240   19.4570 C   0  0  0  0  0  2  0  0  0  0  0  0
  -29.5080  -12.5130   18.2240 C   0  0  0  0  0  2  0  0  0  0  0  0
  -28.0320  -12.3500   18.6360 C   0  0  0  0  0  2  0  0  0  0  0  0
  -27.6490  -13.2260   19.8590 C   0  0  0  0  0  3  0  0  0  0  0  0
  -28.6970  -13.1300   20.9900 C   0  0  0  0  0  2  0  0  0  0  0  0
  -30.0020  -13.4700   20.4100 N   0  0  0  0  0  0  0  0  0  0  0  0
  -31.8210  -14.7890   20.1370 O   0  0  0  0  0  0  0  0  0  0  0  0
  -29.9020  -15.8010   20.7990 N   0  0  0  0  0  0  0  0  0  0  0  0
  -28.9340  -15.6280   21.0270 H   0  0  0  0  0  0  0  0  0  0  0  0
  -25.2560  -13.8160   20.5700 C   0  0  0  0  0  0  0  0  0  0  0  0
  -24.1840  -13.0430   20.9190 C   0  0  0  0  0  0  0  0  0  0  0  0
  -24.6400  -11.6910   20.8730 C   0  0  0  0  0  0  0  0  0  0  0  0
  -26.2990  -12.9370   20.3320 N   0  0  0  0  0  0  0  0  0  0  0  0
  -25.9340  -11.6510   20.5760 N   0  0  0  0  0  0  0  0  0  0  0  0
  -23.9060  -10.4290   21.0390 C   0  0  0  0  0  0  0  0  0  0  0  0
  -24.3610   -9.4220   21.9170 C   0  0  0  0  0  3  0  0  0  0  0  0
  -23.6300   -8.2250   22.0750 C   0  0  0  0  0  3  0  0  0  0  0  0
  -22.4280   -8.0270   21.3540 C   0  0  0  0  0  0  0  0  0  0  0  0
  -21.9910   -9.0240   20.4650 C   0  0  0  0  0  3  0  0  0  0  0  0
  -22.7220  -10.2130   20.3050 C   0  0  0  0  0  3  0  0  0  0  0  0
  -21.6660   -6.8860   21.4220 O   0  0  0  0  0  0  0  0  0  0  0  0
  -21.6860   -6.0720   22.5260 C   0  0  0  0  0  0  0  0  0  0  0  0
  -21.4020   -6.5640   23.8190 C   0  0  0  0  0  3  0  0  0  0  0  0
  -21.3660   -5.6790   24.9150 C   0  0  0  0  0  3  0  0  0  0  0  0
  -21.6050   -4.3050   24.7220 C   0  0  0  0  0  0  0  0  0  0  0  0
  -21.8830   -3.8140   23.4340 C   0  0  0  0  0  3  0  0  0  0  0  0
  -21.9210   -4.6960   22.3390 C   0  0  0  0  0  0  0  0  0  0  0  0
  -22.1670   -4.2140   21.0970 F   0  0  0  0  0  0  0  0  0  0  0  0
  -21.5640   -3.4540   25.7730 F   0  0  0  0  0  0  0  0  0  0  0  0
  -22.7860  -13.5240   21.1850 C   0  0  0  0  0  0  0  0  0  0  0  0
  -22.0510  -12.8220   22.0400 N   0  0  0  0  0  0  0  0  0  0  0  0
  -22.3560  -14.5550   20.6690 O   0  0  0  0  0  0  0  0  0  0  0  0
  -22.4160  -11.9880   22.4770 H   0  0  0  0  0  0  0  0  0  0  0  0
  -21.1120  -13.1230   22.2590 H   0  0  0  0  0  0  0  0  0  0  0  0
  -25.4280  -15.1880   20.4100 N   0  0  0  0  0  0  0  0  0  0  0  0
  -24.6540  -15.8380   20.4900 H   0  0  0  0  0  0  0  0  0  0  0  0
  -26.2660  -15.6160   20.0370 H   0  0  0  0  0  0  0  0  0  0  0  0
  -30.9960  -17.4900   22.2880 C   0  0  0  0  0  2  0  0  0  0  0  0
  -32.3150  -18.2870   22.2210 C   0  0  0  0  0  2  0  0  0  0  0  0
  -32.8430  -18.7060   23.6010 C   0  0  0  0  0  2  0  0  0  0  0  0
  -34.2330  -19.3710   23.5300 C   0  0  0  0  0  2  0  0  0  0  0  0
  -34.6990  -19.8260   24.8510 N   0  0  0  0  0  4  0  0  0  0  0  0
  -34.0890  -20.5340   25.2190 H   0  0  0  0  0  0  0  0  0  0  0  0
  -35.6190  -20.2220   24.7710 H   0  0  0  0  0  0  0  0  0  0  0  0
  -34.7450  -19.0640   25.5020 H   0  0  0  0  0  0  0  0  0  0  0  0
  -28.4880  -22.2420   22.3640 C   0  0  0  0  0  2  0  0  0  0  0  0
  -27.1060  -21.9290   22.9790 C   0  0  0  0  0  2  0  0  0  0  0  0
  -26.1050  -23.0960   22.8380 C   0  0  0  0  0  2  0  0  0  0  0  0
  -24.8470  -22.9910   23.7210 C   0  0  0  0  0  2  0  0  0  0  0  0
  -25.0850  -23.4550   25.1000 N   0  0  0  0  0  4  0  0  0  0  0  0
  -25.7910  -22.9060   25.5570 H   0  0  0  0  0  0  0  0  0  0  0  0
  -24.2360  -23.3810   25.6330 H   0  0  0  0  0  0  0  0  0  0  0  0
  -25.3660  -24.4200   25.1020 H   0  0  0  0  0  0  0  0  0  0  0  0
  1 46  1  0
  1 98  1  0
  3  2  1  0
  3  1  1  0
  4  5  1  0
  4  3  1  0
  6 17  2  0
  7  5  1  0
  7 12  1  0
  8 16  1  0
  8 18  1  0
  9 15  1  0
  9 11  1  0
 10 16  1  0
 11 10  1  0
 12 11  2  0
 13 14  1  0
 13  7  2  0
 14  9  2  0
 15  8  1  0
 16  6  1  0
 18 20  2  0
 19 18  1  0
 21 19  1  0
 22 31  2  0
 22 27  1  0
 23 19  1  0
 23 27  1  0
 24 23  1  0
 25 26  1  0
 25 24  1  0
 26 22  1  0
 27 28  2  0
 28 29  1  0
 30 29  2  0
 31 30  1  0
 32  6  1  0
 32 33  1  0
 32 42  1  0
 33 36  1  0
 34 38  1  0
 34 33  1  0
 35 34  2  0
 38 37  1  0
 40 38  1  0
 40 41  1  0
 40 39  1  0
 42 45  1  1
 42 43  1  0
 44 42  1  0
 46 47  1  0
 47 48  1  0
 49 47  1  0
 50 47  1  0
 51 50  1  0
 51 90  1  0
 52 60  1  0
 53 58  1  0
 54 55  1  0
 54 53  1  0
 56 55  1  0
 56 65  1  0
 56 57  1  0
 58 52  1  0
 58 57  1  0
 59 52  2  0
 60 51  1  0
 60 61  1  0
 62 63  2  0
 63 82  1  0
 64 63  1  0
 64 67  1  0
 65 62  1  0
 65 66  1  0
 66 64  2  0
 67 68  1  0
 68 69  2  0
 70 73  1  0
 70 69  1  0
 71 70  2  0
 72 71  1  0
 72 67  2  0
 73 74  1  0
 74 75  1  0
 75 76  2  0
 77 76  1  0
 77 81  1  0
 78 77  2  0
 79 74  2  0
 79 78  1  0
 80 79  1  0
 82 83  1  0
 83 86  1  0
 83 85  1  0
 84 82  2  0
 87 88  1  0
 87 62  1  0
 89 87  1  0
 91 90  1  0
 91 92  1  0
 93 92  1  0
 93 94  1  0
 94 95  1  0
 94 97  1  0
 96 94  1  0
 98 99  1  0
100 99  1  0
100101  1  0
101102  1  0
102105  1  0
102103  1  0
102104  1  0
M  ISO  4   4 101   5 101  52 100  60 100
M  END
>  <TORSDO>  (3) 
F 32

>  <SCORE>  (3) 
5.199

>  <name>  (3) 
2

>  <ligand_id>  (3) 
2

>  <original_smiles>  (3) 
[H]c1c([H])c([H])c2c(c1[H])C([H])([H])C([H])([H])C([H])([H])C2([H])N([H])C(=O)C1([H])N(C(=O)C([H])(N([H])C(=O)C([H])(N([H])C([H])([H])[H])C([H])([H])[H])C(C([H])([H])[H])(C([H])([H])[H])C([H])([H])[H])C([H])([H])c2c([H])c(OC([H])([H])C([H])(C([H])([H])[H])C([H])(C([H])([H])C([H])([H])C([H])([H])C([H])([H])[N+]([H])([H])[H])C([H])([H])[N+]([H])([H])C([H])([H])C([H])(N([H])C(=O)N3C([H])([H])C([H])([H])C([H])([H])C([H])(n4nc(-c5c([H])c([H])c(Oc6c([H])c([H])c(F)c([H])c6F)c([H])c5[H])c(C(=O)N([H])[H])c4N([H])[H])C3([H])[H])C([H])([H])C([H])([H])C([H])([H])C([H])([H])[N+]([H])([H])[H])c([H])c([H])c2C1([H])[H]

>  <smiles>  (3) 
[H]c1c([H])c([H])c2c(c1[H])C([H])([H])C([H])([H])C([H])([H])C2([H])N([H])C(=O)C1([H])N(C(=O)C([H])(N([H])C(=O)C([H])(N([H])C([H])([H])[H])C([H])([H])[H])C(C([H])([H])[H])(C([H])([H])[H])C([H])([H])[H])C([H])([H])c2c([H])c(OC([H])([H])C([H])(C([H])([H])[H])C([H])(C([H])([H])C([H])([H])C([H])([H])C([H])([H])[N+]([H])([H])[H])C([H])([H])[N+]([H])([H])C([H])([H])C([H])(N([H])C(=O)N3C([H])([H])C([H])([H])C([H])([H])C([H])(n4nc(-c5c([H])c([H])c(Oc6c([H])c([H])c(F)c([H])c6F)c([H])c5[H])c(C(=O)N([H])[H])c4N([H])[H])C3([H])[H])C([H])([H])C([H])([H])C([H])([H])C([H])([H])[N+]([H])([H])[H])c([H])c([H])c2C1([H])[H]

$$$$
3:0:0
     RDKit          3D

 94 98  0  0  1  0  0  0  0  0999 V2000
  -28.6900  -18.0750   19.1940 C   0  0  0  0  0  1  0  0  0  0  0  0
  -28.3030  -20.2390   19.9160 C   0  0  0  0  0 15  0  0  0  0  0  0
  -27.9270  -22.5110   19.6740 C   0  0  0  0  0 15  0  0  0  0  0  0
  -27.9290  -24.5070   20.2250 O   0  0  0  0  0  1  0  0  0  0  0  0
  -24.7660  -31.6680   23.2280 C   0  0  0  0  0  0  0  0  0  0  0  0
  -27.1460  -26.0420   20.2190 C   0  0  0  0  0  0  0  0  0  0  0  0
  -23.6150  -30.2720   21.5820 C   0  0  0  0  0  3  0  0  0  0  0  0
  -25.0420  -28.4990   20.2050 C   0  0  0  0  0  0  0  0  0  0  0  0
  -26.2140  -30.1840   21.5820 C   0  0  0  0  0  2  0  0  0  0  0  0
  -26.2410  -28.6980   20.8940 C   0  0  0  0  0  0  0  0  0  0  0  0
  -27.2530  -27.5090   20.8670 C   0  0  0  0  0  3  0  0  0  0  0  0
  -25.9350  -26.2200   19.4780 C   0  0  0  0  0  3  0  0  0  0  0  0
  -24.9630  -27.2940   19.4800 C   0  0  0  0  0  3  0  0  0  0  0  0
  -23.8900  -29.5440   20.2280 C   0  0  0  0  0  2  0  0  0  0  0  0
  -24.8990  -30.7560   22.1810 N   0  0  0  0  0  0  0  0  0  0  0  0
  -23.6550  -32.0090   23.6790 O   0  0  0  0  0  0  0  0  0  0  0  0
  -22.8190  -29.3490   22.5490 C   0  0  0  0  0  0  0  0  0  0  0  0
  -21.4790  -29.2570   22.4140 N   0  0  0  0  0  0  0  0  0  0  0  0
  -23.4290  -28.7100   23.4080 O   0  0  0  0  0  0  0  0  0  0  0  0
  -21.0280  -29.8280   21.7130 H   0  0  0  0  0  0  0  0  0  0  0  0
  -18.0490  -28.1250   22.9020 C   0  0  0  0  0  0  0  0  0  0  0  0
  -20.6150  -28.3420   23.1760 C   0  0  0  0  0  3  0  0  0  0  0  0
  -20.6840  -26.9080   22.5990 C   0  0  0  0  0  2  0  0  0  0  0  0
  -19.5850  -26.6170   21.5720 C   0  0  0  0  0  2  0  0  0  0  0  0
  -18.2020  -26.7830   22.2070 C   0  0  0  0  0  2  0  0  0  0  0  0
  -19.1800  -28.8650   23.3420 C   0  0  0  0  0  0  0  0  0  0  0  0
  -18.9760  -30.1170   23.9610 C   0  0  0  0  0  3  0  0  0  0  0  0
  -17.6770  -30.6310   24.1380 C   0  0  0  0  0  3  0  0  0  0  0  0
  -16.5620  -29.8900   23.7070 C   0  0  0  0  0  3  0  0  0  0  0  0
  -16.7500  -28.6380   23.0960 C   0  0  0  0  0  3  0  0  0  0  0  0
  -25.9930  -32.3430   23.9200 C   0  0  0  0  0  3  0  0  0  0  0  0
  -26.4370  -31.6010   25.2430 C   0  0  1  0  0  0  0  0  0  0  0  0
  -25.2940  -31.3990   26.2650 C   0  0  0  0  0  1  0  0  0  0  0  0
  -27.0250  -30.2090   24.9330 C   0  0  0  0  0  1  0  0  0  0  0  0
  -27.5650  -32.4010   25.9380 C   0  0  0  0  0  1  0  0  0  0  0  0
  -25.6480  -33.7480   24.2520 N   0  0  0  0  0  0  0  0  0  0  0  0
  -26.0160  -34.8330   23.5560 C   0  0  0  0  0  0  0  0  0  0  0  0
  -26.7230  -34.7580   22.5500 O   0  0  0  0  0  0  0  0  0  0  0  0
  -25.0180  -33.8790   25.0300 H   0  0  0  0  0  0  0  0  0  0  0  0
  -24.3050  -36.6650   23.2330 C   0  0  0  0  0  1  0  0  0  0  0  0
  -25.5320  -36.2180   24.0480 C   0  0  0  0  0  3  0  0  0  0  0  0
  -27.6550  -37.0860   24.9350 C   0  0  0  0  0  1  0  0  0  0  0  0
  -26.5710  -37.2710   23.9760 N   0  0  0  0  0  0  0  0  0  0  0  0
  -26.1640  -38.1900   24.1280 H   0  0  0  0  0  0  0  0  0  0  0  0
  -28.8090  -15.7930   19.5260 C   0  0  0  0  0  2  0  0  0  0  0  0
  -30.6170  -12.0170   18.3030 C   0  0  0  0  0  1  0  0  0  0  0  0
  -28.3850  -11.7160   18.0550 C   0  0  0  0  0  1  0  0  0  0  0  0
  -29.2950  -12.6950   19.0350 C   0  0  0  0  0  3  0  0  0  0  0  0
  -29.3890  -11.4870   20.2080 C   0  0  0  0  0  3  0  0  0  0  0  0
  -30.5250  -11.1630   21.2690 C   0  0  0  0  0  3  0  0  0  0  0  0
  -31.9220  -11.8200   21.3690 C   0  0  0  0  0  2  0  0  0  0  0  0
  -31.8130  -14.2010   21.3010 C   0  0  0  0  0  0  0  0  0  0  0  0
  -30.8290  -15.0030   19.2340 C   0  0  0  0  0  2  0  0  0  0  0  0
  -29.3310  -15.2290   18.1490 C   0  0  0  0  0  0  0  0  0  0  0  0
  -27.6620  -14.8540   18.9040 C   0  0  0  0  0  0  0  0  0  0  0  0
  -27.6480  -14.1520   20.6210 C   0  0  0  0  0  0  0  0  0  0  0  0
  -29.1750  -13.9680   21.5740 C   0  0  0  0  0  3  0  0  0  0  0  0
  -30.6430  -14.3510   20.8040 N   0  0  0  0  0  0  0  0  0  0  0  0
  -32.7550  -14.8630   20.8850 O   0  0  0  0  0  0  0  0  0  0  0  0
  -31.9520  -13.1140   22.0480 N   0  0  0  0  0  0  0  0  0  0  0  0
  -32.7360  -13.1840   22.6780 H   0  0  0  0  0  0  0  0  0  0  0  0
  -25.2810  -14.1920   20.8900 C   0  0  0  0  0  0  0  0  0  0  0  0
  -24.3060  -13.3120   21.1650 C   0  0  0  0  0  0  0  0  0  0  0  0
  -24.8920  -12.0090   21.1480 C   0  0  0  0  0  0  0  0  0  0  0  0
  -26.4290  -13.4560   20.8670 N   0  0  0  0  0  0  0  0  0  0  0  0
  -26.2120  -12.1110   20.9860 N   0  0  0  0  0  0  0  0  0  0  0  0
  -24.2240  -10.7030   21.2390 C   0  0  0  0  0  0  0  0  0  0  0  0
  -24.6160   -9.7120   22.1660 C   0  0  0  0  0  3  0  0  0  0  0  0
  -23.8860   -8.5070   22.2740 C   0  0  0  0  0  3  0  0  0  0  0  0
  -22.7570   -8.2830   21.4520 C   0  0  0  0  0  0  0  0  0  0  0  0
  -22.3870   -9.2610   20.5120 C   0  0  0  0  0  3  0  0  0  0  0  0
  -23.1140  -10.4560   20.4050 C   0  0  0  0  0  3  0  0  0  0  0  0
  -22.0030   -7.1350   21.4670 O   0  0  0  0  0  0  0  0  0  0  0  0
  -21.8850   -6.3670   22.5970 C   0  0  0  0  0  0  0  0  0  0  0  0
  -21.4080   -6.9000   23.8140 C   0  0  0  0  0  3  0  0  0  0  0  0
  -21.2410   -6.0580   24.9330 C   0  0  0  0  0  3  0  0  0  0  0  0
  -21.5370   -4.6850   24.8320 C   0  0  0  0  0  0  0  0  0  0  0  0
  -22.0060   -4.1530   23.6170 C   0  0  0  0  0  3  0  0  0  0  0  0
  -22.1770   -4.9920   22.5030 C   0  0  0  0  0  0  0  0  0  0  0  0
  -22.6070   -4.4720   21.3290 F   0  0  0  0  0  0  0  0  0  0  0  0
  -21.3700   -3.8740   25.9010 F   0  0  0  0  0  0  0  0  0  0  0  0
  -22.8900  -13.7200   21.3480 C   0  0  0  0  0  0  0  0  0  0  0  0
  -22.1720  -13.0250   22.2130 N   0  0  0  0  0  0  0  0  0  0  0  0
  -22.4510  -14.7270   20.7920 O   0  0  0  0  0  0  0  0  0  0  0  0
  -22.5610  -12.2260   22.6890 H   0  0  0  0  0  0  0  0  0  0  0  0
  -21.2150  -13.2910   22.4010 H   0  0  0  0  0  0  0  0  0  0  0  0
  -25.2710  -15.5780   20.6830 N   0  0  0  0  0  0  0  0  0  0  0  0
  -24.3980  -16.0960   20.7010 H   0  0  0  0  0  0  0  0  0  0  0  0
  -26.0750  -16.1500   20.4640 H   0  0  0  0  0  0  0  0  0  0  0  0
  -28.0730  -18.1440   17.7820 C   0  0  0  0  0  2  0  0  0  0  0  0
  -29.0660  -18.4860   16.7450 N   0  0  0  0  0  4  0  0  0  0  0  0
  -29.4930  -19.3750   16.9360 H   0  0  0  0  0  0  0  0  0  0  0  0
  -28.6210  -18.5420   15.8470 H   0  0  0  0  0  0  0  0  0  0  0  0
  -29.7870  -17.7890   16.6940 H   0  0  0  0  0  0  0  0  0  0  0  0
  5 16  2  0
  6  4  1  0
  6 11  1  0
  7 15  1  0
  7 17  1  0
  8 14  1  0
  8 10  1  0
  9 15  1  0
 10  9  1  0
 11 10  2  0
 12 13  1  0
 12  6  2  0
 13  8  2  0
 14  7  1  0
 15  5  1  0
 17 19  2  0
 18 17  1  0
 20 18  1  0
 21 30  2  0
 21 26  1  0
 22 18  1  0
 22 26  1  0
 23 22  1  0
 24 25  1  0
 24 23  1  0
 25 21  1  0
 26 27  2  0
 27 28  1  0
 29 28  2  0
 30 29  1  0
 31  5  1  0
 31 36  1  0
 31 32  1  0
 32 35  1  1
 32 33  1  0
 34 32  1  0
 36 39  1  0
 37 41  1  0
 37 36  1  0
 38 37  2  0
 41 40  1  0
 43 41  1  0
 43 44  1  0
 43 42  1  0
 46 48  1  0
 47 48  1  0
 48 49  1  0
 49 50  2  0
 50 51  1  0
 51 60  1  0
 52 60  1  0
 53 58  1  0
 54 55  2  3
 54 53  1  0
 54 45  1  0
 55 45  1  0
 55 56  1  0
 56 65  1  0
 56 57  2  0
 58 52  1  0
 58 57  1  0
 59 52  2  0
 60 61  1  0
 62 63  2  0
 63 82  1  0
 64 63  1  0
 64 67  1  0
 65 62  1  0
 65 66  1  0
 66 64  2  0
 67 68  1  0
 68 69  2  0
 70 73  1  0
 70 69  1  0
 71 70  2  0
 72 71  1  0
 72 67  2  0
 73 74  1  0
 74 75  1  0
 75 76  2  0
 77 76  1  0
 77 81  1  0
 78 77  2  0
 79 74  2  0
 79 78  1  0
 80 79  1  0
 82 83  1  0
 83 86  1  0
 83 85  1  0
 84 82  2  0
 87 88  1  0
 87 62  1  0
 89 87  1  0
 90  1  1  0
 91 92  1  0
 91 90  1  0
 93 91  1  0
 94 91  1  0
M  ISO  4   3 101   4 101  52 100  60 100
M  END
>  <TORSDO>  (4) 
F 25

>  <SCORE>  (4) 
-13.052

>  <name>  (4) 
3

>  <ligand_id>  (4) 
3

>  <original_smiles>  (4) 
[H]c1c([H])c([H])c2c(c1[H])C([H])([H])C([H])([H])C([H])([H])C2([H])N([H])C(=O)C1([H])N(C(=O)C([H])(N([H])C(=O)C([H])(N([H])C([H])([H])[H])C([H])([H])[H])C(C([H])([H])[H])(C([H])([H])[H])C([H])([H])[H])C([H])([H])c2c([H])c(OC([H])([H])C([H])([H])C([H])(C([H])([H])C(C([H])([H])[H])(C([H])([H])[H])C([H])([H])C([H])([H])C([H])([H])N([H])C(=O)N3C([H])([H])C([H])([H])C([H])([H])C([H])(n4nc(-c5c([H])c([H])c(Oc6c([H])c([H])c(F)c([H])c6F)c([H])c5[H])c(C(=O)N([H])[H])c4N([H])[H])C3([H])[H])C([H])([H])[N+]([H])([H])[H])c([H])c([H])c2C1([H])[H]

>  <smiles>  (4) 
[H]c1c([H])c([H])c2c(c1[H])C([H])([H])C([H])([H])C([H])([H])C2([H])N([H])C(=O)C1([H])N(C(=O)C([H])(N([H])C(=O)C([H])(N([H])C([H])([H])[H])C([H])([H])[H])C(C([H])([H])[H])(C([H])([H])[H])C([H])([H])[H])C([H])([H])c2c([H])c(OC([H])([H])C([H])([H])C([H])(C([H])([H])C(C([H])([H])[H])(C([H])([H])[H])C([H])([H])C([H])([H])C([H])([H])N([H])C(=O)N3C([H])([H])C([H])([H])C([H])([H])C([H])(n4nc(-c5c([H])c([H])c(Oc6c([H])c([H])c(F)c([H])c6F)c([H])c5[H])c(C(=O)N([H])[H])c4N([H])[H])C3([H])[H])C([H])([H])[N+]([H])([H])[H])c([H])c([H])c2C1([H])[H]

$$$$
4:0:0
     RDKit          3D

 96104  0  0  1  0  0  0  0  0999 V2000
  -28.3780  -19.6630   22.4750 C   0  0  0  0  0  3  0  0  0  0  0  0
  -24.0040  -20.4340   21.9730 C   0  0  0  0  0  2  0  0  0  0  0  0
  -24.6890  -19.5080   20.9620 C   0  0  0  0  0  2  0  0  0  0  0  0
  -24.9340  -21.5900   22.3530 C   0  0  0  0  0  2  0  0  0  0  0  0
  -26.0430  -18.9930   21.4840 C   0  0  0  0  0  2  0  0  0  0  0  0
  -26.2710  -21.0610   22.8900 C   0  0  0  0  0  2  0  0  0  0  0  0
  -27.0110  -20.1400   21.8810 C   0  0  0  0  0  3  0  0  0  0  0  0
  -29.3720  -20.8400   22.7500 C   0  0  0  0  0  2  0  0  0  0  0  0
  -29.6880  -21.8550   21.6110 C   0  0  0  0  0  2  0  0  0  0  0  0
  -28.7990  -23.1260   21.6340 C   0  0  0  0  0  2  0  0  0  0  0  0
  -30.5220  -25.0140   21.4940 C   0  0  0  0  0  1  0  0  0  0  0  0
  -29.2760  -24.3810   20.8500 C   0  0  0  0  0  3  0  0  0  0  0  0
  -28.1030  -25.3910   20.7970 C   0  0  0  0  0  2  0  0  0  0  0  0
  -28.3550  -26.6450   20.1370 O   0  0  0  0  0  0  0  0  0  0  0  0
  -24.6160  -31.8690   23.2110 C   0  0  0  0  0  0  0  0  0  0  0  0
  -27.2260  -27.4380   20.0900 C   0  0  0  0  0  0  0  0  0  0  0  0
  -23.4020  -30.4940   21.5540 C   0  0  0  0  0  3  0  0  0  0  0  0
  -24.8480  -28.9670   20.1110 C   0  0  0  0  0  0  0  0  0  0  0  0
  -25.9320  -30.8330   21.3670 C   0  0  0  0  0  2  0  0  0  0  0  0
  -26.0100  -29.4710   20.7100 C   0  0  0  0  0  0  0  0  0  0  0  0
  -27.2050  -28.7140   20.6970 C   0  0  0  0  0  3  0  0  0  0  0  0
  -26.0530  -26.9600   19.4650 C   0  0  0  0  0  3  0  0  0  0  0  0
  -24.8640  -27.7100   19.4840 C   0  0  0  0  0  3  0  0  0  0  0  0
  -23.6090  -29.8320   20.1660 C   0  0  0  0  0  2  0  0  0  0  0  0
  -24.6680  -31.0780   22.1040 N   0  0  0  0  0  0  0  0  0  0  0  0
  -23.5340  -32.1480   23.7480 O   0  0  0  0  0  0  0  0  0  0  0  0
  -22.7420  -29.4660   22.5010 C   0  0  0  0  0  0  0  0  0  0  0  0
  -21.4150  -29.3030   22.3730 N   0  0  0  0  0  0  0  0  0  0  0  0
  -23.4180  -28.8200   23.3060 O   0  0  0  0  0  0  0  0  0  0  0  0
  -20.9320  -29.8770   21.6960 H   0  0  0  0  0  0  0  0  0  0  0  0
  -18.0290  -28.1370   22.8470 C   0  0  0  0  0  0  0  0  0  0  0  0
  -20.5870  -28.3650   23.1310 C   0  0  0  0  0  3  0  0  0  0  0  0
  -20.6780  -26.9390   22.5400 C   0  0  0  0  0  2  0  0  0  0  0  0
  -19.5760  -26.6360   21.5210 C   0  0  0  0  0  2  0  0  0  0  0  0
  -18.1940  -26.7910   22.1610 C   0  0  0  0  0  2  0  0  0  0  0  0
  -19.1540  -28.8830   23.2880 C   0  0  0  0  0  0  0  0  0  0  0  0
  -18.9460  -30.1440   23.8890 C   0  0  0  0  0  3  0  0  0  0  0  0
  -17.6470  -30.6570   24.0570 C   0  0  0  0  0  3  0  0  0  0  0  0
  -16.5360  -29.9070   23.6320 C   0  0  0  0  0  3  0  0  0  0  0  0
  -16.7280  -28.6490   23.0320 C   0  0  0  0  0  3  0  0  0  0  0  0
  -25.9050  -32.4830   23.8410 C   0  0  0  0  0  3  0  0  0  0  0  0
  -26.4470  -31.6600   25.0730 C   0  0  1  0  0  0  0  0  0  0  0  0
  -25.3730  -31.3700   26.1480 C   0  0  0  0  0  1  0  0  0  0  0  0
  -27.0320  -30.3060   24.6090 C   0  0  0  0  0  1  0  0  0  0  0  0
  -27.6060  -32.4310   25.7490 C   0  0  0  0  0  1  0  0  0  0  0  0
  -25.5920  -33.8630   24.2340 N   0  0  0  0  0  0  0  0  0  0  0  0
  -25.9040  -34.9480   23.5130 C   0  0  0  0  0  0  0  0  0  0  0  0
  -26.5590  -34.8930   22.4680 O   0  0  0  0  0  0  0  0  0  0  0  0
  -25.0120  -33.9790   25.0520 H   0  0  0  0  0  0  0  0  0  0  0  0
  -24.1500  -36.7310   23.2640 C   0  0  0  0  0  1  0  0  0  0  0  0
  -25.4120  -36.3110   24.0340 C   0  0  0  0  0  3  0  0  0  0  0  0
  -27.5590  -37.1810   24.8470 C   0  0  0  0  0  1  0  0  0  0  0  0
  -26.4310  -37.3790   23.9400 N   0  0  0  0  0  0  0  0  0  0  0  0
  -26.0210  -38.2870   24.1400 H   0  0  0  0  0  0  0  0  0  0  0  0
  -29.0700  -18.4750   21.7270 C   0  0  0  0  0  2  0  0  0  0  0  0
  -29.4240  -16.9060   23.7580 C   0  0  0  0  0  1  0  0  0  0  0  0
  -30.0760  -17.6330   22.5640 C   0  0  0  0  0  3  0  0  0  0  0  0
  -30.8890  -16.6440   21.6930 C   0  0  0  0  0  2  0  0  0  0  0  0
  -30.7550  -14.4240   20.6200 C   0  0  0  0  0  0  0  0  0  0  0  0
  -30.4120  -12.2990   19.4170 C   0  0  0  0  0  2  0  0  0  0  0  0
  -29.4870  -12.5110   18.2030 C   0  0  0  0  0  2  0  0  0  0  0  0
  -28.0100  -12.3740   18.6170 C   0  0  0  0  0  2  0  0  0  0  0  0
  -27.6630  -13.2110   19.8770 C   0  0  0  0  0  3  0  0  0  0  0  0
  -28.7030  -12.9940   20.9990 C   0  0  0  0  0  2  0  0  0  0  0  0
  -30.0400  -13.2800   20.4490 N   0  0  0  0  0  0  0  0  0  0  0  0
  -31.8350  -14.6250   20.0570 O   0  0  0  0  0  0  0  0  0  0  0  0
  -30.2140  -15.3710   21.4020 N   0  0  0  0  0  0  0  0  0  0  0  0
  -29.3230  -15.1860   21.8370 H   0  0  0  0  0  0  0  0  0  0  0  0
  -25.2590  -13.8180   20.5690 C   0  0  0  0  0  0  0  0  0  0  0  0
  -24.1840  -13.0450   20.9180 C   0  0  0  0  0  0  0  0  0  0  0  0
  -24.6390  -11.6920   20.8740 C   0  0  0  0  0  0  0  0  0  0  0  0
  -26.3030  -12.9360   20.3390 N   0  0  0  0  0  0  0  0  0  0  0  0
  -25.9320  -11.6510   20.5770 N   0  0  0  0  0  0  0  0  0  0  0  0
  -23.9060  -10.4300   21.0400 C   0  0  0  0  0  0  0  0  0  0  0  0
  -24.3610   -9.4220   21.9180 C   0  0  0  0  0  3  0  0  0  0  0  0
  -23.6290   -8.2250   22.0750 C   0  0  0  0  0  3  0  0  0  0  0  0
  -22.4280   -8.0280   21.3540 C   0  0  0  0  0  0  0  0  0  0  0  0
  -21.9910   -9.0260   20.4650 C   0  0  0  0  0  3  0  0  0  0  0  0
  -22.7230  -10.2140   20.3050 C   0  0  0  0  0  3  0  0  0  0  0  0
  -21.6640   -6.8880   21.4240 O   0  0  0  0  0  0  0  0  0  0  0  0
  -21.6850   -6.0740   22.5280 C   0  0  0  0  0  0  0  0  0  0  0  0
  -21.4020   -6.5640   23.8210 C   0  0  0  0  0  3  0  0  0  0  0  0
  -21.3660   -5.6790   24.9170 C   0  0  0  0  0  3  0  0  0  0  0  0
  -21.6040   -4.3050   24.7220 C   0  0  0  0  0  0  0  0  0  0  0  0
  -21.8820   -3.8150   23.4340 C   0  0  0  0  0  3  0  0  0  0  0  0
  -21.9190   -4.6970   22.3400 C   0  0  0  0  0  0  0  0  0  0  0  0
  -22.1660   -4.2150   21.0980 F   0  0  0  0  0  0  0  0  0  0  0  0
  -21.5630   -3.4540   25.7740 F   0  0  0  0  0  0  0  0  0  0  0  0
  -22.7860  -13.5250   21.1830 C   0  0  0  0  0  0  0  0  0  0  0  0
  -22.0500  -12.8240   22.0400 N   0  0  0  0  0  0  0  0  0  0  0  0
  -22.3540  -14.5550   20.6680 O   0  0  0  0  0  0  0  0  0  0  0  0
  -22.4110  -11.9910   22.4790 H   0  0  0  0  0  0  0  0  0  0  0  0
  -21.1120  -13.1270   22.2580 H   0  0  0  0  0  0  0  0  0  0  0  0
  -25.4310  -15.1900   20.4110 N   0  0  0  0  0  0  0  0  0  0  0  0
  -24.6700  -15.8500   20.5270 H   0  0  0  0  0  0  0  0  0  0  0  0
  -26.2930  -15.6280   20.1110 H   0  0  0  0  0  0  0  0  0  0  0  0
  1 55  1  0
  1  8  1  0
  2  4  1  0
  3  5  1  0
  3  2  1  0
  4  6  1  0
  5  7  1  0
  7  1  1  0
  7  6  1  0
  9 10  1  0
  9  8  1  0
 12 11  1  0
 12 10  1  0
 13 12  1  0
 14 13  1  0
 15 26  2  0
 16 14  1  0
 16 21  1  0
 17 25  1  0
 17 27  1  0
 18 24  1  0
 18 20  1  0
 19 25  1  0
 20 19  1  0
 21 20  2  0
 22 23  1  0
 22 16  2  0
 23 18  2  0
 24 17  1  0
 25 15  1  0
 27 29  2  0
 28 27  1  0
 30 28  1  0
 31 40  2  0
 31 36  1  0
 32 28  1  0
 32 36  1  0
 33 32  1  0
 34 35  1  0
 34 33  1  0
 35 31  1  0
 36 37  2  0
 37 38  1  0
 39 38  2  0
 40 39  1  0
 41 15  1  0
 41 46  1  0
 41 42  1  0
 42 45  1  1
 42 43  1  0
 44 42  1  0
 46 49  1  0
 47 51  1  0
 47 46  1  0
 48 47  2  0
 51 50  1  0
 53 51  1  0
 53 54  1  0
 53 52  1  0
 55 57  1  0
 57 56  1  0
 58 57  1  0
 59 67  1  0
 60 65  1  0
 61 62  1  0
 61 60  1  0
 63 62  1  0
 63 72  1  0
 63 64  1  0
 65 59  1  0
 65 64  1  0
 66 59  2  0
 67 58  1  0
 67 68  1  0
 69 70  2  0
 70 89  1  0
 71 70  1  0
 71 74  1  0
 72 69  1  0
 72 73  1  0
 73 71  2  0
 74 75  1  0
 75 76  2  0
 77 80  1  0
 77 76  1  0
 78 77  2  0
 79 78  1  0
 79 74  2  0
 80 81  1  0
 81 82  1  0
 82 83  2  0
 84 83  1  0
 84 88  1  0
 85 84  2  0
 86 81  2  0
 86 85  1  0
 87 86  1  0
 89 90  1  0
 90 93  1  0
 90 92  1  0
 91 89  2  0
 94 95  1  0
 94 69  1  0
 96 94  1  0
M  ISO  4  13 101  14 101  59 100  67 100
M  END
>  <TORSDO>  (5) 
F 25

>  <SCORE>  (5) 
32.474

>  <name>  (5) 
4

>  <ligand_id>  (5) 
4

>  <original_smiles>  (5) 
[H]c1c([H])c([H])c2c(c1[H])C([H])([H])C([H])([H])C([H])([H])C2([H])N([H])C(=O)C1([H])N(C(=O)C([H])(N([H])C(=O)C([H])(N([H])C([H])([H])[H])C([H])([H])[H])C(C([H])([H])[H])(C([H])([H])[H])C([H])([H])[H])C([H])([H])c2c([H])c(OC([H])([H])C([H])(C([H])([H])[H])C([H])([H])C([H])([H])C([H])([H])C([H])(C([H])([H])C([H])(C([H])([H])[H])C([H])([H])N([H])C(=O)N3C([H])([H])C([H])([H])C([H])([H])C([H])(n4nc(-c5c([H])c([H])c(Oc6c([H])c([H])c(F)c([H])c6F)c([H])c5[H])c(C(=O)N([H])[H])c4N([H])[H])C3([H])[H])C3([H])C([H])([H])C([H])([H])C([H])([H])C([H])([H])C3([H])[H])c([H])c([H])c2C1([H])[H]

>  <smiles>  (5) 
[H]c1c([H])c([H])c2c(c1[H])C([H])([H])C([H])([H])C([H])([H])C2([H])N([H])C(=O)C1([H])N(C(=O)C([H])(N([H])C(=O)C([H])(N([H])C([H])([H])[H])C([H])([H])[H])C(C([H])([H])[H])(C([H])([H])[H])C([H])([H])[H])C([H])([H])c2c([H])c(OC([H])([H])C([H])(C([H])([H])[H])C([H])([H])C([H])([H])C([H])([H])C([H])(C([H])([H])C([H])(C([H])([H])[H])C([H])([H])N([H])C(=O)N3C([H])([H])C([H])([H])C([H])([H])C([H])(n4nc(-c5c([H])c([H])c(Oc6c([H])c([H])c(F)c([H])c6F)c([H])c5[H])c(C(=O)N([H])[H])c4N([H])[H])C3([H])[H])C3([H])C([H])([H])C([H])([H])C([H])([H])C([H])([H])C3([H])[H])c([H])c([H])c2C1([H])[H]

$$$$
5:0:0
     RDKit          3D

 85 89  0  0  1  0  0  0  0  0999 V2000
  -29.0120  -21.5490   20.4470 C   0  0  0  0  0  2  0  0  0  0  0  0
  -29.8260  -21.7440   21.3540 O   0  0  0  0  0  0  0  0  0  0  0  0
  -30.1510  -16.1430   20.2330 C   0  0  0  0  0  0  0  0  0  0  0  0
  -30.4260  -13.4850   19.4750 C   0  0  0  0  0  2  0  0  0  0  0  0
  -29.5980  -12.8560   18.3000 C   0  0  0  0  0  2  0  0  0  0  0  0
  -28.2120  -12.3880   18.7630 C   0  0  0  0  0  2  0  0  0  0  0  0
  -27.6150  -13.4130   19.7420 C   0  0  0  0  0  3  0  0  0  0  0  0
  -28.6040  -13.9120   20.8380 C   0  0  0  0  0  2  0  0  0  0  0  0
  -29.7070  -14.6870   20.1690 N   0  0  0  0  0  0  0  0  0  0  0  0
  -31.3980  -16.0340   20.1150 O   0  0  0  0  0  0  0  0  0  0  0  0
  -27.0060  -18.1710   19.5360 C   0  0  0  0  0  2  0  0  0  0  0  0
  -27.5140  -19.4670   20.0680 C   0  0  0  0  0  2  0  0  0  0  0  0
  -27.9520  -17.0920   20.0260 C   0  0  0  0  0  2  0  0  0  0  0  0
  -29.0330  -19.4950   19.8760 C   0  0  0  0  0  1  0  0  0  0  0  0
  -29.3210  -17.5930   20.2220 N   0  0  0  0  0  2  0  0  0  0  0  0
  -25.2330  -13.8940   20.4630 C   0  0  0  0  0  0  0  0  0  0  0  0
  -24.1810  -13.1050   20.8180 C   0  0  0  0  0  0  0  0  0  0  0  0
  -24.6740  -11.7640   20.8080 C   0  0  0  0  0  0  0  0  0  0  0  0
  -26.3010  -13.0440   20.2520 N   0  0  0  0  0  0  0  0  0  0  0  0
  -25.9770  -11.7510   20.5220 N   0  0  0  0  0  0  0  0  0  0  0  0
  -23.9580  -10.4970   20.9940 C   0  0  0  0  0  0  0  0  0  0  0  0
  -24.3730   -9.5460   21.9520 C   0  0  0  0  0  3  0  0  0  0  0  0
  -23.6490   -8.3480   22.1310 C   0  0  0  0  0  3  0  0  0  0  0  0
  -22.4970   -8.0910   21.3510 C   0  0  0  0  0  0  0  0  0  0  0  0
  -22.1000   -9.0300   20.3830 C   0  0  0  0  0  3  0  0  0  0  0  0
  -22.8240  -10.2200   20.2030 C   0  0  0  0  0  3  0  0  0  0  0  0
  -21.7480   -6.9420   21.4370 O   0  0  0  0  0  0  0  0  0  0  0  0
  -21.6680   -6.2210   22.6020 C   0  0  0  0  0  0  0  0  0  0  0  0
  -21.1710   -6.7870   23.7960 C   0  0  0  0  0  3  0  0  0  0  0  0
  -21.0420   -5.9910   24.9520 C   0  0  0  0  0  3  0  0  0  0  0  0
  -21.3980   -4.6300   24.9140 C   0  0  0  0  0  0  0  0  0  0  0  0
  -21.8880   -4.0630   23.7240 C   0  0  0  0  0  3  0  0  0  0  0  0
  -22.0200   -4.8560   22.5700 C   0  0  0  0  0  0  0  0  0  0  0  0
  -22.4730   -4.3000   21.4210 F   0  0  0  0  0  0  0  0  0  0  0  0
  -21.2670   -3.8630   26.0210 F   0  0  0  0  0  0  0  0  0  0  0  0
  -22.7730  -13.5690   21.0450 C   0  0  0  0  0  0  0  0  0  0  0  0
  -22.0360  -12.8870   21.9140 N   0  0  0  0  0  0  0  0  0  0  0  0
  -22.3350  -14.5760   20.4900 O   0  0  0  0  0  0  0  0  0  0  0  0
  -22.4050  -12.0740   22.3860 H   0  0  0  0  0  0  0  0  0  0  0  0
  -21.0910  -13.1830   22.1110 H   0  0  0  0  0  0  0  0  0  0  0  0
  -25.3530  -15.2620   20.2630 N   0  0  0  0  0  0  0  0  0  0  0  0
  -24.5520  -15.8790   20.3360 H   0  0  0  0  0  0  0  0  0  0  0  0
  -26.1760  -15.7180   19.8960 H   0  0  0  0  0  0  0  0  0  0  0  0
  -28.1110  -23.2970   20.0130 C   0  0  0  0  0 15  0  0  0  0  0  0
  -28.1780  -25.1680   20.3430 O   0  0  0  0  0  1  0  0  0  0  0  0
  -24.6820  -31.8150   23.1690 C   0  0  0  0  0  0  0  0  0  0  0  0
  -27.2380  -26.5020   20.2520 C   0  0  0  0  0  0  0  0  0  0  0  0
  -23.5180  -30.3960   21.5380 C   0  0  0  0  0  3  0  0  0  0  0  0
  -24.9840  -28.6920   20.1600 C   0  0  0  0  0  0  0  0  0  0  0  0
  -26.1080  -30.4700   21.4630 C   0  0  0  0  0  2  0  0  0  0  0  0
  -26.1780  -29.0050   20.8160 C   0  0  0  0  0  0  0  0  0  0  0  0
  -27.2740  -27.9470   20.8250 C   0  0  0  0  0  3  0  0  0  0  0  0
  -26.0050  -26.4690   19.5290 C   0  0  0  0  0  3  0  0  0  0  0  0
  -24.9520  -27.4520   19.4920 C   0  0  0  0  0  3  0  0  0  0  0  0
  -23.7830  -29.6690   20.1830 C   0  0  0  0  0  2  0  0  0  0  0  0
  -24.7970  -30.9330   22.1080 N   0  0  0  0  0  0  0  0  0  0  0  0
  -23.5800  -32.1270   23.6570 O   0  0  0  0  0  0  0  0  0  0  0  0
  -22.7740  -29.4480   22.5190 C   0  0  0  0  0  0  0  0  0  0  0  0
  -21.4380  -29.3110   22.3950 N   0  0  0  0  0  0  0  0  0  0  0  0
  -23.4150  -28.8290   23.3710 O   0  0  0  0  0  0  0  0  0  0  0  0
  -20.9660  -29.8590   21.6890 H   0  0  0  0  0  0  0  0  0  0  0  0
  -18.0380  -28.1210   22.9260 C   0  0  0  0  0  0  0  0  0  0  0  0
  -20.6020  -28.3830   23.1710 C   0  0  0  0  0  3  0  0  0  0  0  0
  -20.6920  -26.9470   22.6020 C   0  0  0  0  0  2  0  0  0  0  0  0
  -19.5860  -26.6290   21.5910 C   0  0  0  0  0  2  0  0  0  0  0  0
  -18.2070  -26.7750   22.2410 C   0  0  0  0  0  2  0  0  0  0  0  0
  -19.1610  -28.8830   23.3470 C   0  0  0  0  0  0  0  0  0  0  0  0
  -18.9430  -30.1380   23.9560 C   0  0  0  0  0  3  0  0  0  0  0  0
  -17.6390  -30.6330   24.1420 C   0  0  0  0  0  3  0  0  0  0  0  0
  -16.5320  -29.8710   23.7310 C   0  0  0  0  0  3  0  0  0  0  0  0
  -16.7330  -28.6150   23.1290 C   0  0  0  0  0  3  0  0  0  0  0  0
  -25.9280  -32.4860   23.8240 C   0  0  0  0  0  3  0  0  0  0  0  0
  -25.5920  -33.8910   24.1450 N   0  0  0  0  0  0  0  0  0  0  0  0
  -25.9290  -34.9600   23.4100 C   0  0  0  0  0  0  0  0  0  0  0  0
  -26.6070  -34.8670   22.3830 O   0  0  0  0  0  0  0  0  0  0  0  0
  -24.9880  -34.0340   24.9410 H   0  0  0  0  0  0  0  0  0  0  0  0
  -24.2010  -36.7670   23.0810 C   0  0  0  0  0  1  0  0  0  0  0  0
  -25.4450  -36.3490   23.8810 C   0  0  0  0  0  3  0  0  0  0  0  0
  -27.5780  -37.2440   24.7160 C   0  0  0  0  0  1  0  0  0  0  0  0
  -26.4760  -37.4060   23.7710 N   0  0  0  0  0  0  0  0  0  0  0  0
  -26.0680  -38.3260   23.9160 H   0  0  0  0  0  0  0  0  0  0  0  0
  -26.4070  -31.7490   25.1360 C   0  0  1  0  0  0  0  0  0  0  0  0
  -25.2840  -31.5370   26.1800 C   0  0  0  0  0  1  0  0  0  0  0  0
  -27.0010  -30.3610   24.8130 C   0  0  0  0  0  1  0  0  0  0  0  0
  -27.5400  -32.5590   25.8100 C   0  0  0  0  0  1  0  0  0  0  0  0
  1  2  2  0
  4  9  1  0
  5  6  1  0
  5  4  1  0
  7  6  1  0
  7 19  1  0
  7  8  1  0
  9  3  1  0
  9  8  1  0
 10  3  2  0
 11 13  1  0
 11 12  1  0
 13 15  1  0
 14 12  1  0
 15  3  1  0
 16 17  2  0
 17 36  1  0
 18 17  1  0
 18 21  1  0
 19 16  1  0
 19 20  1  0
 20 18  2  0
 21 22  1  0
 22 23  2  0
 24 27  1  0
 24 23  1  0
 25 24  2  0
 26 25  1  0
 26 21  2  0
 27 28  1  0
 28 29  1  0
 29 30  2  0
 31 30  1  0
 31 35  1  0
 32 31  2  0
 33 28  2  0
 33 32  1  0
 34 33  1  0
 36 37  1  0
 37 40  1  0
 37 39  1  0
 38 36  2  0
 41 42  1  0
 41 16  1  0
 43 41  1  0
 46 57  2  0
 47 45  1  0
 47 52  1  0
 48 56  1  0
 48 58  1  0
 49 55  1  0
 49 51  1  0
 50 56  1  0
 51 52  2  0
 51 50  1  0
 53 47  2  0
 54 53  1  0
 54 49  2  0
 55 48  1  0
 56 46  1  0
 58 60  2  0
 59 58  1  0
 61 59  1  0
 62 71  2  0
 62 67  1  0
 63 59  1  0
 63 67  1  0
 64 63  1  0
 65 66  1  0
 65 64  1  0
 66 62  1  0
 67 68  2  0
 68 69  1  0
 70 69  2  0
 71 70  1  0
 72 46  1  0
 72 73  1  0
 72 82  1  0
 73 76  1  0
 74 78  1  0
 74 73  1  0
 75 74  2  0
 78 77  1  0
 80 78  1  0
 80 81  1  0
 80 79  1  0
 82 85  1  1
 82 83  1  0
 84 82  1  0
M  ISO  4   3 100  15 100  44 101  45 101
M  END
>  <TORSDO>  (6) 
F 17

>  <SCORE>  (6) 
-16.299

>  <name>  (6) 
5

>  <ligand_id>  (6) 
5

>  <original_smiles>  (6) 
[H]c1c([H])c([H])c2c(c1[H])C([H])([H])C([H])([H])C([H])([H])C2([H])N([H])C(=O)C1([H])N(C(=O)C([H])(N([H])C(=O)C([H])(N([H])C([H])([H])[H])C([H])([H])[H])C(C([H])([H])[H])(C([H])([H])[H])C([H])([H])[H])C([H])([H])c2c([H])c(OC([H])([H])C(=O)C3([H])N(C(=O)N4C([H])([H])C([H])([H])C([H])([H])C([H])(n5nc(-c6c([H])c([H])c(Oc7c([H])c([H])c(F)c([H])c7F)c([H])c6[H])c(C(=O)N([H])[H])c5N([H])[H])C4([H])[H])C([H])([H])C([H])([H])C3([H])[H])c([H])c([H])c2C1([H])[H]

>  <smiles>  (6) 
[H]c1c([H])c([H])c2c(c1[H])C([H])([H])C([H])([H])C([H])([H])C2([H])N([H])C(=O)C1([H])N(C(=O)C([H])(N([H])C(=O)C([H])(N([H])C([H])([H])[H])C([H])([H])[H])C(C([H])([H])[H])(C([H])([H])[H])C([H])([H])[H])C([H])([H])c2c([H])c(OC([H])([H])C(=O)C3([H])N(C(=O)N4C([H])([H])C([H])([H])C([H])([H])C([H])(n5nc(-c6c([H])c([H])c(Oc7c([H])c([H])c(F)c([H])c7F)c([H])c6[H])c(C(=O)N([H])[H])c5N([H])[H])C4([H])[H])C([H])([H])C([H])([H])C3([H])[H])c([H])c([H])c2C1([H])[H]

$$$$
6:0:0
     RDKit          3D

102110  0  0  1  0  0  0  0  0999 V2000
  -30.2740  -18.3370   20.4280 C   0  0  0  0  0  3  0  0  0  0  0  0
  -31.3740  -19.1830   19.7220 C   0  0  0  0  0  2  0  0  0  0  0  0
  -30.7980  -20.3150   18.8340 C   0  0  0  0  0  2  0  0  0  0  0  0
  -31.7180  -21.5380   18.6370 C   0  0  0  0  0  2  0  0  0  0  0  0
  -31.5100  -22.7220   19.6080 C   0  0  0  0  0  2  0  0  0  0  0  0
  -30.1600  -23.3300   19.5020 N   0  0  0  0  0  4  0  0  0  0  0  0
  -29.5060  -22.7490   20.0060 H   0  0  0  0  0  0  0  0  0  0  0  0
  -29.8860  -23.3200   18.5320 H   0  0  0  0  0  0  0  0  0  0  0  0
  -30.0630  -24.7290   20.0000 C   0  0  0  0  0  2  0  0  0  0  0  0
  -28.7040  -25.3780   19.6660 C   0  0  0  0  0  2  0  0  0  0  0  0
  -28.6990  -26.7620   20.0400 O   0  0  0  0  0  0  0  0  0  0  0  0
  -24.5940  -31.6010   23.2370 C   0  0  0  0  0  0  0  0  0  0  0  0
  -27.4920  -27.4340   20.0070 C   0  0  0  0  0  0  0  0  0  0  0  0
  -23.4930  -30.2590   21.4780 C   0  0  0  0  0  3  0  0  0  0  0  0
  -25.0450  -28.8590   20.0200 C   0  0  0  0  0  0  0  0  0  0  0  0
  -26.0090  -30.7120   21.3890 C   0  0  0  0  0  2  0  0  0  0  0  0
  -26.1650  -29.3840   20.6780 C   0  0  0  0  0  0  0  0  0  0  0  0
  -27.3880  -28.6790   20.6700 C   0  0  0  0  0  3  0  0  0  0  0  0
  -26.3520  -26.9280   19.3360 C   0  0  0  0  0  3  0  0  0  0  0  0
  -25.1340  -27.6300   19.3490 C   0  0  0  0  0  3  0  0  0  0  0  0
  -23.7710  -29.6720   20.0690 C   0  0  0  0  0  2  0  0  0  0  0  0
  -24.7150  -30.8680   22.0950 N   0  0  0  0  0  0  0  0  0  0  0  0
  -23.4860  -31.8030   23.7540 O   0  0  0  0  0  0  0  0  0  0  0  0
  -22.8490  -29.1590   22.3530 C   0  0  0  0  0  0  0  0  0  0  0  0
  -21.5620  -28.8700   22.1000 N   0  0  0  0  0  0  0  0  0  0  0  0
  -23.5070  -28.5710   23.2150 O   0  0  0  0  0  0  0  0  0  0  0  0
  -21.0900  -29.4030   21.3820 H   0  0  0  0  0  0  0  0  0  0  0  0
  -18.3070  -27.3080   22.1720 C   0  0  0  0  0  0  0  0  0  0  0  0
  -20.7610  -27.8500   22.7750 C   0  0  0  0  0  3  0  0  0  0  0  0
  -21.0960  -26.4360   22.2450 C   0  0  0  0  0  2  0  0  0  0  0  0
  -20.1830  -25.9900   21.0990 C   0  0  0  0  0  2  0  0  0  0  0  0
  -18.7190  -25.9830   21.5530 C   0  0  0  0  0  2  0  0  0  0  0  0
  -19.2670  -28.1910   22.7320 C   0  0  0  0  0  0  0  0  0  0  0  0
  -18.8350  -29.4250   23.2650 C   0  0  0  0  0  3  0  0  0  0  0  0
  -17.4720  -29.7800   23.2470 C   0  0  0  0  0  3  0  0  0  0  0  0
  -16.5240  -28.8950   22.7050 C   0  0  0  0  0  3  0  0  0  0  0  0
  -16.9410  -27.6610   22.1730 C   0  0  0  0  0  3  0  0  0  0  0  0
  -25.8360  -32.2370   23.9360 C   0  0  0  0  0  3  0  0  0  0  0  0
  -25.5640  -33.6710   24.0950 N   0  0  0  0  0  0  0  0  0  0  0  0
  -26.1000  -34.6350   23.3350 C   0  0  0  0  0  0  0  0  0  0  0  0
  -26.9410  -34.4090   22.4600 O   0  0  0  0  0  0  0  0  0  0  0  0
  -24.8420  -33.9240   24.7530 H   0  0  0  0  0  0  0  0  0  0  0  0
  -24.6580  -36.5040   22.4680 C   0  0  0  0  0  1  0  0  0  0  0  0
  -25.6280  -36.0800   23.5830 C   0  0  0  0  0  3  0  0  0  0  0  0
  -27.5610  -36.8780   24.8690 C   0  0  0  0  0  1  0  0  0  0  0  0
  -26.7360  -37.0550   23.6760 N   0  0  0  0  0  0  0  0  0  0  0  0
  -26.3800  -38.0060   23.6750 H   0  0  0  0  0  0  0  0  0  0  0  0
  -26.1770  -31.5740   25.3260 C   0  0  1  0  0  0  0  0  0  0  0  0
  -24.9660  -31.4770   26.2820 C   0  0  0  0  0  1  0  0  0  0  0  0
  -26.7340  -30.1450   25.1250 C   0  0  0  0  0  1  0  0  0  0  0  0
  -27.2840  -32.3860   26.0370 C   0  0  0  0  0  1  0  0  0  0  0  0
  -30.4770  -18.2560   21.9770 C   0  0  0  0  0  2  0  0  0  0  0  0
  -31.0770  -19.1320   24.2490 C   0  0  0  0  0  1  0  0  0  0  0  0
  -30.2590  -20.7480   22.5380 C   0  0  0  0  0  1  0  0  0  0  0  0
  -32.5580  -19.7650   22.3580 C   0  0  0  0  0  1  0  0  0  0  0  0
  -31.0950  -19.4700   22.7440 C   0  0  2  0  0  0  0  0  0  0  0  0
  -29.9990  -16.9310   19.7760 C   0  0  0  0  0  0  0  0  0  0  0  0
  -31.1820  -14.7390   20.2840 C   0  0  0  0  0  0  0  0  0  0  0  0
  -30.8740  -12.5940   19.1250 C   0  0  0  0  0  2  0  0  0  0  0  0
  -29.9550  -12.8510   17.9090 C   0  0  0  0  0  2  0  0  0  0  0  0
  -28.4670  -12.7670   18.3040 C   0  0  0  0  0  2  0  0  0  0  0  0
  -28.1400  -13.5820   19.5820 C   0  0  0  0  0  3  0  0  0  0  0  0
  -29.1660  -13.2880   20.7040 C   0  0  0  0  0  2  0  0  0  0  0  0
  -30.5150  -13.5580   20.1770 N   0  0  0  0  0  0  0  0  0  0  0  0
  -32.3300  -14.9120   19.8660 O   0  0  0  0  0  0  0  0  0  0  0  0
  -30.3810  -15.7700   20.6200 N   0  0  0  0  0  4  0  0  0  0  0  0
  -29.6050  -15.4470   21.1760 H   0  0  0  0  0  0  0  0  0  0  0  0
  -25.7750  -14.2860   20.3210 C   0  0  0  0  0  0  0  0  0  0  0  0
  -24.6560  -13.5530   20.6150 C   0  0  0  0  0  0  0  0  0  0  0  0
  -25.0320  -12.1850   20.4700 C   0  0  0  0  0  0  0  0  0  0  0  0
  -26.7680  -13.3610   20.0250 N   0  0  0  0  0  0  0  0  0  0  0  0
  -26.3210  -12.0880   20.1700 N   0  0  0  0  0  0  0  0  0  0  0  0
  -24.2290  -10.9580   20.5470 C   0  0  0  0  0  0  0  0  0  0  0  0
  -24.6160   -9.8750   21.3680 C   0  0  0  0  0  3  0  0  0  0  0  0
  -23.8210   -8.7110   21.4390 C   0  0  0  0  0  3  0  0  0  0  0  0
  -22.6240   -8.6220   20.6870 C   0  0  0  0  0  0  0  0  0  0  0  0
  -22.2560   -9.6930   19.8580 C   0  0  0  0  0  3  0  0  0  0  0  0
  -23.0510  -10.8500   19.7820 C   0  0  0  0  0  3  0  0  0  0  0  0
  -21.8030   -7.5220   20.6750 O   0  0  0  0  0  0  0  0  0  0  0  0
  -21.7090   -6.6810   21.7540 C   0  0  0  0  0  0  0  0  0  0  0  0
  -21.3250   -7.1450   23.0300 C   0  0  0  0  0  3  0  0  0  0  0  0
  -21.1710   -6.2350   24.0960 C   0  0  0  0  0  3  0  0  0  0  0  0
  -21.3960   -4.8600   23.8850 C   0  0  0  0  0  0  0  0  0  0  0  0
  -21.7770   -4.3950   22.6140 C   0  0  0  0  0  3  0  0  0  0  0  0
  -21.9300   -5.3030   21.5510 C   0  0  0  0  0  0  0  0  0  0  0  0
  -22.2730   -4.8460   20.3230 F   0  0  0  0  0  0  0  0  0  0  0  0
  -21.2430   -3.9850   24.9050 F   0  0  0  0  0  0  0  0  0  0  0  0
  -23.2900  -14.0920   20.9220 C   0  0  0  0  0  0  0  0  0  0  0  0
  -22.5350  -13.3950   21.7640 N   0  0  0  0  0  0  0  0  0  0  0  0
  -22.9030  -15.1630   20.4540 O   0  0  0  0  0  0  0  0  0  0  0  0
  -22.8640  -12.5270   22.1590 H   0  0  0  0  0  0  0  0  0  0  0  0
  -21.6160  -13.7330   22.0130 H   0  0  0  0  0  0  0  0  0  0  0  0
  -26.0250  -15.6520   20.2610 N   0  0  0  0  0  0  0  0  0  0  0  0
  -25.2970  -16.3360   20.4250 H   0  0  0  0  0  0  0  0  0  0  0  0
  -26.9050  -16.0680   19.9890 H   0  0  0  0  0  0  0  0  0  0  0  0
  -30.2990  -16.7670   18.2490 C   0  0  0  0  0  2  0  0  0  0  0  0
  -29.4460  -19.2870   14.7350 C   0  0  0  0  0  2  0  0  0  0  0  0
  -30.9080  -18.9970   15.1020 C   0  0  0  0  0  2  0  0  0  0  0  0
  -28.6000  -19.5060   15.9990 C   0  0  0  0  0  2  0  0  0  0  0  0
  -31.0180  -17.8220   16.0850 C   0  0  0  0  0  2  0  0  0  0  0  0
  -28.6960  -18.3070   16.9530 C   0  0  0  0  0  2  0  0  0  0  0  0
  -30.1620  -18.0220   17.3580 C   0  0  0  0  0  3  0  0  0  0  0  0
  1  2  1  0
  1 52  1  0
  3  2  1  0
  4  3  1  0
  4  5  1  0
  6  5  1  0
  6  9  1  0
  6  7  1  0
  8  6  1  0
 10  9  1  0
 10 11  1  0
 12 23  2  0
 13 11  1  0
 13 18  1  0
 14 22  1  0
 14 24  1  0
 15 21  1  0
 15 17  1  0
 16 22  1  0
 17 16  1  0
 18 17  2  0
 19 20  1  0
 19 13  2  0
 20 15  2  0
 21 14  1  0
 22 12  1  0
 24 26  2  0
 25 24  1  0
 27 25  1  0
 28 37  2  0
 28 33  1  0
 29 25  1  0
 30 29  1  0
 31 32  1  0
 31 30  1  0
 32 28  1  0
 33 29  1  0
 33 34  2  0
 35 34  1  0
 36 35  2  0
 37 36  1  0
 38 12  1  0
 38 39  1  0
 38 48  1  0
 39 42  1  0
 40 44  1  0
 40 39  1  0
 41 40  2  0
 44 43  1  0
 44 46  1  0
 46 45  1  0
 47 46  1  0
 48 51  1  1
 48 49  1  0
 50 48  1  0
 52 56  1  0
 56 54  1  1
 55 56  1  0
 56 53  1  0
 57  1  1  0
 57 66  2  3
 58 66  1  0
 59 64  1  0
 60 61  1  0
 60 59  1  0
 62 61  1  0
 62 71  1  0
 62 63  1  0
 64 58  1  0
 64 63  1  0
 65 58  2  0
 66 67  1  0
 68 69  2  0
 69 88  1  0
 70 73  1  0
 70 69  1  0
 71 72  1  0
 71 68  1  0
 72 70  2  0
 73 74  1  0
 74 75  2  0
 76 75  1  0
 77 76  2  0
 78 77  1  0
 78 73  2  0
 79 76  1  0
 79 80  1  0
 80 81  1  0
 81 82  2  0
 83 82  1  0
 83 87  1  0
 84 83  2  0
 85 80  2  0
 85 84  1  0
 86 85  1  0
 88 89  1  0
 89 92  1  0
 89 91  1  0
 90 88  2  0
 93 68  1  0
 93 94  1  0
 95 93  1  0
 96 57  1  0
 97 98  1  0
 97 99  1  0
 98100  1  0
 99101  1  0
100102  1  0
101102  1  0
102 96  1  0
M  ISO  4  10 101  11 101  58 100  66 100
M  END
>  <TORSDO>  (7) 
F 28

>  <SCORE>  (7) 
-8.654

>  <name>  (7) 
6

>  <ligand_id>  (7) 
6

>  <original_smiles>  (7) 
[H]c1c([H])c([H])c2c(c1[H])C([H])([H])C([H])([H])C([H])([H])C2([H])N([H])C(=O)C1([H])N(C(=O)C([H])(N([H])C(=O)C([H])(N([H])C([H])([H])[H])C([H])([H])[H])C(C([H])([H])[H])(C([H])([H])[H])C([H])([H])[H])C([H])([H])c2c([H])c(OC([H])([H])C([H])([H])[N+]([H])([H])C([H])([H])C([H])([H])C([H])([H])C([H])([H])C([H])(C([H])([H])C(C([H])([H])[H])(C([H])([H])[H])C([H])([H])[H])C([H])(N([H])C(=O)N3C([H])([H])C([H])([H])C([H])([H])C([H])(n4nc(-c5c([H])c([H])c(Oc6c([H])c([H])c(F)c([H])c6F)c([H])c5[H])c(C(=O)N([H])[H])c4N([H])[H])C3([H])[H])C([H])([H])C3([H])C([H])([H])C([H])([H])C([H])([H])C([H])([H])C3([H])[H])c([H])c([H])c2C1([H])[H]

>  <smiles>  (7) 
[H]c1c([H])c([H])c2c(c1[H])C([H])([H])C([H])([H])C([H])([H])C2([H])N([H])C(=O)C1([H])N(C(=O)C([H])(N([H])C(=O)C([H])(N([H])C([H])([H])[H])C([H])([H])[H])C(C([H])([H])[H])(C([H])([H])[H])C([H])([H])[H])C([H])([H])c2c([H])c(OC([H])([H])C([H])([H])[N+]([H])([H])C([H])([H])C([H])([H])C([H])([H])C([H])([H])C([H])(C([H])([H])C(C([H])([H])[H])(C([H])([H])[H])C([H])([H])[H])C([H])(N([H])C(=O)N3C([H])([H])C([H])([H])C([H])([H])C([H])(n4nc(-c5c([H])c([H])c(Oc6c([H])c([H])c(F)c([H])c6F)c([H])c5[H])c(C(=O)N([H])[H])c4N([H])[H])C3([H])[H])C([H])([H])C3([H])C([H])([H])C([H])([H])C([H])([H])C([H])([H])C3([H])[H])c([H])c([H])c2C1([H])[H]

$$$$
7:0:0
     RDKit          3D

 95102  0  0  1  0  0  0  0  0999 V2000
  -29.4570  -20.6790   20.6600 C   0  0  0  0  0  0  0  0  0  0  0  0
  -28.9310  -21.8950   20.1170 N   0  0  0  0  0  4  0  0  0  0  0  0
  -30.1370  -20.7730   21.6830 O   0  0  0  0  0  0  0  0  0  0  0  0
  -28.4000  -21.7830   19.2620 H   0  0  0  0  0  0  0  0  0  0  0  0
  -29.1580  -19.1160   20.1460 C   0  0  0  0  0  3  0  0  0  0  0  0
  -27.8310  -18.7890   20.6880 N   0  0  0  0  0  4  0  0  0  0  0  0
  -27.4360  -17.9830   20.2450 H   0  0  0  0  0  0  0  0  0  0  0  0
  -27.2130  -19.5700   20.5430 H   0  0  0  0  0  0  0  0  0  0  0  0
  -27.8970  -18.6390   21.6770 H   0  0  0  0  0  0  0  0  0  0  0  0
  -30.1920  -17.7710   20.3940 C   0  0  0  0  0  2  0  0  0  0  0  0
  -30.5310  -15.0180   20.2610 C   0  0  0  0  0  0  0  0  0  0  0  0
  -30.3810  -12.6720   19.3190 C   0  0  0  0  0  2  0  0  0  0  0  0
  -29.4390  -12.6300   18.0930 C   0  0  0  0  0  2  0  0  0  0  0  0
  -27.9800  -12.4100   18.5330 C   0  0  0  0  0  2  0  0  0  0  0  0
  -27.5840  -13.3370   19.7140 C   0  0  0  0  0  3  0  0  0  0  0  0
  -28.6490  -13.3540   20.8320 C   0  0  0  0  0  2  0  0  0  0  0  0
  -29.9160  -13.7680   20.2160 N   0  0  0  0  0  0  0  0  0  0  0  0
  -31.7280  -15.0640   19.9550 O   0  0  0  0  0  0  0  0  0  0  0  0
  -29.7860  -16.2240   20.4460 N   0  0  0  0  0  0  0  0  0  0  0  0
  -28.8200  -16.0420   20.6770 H   0  0  0  0  0  0  0  0  0  0  0  0
  -25.2100  -13.9280   20.4790 C   0  0  0  0  0  0  0  0  0  0  0  0
  -24.1490  -13.1570   20.8680 C   0  0  0  0  0  0  0  0  0  0  0  0
  -24.6100  -11.8050   20.8380 C   0  0  0  0  0  0  0  0  0  0  0  0
  -26.2490  -13.0450   20.2310 N   0  0  0  0  0  0  0  0  0  0  0  0
  -25.8970  -11.7640   20.5110 N   0  0  0  0  0  0  0  0  0  0  0  0
  -23.8820  -10.5450   21.0300 C   0  0  0  0  0  0  0  0  0  0  0  0
  -24.3250   -9.5720   21.9490 C   0  0  0  0  0  3  0  0  0  0  0  0
  -23.5960   -8.3760   22.1330 C   0  0  0  0  0  3  0  0  0  0  0  0
  -22.4130   -8.1450   21.3960 C   0  0  0  0  0  0  0  0  0  0  0  0
  -21.9910   -9.1070   20.4620 C   0  0  0  0  0  3  0  0  0  0  0  0
  -22.7180  -10.2930   20.2750 C   0  0  0  0  0  3  0  0  0  0  0  0
  -21.6500   -7.0040   21.4930 O   0  0  0  0  0  0  0  0  0  0  0  0
  -21.6150   -6.2560   22.6420 C   0  0  0  0  0  0  0  0  0  0  0  0
  -21.2090   -6.8060   23.8770 C   0  0  0  0  0  3  0  0  0  0  0  0
  -21.1200   -5.9840   25.0190 C   0  0  0  0  0  3  0  0  0  0  0  0
  -21.4290   -4.6150   24.9260 C   0  0  0  0  0  0  0  0  0  0  0  0
  -21.8290   -4.0630   23.6980 C   0  0  0  0  0  3  0  0  0  0  0  0
  -21.9200   -4.8820   22.5580 C   0  0  0  0  0  0  0  0  0  0  0  0
  -22.2850   -4.3410   21.3710 F   0  0  0  0  0  0  0  0  0  0  0  0
  -21.3370   -3.8240   26.0210 F   0  0  0  0  0  0  0  0  0  0  0  0
  -22.7560  -13.6380   21.1500 C   0  0  0  0  0  0  0  0  0  0  0  0
  -22.0290  -12.9440   22.0200 N   0  0  0  0  0  0  0  0  0  0  0  0
  -22.3200  -14.6650   20.6340 O   0  0  0  0  0  0  0  0  0  0  0  0
  -22.3950  -12.1160   22.4640 H   0  0  0  0  0  0  0  0  0  0  0  0
  -21.0930  -13.2480   22.2460 H   0  0  0  0  0  0  0  0  0  0  0  0
  -25.3720  -15.2970   20.2800 N   0  0  0  0  0  0  0  0  0  0  0  0
  -24.5620  -15.9090   20.2860 H   0  0  0  0  0  0  0  0  0  0  0  0
  -26.1330  -15.6590   19.7240 H   0  0  0  0  0  0  0  0  0  0  0  0
  -29.0560  -23.4220   20.5700 C   0  0  0  0  0  0  0  0  0  0  0  0
  -30.5400  -23.8790   20.5890 C   0  0  0  0  0  2  0  0  0  0  0  0
  -31.5630  -22.7890   18.4890 C   0  0  0  0  0  1  0  0  0  0  0  0
  -32.5920  -24.8560   19.4760 C   0  0  0  0  0  1  0  0  0  0  0  0
  -31.2690  -24.1010   19.2380 C   0  0  0  0  0  3  0  0  0  0  0  0
  -28.1090  -24.7080   20.0040 C   0  0  0  0  0  2  0  0  0  0  0  0
  -28.2730  -26.2230   20.3430 O   0  0  0  0  0  0  0  0  0  0  0  0
  -24.6220  -31.9100   23.2500 C   0  0  0  0  0  0  0  0  0  0  0  0
  -27.2060  -27.1900   20.2500 C   0  0  0  0  0  0  0  0  0  0  0  0
  -23.4210  -30.5120   21.6120 C   0  0  0  0  0  3  0  0  0  0  0  0
  -24.8730  -28.9280   20.2010 C   0  0  0  0  0  0  0  0  0  0  0  0
  -25.9760  -30.7790   21.4490 C   0  0  0  0  0  2  0  0  0  0  0  0
  -26.0490  -29.3830   20.8090 C   0  0  0  0  0  0  0  0  0  0  0  0
  -27.2140  -28.5290   20.8140 C   0  0  0  0  0  3  0  0  0  0  0  0
  -26.0030  -26.8380   19.5970 C   0  0  0  0  0  3  0  0  0  0  0  0
  -24.8620  -27.6710   19.5800 C   0  0  0  0  0  3  0  0  0  0  0  0
  -23.6470  -29.8240   20.2370 C   0  0  0  0  0  2  0  0  0  0  0  0
  -24.6920  -31.0900   22.1580 N   0  0  0  0  0  0  0  0  0  0  0  0
  -23.5360  -32.1990   23.7760 O   0  0  0  0  0  0  0  0  0  0  0  0
  -22.7410  -29.5090   22.5800 C   0  0  0  0  0  0  0  0  0  0  0  0
  -21.4140  -29.3370   22.4530 N   0  0  0  0  0  0  0  0  0  0  0  0
  -23.4130  -28.8900   23.4080 O   0  0  0  0  0  0  0  0  0  0  0  0
  -20.9300  -29.8900   21.7610 H   0  0  0  0  0  0  0  0  0  0  0  0
  -18.0350  -28.1380   22.9550 C   0  0  0  0  0  0  0  0  0  0  0  0
  -20.5930  -28.4050   23.2280 C   0  0  0  0  0  3  0  0  0  0  0  0
  -20.6970  -26.9700   22.6650 C   0  0  0  0  0  2  0  0  0  0  0  0
  -19.5970  -26.6380   21.6500 C   0  0  0  0  0  2  0  0  0  0  0  0
  -18.2130  -26.7850   22.2870 C   0  0  0  0  0  2  0  0  0  0  0  0
  -19.1500  -28.9060   23.3830 C   0  0  0  0  0  0  0  0  0  0  0  0
  -18.9260  -30.1710   23.9710 C   0  0  0  0  0  3  0  0  0  0  0  0
  -17.6180  -30.6690   24.1310 C   0  0  0  0  0  3  0  0  0  0  0  0
  -16.5190  -29.9010   23.7140 C   0  0  0  0  0  3  0  0  0  0  0  0
  -16.7270  -28.6360   23.1350 C   0  0  0  0  0  3  0  0  0  0  0  0
  -25.9020  -32.5450   23.8740 C   0  0  0  0  0  3  0  0  0  0  0  0
  -26.4110  -31.7820   25.1600 C   0  0  1  0  0  0  0  0  0  0  0  0
  -25.3070  -31.5650   26.2200 C   0  0  0  0  0  1  0  0  0  0  0  0
  -26.9900  -30.3970   24.7860 C   0  0  0  0  0  1  0  0  0  0  0  0
  -27.5610  -32.5770   25.8210 C   0  0  0  0  0  1  0  0  0  0  0  0
  -25.5930  -33.9470   24.2000 N   0  0  0  0  0  0  0  0  0  0  0  0
  -25.9180  -34.9990   23.4410 C   0  0  0  0  0  0  0  0  0  0  0  0
  -26.5780  -34.8930   22.4030 O   0  0  0  0  0  0  0  0  0  0  0  0
  -25.0040  -34.1020   25.0060 H   0  0  0  0  0  0  0  0  0  0  0  0
  -24.1860  -36.7940   23.1070 C   0  0  0  0  0  1  0  0  0  0  0  0
  -25.4380  -36.3890   23.9010 C   0  0  0  0  0  3  0  0  0  0  0  0
  -27.5830  -37.2830   24.7010 C   0  0  0  0  0  1  0  0  0  0  0  0
  -26.4700  -37.4430   23.7690 N   0  0  0  0  0  0  0  0  0  0  0  0
  -26.0630  -38.3630   23.9160 H   0  0  0  0  0  0  0  0  0  0  0  0
  1  3  2  0
  2 49  2  0
  2  1  1  0
  4  2  1  0
  5 10  1  0
  5  1  1  0
  5  6  1  0
  6  9  1  0
  7  6  1  0
  8  6  1  0
 10 19  1  0
 11 19  1  0
 12 17  1  0
 13 14  1  0
 13 12  1  0
 15 14  1  0
 15 24  1  0
 15 16  1  0
 17 11  1  0
 17 16  1  0
 18 11  2  0
 19 20  1  0
 21 22  2  0
 22 41  1  0
 23 22  1  0
 23 26  1  0
 24 21  1  0
 24 25  1  0
 25 23  2  0
 26 27  1  0
 27 28  2  0
 29 32  1  0
 29 28  1  0
 30 29  2  0
 31 30  1  0
 31 26  2  0
 32 33  1  0
 33 34  1  0
 34 35  2  0
 36 35  1  0
 36 40  1  0
 37 36  2  0
 38 33  2  0
 38 37  1  0
 39 38  1  0
 41 42  1  0
 42 45  1  0
 42 44  1  0
 43 41  2  0
 46 47  1  0
 46 21  1  0
 48 46  1  0
 49 50  1  0
 51 53  1  0
 53 52  1  0
 53 50  1  0
 54 55  1  0
 54 49  1  0
 56 67  2  0
 57 55  1  0
 57 62  1  0
 58 66  1  0
 58 68  1  0
 59 65  1  0
 59 61  1  0
 60 66  1  0
 61 62  2  0
 61 60  1  0
 63 57  2  0
 64 63  1  0
 64 59  2  0
 65 58  1  0
 66 56  1  0
 68 70  2  0
 69 68  1  0
 71 69  1  0
 72 81  2  0
 72 77  1  0
 73 69  1  0
 73 77  1  0
 74 73  1  0
 75 76  1  0
 75 74  1  0
 76 72  1  0
 77 78  2  0
 78 79  1  0
 80 79  2  0
 81 80  1  0
 82 56  1  0
 82 87  1  0
 82 83  1  0
 83 86  1  1
 83 84  1  0
 85 83  1  0
 87 90  1  0
 88 92  1  0
 88 87  1  0
 89 88  2  0
 92 91  1  0
 94 92  1  0
 94 95  1  0
 94 93  1  0
M  ISO  4  11 100  19 100  54 101  55 101
M  END
>  <TORSDO>  (8) 
F 23

>  <SCORE>  (8) 
-14.250

>  <name>  (8) 
7

>  <ligand_id>  (8) 
7

>  <original_smiles>  (8) 
[H]c1c([H])c([H])c2c(c1[H])C([H])([H])C([H])([H])C([H])([H])C2([H])N([H])C(=O)C1([H])N(C(=O)C([H])(N([H])C(=O)C([H])(N([H])C([H])([H])[H])C([H])([H])[H])C(C([H])([H])[H])(C([H])([H])[H])C([H])([H])[H])C([H])([H])c2c([H])c(OC([H])([H])C([H])(N([H])C(=O)C([H])(C([H])([H])N([H])C(=O)N3C([H])([H])C([H])([H])C([H])([H])C([H])(n4nc(-c5c([H])c([H])c(Oc6c([H])c([H])c(F)c([H])c6F)c([H])c5[H])c(C(=O)N([H])[H])c4N([H])[H])C3([H])[H])[N+]([H])([H])[H])C([H])([H])C([H])(C([H])([H])[H])C([H])([H])[H])c([H])c([H])c2C1([H])[H]

>  <smiles>  (8) 
[H]c1c([H])c([H])c2c(c1[H])C([H])([H])C([H])([H])C([H])([H])C2([H])N([H])C(=O)C1([H])N(C(=O)C([H])(N([H])C(=O)C([H])(N([H])C([H])([H])[H])C([H])([H])[H])C(C([H])([H])[H])(C([H])([H])[H])C([H])([H])[H])C([H])([H])c2c([H])c(OC([H])([H])C([H])(N([H])C(=O)C([H])(C([H])([H])N([H])C(=O)N3C([H])([H])C([H])([H])C([H])([H])C([H])(n4nc(-c5c([H])c([H])c(Oc6c([H])c([H])c(F)c([H])c6F)c([H])c5[H])c(C(=O)N([H])[H])c4N([H])[H])C3([H])[H])[N+]([H])([H])[H])C([H])([H])C([H])(C([H])([H])[H])C([H])([H])[H])c([H])c([H])c2C1([H])[H]

$$$$
8:0:0
     RDKit          3D

100109  0  0  1  0  0  0  0  0999 V2000
  -33.3280  -24.1030   20.4410 C   0  0  0  0  0  2  0  0  0  0  0  0
  -32.7380  -19.0950   19.8720 C   0  0  0  0  0  2  0  0  0  0  0  0
  -33.3420  -22.9330   19.4530 C   0  0  0  0  0  2  0  0  0  0  0  0
  -33.1440  -20.4170   19.2070 C   0  0  0  0  0  2  0  0  0  0  0  0
  -31.5310  -22.8250   21.7470 C   0  0  0  0  0  2  0  0  0  0  0  0
  -31.2370  -20.4020   21.4140 C   0  0  0  0  0  2  0  0  0  0  0  0
  -31.9870  -24.2100   21.1980 C   0  0  0  0  0  3  0  0  0  0  0  0
  -31.3110  -19.2170   20.4260 C   0  0  0  0  0  3  0  0  0  0  0  0
  -33.0160  -21.6130   20.1740 C   0  0  0  0  0  3  0  0  0  0  0  0
  -31.6580  -21.6910   20.7880 N   0  0  2  0  0  4  0  0  0  0  0  0
  -31.0080  -21.8770   20.0390 H   0  0  0  0  0  0  0  0  0  0  0  0
  -30.9130  -25.0420   20.4300 C   0  0  0  0  0  2  0  0  0  0  0  0
  -29.9170  -25.6730   22.7470 C   0  0  0  0  0  1  0  0  0  0  0  0
  -29.6590  -25.5190   21.2300 C   0  0  0  0  0  3  0  0  0  0  0  0
  -29.0720  -26.8630   20.7080 C   0  0  0  0  0  2  0  0  0  0  0  0
  -28.1480  -26.7330   19.6190 O   0  0  0  0  0  0  0  0  0  0  0  0
  -24.4840  -31.8050   23.0470 C   0  0  0  0  0  0  0  0  0  0  0  0
  -27.0150  -27.5260   19.6830 C   0  0  0  0  0  0  0  0  0  0  0  0
  -23.2080  -30.4840   21.3860 C   0  0  0  0  0  3  0  0  0  0  0  0
  -24.6050  -29.0110   19.8350 C   0  0  0  0  0  0  0  0  0  0  0  0
  -25.7190  -30.8600   21.1010 C   0  0  0  0  0  2  0  0  0  0  0  0
  -25.7790  -29.5210   20.4010 C   0  0  0  0  0  0  0  0  0  0  0  0
  -26.9830  -28.7930   20.3190 C   0  0  0  0  0  3  0  0  0  0  0  0
  -25.8270  -27.0370   19.1000 C   0  0  0  0  0  3  0  0  0  0  0  0
  -24.6230  -27.7670   19.1770 C   0  0  0  0  0  3  0  0  0  0  0  0
  -23.3610  -29.8600   19.9700 C   0  0  0  0  0  2  0  0  0  0  0  0
  -24.4910  -31.0610   21.9040 N   0  0  0  0  0  0  0  0  0  0  0  0
  -23.4270  -32.0530   23.6420 O   0  0  0  0  0  0  0  0  0  0  0  0
  -22.5890  -29.4240   22.3250 C   0  0  0  0  0  0  0  0  0  0  0  0
  -21.2580  -29.2680   22.2550 N   0  0  0  0  0  0  0  0  0  0  0  0
  -23.3030  -28.7460   23.0700 O   0  0  0  0  0  0  0  0  0  0  0  0
  -20.7440  -29.8660   21.6230 H   0  0  0  0  0  0  0  0  0  0  0  0
  -17.8890  -28.1270   22.8800 C   0  0  0  0  0  0  0  0  0  0  0  0
  -20.4630  -28.3020   23.0140 C   0  0  0  0  0  3  0  0  0  0  0  0
  -20.4910  -26.9100   22.3430 C   0  0  0  0  0  2  0  0  0  0  0  0
  -19.3230  -26.6820   21.3780 C   0  0  0  0  0  2  0  0  0  0  0  0
  -17.9860  -26.8200   22.1120 C   0  0  0  0  0  2  0  0  0  0  0  0
  -19.0510  -28.8310   23.2900 C   0  0  0  0  0  0  0  0  0  0  0  0
  -18.9050  -30.0600   23.9700 C   0  0  0  0  0  3  0  0  0  0  0  0
  -17.6280  -30.5830   24.2440 C   0  0  0  0  0  3  0  0  0  0  0  0
  -16.4790  -29.8730   23.8520 C   0  0  0  0  0  3  0  0  0  0  0  0
  -16.6110  -28.6480   23.1760 C   0  0  0  0  0  3  0  0  0  0  0  0
  -25.7980  -32.4000   23.6450 C   0  0  0  0  0  3  0  0  0  0  0  0
  -25.5170  -33.7870   24.0390 N   0  0  0  0  0  0  0  0  0  0  0  0
  -25.8630  -34.8660   23.3230 C   0  0  0  0  0  0  0  0  0  0  0  0
  -26.5230  -34.7960   22.2830 O   0  0  0  0  0  0  0  0  0  0  0  0
  -24.9310  -33.9170   24.8510 H   0  0  0  0  0  0  0  0  0  0  0  0
  -24.1630  -36.6990   23.0570 C   0  0  0  0  0  1  0  0  0  0  0  0
  -25.4010  -36.2400   23.8430 C   0  0  0  0  0  3  0  0  0  0  0  0
  -27.5530  -37.0530   24.7010 C   0  0  0  0  0  1  0  0  0  0  0  0
  -26.4510  -37.2790   23.7700 N   0  0  0  0  0  0  0  0  0  0  0  0
  -26.0610  -38.1980   23.9590 H   0  0  0  0  0  0  0  0  0  0  0  0
  -26.3560  -31.5730   24.8680 C   0  0  1  0  0  0  0  0  0  0  0  0
  -25.3040  -31.3040   25.9680 C   0  0  0  0  0  1  0  0  0  0  0  0
  -26.9070  -30.2070   24.3950 C   0  0  0  0  0  1  0  0  0  0  0  0
  -27.5420  -32.3280   25.5150 C   0  0  0  0  0  1  0  0  0  0  0  0
  -30.7880  -17.8790   21.0290 C   0  0  0  0  0  2  0  0  0  0  0  0
  -30.0710  -16.9740   19.9920 C   0  0  0  0  0  3  0  0  0  0  0  0
  -30.5910  -14.5320   19.9310 C   0  0  0  0  0  0  0  0  0  0  0  0
  -30.1600  -12.4310   18.7370 C   0  0  0  0  0  2  0  0  0  0  0  0
  -29.1340  -12.7220   17.6210 C   0  0  0  0  0  2  0  0  0  0  0  0
  -27.6950  -12.5710   18.1530 C   0  0  0  0  0  2  0  0  0  0  0  0
  -27.4630  -13.3250   19.4920 C   0  0  0  0  0  3  0  0  0  0  0  0
  -28.6100  -13.0600   20.4990 C   0  0  0  0  0  2  0  0  0  0  0  0
  -29.8910  -13.3690   19.8370 N   0  0  0  0  0  0  0  0  0  0  0  0
  -31.6840  -14.7050   19.3880 O   0  0  0  0  0  0  0  0  0  0  0  0
  -29.9170  -15.5750   20.4410 N   0  0  0  0  0  0  0  0  0  0  0  0
  -29.0450  -15.3490   20.8960 H   0  0  0  0  0  0  0  0  0  0  0  0
  -25.0940  -13.8840   20.3280 C   0  0  0  0  0  0  0  0  0  0  0  0
  -24.0740  -13.0960   20.7820 C   0  0  0  0  0  0  0  0  0  0  0  0
  -24.5650  -11.7560   20.7360 C   0  0  0  0  0  0  0  0  0  0  0  0
  -26.1500  -13.0260   20.0550 N   0  0  0  0  0  0  0  0  0  0  0  0
  -25.8340  -11.7410   20.3510 N   0  0  0  0  0  0  0  0  0  0  0  0
  -23.8780  -10.4830   20.9840 C   0  0  0  0  0  0  0  0  0  0  0  0
  -24.3610   -9.5590   21.9370 C   0  0  0  0  0  3  0  0  0  0  0  0
  -23.6740   -8.3480   22.1710 C   0  0  0  0  0  3  0  0  0  0  0  0
  -22.4920   -8.0540   21.4520 C   0  0  0  0  0  0  0  0  0  0  0  0
  -22.0290   -8.9660   20.4870 C   0  0  0  0  0  3  0  0  0  0  0  0
  -22.7160  -10.1680   20.2510 C   0  0  0  0  0  3  0  0  0  0  0  0
  -21.7710   -6.8930   21.5950 O   0  0  0  0  0  0  0  0  0  0  0  0
  -21.7400   -6.2090   22.7840 C   0  0  0  0  0  0  0  0  0  0  0  0
  -21.2810   -6.8080   23.9770 C   0  0  0  0  0  3  0  0  0  0  0  0
  -21.1990   -6.0480   25.1600 C   0  0  0  0  0  3  0  0  0  0  0  0
  -21.5650   -4.6880   25.1510 C   0  0  0  0  0  0  0  0  0  0  0  0
  -22.0160   -4.0880   23.9620 C   0  0  0  0  0  3  0  0  0  0  0  0
  -22.1000   -4.8460   22.7820 C   0  0  0  0  0  0  0  0  0  0  0  0
  -22.5150   -4.2580   21.6330 F   0  0  0  0  0  0  0  0  0  0  0  0
  -21.4790   -3.9540   26.2860 F   0  0  0  0  0  0  0  0  0  0  0  0
  -22.6870  -13.5490   21.1390 C   0  0  0  0  0  0  0  0  0  0  0  0
  -22.0300  -12.8480   22.0570 N   0  0  0  0  0  0  0  0  0  0  0  0
  -22.1950  -14.5610   20.6410 O   0  0  0  0  0  0  0  0  0  0  0  0
  -22.4390  -12.0300   22.4840 H   0  0  0  0  0  0  0  0  0  0  0  0
  -21.1030  -13.1360   22.3380 H   0  0  0  0  0  0  0  0  0  0  0  0
  -25.1930  -15.2500   20.1020 N   0  0  0  0  0  0  0  0  0  0  0  0
  -24.4030  -15.8720   20.2330 H   0  0  0  0  0  0  0  0  0  0  0  0
  -25.9980  -15.7100   19.6980 H   0  0  0  0  0  0  0  0  0  0  0  0
  -27.5490  -17.0320   20.4870 C   0  0  0  0  0  1  0  0  0  0  0  0
  -28.6790  -17.5290   19.5670 C   0  0  0  0  0  3  0  0  0  0  0  0
  -29.0140  -18.3410   17.1510 C   0  0  0  0  0  1  0  0  0  0  0  0
  -28.3920  -17.2800   18.0710 C   0  0  0  0  0  2  0  0  0  0  0  0
  1  7  1  0
  2  8  1  0
  3  9  1  0
  3  1  1  0
  4  2  1  0
  7 12  1  0
  7  5  1  0
  8 57  1  0
  8  6  1  0
  9  4  1  0
  9 10  1  0
 10 11  1  6
 10  6  1  0
 10  5  1  0
 12 14  1  0
 14 13  1  0
 15 14  1  0
 16 18  1  0
 16 15  1  0
 17 28  2  0
 18 23  1  0
 19 27  1  0
 19 29  1  0
 20 26  1  0
 20 22  1  0
 21 27  1  0
 22 21  1  0
 23 22  2  0
 24 25  1  0
 24 18  2  0
 25 20  2  0
 26 19  1  0
 27 17  1  0
 29 31  2  0
 30 29  1  0
 32 30  1  0
 33 42  2  0
 33 38  1  0
 34 30  1  0
 34 38  1  0
 35 34  1  0
 36 37  1  0
 36 35  1  0
 37 33  1  0
 38 39  2  0
 39 40  1  0
 41 40  2  0
 42 41  1  0
 43 17  1  0
 43 44  1  0
 43 53  1  0
 44 47  1  0
 45 49  1  0
 45 44  1  0
 46 45  2  0
 49 48  1  0
 51 49  1  0
 51 52  1  0
 51 50  1  0
 53 56  1  1
 53 54  1  0
 55 53  1  0
 58 67  1  0
 58 57  1  0
 59 67  1  0
 60 65  1  0
 61 62  1  0
 61 60  1  0
 63 62  1  0
 63 72  1  0
 63 64  1  0
 65 59  1  0
 65 64  1  0
 66 59  2  0
 67 68  1  0
 69 70  2  0
 70 89  1  0
 71 70  1  0
 71 74  1  0
 72 69  1  0
 72 73  1  0
 73 71  2  0
 74 75  1  0
 75 76  2  0
 77 80  1  0
 77 76  1  0
 78 77  2  0
 79 78  1  0
 79 74  2  0
 80 81  1  0
 81 82  1  0
 82 83  2  0
 84 83  1  0
 84 88  1  0
 85 84  2  0
 86 81  2  0
 86 85  1  0
 87 86  1  0
 89 90  1  0
 90 93  1  0
 90 92  1  0
 91 89  2  0
 94 95  1  0
 94 69  1  0
 96 94  1  0
 98 58  1  0
 98 97  1  0
 99100  1  0
100 98  1  0
M  ISO  4  15 101  16 101  59 100  67 100
M  END
>  <TORSDO>  (9) 
F 23

>  <SCORE>  (9) 
-10.700

>  <name>  (9) 
8

>  <ligand_id>  (9) 
8

>  <original_smiles>  (9) 
[H]c1c([H])c([H])c2c(c1[H])C([H])([H])C([H])([H])C([H])([H])C2([H])N([H])C(=O)C1([H])N(C(=O)C([H])(N([H])C(=O)C([H])(N([H])C([H])([H])[H])C([H])([H])[H])C(C([H])([H])[H])(C([H])([H])[H])C([H])([H])[H])C([H])([H])c2c([H])c(OC([H])([H])C([H])(C([H])([H])[H])C([H])([H])C3([H])C([H])([H])C([H])([H])C4([H])C([H])([H])C([H])([H])C([H])(C([H])([H])C([H])(N([H])C(=O)N5C([H])([H])C([H])([H])C([H])([H])C([H])(n6nc(-c7c([H])c([H])c(Oc8c([H])c([H])c(F)c([H])c8F)c([H])c7[H])c(C(=O)N([H])[H])c6N([H])[H])C5([H])[H])C([H])(C([H])([H])[H])C([H])([H])C([H])([H])[H])C([H])([H])[N+]4([H])C3([H])[H])c([H])c([H])c2C1([H])[H]

>  <smiles>  (9) 
[H]c1c([H])c([H])c2c(c1[H])C([H])([H])C([H])([H])C([H])([H])C2([H])N([H])C(=O)C1([H])N(C(=O)C([H])(N([H])C(=O)C([H])(N([H])C([H])([H])[H])C([H])([H])[H])C(C([H])([H])[H])(C([H])([H])[H])C([H])([H])[H])C([H])([H])c2c([H])c(OC([H])([H])C([H])(C([H])([H])[H])C([H])([H])C3([H])C([H])([H])C([H])([H])C4([H])C([H])([H])C([H])([H])C([H])(C([H])([H])C([H])(N([H])C(=O)N5C([H])([H])C([H])([H])C([H])([H])C([H])(n6nc(-c7c([H])c([H])c(Oc8c([H])c([H])c(F)c([H])c8F)c([H])c7[H])c(C(=O)N([H])[H])c6N([H])[H])C5([H])[H])C([H])(C([H])([H])[H])C([H])([H])C([H])([H])[H])C([H])([H])[N+]4([H])C3([H])[H])c([H])c([H])c2C1([H])[H]

$$$$
9:0:0
     RDKit          3D

 92 99  0  0  1  0  0  0  0  0999 V2000
  -29.3490  -21.3640   19.9580 C   0  0  0  0  0  3  0  0  0  0  0  0
  -29.1630  -22.7040   20.6920 N   0  0  0  0  0  4  0  0  0  0  0  0
  -30.0230  -23.2060   20.5390 H   0  0  0  0  0  0  0  0  0  0  0  0
  -29.1570  -22.5250   21.6840 H   0  0  0  0  0  0  0  0  0  0  0  0
  -28.0300  -23.7130   20.4090 C   0  0  0  0  0  2  0  0  0  0  0  0
  -28.3240  -25.0400   19.5310 C   0  0  0  0  0  2  0  0  0  0  0  0
  -28.2730  -26.4490   20.0490 O   0  0  0  0  0  0  0  0  0  0  0  0
  -24.6420  -31.8700   23.1340 C   0  0  0  0  0  0  0  0  0  0  0  0
  -27.1450  -27.2890   20.0030 C   0  0  0  0  0  0  0  0  0  0  0  0
  -23.3920  -30.4880   21.5160 C   0  0  0  0  0  3  0  0  0  0  0  0
  -24.7920  -28.9400   20.0440 C   0  0  0  0  0  0  0  0  0  0  0  0
  -25.9260  -30.7930   21.2720 C   0  0  0  0  0  2  0  0  0  0  0  0
  -25.9820  -29.4160   20.6150 C   0  0  0  0  0  0  0  0  0  0  0  0
  -27.1580  -28.6060   20.5760 C   0  0  0  0  0  3  0  0  0  0  0  0
  -25.9250  -26.8620   19.4280 C   0  0  0  0  0  3  0  0  0  0  0  0
  -24.7690  -27.6730   19.4400 C   0  0  0  0  0  3  0  0  0  0  0  0
  -23.5690  -29.8300   20.1260 C   0  0  0  0  0  2  0  0  0  0  0  0
  -24.6740  -31.0670   22.0320 N   0  0  0  0  0  0  0  0  0  0  0  0
  -23.5740  -32.1530   23.6960 O   0  0  0  0  0  0  0  0  0  0  0  0
  -22.7450  -29.4690   22.4880 C   0  0  0  0  0  0  0  0  0  0  0  0
  -21.4150  -29.2900   22.3800 N   0  0  0  0  0  0  0  0  0  0  0  0
  -23.4390  -28.8470   23.2990 O   0  0  0  0  0  0  0  0  0  0  0  0
  -20.9120  -29.8430   21.7000 H   0  0  0  0  0  0  0  0  0  0  0  0
  -18.0550  -28.0730   22.9440 C   0  0  0  0  0  0  0  0  0  0  0  0
  -20.6140  -28.3510   23.1630 C   0  0  0  0  0  3  0  0  0  0  0  0
  -20.7160  -26.9150   22.5990 C   0  0  0  0  0  2  0  0  0  0  0  0
  -19.5950  -26.5600   21.6180 C   0  0  0  0  0  2  0  0  0  0  0  0
  -18.2220  -26.7210   22.2750 C   0  0  0  0  0  2  0  0  0  0  0  0
  -19.1750  -28.8440   23.3470 C   0  0  0  0  0  0  0  0  0  0  0  0
  -18.9590  -30.1060   23.9440 C   0  0  0  0  0  3  0  0  0  0  0  0
  -17.6540  -30.5990   24.1380 C   0  0  0  0  0  3  0  0  0  0  0  0
  -16.5500  -29.8260   23.7450 C   0  0  0  0  0  3  0  0  0  0  0  0
  -16.7500  -28.5650   23.1550 C   0  0  0  0  0  3  0  0  0  0  0  0
  -25.9460  -32.4990   23.7300 C   0  0  0  0  0  3  0  0  0  0  0  0
  -25.6280  -33.8810   24.1240 N   0  0  0  0  0  0  0  0  0  0  0  0
  -25.9270  -34.9650   23.3970 C   0  0  0  0  0  0  0  0  0  0  0  0
  -26.5600  -34.9120   22.3390 O   0  0  0  0  0  0  0  0  0  0  0  0
  -25.0600  -34.0000   24.9500 H   0  0  0  0  0  0  0  0  0  0  0  0
  -24.1660  -36.7430   23.1840 C   0  0  0  0  0  1  0  0  0  0  0  0
  -25.4480  -36.3300   23.9280 C   0  0  0  0  0  3  0  0  0  0  0  0
  -27.6130  -37.2000   24.6970 C   0  0  0  0  0  1  0  0  0  0  0  0
  -26.4700  -37.3940   23.8080 N   0  0  0  0  0  0  0  0  0  0  0  0
  -26.0620  -38.3050   24.0040 H   0  0  0  0  0  0  0  0  0  0  0  0
  -26.5210  -31.6900   24.9550 C   0  0  1  0  0  0  0  0  0  0  0  0
  -25.4720  -31.3970   26.0530 C   0  0  0  0  0  1  0  0  0  0  0  0
  -27.1030  -30.3330   24.4950 C   0  0  0  0  0  1  0  0  0  0  0  0
  -27.6910  -32.4700   25.5990 C   0  0  0  0  0  1  0  0  0  0  0  0
  -29.4940  -19.9780   20.7880 C   0  0  0  0  0  3  0  0  0  0  0  0
  -30.0830  -18.6070   20.1180 C   0  0  0  0  0  2  0  0  0  0  0  0
  -30.2870  -17.2650   21.0060 C   0  0  0  0  0  0  0  0  0  0  0  0
  -31.3890  -14.8410   20.4080 C   0  0  0  0  0  0  0  0  0  0  0  0
  -31.2180  -12.5610   19.4120 C   0  0  0  0  0  2  0  0  0  0  0  0
  -30.3190  -12.6740   18.1590 C   0  0  0  0  0  2  0  0  0  0  0  0
  -28.8240  -12.5810   18.5390 C   0  0  0  0  0  2  0  0  0  0  0  0
  -28.4570  -13.5050   19.7290 C   0  0  0  0  0  3  0  0  0  0  0  0
  -29.4570  -13.3360   20.8920 C   0  0  0  0  0  2  0  0  0  0  0  0
  -30.7920  -13.6150   20.3470 N   0  0  0  0  0  0  0  0  0  0  0  0
  -32.6110  -14.9730   20.2560 O   0  0  0  0  0  0  0  0  0  0  0  0
  -30.4800  -15.8850   20.3820 N   0  0  0  0  0  4  0  0  0  0  0  0
  -29.5750  -15.4680   20.1950 H   0  0  0  0  0  0  0  0  0  0  0  0
  -26.1020  -14.2930   20.3620 C   0  0  0  0  0  0  0  0  0  0  0  0
  -24.9670  -13.6030   20.6960 C   0  0  0  0  0  0  0  0  0  0  0  0
  -25.3350  -12.2230   20.7000 C   0  0  0  0  0  0  0  0  0  0  0  0
  -27.0830  -13.3320   20.1700 N   0  0  0  0  0  0  0  0  0  0  0  0
  -26.6260  -12.0850   20.4370 N   0  0  0  0  0  0  0  0  0  0  0  0
  -24.5150  -11.0170   20.8670 C   0  0  0  0  0  0  0  0  0  0  0  0
  -24.8240  -10.0480   21.8450 C   0  0  0  0  0  3  0  0  0  0  0  0
  -24.0130   -8.9050   22.0020 C   0  0  0  0  0  3  0  0  0  0  0  0
  -22.8740   -8.7250   21.1790 C   0  0  0  0  0  0  0  0  0  0  0  0
  -22.5850   -9.6840   20.1920 C   0  0  0  0  0  3  0  0  0  0  0  0
  -23.3980  -10.8180   20.0340 C   0  0  0  0  0  3  0  0  0  0  0  0
  -22.0410   -7.6390   21.2420 O   0  0  0  0  0  0  0  0  0  0  0  0
  -21.8320   -6.9600   22.4170 C   0  0  0  0  0  0  0  0  0  0  0  0
  -21.3570   -7.6060   23.5770 C   0  0  0  0  0  3  0  0  0  0  0  0
  -21.0980   -6.8600   24.7440 C   0  0  0  0  0  3  0  0  0  0  0  0
  -21.2960   -5.4660   24.7460 C   0  0  0  0  0  0  0  0  0  0  0  0
  -21.7650   -4.8180   23.5890 C   0  0  0  0  0  3  0  0  0  0  0  0
  -22.0310   -5.5650   22.4260 C   0  0  0  0  0  0  0  0  0  0  0  0
  -22.4620   -4.9340   21.3080 F   0  0  0  0  0  0  0  0  0  0  0  0
  -21.0360   -4.7430   25.8610 F   0  0  0  0  0  0  0  0  0  0  0  0
  -23.6000  -14.1840   20.8960 C   0  0  0  0  0  0  0  0  0  0  0  0
  -22.8010  -13.5710   21.7650 N   0  0  0  0  0  0  0  0  0  0  0  0
  -23.2490  -15.2160   20.3230 O   0  0  0  0  0  0  0  0  0  0  0  0
  -23.1020  -12.7370   22.2440 H   0  0  0  0  0  0  0  0  0  0  0  0
  -21.8800  -13.9440   21.9490 H   0  0  0  0  0  0  0  0  0  0  0  0
  -26.3700  -15.6460   20.1830 N   0  0  0  0  0  0  0  0  0  0  0  0
  -25.6370  -16.3410   20.2730 H   0  0  0  0  0  0  0  0  0  0  0  0
  -27.2530  -16.0360   19.8870 H   0  0  0  0  0  0  0  0  0  0  0  0
  -31.2200  -17.3580   22.2370 C   0  0  0  0  0  2  0  0  0  0  0  0
  -30.5170  -18.0210   24.6100 C   0  0  0  0  0  1  0  0  0  0  0  0
  -32.1330  -19.4760   23.3120 C   0  0  0  0  0  1  0  0  0  0  0  0
  -30.9350  -18.5250   23.2130 C   0  0  0  0  0  3  0  0  0  0  0  0
  1  2  1  0
  1 48  2  0
  2  4  1  0
  3  2  1  0
  5  2  1  0
  6  7  1  0
  6  5  1  0
  8 19  2  0
  9  7  1  0
  9 14  1  0
 10 18  1  0
 10 20  1  0
 11 17  1  0
 11 13  1  0
 12 18  1  0
 13 12  1  0
 14 13  2  0
 15 16  1  0
 15  9  2  0
 16 11  2  0
 17 10  1  0
 18  8  1  0
 20 22  2  0
 21 20  1  0
 23 21  1  0
 24 33  2  0
 24 29  1  0
 25 21  1  0
 25 29  1  0
 26 25  1  0
 27 28  1  0
 27 26  1  0
 28 24  1  0
 29 30  2  0
 30 31  1  0
 32 31  2  0
 33 32  1  0
 34  8  1  0
 34 35  1  0
 34 44  1  0
 35 38  1  0
 36 40  1  0
 36 35  1  0
 37 36  2  0
 40 39  1  0
 42 40  1  0
 42 43  1  0
 42 41  1  0
 44 47  1  1
 44 45  1  0
 46 44  1  0
 49 48  1  0
 49 50  1  0
 50 89  1  0
 52 57  1  0
 53 54  1  0
 53 52  1  0
 55 54  1  0
 55 64  1  0
 55 56  1  0
 57 51  1  0
 57 56  1  0
 58 51  2  0
 59 51  1  0
 59 50  2  0
 60 59  1  0
 61 62  2  0
 62 63  1  0
 62 81  1  0
 63 66  1  0
 64 61  1  0
 64 65  1  0
 65 63  2  0
 66 67  1  0
 67 68  2  0
 69 72  1  0
 69 68  1  0
 70 69  2  0
 71 70  1  0
 71 66  2  0
 72 73  1  0
 73 78  2  0
 73 74  1  0
 74 75  2  0
 75 76  1  0
 76 80  1  0
 77 76  2  0
 78 77  1  0
 79 78  1  0
 81 82  1  0
 82 85  1  0
 82 84  1  0
 83 81  2  0
 86 87  1  0
 86 61  1  0
 88 86  1  0
 89 92  1  0
 92 91  1  0
 92 90  1  0
M  ISO  4   6 101   7 101  51 100  59 100
M  END
>  <TORSDO>  (10) 
F 24

>  <SCORE>  (10) 
-9.869

>  <name>  (10) 
9

>  <ligand_id>  (10) 
9

>  <original_smiles>  (10) 
[H]c1c([H])c([H])c2c(c1[H])C([H])([H])C([H])([H])C([H])([H])C2([H])N([H])C(=O)C1([H])N(C(=O)C([H])(N([H])C(=O)C([H])(N([H])C([H])([H])[H])C([H])([H])[H])C(C([H])([H])[H])(C([H])([H])[H])C([H])([H])[H])C([H])([H])c2c([H])c(OC([H])([H])C([H])([H])[N+]([H])([H])C([H])([H])C([H])([H])C([H])([H])C([H])(N([H])C(=O)N3C([H])([H])C([H])([H])C([H])([H])C([H])(n4nc(-c5c([H])c([H])c(Oc6c([H])c([H])c(F)c([H])c6F)c([H])c5[H])c(C(=O)N([H])[H])c4N([H])[H])C3([H])[H])C([H])([H])C([H])(C([H])([H])[H])C([H])([H])[H])c([H])c([H])c2C1([H])[H]

>  <smiles>  (10) 
[H]c1c([H])c([H])c2c(c1[H])C([H])([H])C([H])([H])C([H])([H])C2([H])N([H])C(=O)C1([H])N(C(=O)C([H])(N([H])C(=O)C([H])(N([H])C([H])([H])[H])C([H])([H])[H])C(C([H])([H])[H])(C([H])([H])[H])C([H])([H])[H])C([H])([H])c2c([H])c(OC([H])([H])C([H])([H])[N+]([H])([H])C([H])([H])C([H])([H])C([H])([H])C([H])(N([H])C(=O)N3C([H])([H])C([H])([H])C([H])([H])C([H])(n4nc(-c5c([H])c([H])c(Oc6c([H])c([H])c(F)c([H])c6F)c([H])c5[H])c(C(=O)N([H])[H])c4N([H])[H])C3([H])[H])C([H])([H])C([H])(C([H])([H])[H])C([H])([H])[H])c([H])c([H])c2C1([H])[H]

$$$$
10:0:0
     RDKit          3D

 88 95  0  0  1  0  0  0  0  0999 V2000
  -28.2950  -22.8080   20.1670 C   0  0  0  0  0  3  0  0  0  0  0  0
  -27.0680  -21.9460   18.0890 C   0  0  0  0  0  1  0  0  0  0  0  0
  -28.0870  -22.9570   18.6440 C   0  0  0  0  0  3  0  0  0  0  0  0
  -29.3200  -23.4680   16.4420 C   0  0  0  0  0  1  0  0  0  0  0  0
  -29.4260  -22.9540   17.8840 C   0  0  0  0  0  2  0  0  0  0  0  0
  -29.2130  -21.3230   20.5770 C   0  0  0  0  0  2  0  0  0  0  0  0
  -28.9610  -19.5760   20.2630 C   0  0  0  0  0  3  0  0  0  0  0  0
  -29.9750  -18.1280   20.5130 C   0  0  0  0  0  3  0  0  0  0  0  0
  -30.4280  -15.2550   20.2720 C   0  0  0  0  0  0  0  0  0  0  0  0
  -30.3900  -12.8550   19.3240 C   0  0  0  0  0  2  0  0  0  0  0  0
  -29.4570  -12.6890   18.0980 C   0  0  0  0  0  2  0  0  0  0  0  0
  -28.0140  -12.4090   18.5520 C   0  0  0  0  0  2  0  0  0  0  0  0
  -27.5700  -13.3540   19.6970 C   0  0  0  0  0  3  0  0  0  0  0  0
  -28.6240  -13.4590   20.8180 C   0  0  0  0  0  2  0  0  0  0  0  0
  -29.8540  -13.9640   20.1880 N   0  0  0  0  0  0  0  0  0  0  0  0
  -31.6470  -15.2730   20.0480 O   0  0  0  0  0  0  0  0  0  0  0  0
  -29.6610  -16.5040   20.4090 N   0  0  0  0  0  0  0  0  0  0  0  0
  -28.6760  -16.3040   20.5080 H   0  0  0  0  0  0  0  0  0  0  0  0
  -25.1940  -13.8900   20.4550 C   0  0  0  0  0  0  0  0  0  0  0  0
  -24.1420  -13.1050   20.8290 C   0  0  0  0  0  0  0  0  0  0  0  0
  -24.6240  -11.7590   20.8020 C   0  0  0  0  0  0  0  0  0  0  0  0
  -26.2460  -13.0260   20.2090 N   0  0  0  0  0  0  0  0  0  0  0  0
  -25.9160  -11.7380   20.4880 N   0  0  0  0  0  0  0  0  0  0  0  0
  -23.9130  -10.4890   20.9950 C   0  0  0  0  0  0  0  0  0  0  0  0
  -24.3460   -9.5360   21.9420 C   0  0  0  0  0  3  0  0  0  0  0  0
  -23.6320   -8.3310   22.1250 C   0  0  0  0  0  3  0  0  0  0  0  0
  -22.4700   -8.0720   21.3600 C   0  0  0  0  0  0  0  0  0  0  0  0
  -22.0550   -9.0150   20.4020 C   0  0  0  0  0  3  0  0  0  0  0  0
  -22.7720  -10.2100   20.2190 C   0  0  0  0  0  3  0  0  0  0  0  0
  -21.7270   -6.9200   21.4530 O   0  0  0  0  0  0  0  0  0  0  0  0
  -21.6620   -6.1960   22.6160 C   0  0  0  0  0  0  0  0  0  0  0  0
  -21.1840   -6.7600   23.8200 C   0  0  0  0  0  3  0  0  0  0  0  0
  -21.0710   -5.9620   24.9750 C   0  0  0  0  0  3  0  0  0  0  0  0
  -21.4220   -4.5990   24.9280 C   0  0  0  0  0  0  0  0  0  0  0  0
  -21.8940   -4.0350   23.7290 C   0  0  0  0  0  3  0  0  0  0  0  0
  -22.0100   -4.8310   22.5760 C   0  0  0  0  0  0  0  0  0  0  0  0
  -22.4460   -4.2790   21.4180 F   0  0  0  0  0  0  0  0  0  0  0  0
  -21.3060   -3.8290   26.0350 F   0  0  0  0  0  0  0  0  0  0  0  0
  -22.7380  -13.5660   21.0930 C   0  0  0  0  0  0  0  0  0  0  0  0
  -22.0130  -12.8630   21.9540 N   0  0  0  0  0  0  0  0  0  0  0  0
  -22.2940  -14.5870   20.5690 O   0  0  0  0  0  0  0  0  0  0  0  0
  -22.3850  -12.0400   22.4030 H   0  0  0  0  0  0  0  0  0  0  0  0
  -21.0680  -13.1510   22.1670 H   0  0  0  0  0  0  0  0  0  0  0  0
  -25.3390  -15.2620   20.2700 N   0  0  0  0  0  0  0  0  0  0  0  0
  -24.5600  -15.9050   20.3770 H   0  0  0  0  0  0  0  0  0  0  0  0
  -26.1720  -15.7080   19.9090 H   0  0  0  0  0  0  0  0  0  0  0  0
  -28.2450  -24.4570   20.8490 C   0  0  0  0  0  2  0  0  0  0  0  0
  -28.2800  -26.0080   20.3550 O   0  0  0  0  0  0  0  0  0  0  0  0
  -24.6110  -31.9040   23.2730 C   0  0  0  0  0  0  0  0  0  0  0  0
  -27.2250  -27.0390   20.3700 C   0  0  0  0  0  0  0  0  0  0  0  0
  -23.4450  -30.4940   21.6230 C   0  0  0  0  0  3  0  0  0  0  0  0
  -24.9180  -28.8770   20.2520 C   0  0  0  0  0  0  0  0  0  0  0  0
  -26.0100  -30.7230   21.5120 C   0  0  0  0  0  2  0  0  0  0  0  0
  -26.0940  -29.3070   20.8820 C   0  0  0  0  0  0  0  0  0  0  0  0
  -27.2480  -28.4100   20.9080 C   0  0  0  0  0  3  0  0  0  0  0  0
  -26.0190  -26.7400   19.7000 C   0  0  0  0  0  3  0  0  0  0  0  0
  -24.9030  -27.6110   19.6410 C   0  0  0  0  0  3  0  0  0  0  0  0
  -23.6990  -29.7940   20.2600 C   0  0  0  0  0  2  0  0  0  0  0  0
  -24.7090  -31.0660   22.1900 N   0  0  0  0  0  0  0  0  0  0  0  0
  -23.5130  -32.1950   23.7750 O   0  0  0  0  0  0  0  0  0  0  0  0
  -22.7370  -29.5050   22.5860 C   0  0  0  0  0  0  0  0  0  0  0  0
  -21.4080  -29.3500   22.4480 N   0  0  0  0  0  0  0  0  0  0  0  0
  -23.3910  -28.8780   23.4240 O   0  0  0  0  0  0  0  0  0  0  0  0
  -20.9350  -29.9050   21.7490 H   0  0  0  0  0  0  0  0  0  0  0  0
  -18.0080  -28.1850   22.9430 C   0  0  0  0  0  0  0  0  0  0  0  0
  -20.5700  -28.4210   23.2160 C   0  0  0  0  0  3  0  0  0  0  0  0
  -20.6580  -26.9890   22.6400 C   0  0  0  0  0  2  0  0  0  0  0  0
  -19.5560  -26.6810   21.6210 C   0  0  0  0  0  2  0  0  0  0  0  0
  -18.1730  -26.8370   22.2610 C   0  0  0  0  0  2  0  0  0  0  0  0
  -19.1330  -28.9350   23.3780 C   0  0  0  0  0  0  0  0  0  0  0  0
  -18.9240  -30.1950   23.9790 C   0  0  0  0  0  3  0  0  0  0  0  0
  -17.6220  -30.7050   24.1470 C   0  0  0  0  0  3  0  0  0  0  0  0
  -16.5130  -29.9530   23.7250 C   0  0  0  0  0  3  0  0  0  0  0  0
  -16.7070  -28.6940   23.1290 C   0  0  0  0  0  3  0  0  0  0  0  0
  -25.8720  -32.5490   23.9210 C   0  0  0  0  0  3  0  0  0  0  0  0
  -26.3430  -31.8060   25.2330 C   0  0  1  0  0  0  0  0  0  0  0  0
  -25.2160  -31.6010   26.2720 C   0  0  0  0  0  1  0  0  0  0  0  0
  -26.9280  -30.4160   24.8970 C   0  0  0  0  0  1  0  0  0  0  0  0
  -27.4790  -32.6090   25.9120 C   0  0  0  0  0  1  0  0  0  0  0  0
  -25.5560  -33.9570   24.2220 N   0  0  0  0  0  0  0  0  0  0  0  0
  -25.9100  -35.0010   23.4610 C   0  0  0  0  0  0  0  0  0  0  0  0
  -26.6010  -34.8810   22.4450 O   0  0  0  0  0  0  0  0  0  0  0  0
  -24.9430  -34.1220   25.0070 H   0  0  0  0  0  0  0  0  0  0  0  0
  -24.2060  -36.8090   23.0500 C   0  0  0  0  0  1  0  0  0  0  0  0
  -25.4250  -36.4000   23.8920 C   0  0  0  0  0  3  0  0  0  0  0  0
  -27.5450  -37.2850   24.7630 C   0  0  0  0  0  1  0  0  0  0  0  0
  -26.4670  -37.4460   23.7900 N   0  0  0  0  0  0  0  0  0  0  0  0
  -26.0630  -38.3700   23.9140 H   0  0  0  0  0  0  0  0  0  0  0  0
  1  6  1  0
  1 47  1  0
  3  2  1  0
  3  1  1  0
  4  5  1  0
  5  3  1  0
  7  8  2  0
  7  6  1  0
  9 17  1  0
 10 15  1  0
 11 12  1  0
 11 10  1  0
 13 12  1  0
 13 22  1  0
 13 14  1  0
 15  9  1  0
 15 14  1  0
 16  9  2  0
 17 18  1  0
 17  8  1  0
 19 20  2  0
 20 39  1  0
 21 20  1  0
 21 24  1  0
 22 19  1  0
 22 23  1  0
 23 21  2  0
 24 25  1  0
 25 26  2  0
 27 30  1  0
 27 26  1  0
 28 27  2  0
 29 28  1  0
 29 24  2  0
 30 31  1  0
 31 32  1  0
 32 33  2  0
 34 33  1  0
 34 38  1  0
 35 34  2  0
 36 31  2  0
 36 35  1  0
 37 36  1  0
 39 40  1  0
 40 43  1  0
 40 42  1  0
 41 39  2  0
 44 45  1  0
 44 19  1  0
 46 44  1  0
 48 50  1  0
 48 47  1  0
 49 60  2  0
 50 55  1  0
 51 59  1  0
 51 61  1  0
 52 58  1  0
 52 54  1  0
 53 59  1  0
 54 55  2  0
 54 53  1  0
 56 50  2  0
 57 56  1  0
 57 52  2  0
 58 51  1  0
 59 49  1  0
 61 63  2  0
 62 61  1  0
 64 62  1  0
 65 74  2  0
 65 70  1  0
 66 62  1  0
 66 70  1  0
 67 66  1  0
 68 69  1  0
 68 67  1  0
 69 65  1  0
 70 71  2  0
 71 72  1  0
 73 72  2  0
 74 73  1  0
 75 49  1  0
 75 80  1  0
 75 76  1  0
 76 79  1  1
 76 77  1  0
 78 76  1  0
 80 83  1  0
 81 85  1  0
 81 80  1  0
 82 81  2  0
 85 84  1  0
 87 85  1  0
 87 88  1  0
 87 86  1  0
M  ISO  4   9 100  17 100  47 101  48 101
M  END
>  <TORSDO>  (11) 
F 22

>  <SCORE>  (11) 
-15.011

>  <name>  (11) 
10

>  <ligand_id>  (11) 
10

>  <original_smiles>  (11) 
[H]c1c([H])c([H])c2c(c1[H])C([H])([H])C([H])([H])C([H])([H])C2([H])N([H])C(=O)C1([H])N(C(=O)C([H])(N([H])C(=O)C([H])(N([H])C([H])([H])[H])C([H])([H])[H])C(C([H])([H])[H])(C([H])([H])[H])C([H])([H])[H])C([H])([H])c2c([H])c(OC([H])([H])C([H])(C([H])([H])C([H])([H])C([H])([H])N([H])C(=O)N3C([H])([H])C([H])([H])C([H])([H])C([H])(n4nc(-c5c([H])c([H])c(Oc6c([H])c([H])c(F)c([H])c6F)c([H])c5[H])c(C(=O)N([H])[H])c4N([H])[H])C3([H])[H])C([H])(C([H])([H])[H])C([H])([H])C([H])([H])[H])c([H])c([H])c2C1([H])[H]

>  <smiles>  (11) 
[H]c1c([H])c([H])c2c(c1[H])C([H])([H])C([H])([H])C([H])([H])C2([H])N([H])C(=O)C1([H])N(C(=O)C([H])(N([H])C(=O)C([H])(N([H])C([H])([H])[H])C([H])([H])[H])C(C([H])([H])[H])(C([H])([H])[H])C([H])([H])[H])C([H])([H])c2c([H])c(OC([H])([H])C([H])(C([H])([H])C([H])([H])C([H])([H])N([H])C(=O)N3C([H])([H])C([H])([H])C([H])([H])C([H])(n4nc(-c5c([H])c([H])c(Oc6c([H])c([H])c(F)c([H])c6F)c([H])c5[H])c(C(=O)N([H])[H])c4N([H])[H])C3([H])[H])C([H])(C([H])([H])[H])C([H])([H])C([H])([H])[H])c([H])c([H])c2C1([H])[H]

$$$$
11:0:0
     RDKit          3D

 98107  0  0  1  0  0  0  0  0999 V2000
  -28.3700  -19.7350   21.8150 C   0  0  0  0  0  2  0  0  0  0  0  0
  -31.3480  -21.7610   18.0220 C   0  0  0  0  0  2  0  0  0  0  0  0
  -28.4900  -21.1360   21.1600 C   0  0  0  0  0  2  0  0  0  0  0  0
  -31.3710  -20.3630   18.6630 C   0  0  0  0  0  2  0  0  0  0  0  0
  -28.7100  -18.5540   20.8770 C   0  0  0  0  0  2  0  0  0  0  0  0
  -31.5240  -22.8550   19.0890 C   0  0  0  0  0  3  0  0  0  0  0  0
  -29.8880  -21.3610   20.5450 C   0  0  0  0  0  3  0  0  0  0  0  0
  -30.1330  -20.1400   19.5380 C   0  0  0  0  0  3  0  0  0  0  0  0
  -30.1110  -18.6980   20.2480 C   0  0  0  0  0  3  0  0  0  0  0  0
  -30.3460  -22.8820   20.1270 C   0  0  0  0  0  3  0  0  0  0  0  0
  -31.9430  -24.2080   18.4820 C   0  0  0  0  0  0  0  0  0  0  0  0
  -32.7190  -24.9960   19.2170 N   0  0  0  0  0  0  0  0  0  0  0  0
  -31.6050  -24.5340   17.3450 O   0  0  0  0  0  0  0  0  0  0  0  0
  -32.9930  -24.7190   20.1500 H   0  0  0  0  0  0  0  0  0  0  0  0
  -33.0240  -25.8910   18.8620 H   0  0  0  0  0  0  0  0  0  0  0  0
  -28.9750  -24.4000   21.8550 C   0  0  0  0  0  1  0  0  0  0  0  0
  -29.6410  -24.3310   20.4710 C   0  0  0  0  0  3  0  0  0  0  0  0
  -28.7800  -25.2030   19.4480 C   0  0  0  0  0  2  0  0  0  0  0  0
  -28.7780  -26.6790   19.6740 O   0  0  0  0  0  0  0  0  0  0  0  0
  -24.6180  -31.5660   22.9510 C   0  0  0  0  0  0  0  0  0  0  0  0
  -27.5890  -27.4300   19.6360 C   0  0  0  0  0  0  0  0  0  0  0  0
  -23.5330  -30.1880   21.2140 C   0  0  0  0  0  3  0  0  0  0  0  0
  -25.1050  -28.8540   19.7000 C   0  0  0  0  0  0  0  0  0  0  0  0
  -26.0390  -30.7180   21.0720 C   0  0  0  0  0  2  0  0  0  0  0  0
  -26.2280  -29.3930   20.3400 C   0  0  0  0  0  0  0  0  0  0  0  0
  -27.4700  -28.6920   20.3000 C   0  0  0  0  0  3  0  0  0  0  0  0
  -26.4450  -26.9580   18.9540 C   0  0  0  0  0  3  0  0  0  0  0  0
  -25.2150  -27.6430   19.0000 C   0  0  0  0  0  3  0  0  0  0  0  0
  -23.8040  -29.6230   19.7950 C   0  0  0  0  0  2  0  0  0  0  0  0
  -24.7480  -30.8400   21.8030 N   0  0  0  0  0  0  0  0  0  0  0  0
  -23.5160  -31.7230   23.4960 O   0  0  0  0  0  0  0  0  0  0  0  0
  -22.9520  -29.0620   22.1010 C   0  0  0  0  0  0  0  0  0  0  0  0
  -21.6380  -28.8080   21.9730 N   0  0  0  0  0  0  0  0  0  0  0  0
  -23.6820  -28.4230   22.8640 O   0  0  0  0  0  0  0  0  0  0  0  0
  -21.1040  -29.3830   21.3350 H   0  0  0  0  0  0  0  0  0  0  0  0
  -18.3460  -27.3810   22.4380 C   0  0  0  0  0  0  0  0  0  0  0  0
  -20.8930  -27.7650   22.6810 C   0  0  0  0  0  3  0  0  0  0  0  0
  -21.0620  -26.3930   21.9880 C   0  0  0  0  0  2  0  0  0  0  0  0
  -19.9560  -26.0900   20.9710 C   0  0  0  0  0  2  0  0  0  0  0  0
  -18.5830  -26.1030   21.6500 C   0  0  0  0  0  2  0  0  0  0  0  0
  -19.4310  -28.1680   22.9080 C   0  0  0  0  0  0  0  0  0  0  0  0
  -19.1550  -29.3640   23.6060 C   0  0  0  0  0  3  0  0  0  0  0  0
  -17.8280  -29.7720   23.8390 C   0  0  0  0  0  3  0  0  0  0  0  0
  -16.7600  -28.9820   23.3830 C   0  0  0  0  0  3  0  0  0  0  0  0
  -17.0190  -27.7880   22.6880 C   0  0  0  0  0  3  0  0  0  0  0  0
  -25.8460  -32.2550   23.6200 C   0  0  0  0  0  3  0  0  0  0  0  0
  -26.3970  -31.4630   24.8700 C   0  0  1  0  0  0  0  0  0  0  0  0
  -25.3070  -31.1090   25.9090 C   0  0  0  0  0  1  0  0  0  0  0  0
  -27.0740  -30.1440   24.4330 C   0  0  0  0  0  1  0  0  0  0  0  0
  -27.4860  -32.3010   25.5820 C   0  0  0  0  0  1  0  0  0  0  0  0
  -25.4360  -33.6130   24.0070 N   0  0  0  0  0  0  0  0  0  0  0  0
  -25.7050  -34.7210   23.3020 C   0  0  0  0  0  0  0  0  0  0  0  0
  -26.3920  -34.7110   22.2780 O   0  0  0  0  0  0  0  0  0  0  0  0
  -24.8150  -33.6860   24.8000 H   0  0  0  0  0  0  0  0  0  0  0  0
  -23.8540  -36.4040   23.0160 C   0  0  0  0  0  1  0  0  0  0  0  0
  -25.1190  -36.0510   23.8150 C   0  0  0  0  0  3  0  0  0  0  0  0
  -27.1780  -37.0560   24.7000 C   0  0  0  0  0  1  0  0  0  0  0  0
  -26.0730  -37.1800   23.7510 N   0  0  0  0  0  0  0  0  0  0  0  0
  -25.6000  -38.0610   23.9310 H   0  0  0  0  0  0  0  0  0  0  0  0
  -30.5480  -17.4150   19.3890 C   0  0  0  0  0  2  0  0  0  0  0  0
  -31.1050  -14.8980   19.6180 C   0  0  0  0  0  0  0  0  0  0  0  0
  -30.7540  -12.6610   18.6030 C   0  0  0  0  0  2  0  0  0  0  0  0
  -29.7150  -12.8180   17.4680 C   0  0  0  0  0  2  0  0  0  0  0  0
  -28.2820  -12.6910   18.0240 C   0  0  0  0  0  2  0  0  0  0  0  0
  -28.0500  -13.5520   19.2970 C   0  0  0  0  0  3  0  0  0  0  0  0
  -29.2000  -13.3760   20.3150 C   0  0  0  0  0  2  0  0  0  0  0  0
  -30.4560  -13.6890   19.6210 N   0  0  0  0  0  0  0  0  0  0  0  0
  -32.2300  -15.0060   19.1250 O   0  0  0  0  0  0  0  0  0  0  0  0
  -30.3670  -16.0130   19.9380 N   0  0  0  0  0  0  0  0  0  0  0  0
  -29.4570  -15.8160   20.3270 H   0  0  0  0  0  0  0  0  0  0  0  0
  -25.7710  -14.1970   20.2940 C   0  0  0  0  0  0  0  0  0  0  0  0
  -24.7130  -13.4450   20.7290 C   0  0  0  0  0  0  0  0  0  0  0  0
  -25.1070  -12.0800   20.5700 C   0  0  0  0  0  0  0  0  0  0  0  0
  -26.7460  -13.2930   19.8990 N   0  0  0  0  0  0  0  0  0  0  0  0
  -26.3570  -12.0110   20.1240 N   0  0  0  0  0  0  0  0  0  0  0  0
  -24.3480  -10.8380   20.7630 C   0  0  0  0  0  0  0  0  0  0  0  0
  -24.7800   -9.8380   21.6610 C   0  0  0  0  0  3  0  0  0  0  0  0
  -24.0220   -8.6600   21.8390 C   0  0  0  0  0  3  0  0  0  0  0  0
  -22.8160   -8.4770   21.1210 C   0  0  0  0  0  0  0  0  0  0  0  0
  -22.4020   -9.4670   20.2130 C   0  0  0  0  0  3  0  0  0  0  0  0
  -23.1600  -10.6360   20.0320 C   0  0  0  0  0  3  0  0  0  0  0  0
  -22.0260   -7.3570   21.2140 O   0  0  0  0  0  0  0  0  0  0  0  0
  -21.9250   -6.6420   22.3810 C   0  0  0  0  0  0  0  0  0  0  0  0
  -21.4550   -7.2280   23.5760 C   0  0  0  0  0  3  0  0  0  0  0  0
  -21.3000   -6.4390   24.7340 C   0  0  0  0  0  3  0  0  0  0  0  0
  -21.6060   -5.0660   24.6970 C   0  0  0  0  0  0  0  0  0  0  0  0
  -22.0690   -4.4790   23.5060 C   0  0  0  0  0  3  0  0  0  0  0  0
  -22.2260   -5.2650   22.3500 C   0  0  0  0  0  0  0  0  0  0  0  0
  -22.6520   -4.6900   21.2010 F   0  0  0  0  0  0  0  0  0  0  0  0
  -21.4480   -4.3060   25.8070 F   0  0  0  0  0  0  0  0  0  0  0  0
  -23.3750  -13.9620   21.1710 C   0  0  0  0  0  0  0  0  0  0  0  0
  -22.7070  -13.2510   22.0730 N   0  0  0  0  0  0  0  0  0  0  0  0
  -22.9350  -15.0310   20.7520 O   0  0  0  0  0  0  0  0  0  0  0  0
  -23.0790  -12.3910   22.4440 H   0  0  0  0  0  0  0  0  0  0  0  0
  -21.8090  -13.5800   22.4010 H   0  0  0  0  0  0  0  0  0  0  0  0
  -25.9730  -15.5680   20.1850 N   0  0  0  0  0  0  0  0  0  0  0  0
  -25.2380  -16.2260   20.4240 H   0  0  0  0  0  0  0  0  0  0  0  0
  -26.7850  -16.0100   19.7740 H   0  0  0  0  0  0  0  0  0  0  0  0
  2  4  1  0
  2  6  1  0
  3  1  1  0
  5  1  1  0
  6 11  1  0
  6 10  1  0
  7  3  1  0
  8  4  1  0
  8  9  1  0
  8  7  1  0
  9 60  1  0
  9  5  1  0
 10 17  1  0
 10  7  1  0
 11 12  1  0
 12 14  1  0
 13 11  2  0
 15 12  1  0
 17 16  1  0
 18 19  1  0
 18 17  1  0
 20 31  2  0
 21 19  1  0
 21 26  1  0
 22 30  1  0
 22 32  1  0
 23 29  1  0
 23 25  1  0
 24 30  1  0
 25 24  1  0
 26 25  2  0
 27 28  1  0
 27 21  2  0
 28 23  2  0
 29 22  1  0
 30 20  1  0
 32 34  2  0
 33 32  1  0
 35 33  1  0
 36 45  2  0
 36 41  1  0
 37 33  1  0
 37 41  1  0
 38 37  1  0
 39 40  1  0
 39 38  1  0
 40 36  1  0
 41 42  2  0
 42 43  1  0
 44 43  2  0
 45 44  1  0
 46 20  1  0
 46 51  1  0
 46 47  1  0
 47 50  1  1
 47 48  1  0
 49 47  1  0
 51 54  1  0
 52 56  1  0
 52 51  1  0
 53 52  2  0
 56 55  1  0
 58 56  1  0
 58 59  1  0
 58 57  1  0
 60 69  1  0
 61 67  1  0
 61 69  1  0
 62 67  1  0
 63 64  1  0
 63 62  1  0
 65 64  1  0
 65 74  1  0
 65 66  1  0
 67 66  1  0
 68 61  2  0
 69 70  1  0
 71 72  2  0
 72 91  1  0
 73 72  1  0
 73 76  1  0
 74 75  1  0
 74 71  1  0
 75 73  2  0
 76 77  1  0
 77 78  2  0
 79 82  1  0
 79 78  1  0
 80 79  2  0
 81 80  1  0
 81 76  2  0
 82 83  1  0
 83 84  1  0
 84 85  2  0
 86 85  1  0
 86 90  1  0
 87 86  2  0
 88 83  2  0
 88 87  1  0
 89 88  1  0
 91 92  1  0
 92 95  1  0
 92 94  1  0
 93 91  2  0
 96 71  1  0
 96 97  1  0
 98 96  1  0
M  ISO  4  18 101  19 101  61 100  69 100
M  END
>  <TORSDO>  (12) 
F 20

>  <SCORE>  (12) 
-10.177

>  <name>  (12) 
11

>  <ligand_id>  (12) 
11

>  <original_smiles>  (12) 
[H]c1c([H])c([H])c2c(c1[H])C([H])([H])C([H])([H])C([H])([H])C2([H])N([H])C(=O)C1([H])N(C(=O)C([H])(N([H])C(=O)C([H])(N([H])C([H])([H])[H])C([H])([H])[H])C(C([H])([H])[H])(C([H])([H])[H])C([H])([H])[H])C([H])([H])c2c([H])c(OC([H])([H])C([H])(C([H])([H])[H])C3([H])C([H])(C(=O)N([H])[H])C([H])([H])C([H])([H])C4([H])C([H])(C([H])([H])N([H])C(=O)N5C([H])([H])C([H])([H])C([H])([H])C([H])(n6nc(-c7c([H])c([H])c(Oc8c([H])c([H])c(F)c([H])c8F)c([H])c7[H])c(C(=O)N([H])[H])c6N([H])[H])C5([H])[H])C([H])([H])C([H])([H])C([H])([H])C43[H])c([H])c([H])c2C1([H])[H]

>  <smiles>  (12) 
[H]c1c([H])c([H])c2c(c1[H])C([H])([H])C([H])([H])C([H])([H])C2([H])N([H])C(=O)C1([H])N(C(=O)C([H])(N([H])C(=O)C([H])(N([H])C([H])([H])[H])C([H])([H])[H])C(C([H])([H])[H])(C([H])([H])[H])C([H])([H])[H])C([H])([H])c2c([H])c(OC([H])([H])C([H])(C([H])([H])[H])C3([H])C([H])(C(=O)N([H])[H])C([H])([H])C([H])([H])C4([H])C([H])(C([H])([H])N([H])C(=O)N5C([H])([H])C([H])([H])C([H])([H])C([H])(n6nc(-c7c([H])c([H])c(Oc8c([H])c([H])c(F)c([H])c8F)c([H])c7[H])c(C(=O)N([H])[H])c6N([H])[H])C5([H])[H])C([H])([H])C([H])([H])C([H])([H])C43[H])c([H])c([H])c2C1([H])[H]

$$$$
12:0:0
     RDKit          3D

 93100  0  0  1  0  0  0  0  0999 V2000
  -29.1720  -20.3290   19.3760 C   0  0  0  0  0  3  0  0  0  0  0  0
  -27.3770  -19.6040   21.1340 C   0  0  0  0  0  1  0  0  0  0  0  0
  -26.6290  -20.5450   18.8820 C   0  0  0  0  0  1  0  0  0  0  0  0
  -27.7350  -19.7870   19.6490 C   0  0  0  0  0  3  0  0  0  0  0  0
  -29.4260  -22.0100   19.4750 C   0  0  0  0  0  2  0  0  0  0  0  0
  -27.4840  -22.9550   21.1240 C   0  0  0  0  0  1  0  0  0  0  0  0
  -28.6230  -23.3300   20.1760 C   0  0  0  0  0  3  0  0  0  0  0  0
  -28.2120  -24.7450   19.3970 C   0  0  0  0  0  2  0  0  0  0  0  0
  -28.1780  -26.1700   20.0070 O   0  0  0  0  0  0  0  0  0  0  0  0
  -24.5420  -31.7650   23.1020 C   0  0  0  0  0  0  0  0  0  0  0  0
  -27.0890  -27.1090   19.9540 C   0  0  0  0  0  0  0  0  0  0  0  0
  -23.3230  -30.3950   21.4540 C   0  0  0  0  0  3  0  0  0  0  0  0
  -24.7560  -28.8390   19.9920 C   0  0  0  0  0  0  0  0  0  0  0  0
  -25.8750  -30.6610   21.2680 C   0  0  0  0  0  2  0  0  0  0  0  0
  -25.9410  -29.2810   20.5900 C   0  0  0  0  0  0  0  0  0  0  0  0
  -27.1050  -28.4270   20.5600 C   0  0  0  0  0  3  0  0  0  0  0  0
  -25.8740  -26.7650   19.3250 C   0  0  0  0  0  3  0  0  0  0  0  0
  -24.7330  -27.5950   19.3460 C   0  0  0  0  0  3  0  0  0  0  0  0
  -23.5330  -29.7390   20.0620 C   0  0  0  0  0  2  0  0  0  0  0  0
  -24.6010  -30.9600   21.9980 N   0  0  0  0  0  0  0  0  0  0  0  0
  -23.4600  -32.0430   23.6410 O   0  0  0  0  0  0  0  0  0  0  0  0
  -22.6500  -29.3730   22.4050 C   0  0  0  0  0  0  0  0  0  0  0  0
  -21.3230  -29.2020   22.2810 N   0  0  0  0  0  0  0  0  0  0  0  0
  -23.3240  -28.7410   23.2210 O   0  0  0  0  0  0  0  0  0  0  0  0
  -20.8380  -29.7720   21.6040 H   0  0  0  0  0  0  0  0  0  0  0  0
  -17.9450  -27.9760   22.7650 C   0  0  0  0  0  0  0  0  0  0  0  0
  -20.5010  -28.2550   23.0410 C   0  0  0  0  0  3  0  0  0  0  0  0
  -20.6130  -26.8250   22.4610 C   0  0  0  0  0  2  0  0  0  0  0  0
  -19.5160  -26.4990   21.4420 C   0  0  0  0  0  2  0  0  0  0  0  0
  -18.1330  -26.6300   22.0830 C   0  0  0  0  0  2  0  0  0  0  0  0
  -19.0560  -28.7440   23.2010 C   0  0  0  0  0  0  0  0  0  0  0  0
  -18.8260  -30.0010   23.8030 C   0  0  0  0  0  3  0  0  0  0  0  0
  -17.5170  -30.4910   23.9660 C   0  0  0  0  0  3  0  0  0  0  0  0
  -16.4200  -29.7200   23.5440 C   0  0  0  0  0  3  0  0  0  0  0  0
  -16.6340  -28.4630   22.9490 C   0  0  0  0  0  3  0  0  0  0  0  0
  -25.8250  -32.3890   23.7290 C   0  0  0  0  0  3  0  0  0  0  0  0
  -25.5080  -33.7720   24.1200 N   0  0  0  0  0  0  0  0  0  0  0  0
  -25.8260  -34.8580   23.4020 C   0  0  0  0  0  0  0  0  0  0  0  0
  -26.4810  -34.7980   22.3580 O   0  0  0  0  0  0  0  0  0  0  0  0
  -24.9270  -33.8880   24.9360 H   0  0  0  0  0  0  0  0  0  0  0  0
  -24.0810  -36.6520   23.1470 C   0  0  0  0  0  1  0  0  0  0  0  0
  -25.3390  -36.2250   23.9220 C   0  0  0  0  0  3  0  0  0  0  0  0
  -27.4870  -37.0850   24.7430 C   0  0  0  0  0  1  0  0  0  0  0  0
  -26.3650  -37.2880   23.8300 N   0  0  0  0  0  0  0  0  0  0  0  0
  -25.9580  -38.1990   24.0230 H   0  0  0  0  0  0  0  0  0  0  0  0
  -26.3630  -31.5790   24.9710 C   0  0  1  0  0  0  0  0  0  0  0  0
  -25.2850  -31.2900   26.0450 C   0  0  0  0  0  1  0  0  0  0  0  0
  -26.9540  -30.2220   24.5240 C   0  0  0  0  0  1  0  0  0  0  0  0
  -27.5150  -32.3600   25.6440 C   0  0  0  0  0  1  0  0  0  0  0  0
  -30.3510  -19.1030   19.2220 C   0  0  0  0  0  2  0  0  0  0  0  0
  -30.5360  -17.7100   20.1430 C   0  0  0  0  0  0  0  0  0  0  0  0
  -31.5020  -15.0820   19.7760 C   0  0  0  0  0  0  0  0  0  0  0  0
  -31.2840  -12.7090   18.9520 C   0  0  0  0  0  2  0  0  0  0  0  0
  -30.2980  -12.6850   17.7620 C   0  0  0  0  0  2  0  0  0  0  0  0
  -28.8340  -12.6030   18.2490 C   0  0  0  0  0  2  0  0  0  0  0  0
  -28.5290  -13.5950   19.4050 C   0  0  0  0  0  3  0  0  0  0  0  0
  -29.6210  -13.5340   20.4920 C   0  0  0  0  0  2  0  0  0  0  0  0
  -30.8900  -13.8430   19.8190 N   0  0  0  0  0  0  0  0  0  0  0  0
  -32.7180  -15.1430   19.5690 O   0  0  0  0  0  0  0  0  0  0  0  0
  -30.6450  -16.2020   19.7080 N   0  0  0  0  0  4  0  0  0  0  0  0
  -29.7130  -15.8250   19.6560 H   0  0  0  0  0  0  0  0  0  0  0  0
  -26.2440  -14.3750   20.2560 C   0  0  0  0  0  0  0  0  0  0  0  0
  -25.1330  -13.6890   20.6550 C   0  0  0  0  0  0  0  0  0  0  0  0
  -25.4720  -12.3040   20.5740 C   0  0  0  0  0  0  0  0  0  0  0  0
  -27.1940  -13.4120   19.9520 N   0  0  0  0  0  0  0  0  0  0  0  0
  -26.7430  -12.1620   20.2210 N   0  0  0  0  0  0  0  0  0  0  0  0
  -24.6450  -11.1050   20.7600 C   0  0  0  0  0  0  0  0  0  0  0  0
  -24.9970  -10.1020   21.6870 C   0  0  0  0  0  3  0  0  0  0  0  0
  -24.1730   -8.9720   21.8650 C   0  0  0  0  0  3  0  0  0  0  0  0
  -22.9820   -8.8350   21.1100 C   0  0  0  0  0  0  0  0  0  0  0  0
  -22.6530   -9.8240   20.1670 C   0  0  0  0  0  3  0  0  0  0  0  0
  -23.4770  -10.9450   19.9880 C   0  0  0  0  0  3  0  0  0  0  0  0
  -22.1350   -7.7580   21.1990 O   0  0  0  0  0  0  0  0  0  0  0  0
  -21.9950   -7.0450   22.3650 C   0  0  0  0  0  0  0  0  0  0  0  0
  -21.5980   -7.6630   23.5700 C   0  0  0  0  0  3  0  0  0  0  0  0
  -21.3920   -6.8850   24.7270 C   0  0  0  0  0  3  0  0  0  0  0  0
  -21.5780   -5.4880   24.6800 C   0  0  0  0  0  0  0  0  0  0  0  0
  -21.9720   -4.8730   23.4780 C   0  0  0  0  0  3  0  0  0  0  0  0
  -22.1790   -5.6480   22.3250 C   0  0  0  0  0  0  0  0  0  0  0  0
  -22.5400   -5.0470   21.1660 F   0  0  0  0  0  0  0  0  0  0  0  0
  -21.3740   -4.7390   25.7850 F   0  0  0  0  0  0  0  0  0  0  0  0
  -23.7910  -14.2780   20.9820 C   0  0  0  0  0  0  0  0  0  0  0  0
  -23.0550  -13.6530   21.8930 N   0  0  0  0  0  0  0  0  0  0  0  0
  -23.4120  -15.3270   20.4570 O   0  0  0  0  0  0  0  0  0  0  0  0
  -23.3880  -12.8160   22.3480 H   0  0  0  0  0  0  0  0  0  0  0  0
  -22.1440  -14.0090   22.1460 H   0  0  0  0  0  0  0  0  0  0  0  0
  -26.5040  -15.7340   20.0810 N   0  0  0  0  0  0  0  0  0  0  0  0
  -25.7290  -16.3860   20.1410 H   0  0  0  0  0  0  0  0  0  0  0  0
  -27.2550  -16.0920   19.5060 H   0  0  0  0  0  0  0  0  0  0  0  0
  -31.9680  -19.2040   21.7290 C   0  0  0  0  0  1  0  0  0  0  0  0
  -31.3680  -17.8150   21.4440 C   0  0  0  0  0  3  0  0  0  0  0  0
  -31.3470  -16.8430   23.8450 C   0  0  0  0  0  1  0  0  0  0  0  0
  -30.5390  -17.2120   22.6070 C   0  0  0  0  0  2  0  0  0  0  0  0
  1 50  1  0
  1  5  1  0
  1  4  1  0
  3  4  1  0
  4  2  1  0
  5  7  1  0
  7  6  1  0
  8  9  1  0
  8  7  1  0
 10 21  2  0
 11  9  1  0
 11 16  1  0
 12 20  1  0
 12 22  1  0
 13 19  1  0
 13 15  1  0
 14 20  1  0
 15 14  1  0
 16 15  2  0
 17 18  1  0
 17 11  2  0
 18 13  2  0
 19 12  1  0
 20 10  1  0
 22 24  2  0
 23 22  1  0
 25 23  1  0
 26 35  2  0
 26 31  1  0
 27 23  1  0
 27 31  1  0
 28 27  1  0
 29 30  1  0
 29 28  1  0
 30 26  1  0
 31 32  2  0
 32 33  1  0
 34 33  2  0
 35 34  1  0
 36 10  1  0
 36 37  1  0
 36 46  1  0
 37 40  1  0
 38 42  1  0
 38 37  1  0
 39 38  2  0
 42 41  1  0
 44 42  1  0
 44 45  1  0
 44 43  1  0
 46 49  1  1
 46 47  1  0
 48 46  1  0
 50 51  1  0
 51 91  1  0
 52 58  1  0
 53 58  1  0
 54 55  1  0
 54 53  1  0
 56 55  1  0
 56 65  1  0
 56 57  1  0
 58 57  1  0
 59 52  2  0
 60 52  1  0
 60 51  2  0
 61 60  1  0
 62 63  2  0
 63 82  1  0
 64 63  1  0
 64 67  1  0
 65 66  1  0
 65 62  1  0
 66 64  2  0
 67 68  1  0
 68 69  2  0
 70 73  1  0
 70 69  1  0
 71 70  2  0
 72 71  1  0
 72 67  2  0
 73 74  1  0
 74 75  1  0
 75 76  2  0
 77 76  1  0
 77 81  1  0
 78 77  2  0
 79 74  2  0
 79 78  1  0
 80 79  1  0
 82 83  1  0
 83 86  1  0
 83 85  1  0
 84 82  2  0
 87 88  1  0
 87 62  1  0
 89 87  1  0
 91 90  1  0
 91 93  1  0
 93 92  1  0
M  ISO  4   8 101   9 101  52 100  60 100
M  END
>  <TORSDO>  (13) 
F 24

>  <SCORE>  (13) 
-9.315

>  <name>  (13) 
12

>  <ligand_id>  (13) 
12

>  <original_smiles>  (13) 
[H]c1c([H])c([H])c2c(c1[H])C([H])([H])C([H])([H])C([H])([H])C2([H])N([H])C(=O)C1([H])N(C(=O)C([H])(N([H])C(=O)C([H])(N([H])C([H])([H])[H])C([H])([H])[H])C(C([H])([H])[H])(C([H])([H])[H])C([H])([H])[H])C([H])([H])c2c([H])c(OC([H])([H])C([H])(C([H])([H])[H])C([H])([H])C([H])(C([H])([H])C([H])(N([H])C(=O)N3C([H])([H])C([H])([H])C([H])([H])C([H])(n4nc(-c5c([H])c([H])c(Oc6c([H])c([H])c(F)c([H])c6F)c([H])c5[H])c(C(=O)N([H])[H])c4N([H])[H])C3([H])[H])C([H])(C([H])([H])[H])C([H])([H])C([H])([H])[H])C([H])(C([H])([H])[H])C([H])([H])[H])c([H])c([H])c2C1([H])[H]

>  <smiles>  (13) 
[H]c1c([H])c([H])c2c(c1[H])C([H])([H])C([H])([H])C([H])([H])C2([H])N([H])C(=O)C1([H])N(C(=O)C([H])(N([H])C(=O)C([H])(N([H])C([H])([H])[H])C([H])([H])[H])C(C([H])([H])[H])(C([H])([H])[H])C([H])([H])[H])C([H])([H])c2c([H])c(OC([H])([H])C([H])(C([H])([H])[H])C([H])([H])C([H])(C([H])([H])C([H])(N([H])C(=O)N3C([H])([H])C([H])([H])C([H])([H])C([H])(n4nc(-c5c([H])c([H])c(Oc6c([H])c([H])c(F)c([H])c6F)c([H])c5[H])c(C(=O)N([H])[H])c4N([H])[H])C3([H])[H])C([H])(C([H])([H])[H])C([H])([H])C([H])([H])[H])C([H])(C([H])([H])[H])C([H])([H])[H])c([H])c([H])c2C1([H])[H]

$$$$
13:0:0
     RDKit          3D

103111  0  0  1  0  0  0  0  0999 V2000
  -29.5890  -19.1470   21.7230 C   0  0  0  0  0  2  0  0  0  0  0  0
  -30.9380  -21.3250   22.3380 C   0  0  0  0  0  1  0  0  0  0  0  0
  -29.5490  -20.6650   22.1490 C   0  0  0  0  0  3  0  0  0  0  0  0
  -28.6170  -21.5750   21.2880 C   0  0  0  0  0  2  0  0  0  0  0  0
  -28.4110  -22.9300   21.8840 N   0  0  0  0  0  4  0  0  0  0  0  0
  -28.7620  -22.9220   22.8270 H   0  0  0  0  0  0  0  0  0  0  0  0
  -27.4120  -23.0610   21.9470 H   0  0  0  0  0  0  0  0  0  0  0  0
  -28.9710  -24.1040   21.1490 C   0  0  0  0  0  2  0  0  0  0  0  0
  -29.2740  -25.6440   23.2050 C   0  0  0  0  0  1  0  0  0  0  0  0
  -28.6370  -25.4850   21.8080 C   0  0  0  0  0  3  0  0  0  0  0  0
  -29.1000  -26.6930   20.9440 C   0  0  0  0  0  2  0  0  0  0  0  0
  -28.3240  -26.8730   19.7580 O   0  0  0  0  0  0  0  0  0  0  0  0
  -24.5240  -31.9030   23.1370 C   0  0  0  0  0  0  0  0  0  0  0  0
  -27.1750  -27.6220   19.8680 C   0  0  0  0  0  0  0  0  0  0  0  0
  -23.3040  -30.5440   21.4640 C   0  0  0  0  0  3  0  0  0  0  0  0
  -24.7550  -29.0820   19.9650 C   0  0  0  0  0  0  0  0  0  0  0  0
  -25.8170  -30.9560   21.2320 C   0  0  0  0  0  2  0  0  0  0  0  0
  -25.9110  -29.6070   20.5510 C   0  0  0  0  0  0  0  0  0  0  0  0
  -27.1220  -28.8850   20.5060 C   0  0  0  0  0  3  0  0  0  0  0  0
  -26.0050  -27.1130   19.2670 C   0  0  0  0  0  3  0  0  0  0  0  0
  -24.7940  -27.8290   19.3250 C   0  0  0  0  0  3  0  0  0  0  0  0
  -23.5020  -29.9210   20.0550 C   0  0  0  0  0  2  0  0  0  0  0  0
  -24.5670  -31.1470   22.0050 N   0  0  0  0  0  0  0  0  0  0  0  0
  -23.4500  -32.1340   23.7100 O   0  0  0  0  0  0  0  0  0  0  0  0
  -22.6960  -29.4730   22.4020 C   0  0  0  0  0  0  0  0  0  0  0  0
  -21.3800  -29.2450   22.2740 N   0  0  0  0  0  0  0  0  0  0  0  0
  -23.4080  -28.8560   23.2010 O   0  0  0  0  0  0  0  0  0  0  0  0
  -20.8640  -29.8100   21.6140 H   0  0  0  0  0  0  0  0  0  0  0  0
  -18.0570  -27.9060   22.7220 C   0  0  0  0  0  0  0  0  0  0  0  0
  -20.5980  -28.2560   23.0210 C   0  0  0  0  0  3  0  0  0  0  0  0
  -20.7620  -26.8410   22.4210 C   0  0  0  0  0  2  0  0  0  0  0  0
  -19.6810  -26.4950   21.3910 C   0  0  0  0  0  2  0  0  0  0  0  0
  -18.2880  -26.5760   22.0230 C   0  0  0  0  0  2  0  0  0  0  0  0
  -19.1420  -28.7020   23.1750 C   0  0  0  0  0  0  0  0  0  0  0  0
  -18.8700  -29.9470   23.7850 C   0  0  0  0  0  3  0  0  0  0  0  0
  -17.5460  -30.3960   23.9430 C   0  0  0  0  0  3  0  0  0  0  0  0
  -16.4760  -29.5960   23.5100 C   0  0  0  0  0  3  0  0  0  0  0  0
  -16.7310  -28.3500   22.9070 C   0  0  0  0  0  3  0  0  0  0  0  0
  -25.8150  -32.5350   23.7480 C   0  0  0  0  0  3  0  0  0  0  0  0
  -25.4980  -33.9220   24.1170 N   0  0  0  0  0  0  0  0  0  0  0  0
  -25.8220  -34.9970   23.3850 C   0  0  0  0  0  0  0  0  0  0  0  0
  -26.4910  -34.9230   22.3500 O   0  0  0  0  0  0  0  0  0  0  0  0
  -24.9090  -34.0530   24.9250 H   0  0  0  0  0  0  0  0  0  0  0  0
  -24.0780  -36.7770   23.0710 C   0  0  0  0  0  1  0  0  0  0  0  0
  -25.3230  -36.3680   23.8730 C   0  0  0  0  0  3  0  0  0  0  0  0
  -27.4510  -37.2470   24.7280 C   0  0  0  0  0  1  0  0  0  0  0  0
  -26.3470  -37.4340   23.7890 N   0  0  0  0  0  0  0  0  0  0  0  0
  -25.9320  -38.3470   23.9600 H   0  0  0  0  0  0  0  0  0  0  0  0
  -26.3680  -31.7410   24.9950 C   0  0  1  0  0  0  0  0  0  0  0  0
  -25.2950  -31.4300   26.0630 C   0  0  0  0  0  1  0  0  0  0  0  0
  -26.9990  -30.4000   24.5530 C   0  0  0  0  0  1  0  0  0  0  0  0
  -27.4910  -32.5530   25.6810 C   0  0  0  0  0  1  0  0  0  0  0  0
  -30.3750  -18.7770   20.4240 C   0  0  0  0  0  3  0  0  0  0  0  0
  -31.8930  -18.6820   20.7420 C   0  0  0  0  0  2  0  0  0  0  0  0
  -32.8160  -20.5830   19.2740 C   0  0  0  0  0  1  0  0  0  0  0  0
  -34.2930  -18.6760   20.0080 C   0  0  0  0  0  1  0  0  0  0  0  0
  -32.8660  -19.0850   19.6130 C   0  0  0  0  0  3  0  0  0  0  0  0
  -29.8800  -17.5270   19.6120 C   0  0  0  0  0  3  0  0  0  0  0  0
  -30.5310  -15.2070   20.2960 C   0  0  0  0  0  0  0  0  0  0  0  0
  -30.5030  -12.8350   19.6480 C   0  0  0  0  0  2  0  0  0  0  0  0
  -29.6350  -12.6860   18.3810 C   0  0  0  0  0  2  0  0  0  0  0  0
  -28.1530  -12.4760   18.7510 C   0  0  0  0  0  2  0  0  0  0  0  0
  -27.6490  -13.5140   19.7890 C   0  0  0  0  0  3  0  0  0  0  0  0
  -28.6400  -13.6740   20.9670 C   0  0  0  0  0  2  0  0  0  0  0  0
  -29.9670  -13.9740   20.4140 N   0  0  0  0  0  0  0  0  0  0  0  0
  -31.6930  -15.3550   19.9100 O   0  0  0  0  0  0  0  0  0  0  0  0
  -29.6890  -16.2620   20.3690 N   0  0  0  0  0  0  0  0  0  0  0  0
  -28.7620  -16.0770   20.7150 H   0  0  0  0  0  0  0  0  0  0  0  0
  -25.2610  -14.0540   20.5780 C   0  0  0  0  0  0  0  0  0  0  0  0
  -24.1980  -13.2490   20.8930 C   0  0  0  0  0  0  0  0  0  0  0  0
  -24.6630  -11.9060   20.7510 C   0  0  0  0  0  0  0  0  0  0  0  0
  -26.3030  -13.1970   20.2630 N   0  0  0  0  0  0  0  0  0  0  0  0
  -25.9490  -11.8960   20.4270 N   0  0  0  0  0  0  0  0  0  0  0  0
  -23.9400  -10.6300   20.8460 C   0  0  0  0  0  0  0  0  0  0  0  0
  -24.3140   -9.6400   21.7810 C   0  0  0  0  0  3  0  0  0  0  0  0
  -23.5940   -8.4310   21.8670 C   0  0  0  0  0  3  0  0  0  0  0  0
  -22.4860   -8.2000   21.0180 C   0  0  0  0  0  0  0  0  0  0  0  0
  -22.1310   -9.1810   20.0760 C   0  0  0  0  0  3  0  0  0  0  0  0
  -22.8500  -10.3840   19.9870 C   0  0  0  0  0  3  0  0  0  0  0  0
  -21.7410   -7.0450   21.0120 O   0  0  0  0  0  0  0  0  0  0  0  0
  -21.5450   -6.3120   22.1550 C   0  0  0  0  0  0  0  0  0  0  0  0
  -20.9470   -6.8690   23.3060 C   0  0  0  0  0  3  0  0  0  0  0  0
  -20.7010   -6.0600   24.4350 C   0  0  0  0  0  3  0  0  0  0  0  0
  -21.0400   -4.6940   24.4090 C   0  0  0  0  0  0  0  0  0  0  0  0
  -21.6270   -4.1350   23.2610 C   0  0  0  0  0  3  0  0  0  0  0  0
  -21.8770   -4.9430   22.1360 C   0  0  0  0  0  0  0  0  0  0  0  0
  -22.4240   -4.3930   21.0260 F   0  0  0  0  0  0  0  0  0  0  0  0
  -20.7960   -3.9150   25.4910 F   0  0  0  0  0  0  0  0  0  0  0  0
  -22.8020  -13.7000   21.2130 C   0  0  0  0  0  0  0  0  0  0  0  0
  -22.0940  -12.9570   22.0550 N   0  0  0  0  0  0  0  0  0  0  0  0
  -22.3470  -14.7460   20.7510 O   0  0  0  0  0  0  0  0  0  0  0  0
  -22.4690  -12.1100   22.4540 H   0  0  0  0  0  0  0  0  0  0  0  0
  -21.1550  -13.2390   22.3000 H   0  0  0  0  0  0  0  0  0  0  0  0
  -25.4250  -15.4360   20.5100 N   0  0  0  0  0  0  0  0  0  0  0  0
  -24.6630  -16.0820   20.6770 H   0  0  0  0  0  0  0  0  0  0  0  0
  -26.2780  -15.8980   20.2180 H   0  0  0  0  0  0  0  0  0  0  0  0
  -28.6620  -17.7690   18.6840 C   0  0  0  0  0  2  0  0  0  0  0  0
  -29.0830  -20.0660   14.9580 C   0  0  0  0  0  2  0  0  0  0  0  0
  -28.1330  -18.8600   14.9620 C   0  0  0  0  0  2  0  0  0  0  0  0
  -30.3580  -19.7630   15.7620 C   0  0  0  0  0  2  0  0  0  0  0  0
  -27.7790  -18.4410   16.3980 C   0  0  0  0  0  2  0  0  0  0  0  0
  -30.0170  -19.3310   17.1970 C   0  0  0  0  0  2  0  0  0  0  0  0
  -29.0410  -18.1330   17.2340 C   0  0  0  0  0  3  0  0  0  0  0  0
  1  3  1  0
  3  2  1  0
  4  5  1  0
  4  3  1  0
  5  7  1  0
  5  6  1  0
  8 10  1  0
  8  5  1  0
 10  9  1  0
 11 10  1  0
 12 14  1  0
 12 11  1  0
 13 24  2  0
 14 19  1  0
 15 23  1  0
 15 25  1  0
 16 22  1  0
 16 18  1  0
 17 23  1  0
 18 17  1  0
 19 18  2  0
 20 21  1  0
 20 14  2  0
 21 16  2  0
 22 15  1  0
 23 13  1  0
 25 27  2  0
 26 25  1  0
 28 26  1  0
 29 38  2  0
 29 34  1  0
 30 26  1  0
 30 34  1  0
 31 30  1  0
 32 33  1  0
 32 31  1  0
 33 29  1  0
 34 35  2  0
 35 36  1  0
 37 36  2  0
 38 37  1  0
 39 13  1  0
 39 40  1  0
 39 49  1  0
 40 43  1  0
 41 45  1  0
 41 40  1  0
 42 41  2  0
 45 44  1  0
 47 45  1  0
 47 48  1  0
 47 46  1  0
 49 52  1  1
 49 50  1  0
 51 49  1  0
 53 54  1  0
 53  1  1  0
 55 57  1  0
 57 56  1  0
 57 54  1  0
 58 97  1  0
 58 67  1  0
 58 53  1  0
 59 67  1  0
 59 65  1  0
 60 65  1  0
 61 62  1  0
 61 60  1  0
 63 62  1  0
 63 72  1  0
 63 64  1  0
 65 64  1  0
 66 59  2  0
 67 68  1  0
 69 70  2  0
 70 89  1  0
 71 74  1  0
 71 70  1  0
 72 73  1  0
 72 69  1  0
 73 71  2  0
 74 75  1  0
 75 76  2  0
 77 76  1  0
 78 77  2  0
 79 78  1  0
 79 74  2  0
 80 77  1  0
 80 81  1  0
 81 82  1  0
 82 83  2  0
 84 83  1  0
 84 88  1  0
 85 84  2  0
 86 81  2  0
 86 85  1  0
 87 86  1  0
 89 90  1  0
 90 93  1  0
 90 92  1  0
 91 89  2  0
 94 69  1  0
 94 95  1  0
 96 94  1  0
 98 99  1  0
 98100  1  0
 99101  1  0
100102  1  0
101103  1  0
102103  1  0
103 97  1  0
M  ISO  4  11 101  12 101  59 100  67 100
M  END
>  <TORSDO>  (14) 
F 28

>  <SCORE>  (14) 
-10.232

>  <name>  (14) 
13

>  <ligand_id>  (14) 
13

>  <original_smiles>  (14) 
[H]c1c([H])c([H])c2c(c1[H])C([H])([H])C([H])([H])C([H])([H])C2([H])N([H])C(=O)C1([H])N(C(=O)C([H])(N([H])C(=O)C([H])(N([H])C([H])([H])[H])C([H])([H])[H])C(C([H])([H])[H])(C([H])([H])[H])C([H])([H])[H])C([H])([H])c2c([H])c(OC([H])([H])C([H])(C([H])([H])[H])C([H])([H])[N+]([H])([H])C([H])([H])C([H])(C([H])([H])[H])C([H])([H])C([H])(C([H])([H])C([H])(C([H])([H])[H])C([H])([H])[H])C([H])(N([H])C(=O)N3C([H])([H])C([H])([H])C([H])([H])C([H])(n4nc(-c5c([H])c([H])c(Oc6c([H])c([H])c(F)c([H])c6F)c([H])c5[H])c(C(=O)N([H])[H])c4N([H])[H])C3([H])[H])C([H])([H])C3([H])C([H])([H])C([H])([H])C([H])([H])C([H])([H])C3([H])[H])c([H])c([H])c2C1([H])[H]

>  <smiles>  (14) 
[H]c1c([H])c([H])c2c(c1[H])C([H])([H])C([H])([H])C([H])([H])C2([H])N([H])C(=O)C1([H])N(C(=O)C([H])(N([H])C(=O)C([H])(N([H])C([H])([H])[H])C([H])([H])[H])C(C([H])([H])[H])(C([H])([H])[H])C([H])([H])[H])C([H])([H])c2c([H])c(OC([H])([H])C([H])(C([H])([H])[H])C([H])([H])[N+]([H])([H])C([H])([H])C([H])(C([H])([H])[H])C([H])([H])C([H])(C([H])([H])C([H])(C([H])([H])[H])C([H])([H])[H])C([H])(N([H])C(=O)N3C([H])([H])C([H])([H])C([H])([H])C([H])(n4nc(-c5c([H])c([H])c(Oc6c([H])c([H])c(F)c([H])c6F)c([H])c5[H])c(C(=O)N([H])[H])c4N([H])[H])C3([H])[H])C([H])([H])C3([H])C([H])([H])C([H])([H])C([H])([H])C([H])([H])C3([H])[H])c([H])c([H])c2C1([H])[H]

$$$$
14:0:0
     RDKit          3D

 89 96  0  0  1  0  0  0  0  0999 V2000
  -28.7080  -21.1880   19.9950 C   0  0  0  0  0  2  0  0  0  0  0  0
  -29.2490  -22.9650   21.8910 C   0  0  0  0  0  1  0  0  0  0  0  0
  -28.9380  -22.9110   20.3910 C   0  0  0  0  0  3  0  0  0  0  0  0
  -27.9430  -24.3520   20.0820 C   0  0  0  0  0  2  0  0  0  0  0  0
  -28.1860  -25.9440   20.3120 O   0  0  0  0  0  0  0  0  0  0  0  0
  -24.6360  -31.8750   23.2550 C   0  0  0  0  0  0  0  0  0  0  0  0
  -27.1660  -27.0120   20.2510 C   0  0  0  0  0  0  0  0  0  0  0  0
  -23.4330  -30.4780   21.6240 C   0  0  0  0  0  3  0  0  0  0  0  0
  -24.8700  -28.8670   20.2070 C   0  0  0  0  0  0  0  0  0  0  0  0
  -25.9980  -30.6860   21.4720 C   0  0  0  0  0  2  0  0  0  0  0  0
  -26.0590  -29.2790   20.8230 C   0  0  0  0  0  0  0  0  0  0  0  0
  -27.2020  -28.3680   20.8230 C   0  0  0  0  0  3  0  0  0  0  0  0
  -25.9460  -26.7350   19.5910 C   0  0  0  0  0  3  0  0  0  0  0  0
  -24.8360  -27.6150   19.5720 C   0  0  0  0  0  3  0  0  0  0  0  0
  -23.6570  -29.7920   20.2500 C   0  0  0  0  0  2  0  0  0  0  0  0
  -24.7100  -31.0380   22.1710 N   0  0  0  0  0  0  0  0  0  0  0  0
  -23.5480  -32.1730   23.7730 O   0  0  0  0  0  0  0  0  0  0  0  0
  -22.7380  -29.4870   22.5930 C   0  0  0  0  0  0  0  0  0  0  0  0
  -21.4080  -29.3240   22.4640 N   0  0  0  0  0  0  0  0  0  0  0  0
  -23.4000  -28.8650   23.4270 O   0  0  0  0  0  0  0  0  0  0  0  0
  -20.9280  -29.8750   21.7680 H   0  0  0  0  0  0  0  0  0  0  0  0
  -18.0210  -28.1260   22.9590 C   0  0  0  0  0  0  0  0  0  0  0  0
  -20.5790  -28.3950   23.2400 C   0  0  0  0  0  3  0  0  0  0  0  0
  -20.6850  -26.9560   22.6820 C   0  0  0  0  0  2  0  0  0  0  0  0
  -19.5920  -26.6220   21.6630 C   0  0  0  0  0  2  0  0  0  0  0  0
  -18.2050  -26.7710   22.2950 C   0  0  0  0  0  2  0  0  0  0  0  0
  -19.1360  -28.8950   23.3880 C   0  0  0  0  0  0  0  0  0  0  0  0
  -18.9090  -30.1590   23.9720 C   0  0  0  0  0  3  0  0  0  0  0  0
  -17.6020  -30.6550   24.1340 C   0  0  0  0  0  3  0  0  0  0  0  0
  -16.5020  -29.8850   23.7190 C   0  0  0  0  0  3  0  0  0  0  0  0
  -16.7120  -28.6230   23.1350 C   0  0  0  0  0  3  0  0  0  0  0  0
  -25.9100  -32.5130   23.8860 C   0  0  0  0  0  3  0  0  0  0  0  0
  -26.4040  -31.7550   25.1790 C   0  0  1  0  0  0  0  0  0  0  0  0
  -25.2970  -31.5450   26.2400 C   0  0  0  0  0  1  0  0  0  0  0  0
  -26.9760  -30.3660   24.8200 C   0  0  0  0  0  1  0  0  0  0  0  0
  -27.5570  -32.5440   25.8400 C   0  0  0  0  0  1  0  0  0  0  0  0
  -25.6010  -33.9170   24.2080 N   0  0  0  0  0  0  0  0  0  0  0  0
  -25.9310  -34.9710   23.4470 C   0  0  0  0  0  0  0  0  0  0  0  0
  -26.5920  -34.8610   22.4110 O   0  0  0  0  0  0  0  0  0  0  0  0
  -25.0150  -34.0730   25.0150 H   0  0  0  0  0  0  0  0  0  0  0  0
  -24.2040  -36.7750   23.1170 C   0  0  0  0  0  1  0  0  0  0  0  0
  -25.4570  -36.3650   23.9070 C   0  0  0  0  0  3  0  0  0  0  0  0
  -27.6100  -37.2520   24.6960 C   0  0  0  0  0  1  0  0  0  0  0  0
  -26.4930  -37.4150   23.7690 N   0  0  0  0  0  0  0  0  0  0  0  0
  -26.0920  -38.3380   23.9140 H   0  0  0  0  0  0  0  0  0  0  0  0
  -29.6480  -19.7140   20.3840 C   0  0  0  0  0  3  0  0  0  0  0  0
  -32.1290  -19.4070   21.0520 C   0  0  0  0  0  1  0  0  0  0  0  0
  -31.1310  -20.1370   20.1370 C   0  0  0  0  0  3  0  0  0  0  0  0
  -32.8740  -20.8080   18.3330 C   0  0  0  0  0  1  0  0  0  0  0  0
  -31.5640  -20.0640   18.6500 C   0  0  0  0  0  2  0  0  0  0  0  0
  -29.4260  -18.0250   19.8320 C   0  0  0  0  0  2  0  0  0  0  0  0
  -30.4250  -15.2480   20.2080 C   0  0  0  0  0  0  0  0  0  0  0  0
  -30.3700  -12.7910   19.4000 C   0  0  0  0  0  2  0  0  0  0  0  0
  -29.4700  -12.6410   18.1500 C   0  0  0  0  0  2  0  0  0  0  0  0
  -28.0110  -12.3930   18.5740 C   0  0  0  0  0  2  0  0  0  0  0  0
  -27.5660  -13.3470   19.7130 C   0  0  0  0  0  3  0  0  0  0  0  0
  -28.6080  -13.4770   20.8500 C   0  0  0  0  0  2  0  0  0  0  0  0
  -29.8640  -13.9410   20.2350 N   0  0  0  0  0  0  0  0  0  0  0  0
  -31.6050  -15.2680   19.8360 O   0  0  0  0  0  0  0  0  0  0  0  0
  -29.6670  -16.4920   20.4390 N   0  0  0  0  0  0  0  0  0  0  0  0
  -28.8290  -16.2300   20.9420 H   0  0  0  0  0  0  0  0  0  0  0  0
  -25.1850  -13.8980   20.4570 C   0  0  0  0  0  0  0  0  0  0  0  0
  -24.1260  -13.1210   20.8310 C   0  0  0  0  0  0  0  0  0  0  0  0
  -24.5960  -11.7730   20.8050 C   0  0  0  0  0  0  0  0  0  0  0  0
  -26.2340  -13.0280   20.2170 N   0  0  0  0  0  0  0  0  0  0  0  0
  -25.8890  -11.7420   20.4970 N   0  0  0  0  0  0  0  0  0  0  0  0
  -23.8720  -10.5080   21.0010 C   0  0  0  0  0  0  0  0  0  0  0  0
  -24.3060   -9.5460   21.9400 C   0  0  0  0  0  3  0  0  0  0  0  0
  -23.5810   -8.3490   22.1270 C   0  0  0  0  0  3  0  0  0  0  0  0
  -22.4070   -8.1070   21.3750 C   0  0  0  0  0  0  0  0  0  0  0  0
  -21.9920   -9.0580   20.4250 C   0  0  0  0  0  3  0  0  0  0  0  0
  -22.7180  -10.2460   20.2370 C   0  0  0  0  0  3  0  0  0  0  0  0
  -21.6510   -6.9650   21.4710 O   0  0  0  0  0  0  0  0  0  0  0  0
  -21.6040   -6.2250   22.6260 C   0  0  0  0  0  0  0  0  0  0  0  0
  -21.1770   -6.7830   23.8510 C   0  0  0  0  0  3  0  0  0  0  0  0
  -21.0780   -5.9710   24.9970 C   0  0  0  0  0  3  0  0  0  0  0  0
  -21.3940   -4.6020   24.9210 C   0  0  0  0  0  0  0  0  0  0  0  0
  -21.8160   -4.0440   23.7030 C   0  0  0  0  0  3  0  0  0  0  0  0
  -21.9150   -4.8530   22.5570 C   0  0  0  0  0  0  0  0  0  0  0  0
  -22.3010   -4.3040   21.3790 F   0  0  0  0  0  0  0  0  0  0  0  0
  -21.2910   -3.8200   26.0220 F   0  0  0  0  0  0  0  0  0  0  0  0
  -22.7260  -13.5960   21.0930 C   0  0  0  0  0  0  0  0  0  0  0  0
  -21.9920  -12.9070   21.9600 N   0  0  0  0  0  0  0  0  0  0  0  0
  -22.2910  -14.6170   20.5620 O   0  0  0  0  0  0  0  0  0  0  0  0
  -22.3580  -12.0850   22.4170 H   0  0  0  0  0  0  0  0  0  0  0  0
  -21.0510  -13.2070   22.1780 H   0  0  0  0  0  0  0  0  0  0  0  0
  -25.3390  -15.2680   20.2730 N   0  0  0  0  0  0  0  0  0  0  0  0
  -24.5590  -15.9090   20.3850 H   0  0  0  0  0  0  0  0  0  0  0  0
  -26.1720  -15.7130   19.9140 H   0  0  0  0  0  0  0  0  0  0  0  0
  1 46  1  0
  1  3  1  0
  3  2  1  0
  4  5  1  0
  4  3  1  0
  6 17  2  0
  7  5  1  0
  7 12  1  0
  8 16  1  0
  8 18  1  0
  9 15  1  0
  9 11  1  0
 10 16  1  0
 11 10  1  0
 12 11  2  0
 13  7  2  0
 14 13  1  0
 14  9  2  0
 15  8  1  0
 16  6  1  0
 18 20  2  0
 19 18  1  0
 21 19  1  0
 22 31  2  0
 22 27  1  0
 23 19  1  0
 23 27  1  0
 24 23  1  0
 25 26  1  0
 25 24  1  0
 26 22  1  0
 27 28  2  0
 28 29  1  0
 30 29  2  0
 31 30  1  0
 32  6  1  0
 32 37  1  0
 32 33  1  0
 33 36  1  1
 33 34  1  0
 35 33  1  0
 37 40  1  0
 38 42  1  0
 38 37  1  0
 39 38  2  0
 42 41  1  0
 44 42  1  0
 44 45  1  0
 44 43  1  0
 46 51  1  0
 48 46  1  0
 48 47  1  0
 49 50  1  0
 50 48  1  0
 51 60  1  0
 52 58  1  0
 52 60  1  0
 53 58  1  0
 54 55  1  0
 54 53  1  0
 56 55  1  0
 56 65  1  0
 56 57  1  0
 58 57  1  0
 59 52  2  0
 60 61  1  0
 62 63  2  0
 63 82  1  0
 64 63  1  0
 64 67  1  0
 65 62  1  0
 65 66  1  0
 66 64  2  0
 67 68  1  0
 68 69  2  0
 70 73  1  0
 70 69  1  0
 71 70  2  0
 72 71  1  0
 72 67  2  0
 73 74  1  0
 74 75  1  0
 75 76  2  0
 77 76  1  0
 77 81  1  0
 78 77  2  0
 79 74  2  0
 79 78  1  0
 80 79  1  0
 82 83  1  0
 83 86  1  0
 83 85  1  0
 84 82  2  0
 87 88  1  0
 87 62  1  0
 89 87  1  0
M  ISO  4   4 101   5 101  52 100  60 100
M  END
>  <TORSDO>  (15) 
F 22

>  <SCORE>  (15) 
-15.212

>  <name>  (15) 
14

>  <ligand_id>  (15) 
14

>  <original_smiles>  (15) 
[H]c1c([H])c([H])c2c(c1[H])C([H])([H])C([H])([H])C([H])([H])C2([H])N([H])C(=O)C1([H])N(C(=O)C([H])(N([H])C(=O)C([H])(N([H])C([H])([H])[H])C([H])([H])[H])C(C([H])([H])[H])(C([H])([H])[H])C([H])([H])[H])C([H])([H])c2c([H])c(OC([H])([H])C([H])(C([H])([H])[H])C([H])([H])C([H])(C([H])([H])N([H])C(=O)N3C([H])([H])C([H])([H])C([H])([H])C([H])(n4nc(-c5c([H])c([H])c(Oc6c([H])c([H])c(F)c([H])c6F)c([H])c5[H])c(C(=O)N([H])[H])c4N([H])[H])C3([H])[H])C([H])(C([H])([H])[H])C([H])([H])C([H])([H])[H])c([H])c([H])c2C1([H])[H]

>  <smiles>  (15) 
[H]c1c([H])c([H])c2c(c1[H])C([H])([H])C([H])([H])C([H])([H])C2([H])N([H])C(=O)C1([H])N(C(=O)C([H])(N([H])C(=O)C([H])(N([H])C([H])([H])[H])C([H])([H])[H])C(C([H])([H])[H])(C([H])([H])[H])C([H])([H])[H])C([H])([H])c2c([H])c(OC([H])([H])C([H])(C([H])([H])[H])C([H])([H])C([H])(C([H])([H])N([H])C(=O)N3C([H])([H])C([H])([H])C([H])([H])C([H])(n4nc(-c5c([H])c([H])c(Oc6c([H])c([H])c(F)c([H])c6F)c([H])c5[H])c(C(=O)N([H])[H])c4N([H])[H])C3([H])[H])C([H])(C([H])([H])[H])C([H])([H])C([H])([H])[H])c([H])c([H])c2C1([H])[H]

$$$$
15:0:0
     RDKit          3D

 97104  0  0  1  0  0  0  0  0999 V2000
  -32.2070  -19.1620   18.9440 C   0  0  0  0  0  1  0  0  0  0  0  0
  -30.7470  -19.5790   19.2150 C   0  0  0  0  0  3  0  0  0  0  0  0
  -30.5930  -21.0360   18.7020 C   0  0  0  0  0  2  0  0  0  0  0  0
  -29.4610  -21.7900   19.2810 N   0  0  0  0  0  4  0  0  0  0  0  0
  -28.6220  -21.2320   19.2580 H   0  0  0  0  0  0  0  0  0  0  0  0
  -29.6770  -21.9910   20.2440 H   0  0  0  0  0  0  0  0  0  0  0  0
  -29.2110  -23.0530   18.5510 C   0  0  0  0  0  2  0  0  0  0  0  0
  -28.4730  -24.1040   19.3880 C   0  0  0  0  0  2  0  0  0  0  0  0
  -28.2900  -25.4010   18.5910 C   0  0  0  0  0  2  0  0  0  0  0  0
  -28.1380  -26.4760   19.5070 O   0  0  0  0  0  0  0  0  0  0  0  0
  -24.6720  -31.4830   23.1060 C   0  0  0  0  0  0  0  0  0  0  0  0
  -26.9640  -27.1870   19.5840 C   0  0  0  0  0  0  0  0  0  0  0  0
  -23.3440  -30.3100   21.3780 C   0  0  0  0  0  3  0  0  0  0  0  0
  -24.6630  -28.8140   19.7940 C   0  0  0  0  0  0  0  0  0  0  0  0
  -25.8810  -30.5250   21.1530 C   0  0  0  0  0  2  0  0  0  0  0  0
  -25.8590  -29.2140   20.4000 C   0  0  0  0  0  0  0  0  0  0  0  0
  -27.0060  -28.4000   20.3000 C   0  0  0  0  0  3  0  0  0  0  0  0
  -25.7390  -26.7830   19.0010 C   0  0  0  0  0  3  0  0  0  0  0  0
  -24.5950  -27.5960   19.1000 C   0  0  0  0  0  3  0  0  0  0  0  0
  -23.4830  -29.7470   19.9390 C   0  0  0  0  0  2  0  0  0  0  0  0
  -24.6530  -30.7810   21.9390 N   0  0  0  0  0  0  0  0  0  0  0  0
  -23.6240  -31.7720   23.6960 O   0  0  0  0  0  0  0  0  0  0  0  0
  -22.6510  -29.2480   22.2630 C   0  0  0  0  0  0  0  0  0  0  0  0
  -21.3160  -29.1670   22.1620 N   0  0  0  0  0  0  0  0  0  0  0  0
  -23.3120  -28.5060   22.9960 O   0  0  0  0  0  0  0  0  0  0  0  0
  -20.8450  -29.8130   21.5420 H   0  0  0  0  0  0  0  0  0  0  0  0
  -17.8790  -28.1690   22.6490 C   0  0  0  0  0  0  0  0  0  0  0  0
  -20.4540  -28.2190   22.8700 C   0  0  0  0  0  3  0  0  0  0  0  0
  -20.4410  -26.8440   22.1650 C   0  0  0  0  0  2  0  0  0  0  0  0
  -19.2980  -26.6920   21.1590 C   0  0  0  0  0  2  0  0  0  0  0  0
  -17.9440  -26.8780   21.8510 C   0  0  0  0  0  2  0  0  0  0  0  0
  -19.0590  -28.8070   23.1140 C   0  0  0  0  0  0  0  0  0  0  0  0
  -18.9480  -30.0250   23.8200 C   0  0  0  0  0  3  0  0  0  0  0  0
  -17.6900  -30.6030   24.0670 C   0  0  0  0  0  3  0  0  0  0  0  0
  -16.5220  -29.9580   23.6220 C   0  0  0  0  0  3  0  0  0  0  0  0
  -16.6180  -28.7430   22.9190 C   0  0  0  0  0  3  0  0  0  0  0  0
  -26.0130  -31.9730   23.7400 C   0  0  0  0  0  3  0  0  0  0  0  0
  -26.5140  -31.0510   24.9190 C   0  0  1  0  0  0  0  0  0  0  0  0
  -25.4400  -30.7840   25.9990 C   0  0  0  0  0  1  0  0  0  0  0  0
  -26.9940  -29.6860   24.3740 C   0  0  0  0  0  1  0  0  0  0  0  0
  -27.7340  -31.7030   25.6110 C   0  0  0  0  0  1  0  0  0  0  0  0
  -25.8020  -33.3480   24.2090 N   0  0  0  0  0  0  0  0  0  0  0  0
  -26.1860  -34.4440   23.5420 C   0  0  0  0  0  0  0  0  0  0  0  0
  -26.8300  -34.3970   22.4900 O   0  0  0  0  0  0  0  0  0  0  0  0
  -25.2400  -33.4660   25.0410 H   0  0  0  0  0  0  0  0  0  0  0  0
  -24.5730  -36.3610   23.3860 C   0  0  0  0  0  1  0  0  0  0  0  0
  -25.7960  -35.8090   24.1350 C   0  0  0  0  0  3  0  0  0  0  0  0
  -27.9930  -36.4800   25.0020 C   0  0  0  0  0  1  0  0  0  0  0  0
  -26.8910  -36.8030   24.0990 N   0  0  0  0  0  0  0  0  0  0  0  0
  -26.5470  -37.7300   24.3390 H   0  0  0  0  0  0  0  0  0  0  0  0
  -29.6900  -18.5500   18.6780 C   0  0  0  0  0  3  0  0  0  0  0  0
  -27.8760  -18.2070   16.8550 C   0  0  0  0  0  1  0  0  0  0  0  0
  -29.2710  -18.7620   17.1920 C   0  0  0  0  0  2  0  0  0  0  0  0
  -30.0960  -17.0540   18.8890 C   0  0  0  0  0  2  0  0  0  0  0  0
  -30.8070  -16.6340   20.2090 C   0  0  0  0  0  3  0  0  0  0  0  0
  -31.3220  -14.1570   19.9560 C   0  0  0  0  0  0  0  0  0  0  0  0
  -31.0070  -11.8460   19.1430 C   0  0  0  0  0  2  0  0  0  0  0  0
  -30.0510  -11.8650   17.9310 C   0  0  0  0  0  2  0  0  0  0  0  0
  -28.5750  -11.8400   18.3810 C   0  0  0  0  0  2  0  0  0  0  0  0
  -28.2690  -12.8820   19.4900 C   0  0  0  0  0  3  0  0  0  0  0  0
  -29.3200  -12.7830   20.6190 C   0  0  0  0  0  2  0  0  0  0  0  0
  -30.6520  -12.9740   20.0160 N   0  0  0  0  0  0  0  0  0  0  0  0
  -32.4200  -14.2910   19.4080 O   0  0  0  0  0  0  0  0  0  0  0  0
  -30.6090  -15.1960   20.4200 N   0  0  0  0  0  0  0  0  0  0  0  0
  -29.7360  -14.9510   20.8590 H   0  0  0  0  0  0  0  0  0  0  0  0
  -25.9550  -13.7130   20.2570 C   0  0  0  0  0  0  0  0  0  0  0  0
  -24.8310  -13.0440   20.6590 C   0  0  0  0  0  0  0  0  0  0  0  0
  -25.1620  -11.6550   20.6140 C   0  0  0  0  0  0  0  0  0  0  0  0
  -26.9080  -12.7390   20.0020 N   0  0  0  0  0  0  0  0  0  0  0  0
  -26.4340  -11.4950   20.2700 N   0  0  0  0  0  0  0  0  0  0  0  0
  -24.3290  -10.4630   20.8250 C   0  0  0  0  0  0  0  0  0  0  0  0
  -24.6760   -9.4780   21.7750 C   0  0  0  0  0  3  0  0  0  0  0  0
  -23.8490   -8.3510   21.9720 C   0  0  0  0  0  3  0  0  0  0  0  0
  -22.6600   -8.2030   21.2190 C   0  0  0  0  0  0  0  0  0  0  0  0
  -22.3300   -9.1760   20.2600 C   0  0  0  0  0  3  0  0  0  0  0  0
  -23.1560  -10.2950   20.0610 C   0  0  0  0  0  3  0  0  0  0  0  0
  -21.8100   -7.1290   21.3250 O   0  0  0  0  0  0  0  0  0  0  0  0
  -21.6750   -6.4300   22.4980 C   0  0  0  0  0  0  0  0  0  0  0  0
  -21.2650   -7.0570   23.6950 C   0  0  0  0  0  3  0  0  0  0  0  0
  -21.0720   -6.2890   24.8610 C   0  0  0  0  0  3  0  0  0  0  0  0
  -21.2790   -4.8960   24.8300 C   0  0  0  0  0  0  0  0  0  0  0  0
  -21.6810   -4.2700   23.6380 C   0  0  0  0  0  3  0  0  0  0  0  0
  -21.8760   -5.0360   22.4740 C   0  0  0  0  0  0  0  0  0  0  0  0
  -22.2440   -4.4250   21.3220 F   0  0  0  0  0  0  0  0  0  0  0  0
  -21.0860   -4.1570   25.9470 F   0  0  0  0  0  0  0  0  0  0  0  0
  -23.4910  -13.6470   20.9690 C   0  0  0  0  0  0  0  0  0  0  0  0
  -22.7380  -13.0350   21.8760 N   0  0  0  0  0  0  0  0  0  0  0  0
  -23.1230  -14.6970   20.4430 O   0  0  0  0  0  0  0  0  0  0  0  0
  -23.0460  -12.1860   22.3270 H   0  0  0  0  0  0  0  0  0  0  0  0
  -21.8390  -13.4200   22.1250 H   0  0  0  0  0  0  0  0  0  0  0  0
  -26.2410  -15.0610   20.0720 N   0  0  0  0  0  0  0  0  0  0  0  0
  -25.5440  -15.7850   20.2020 H   0  0  0  0  0  0  0  0  0  0  0  0
  -27.1170  -15.4160   19.7130 H   0  0  0  0  0  0  0  0  0  0  0  0
  -28.9170  -16.9040   21.9420 C   0  0  0  0  0  1  0  0  0  0  0  0
  -30.2990  -17.3970   21.4620 C   0  0  0  0  0  3  0  0  0  0  0  0
  -31.0510  -18.3560   23.7410 C   0  0  0  0  0  1  0  0  0  0  0  0
  -31.3280  -17.3480   22.6150 C   0  0  0  0  0  2  0  0  0  0  0  0
  2  1  1  0
  3  2  1  0
  3  4  1  0
  4  6  1  0
  5  4  1  0
  7  4  1  0
  7  8  1  0
  9  8  1  0
  9 10  1  0
 10 12  1  0
 11 22  2  0
 12 17  1  0
 13 21  1  0
 13 23  1  0
 14 20  1  0
 14 16  1  0
 15 21  1  0
 16 15  1  0
 17 16  2  0
 18 19  1  0
 18 12  2  0
 19 14  2  0
 20 13  1  0
 21 11  1  0
 23 25  2  0
 24 23  1  0
 26 24  1  0
 27 36  2  0
 27 32  1  0
 28 24  1  0
 28 32  1  0
 29 28  1  0
 30 31  1  0
 30 29  1  0
 31 27  1  0
 32 33  2  0
 33 34  1  0
 35 34  2  0
 36 35  1  0
 37 11  1  0
 37 42  1  0
 37 38  1  0
 38 41  1  1
 38 39  1  0
 40 38  1  0
 42 45  1  0
 43 47  1  0
 43 42  1  0
 44 43  2  0
 47 46  1  0
 49 47  1  0
 49 50  1  0
 49 48  1  0
 51 53  1  0
 51 54  1  0
 51  2  1  0
 52 53  1  0
 55 54  1  0
 55 64  1  0
 55 95  1  0
 56 62  1  0
 56 64  1  0
 57 62  1  0
 58 59  1  0
 58 57  1  0
 60 59  1  0
 60 69  1  0
 60 61  1  0
 62 61  1  0
 63 56  2  0
 64 65  1  0
 66 67  2  0
 67 86  1  0
 68 67  1  0
 68 71  1  0
 69 66  1  0
 69 70  1  0
 70 68  2  0
 71 72  1  0
 72 73  2  0
 74 77  1  0
 74 73  1  0
 75 74  2  0
 76 75  1  0
 76 71  2  0
 77 78  1  0
 78 79  1  0
 79 80  2  0
 81 80  1  0
 81 85  1  0
 82 81  2  0
 83 78  2  0
 83 82  1  0
 84 83  1  0
 86 87  1  0
 87 90  1  0
 87 89  1  0
 88 86  2  0
 91 92  1  0
 91 66  1  0
 93 91  1  0
 95 94  1  0
 95 97  1  0
 97 96  1  0
M  ISO  4   9 101  10 101  56 100  64 100
M  END
>  <TORSDO>  (16) 
F 27

>  <SCORE>  (16) 
-8.726

>  <name>  (16) 
15

>  <ligand_id>  (16) 
15

>  <original_smiles>  (16) 
[H]c1c([H])c([H])c2c(c1[H])C([H])([H])C([H])([H])C([H])([H])C2([H])N([H])C(=O)C1([H])N(C(=O)C([H])(N([H])C(=O)C([H])(N([H])C([H])([H])[H])C([H])([H])[H])C(C([H])([H])[H])(C([H])([H])[H])C([H])([H])[H])C([H])([H])c2c([H])c(OC([H])([H])C([H])([H])C([H])([H])[N+]([H])([H])C([H])([H])C([H])(C([H])([H])[H])C([H])(C([H])([H])C([H])([H])[H])C([H])([H])C([H])(N([H])C(=O)N3C([H])([H])C([H])([H])C([H])([H])C([H])(n4nc(-c5c([H])c([H])c(Oc6c([H])c([H])c(F)c([H])c6F)c([H])c5[H])c(C(=O)N([H])[H])c4N([H])[H])C3([H])[H])C([H])(C([H])([H])[H])C([H])([H])C([H])([H])[H])c([H])c([H])c2C1([H])[H]

>  <smiles>  (16) 
[H]c1c([H])c([H])c2c(c1[H])C([H])([H])C([H])([H])C([H])([H])C2([H])N([H])C(=O)C1([H])N(C(=O)C([H])(N([H])C(=O)C([H])(N([H])C([H])([H])[H])C([H])([H])[H])C(C([H])([H])[H])(C([H])([H])[H])C([H])([H])[H])C([H])([H])c2c([H])c(OC([H])([H])C([H])([H])C([H])([H])[N+]([H])([H])C([H])([H])C([H])(C([H])([H])[H])C([H])(C([H])([H])C([H])([H])[H])C([H])([H])C([H])(N([H])C(=O)N3C([H])([H])C([H])([H])C([H])([H])C([H])(n4nc(-c5c([H])c([H])c(Oc6c([H])c([H])c(F)c([H])c6F)c([H])c5[H])c(C(=O)N([H])[H])c4N([H])[H])C3([H])[H])C([H])(C([H])([H])[H])C([H])([H])C([H])([H])[H])c([H])c([H])c2C1([H])[H]

$$$$
16:0:0
     RDKit          3D

 98105  0  0  1  0  0  0  0  0999 V2000
  -33.1250  -22.3050   17.8680 C   0  0  0  0  0  3  0  0  0  0  0  0
  -32.9390  -22.2320   16.4040 N   0  0  0  0  0  4  0  0  0  0  0  0
  -31.9770  -22.1040   16.1490 H   0  0  0  0  0  0  0  0  0  0  0  0
  -33.4760  -21.4700   16.0300 H   0  0  0  0  0  0  0  0  0  0  0  0
  -33.2740  -23.0730   15.9650 H   0  0  0  0  0  0  0  0  0  0  0  0
  -32.4510  -23.5610   18.4780 C   0  0  0  0  0  2  0  0  0  0  0  0
  -33.1930  -24.1110   19.7260 C   0  0  0  0  0  2  0  0  0  0  0  0
  -34.3520  -25.0990   19.4350 C   0  0  0  0  0  3  0  0  0  0  0  0
  -35.6450  -24.3510   19.0500 C   0  0  0  0  0  0  0  0  0  0  0  0
  -36.5570  -25.0030   18.3380 N   0  0  0  0  0  0  0  0  0  0  0  0
  -35.8190  -23.1800   19.3840 O   0  0  0  0  0  0  0  0  0  0  0  0
  -36.4230  -25.9590   18.0270 H   0  0  0  0  0  0  0  0  0  0  0  0
  -37.4160  -24.5380   18.0820 H   0  0  0  0  0  0  0  0  0  0  0  0
  -34.5910  -26.0270   20.6580 C   0  0  0  0  0  2  0  0  0  0  0  0
  -34.1310  -28.4890   20.5850 C   0  0  0  0  0  0  0  0  0  0  0  0
  -33.4060  -30.7830   21.1100 C   0  0  0  0  0  2  0  0  0  0  0  0
  -33.3520  -30.9630   22.6410 C   0  0  0  0  0  2  0  0  0  0  0  0
  -32.0010  -30.4800   23.2130 C   0  0  0  0  0  2  0  0  0  0  0  0
  -31.5880  -29.0800   22.6890 C   0  0  0  0  0  3  0  0  0  0  0  0
  -31.7380  -29.0160   21.1530 C   0  0  0  0  0  2  0  0  0  0  0  0
  -33.1310  -29.3730   20.8150 N   0  0  0  0  0  0  0  0  0  0  0  0
  -35.3150  -28.8090   20.4240 O   0  0  0  0  0  0  0  0  0  0  0  0
  -33.7410  -27.2130   20.6200 N   0  0  0  0  0  0  0  0  0  0  0  0
  -32.7430  -27.0700   20.7060 H   0  0  0  0  0  0  0  0  0  0  0  0
  -29.8280  -27.9330   24.1780 C   0  0  0  0  0  0  0  0  0  0  0  0
  -28.4590  -27.9810   24.1810 C   0  0  0  0  0  0  0  0  0  0  0  0
  -28.0930  -28.8380   23.0970 C   0  0  0  0  0  0  0  0  0  0  0  0
  -30.2360  -28.7300   23.1190 N   0  0  0  0  0  0  0  0  0  0  0  0
  -29.1750  -29.2360   22.4390 N   0  0  0  0  0  0  0  0  0  0  0  0
  -26.7780  -29.3480   22.6840 C   0  0  0  0  0  0  0  0  0  0  0  0
  -25.9330  -28.6010   21.8350 C   0  0  0  0  0  3  0  0  0  0  0  0
  -24.6680  -29.1020   21.4610 C   0  0  0  0  0  3  0  0  0  0  0  0
  -24.2340  -30.3610   21.9400 C   0  0  0  0  0  0  0  0  0  0  0  0
  -25.0890  -31.1120   22.7650 C   0  0  0  0  0  3  0  0  0  0  0  0
  -26.3510  -30.6140   23.1330 C   0  0  0  0  0  3  0  0  0  0  0  0
  -23.0310  -30.9380   21.6120 O   0  0  0  0  0  0  0  0  0  0  0  0
  -21.8460  -30.4780   22.1290 C   0  0  0  0  0  0  0  0  0  0  0  0
  -21.4280  -30.8080   23.4380 C   0  0  0  0  0  3  0  0  0  0  0  0
  -20.1720  -30.3740   23.9060 C   0  0  0  0  0  3  0  0  0  0  0  0
  -19.3290  -29.6210   23.0670 C   0  0  0  0  0  0  0  0  0  0  0  0
  -19.7400  -29.2960   21.7630 C   0  0  0  0  0  3  0  0  0  0  0  0
  -20.9940  -29.7250   21.2950 C   0  0  0  0  0  0  0  0  0  0  0  0
  -21.3760  -29.4290   20.0300 F   0  0  0  0  0  0  0  0  0  0  0  0
  -18.1170  -29.2110   23.5130 F   0  0  0  0  0  0  0  0  0  0  0  0
  -27.5400  -27.3510   25.1910 C   0  0  0  0  0  0  0  0  0  0  0  0
  -26.3310  -26.9880   24.7790 N   0  0  0  0  0  0  0  0  0  0  0  0
  -27.9130  -27.1290   26.3420 O   0  0  0  0  0  0  0  0  0  0  0  0
  -26.0280  -27.1390   23.8270 H   0  0  0  0  0  0  0  0  0  0  0  0
  -25.6980  -26.5370   25.4240 H   0  0  0  0  0  0  0  0  0  0  0  0
  -30.7600  -27.2950   24.9940 N   0  0  0  0  0  0  0  0  0  0  0  0
  -30.4340  -26.8910   25.8660 H   0  0  0  0  0  0  0  0  0  0  0  0
  -31.7030  -27.6570   25.0630 H   0  0  0  0  0  0  0  0  0  0  0  0
  -32.7430  -20.9690   18.5600 C   0  0  0  0  0  2  0  0  0  0  0  0
  -31.8230  -20.0420   17.7300 C   0  0  0  0  0  2  0  0  0  0  0  0
  -30.7570  -17.8770   18.6020 C   0  0  0  0  0  1  0  0  0  0  0  0
  -32.0110  -18.5250   17.9890 C   0  0  0  0  0  3  0  0  0  0  0  0
  -32.4510  -17.8180   16.6850 C   0  0  0  0  0  2  0  0  0  0  0  0
  -33.4270  -16.7980   16.9300 O   0  0  0  0  0  0  0  0  0  0  0  0
  -39.4270  -14.6590   20.0790 C   0  0  0  0  0  0  0  0  0  0  0  0
  -34.6730  -17.1850   17.3900 C   0  0  0  0  0  0  0  0  0  0  0  0
  -39.1370  -17.1070   19.8840 C   0  0  0  0  0  3  0  0  0  0  0  0
  -37.2360  -17.8820   18.3720 C   0  0  0  0  0  0  0  0  0  0  0  0
  -38.0550  -15.5270   18.1910 C   0  0  0  0  0  2  0  0  0  0  0  0
  -36.9550  -16.5530   18.0270 C   0  0  0  0  0  0  0  0  0  0  0  0
  -35.6770  -16.2000   17.5390 C   0  0  0  0  0  3  0  0  0  0  0  0
  -34.9950  -18.5280   17.7070 C   0  0  0  0  0  3  0  0  0  0  0  0
  -36.2590  -18.8750   18.2130 C   0  0  0  0  0  3  0  0  0  0  0  0
  -38.6260  -18.1800   18.8850 C   0  0  0  0  0  2  0  0  0  0  0  0
  -38.8680  -15.7100   19.4160 N   0  0  0  0  0  0  0  0  0  0  0  0
  -40.1880  -14.8410   21.0410 O   0  0  0  0  0  0  0  0  0  0  0  0
  -38.5420  -17.4100   21.2780 C   0  0  0  0  0  0  0  0  0  0  0  0
  -39.2080  -18.2980   22.0340 N   0  0  0  0  0  0  0  0  0  0  0  0
  -37.4940  -16.8730   21.6480 O   0  0  0  0  0  0  0  0  0  0  0  0
  -40.0630  -18.6850   21.6630 H   0  0  0  0  0  0  0  0  0  0  0  0
  -40.3220  -20.1860   24.9040 C   0  0  0  0  0  0  0  0  0  0  0  0
  -38.8120  -18.7640   23.3620 C   0  0  0  0  0  3  0  0  0  0  0  0
  -37.9060  -20.0120   23.2680 C   0  0  0  0  0  2  0  0  0  0  0  0
  -38.6810  -21.3310   23.3550 C   0  0  0  0  0  2  0  0  0  0  0  0
  -39.4560  -21.4120   24.6730 C   0  0  0  0  0  2  0  0  0  0  0  0
  -40.0300  -18.9460   24.2770 C   0  0  0  0  0  0  0  0  0  0  0  0
  -40.8870  -17.8460   24.4970 C   0  0  0  0  0  3  0  0  0  0  0  0
  -42.0150  -17.9680   25.3290 C   0  0  0  0  0  3  0  0  0  0  0  0
  -42.2930  -19.1940   25.9590 C   0  0  0  0  0  3  0  0  0  0  0  0
  -41.4450  -20.2970   25.7510 C   0  0  0  0  0  3  0  0  0  0  0  0
  -39.1610  -13.1830   19.6510 C   0  0  0  0  0  3  0  0  0  0  0  0
  -38.6200  -12.2790   20.8280 C   0  0  1  0  0  0  0  0  0  0  0  0
  -39.4760  -12.3560   22.1110 C   0  0  0  0  0  1  0  0  0  0  0  0
  -37.1730  -12.6770   21.1990 C   0  0  0  0  0  1  0  0  0  0  0  0
  -38.5720  -10.8000   20.3750 C   0  0  0  0  0  1  0  0  0  0  0  0
  -40.4180  -12.6430   19.1140 N   0  0  0  0  0  0  0  0  0  0  0  0
  -40.7130  -12.5580   17.8110 C   0  0  0  0  0  0  0  0  0  0  0  0
  -39.9140  -12.8650   16.9190 O   0  0  0  0  0  0  0  0  0  0  0  0
  -41.1360  -12.4130   19.7860 H   0  0  0  0  0  0  0  0  0  0  0  0
  -43.0140  -13.2480   17.0700 C   0  0  0  0  0  1  0  0  0  0  0  0
  -42.1190  -12.0510   17.4330 C   0  0  0  0  0  3  0  0  0  0  0  0
  -41.5530   -9.7790   16.6970 C   0  0  0  0  0  1  0  0  0  0  0  0
  -42.1160  -11.0760   16.3230 N   0  0  0  0  0  0  0  0  0  0  0  0
  -43.0600  -10.9250   15.9730 H   0  0  0  0  0  0  0  0  0  0  0  0
  1  6  1  0
  1 53  1  0
  2  1  1  0
  3  2  1  0
  4  2  1  0
  5  2  1  0
  6  7  1  0
  8  7  1  0
  8 14  1  0
  9 11  2  0
  9  8  1  0
 10  9  1  0
 12 10  1  0
 13 10  1  0
 15 23  1  0
 15 21  1  0
 16 17  1  0
 17 18  1  0
 19 20  1  0
 19 28  1  0
 19 18  1  0
 21 16  1  0
 21 20  1  0
 22 15  2  0
 23 14  1  0
 23 24  1  0
 25 26  2  0
 25 50  1  0
 26 45  1  0
 27 26  1  0
 28 25  1  0
 29 27  2  0
 29 28  1  0
 30 27  1  0
 30 35  1  0
 31 30  2  0
 32 31  1  0
 32 33  2  0
 33 34  1  0
 34 35  2  0
 36 33  1  0
 36 37  1  0
 37 38  1  0
 38 39  2  0
 40 44  1  0
 40 39  1  0
 41 40  2  0
 42 41  1  0
 42 37  2  0
 43 42  1  0
 45 47  2  0
 46 45  1  0
 46 49  1  0
 48 46  1  0
 50 52  1  0
 50 51  1  0
 54 56  1  0
 54 53  1  0
 56 55  1  0
 57 58  1  0
 57 56  1  0
 58 60  1  0
 59 70  2  0
 60 65  2  0
 60 66  1  0
 61 71  1  0
 62 68  1  0
 63 69  1  0
 64 63  1  0
 64 62  2  0
 65 64  1  0
 66 67  2  0
 67 62  1  0
 68 61  1  0
 69 61  1  0
 69 59  1  0
 71 73  2  0
 71 72  1  0
 74 72  1  0
 75 84  1  0
 76 72  1  0
 76 80  1  0
 77 78  1  0
 77 76  1  0
 78 79  1  0
 79 75  1  0
 80 81  1  0
 80 75  2  0
 81 82  2  0
 82 83  1  0
 84 83  2  0
 85 59  1  0
 85 86  1  0
 86 88  1  1
 86 87  1  0
 89 86  1  0
 90 85  1  0
 90 93  1  0
 91 90  1  0
 92 91  2  0
 95 94  1  0
 95 91  1  0
 97 96  1  0
 97 95  1  0
 98 97  1  0
M  ISO  4  15 100  23 100  57 101  58 101
M  END
>  <TORSDO>  (17) 
F 26

>  <SCORE>  (17) 
6.671

>  <name>  (17) 
16

>  <ligand_id>  (17) 
16

>  <original_smiles>  (17) 
[H]c1c([H])c([H])c2c(c1[H])C([H])([H])C([H])([H])C([H])([H])C2([H])N([H])C(=O)C1([H])N(C(=O)C([H])(N([H])C(=O)C([H])(N([H])C([H])([H])[H])C([H])([H])[H])C(C([H])([H])[H])(C([H])([H])[H])C([H])([H])[H])C([H])([H])c2c([H])c(OC([H])([H])C([H])(C([H])([H])[H])C([H])([H])C([H])([H])C([H])(C([H])([H])C([H])([H])C([H])(C(=O)N([H])[H])C([H])([H])N([H])C(=O)N3C([H])([H])C([H])([H])C([H])([H])C([H])(n4nc(-c5c([H])c([H])c(Oc6c([H])c([H])c(F)c([H])c6F)c([H])c5[H])c(C(=O)N([H])[H])c4N([H])[H])C3([H])[H])[N+]([H])([H])[H])c([H])c([H])c2C1([H])[H]

>  <smiles>  (17) 
[H]c1c([H])c([H])c2c(c1[H])C([H])([H])C([H])([H])C([H])([H])C2([H])N([H])C(=O)C1([H])N(C(=O)C([H])(N([H])C(=O)C([H])(N([H])C([H])([H])[H])C([H])([H])[H])C(C([H])([H])[H])(C([H])([H])[H])C([H])([H])[H])C([H])([H])c2c([H])c(OC([H])([H])C([H])(C([H])([H])[H])C([H])([H])C([H])([H])C([H])(C([H])([H])C([H])([H])C([H])(C(=O)N([H])[H])C([H])([H])N([H])C(=O)N3C([H])([H])C([H])([H])C([H])([H])C([H])(n4nc(-c5c([H])c([H])c(Oc6c([H])c([H])c(F)c([H])c6F)c([H])c5[H])c(C(=O)N([H])[H])c4N([H])[H])C3([H])[H])[N+]([H])([H])[H])c([H])c([H])c2C1([H])[H]

$$$$
17:0:0
     RDKit          3D

 93100  0  0  1  0  0  0  0  0999 V2000
  -29.5030  -20.7440   19.9710 C   0  0  0  0  0  2  0  0  0  0  0  0
  -28.7230  -22.0100   20.5150 N   0  0  0  0  0  4  0  0  0  0  0  0
  -27.7440  -21.7960   20.4100 H   0  0  0  0  0  0  0  0  0  0  0  0
  -28.8930  -22.0580   21.5070 H   0  0  0  0  0  0  0  0  0  0  0  0
  -28.9410  -23.4760   19.9320 C   0  0  0  0  0  3  0  0  0  0  0  0
  -27.9940  -24.8030   20.3580 C   0  0  0  0  0  3  0  0  0  0  0  0
  -28.2330  -26.3100   20.0230 O   0  0  0  0  0  0  0  0  0  0  0  0
  -24.6020  -31.9020   23.1810 C   0  0  0  0  0  0  0  0  0  0  0  0
  -27.1640  -27.2750   20.0290 C   0  0  0  0  0  0  0  0  0  0  0  0
  -23.3910  -30.5350   21.5240 C   0  0  0  0  0  3  0  0  0  0  0  0
  -24.8300  -29.0040   20.0500 C   0  0  0  0  0  0  0  0  0  0  0  0
  -25.9410  -30.8220   21.3370 C   0  0  0  0  0  2  0  0  0  0  0  0
  -26.0130  -29.4450   20.6580 C   0  0  0  0  0  0  0  0  0  0  0  0
  -27.1820  -28.5970   20.6280 C   0  0  0  0  0  3  0  0  0  0  0  0
  -25.9590  -26.9400   19.3740 C   0  0  0  0  0  3  0  0  0  0  0  0
  -24.8160  -27.7670   19.3910 C   0  0  0  0  0  3  0  0  0  0  0  0
  -23.6000  -29.8920   20.1280 C   0  0  0  0  0  2  0  0  0  0  0  0
  -24.6650  -31.1070   22.0690 N   0  0  0  0  0  0  0  0  0  0  0  0
  -23.5190  -32.1680   23.7260 O   0  0  0  0  0  0  0  0  0  0  0  0
  -22.7300  -29.5020   22.4710 C   0  0  0  0  0  0  0  0  0  0  0  0
  -21.4020  -29.3230   22.3510 N   0  0  0  0  0  0  0  0  0  0  0  0
  -23.4140  -28.8670   23.2770 O   0  0  0  0  0  0  0  0  0  0  0  0
  -20.9090  -29.8840   21.6710 H   0  0  0  0  0  0  0  0  0  0  0  0
  -18.0300  -28.1100   22.8790 C   0  0  0  0  0  0  0  0  0  0  0  0
  -20.5940  -28.3640   23.1100 C   0  0  0  0  0  3  0  0  0  0  0  0
  -20.6850  -26.9490   22.4930 C   0  0  0  0  0  2  0  0  0  0  0  0
  -19.5660  -26.6540   21.4910 C   0  0  0  0  0  2  0  0  0  0  0  0
  -18.1950  -26.7810   22.1620 C   0  0  0  0  0  2  0  0  0  0  0  0
  -19.1560  -28.8610   23.3090 C   0  0  0  0  0  0  0  0  0  0  0  0
  -18.9460  -30.1050   23.9430 C   0  0  0  0  0  3  0  0  0  0  0  0
  -17.6440  -30.5980   24.1480 C   0  0  0  0  0  3  0  0  0  0  0  0
  -16.5320  -29.8440   23.7320 C   0  0  0  0  0  3  0  0  0  0  0  0
  -16.7270  -28.6020   23.1020 C   0  0  0  0  0  3  0  0  0  0  0  0
  -25.8830  -32.5310   23.8070 C   0  0  0  0  0  3  0  0  0  0  0  0
  -25.5780  -33.9310   24.1420 N   0  0  0  0  0  0  0  0  0  0  0  0
  -25.9200  -34.9880   23.3910 C   0  0  0  0  0  0  0  0  0  0  0  0
  -26.5920  -34.8860   22.3620 O   0  0  0  0  0  0  0  0  0  0  0  0
  -24.9810  -34.0860   24.9410 H   0  0  0  0  0  0  0  0  0  0  0  0
  -24.2090  -36.8000   23.0390 C   0  0  0  0  0  1  0  0  0  0  0  0
  -25.4400  -36.3770   23.8560 C   0  0  0  0  0  3  0  0  0  0  0  0
  -27.5690  -37.2450   24.7200 C   0  0  0  0  0  1  0  0  0  0  0  0
  -26.4830  -37.4230   23.7600 N   0  0  0  0  0  0  0  0  0  0  0  0
  -26.0820  -38.3460   23.9010 H   0  0  0  0  0  0  0  0  0  0  0  0
  -26.3900  -31.7590   25.0880 C   0  0  1  0  0  0  0  0  0  0  0  0
  -25.2900  -31.5300   26.1510 C   0  0  0  0  0  1  0  0  0  0  0  0
  -26.9660  -30.3770   24.7040 C   0  0  0  0  0  1  0  0  0  0  0  0
  -27.5440  -32.5470   25.7500 C   0  0  0  0  0  1  0  0  0  0  0  0
  -27.9400  -18.7090   20.6710 C   0  0  0  0  0  1  0  0  0  0  0  0
  -29.4120  -19.1590   20.5950 C   0  0  0  0  0  3  0  0  0  0  0  0
  -30.4090  -17.8420   20.1340 C   0  0  0  0  0  3  0  0  0  0  0  0
  -30.9370  -15.1540   20.5460 C   0  0  0  0  0  0  0  0  0  0  0  0
  -30.7880  -12.8440   19.5230 C   0  0  0  0  0  2  0  0  0  0  0  0
  -29.9000  -12.8610   18.2560 C   0  0  0  0  0  2  0  0  0  0  0  0
  -28.4110  -12.7170   18.6240 C   0  0  0  0  0  2  0  0  0  0  0  0
  -27.9950  -13.5980   19.8330 C   0  0  0  0  0  3  0  0  0  0  0  0
  -29.0090  -13.5230   20.9930 C   0  0  0  0  0  2  0  0  0  0  0  0
  -30.3120  -13.9150   20.4450 N   0  0  0  0  0  0  0  0  0  0  0  0
  -32.1500  -15.1940   20.3130 O   0  0  0  0  0  0  0  0  0  0  0  0
  -30.1680  -16.3520   20.6390 N   0  0  0  0  0  0  0  0  0  0  0  0
  -29.2050  -16.1710   20.8800 H   0  0  0  0  0  0  0  0  0  0  0  0
  -25.5940  -14.2050   20.4820 C   0  0  0  0  0  0  0  0  0  0  0  0
  -24.5050  -13.4400   20.7990 C   0  0  0  0  0  0  0  0  0  0  0  0
  -24.9530  -12.0840   20.7740 C   0  0  0  0  0  0  0  0  0  0  0  0
  -26.6340  -13.3150   20.2750 N   0  0  0  0  0  0  0  0  0  0  0  0
  -26.2550  -12.0340   20.5180 N   0  0  0  0  0  0  0  0  0  0  0  0
  -24.2030  -10.8290   20.9180 C   0  0  0  0  0  0  0  0  0  0  0  0
  -24.5910   -9.8380   21.8480 C   0  0  0  0  0  3  0  0  0  0  0  0
  -23.8410   -8.6510   21.9830 C   0  0  0  0  0  3  0  0  0  0  0  0
  -22.6880   -8.4450   21.1880 C   0  0  0  0  0  0  0  0  0  0  0  0
  -22.3200   -9.4230   20.2480 C   0  0  0  0  0  3  0  0  0  0  0  0
  -23.0700  -10.6030   20.1110 C   0  0  0  0  0  3  0  0  0  0  0  0
  -21.9140   -7.3110   21.2320 O   0  0  0  0  0  0  0  0  0  0  0  0
  -21.7960   -6.5640   22.3770 C   0  0  0  0  0  0  0  0  0  0  0  0
  -21.2730   -7.1080   23.5710 C   0  0  0  0  0  3  0  0  0  0  0  0
  -21.1050   -6.2860   24.7040 C   0  0  0  0  0  3  0  0  0  0  0  0
  -21.4470   -4.9220   24.6420 C   0  0  0  0  0  0  0  0  0  0  0  0
  -21.9620   -4.3790   23.4520 C   0  0  0  0  0  3  0  0  0  0  0  0
  -22.1320   -5.1960   22.3220 C   0  0  0  0  0  0  0  0  0  0  0  0
  -22.6080   -4.6620   21.1720 F   0  0  0  0  0  0  0  0  0  0  0  0
  -21.2780   -4.1310   25.7270 F   0  0  0  0  0  0  0  0  0  0  0  0
  -23.1040  -13.9330   21.0140 C   0  0  0  0  0  0  0  0  0  0  0  0
  -22.3410  -13.2570   21.8630 N   0  0  0  0  0  0  0  0  0  0  0  0
  -22.6950  -14.9560   20.4640 O   0  0  0  0  0  0  0  0  0  0  0  0
  -22.6850  -12.4290   22.3290 H   0  0  0  0  0  0  0  0  0  0  0  0
  -21.3980  -13.5690   22.0510 H   0  0  0  0  0  0  0  0  0  0  0  0
  -25.7800  -15.5740   20.3240 N   0  0  0  0  0  0  0  0  0  0  0  0
  -25.0100  -16.2290   20.4070 H   0  0  0  0  0  0  0  0  0  0  0  0
  -26.6300  -16.0070   19.9920 H   0  0  0  0  0  0  0  0  0  0  0  0
  -31.3130  -16.5060   18.0400 C   0  0  0  0  0  1  0  0  0  0  0  0
  -29.3450  -17.8960   17.7810 C   0  0  0  0  0  1  0  0  0  0  0  0
  -30.6780  -17.8170   18.5600 C   0  0  1  0  0  0  0  0  0  0  0  0
  -33.1020  -18.8530   18.4910 C   0  0  0  0  0  1  0  0  0  0  0  0
  -31.6200  -18.9680   18.0900 C   0  0  0  0  0  2  0  0  0  0  0  0
  1  2  1  0
  1 49  1  0
  2  4  1  0
  3  2  1  0
  5  6  2  0
  5  2  1  0
  7  9  1  0
  7  6  1  0
  8 19  2  0
  9 14  1  0
 10 18  1  0
 10 20  1  0
 11 17  1  0
 11 13  1  0
 12 18  1  0
 13 12  1  0
 14 13  2  0
 15 16  1  0
 15  9  2  0
 16 11  2  0
 17 10  1  0
 18  8  1  0
 20 22  2  0
 21 20  1  0
 23 21  1  0
 24 33  2  0
 24 29  1  0
 25 21  1  0
 25 29  1  0
 26 25  1  0
 27 28  1  0
 27 26  1  0
 28 24  1  0
 29 30  2  0
 30 31  1  0
 32 31  2  0
 33 32  1  0
 34  8  1  0
 34 35  1  0
 34 44  1  0
 35 38  1  0
 36 40  1  0
 36 35  1  0
 37 36  2  0
 40 39  1  0
 42 40  1  0
 42 43  1  0
 42 41  1  0
 44 47  1  1
 44 45  1  0
 46 44  1  0
 49 48  1  0
 50 91  1  0
 50 49  1  0
 50 59  1  0
 51 59  1  0
 52 57  1  0
 53 54  1  0
 53 52  1  0
 55 54  1  0
 55 64  1  0
 55 56  1  0
 57 51  1  0
 57 56  1  0
 58 51  2  0
 59 60  1  0
 61 62  2  0
 62 81  1  0
 63 62  1  0
 63 66  1  0
 64 61  1  0
 64 65  1  0
 65 63  2  0
 66 67  1  0
 67 68  2  0
 69 72  1  0
 69 68  1  0
 70 69  2  0
 71 70  1  0
 71 66  2  0
 72 73  1  0
 73 74  1  0
 74 75  2  0
 76 75  1  0
 76 80  1  0
 77 76  2  0
 78 73  2  0
 78 77  1  0
 79 78  1  0
 81 82  1  0
 82 85  1  0
 82 84  1  0
 83 81  2  0
 86 87  1  0
 86 61  1  0
 88 86  1  0
 91 89  1  1
 90 91  1  0
 93 92  1  0
 93 91  1  0
M  ISO  4   6 101   7 101  51 100  59 100
M  END
>  <TORSDO>  (18) 
F 23

>  <SCORE>  (18) 
-12.958

>  <name>  (18) 
17

>  <ligand_id>  (18) 
17

>  <original_smiles>  (18) 
[H]c1c([H])c([H])c2c(c1[H])C([H])([H])C([H])([H])C([H])([H])C2([H])N([H])C(=O)C1([H])N(C(=O)C([H])(N([H])C(=O)C([H])(N([H])C([H])([H])[H])C([H])([H])[H])C(C([H])([H])[H])(C([H])([H])[H])C([H])([H])[H])C([H])([H])c2c([H])c(OC([H])([H])C([H])([H])[N+]([H])([H])C([H])([H])C([H])(C([H])([H])[H])C([H])(N([H])C(=O)N3C([H])([H])C([H])([H])C([H])([H])C([H])(n4nc(-c5c([H])c([H])c(Oc6c([H])c([H])c(F)c([H])c6F)c([H])c5[H])c(C(=O)N([H])[H])c4N([H])[H])C3([H])[H])C(C([H])([H])[H])(C([H])([H])[H])C([H])([H])C([H])([H])[H])c([H])c([H])c2C1([H])[H]

>  <smiles>  (18) 
[H]c1c([H])c([H])c2c(c1[H])C([H])([H])C([H])([H])C([H])([H])C2([H])N([H])C(=O)C1([H])N(C(=O)C([H])(N([H])C(=O)C([H])(N([H])C([H])([H])[H])C([H])([H])[H])C(C([H])([H])[H])(C([H])([H])[H])C([H])([H])[H])C([H])([H])c2c([H])c(OC([H])([H])C([H])([H])[N+]([H])([H])C([H])([H])C([H])(C([H])([H])[H])C([H])(N([H])C(=O)N3C([H])([H])C([H])([H])C([H])([H])C([H])(n4nc(-c5c([H])c([H])c(Oc6c([H])c([H])c(F)c([H])c6F)c([H])c5[H])c(C(=O)N([H])[H])c4N([H])[H])C3([H])[H])C(C([H])([H])[H])(C([H])([H])[H])C([H])([H])C([H])([H])[H])c([H])c([H])c2C1([H])[H]

$$$$
18:0:0
     RDKit          3D

 96103  0  0  1  0  0  0  0  0999 V2000
  -27.9610  -18.5370   23.1980 C   0  0  0  0  0  2  0  0  0  0  0  0
  -28.2730  -17.1020   22.9980 N   0  0  0  0  0  4  0  0  0  0  0  0
  -29.0810  -17.0480   22.4010 H   0  0  0  0  0  0  0  0  0  0  0  0
  -27.5080  -16.6530   22.5170 H   0  0  0  0  0  0  0  0  0  0  0  0
  -27.3440  -16.3080   25.1740 C   0  0  0  0  0  1  0  0  0  0  0  0
  -28.5870  -16.3820   24.2610 C   0  0  0  0  0  3  0  0  0  0  0  0
  -29.1590  -14.9590   24.0380 C   0  0  0  0  0  2  0  0  0  0  0  0
  -30.5170  -14.8260   23.2740 C   0  0  0  0  0  3  0  0  0  0  0  0
  -30.7900  -14.3260   20.7630 C   0  0  0  0  0  0  0  0  0  0  0  0
  -30.4160  -12.2950   19.4060 C   0  0  0  0  0  2  0  0  0  0  0  0
  -29.4900  -12.5200   18.1950 C   0  0  0  0  0  2  0  0  0  0  0  0
  -28.0130  -12.3600   18.6000 C   0  0  0  0  0  2  0  0  0  0  0  0
  -27.6590  -13.1970   19.8510 C   0  0  0  0  0  3  0  0  0  0  0  0
  -28.6840  -12.9530   20.9710 C   0  0  0  0  0  2  0  0  0  0  0  0
  -30.0390  -13.2310   20.4750 N   0  0  0  0  0  0  0  0  0  0  0  0
  -31.7460  -14.6780   20.0670 O   0  0  0  0  0  0  0  0  0  0  0  0
  -30.4310  -15.0880   21.8150 N   0  0  0  0  0  0  0  0  0  0  0  0
  -30.8440  -15.9900   21.6290 H   0  0  0  0  0  0  0  0  0  0  0  0
  -25.2610  -13.8160   20.5650 C   0  0  0  0  0  0  0  0  0  0  0  0
  -24.1860  -13.0450   20.9200 C   0  0  0  0  0  0  0  0  0  0  0  0
  -24.6390  -11.6900   20.8700 C   0  0  0  0  0  0  0  0  0  0  0  0
  -26.2980  -12.9290   20.3170 N   0  0  0  0  0  0  0  0  0  0  0  0
  -25.9280  -11.6460   20.5650 N   0  0  0  0  0  0  0  0  0  0  0  0
  -23.9050  -10.4290   21.0370 C   0  0  0  0  0  0  0  0  0  0  0  0
  -24.3630   -9.4200   21.9120 C   0  0  0  0  0  3  0  0  0  0  0  0
  -23.6300   -8.2240   22.0710 C   0  0  0  0  0  3  0  0  0  0  0  0
  -22.4260   -8.0290   21.3540 C   0  0  0  0  0  0  0  0  0  0  0  0
  -21.9880   -9.0270   20.4660 C   0  0  0  0  0  3  0  0  0  0  0  0
  -22.7200  -10.2140   20.3050 C   0  0  0  0  0  3  0  0  0  0  0  0
  -21.6640   -6.8880   21.4230 O   0  0  0  0  0  0  0  0  0  0  0  0
  -21.6850   -6.0750   22.5270 C   0  0  0  0  0  0  0  0  0  0  0  0
  -21.4010   -6.5670   23.8200 C   0  0  0  0  0  3  0  0  0  0  0  0
  -21.3650   -5.6840   24.9170 C   0  0  0  0  0  3  0  0  0  0  0  0
  -21.6030   -4.3100   24.7230 C   0  0  0  0  0  0  0  0  0  0  0  0
  -21.8820   -3.8180   23.4360 C   0  0  0  0  0  3  0  0  0  0  0  0
  -21.9190   -4.6980   22.3410 C   0  0  0  0  0  0  0  0  0  0  0  0
  -22.1660   -4.2160   21.0990 F   0  0  0  0  0  0  0  0  0  0  0  0
  -21.5610   -3.4590   25.7760 F   0  0  0  0  0  0  0  0  0  0  0  0
  -22.7880  -13.5260   21.1860 C   0  0  0  0  0  0  0  0  0  0  0  0
  -22.0500  -12.8280   22.0420 N   0  0  0  0  0  0  0  0  0  0  0  0
  -22.3580  -14.5540   20.6650 O   0  0  0  0  0  0  0  0  0  0  0  0
  -22.4140  -12.0040   22.4960 H   0  0  0  0  0  0  0  0  0  0  0  0
  -21.1080  -13.1240   22.2520 H   0  0  0  0  0  0  0  0  0  0  0  0
  -25.4400  -15.1880   20.4070 N   0  0  0  0  0  0  0  0  0  0  0  0
  -24.6500  -15.8230   20.4530 H   0  0  0  0  0  0  0  0  0  0  0  0
  -26.2330  -15.5800   19.9150 H   0  0  0  0  0  0  0  0  0  0  0  0
  -30.6780  -12.2180   23.5660 C   0  0  0  0  0  1  0  0  0  0  0  0
  -32.8010  -13.5660   23.2440 C   0  0  0  0  0  1  0  0  0  0  0  0
  -31.3480  -13.5900   23.7500 C   0  0  0  0  0  3  0  0  0  0  0  0
  -28.1030  -19.3970   21.9270 C   0  0  0  0  0  2  0  0  0  0  0  0
  -27.9990  -20.8900   22.2850 C   0  0  0  0  0  2  0  0  0  0  0  0
  -28.1710  -21.8560   21.1040 C   0  0  0  0  0  2  0  0  0  0  0  0
  -28.2540  -23.3080   21.6070 C   0  0  0  0  0  2  0  0  0  0  0  0
  -28.3300  -24.3630   20.4950 C   0  0  0  0  0  2  0  0  0  0  0  0
  -28.4840  -25.7770   21.0780 C   0  0  0  0  0  2  0  0  0  0  0  0
  -28.4010  -26.7600   20.0530 O   0  0  0  0  0  0  0  0  0  0  0  0
  -24.6090  -31.8710   23.2140 C   0  0  0  0  0  0  0  0  0  0  0  0
  -27.2360  -27.4800   20.0810 C   0  0  0  0  0  0  0  0  0  0  0  0
  -23.3940  -30.4930   21.5550 C   0  0  0  0  0  3  0  0  0  0  0  0
  -24.8410  -28.9620   20.1180 C   0  0  0  0  0  0  0  0  0  0  0  0
  -25.9180  -30.8480   21.3610 C   0  0  0  0  0  2  0  0  0  0  0  0
  -25.9980  -29.4850   20.7120 C   0  0  0  0  0  0  0  0  0  0  0  0
  -27.2010  -28.7480   20.6950 C   0  0  0  0  0  3  0  0  0  0  0  0
  -26.0690  -26.9580   19.4880 C   0  0  0  0  0  3  0  0  0  0  0  0
  -24.8680  -27.6940   19.5090 C   0  0  0  0  0  3  0  0  0  0  0  0
  -23.6000  -29.8240   20.1690 C   0  0  0  0  0  2  0  0  0  0  0  0
  -24.6580  -31.0840   22.1030 N   0  0  0  0  0  0  0  0  0  0  0  0
  -23.5300  -32.1450   23.7560 O   0  0  0  0  0  0  0  0  0  0  0  0
  -22.7370  -29.4650   22.5030 C   0  0  0  0  0  0  0  0  0  0  0  0
  -21.4110  -29.3010   22.3780 N   0  0  0  0  0  0  0  0  0  0  0  0
  -23.4170  -28.8190   23.3050 O   0  0  0  0  0  0  0  0  0  0  0  0
  -20.9250  -29.8780   21.7050 H   0  0  0  0  0  0  0  0  0  0  0  0
  -18.0250  -28.1360   22.8480 C   0  0  0  0  0  0  0  0  0  0  0  0
  -20.5830  -28.3630   23.1340 C   0  0  0  0  0  3  0  0  0  0  0  0
  -20.6730  -26.9380   22.5430 C   0  0  0  0  0  2  0  0  0  0  0  0
  -19.5730  -26.6370   21.5200 C   0  0  0  0  0  2  0  0  0  0  0  0
  -18.1900  -26.7900   22.1610 C   0  0  0  0  0  2  0  0  0  0  0  0
  -19.1490  -28.8810   23.2910 C   0  0  0  0  0  0  0  0  0  0  0  0
  -18.9440  -30.1410   23.8920 C   0  0  0  0  0  3  0  0  0  0  0  0
  -17.6450  -30.6580   24.0540 C   0  0  0  0  0  3  0  0  0  0  0  0
  -16.5330  -29.9080   23.6320 C   0  0  0  0  0  3  0  0  0  0  0  0
  -16.7230  -28.6490   23.0350 C   0  0  0  0  0  3  0  0  0  0  0  0
  -25.9000  -32.4830   23.8410 C   0  0  0  0  0  3  0  0  0  0  0  0
  -25.5900  -33.8640   24.2350 N   0  0  0  0  0  0  0  0  0  0  0  0
  -25.9020  -34.9490   23.5140 C   0  0  0  0  0  0  0  0  0  0  0  0
  -26.5570  -34.8920   22.4680 O   0  0  0  0  0  0  0  0  0  0  0  0
  -25.0110  -33.9820   25.0540 H   0  0  0  0  0  0  0  0  0  0  0  0
  -24.1480  -36.7310   23.2630 C   0  0  0  0  0  1  0  0  0  0  0  0
  -25.4100  -36.3120   24.0340 C   0  0  0  0  0  3  0  0  0  0  0  0
  -27.5580  -37.1810   24.8470 C   0  0  0  0  0  1  0  0  0  0  0  0
  -26.4280  -37.3800   23.9420 N   0  0  0  0  0  0  0  0  0  0  0  0
  -26.0170  -38.2870   24.1420 H   0  0  0  0  0  0  0  0  0  0  0  0
  -26.4470  -31.6600   25.0710 C   0  0  1  0  0  0  0  0  0  0  0  0
  -25.3760  -31.3710   26.1480 C   0  0  0  0  0  1  0  0  0  0  0  0
  -27.0290  -30.3050   24.6040 C   0  0  0  0  0  1  0  0  0  0  0  0
  -27.6060  -32.4300   25.7480 C   0  0  0  0  0  1  0  0  0  0  0  0
  2  1  1  0
  2  6  1  0
  3  2  1  0
  4  2  1  0
  6  5  1  0
  7  6  1  0
  8 49  1  0
  8  7  1  0
  9 17  1  0
 10 15  1  0
 11 12  1  0
 11 10  1  0
 13 12  1  0
 13 22  1  0
 13 14  1  0
 15  9  1  0
 15 14  1  0
 16  9  2  0
 17  8  1  0
 18 17  1  0
 19 20  2  0
 20 39  1  0
 21 20  1  0
 21 24  1  0
 22 19  1  0
 22 23  1  0
 23 21  2  0
 24 25  1  0
 25 26  2  0
 27 30  1  0
 27 26  1  0
 28 27  2  0
 29 28  1  0
 29 24  2  0
 30 31  1  0
 31 32  1  0
 32 33  2  0
 34 33  1  0
 34 38  1  0
 35 34  2  0
 36 31  2  0
 36 35  1  0
 37 36  1  0
 39 40  1  0
 40 43  1  0
 40 42  1  0
 41 39  2  0
 44 45  1  0
 44 19  1  0
 46 44  1  0
 47 49  1  0
 48 49  1  0
 50 51  1  0
 50  1  1  0
 52 53  1  0
 52 51  1  0
 54 55  1  0
 54 53  1  0
 56 58  1  0
 56 55  1  0
 57 68  2  0
 58 63  1  0
 59 67  1  0
 59 69  1  0
 60 66  1  0
 60 62  1  0
 61 67  1  0
 62 61  1  0
 63 62  2  0
 64 65  1  0
 64 58  2  0
 65 60  2  0
 66 59  1  0
 67 57  1  0
 69 71  2  0
 70 69  1  0
 72 70  1  0
 73 82  2  0
 73 78  1  0
 74 70  1  0
 74 78  1  0
 75 74  1  0
 76 77  1  0
 76 75  1  0
 77 73  1  0
 78 79  2  0
 79 80  1  0
 81 80  2  0
 82 81  1  0
 83 57  1  0
 83 84  1  0
 83 93  1  0
 84 87  1  0
 85 89  1  0
 85 84  1  0
 86 85  2  0
 89 88  1  0
 91 89  1  0
 91 92  1  0
 91 90  1  0
 93 96  1  1
 93 94  1  0
 95 93  1  0
M  ISO  4   9 100  17 100  55 101  56 101
M  END
>  <TORSDO>  (19) 
F 27

>  <SCORE>  (19) 
41.064

>  <name>  (19) 
18

>  <ligand_id>  (19) 
18

>  <original_smiles>  (19) 
[H]c1c([H])c([H])c2c(c1[H])C([H])([H])C([H])([H])C([H])([H])C2([H])N([H])C(=O)C1([H])N(C(=O)C([H])(N([H])C(=O)C([H])(N([H])C([H])([H])[H])C([H])([H])[H])C(C([H])([H])[H])(C([H])([H])[H])C([H])([H])[H])C([H])([H])c2c([H])c(OC([H])([H])C([H])([H])C([H])([H])C([H])([H])C([H])([H])C([H])([H])C([H])([H])[N+]([H])([H])C([H])(C([H])([H])[H])C([H])([H])C([H])(N([H])C(=O)N3C([H])([H])C([H])([H])C([H])([H])C([H])(n4nc(-c5c([H])c([H])c(Oc6c([H])c([H])c(F)c([H])c6F)c([H])c5[H])c(C(=O)N([H])[H])c4N([H])[H])C3([H])[H])C([H])(C([H])([H])[H])C([H])([H])[H])c([H])c([H])c2C1([H])[H]

>  <smiles>  (19) 
[H]c1c([H])c([H])c2c(c1[H])C([H])([H])C([H])([H])C([H])([H])C2([H])N([H])C(=O)C1([H])N(C(=O)C([H])(N([H])C(=O)C([H])(N([H])C([H])([H])[H])C([H])([H])[H])C(C([H])([H])[H])(C([H])([H])[H])C([H])([H])[H])C([H])([H])c2c([H])c(OC([H])([H])C([H])([H])C([H])([H])C([H])([H])C([H])([H])C([H])([H])C([H])([H])[N+]([H])([H])C([H])(C([H])([H])[H])C([H])([H])C([H])(N([H])C(=O)N3C([H])([H])C([H])([H])C([H])([H])C([H])(n4nc(-c5c([H])c([H])c(Oc6c([H])c([H])c(F)c([H])c6F)c([H])c5[H])c(C(=O)N([H])[H])c4N([H])[H])C3([H])[H])C([H])(C([H])([H])[H])C([H])([H])[H])c([H])c([H])c2C1([H])[H]

$$$$
19:0:0
     RDKit          3D

101108  0  0  1  0  0  0  0  0999 V2000
  -30.7630  -17.7200   20.4120 C   0  0  0  0  0  2  0  0  0  0  0  0
  -30.7880  -16.7870   21.6580 C   0  0  0  0  0  3  0  0  0  0  0  0
  -30.7130  -14.5070   20.6110 C   0  0  0  0  0  0  0  0  0  0  0  0
  -30.4090  -12.3460   19.4450 C   0  0  0  0  0  2  0  0  0  0  0  0
  -29.5030  -12.5130   18.2080 C   0  0  0  0  0  2  0  0  0  0  0  0
  -28.0230  -12.3670   18.5990 C   0  0  0  0  0  2  0  0  0  0  0  0
  -27.6480  -13.2390   19.8260 C   0  0  0  0  0  3  0  0  0  0  0  0
  -28.6660  -13.0640   20.9770 C   0  0  0  0  0  2  0  0  0  0  0  0
  -30.0100  -13.3510   20.4480 N   0  0  0  0  0  0  0  0  0  0  0  0
  -31.7920  -14.6980   20.0430 O   0  0  0  0  0  0  0  0  0  0  0  0
  -30.1640  -15.4690   21.3900 N   0  0  0  0  0  0  0  0  0  0  0  0
  -29.2880  -15.2540   21.8440 H   0  0  0  0  0  0  0  0  0  0  0  0
  -25.2460  -13.8620   20.5070 C   0  0  0  0  0  0  0  0  0  0  0  0
  -24.1600  -13.0940   20.8340 C   0  0  0  0  0  0  0  0  0  0  0  0
  -24.5990  -11.7370   20.7660 C   0  0  0  0  0  0  0  0  0  0  0  0
  -26.2820  -12.9710   20.2680 N   0  0  0  0  0  0  0  0  0  0  0  0
  -25.8940  -11.6880   20.4770 N   0  0  0  0  0  0  0  0  0  0  0  0
  -23.8510  -10.4810   20.9030 C   0  0  0  0  0  0  0  0  0  0  0  0
  -24.2810   -9.4550   21.7730 C   0  0  0  0  0  3  0  0  0  0  0  0
  -23.5340   -8.2650   21.9020 C   0  0  0  0  0  3  0  0  0  0  0  0
  -22.3410   -8.0930   21.1600 C   0  0  0  0  0  0  0  0  0  0  0  0
  -21.9290   -9.1080   20.2780 C   0  0  0  0  0  3  0  0  0  0  0  0
  -22.6770  -10.2890   20.1470 C   0  0  0  0  0  3  0  0  0  0  0  0
  -21.5630   -6.9610   21.2000 O   0  0  0  0  0  0  0  0  0  0  0  0
  -21.5520   -6.1350   22.2940 C   0  0  0  0  0  0  0  0  0  0  0  0
  -21.2220   -6.6090   23.5840 C   0  0  0  0  0  3  0  0  0  0  0  0
  -21.1570   -5.7120   24.6680 C   0  0  0  0  0  3  0  0  0  0  0  0
  -21.4090   -4.3420   24.4660 C   0  0  0  0  0  0  0  0  0  0  0  0
  -21.7330   -3.8670   23.1830 C   0  0  0  0  0  3  0  0  0  0  0  0
  -21.8010   -4.7610   22.1000 C   0  0  0  0  0  0  0  0  0  0  0  0
  -22.0920   -4.2950   20.8620 F   0  0  0  0  0  0  0  0  0  0  0  0
  -21.3390   -3.4780   25.5070 F   0  0  0  0  0  0  0  0  0  0  0  0
  -22.7670  -13.5850   21.1030 C   0  0  0  0  0  0  0  0  0  0  0  0
  -22.0200  -12.8750   21.9430 N   0  0  0  0  0  0  0  0  0  0  0  0
  -22.3500  -14.6310   20.6070 O   0  0  0  0  0  0  0  0  0  0  0  0
  -22.3710  -12.0300   22.3630 H   0  0  0  0  0  0  0  0  0  0  0  0
  -21.0840  -13.1840   22.1680 H   0  0  0  0  0  0  0  0  0  0  0  0
  -25.4370  -15.2330   20.3820 N   0  0  0  0  0  0  0  0  0  0  0  0
  -24.6850  -15.9000   20.5120 H   0  0  0  0  0  0  0  0  0  0  0  0
  -26.3080  -15.6680   20.1030 H   0  0  0  0  0  0  0  0  0  0  0  0
  -30.2810  -17.4760   22.9610 C   0  0  0  0  0  2  0  0  0  0  0  0
  -31.2410  -18.6070   23.4350 C   0  0  0  0  0  2  0  0  0  0  0  0
  -30.7260  -19.6290   24.4850 C   0  0  0  0  0  3  0  0  0  0  0  0
  -30.0290  -18.9580   25.5980 N   0  0  0  0  0  4  0  0  0  0  0  0
  -29.1610  -18.5460   25.3020 H   0  0  0  0  0  0  0  0  0  0  0  0
  -29.8300  -19.6210   26.3270 H   0  0  0  0  0  0  0  0  0  0  0  0
  -30.6090  -18.2390   25.9940 H   0  0  0  0  0  0  0  0  0  0  0  0
  -29.8790  -20.8030   23.9230 C   0  0  0  0  0  2  0  0  0  0  0  0
  -29.5530  -22.7380   22.3160 C   0  0  0  0  0  1  0  0  0  0  0  0
  -31.7540  -22.5400   23.5130 C   0  0  0  0  0  1  0  0  0  0  0  0
  -30.5730  -21.7530   22.9130 C   0  0  0  0  0  3  0  0  0  0  0  0
  -29.4730  -18.5350   20.1420 C   0  0  0  0  0  2  0  0  0  0  0  0
  -29.6630  -19.5060   18.9540 C   0  0  0  0  0  2  0  0  0  0  0  0
  -28.5000  -20.4920   18.6750 C   0  0  0  0  0  2  0  0  0  0  0  0
  -28.5020  -21.6950   19.5500 N   0  0  0  0  0  4  0  0  0  0  0  0
  -29.3220  -21.6690   20.1340 H   0  0  0  0  0  0  0  0  0  0  0  0
  -27.6880  -21.6380   20.1460 H   0  0  0  0  0  0  0  0  0  0  0  0
  -28.4690  -22.9910   18.8190 C   0  0  0  0  0  2  0  0  0  0  0  0
  -28.3810  -24.2380   19.7340 C   0  0  0  0  0  2  0  0  0  0  0  0
  -28.5610  -25.5630   18.9510 C   0  0  0  0  0  2  0  0  0  0  0  0
  -28.4070  -26.7300   19.7760 O   0  0  0  0  0  0  0  0  0  0  0  0
  -24.5230  -31.7470   23.0310 C   0  0  0  0  0  0  0  0  0  0  0  0
  -27.1980  -27.3990   19.8180 C   0  0  0  0  0  0  0  0  0  0  0  0
  -23.3250  -30.3720   21.3640 C   0  0  0  0  0  3  0  0  0  0  0  0
  -24.7840  -28.8810   19.9010 C   0  0  0  0  0  0  0  0  0  0  0  0
  -25.8500  -30.7550   21.1650 C   0  0  0  0  0  2  0  0  0  0  0  0
  -25.9410  -29.4010   20.4920 C   0  0  0  0  0  0  0  0  0  0  0  0
  -27.1500  -28.6650   20.4480 C   0  0  0  0  0  3  0  0  0  0  0  0
  -26.0050  -26.8790   19.2600 C   0  0  0  0  0  3  0  0  0  0  0  0
  -24.8080  -27.6160   19.2910 C   0  0  0  0  0  3  0  0  0  0  0  0
  -23.5340  -29.7290   19.9700 C   0  0  0  0  0  2  0  0  0  0  0  0
  -24.5860  -30.9710   21.9120 N   0  0  0  0  0  0  0  0  0  0  0  0
  -23.4400  -31.9950   23.5800 O   0  0  0  0  0  0  0  0  0  0  0  0
  -22.6890  -29.3200   22.3010 C   0  0  0  0  0  0  0  0  0  0  0  0
  -21.3630  -29.1420   22.1910 N   0  0  0  0  0  0  0  0  0  0  0  0
  -23.3870  -28.6670   23.0840 O   0  0  0  0  0  0  0  0  0  0  0  0
  -20.8580  -29.7250   21.5370 H   0  0  0  0  0  0  0  0  0  0  0  0
  -17.9950  -27.9400   22.7160 C   0  0  0  0  0  0  0  0  0  0  0  0
  -20.5600  -28.1810   22.9480 C   0  0  0  0  0  3  0  0  0  0  0  0
  -20.6460  -26.7700   22.3220 C   0  0  0  0  0  2  0  0  0  0  0  0
  -19.5230  -26.4860   21.3190 C   0  0  0  0  0  2  0  0  0  0  0  0
  -18.1540  -26.6150   21.9920 C   0  0  0  0  0  2  0  0  0  0  0  0
  -19.1250  -28.6840   23.1490 C   0  0  0  0  0  0  0  0  0  0  0  0
  -18.9230  -29.9290   23.7850 C   0  0  0  0  0  3  0  0  0  0  0  0
  -17.6240  -30.4290   23.9910 C   0  0  0  0  0  3  0  0  0  0  0  0
  -16.5090  -29.6820   23.5730 C   0  0  0  0  0  3  0  0  0  0  0  0
  -16.6960  -28.4410   22.9410 C   0  0  0  0  0  3  0  0  0  0  0  0
  -25.8050  -32.3760   23.6600 C   0  0  0  0  0  3  0  0  0  0  0  0
  -25.4790  -33.7590   24.0330 N   0  0  0  0  0  0  0  0  0  0  0  0
  -25.7940  -34.8370   23.3030 C   0  0  0  0  0  0  0  0  0  0  0  0
  -26.4610  -34.7730   22.2660 O   0  0  0  0  0  0  0  0  0  0  0  0
  -24.8790  -33.8800   24.8350 H   0  0  0  0  0  0  0  0  0  0  0  0
  -24.0330  -36.6100   23.0210 C   0  0  0  0  0  1  0  0  0  0  0  0
  -25.2910  -36.2050   23.8020 C   0  0  0  0  0  3  0  0  0  0  0  0
  -27.4270  -37.0960   24.6230 C   0  0  0  0  0  1  0  0  0  0  0  0
  -26.3030  -37.2770   23.7070 N   0  0  0  0  0  0  0  0  0  0  0  0
  -25.8850  -38.1830   23.9030 H   0  0  0  0  0  0  0  0  0  0  0  0
  -26.3450  -31.5750   24.9070 C   0  0  1  0  0  0  0  0  0  0  0  0
  -25.2670  -31.2910   25.9810 C   0  0  0  0  0  1  0  0  0  0  0  0
  -26.9400  -30.2170   24.4670 C   0  0  0  0  0  1  0  0  0  0  0  0
  -27.5000  -32.3600   25.5740 C   0  0  0  0  0  1  0  0  0  0  0  0
  2  1  1  0
  2 41  1  0
  3 11  1  0
  4  9  1  0
  5  6  1  0
  5  4  1  0
  7  6  1  0
  7 16  1  0
  7  8  1  0
  9  3  1  0
  9  8  1  0
 10  3  2  0
 11  2  1  0
 11 12  1  0
 13 14  2  0
 14 33  1  0
 15 14  1  0
 15 18  1  0
 16 17  1  0
 16 13  1  0
 17 15  2  0
 18 19  1  0
 19 20  2  0
 21 24  1  0
 21 20  1  0
 22 21  2  0
 23 22  1  0
 23 18  2  0
 24 25  1  0
 25 26  1  0
 26 27  2  0
 28 27  1  0
 28 32  1  0
 29 28  2  0
 30 25  2  0
 30 29  1  0
 31 30  1  0
 33 34  1  0
 34 37  1  0
 34 36  1  0
 35 33  2  0
 38 13  1  0
 38 39  1  0
 40 38  1  0
 41 42  1  0
 43 42  1  0
 43 44  1  0
 44 47  1  0
 44 46  1  0
 45 44  1  0
 48 43  1  0
 49 51  1  0
 51 50  1  0
 51 48  1  0
 52  1  1  0
 53 52  1  0
 54 53  1  0
 54 55  1  0
 55 56  1  0
 55 57  1  0
 58 55  1  0
 58 59  1  0
 60 59  1  0
 60 61  1  0
 61 63  1  0
 62 73  2  0
 63 68  1  0
 64 72  1  0
 64 74  1  0
 65 71  1  0
 65 67  1  0
 66 72  1  0
 67 66  1  0
 68 67  2  0
 69 70  1  0
 69 63  2  0
 70 65  2  0
 71 64  1  0
 72 62  1  0
 74 76  2  0
 75 74  1  0
 77 75  1  0
 78 87  2  0
 78 83  1  0
 79 75  1  0
 79 83  1  0
 80 79  1  0
 81 82  1  0
 81 80  1  0
 82 78  1  0
 83 84  2  0
 84 85  1  0
 86 85  2  0
 87 86  1  0
 88 62  1  0
 88 89  1  0
 88 98  1  0
 89 92  1  0
 90 94  1  0
 90 89  1  0
 91 90  2  0
 94 93  1  0
 96 94  1  0
 96 97  1  0
 96 95  1  0
 98101  1  1
 98 99  1  0
100 98  1  0
M  ISO  4   3 100  11 100  60 101  61 101
M  END
>  <TORSDO>  (20) 
F 30

>  <SCORE>  (20) 
-7.964

>  <name>  (20) 
19

>  <ligand_id>  (20) 
19

>  <original_smiles>  (20) 
[H]c1c([H])c([H])c2c(c1[H])C([H])([H])C([H])([H])C([H])([H])C2([H])N([H])C(=O)C1([H])N(C(=O)C([H])(N([H])C(=O)C([H])(N([H])C([H])([H])[H])C([H])([H])[H])C(C([H])([H])[H])(C([H])([H])[H])C([H])([H])[H])C([H])([H])c2c([H])c(OC([H])([H])C([H])([H])C([H])([H])[N+]([H])([H])C([H])([H])C([H])([H])C([H])([H])C([H])([H])C([H])(N([H])C(=O)N3C([H])([H])C([H])([H])C([H])([H])C([H])(n4nc(-c5c([H])c([H])c(Oc6c([H])c([H])c(F)c([H])c6F)c([H])c5[H])c(C(=O)N([H])[H])c4N([H])[H])C3([H])[H])C([H])([H])C([H])([H])C([H])(C([H])([H])C([H])(C([H])([H])[H])C([H])([H])[H])[N+]([H])([H])[H])c([H])c([H])c2C1([H])[H]

>  <smiles>  (20) 
[H]c1c([H])c([H])c2c(c1[H])C([H])([H])C([H])([H])C([H])([H])C2([H])N([H])C(=O)C1([H])N(C(=O)C([H])(N([H])C(=O)C([H])(N([H])C([H])([H])[H])C([H])([H])[H])C(C([H])([H])[H])(C([H])([H])[H])C([H])([H])[H])C([H])([H])c2c([H])c(OC([H])([H])C([H])([H])C([H])([H])[N+]([H])([H])C([H])([H])C([H])([H])C([H])([H])C([H])([H])C([H])(N([H])C(=O)N3C([H])([H])C([H])([H])C([H])([H])C([H])(n4nc(-c5c([H])c([H])c(Oc6c([H])c([H])c(F)c([H])c6F)c([H])c5[H])c(C(=O)N([H])[H])c4N([H])[H])C3([H])[H])C([H])([H])C([H])([H])C([H])(C([H])([H])C([H])(C([H])([H])[H])C([H])([H])[H])[N+]([H])([H])[H])c([H])c([H])c2C1([H])[H]

$$$$
20:0:0
     RDKit          3D

 90 97  0  0  1  0  0  0  0  0999 V2000
  -29.2610  -20.4490   19.6840 C   0  0  0  0  0  2  0  0  0  0  0  0
  -28.0480  -18.5170   20.8930 C   0  0  0  0  0  1  0  0  0  0  0  0
  -30.2480  -19.2170   21.7850 C   0  0  0  0  0  1  0  0  0  0  0  0
  -29.4720  -18.9460   20.4810 C   0  0  2  0  0  0  0  0  0  0  0  0
  -30.2110  -17.5720   19.8280 C   0  0  0  0  0  0  0  0  0  0  0  0
  -29.9630  -16.2650   20.1380 N   0  0  0  0  0  0  0  0  0  0  0  0
  -30.7560  -15.0640   19.7670 C   0  0  0  0  0  0  0  0  0  0  0  0
  -30.6070  -12.6810   18.8990 C   0  0  0  0  0  2  0  0  0  0  0  0
  -29.5920  -12.6120   17.7350 C   0  0  0  0  0  2  0  0  0  0  0  0
  -28.1660  -12.3890   18.2720 C   0  0  0  0  0  2  0  0  0  0  0  0
  -27.8330  -13.3310   19.4610 C   0  0  0  0  0  3  0  0  0  0  0  0
  -28.9650  -13.3780   20.5060 C   0  0  0  0  0  2  0  0  0  0  0  0
  -30.1910  -13.7890   19.8120 N   0  0  0  0  0  0  0  0  0  0  0  0
  -31.9040  -15.0990   19.3170 O   0  0  0  0  0  0  0  0  0  0  0  0
  -25.5480  -13.8900   20.4610 C   0  0  0  0  0  0  0  0  0  0  0  0
  -24.5060  -13.1080   20.8810 C   0  0  0  0  0  0  0  0  0  0  0  0
  -24.9410  -11.7560   20.7240 C   0  0  0  0  0  0  0  0  0  0  0  0
  -26.5450  -13.0160   20.0660 N   0  0  0  0  0  0  0  0  0  0  0  0
  -26.1950  -11.7220   20.2910 N   0  0  0  0  0  0  0  0  0  0  0  0
  -24.2100  -10.4950   20.9060 C   0  0  0  0  0  0  0  0  0  0  0  0
  -24.6080   -9.5410   21.8690 C   0  0  0  0  0  3  0  0  0  0  0  0
  -23.8760   -8.3450   22.0390 C   0  0  0  0  0  3  0  0  0  0  0  0
  -22.7330   -8.0940   21.2430 C   0  0  0  0  0  0  0  0  0  0  0  0
  -22.3550   -9.0360   20.2700 C   0  0  0  0  0  3  0  0  0  0  0  0
  -23.0880  -10.2230   20.0990 C   0  0  0  0  0  3  0  0  0  0  0  0
  -21.9770   -6.9500   21.3190 O   0  0  0  0  0  0  0  0  0  0  0  0
  -21.7480   -6.3150   22.5140 C   0  0  0  0  0  0  0  0  0  0  0  0
  -21.0660   -6.9490   23.5750 C   0  0  0  0  0  3  0  0  0  0  0  0
  -20.7910   -6.2380   24.7590 C   0  0  0  0  0  3  0  0  0  0  0  0
  -21.1880   -4.8920   24.8830 C   0  0  0  0  0  0  0  0  0  0  0  0
  -21.8620   -4.2580   23.8250 C   0  0  0  0  0  3  0  0  0  0  0  0
  -22.1390   -4.9660   22.6420 C   0  0  0  0  0  0  0  0  0  0  0  0
  -22.7700   -4.3440   21.6180 F   0  0  0  0  0  0  0  0  0  0  0  0
  -20.9170   -4.2070   26.0170 F   0  0  0  0  0  0  0  0  0  0  0  0
  -23.1520  -13.5870   21.3130 C   0  0  0  0  0  0  0  0  0  0  0  0
  -22.4920  -12.8450   22.1950 N   0  0  0  0  0  0  0  0  0  0  0  0
  -22.6910  -14.6510   20.9020 O   0  0  0  0  0  0  0  0  0  0  0  0
  -22.8830  -11.9840   22.5490 H   0  0  0  0  0  0  0  0  0  0  0  0
  -21.5850  -13.1430   22.5240 H   0  0  0  0  0  0  0  0  0  0  0  0
  -25.7230  -15.2670   20.3580 N   0  0  0  0  0  0  0  0  0  0  0  0
  -24.9970  -15.9310   20.6030 H   0  0  0  0  0  0  0  0  0  0  0  0
  -26.5760  -15.7070   20.0320 H   0  0  0  0  0  0  0  0  0  0  0  0
  -31.3460  -17.9880   18.8890 C   0  0  0  0  0  2  0  0  0  0  0  0
  -32.1670  -18.1720   16.4820 C   0  0  0  0  0  1  0  0  0  0  0  0
  -30.9720  -17.8820   17.4010 C   0  0  0  0  0  2  0  0  0  0  0  0
  -30.8150  -22.4820   20.3370 C   0  0  0  0  0  1  0  0  0  0  0  0
  -29.3540  -22.0070   20.3610 C   0  0  0  0  0  3  0  0  0  0  0  0
  -28.3380  -23.3540   20.1470 C   0  0  0  0  0  2  0  0  0  0  0  0
  -28.6550  -24.9010   19.5510 C   0  0  0  0  0  2  0  0  0  0  0  0
  -28.4610  -26.3210   20.1550 O   0  0  0  0  0  0  0  0  0  0  0  0
  -24.6200  -31.8240   23.0910 C   0  0  0  0  0  0  0  0  0  0  0  0
  -27.3560  -27.2320   20.0270 C   0  0  0  0  0  0  0  0  0  0  0  0
  -23.4700  -30.4170   21.4210 C   0  0  0  0  0  3  0  0  0  0  0  0
  -24.9740  -28.8950   19.9870 C   0  0  0  0  0  0  0  0  0  0  0  0
  -26.0150  -30.7550   21.2830 C   0  0  0  0  0  2  0  0  0  0  0  0
  -26.1300  -29.3750   20.6130 C   0  0  0  0  0  0  0  0  0  0  0  0
  -27.3180  -28.5560   20.6170 C   0  0  0  0  0  3  0  0  0  0  0  0
  -26.1770  -26.8430   19.3580 C   0  0  0  0  0  3  0  0  0  0  0  0
  -25.0090  -27.6450   19.3440 C   0  0  0  0  0  3  0  0  0  0  0  0
  -23.7200  -29.7570   20.0360 C   0  0  0  0  0  2  0  0  0  0  0  0
  -24.7200  -31.0210   21.9860 N   0  0  0  0  0  0  0  0  0  0  0  0
  -23.5250  -32.0720   23.6160 O   0  0  0  0  0  0  0  0  0  0  0  0
  -22.8100  -29.3840   22.3670 C   0  0  0  0  0  0  0  0  0  0  0  0
  -21.4850  -29.1950   22.2370 N   0  0  0  0  0  0  0  0  0  0  0  0
  -23.4920  -28.7540   23.1790 O   0  0  0  0  0  0  0  0  0  0  0  0
  -20.9930  -29.7570   21.5570 H   0  0  0  0  0  0  0  0  0  0  0  0
  -18.1150  -27.9660   22.7530 C   0  0  0  0  0  0  0  0  0  0  0  0
  -20.6770  -28.2330   22.9920 C   0  0  0  0  0  3  0  0  0  0  0  0
  -20.7760  -26.8190   22.3740 C   0  0  0  0  0  2  0  0  0  0  0  0
  -19.6630  -26.5200   21.3650 C   0  0  0  0  0  2  0  0  0  0  0  0
  -18.2880  -26.6390   22.0320 C   0  0  0  0  0  2  0  0  0  0  0  0
  -19.2360  -28.7210   23.1890 C   0  0  0  0  0  0  0  0  0  0  0  0
  -19.0210  -29.9610   23.8260 C   0  0  0  0  0  3  0  0  0  0  0  0
  -17.7170  -30.4500   24.0290 C   0  0  0  0  0  3  0  0  0  0  0  0
  -16.6100  -29.6930   23.6080 C   0  0  0  0  0  3  0  0  0  0  0  0
  -16.8100  -28.4530   22.9780 C   0  0  0  0  0  3  0  0  0  0  0  0
  -25.8780  -32.4830   23.7360 C   0  0  0  0  0  3  0  0  0  0  0  0
  -25.5220  -33.8650   24.0990 N   0  0  0  0  0  0  0  0  0  0  0  0
  -25.8140  -34.9480   23.3670 C   0  0  0  0  0  0  0  0  0  0  0  0
  -26.4800  -34.8910   22.3290 O   0  0  0  0  0  0  0  0  0  0  0  0
  -24.9340  -33.9800   24.9120 H   0  0  0  0  0  0  0  0  0  0  0  0
  -24.0360  -36.7010   23.0610 C   0  0  0  0  0  1  0  0  0  0  0  0
  -25.2900  -36.3100   23.8620 C   0  0  0  0  0  3  0  0  0  0  0  0
  -27.3890  -37.2430   24.7270 C   0  0  0  0  0  1  0  0  0  0  0  0
  -26.2900  -37.3960   23.7760 N   0  0  0  0  0  0  0  0  0  0  0  0
  -25.8560  -38.3000   23.9370 H   0  0  0  0  0  0  0  0  0  0  0  0
  -26.4040  -31.7030   25.0040 C   0  0  1  0  0  0  0  0  0  0  0  0
  -25.3080  -31.4010   26.0530 C   0  0  0  0  0  1  0  0  0  0  0  0
  -27.0410  -30.3560   24.5940 C   0  0  0  0  0  1  0  0  0  0  0  0
  -27.5210  -32.5220   25.6960 C   0  0  0  0  0  1  0  0  0  0  0  0
  1 47  1  0
  1  4  1  0
  4  2  1  1
  4  3  1  0
  5  6  2  0
  5  4  1  0
  7 13  1  0
  7  6  1  0
  8 13  1  0
  9 10  1  0
  9  8  1  0
 11 10  1  0
 11 18  1  0
 11 12  1  0
 13 12  1  0
 14  7  2  0
 15 16  2  0
 16 35  1  0
 17 16  1  0
 17 20  1  0
 18 19  1  0
 18 15  1  0
 19 17  2  0
 20 21  1  0
 21 22  2  0
 23 26  1  0
 23 22  1  0
 24 23  2  0
 25 24  1  0
 25 20  2  0
 26 27  1  0
 27 32  2  0
 27 28  1  0
 28 29  2  0
 29 30  1  0
 30 34  1  0
 31 30  2  0
 32 31  1  0
 33 32  1  0
 35 36  1  0
 36 39  1  0
 36 38  1  0
 37 35  2  0
 40 15  1  0
 40 41  1  0
 42 40  1  0
 43  5  1  0
 44 45  1  0
 45 43  1  0
 47 46  1  0
 48 47  1  0
 49 48  1  0
 49 50  1  0
 51 62  2  0
 52 50  1  0
 52 57  1  0
 53 61  1  0
 53 63  1  0
 54 60  1  0
 54 56  1  0
 55 61  1  0
 56 57  2  0
 56 55  1  0
 58 52  2  0
 59 58  1  0
 59 54  2  0
 60 53  1  0
 61 51  1  0
 63 65  2  0
 64 63  1  0
 66 64  1  0
 67 76  2  0
 67 72  1  0
 68 64  1  0
 68 72  1  0
 69 68  1  0
 70 71  1  0
 70 69  1  0
 71 67  1  0
 72 73  2  0
 73 74  1  0
 75 74  2  0
 76 75  1  0
 77 51  1  0
 77 78  1  0
 77 87  1  0
 78 81  1  0
 79 83  1  0
 79 78  1  0
 80 79  2  0
 83 82  1  0
 85 83  1  0
 85 86  1  0
 85 84  1  0
 87 90  1  1
 87 88  1  0
 89 87  1  0
M  ISO  4   6 100   7 100  49 101  50 101
M  END
>  <TORSDO>  (21) 
F 23

>  <SCORE>  (21) 
-12.779

>  <name>  (21) 
20

>  <ligand_id>  (21) 
20

>  <original_smiles>  (21) 
[H]c1c([H])c([H])c2c(c1[H])C([H])([H])C([H])([H])C([H])([H])C2([H])N([H])C(=O)C1([H])N(C(=O)C([H])(N([H])C(=O)C([H])(N([H])C([H])([H])[H])C([H])([H])[H])C(C([H])([H])[H])(C([H])([H])[H])C([H])([H])[H])C([H])([H])c2c([H])c(OC([H])([H])C([H])([H])C([H])(C([H])([H])[H])C([H])([H])C(C(=NC(=O)N3C([H])([H])C([H])([H])C([H])([H])C([H])(n4nc(-c5c([H])c([H])c(Oc6c([H])c([H])c(F)c([H])c6F)c([H])c5[H])c(C(=O)N([H])[H])c4N([H])[H])C3([H])[H])C([H])([H])C([H])([H])C([H])([H])[H])(C([H])([H])[H])C([H])([H])[H])c([H])c([H])c2C1([H])[H]

>  <smiles>  (21) 
[H]c1c([H])c([H])c2c(c1[H])C([H])([H])C([H])([H])C([H])([H])C2([H])N([H])C(=O)C1([H])N(C(=O)C([H])(N([H])C(=O)C([H])(N([H])C([H])([H])[H])C([H])([H])[H])C(C([H])([H])[H])(C([H])([H])[H])C([H])([H])[H])C([H])([H])c2c([H])c(OC([H])([H])C([H])([H])C([H])(C([H])([H])[H])C([H])([H])C(C(=NC(=O)N3C([H])([H])C([H])([H])C([H])([H])C([H])(n4nc(-c5c([H])c([H])c(Oc6c([H])c([H])c(F)c([H])c6F)c([H])c5[H])c(C(=O)N([H])[H])c4N([H])[H])C3([H])[H])C([H])([H])C([H])([H])C([H])([H])[H])(C([H])([H])[H])C([H])([H])[H])c([H])c([H])c2C1([H])[H]

$$$$
21:0:0
     RDKit          3D

102109  0  0  1  0  0  0  0  0999 V2000
  -29.1760  -19.6200   20.2600 C   0  0  0  0  0  3  0  0  0  0  0  0
  -29.4710  -21.2650   20.3760 N   0  0  0  0  0  4  0  0  0  0  0  0
  -30.2810  -21.5120   19.8310 H   0  0  0  0  0  0  0  0  0  0  0  0
  -29.7810  -21.2660   21.3470 H   0  0  0  0  0  0  0  0  0  0  0  0
  -28.5370  -22.6300   20.6350 C   0  0  0  0  0  3  0  0  0  0  0  0
  -28.9480  -23.0550   22.0560 C   0  0  0  0  0  2  0  0  0  0  0  0
  -29.0040  -21.8870   22.9260 N   0  0  0  0  0  0  0  0  0  0  0  0
  -28.0620  -21.5290   23.0460 H   0  0  0  0  0  0  0  0  0  0  0  0
  -29.2350  -22.2030   23.8660 H   0  0  0  0  0  0  0  0  0  0  0  0
  -28.4010  -24.2050   19.7650 C   0  0  0  0  0  2  0  0  0  0  0  0
  -28.3190  -25.8040   20.1870 O   0  0  0  0  0  0  0  0  0  0  0  0
  -24.6050  -31.6990   23.0680 C   0  0  0  0  0  0  0  0  0  0  0  0
  -27.2710  -26.8600   20.0650 C   0  0  0  0  0  0  0  0  0  0  0  0
  -23.4510  -30.2910   21.4080 C   0  0  0  0  0  3  0  0  0  0  0  0
  -24.9370  -28.6990   20.0040 C   0  0  0  0  0  0  0  0  0  0  0  0
  -26.0150  -30.5310   21.2970 C   0  0  0  0  0  2  0  0  0  0  0  0
  -26.1080  -29.1210   20.6410 C   0  0  0  0  0  0  0  0  0  0  0  0
  -27.2640  -28.2210   20.6530 C   0  0  0  0  0  3  0  0  0  0  0  0
  -26.0660  -26.5850   19.3800 C   0  0  0  0  0  3  0  0  0  0  0  0
  -24.9370  -27.4500   19.3550 C   0  0  0  0  0  3  0  0  0  0  0  0
  -23.7070  -29.6060   20.0340 C   0  0  0  0  0  2  0  0  0  0  0  0
  -24.7110  -30.8670   21.9790 N   0  0  0  0  0  0  0  0  0  0  0  0
  -23.5060  -31.9770   23.5740 O   0  0  0  0  0  0  0  0  0  0  0  0
  -22.7530  -29.2910   22.3680 C   0  0  0  0  0  0  0  0  0  0  0  0
  -21.4220  -29.1280   22.2430 N   0  0  0  0  0  0  0  0  0  0  0  0
  -23.4170  -28.6600   23.1960 O   0  0  0  0  0  0  0  0  0  0  0  0
  -20.9390  -29.6950   21.5600 H   0  0  0  0  0  0  0  0  0  0  0  0
  -18.0370  -27.9220   22.7540 C   0  0  0  0  0  0  0  0  0  0  0  0
  -20.5990  -28.1840   23.0070 C   0  0  0  0  0  3  0  0  0  0  0  0
  -20.6940  -26.7570   22.4170 C   0  0  0  0  0  2  0  0  0  0  0  0
  -19.5880  -26.4470   21.4030 C   0  0  0  0  0  2  0  0  0  0  0  0
  -18.2090  -26.5830   22.0560 C   0  0  0  0  0  2  0  0  0  0  0  0
  -19.1580  -28.6800   23.1860 C   0  0  0  0  0  0  0  0  0  0  0  0
  -18.9390  -29.9300   23.8050 C   0  0  0  0  0  3  0  0  0  0  0  0
  -17.6340  -30.4250   23.9880 C   0  0  0  0  0  3  0  0  0  0  0  0
  -16.5280  -29.6650   23.5680 C   0  0  0  0  0  3  0  0  0  0  0  0
  -16.7310  -28.4150   22.9580 C   0  0  0  0  0  3  0  0  0  0  0  0
  -25.8610  -32.3570   23.7180 C   0  0  0  0  0  3  0  0  0  0  0  0
  -25.5070  -33.7370   24.0930 N   0  0  0  0  0  0  0  0  0  0  0  0
  -25.8300  -34.8330   23.3920 C   0  0  0  0  0  0  0  0  0  0  0  0
  -26.5190  -34.7880   22.3710 O   0  0  0  0  0  0  0  0  0  0  0  0
  -24.8930  -33.8410   24.8880 H   0  0  0  0  0  0  0  0  0  0  0  0
  -24.0700  -36.6120   23.0970 C   0  0  0  0  0  1  0  0  0  0  0  0
  -25.3100  -36.1940   23.9020 C   0  0  0  0  0  3  0  0  0  0  0  0
  -27.4180  -37.0930   24.7890 C   0  0  0  0  0  1  0  0  0  0  0  0
  -26.3220  -37.2720   23.8430 N   0  0  0  0  0  0  0  0  0  0  0  0
  -25.8930  -38.1780   24.0180 H   0  0  0  0  0  0  0  0  0  0  0  0
  -26.3870  -31.5700   24.9830 C   0  0  1  0  0  0  0  0  0  0  0  0
  -25.2980  -31.2890   26.0470 C   0  0  0  0  0  1  0  0  0  0  0  0
  -26.9980  -30.2100   24.5740 C   0  0  0  0  0  1  0  0  0  0  0  0
  -27.5210  -32.3720   25.6660 C   0  0  0  0  0  1  0  0  0  0  0  0
  -29.1610  -19.2010   18.7680 C   0  0  0  0  0  2  0  0  0  0  0  0
  -28.5020  -20.1700   17.7680 C   0  0  0  0  0  2  0  0  0  0  0  0
  -28.5260  -19.6360   16.3150 C   0  0  0  0  0  2  0  0  0  0  0  0
  -29.8070  -19.9680   15.5170 C   0  0  0  0  0  2  0  0  0  0  0  0
  -29.9100  -21.4030   15.1990 N   0  0  0  0  0  4  0  0  0  0  0  0
  -29.1220  -21.6980   14.6480 H   0  0  0  0  0  0  0  0  0  0  0  0
  -30.7380  -21.5730   14.6560 H   0  0  0  0  0  0  0  0  0  0  0  0
  -29.9560  -21.9630   16.0310 H   0  0  0  0  0  0  0  0  0  0  0  0
  -30.0650  -18.2570   21.0550 C   0  0  0  0  0  0  0  0  0  0  0  0
  -30.6150  -15.3150   21.1200 C   0  0  0  0  0  0  0  0  0  0  0  0
  -30.7450  -12.8190   20.4240 C   0  0  0  0  0  2  0  0  0  0  0  0
  -30.0090  -12.4950   19.1020 C   0  0  0  0  0  2  0  0  0  0  0  0
  -28.5240  -12.1880   19.3730 C   0  0  0  0  0  2  0  0  0  0  0  0
  -27.8860  -13.2170   20.3410 C   0  0  0  0  0  3  0  0  0  0  0  0
  -28.7730  -13.5150   21.5720 C   0  0  0  0  0  2  0  0  0  0  0  0
  -30.0650  -14.0040   21.0600 N   0  0  0  0  0  0  0  0  0  0  0  0
  -31.8520  -15.3030   21.1320 O   0  0  0  0  0  0  0  0  0  0  0  0
  -29.8490  -16.5870   20.9770 N   0  0  0  0  0  4  0  0  0  0  0  0
  -28.8690  -16.3590   20.8720 H   0  0  0  0  0  0  0  0  0  0  0  0
  -25.4320  -13.7390   20.8120 C   0  0  0  0  0  0  0  0  0  0  0  0
  -24.3450  -12.9490   21.0600 C   0  0  0  0  0  0  0  0  0  0  0  0
  -24.8310  -11.6040   21.0940 C   0  0  0  0  0  0  0  0  0  0  0  0
  -26.5110  -12.8790   20.6980 N   0  0  0  0  0  0  0  0  0  0  0  0
  -26.1530  -11.5890   20.9390 N   0  0  0  0  0  0  0  0  0  0  0  0
  -24.1020  -10.3320   21.2020 C   0  0  0  0  0  0  0  0  0  0  0  0
  -24.4470   -9.3600   22.1650 C   0  0  0  0  0  3  0  0  0  0  0  0
  -23.7170   -8.1580   22.2610 C   0  0  0  0  0  3  0  0  0  0  0  0
  -22.6240   -7.9190   21.3960 C   0  0  0  0  0  0  0  0  0  0  0  0
  -22.3010   -8.8800   20.4210 C   0  0  0  0  0  3  0  0  0  0  0  0
  -23.0340  -10.0720   20.3220 C   0  0  0  0  0  3  0  0  0  0  0  0
  -21.8710   -6.7700   21.4030 O   0  0  0  0  0  0  0  0  0  0  0  0
  -21.7370   -6.0000   22.5300 C   0  0  0  0  0  0  0  0  0  0  0  0
  -21.2260   -6.5270   23.7370 C   0  0  0  0  0  3  0  0  0  0  0  0
  -21.0410   -5.6840   24.8500 C   0  0  0  0  0  3  0  0  0  0  0  0
  -21.3590   -4.3160   24.7610 C   0  0  0  0  0  0  0  0  0  0  0  0
  -21.8620   -3.7880   23.5590 C   0  0  0  0  0  3  0  0  0  0  0  0
  -22.0480   -4.6270   22.4450 C   0  0  0  0  0  0  0  0  0  0  0  0
  -22.5140   -4.1090   21.2840 F   0  0  0  0  0  0  0  0  0  0  0  0
  -21.1730   -3.5040   25.8270 F   0  0  0  0  0  0  0  0  0  0  0  0
  -22.9180  -13.4070   21.1480 C   0  0  0  0  0  0  0  0  0  0  0  0
  -22.0940  -12.7190   21.9310 N   0  0  0  0  0  0  0  0  0  0  0  0
  -22.5340  -14.4130   20.5520 O   0  0  0  0  0  0  0  0  0  0  0  0
  -22.4080  -11.9090   22.4450 H   0  0  0  0  0  0  0  0  0  0  0  0
  -21.1320  -13.0110   22.0230 H   0  0  0  0  0  0  0  0  0  0  0  0
  -25.5890  -15.1130   20.6370 N   0  0  0  0  0  0  0  0  0  0  0  0
  -24.7930  -15.7420   20.6350 H   0  0  0  0  0  0  0  0  0  0  0  0
  -26.4520  -15.5590   20.3540 H   0  0  0  0  0  0  0  0  0  0  0  0
  -31.5820  -18.6000   21.0150 C   0  0  0  0  0  2  0  0  0  0  0  0
  -31.8170  -19.4140   23.4350 C   0  0  0  0  0  1  0  0  0  0  0  0
  -33.4730  -20.1930   21.7070 C   0  0  0  0  0  1  0  0  0  0  0  0
  -32.0160  -19.7610   21.9490 C   0  0  0  0  0  3  0  0  0  0  0  0
  1 52  1  0
  1  2  1  0
  1 60  1  0
  2  5  1  0
  2  4  1  0
  3  2  1  0
  5 10  1  0
  5  6  1  0
  6  7  1  0
  7  8  1  0
  7  9  1  0
 10 11  1  0
 12 23  2  0
 13 11  1  0
 13 18  1  0
 14 22  1  0
 14 24  1  0
 15 21  1  0
 15 17  1  0
 16 22  1  0
 17 18  2  0
 17 16  1  0
 19 13  2  0
 20 19  1  0
 20 15  2  0
 21 14  1  0
 22 12  1  0
 24 26  2  0
 25 24  1  0
 27 25  1  0
 28 37  2  0
 28 33  1  0
 29 25  1  0
 29 33  1  0
 30 29  1  0
 31 32  1  0
 31 30  1  0
 32 28  1  0
 33 34  2  0
 34 35  1  0
 36 35  2  0
 37 36  1  0
 38 12  1  0
 38 39  1  0
 38 48  1  0
 39 42  1  0
 40 44  1  0
 40 39  1  0
 41 40  2  0
 44 43  1  0
 46 44  1  0
 46 47  1  0
 46 45  1  0
 48 51  1  1
 48 49  1  0
 50 48  1  0
 53 52  1  0
 54 53  1  0
 55 54  1  0
 56 55  1  0
 56 59  1  0
 57 56  1  0
 58 56  1  0
 61 68  2  0
 62 67  1  0
 63 64  1  0
 63 62  1  0
 65 64  1  0
 65 74  1  0
 65 66  1  0
 67 61  1  0
 67 66  1  0
 69 60  2  0
 69 61  1  0
 70 69  1  0
 71 72  2  0
 72 73  1  0
 72 91  1  0
 73 76  1  0
 74 71  1  0
 74 75  1  0
 75 73  2  0
 76 77  1  0
 77 78  2  0
 79 82  1  0
 79 78  1  0
 80 79  2  0
 81 80  1  0
 81 76  2  0
 82 83  1  0
 83 84  1  0
 84 85  2  0
 86 85  1  0
 86 90  1  0
 87 86  2  0
 88 83  2  0
 88 87  1  0
 89 88  1  0
 91 92  1  0
 92 95  1  0
 92 94  1  0
 93 91  2  0
 96 71  1  0
 97 96  1  0
 98 96  1  0
 99 60  1  0
 99102  1  0
101102  1  0
102100  1  0
M  ISO  4  10 101  11 101  61 100  69 100
M  END
>  <TORSDO>  (22) 
F 29

>  <SCORE>  (22) 
-13.631

>  <name>  (22) 
21

>  <ligand_id>  (22) 
21

>  <original_smiles>  (22) 
[H]c1c([H])c([H])c2c(c1[H])C([H])([H])C([H])([H])C([H])([H])C2([H])N([H])C(=O)C1([H])N(C(=O)C([H])(N([H])C(=O)C([H])(N([H])C([H])([H])[H])C([H])([H])[H])C(C([H])([H])[H])(C([H])([H])[H])C([H])([H])[H])C([H])([H])c2c([H])c(OC([H])([H])C([H])(C([H])([H])N([H])[H])[N+]([H])([H])C([H])(C([H])([H])C([H])([H])C([H])([H])C([H])([H])[N+]([H])([H])[H])C([H])(N([H])C(=O)N3C([H])([H])C([H])([H])C([H])([H])C([H])(n4nc(-c5c([H])c([H])c(Oc6c([H])c([H])c(F)c([H])c6F)c([H])c5[H])c(C(=O)N([H])[H])c4N([H])[H])C3([H])[H])C([H])([H])C([H])(C([H])([H])[H])C([H])([H])[H])c([H])c([H])c2C1([H])[H]

>  <smiles>  (22) 
[H]c1c([H])c([H])c2c(c1[H])C([H])([H])C([H])([H])C([H])([H])C2([H])N([H])C(=O)C1([H])N(C(=O)C([H])(N([H])C(=O)C([H])(N([H])C([H])([H])[H])C([H])([H])[H])C(C([H])([H])[H])(C([H])([H])[H])C([H])([H])[H])C([H])([H])c2c([H])c(OC([H])([H])C([H])(C([H])([H])N([H])[H])[N+]([H])([H])C([H])(C([H])([H])C([H])([H])C([H])([H])C([H])([H])[N+]([H])([H])[H])C([H])(N([H])C(=O)N3C([H])([H])C([H])([H])C([H])([H])C([H])(n4nc(-c5c([H])c([H])c(Oc6c([H])c([H])c(F)c([H])c6F)c([H])c5[H])c(C(=O)N([H])[H])c4N([H])[H])C3([H])[H])C([H])([H])C([H])(C([H])([H])[H])C([H])([H])[H])c([H])c([H])c2C1([H])[H]

$$$$
22:0:0
     RDKit          3D

 94103  0  0  1  0  0  0  0  0999 V2000
  -30.2080  -24.5410   21.6060 C   0  0  0  0  0  1  0  0  0  0  0  0
  -29.2130  -23.8570   20.6530 C   0  0  0  0  0  3  0  0  0  0  0  0
  -25.7800  -23.6710   19.7600 C   0  0  0  0  0  2  0  0  0  0  0  0
  -25.7580  -23.8570   21.2780 C   0  0  0  0  0  2  0  0  0  0  0  0
  -27.1660  -24.1230   19.2660 C   0  0  0  0  0  2  0  0  0  0  0  0
  -26.9730  -24.7190   21.6580 C   0  0  0  0  0  2  0  0  0  0  0  0
  -27.9270  -24.8290   20.4290 C   0  0  1  0  0  0  0  0  0  0  0  0
  -28.2020  -26.3170   20.1870 O   0  0  0  0  0  0  0  0  0  0  0  0
  -24.6090  -31.8680   23.2490 C   0  0  0  0  0  0  0  0  0  0  0  0
  -27.1470  -27.2730   20.1260 C   0  0  0  0  0  0  0  0  0  0  0  0
  -23.3860  -30.4880   21.6180 C   0  0  0  0  0  3  0  0  0  0  0  0
  -24.8160  -28.9620   20.1590 C   0  0  0  0  0  0  0  0  0  0  0  0
  -25.9360  -30.7780   21.4240 C   0  0  0  0  0  2  0  0  0  0  0  0
  -26.0000  -29.4050   20.7600 C   0  0  0  0  0  0  0  0  0  0  0  0
  -27.1700  -28.5720   20.7440 C   0  0  0  0  0  3  0  0  0  0  0  0
  -25.9510  -26.9510   19.4510 C   0  0  0  0  0  3  0  0  0  0  0  0
  -24.7960  -27.7370   19.4950 C   0  0  0  0  0  3  0  0  0  0  0  0
  -23.5840  -29.8390   20.2290 C   0  0  0  0  0  2  0  0  0  0  0  0
  -24.6630  -31.0610   22.1520 N   0  0  0  0  0  0  0  0  0  0  0  0
  -23.5290  -32.1490   23.7910 O   0  0  0  0  0  0  0  0  0  0  0  0
  -22.7300  -29.4580   22.5700 C   0  0  0  0  0  0  0  0  0  0  0  0
  -21.4020  -29.2830   22.4520 N   0  0  0  0  0  0  0  0  0  0  0  0
  -23.4140  -28.8230   23.3760 O   0  0  0  0  0  0  0  0  0  0  0  0
  -20.9090  -29.8480   21.7760 H   0  0  0  0  0  0  0  0  0  0  0  0
  -18.0240  -28.0880   22.9670 C   0  0  0  0  0  0  0  0  0  0  0  0
  -20.5850  -28.3440   23.2250 C   0  0  0  0  0  3  0  0  0  0  0  0
  -20.6830  -26.9130   22.6460 C   0  0  0  0  0  2  0  0  0  0  0  0
  -19.5760  -26.5940   21.6370 C   0  0  0  0  0  2  0  0  0  0  0  0
  -18.1970  -26.7390   22.2880 C   0  0  0  0  0  2  0  0  0  0  0  0
  -19.1470  -28.8490   23.3920 C   0  0  0  0  0  0  0  0  0  0  0  0
  -18.9320  -30.1110   23.9850 C   0  0  0  0  0  3  0  0  0  0  0  0
  -17.6280  -30.6130   24.1600 C   0  0  0  0  0  3  0  0  0  0  0  0
  -16.5210  -29.8480   23.7530 C   0  0  0  0  0  3  0  0  0  0  0  0
  -16.7200  -28.5880   23.1610 C   0  0  0  0  0  3  0  0  0  0  0  0
  -25.8970  -32.4940   23.8600 C   0  0  0  0  0  3  0  0  0  0  0  0
  -26.4210  -31.7160   25.1290 C   0  0  1  0  0  0  0  0  0  0  0  0
  -25.3350  -31.4760   26.2040 C   0  0  0  0  0  1  0  0  0  0  0  0
  -26.9960  -30.3370   24.7310 C   0  0  0  0  0  1  0  0  0  0  0  0
  -27.5800  -32.5050   25.7820 C   0  0  0  0  0  1  0  0  0  0  0  0
  -25.5940  -33.8920   24.1960 N   0  0  0  0  0  0  0  0  0  0  0  0
  -25.9160  -34.9460   23.4360 C   0  0  0  0  0  0  0  0  0  0  0  0
  -26.5710  -34.8460   22.3950 O   0  0  0  0  0  0  0  0  0  0  0  0
  -25.0060  -34.0440   25.0030 H   0  0  0  0  0  0  0  0  0  0  0  0
  -24.1850  -36.7440   23.1120 C   0  0  0  0  0  1  0  0  0  0  0  0
  -25.4360  -36.3340   23.9040 C   0  0  0  0  0  3  0  0  0  0  0  0
  -27.5850  -37.2120   24.7070 C   0  0  0  0  0  1  0  0  0  0  0  0
  -26.4690  -37.3860   23.7810 N   0  0  0  0  0  0  0  0  0  0  0  0
  -26.0650  -38.3060   23.9410 H   0  0  0  0  0  0  0  0  0  0  0  0
  -28.9500  -22.3300   21.1610 C   0  0  0  0  0  2  0  0  0  0  0  0
  -29.6690  -19.7660   18.2980 C   0  0  0  0  0  3  0  0  0  0  0  0
  -29.4210  -20.9750   18.9860 C   0  0  0  0  0  3  0  0  0  0  0  0
  -29.9120  -18.5550   18.9840 C   0  0  0  0  0  3  0  0  0  0  0  0
  -29.6520  -19.7650   21.0750 C   0  0  0  0  0  3  0  0  0  0  0  0
  -29.3880  -21.0140   20.3960 C   0  0  0  0  0  0  0  0  0  0  0  0
  -29.9230  -18.5170   20.3930 C   0  0  0  0  0  0  0  0  0  0  0  0
  -30.3440  -17.1890   21.1410 C   0  0  0  0  0  2  0  0  0  0  0  0
  -30.6220  -14.6960   20.4100 C   0  0  0  0  0  0  0  0  0  0  0  0
  -30.3880  -12.4480   19.3510 C   0  0  0  0  0  2  0  0  0  0  0  0
  -29.4490  -12.5390   18.1290 C   0  0  0  0  0  2  0  0  0  0  0  0
  -27.9790  -12.3710   18.5620 C   0  0  0  0  0  2  0  0  0  0  0  0
  -27.6100  -13.2590   19.7800 C   0  0  0  0  0  3  0  0  0  0  0  0
  -28.6660  -13.1520   20.9000 C   0  0  0  0  0  2  0  0  0  0  0  0
  -29.9680  -13.4930   20.3070 N   0  0  0  0  0  0  0  0  0  0  0  0
  -31.8070  -14.7980   20.0860 O   0  0  0  0  0  0  0  0  0  0  0  0
  -29.8770  -15.8110   20.7180 N   0  0  0  0  0  0  0  0  0  0  0  0
  -28.8940  -15.6370   20.8510 H   0  0  0  0  0  0  0  0  0  0  0  0
  -25.2140  -13.8520   20.4840 C   0  0  0  0  0  0  0  0  0  0  0  0
  -24.1490  -13.0790   20.8540 C   0  0  0  0  0  0  0  0  0  0  0  0
  -24.6160  -11.7270   20.8380 C   0  0  0  0  0  0  0  0  0  0  0  0
  -26.2630  -12.9730   20.2640 N   0  0  0  0  0  0  0  0  0  0  0  0
  -25.9090  -11.6910   20.5410 N   0  0  0  0  0  0  0  0  0  0  0  0
  -23.8930  -10.4640   21.0330 C   0  0  0  0  0  0  0  0  0  0  0  0
  -24.3290   -9.4990   21.9670 C   0  0  0  0  0  3  0  0  0  0  0  0
  -23.6040   -8.3010   22.1480 C   0  0  0  0  0  3  0  0  0  0  0  0
  -22.4300   -8.0600   21.3960 C   0  0  0  0  0  0  0  0  0  0  0  0
  -22.0140   -9.0140   20.4500 C   0  0  0  0  0  3  0  0  0  0  0  0
  -22.7380  -10.2040   20.2670 C   0  0  0  0  0  3  0  0  0  0  0  0
  -21.6770   -6.9150   21.4890 O   0  0  0  0  0  0  0  0  0  0  0  0
  -21.6410   -6.1670   22.6380 C   0  0  0  0  0  0  0  0  0  0  0  0
  -21.2340   -6.7170   23.8730 C   0  0  0  0  0  3  0  0  0  0  0  0
  -21.1470   -5.8960   25.0160 C   0  0  0  0  0  3  0  0  0  0  0  0
  -21.4560   -4.5260   24.9230 C   0  0  0  0  0  0  0  0  0  0  0  0
  -21.8560   -3.9750   23.6920 C   0  0  0  0  0  3  0  0  0  0  0  0
  -21.9460   -4.7930   22.5530 C   0  0  0  0  0  0  0  0  0  0  0  0
  -22.3120   -4.2540   21.3650 F   0  0  0  0  0  0  0  0  0  0  0  0
  -21.3640   -3.7340   26.0170 F   0  0  0  0  0  0  0  0  0  0  0  0
  -22.7470  -13.5520   21.1110 C   0  0  0  0  0  0  0  0  0  0  0  0
  -22.0150  -12.8590   21.9760 N   0  0  0  0  0  0  0  0  0  0  0  0
  -22.3090  -14.5720   20.5790 O   0  0  0  0  0  0  0  0  0  0  0  0
  -22.3820  -12.0330   22.4250 H   0  0  0  0  0  0  0  0  0  0  0  0
  -21.0750  -13.1580   22.1930 H   0  0  0  0  0  0  0  0  0  0  0  0
  -25.3760  -15.2210   20.2940 N   0  0  0  0  0  0  0  0  0  0  0  0
  -24.6060  -15.8740   20.3890 H   0  0  0  0  0  0  0  0  0  0  0  0
  -26.2180  -15.6550   19.9400 H   0  0  0  0  0  0  0  0  0  0  0  0
  2 49  1  0
  2  1  1  0
  3  4  1  0
  4  6  1  0
  5  3  1  0
  5  7  1  0
  7  2  1  0
  7  6  1  0
  7  8  1  6
  9 20  2  0
 10  8  1  0
 10 15  1  0
 11 19  1  0
 11 21  1  0
 12 18  1  0
 12 14  1  0
 13 19  1  0
 14 13  1  0
 15 14  2  0
 16 17  1  0
 16 10  2  0
 17 12  2  0
 18 11  1  0
 19  9  1  0
 21 23  2  0
 22 21  1  0
 24 22  1  0
 25 34  2  0
 25 30  1  0
 26 22  1  0
 26 30  1  0
 27 26  1  0
 28 29  1  0
 28 27  1  0
 29 25  1  0
 30 31  2  0
 31 32  1  0
 33 32  2  0
 34 33  1  0
 35  9  1  0
 35 40  1  0
 35 36  1  0
 36 39  1  1
 36 37  1  0
 38 36  1  0
 40 43  1  0
 41 45  1  0
 41 40  1  0
 42 41  2  0
 45 44  1  0
 47 45  1  0
 47 48  1  0
 47 46  1  0
 50 52  2  0
 50 51  1  0
 51 54  2  0
 52 55  1  0
 54 53  1  0
 54 49  1  0
 55 53  2  0
 55 56  1  0
 57 65  1  0
 58 63  1  0
 59 60  1  0
 59 58  1  0
 61 60  1  0
 61 70  1  0
 61 62  1  0
 63 57  1  0
 63 62  1  0
 64 57  2  0
 65 66  1  0
 65 56  1  0
 67 68  2  0
 68 87  1  0
 69 68  1  0
 69 72  1  0
 70 67  1  0
 70 71  1  0
 71 69  2  0
 72 73  1  0
 73 74  2  0
 75 78  1  0
 75 74  1  0
 76 75  2  0
 77 76  1  0
 77 72  2  0
 78 79  1  0
 79 80  1  0
 80 81  2  0
 82 81  1  0
 82 86  1  0
 83 82  2  0
 84 79  2  0
 84 83  1  0
 85 84  1  0
 87 88  1  0
 88 91  1  0
 88 90  1  0
 89 87  2  0
 92 93  1  0
 92 67  1  0
 94 92  1  0
M  ISO  4   7 101   8 101  57 100  65 100
M  END
>  <TORSDO>  (23) 
F 20

>  <SCORE>  (23) 
-14.180

>  <name>  (23) 
22

>  <ligand_id>  (23) 
22

>  <original_smiles>  (23) 
[H]c1c([H])c([H])c2c(c1[H])C([H])([H])C([H])([H])C([H])([H])C2([H])N([H])C(=O)C1([H])N(C(=O)C([H])(N([H])C(=O)C([H])(N([H])C([H])([H])[H])C([H])([H])[H])C(C([H])([H])[H])(C([H])([H])[H])C([H])([H])[H])C([H])([H])c2c([H])c(OC3(C([H])(C([H])([H])[H])C([H])([H])c4c([H])c([H])c([H])c(C([H])([H])N([H])C(=O)N5C([H])([H])C([H])([H])C([H])([H])C([H])(n6nc(-c7c([H])c([H])c(Oc8c([H])c([H])c(F)c([H])c8F)c([H])c7[H])c(C(=O)N([H])[H])c6N([H])[H])C5([H])[H])c4[H])C([H])([H])C([H])([H])C([H])([H])C3([H])[H])c([H])c([H])c2C1([H])[H]

>  <smiles>  (23) 
[H]c1c([H])c([H])c2c(c1[H])C([H])([H])C([H])([H])C([H])([H])C2([H])N([H])C(=O)C1([H])N(C(=O)C([H])(N([H])C(=O)C([H])(N([H])C([H])([H])[H])C([H])([H])[H])C(C([H])([H])[H])(C([H])([H])[H])C([H])([H])[H])C([H])([H])c2c([H])c(OC3(C([H])(C([H])([H])[H])C([H])([H])c4c([H])c([H])c([H])c(C([H])([H])N([H])C(=O)N5C([H])([H])C([H])([H])C([H])([H])C([H])(n6nc(-c7c([H])c([H])c(Oc8c([H])c([H])c(F)c([H])c8F)c([H])c7[H])c(C(=O)N([H])[H])c6N([H])[H])C5([H])[H])c4[H])C([H])([H])C([H])([H])C([H])([H])C3([H])[H])c([H])c([H])c2C1([H])[H]

$$$$
23:0:0
     RDKit          3D

 94101  0  0  1  0  0  0  0  0999 V2000
  -30.7230  -21.2340   20.7340 N   0  0  0  0  0  4  0  0  0  0  0  0
  -31.4860  -21.7970   20.3940 H   0  0  0  0  0  0  0  0  0  0  0  0
  -30.3940  -20.6590   19.9770 H   0  0  0  0  0  0  0  0  0  0  0  0
  -31.2060  -20.3850   21.8420 C   0  0  0  0  0  2  0  0  0  0  0  0
  -32.4610  -19.5420   21.4970 C   0  0  0  0  0  2  0  0  0  0  0  0
  -32.2090  -18.1910   20.7800 C   0  0  0  0  0  2  0  0  0  0  0  0
  -31.8720  -16.9760   21.7080 C   0  0  0  0  0  3  0  0  0  0  0  0
  -32.1950  -14.7700   20.4220 C   0  0  0  0  0  0  0  0  0  0  0  0
  -31.7580  -12.6310   19.2660 C   0  0  0  0  0  2  0  0  0  0  0  0
  -30.8970  -12.8880   18.0120 C   0  0  0  0  0  2  0  0  0  0  0  0
  -29.3960  -12.9460   18.3680 C   0  0  0  0  0  2  0  0  0  0  0  0
  -29.0950  -13.8660   19.5840 C   0  0  0  0  0  3  0  0  0  0  0  0
  -30.0430  -13.5120   20.7450 C   0  0  0  0  0  2  0  0  0  0  0  0
  -31.4260  -13.6680   20.2470 N   0  0  0  0  0  0  0  0  0  0  0  0
  -33.3710  -14.8590   20.0530 O   0  0  0  0  0  0  0  0  0  0  0  0
  -31.5020  -15.7880   20.9450 N   0  0  0  0  0  0  0  0  0  0  0  0
  -30.5220  -15.5630   21.0330 H   0  0  0  0  0  0  0  0  0  0  0  0
  -26.7550  -14.7830   20.1220 C   0  0  0  0  0  0  0  0  0  0  0  0
  -25.5840  -14.1610   20.4500 C   0  0  0  0  0  0  0  0  0  0  0  0
  -25.8720  -12.7610   20.4790 C   0  0  0  0  0  0  0  0  0  0  0  0
  -27.6960  -13.7740   19.9800 N   0  0  0  0  0  0  0  0  0  0  0  0
  -27.1630  -12.5530   20.2500 N   0  0  0  0  0  0  0  0  0  0  0  0
  -24.9810  -11.6090   20.6520 C   0  0  0  0  0  0  0  0  0  0  0  0
  -25.2220  -10.6340   21.6420 C   0  0  0  0  0  3  0  0  0  0  0  0
  -24.3400   -9.5430   21.7950 C   0  0  0  0  0  3  0  0  0  0  0  0
  -23.2030   -9.4240   20.9640 C   0  0  0  0  0  0  0  0  0  0  0  0
  -22.9780  -10.3880   19.9680 C   0  0  0  0  0  3  0  0  0  0  0  0
  -23.8590  -11.4710   19.8090 C   0  0  0  0  0  3  0  0  0  0  0  0
  -22.3080   -8.3830   21.0280 O   0  0  0  0  0  0  0  0  0  0  0  0
  -22.0270   -7.7510   22.2120 C   0  0  0  0  0  0  0  0  0  0  0  0
  -21.5470   -8.4540   23.3380 C   0  0  0  0  0  3  0  0  0  0  0  0
  -21.2040   -7.7540   24.5110 C   0  0  0  0  0  3  0  0  0  0  0  0
  -21.3300   -6.3520   24.5600 C   0  0  0  0  0  0  0  0  0  0  0  0
  -21.8000   -5.6480   23.4380 C   0  0  0  0  0  3  0  0  0  0  0  0
  -22.1400   -6.3450   22.2650 C   0  0  0  0  0  0  0  0  0  0  0  0
  -22.5720   -5.6590   21.1800 F   0  0  0  0  0  0  0  0  0  0  0  0
  -20.9940   -5.6800   25.6880 F   0  0  0  0  0  0  0  0  0  0  0  0
  -24.2470  -14.8190   20.6350 C   0  0  0  0  0  0  0  0  0  0  0  0
  -23.4090  -14.2660   21.5060 N   0  0  0  0  0  0  0  0  0  0  0  0
  -23.9610  -15.8590   20.0450 O   0  0  0  0  0  0  0  0  0  0  0  0
  -23.6660  -13.4310   22.0170 H   0  0  0  0  0  0  0  0  0  0  0  0
  -22.4980  -14.6750   21.6630 H   0  0  0  0  0  0  0  0  0  0  0  0
  -27.0800  -16.1170   19.9110 N   0  0  0  0  0  0  0  0  0  0  0  0
  -26.3530  -16.8220   19.9430 H   0  0  0  0  0  0  0  0  0  0  0  0
  -27.9490  -16.4660   19.5330 H   0  0  0  0  0  0  0  0  0  0  0  0
  -29.3190  -17.3430   21.9840 C   0  0  0  0  0  1  0  0  0  0  0  0
  -30.6800  -17.1550   22.7060 C   0  0  0  0  0  3  0  0  0  0  0  0
  -29.8320  -18.1640   24.9350 C   0  0  0  0  0  1  0  0  0  0  0  0
  -30.9500  -18.1350   23.8750 C   0  0  0  0  0  2  0  0  0  0  0  0
  -29.6290  -22.1430   21.1460 C   0  0  0  0  0  2  0  0  0  0  0  0
  -29.2290  -23.1210   20.0300 C   0  0  0  0  0  2  0  0  0  0  0  0
  -28.3590  -24.2820   20.5460 C   0  0  0  0  0  2  0  0  0  0  0  0
  -28.2030  -25.3920   19.4910 C   0  0  0  0  0  2  0  0  0  0  0  0
  -28.0610  -26.6520   20.1310 O   0  0  0  0  0  0  0  0  0  0  0  0
  -24.4820  -31.8430   23.3240 C   0  0  0  0  0  0  0  0  0  0  0  0
  -26.8560  -27.3180   20.1690 C   0  0  0  0  0  0  0  0  0  0  0  0
  -23.1680  -30.4930   21.7180 C   0  0  0  0  0  3  0  0  0  0  0  0
  -24.5080  -28.8930   20.2570 C   0  0  0  0  0  0  0  0  0  0  0  0
  -25.6950  -30.7520   21.4400 C   0  0  0  0  0  2  0  0  0  0  0  0
  -25.6990  -29.3790   20.8040 C   0  0  0  0  0  0  0  0  0  0  0  0
  -26.8680  -28.5960   20.7610 C   0  0  0  0  0  3  0  0  0  0  0  0
  -25.6420  -26.8240   19.6360 C   0  0  0  0  0  3  0  0  0  0  0  0
  -24.4730  -27.6100   19.6810 C   0  0  0  0  0  3  0  0  0  0  0  0
  -23.3030  -29.8020   20.3370 C   0  0  0  0  0  2  0  0  0  0  0  0
  -24.4690  -31.0420   22.2200 N   0  0  0  0  0  0  0  0  0  0  0  0
  -23.4310  -32.1550   23.9000 O   0  0  0  0  0  0  0  0  0  0  0  0
  -22.5030  -29.5020   22.6990 C   0  0  0  0  0  0  0  0  0  0  0  0
  -21.1820  -29.3150   22.5570 N   0  0  0  0  0  0  0  0  0  0  0  0
  -23.1750  -28.8990   23.5400 O   0  0  0  0  0  0  0  0  0  0  0  0
  -20.7000  -29.8490   21.8450 H   0  0  0  0  0  0  0  0  0  0  0  0
  -17.8120  -28.0850   22.9730 C   0  0  0  0  0  0  0  0  0  0  0  0
  -20.3520  -28.4050   23.3450 C   0  0  0  0  0  3  0  0  0  0  0  0
  -20.5050  -26.9480   22.8480 C   0  0  0  0  0  2  0  0  0  0  0  0
  -19.4550  -26.5530   21.8080 C   0  0  0  0  0  2  0  0  0  0  0  0
  -18.0430  -26.7050   22.3800 C   0  0  0  0  0  2  0  0  0  0  0  0
  -18.8980  -28.8880   23.4120 C   0  0  0  0  0  0  0  0  0  0  0  0
  -18.6320  -30.1780   23.9210 C   0  0  0  0  0  3  0  0  0  0  0  0
  -17.3140  -30.6630   24.0040 C   0  0  0  0  0  3  0  0  0  0  0  0
  -16.2410  -29.8530   23.5920 C   0  0  0  0  0  3  0  0  0  0  0  0
  -16.4920  -28.5690   23.0790 C   0  0  0  0  0  3  0  0  0  0  0  0
  -25.8130  -32.4200   23.8990 C   0  0  0  0  0  3  0  0  0  0  0  0
  -26.3490  -31.6120   25.1450 C   0  0  1  0  0  0  0  0  0  0  0  0
  -25.2890  -31.3850   26.2480 C   0  0  0  0  0  1  0  0  0  0  0  0
  -26.8760  -30.2270   24.7080 C   0  0  0  0  0  1  0  0  0  0  0  0
  -27.5480  -32.3560   25.7780 C   0  0  0  0  0  1  0  0  0  0  0  0
  -25.5730  -33.8220   24.2600 N   0  0  0  0  0  0  0  0  0  0  0  0
  -25.9190  -34.8730   23.5040 C   0  0  0  0  0  0  0  0  0  0  0  0
  -26.5480  -34.7580   22.4490 O   0  0  0  0  0  0  0  0  0  0  0  0
  -25.0190  -33.9830   25.0880 H   0  0  0  0  0  0  0  0  0  0  0  0
  -24.2400  -36.7230   23.2340 C   0  0  0  0  0  1  0  0  0  0  0  0
  -25.4970  -36.2710   23.9930 C   0  0  0  0  0  3  0  0  0  0  0  0
  -27.6900  -37.0680   24.7510 C   0  0  0  0  0  1  0  0  0  0  0  0
  -26.5600  -37.2900   23.8530 N   0  0  0  0  0  0  0  0  0  0  0  0
  -26.1950  -38.2210   24.0320 H   0  0  0  0  0  0  0  0  0  0  0  0
  1 50  1  0
  1  4  1  0
  2  1  1  0
  3  1  1  0
  5  4  1  0
  6  5  1  0
  7  6  1  0
  7 47  1  0
  8 16  1  0
  9 14  1  0
 10 11  1  0
 10  9  1  0
 12 11  1  0
 12 21  1  0
 12 13  1  0
 14  8  1  0
 14 13  1  0
 15  8  2  0
 16 17  1  0
 16  7  1  0
 18 19  2  0
 19 20  1  0
 19 38  1  0
 20 23  1  0
 21 18  1  0
 21 22  1  0
 22 20  2  0
 23 24  1  0
 24 25  2  0
 26 29  1  0
 26 25  1  0
 27 26  2  0
 28 27  1  0
 28 23  2  0
 29 30  1  0
 30 35  2  0
 30 31  1  0
 31 32  2  0
 32 33  1  0
 33 37  1  0
 34 33  2  0
 35 34  1  0
 36 35  1  0
 38 39  1  0
 39 42  1  0
 39 41  1  0
 40 38  2  0
 43 44  1  0
 43 18  1  0
 45 43  1  0
 47 46  1  0
 47 49  1  0
 49 48  1  0
 51 52  1  0
 51 50  1  0
 53 54  1  0
 53 52  1  0
 54 56  1  0
 55 66  2  0
 56 61  1  0
 57 65  1  0
 57 67  1  0
 58 64  1  0
 58 60  1  0
 59 65  1  0
 60 59  1  0
 61 60  2  0
 62 63  1  0
 62 56  2  0
 63 58  2  0
 64 57  1  0
 65 55  1  0
 67 69  2  0
 68 67  1  0
 70 68  1  0
 71 80  2  0
 71 76  1  0
 72 68  1  0
 72 76  1  0
 73 72  1  0
 74 75  1  0
 74 73  1  0
 75 71  1  0
 76 77  2  0
 77 78  1  0
 79 78  2  0
 80 79  1  0
 81 55  1  0
 81 86  1  0
 81 82  1  0
 82 85  1  1
 82 83  1  0
 84 82  1  0
 86 89  1  0
 87 91  1  0
 87 86  1  0
 88 87  2  0
 91 90  1  0
 93 91  1  0
 93 94  1  0
 93 92  1  0
M  ISO  4   8 100  16 100  53 101  54 101
M  END
>  <TORSDO>  (24) 
F 26

>  <SCORE>  (24) 
-6.583

>  <name>  (24) 
23

>  <ligand_id>  (24) 
23

>  <original_smiles>  (24) 
[H]c1c([H])c([H])c2c(c1[H])C([H])([H])C([H])([H])C([H])([H])C2([H])N([H])C(=O)C1([H])N(C(=O)C([H])(N([H])C(=O)C([H])(N([H])C([H])([H])[H])C([H])([H])[H])C(C([H])([H])[H])(C([H])([H])[H])C([H])([H])[H])C([H])([H])c2c([H])c(OC([H])([H])C([H])([H])C([H])([H])C([H])([H])[N+]([H])([H])C([H])([H])C([H])([H])C([H])([H])C([H])(N([H])C(=O)N3C([H])([H])C([H])([H])C([H])([H])C([H])(n4nc(-c5c([H])c([H])c(Oc6c([H])c([H])c(F)c([H])c6F)c([H])c5[H])c(C(=O)N([H])[H])c4N([H])[H])C3([H])[H])C([H])(C([H])([H])[H])C([H])([H])C([H])([H])[H])c([H])c([H])c2C1([H])[H]

>  <smiles>  (24) 
[H]c1c([H])c([H])c2c(c1[H])C([H])([H])C([H])([H])C([H])([H])C2([H])N([H])C(=O)C1([H])N(C(=O)C([H])(N([H])C(=O)C([H])(N([H])C([H])([H])[H])C([H])([H])[H])C(C([H])([H])[H])(C([H])([H])[H])C([H])([H])[H])C([H])([H])c2c([H])c(OC([H])([H])C([H])([H])C([H])([H])C([H])([H])[N+]([H])([H])C([H])([H])C([H])([H])C([H])([H])C([H])(N([H])C(=O)N3C([H])([H])C([H])([H])C([H])([H])C([H])(n4nc(-c5c([H])c([H])c(Oc6c([H])c([H])c(F)c([H])c6F)c([H])c5[H])c(C(=O)N([H])[H])c4N([H])[H])C3([H])[H])C([H])(C([H])([H])[H])C([H])([H])C([H])([H])[H])c([H])c([H])c2C1([H])[H]

$$$$
24:0:0
     RDKit          3D

 97104  0  0  1  0  0  0  0  0999 V2000
  -29.0590  -21.0940   20.4320 N   0  0  0  0  0  4  0  0  0  0  0  0
  -28.7180  -20.6750   21.2820 H   0  0  0  0  0  0  0  0  0  0  0  0
  -28.2540  -21.1460   19.8320 H   0  0  0  0  0  0  0  0  0  0  0  0
  -30.0570  -20.0290   19.9420 C   0  0  0  0  0  3  0  0  0  0  0  0
  -29.5360  -18.5070   20.2250 C   0  0  0  0  0  0  0  0  0  0  0  0
  -28.3820  -18.3160   20.6200 O   0  0  0  0  0  0  0  0  0  0  0  0
  -30.4490  -17.2190   19.9800 C   0  0  0  0  0  2  0  0  0  0  0  0
  -30.5800  -14.6460   20.0940 C   0  0  0  0  0  0  0  0  0  0  0  0
  -30.2480  -12.4310   19.0150 C   0  0  0  0  0  2  0  0  0  0  0  0
  -29.2370  -12.5290   17.8530 C   0  0  0  0  0  2  0  0  0  0  0  0
  -27.8010  -12.3520   18.3750 C   0  0  0  0  0  2  0  0  0  0  0  0
  -27.4950  -13.2190   19.6250 C   0  0  0  0  0  3  0  0  0  0  0  0
  -28.6200  -13.1170   20.6820 C   0  0  0  0  0  2  0  0  0  0  0  0
  -29.8860  -13.4590   20.0190 N   0  0  0  0  0  0  0  0  0  0  0  0
  -31.7540  -14.6970   19.7240 O   0  0  0  0  0  0  0  0  0  0  0  0
  -29.9090  -15.8270   20.3240 N   0  0  0  0  0  0  0  0  0  0  0  0
  -28.9390  -15.7770   20.6040 H   0  0  0  0  0  0  0  0  0  0  0  0
  -25.1340  -13.7810   20.4680 C   0  0  0  0  0  0  0  0  0  0  0  0
  -24.0870  -12.9910   20.8690 C   0  0  0  0  0  0  0  0  0  0  0  0
  -24.5570  -11.6470   20.7950 C   0  0  0  0  0  0  0  0  0  0  0  0
  -26.1740  -12.9140   20.1740 N   0  0  0  0  0  0  0  0  0  0  0  0
  -25.8360  -11.6230   20.4360 N   0  0  0  0  0  0  0  0  0  0  0  0
  -23.8470  -10.3750   20.9930 C   0  0  0  0  0  0  0  0  0  0  0  0
  -24.3130   -9.4020   21.9050 C   0  0  0  0  0  3  0  0  0  0  0  0
  -23.6020   -8.1970   22.0930 C   0  0  0  0  0  3  0  0  0  0  0  0
  -22.4110   -7.9540   21.3690 C   0  0  0  0  0  0  0  0  0  0  0  0
  -21.9630   -8.9160   20.4450 C   0  0  0  0  0  3  0  0  0  0  0  0
  -22.6750  -10.1130   20.2560 C   0  0  0  0  0  3  0  0  0  0  0  0
  -21.6690   -6.8000   21.4640 O   0  0  0  0  0  0  0  0  0  0  0  0
  -21.6430   -6.0530   22.6140 C   0  0  0  0  0  0  0  0  0  0  0  0
  -21.2340   -6.6040   23.8480 C   0  0  0  0  0  3  0  0  0  0  0  0
  -21.1550   -5.7860   24.9930 C   0  0  0  0  0  3  0  0  0  0  0  0
  -21.4790   -4.4180   24.9060 C   0  0  0  0  0  0  0  0  0  0  0  0
  -21.8810   -3.8670   23.6760 C   0  0  0  0  0  3  0  0  0  0  0  0
  -21.9620   -4.6820   22.5330 C   0  0  0  0  0  0  0  0  0  0  0  0
  -22.3290   -4.1420   21.3460 F   0  0  0  0  0  0  0  0  0  0  0  0
  -21.3970   -3.6290   26.0030 F   0  0  0  0  0  0  0  0  0  0  0  0
  -22.6990  -13.4560   21.2030 C   0  0  0  0  0  0  0  0  0  0  0  0
  -22.0140  -12.7460   22.0970 N   0  0  0  0  0  0  0  0  0  0  0  0
  -22.2300  -14.4800   20.7100 O   0  0  0  0  0  0  0  0  0  0  0  0
  -22.4030  -11.9130   22.5100 H   0  0  0  0  0  0  0  0  0  0  0  0
  -21.0890  -13.0460   22.3660 H   0  0  0  0  0  0  0  0  0  0  0  0
  -25.2800  -15.1530   20.3060 N   0  0  0  0  0  0  0  0  0  0  0  0
  -24.5200  -15.8020   20.4720 H   0  0  0  0  0  0  0  0  0  0  0  0
  -26.1090  -15.6070   19.9430 H   0  0  0  0  0  0  0  0  0  0  0  0
  -30.2550  -20.2690   18.4210 C   0  0  0  0  0  2  0  0  0  0  0  0
  -31.4040  -20.0410   16.2000 C   0  0  0  0  0  1  0  0  0  0  0  0
  -32.7920  -20.7370   18.1380 C   0  0  0  0  0  1  0  0  0  0  0  0
  -31.5780  -19.8850   17.7220 C   0  0  0  0  0  3  0  0  0  0  0  0
  -29.5340  -22.4770   20.9150 C   0  0  0  0  0  3  0  0  0  0  0  0
  -28.8280  -23.7320   18.6420 C   0  0  0  0  0  1  0  0  0  0  0  0
  -29.1270  -23.8840   20.1450 C   0  0  0  0  0  3  0  0  0  0  0  0
  -28.1480  -25.0110   20.7580 C   0  0  0  0  0  2  0  0  0  0  0  0
  -28.2650  -26.4120   20.2580 O   0  0  0  0  0  0  0  0  0  0  0  0
  -24.5640  -31.8800   23.2420 C   0  0  0  0  0  0  0  0  0  0  0  0
  -27.1340  -27.2490   20.2480 C   0  0  0  0  0  0  0  0  0  0  0  0
  -23.3430  -30.4770   21.6150 C   0  0  0  0  0  3  0  0  0  0  0  0
  -24.7800  -28.8820   20.2080 C   0  0  0  0  0  0  0  0  0  0  0  0
  -25.8810  -30.7590   21.4340 C   0  0  0  0  0  2  0  0  0  0  0  0
  -25.9500  -29.3710   20.8010 C   0  0  0  0  0  0  0  0  0  0  0  0
  -27.1330  -28.5670   20.8020 C   0  0  0  0  0  3  0  0  0  0  0  0
  -25.9400  -26.8130   19.6280 C   0  0  0  0  0  3  0  0  0  0  0  0
  -24.7740  -27.6100   19.6120 C   0  0  0  0  0  3  0  0  0  0  0  0
  -23.5510  -29.7750   20.2440 C   0  0  0  0  0  2  0  0  0  0  0  0
  -24.6140  -31.0560   22.1540 N   0  0  0  0  0  0  0  0  0  0  0  0
  -23.4830  -32.1860   23.7740 O   0  0  0  0  0  0  0  0  0  0  0  0
  -22.6590  -29.4870   22.5880 C   0  0  0  0  0  0  0  0  0  0  0  0
  -21.3300  -29.3340   22.4600 N   0  0  0  0  0  0  0  0  0  0  0  0
  -23.3190  -28.8530   23.4170 O   0  0  0  0  0  0  0  0  0  0  0  0
  -20.8600  -29.8980   21.7650 H   0  0  0  0  0  0  0  0  0  0  0  0
  -17.9210  -28.2270   22.9630 C   0  0  0  0  0  0  0  0  0  0  0  0
  -20.4870  -28.4190   23.2290 C   0  0  0  0  0  3  0  0  0  0  0  0
  -20.5500  -26.9860   22.6520 C   0  0  0  0  0  2  0  0  0  0  0  0
  -19.4370  -26.6950   21.6380 C   0  0  0  0  0  2  0  0  0  0  0  0
  -18.0610  -26.8730   22.2880 C   0  0  0  0  0  2  0  0  0  0  0  0
  -19.0620  -28.9610   23.3870 C   0  0  0  0  0  0  0  0  0  0  0  0
  -18.8800  -30.2320   23.9770 C   0  0  0  0  0  3  0  0  0  0  0  0
  -17.5910  -30.7670   24.1510 C   0  0  0  0  0  3  0  0  0  0  0  0
  -16.4640  -30.0300   23.7440 C   0  0  0  0  0  3  0  0  0  0  0  0
  -16.6310  -28.7640   23.1550 C   0  0  0  0  0  3  0  0  0  0  0  0
  -25.8570  -32.4930   23.8640 C   0  0  0  0  0  3  0  0  0  0  0  0
  -26.3610  -31.7190   25.1440 C   0  0  1  0  0  0  0  0  0  0  0  0
  -25.2600  -31.4990   26.2070 C   0  0  0  0  0  1  0  0  0  0  0  0
  -26.9250  -30.3310   24.7580 C   0  0  0  0  0  1  0  0  0  0  0  0
  -27.5110  -32.5080   25.8120 C   0  0  0  0  0  1  0  0  0  0  0  0
  -25.5640  -33.8930   24.1920 N   0  0  0  0  0  0  0  0  0  0  0  0
  -25.9060  -34.9430   23.4340 C   0  0  0  0  0  0  0  0  0  0  0  0
  -26.5750  -34.8330   22.4020 O   0  0  0  0  0  0  0  0  0  0  0  0
  -24.9600  -34.0470   24.9860 H   0  0  0  0  0  0  0  0  0  0  0  0
  -24.1940  -36.7550   23.0950 C   0  0  0  0  0  1  0  0  0  0  0  0
  -25.4390  -36.3360   23.8930 C   0  0  0  0  0  3  0  0  0  0  0  0
  -27.5880  -37.2020   24.7080 C   0  0  0  0  0  1  0  0  0  0  0  0
  -26.4820  -37.3780   23.7720 N   0  0  0  0  0  0  0  0  0  0  0  0
  -26.0850  -38.3020   23.9250 H   0  0  0  0  0  0  0  0  0  0  0  0
  -29.2510  -22.5070   22.4350 C   0  0  0  0  0  2  0  0  0  0  0  0
  -29.7900  -23.2710   24.8100 C   0  0  0  0  0  1  0  0  0  0  0  0
  -30.1880  -23.3490   23.3200 C   0  0  0  0  0  2  0  0  0  0  0  0
  1 50  1  0
  1  2  1  0
  3  1  1  0
  4 46  1  0
  4  5  1  0
  4  1  1  0
  5  6  2  0
  7  5  1  0
  7 16  1  0
  8 16  1  0
  9 14  1  0
 10 11  1  0
 10  9  1  0
 12 11  1  0
 12 21  1  0
 12 13  1  0
 14  8  1  0
 14 13  1  0
 15  8  2  0
 16 17  1  0
 18 19  2  0
 19 38  1  0
 20 19  1  0
 20 23  1  0
 21 22  1  0
 21 18  1  0
 22 20  2  0
 23 24  1  0
 24 25  2  0
 26 29  1  0
 26 25  1  0
 27 26  2  0
 28 27  1  0
 28 23  2  0
 29 30  1  0
 30 31  1  0
 31 32  2  0
 33 32  1  0
 33 37  1  0
 34 33  2  0
 35 30  2  0
 35 34  1  0
 36 35  1  0
 38 39  1  0
 39 42  1  0
 39 41  1  0
 40 38  2  0
 43 18  1  0
 43 44  1  0
 45 43  1  0
 47 49  1  0
 49 48  1  0
 49 46  1  0
 50 95  1  0
 52 51  1  0
 52 53  1  0
 52 50  1  0
 54 53  1  0
 55 66  2  0
 56 54  1  0
 56 61  1  0
 57 65  1  0
 57 67  1  0
 58 64  1  0
 58 60  1  0
 59 65  1  0
 60 61  2  0
 60 59  1  0
 62 56  2  0
 63 62  1  0
 63 58  2  0
 64 57  1  0
 65 55  1  0
 67 69  2  0
 68 67  1  0
 70 68  1  0
 71 80  2  0
 71 76  1  0
 72 68  1  0
 72 76  1  0
 73 72  1  0
 74 75  1  0
 74 73  1  0
 75 71  1  0
 76 77  2  0
 77 78  1  0
 79 78  2  0
 80 79  1  0
 81 55  1  0
 81 86  1  0
 81 82  1  0
 82 85  1  1
 82 83  1  0
 84 82  1  0
 86 89  1  0
 87 91  1  0
 87 86  1  0
 88 87  2  0
 91 90  1  0
 93 91  1  0
 93 94  1  0
 93 92  1  0
 95 97  1  0
 97 96  1  0
M  ISO  4   8 100  16 100  53 101  54 101
M  END
>  <TORSDO>  (25) 
F 26

>  <SCORE>  (25) 
-11.234

>  <name>  (25) 
24

>  <ligand_id>  (25) 
24

>  <original_smiles>  (25) 
[H]c1c([H])c([H])c2c(c1[H])C([H])([H])C([H])([H])C([H])([H])C2([H])N([H])C(=O)C1([H])N(C(=O)C([H])(N([H])C(=O)C([H])(N([H])C([H])([H])[H])C([H])([H])[H])C(C([H])([H])[H])(C([H])([H])[H])C([H])([H])[H])C([H])([H])c2c([H])c(OC([H])([H])C([H])(C([H])([H])[H])C([H])(C([H])([H])C([H])([H])C([H])([H])[H])[N+]([H])([H])C([H])(C(=O)C([H])([H])N([H])C(=O)N3C([H])([H])C([H])([H])C([H])([H])C([H])(n4nc(-c5c([H])c([H])c(Oc6c([H])c([H])c(F)c([H])c6F)c([H])c5[H])c(C(=O)N([H])[H])c4N([H])[H])C3([H])[H])C([H])([H])C([H])(C([H])([H])[H])C([H])([H])[H])c([H])c([H])c2C1([H])[H]

>  <smiles>  (25) 
[H]c1c([H])c([H])c2c(c1[H])C([H])([H])C([H])([H])C([H])([H])C2([H])N([H])C(=O)C1([H])N(C(=O)C([H])(N([H])C(=O)C([H])(N([H])C([H])([H])[H])C([H])([H])[H])C(C([H])([H])[H])(C([H])([H])[H])C([H])([H])[H])C([H])([H])c2c([H])c(OC([H])([H])C([H])(C([H])([H])[H])C([H])(C([H])([H])C([H])([H])C([H])([H])[H])[N+]([H])([H])C([H])(C(=O)C([H])([H])N([H])C(=O)N3C([H])([H])C([H])([H])C([H])([H])C([H])(n4nc(-c5c([H])c([H])c(Oc6c([H])c([H])c(F)c([H])c6F)c([H])c5[H])c(C(=O)N([H])[H])c4N([H])[H])C3([H])[H])C([H])([H])C([H])(C([H])([H])[H])C([H])([H])[H])c([H])c([H])c2C1([H])[H]

$$$$
25:0:0
     RDKit          3D

 91 95  0  0  1  0  0  0  0  0999 V2000
  -29.0290  -21.7170   19.6920 C   0  0  0  0  0  2  0  0  0  0  0  0
  -29.6810  -21.7960   18.3670 N   0  0  0  0  0  4  0  0  0  0  0  0
  -30.6380  -22.0920   18.4590 H   0  0  0  0  0  0  0  0  0  0  0  0
  -29.2120  -22.4580   17.7740 H   0  0  0  0  0  0  0  0  0  0  0  0
  -29.6730  -20.9030   17.9080 H   0  0  0  0  0  0  0  0  0  0  0  0
  -29.7580  -19.8330   20.3170 C   0  0  0  0  0  1  0  0  0  0  0  0
  -30.4520  -16.4570   20.1150 C   0  0  0  0  0  0  0  0  0  0  0  0
  -30.6680  -13.8130   19.3450 C   0  0  0  0  0  2  0  0  0  0  0  0
  -29.8270  -13.1900   18.1830 C   0  0  0  0  0  2  0  0  0  0  0  0
  -28.4380  -12.7520   18.6630 C   0  0  0  0  0  2  0  0  0  0  0  0
  -27.8610  -13.7930   19.6410 C   0  0  0  0  0  3  0  0  0  0  0  0
  -28.8600  -14.2960   20.7200 C   0  0  0  0  0  2  0  0  0  0  0  0
  -29.9610  -15.0320   20.0180 N   0  0  0  0  0  0  0  0  0  0  0  0
  -31.6970  -16.3170   20.0540 O   0  0  0  0  0  0  0  0  0  0  0  0
  -29.7080  -17.9290   20.1050 N   0  0  0  0  0  0  0  0  0  0  0  0
  -28.7300  -17.6920   20.0260 H   0  0  0  0  0  0  0  0  0  0  0  0
  -25.5090  -14.2970   20.4290 C   0  0  0  0  0  0  0  0  0  0  0  0
  -24.4510  -13.5150   20.7860 C   0  0  0  0  0  0  0  0  0  0  0  0
  -24.9200  -12.1640   20.7380 C   0  0  0  0  0  0  0  0  0  0  0  0
  -26.5550  -13.4310   20.1740 N   0  0  0  0  0  0  0  0  0  0  0  0
  -26.2150  -12.1360   20.4230 N   0  0  0  0  0  0  0  0  0  0  0  0
  -24.1870  -10.9010   20.9130 C   0  0  0  0  0  0  0  0  0  0  0  0
  -24.5960   -9.9310   21.8540 C   0  0  0  0  0  3  0  0  0  0  0  0
  -23.8570   -8.7380   22.0210 C   0  0  0  0  0  3  0  0  0  0  0  0
  -22.6960   -8.5080   21.2490 C   0  0  0  0  0  0  0  0  0  0  0  0
  -22.3030   -9.4680   20.2980 C   0  0  0  0  0  3  0  0  0  0  0  0
  -23.0430  -10.6500   20.1280 C   0  0  0  0  0  3  0  0  0  0  0  0
  -21.9300   -7.3700   21.3260 O   0  0  0  0  0  0  0  0  0  0  0  0
  -21.8420   -6.6350   22.4820 C   0  0  0  0  0  0  0  0  0  0  0  0
  -21.3800   -7.2030   23.6900 C   0  0  0  0  0  3  0  0  0  0  0  0
  -21.2400   -6.3960   24.8370 C   0  0  0  0  0  3  0  0  0  0  0  0
  -21.5510   -5.0250   24.7780 C   0  0  0  0  0  0  0  0  0  0  0  0
  -22.0050   -4.4580   23.5740 C   0  0  0  0  0  3  0  0  0  0  0  0
  -22.1470   -5.2600   22.4290 C   0  0  0  0  0  0  0  0  0  0  0  0
  -22.5650   -4.7040   21.2670 F   0  0  0  0  0  0  0  0  0  0  0  0
  -21.4080   -4.2480   25.8770 F   0  0  0  0  0  0  0  0  0  0  0  0
  -23.0540  -13.9920   21.0520 C   0  0  0  0  0  0  0  0  0  0  0  0
  -22.3210  -13.2960   21.9120 N   0  0  0  0  0  0  0  0  0  0  0  0
  -22.6230  -15.0210   20.5310 O   0  0  0  0  0  0  0  0  0  0  0  0
  -22.6810  -12.4650   22.3540 H   0  0  0  0  0  0  0  0  0  0  0  0
  -21.3830  -13.6010   22.1330 H   0  0  0  0  0  0  0  0  0  0  0  0
  -25.6700  -15.6700   20.2630 N   0  0  0  0  0  0  0  0  0  0  0  0
  -24.9020  -16.3210   20.3800 H   0  0  0  0  0  0  0  0  0  0  0  0
  -26.5120  -16.1110   19.9200 H   0  0  0  0  0  0  0  0  0  0  0  0
  -28.8380  -23.7590   20.1900 C   0  0  0  0  0 15  0  0  0  0  0  0
  -28.4890  -25.5870   19.7890 O   0  0  0  0  0  1  0  0  0  0  0  0
  -24.7650  -31.9510   23.0130 C   0  0  0  0  0  0  0  0  0  0  0  0
  -27.4480  -26.8310   19.9150 C   0  0  0  0  0  0  0  0  0  0  0  0
  -23.6130  -30.5290   21.3790 C   0  0  0  0  0  3  0  0  0  0  0  0
  -25.1050  -28.9180   19.9300 C   0  0  0  0  0  0  0  0  0  0  0  0
  -26.1940  -30.7190   21.2310 C   0  0  0  0  0  2  0  0  0  0  0  0
  -26.3050  -29.2720   20.5550 C   0  0  0  0  0  0  0  0  0  0  0  0
  -27.4480  -28.2690   20.5010 C   0  0  0  0  0  3  0  0  0  0  0  0
  -26.1910  -26.7490   19.2390 C   0  0  0  0  0  3  0  0  0  0  0  0
  -25.0990  -27.6880   19.2450 C   0  0  0  0  0  3  0  0  0  0  0  0
  -23.8690  -29.8470   20.0000 C   0  0  0  0  0  2  0  0  0  0  0  0
  -24.8840  -31.1050   21.9260 N   0  0  0  0  0  0  0  0  0  0  0  0
  -23.6650  -32.2020   23.5410 O   0  0  0  0  0  0  0  0  0  0  0  0
  -22.9370  -29.5230   22.3540 C   0  0  0  0  0  0  0  0  0  0  0  0
  -21.6050  -29.3300   22.2570 N   0  0  0  0  0  0  0  0  0  0  0  0
  -23.6260  -28.9130   23.1740 O   0  0  0  0  0  0  0  0  0  0  0  0
  -21.0920  -29.8750   21.5770 H   0  0  0  0  0  0  0  0  0  0  0  0
  -18.2720  -27.9950   22.8560 C   0  0  0  0  0  0  0  0  0  0  0  0
  -20.8300  -28.3490   23.0310 C   0  0  0  0  0  3  0  0  0  0  0  0
  -20.9570  -26.9350   22.4160 C   0  0  0  0  0  2  0  0  0  0  0  0
  -19.8310  -26.6030   21.4300 C   0  0  0  0  0  2  0  0  0  0  0  0
  -18.4710  -26.6760   22.1270 C   0  0  0  0  0  2  0  0  0  0  0  0
  -19.3780  -28.7870   23.2650 C   0  0  0  0  0  0  0  0  0  0  0  0
  -19.1330  -30.0140   23.9170 C   0  0  0  0  0  3  0  0  0  0  0  0
  -17.8170  -30.4540   24.1570 C   0  0  0  0  0  3  0  0  0  0  0  0
  -16.7270  -29.6610   23.7570 C   0  0  0  0  0  3  0  0  0  0  0  0
  -16.9550  -28.4330   23.1130 C   0  0  0  0  0  3  0  0  0  0  0  0
  -26.0000  -32.6570   23.6500 C   0  0  0  0  0  3  0  0  0  0  0  0
  -26.5620  -31.8920   24.9130 C   0  0  1  0  0  0  0  0  0  0  0  0
  -25.4920  -31.5880   25.9890 C   0  0  0  0  0  1  0  0  0  0  0  0
  -27.2040  -30.5470   24.5080 C   0  0  0  0  0  1  0  0  0  0  0  0
  -27.6820  -32.7270   25.5760 C   0  0  0  0  0  1  0  0  0  0  0  0
  -25.6080  -34.0290   24.0420 N   0  0  0  0  0  0  0  0  0  0  0  0
  -25.8650  -35.1430   23.3390 C   0  0  0  0  0  0  0  0  0  0  0  0
  -26.5060  -35.1250   22.2870 O   0  0  0  0  0  0  0  0  0  0  0  0
  -25.0270  -34.1090   24.8640 H   0  0  0  0  0  0  0  0  0  0  0  0
  -24.0290  -36.8640   23.1590 C   0  0  0  0  0  1  0  0  0  0  0  0
  -25.3300  -36.4870   23.8860 C   0  0  0  0  0  3  0  0  0  0  0  0
  -27.4520  -37.4630   24.6490 C   0  0  0  0  0  1  0  0  0  0  0  0
  -26.2970  -37.6010   23.7670 N   0  0  0  0  0  0  0  0  0  0  0  0
  -25.8490  -38.4910   23.9670 H   0  0  0  0  0  0  0  0  0  0  0  0
  -27.5210  -21.3580   19.5020 C   0  0  0  0  0  3  0  0  0  0  0  0
  -25.7650  -23.2280   20.2510 C   0  0  0  0  0  1  0  0  0  0  0  0
  -26.6890  -22.0520   20.6240 C   0  0  0  0  0  2  0  0  0  0  0  0
  -25.9090  -20.5580   17.6330 C   0  0  0  0  0  1  0  0  0  0  0  0
  -26.9870  -21.5700   18.0500 C   0  0  0  0  0  2  0  0  0  0  0  0
  2  3  1  0
  2  1  1  0
  4  2  1  0
  5  2  1  0
  8 13  1  0
  9 10  1  0
  9  8  1  0
 11 10  1  0
 11 20  1  0
 11 12  1  0
 13  7  1  0
 13 12  1  0
 14  7  2  0
 15  7  1  0
 15  6  1  0
 16 15  1  0
 17 18  2  0
 18 37  1  0
 19 18  1  0
 19 22  1  0
 20 21  1  0
 20 17  1  0
 21 19  2  0
 22 23  1  0
 23 24  2  0
 25 28  1  0
 25 24  1  0
 26 25  2  0
 27 26  1  0
 27 22  2  0
 28 29  1  0
 29 30  1  0
 30 31  2  0
 32 31  1  0
 32 36  1  0
 33 32  2  0
 34 29  2  0
 34 33  1  0
 35 34  1  0
 37 38  1  0
 38 41  1  0
 38 40  1  0
 39 37  2  0
 42 43  1  0
 42 17  1  0
 44 42  1  0
 46 48  1  0
 47 58  2  0
 48 53  1  0
 49 57  1  0
 49 59  1  0
 50 56  1  0
 50 52  1  0
 51 57  1  0
 52 51  1  0
 53 52  2  0
 54 55  1  0
 54 48  2  0
 55 50  2  0
 56 49  1  0
 57 47  1  0
 59 61  2  0
 60 59  1  0
 62 60  1  0
 63 72  2  0
 63 68  1  0
 64 60  1  0
 64 68  1  0
 65 64  1  0
 66 67  1  0
 66 65  1  0
 67 63  1  0
 68 69  2  0
 69 70  1  0
 71 70  2  0
 72 71  1  0
 73 47  1  0
 73 78  1  0
 73 74  1  0
 74 77  1  1
 74 75  1  0
 76 74  1  0
 78 81  1  0
 79 83  1  0
 79 78  1  0
 80 79  2  0
 83 82  1  0
 85 83  1  0
 85 86  1  0
 85 84  1  0
 87  1  1  0
 87 89  1  0
 88 89  1  0
 90 91  1  0
 91 87  1  0
M  ISO  4   7 100  15 100  45 101  46 101
M  END
>  <TORSDO>  (26) 
F 22

>  <SCORE>  (26) 
-13.838

>  <name>  (26) 
25

>  <ligand_id>  (26) 
25

>  <original_smiles>  (26) 
[H]c1c([H])c([H])c2c(c1[H])C([H])([H])C([H])([H])C([H])([H])C2([H])N([H])C(=O)C1([H])N(C(=O)C([H])(N([H])C(=O)C([H])(N([H])C([H])([H])[H])C([H])([H])[H])C(C([H])([H])[H])(C([H])([H])[H])C([H])([H])[H])C([H])([H])c2c([H])c(OC([H])([H])C(C([H])([H])N([H])C(=O)N3C([H])([H])C([H])([H])C([H])([H])C([H])(n4nc(-c5c([H])c([H])c(Oc6c([H])c([H])c(F)c([H])c6F)c([H])c5[H])c(C(=O)N([H])[H])c4N([H])[H])C3([H])[H])(C([H])(C([H])([H])C([H])([H])[H])C([H])([H])C([H])([H])[H])[N+]([H])([H])[H])c([H])c([H])c2C1([H])[H]

>  <smiles>  (26) 
[H]c1c([H])c([H])c2c(c1[H])C([H])([H])C([H])([H])C([H])([H])C2([H])N([H])C(=O)C1([H])N(C(=O)C([H])(N([H])C(=O)C([H])(N([H])C([H])([H])[H])C([H])([H])[H])C(C([H])([H])[H])(C([H])([H])[H])C([H])([H])[H])C([H])([H])c2c([H])c(OC([H])([H])C(C([H])([H])N([H])C(=O)N3C([H])([H])C([H])([H])C([H])([H])C([H])(n4nc(-c5c([H])c([H])c(Oc6c([H])c([H])c(F)c([H])c6F)c([H])c5[H])c(C(=O)N([H])[H])c4N([H])[H])C3([H])[H])(C([H])(C([H])([H])C([H])([H])[H])C([H])([H])C([H])([H])[H])[N+]([H])([H])[H])c([H])c([H])c2C1([H])[H]

$$$$
26:0:0
     RDKit          3D

 85 93  0  0  1  0  0  0  0  0999 V2000
  -28.8740  -22.1500   20.4190 C   0  0  0  0  0  0  0  0  0  0  0  0
  -29.7360  -22.3670   21.2770 O   0  0  0  0  0  0  0  0  0  0  0  0
  -30.2920  -15.7910   20.1180 C   0  0  0  0  0  0  0  0  0  0  0  0
  -30.3970  -13.2310   19.2990 C   0  0  0  0  0  2  0  0  0  0  0  0
  -29.5160  -12.8120   18.0870 C   0  0  0  0  0  2  0  0  0  0  0  0
  -28.0960  -12.4410   18.5460 C   0  0  0  0  0  2  0  0  0  0  0  0
  -27.5810  -13.4300   19.6210 C   0  0  0  0  0  3  0  0  0  0  0  0
  -28.6170  -13.7620   20.7220 C   0  0  0  0  0  2  0  0  0  0  0  0
  -29.7580  -14.4200   20.0400 N   0  0  0  0  0  0  0  0  0  0  0  0
  -31.5270  -15.6790   19.9570 O   0  0  0  0  0  0  0  0  0  0  0  0
  -27.8110  -19.2490   20.4570 C   0  0  0  0  0  2  0  0  0  0  0  0
  -28.1540  -17.6350   20.2460 C   0  0  0  0  0  2  0  0  0  0  0  0
  -30.0140  -18.8760   20.1650 C   0  0  0  0  0  2  0  0  0  0  0  0
  -28.8860  -20.3040   19.9500 C   0  0  0  0  0  3  0  0  0  0  0  0
  -29.6070  -17.2240   20.1750 N   0  0  0  0  0  0  0  0  0  0  0  0
  -25.2330  -13.9230   20.4330 C   0  0  0  0  0  0  0  0  0  0  0  0
  -24.1900  -13.1310   20.8120 C   0  0  0  0  0  0  0  0  0  0  0  0
  -24.6750  -11.7860   20.7660 C   0  0  0  0  0  0  0  0  0  0  0  0
  -26.2820  -13.0670   20.1630 N   0  0  0  0  0  0  0  0  0  0  0  0
  -25.9660  -11.7740   20.4360 N   0  0  0  0  0  0  0  0  0  0  0  0
  -23.9650  -10.5150   20.9570 C   0  0  0  0  0  0  0  0  0  0  0  0
  -24.3920   -9.5610   21.9050 C   0  0  0  0  0  3  0  0  0  0  0  0
  -23.6720   -8.3610   22.0900 C   0  0  0  0  0  3  0  0  0  0  0  0
  -22.5110   -8.1030   21.3260 C   0  0  0  0  0  0  0  0  0  0  0  0
  -22.0980   -9.0500   20.3710 C   0  0  0  0  0  3  0  0  0  0  0  0
  -22.8180  -10.2410   20.1840 C   0  0  0  0  0  3  0  0  0  0  0  0
  -21.7630   -6.9530   21.4180 O   0  0  0  0  0  0  0  0  0  0  0  0
  -21.6840   -6.2380   22.5860 C   0  0  0  0  0  0  0  0  0  0  0  0
  -21.1700   -6.8050   23.7740 C   0  0  0  0  0  3  0  0  0  0  0  0
  -21.0450   -6.0130   24.9330 C   0  0  0  0  0  3  0  0  0  0  0  0
  -21.4220   -4.6560   24.9050 C   0  0  0  0  0  0  0  0  0  0  0  0
  -21.9250   -4.0890   23.7210 C   0  0  0  0  0  3  0  0  0  0  0  0
  -22.0540   -4.8790   22.5650 C   0  0  0  0  0  0  0  0  0  0  0  0
  -22.5240   -4.3230   21.4210 F   0  0  0  0  0  0  0  0  0  0  0  0
  -21.2890   -3.8920   26.0140 F   0  0  0  0  0  0  0  0  0  0  0  0
  -22.7900  -13.5920   21.0890 C   0  0  0  0  0  0  0  0  0  0  0  0
  -22.0810  -12.9050   21.9760 N   0  0  0  0  0  0  0  0  0  0  0  0
  -22.3360  -14.6050   20.5540 O   0  0  0  0  0  0  0  0  0  0  0  0
  -22.4640  -12.0900   22.4340 H   0  0  0  0  0  0  0  0  0  0  0  0
  -21.1420  -13.2000   22.2000 H   0  0  0  0  0  0  0  0  0  0  0  0
  -25.3680  -15.2970   20.2600 N   0  0  0  0  0  0  0  0  0  0  0  0
  -24.5810  -15.9250   20.3840 H   0  0  0  0  0  0  0  0  0  0  0  0
  -26.1920  -15.7620   19.9020 H   0  0  0  0  0  0  0  0  0  0  0  0
  -27.9580  -23.7510   19.9870 C   0  0  0  0  0  2  0  0  0  0  0  0
  -28.1390  -25.4960   20.3280 O   0  0  0  0  0  0  0  0  0  0  0  0
  -24.6780  -31.8520   23.2530 C   0  0  0  0  0  0  0  0  0  0  0  0
  -27.1920  -26.7440   20.2480 C   0  0  0  0  0  0  0  0  0  0  0  0
  -23.4900  -30.4630   21.6110 C   0  0  0  0  0  3  0  0  0  0  0  0
  -24.9360  -28.8120   20.1910 C   0  0  0  0  0  0  0  0  0  0  0  0
  -26.0720  -30.5840   21.4990 C   0  0  0  0  0  2  0  0  0  0  0  0
  -26.1300  -29.1520   20.8340 C   0  0  0  0  0  0  0  0  0  0  0  0
  -27.2410  -28.1460   20.8330 C   0  0  0  0  0  3  0  0  0  0  0  0
  -25.9670  -26.6290   19.5390 C   0  0  0  0  0  3  0  0  0  0  0  0
  -24.8950  -27.5770   19.5200 C   0  0  0  0  0  3  0  0  0  0  0  0
  -23.7330  -29.7710   20.2370 C   0  0  0  0  0  2  0  0  0  0  0  0
  -24.7720  -31.0000   22.1730 N   0  0  0  0  0  0  0  0  0  0  0  0
  -23.5840  -32.1530   23.7620 O   0  0  0  0  0  0  0  0  0  0  0  0
  -22.7700  -29.4850   22.5770 C   0  0  0  0  0  0  0  0  0  0  0  0
  -21.4390  -29.3240   22.4430 N   0  0  0  0  0  0  0  0  0  0  0  0
  -23.4230  -28.8630   23.4170 O   0  0  0  0  0  0  0  0  0  0  0  0
  -20.9600  -29.8720   21.7430 H   0  0  0  0  0  0  0  0  0  0  0  0
  -18.0570  -28.0930   22.9420 C   0  0  0  0  0  0  0  0  0  0  0  0
  -20.6120  -28.3860   23.2160 C   0  0  0  0  0  3  0  0  0  0  0  0
  -20.7290  -26.9510   22.6520 C   0  0  0  0  0  2  0  0  0  0  0  0
  -19.6400  -26.6140   21.6300 C   0  0  0  0  0  2  0  0  0  0  0  0
  -18.2510  -26.7450   22.2640 C   0  0  0  0  0  2  0  0  0  0  0  0
  -19.1640  -28.8690   23.3740 C   0  0  0  0  0  0  0  0  0  0  0  0
  -18.9260  -30.1240   23.9740 C   0  0  0  0  0  3  0  0  0  0  0  0
  -17.6160  -30.6060   24.1430 C   0  0  0  0  0  3  0  0  0  0  0  0
  -16.5210  -29.8290   23.7230 C   0  0  0  0  0  3  0  0  0  0  0  0
  -16.7420  -28.5740   23.1280 C   0  0  0  0  0  3  0  0  0  0  0  0
  -25.9380  -32.5040   23.8970 C   0  0  0  0  0  3  0  0  0  0  0  0
  -25.6230  -33.9130   24.2090 N   0  0  0  0  0  0  0  0  0  0  0  0
  -25.9550  -34.9660   23.4500 C   0  0  0  0  0  0  0  0  0  0  0  0
  -26.6130  -34.8560   22.4140 O   0  0  0  0  0  0  0  0  0  0  0  0
  -25.0310  -34.0720   25.0110 H   0  0  0  0  0  0  0  0  0  0  0  0
  -24.2270  -36.7760   23.1290 C   0  0  0  0  0  1  0  0  0  0  0  0
  -25.4870  -36.3660   23.9100 C   0  0  0  0  0  3  0  0  0  0  0  0
  -27.6390  -37.2620   24.6830 C   0  0  0  0  0  1  0  0  0  0  0  0
  -26.5190  -37.4150   23.7580 N   0  0  0  0  0  0  0  0  0  0  0  0
  -26.1200  -38.3390   23.8990 H   0  0  0  0  0  0  0  0  0  0  0  0
  -26.4130  -31.7630   25.2090 C   0  0  1  0  0  0  0  0  0  0  0  0
  -25.2900  -31.5670   26.2550 C   0  0  0  0  0  1  0  0  0  0  0  0
  -26.9900  -30.3680   24.8840 C   0  0  0  0  0  1  0  0  0  0  0  0
  -27.5560  -32.5620   25.8790 C   0  0  0  0  0  1  0  0  0  0  0  0
  1  2  2  0
  3 15  1  0
  4  9  1  0
  5  6  1  0
  5  4  1  0
  7  6  1  0
  7 19  1  0
  7  8  1  0
  9  3  1  0
  9  8  1  0
 10  3  2  0
 12 11  1  0
 13 15  1  0
 14 13  1  0
 14  1  1  0
 14 11  1  0
 15 12  1  0
 16 17  2  0
 17 36  1  0
 18 17  1  0
 18 21  1  0
 19 16  1  0
 19 20  1  0
 20 18  2  0
 21 22  1  0
 22 23  2  0
 24 27  1  0
 24 23  1  0
 25 24  2  0
 26 25  1  0
 26 21  2  0
 27 28  1  0
 28 29  1  0
 29 30  2  0
 31 30  1  0
 31 35  1  0
 32 31  2  0
 33 28  2  0
 33 32  1  0
 34 33  1  0
 36 37  1  0
 37 40  1  0
 37 39  1  0
 38 36  2  0
 41 42  1  0
 41 16  1  0
 43 41  1  0
 44 45  1  0
 44  1  1  0
 46 57  2  0
 47 45  1  0
 47 52  1  0
 48 56  1  0
 48 58  1  0
 49 55  1  0
 49 51  1  0
 50 56  1  0
 51 50  1  0
 52 51  2  0
 53 47  2  0
 54 53  1  0
 54 49  2  0
 55 48  1  0
 56 46  1  0
 58 60  2  0
 59 58  1  0
 61 59  1  0
 62 71  2  0
 62 67  1  0
 63 59  1  0
 63 67  1  0
 64 63  1  0
 65 66  1  0
 65 64  1  0
 66 62  1  0
 67 68  2  0
 68 69  1  0
 70 69  2  0
 71 70  1  0
 72 46  1  0
 72 73  1  0
 72 82  1  0
 73 76  1  0
 74 78  1  0
 74 73  1  0
 75 74  2  0
 78 77  1  0
 80 81  1  0
 80 78  1  0
 80 79  1  0
 82 85  1  1
 82 83  1  0
 84 82  1  0
M  ISO  4   3 100  15 100  44 101  45 101
M  END
>  <TORSDO>  (27) 
F 17

>  <SCORE>  (27) 
-16.382

>  <name>  (27) 
26

>  <ligand_id>  (27) 
26

>  <original_smiles>  (27) 
[H]c1c([H])c([H])c2c(c1[H])C([H])([H])C([H])([H])C([H])([H])C2([H])N([H])C(=O)C1([H])N(C(=O)C([H])(N([H])C(=O)C([H])(N([H])C([H])([H])[H])C([H])([H])[H])C(C([H])([H])[H])(C([H])([H])[H])C([H])([H])[H])C([H])([H])c2c([H])c(OC([H])([H])C(=O)C3([H])C([H])([H])N(C(=O)N4C([H])([H])C([H])([H])C([H])([H])C([H])(n5nc(-c6c([H])c([H])c(Oc7c([H])c([H])c(F)c([H])c7F)c([H])c6[H])c(C(=O)N([H])[H])c5N([H])[H])C4([H])[H])C([H])([H])C3([H])[H])c([H])c([H])c2C1([H])[H]

>  <smiles>  (27) 
[H]c1c([H])c([H])c2c(c1[H])C([H])([H])C([H])([H])C([H])([H])C2([H])N([H])C(=O)C1([H])N(C(=O)C([H])(N([H])C(=O)C([H])(N([H])C([H])([H])[H])C([H])([H])[H])C(C([H])([H])[H])(C([H])([H])[H])C([H])([H])[H])C([H])([H])c2c([H])c(OC([H])([H])C(=O)C3([H])C([H])([H])N(C(=O)N4C([H])([H])C([H])([H])C([H])([H])C([H])(n5nc(-c6c([H])c([H])c(Oc7c([H])c([H])c(F)c([H])c7F)c([H])c6[H])c(C(=O)N([H])[H])c5N([H])[H])C4([H])[H])C([H])([H])C3([H])[H])c([H])c([H])c2C1([H])[H]

$$$$
27:0:0
     RDKit          3D

100108  0  0  1  0  0  0  0  0999 V2000
  -28.3610  -22.5240   20.3350 C   0  0  0  0  0  3  0  0  0  0  0  0
  -31.0190  -21.2630   18.6500 C   0  0  0  0  0  2  0  0  0  0  0  0
  -30.3040  -20.0730   17.9810 C   0  0  0  0  0  2  0  0  0  0  0  0
  -30.7990  -21.3040   20.1720 C   0  0  0  0  0  2  0  0  0  0  0  0
  -30.2880  -18.8180   18.8690 C   0  0  0  0  0  2  0  0  0  0  0  0
  -29.3700  -20.8660   20.5250 C   0  0  0  0  0  3  0  0  0  0  0  0
  -29.4510  -18.9730   20.1630 C   0  0  0  0  0  3  0  0  0  0  0  0
  -30.4960  -16.0860   21.0440 C   0  0  0  0  0  0  0  0  0  0  0  0
  -30.7830  -13.4750   20.6290 C   0  0  0  0  0  2  0  0  0  0  0  0
  -30.1320  -12.9430   19.3190 C   0  0  0  0  0  2  0  0  0  0  0  0
  -28.6530  -12.5940   19.5490 C   0  0  0  0  0  2  0  0  0  0  0  0
  -27.9470  -13.6800   20.3950 C   0  0  0  0  0  3  0  0  0  0  0  0
  -28.7570  -14.1360   21.6330 C   0  0  0  0  0  2  0  0  0  0  0  0
  -30.0300  -14.7060   21.1400 N   0  0  0  0  0  0  0  0  0  0  0  0
  -31.7350  -16.0730   20.9350 O   0  0  0  0  0  0  0  0  0  0  0  0
  -29.6750  -17.3940   20.9410 N   0  0  0  0  0  0  0  0  0  0  0  0
  -28.7650  -17.1370   21.2990 H   0  0  0  0  0  0  0  0  0  0  0  0
  -25.5020  -14.2130   20.8460 C   0  0  0  0  0  0  0  0  0  0  0  0
  -24.3990  -13.4330   21.0440 C   0  0  0  0  0  0  0  0  0  0  0  0
  -24.8620  -12.0810   21.0350 C   0  0  0  0  0  0  0  0  0  0  0  0
  -26.5660  -13.3410   20.7160 N   0  0  0  0  0  0  0  0  0  0  0  0
  -26.1850  -12.0480   20.8970 N   0  0  0  0  0  0  0  0  0  0  0  0
  -24.1090  -10.8200   21.0880 C   0  0  0  0  0  0  0  0  0  0  0  0
  -24.4720   -9.7770   21.9680 C   0  0  0  0  0  3  0  0  0  0  0  0
  -23.7160   -8.5850   22.0180 C   0  0  0  0  0  3  0  0  0  0  0  0
  -22.5820   -8.4280   21.1850 C   0  0  0  0  0  0  0  0  0  0  0  0
  -22.2380   -9.4600   20.2950 C   0  0  0  0  0  3  0  0  0  0  0  0
  -22.9950  -10.6430   20.2430 C   0  0  0  0  0  3  0  0  0  0  0  0
  -21.8050   -7.2950   21.1450 O   0  0  0  0  0  0  0  0  0  0  0  0
  -21.7370   -6.4320   22.2080 C   0  0  0  0  0  0  0  0  0  0  0  0
  -21.3250   -6.8580   23.4900 C   0  0  0  0  0  3  0  0  0  0  0  0
  -21.2000   -5.9240   24.5360 C   0  0  0  0  0  3  0  0  0  0  0  0
  -21.4800   -4.5640   24.3040 C   0  0  0  0  0  0  0  0  0  0  0  0
  -21.8860   -4.1370   23.0270 C   0  0  0  0  0  3  0  0  0  0  0  0
  -22.0110   -5.0680   21.9830 C   0  0  0  0  0  0  0  0  0  0  0  0
  -22.3820   -4.6470   20.7490 F   0  0  0  0  0  0  0  0  0  0  0  0
  -21.3530   -3.6650   25.3070 F   0  0  0  0  0  0  0  0  0  0  0  0
  -22.9810  -13.9160   21.1310 C   0  0  0  0  0  0  0  0  0  0  0  0
  -22.1400  -13.2230   21.8900 N   0  0  0  0  0  0  0  0  0  0  0  0
  -22.6220  -14.9470   20.5640 O   0  0  0  0  0  0  0  0  0  0  0  0
  -22.4390  -12.3910   22.3770 H   0  0  0  0  0  0  0  0  0  0  0  0
  -21.1830  -13.5300   21.9860 H   0  0  0  0  0  0  0  0  0  0  0  0
  -25.6890  -15.5880   20.7350 N   0  0  0  0  0  0  0  0  0  0  0  0
  -24.9100  -16.2370   20.7610 H   0  0  0  0  0  0  0  0  0  0  0  0
  -26.5660  -16.0350   20.5040 H   0  0  0  0  0  0  0  0  0  0  0  0
  -28.5670  -23.1280   21.6850 N   0  0  0  0  0  4  0  0  0  0  0  0
  -29.5350  -23.4100   21.7360 H   0  0  0  0  0  0  0  0  0  0  0  0
  -28.4370  -22.4170   22.3870 H   0  0  0  0  0  0  0  0  0  0  0  0
  -27.7510  -24.3130   22.0730 C   0  0  0  0  0  3  0  0  0  0  0  0
  -29.3250  -24.5120   24.1370 C   0  0  0  0  0  1  0  0  0  0  0  0
  -28.5900  -25.2520   22.9980 C   0  0  0  0  0  3  0  0  0  0  0  0
  -30.0110  -27.4250   22.9720 C   0  0  0  0  0  1  0  0  0  0  0  0
  -29.5400  -26.1790   22.2060 C   0  0  0  0  0  2  0  0  0  0  0  0
  -26.3830  -23.8590   22.6760 C   0  0  0  0  0  2  0  0  0  0  0  0
  -23.8990  -24.1100   22.9300 C   0  0  0  0  0  1  0  0  0  0  0  0
  -25.3280  -25.6870   24.1770 C   0  0  0  0  0  1  0  0  0  0  0  0
  -25.1230  -25.8680   21.6610 C   0  0  0  0  0  1  0  0  0  0  0  0
  -25.2230  -24.8950   22.8520 C   0  0  1  0  0  0  0  0  0  0  0  0
  -28.1470  -24.1220   19.2900 C   0  0  0  0  0  2  0  0  0  0  0  0
  -28.2360  -25.8640   19.4170 O   0  0  0  0  0  0  0  0  0  0  0  0
  -25.0200  -31.7500   23.2260 C   0  0  0  0  0  0  0  0  0  0  0  0
  -27.2810  -27.0740   19.4970 C   0  0  0  0  0  0  0  0  0  0  0  0
  -23.7250  -30.6050   21.4750 C   0  0  0  0  0  3  0  0  0  0  0  0
  -25.0660  -29.1250   19.7990 C   0  0  0  0  0  0  0  0  0  0  0  0
  -26.2980  -30.7080   21.2610 C   0  0  0  0  0  2  0  0  0  0  0  0
  -26.2920  -29.3750   20.4250 C   0  0  0  0  0  0  0  0  0  0  0  0
  -27.3800  -28.3770   20.2530 C   0  0  0  0  0  3  0  0  0  0  0  0
  -26.0280  -27.0330   18.8370 C   0  0  0  0  0  3  0  0  0  0  0  0
  -24.9700  -27.9810   18.9850 C   0  0  0  0  0  3  0  0  0  0  0  0
  -23.8880  -30.0860   20.0170 C   0  0  0  0  0  2  0  0  0  0  0  0
  -25.0410  -31.0460   22.0430 N   0  0  0  0  0  0  0  0  0  0  0  0
  -23.9570  -32.0070   23.8180 O   0  0  0  0  0  0  0  0  0  0  0  0
  -23.0200  -29.5270   22.3430 C   0  0  0  0  0  0  0  0  0  0  0  0
  -21.6820  -29.4140   22.2460 N   0  0  0  0  0  0  0  0  0  0  0  0
  -23.6890  -28.7940   23.0760 O   0  0  0  0  0  0  0  0  0  0  0  0
  -21.1930  -30.0590   21.6410 H   0  0  0  0  0  0  0  0  0  0  0  0
  -18.2900  -28.1900   22.6920 C   0  0  0  0  0  0  0  0  0  0  0  0
  -20.8580  -28.4060   22.9260 C   0  0  0  0  0  3  0  0  0  0  0  0
  -20.9300  -27.0430   22.1940 C   0  0  0  0  0  2  0  0  0  0  0  0
  -19.8040  -26.8470   21.1730 C   0  0  0  0  0  2  0  0  0  0  0  0
  -18.4380  -26.9270   21.8590 C   0  0  0  0  0  2  0  0  0  0  0  0
  -19.4250  -28.8920   23.1780 C   0  0  0  0  0  0  0  0  0  0  0  0
  -19.2290  -30.0760   23.9230 C   0  0  0  0  0  3  0  0  0  0  0  0
  -17.9310  -30.5580   24.1820 C   0  0  0  0  0  3  0  0  0  0  0  0
  -16.8110  -29.8520   23.7070 C   0  0  0  0  0  3  0  0  0  0  0  0
  -16.9920  -28.6700   22.9690 C   0  0  0  0  0  3  0  0  0  0  0  0
  -26.3270  -32.2790   23.8900 C   0  0  0  0  0  3  0  0  0  0  0  0
  -26.0150  -33.5540   24.5660 N   0  0  0  0  0  0  0  0  0  0  0  0
  -26.3700  -34.7690   24.1230 C   0  0  0  0  0  0  0  0  0  0  0  0
  -27.0490  -34.9330   23.1080 O   0  0  0  0  0  0  0  0  0  0  0  0
  -25.4110  -33.4990   25.3710 H   0  0  0  0  0  0  0  0  0  0  0  0
  -24.6800  -36.6370   24.2460 C   0  0  0  0  0  1  0  0  0  0  0  0
  -25.8980  -35.9970   24.9320 C   0  0  0  0  0  3  0  0  0  0  0  0
  -28.0350  -36.5860   25.9950 C   0  0  0  0  0  1  0  0  0  0  0  0
  -26.9510  -37.0210   25.1180 N   0  0  0  0  0  0  0  0  0  0  0  0
  -26.5570  -37.8770   25.5020 H   0  0  0  0  0  0  0  0  0  0  0  0
  -26.9480  -31.2630   24.9270 C   0  0  1  0  0  0  0  0  0  0  0  0
  -25.9470  -30.7740   26.0010 C   0  0  0  0  0  1  0  0  0  0  0  0
  -27.5110  -30.0140   24.2120 C   0  0  0  0  0  1  0  0  0  0  0  0
  -28.1420  -31.9220   25.6580 C   0  0  0  0  0  1  0  0  0  0  0  0
  1 59  1  0
  1 46  1  0
  2  4  1  0
  3  2  1  0
  3  5  1  0
  4  6  1  0
  5  7  1  0
  6  1  1  0
  7  6  1  0
  7 16  1  0
  8 14  1  0
  9 14  1  0
 10 11  1  0
 10  9  1  0
 12 11  1  0
 12 21  1  0
 12 13  1  0
 14 13  1  0
 15  8  2  0
 16  8  1  0
 16 17  1  0
 18 19  2  0
 19 38  1  0
 20 19  1  0
 20 23  1  0
 21 18  1  0
 21 22  1  0
 22 20  2  0
 23 24  1  0
 24 25  2  0
 26 25  1  0
 27 26  2  0
 28 27  1  0
 28 23  2  0
 29 26  1  0
 29 30  1  0
 30 31  1  0
 31 32  2  0
 33 32  1  0
 33 37  1  0
 34 33  2  0
 35 30  2  0
 35 34  1  0
 36 35  1  0
 38 39  1  0
 39 42  1  0
 39 41  1  0
 40 38  2  0
 43 44  1  0
 43 18  1  0
 45 43  1  0
 46 47  1  0
 46 49  1  0
 46 48  1  0
 49 54  1  0
 49 51  1  0
 51 50  1  0
 53 52  1  0
 53 51  1  0
 54 58  1  0
 58 57  1  6
 58 55  1  0
 58 56  1  0
 59 60  1  0
 60 62  1  0
 61 72  2  0
 62 67  1  0
 63 71  1  0
 63 73  1  0
 64 70  1  0
 64 66  1  0
 65 71  1  0
 66 65  1  0
 67 66  2  0
 68 69  1  0
 68 62  2  0
 69 64  2  0
 70 63  1  0
 71 61  1  0
 73 75  2  0
 74 73  1  0
 76 74  1  0
 77 86  2  0
 77 82  1  0
 78 74  1  0
 78 82  1  0
 79 78  1  0
 80 81  1  0
 80 79  1  0
 81 77  1  0
 82 83  2  0
 83 84  1  0
 85 84  2  0
 86 85  1  0
 87 61  1  0
 87 88  1  0
 87 97  1  0
 88 91  1  0
 89 88  1  0
 89 93  1  0
 90 89  2  0
 93 92  1  0
 93 95  1  0
 95 96  1  0
 95 94  1  0
 97100  1  1
 97 98  1  0
 99 97  1  0
M  ISO  4   8 100  16 100  59 101  60 101
M  END
>  <TORSDO>  (28) 
F 24

>  <SCORE>  (28) 
-11.578

>  <name>  (28) 
27

>  <ligand_id>  (28) 
27

>  <original_smiles>  (28) 
[H]c1c([H])c([H])c2c(c1[H])C([H])([H])C([H])([H])C([H])([H])C2([H])N([H])C(=O)C1([H])N(C(=O)C([H])(N([H])C(=O)C([H])(N([H])C([H])([H])[H])C([H])([H])[H])C(C([H])([H])[H])(C([H])([H])[H])C([H])([H])[H])C([H])([H])c2c([H])c(OC([H])([H])C([H])(C3([H])C([H])([H])C([H])([H])C([H])([H])C([H])([H])C3([H])N([H])C(=O)N3C([H])([H])C([H])([H])C([H])([H])C([H])(n4nc(-c5c([H])c([H])c(Oc6c([H])c([H])c(F)c([H])c6F)c([H])c5[H])c(C(=O)N([H])[H])c4N([H])[H])C3([H])[H])[N+]([H])([H])C([H])(C([H])([H])C(C([H])([H])[H])(C([H])([H])[H])C([H])([H])[H])C([H])(C([H])([H])[H])C([H])([H])C([H])([H])[H])c([H])c([H])c2C1([H])[H]

>  <smiles>  (28) 
[H]c1c([H])c([H])c2c(c1[H])C([H])([H])C([H])([H])C([H])([H])C2([H])N([H])C(=O)C1([H])N(C(=O)C([H])(N([H])C(=O)C([H])(N([H])C([H])([H])[H])C([H])([H])[H])C(C([H])([H])[H])(C([H])([H])[H])C([H])([H])[H])C([H])([H])c2c([H])c(OC([H])([H])C([H])(C3([H])C([H])([H])C([H])([H])C([H])([H])C([H])([H])C3([H])N([H])C(=O)N3C([H])([H])C([H])([H])C([H])([H])C([H])(n4nc(-c5c([H])c([H])c(Oc6c([H])c([H])c(F)c([H])c6F)c([H])c5[H])c(C(=O)N([H])[H])c4N([H])[H])C3([H])[H])[N+]([H])([H])C([H])(C([H])([H])C(C([H])([H])[H])(C([H])([H])[H])C([H])([H])[H])C([H])(C([H])([H])[H])C([H])([H])C([H])([H])[H])c([H])c([H])c2C1([H])[H]

$$$$
28:0:0
     RDKit          3D

100107  0  0  1  0  0  0  0  0999 V2000
  -30.1540  -18.5260   20.7830 C   0  0  0  0  0  2  0  0  0  0  0  0
  -29.4960  -19.8170   20.2310 C   0  0  0  0  0  2  0  0  0  0  0  0
  -29.0180  -20.7720   21.3540 C   0  0  0  0  0  2  0  0  0  0  0  0
  -27.8870  -21.7470   20.9490 C   0  0  0  0  0  2  0  0  0  0  0  0
  -28.2950  -22.8180   20.0060 N   0  0  0  0  0  4  0  0  0  0  0  0
  -27.5160  -22.9440   19.3760 H   0  0  0  0  0  0  0  0  0  0  0  0
  -29.0720  -22.5030   19.4460 H   0  0  0  0  0  0  0  0  0  0  0  0
  -28.5840  -24.1410   20.6270 C   0  0  0  0  0  2  0  0  0  0  0  0
  -28.8880  -25.2340   19.5750 C   0  0  0  0  0  2  0  0  0  0  0  0
  -28.8910  -26.5570   20.1330 O   0  0  0  0  0  0  0  0  0  0  0  0
  -25.3530  -31.5790   23.7190 C   0  0  0  0  0  0  0  0  0  0  0  0
  -27.7280  -27.2980   20.2000 C   0  0  0  0  0  0  0  0  0  0  0  0
  -24.0620  -30.4090   21.9650 C   0  0  0  0  0  3  0  0  0  0  0  0
  -25.4150  -28.9250   20.3930 C   0  0  0  0  0  0  0  0  0  0  0  0
  -26.6030  -30.6320   21.7800 C   0  0  0  0  0  2  0  0  0  0  0  0
  -26.6020  -29.3240   21.0170 C   0  0  0  0  0  0  0  0  0  0  0  0
  -27.7550  -28.5130   20.9270 C   0  0  0  0  0  3  0  0  0  0  0  0
  -26.5150  -26.9120   19.5790 C   0  0  0  0  0  3  0  0  0  0  0  0
  -25.3650  -27.7170   19.6770 C   0  0  0  0  0  3  0  0  0  0  0  0
  -24.2230  -29.8440   20.5290 C   0  0  0  0  0  2  0  0  0  0  0  0
  -25.3580  -30.8820   22.5480 N   0  0  0  0  0  0  0  0  0  0  0  0
  -24.2920  -31.8640   24.2910 O   0  0  0  0  0  0  0  0  0  0  0  0
  -23.3530  -29.3440   22.8330 C   0  0  0  0  0  0  0  0  0  0  0  0
  -22.0620  -29.1080   22.5520 N   0  0  0  0  0  0  0  0  0  0  0  0
  -23.9690  -28.7330   23.7100 O   0  0  0  0  0  0  0  0  0  0  0  0
  -21.6280  -29.6600   21.8250 H   0  0  0  0  0  0  0  0  0  0  0  0
  -18.7560  -27.6460   22.5370 C   0  0  0  0  0  0  0  0  0  0  0  0
  -21.2060  -28.1200   23.2110 C   0  0  0  0  0  3  0  0  0  0  0  0
  -21.5130  -26.6910   22.7070 C   0  0  0  0  0  2  0  0  0  0  0  0
  -20.6220  -26.2590   21.5380 C   0  0  0  0  0  2  0  0  0  0  0  0
  -19.1460  -26.3030   21.9440 C   0  0  0  0  0  2  0  0  0  0  0  0
  -19.7270  -28.5070   23.1170 C   0  0  0  0  0  0  0  0  0  0  0  0
  -19.3160  -29.7620   23.6160 C   0  0  0  0  0  3  0  0  0  0  0  0
  -17.9670  -30.1560   23.5520 C   0  0  0  0  0  3  0  0  0  0  0  0
  -17.0090  -29.2950   22.9880 C   0  0  0  0  0  3  0  0  0  0  0  0
  -17.4050  -28.0420   22.4870 C   0  0  0  0  0  3  0  0  0  0  0  0
  -26.6760  -32.0700   24.3850 C   0  0  0  0  0  3  0  0  0  0  0  0
  -26.4650  -33.4570   24.8180 N   0  0  0  0  0  0  0  0  0  0  0  0
  -26.8800  -34.5370   24.1410 C   0  0  0  0  0  0  0  0  0  0  0  0
  -27.5530  -34.4630   23.1080 O   0  0  0  0  0  0  0  0  0  0  0  0
  -25.8700  -33.5940   25.6220 H   0  0  0  0  0  0  0  0  0  0  0  0
  -25.2840  -36.4690   23.9120 C   0  0  0  0  0  1  0  0  0  0  0  0
  -26.4860  -35.9190   24.6970 C   0  0  0  0  0  3  0  0  0  0  0  0
  -28.6640  -36.5930   25.6090 C   0  0  0  0  0  1  0  0  0  0  0  0
  -27.5900  -36.9030   24.6680 N   0  0  0  0  0  0  0  0  0  0  0  0
  -27.2460  -37.8360   24.8750 H   0  0  0  0  0  0  0  0  0  0  0  0
  -27.1350  -31.1680   25.5960 C   0  0  1  0  0  0  0  0  0  0  0  0
  -26.0080  -30.8710   26.6120 C   0  0  0  0  0  1  0  0  0  0  0  0
  -27.6860  -29.8140   25.0930 C   0  0  0  0  0  1  0  0  0  0  0  0
  -28.2950  -31.8600   26.3520 C   0  0  0  0  0  1  0  0  0  0  0  0
  -30.7980  -17.5800   19.7250 C   0  0  0  0  0  3  0  0  0  0  0  0
  -32.0050  -18.2690   19.0280 C   0  0  0  0  0  2  0  0  0  0  0  0
  -32.3460  -17.6360   17.7380 N   0  0  0  0  0  4  0  0  0  0  0  0
  -32.3240  -16.6260   17.7930 H   0  0  0  0  0  0  0  0  0  0  0  0
  -33.2600  -17.9290   17.4390 H   0  0  0  0  0  0  0  0  0  0  0  0
  -31.6890  -17.9100   17.0290 H   0  0  0  0  0  0  0  0  0  0  0  0
  -31.2490  -16.1800   20.2920 C   0  0  0  0  0  3  0  0  0  0  0  0
  -30.6580  -14.2710   18.7790 C   0  0  0  0  0  0  0  0  0  0  0  0
  -29.8850  -12.3020   17.5010 C   0  0  0  0  0  2  0  0  0  0  0  0
  -28.6510  -12.6460   16.6450 C   0  0  0  0  0  2  0  0  0  0  0  0
  -27.3530  -12.5030   17.4620 C   0  0  0  0  0  2  0  0  0  0  0  0
  -27.4310  -13.2210   18.8360 C   0  0  0  0  0  3  0  0  0  0  0  0
  -28.7340  -12.8440   19.5720 C   0  0  0  0  0  2  0  0  0  0  0  0
  -29.8700  -13.1680   18.6880 N   0  0  0  0  0  0  0  0  0  0  0  0
  -31.5440  -14.5580   17.9630 O   0  0  0  0  0  0  0  0  0  0  0  0
  -30.4070  -15.0730   19.8240 N   0  0  0  0  0  0  0  0  0  0  0  0
  -29.6430  -14.7960   20.4220 H   0  0  0  0  0  0  0  0  0  0  0  0
  -25.3680  -13.8350   20.2490 C   0  0  0  0  0  0  0  0  0  0  0  0
  -24.3990  -13.0650   20.8350 C   0  0  0  0  0  0  0  0  0  0  0  0
  -24.7460  -11.7080   20.5480 C   0  0  0  0  0  0  0  0  0  0  0  0
  -26.2480  -12.9460   19.6510 N   0  0  0  0  0  0  0  0  0  0  0  0
  -25.8930  -11.6570   19.8830 N   0  0  0  0  0  0  0  0  0  0  0  0
  -24.0250  -10.4600   20.8200 C   0  0  0  0  0  0  0  0  0  0  0  0
  -24.5350   -9.4910   21.7130 C   0  0  0  0  0  3  0  0  0  0  0  0
  -23.8140   -8.3060   21.9720 C   0  0  0  0  0  3  0  0  0  0  0  0
  -22.5690   -8.0800   21.3390 C   0  0  0  0  0  0  0  0  0  0  0  0
  -22.0770   -9.0360   20.4330 C   0  0  0  0  0  3  0  0  0  0  0  0
  -22.7980  -10.2130   20.1730 C   0  0  0  0  0  3  0  0  0  0  0  0
  -21.8110   -6.9460   21.5100 O   0  0  0  0  0  0  0  0  0  0  0  0
  -21.7040   -6.3290   22.7310 C   0  0  0  0  0  0  0  0  0  0  0  0
  -21.1980   -7.0040   23.8630 C   0  0  0  0  0  3  0  0  0  0  0  0
  -21.0390   -6.3120   25.0820 C   0  0  0  0  0  3  0  0  0  0  0  0
  -21.3750   -4.9480   25.1680 C   0  0  0  0  0  0  0  0  0  0  0  0
  -21.8750   -4.2740   24.0380 C   0  0  0  0  0  3  0  0  0  0  0  0
  -22.0350   -4.9630   22.8240 C   0  0  0  0  0  0  0  0  0  0  0  0
  -22.4970   -4.3040   21.7330 F   0  0  0  0  0  0  0  0  0  0  0  0
  -21.2170   -4.2820   26.3350 F   0  0  0  0  0  0  0  0  0  0  0  0
  -23.1680  -13.5570   21.5380 C   0  0  0  0  0  0  0  0  0  0  0  0
  -22.6950  -12.8190   22.5360 N   0  0  0  0  0  0  0  0  0  0  0  0
  -22.6430  -14.6270   21.2350 O   0  0  0  0  0  0  0  0  0  0  0  0
  -23.1380  -11.9510   22.7990 H   0  0  0  0  0  0  0  0  0  0  0  0
  -21.8770  -13.1260   23.0460 H   0  0  0  0  0  0  0  0  0  0  0  0
  -25.5630  -15.2100   20.1590 N   0  0  0  0  0  0  0  0  0  0  0  0
  -24.9040  -15.8790   20.5390 H   0  0  0  0  0  0  0  0  0  0  0  0
  -26.3230  -15.6470   19.6500 H   0  0  0  0  0  0  0  0  0  0  0  0
  -31.4220  -16.0770   21.8280 C   0  0  0  0  0  2  0  0  0  0  0  0
  -31.1180  -14.6840   22.4220 C   0  0  0  0  0  2  0  0  0  0  0  0
  -33.2300  -13.2490   22.1980 C   0  0  0  0  0  1  0  0  0  0  0  0
  -30.9450  -12.2180   21.8720 C   0  0  0  0  0  1  0  0  0  0  0  0
  -31.7920  -13.4880   21.7110 C   0  0  0  0  0  3  0  0  0  0  0  0
  2  1  1  0
  2  3  1  0
  4  3  1  0
  5  8  1  0
  5  4  1  0
  6  5  1  0
  7  5  1  0
  9 10  1  0
  9  8  1  0
 10 12  1  0
 11 22  2  0
 12 17  1  0
 13 21  1  0
 13 23  1  0
 14 20  1  0
 14 16  1  0
 15 21  1  0
 16 15  1  0
 17 16  2  0
 18 19  1  0
 18 12  2  0
 19 14  2  0
 20 13  1  0
 21 11  1  0
 23 25  2  0
 24 23  1  0
 26 24  1  0
 27 32  1  0
 28 24  1  0
 29 28  1  0
 30 31  1  0
 30 29  1  0
 31 27  1  0
 32 28  1  0
 32 33  2  0
 34 33  1  0
 35 34  2  0
 36 27  2  0
 36 35  1  0
 37 11  1  0
 37 38  1  0
 37 47  1  0
 38 41  1  0
 39 43  1  0
 39 38  1  0
 40 39  2  0
 43 42  1  0
 45 43  1  0
 45 46  1  0
 45 44  1  0
 47 50  1  1
 47 48  1  0
 49 47  1  0
 51 52  1  0
 51 57  1  0
 51  1  1  0
 53 54  1  0
 53 52  1  0
 55 53  1  0
 56 53  1  0
 57 96  1  0
 58 66  1  0
 59 64  1  0
 60 61  1  0
 60 59  1  0
 62 61  1  0
 62 63  1  0
 62 71  1  0
 64 58  1  0
 64 63  1  0
 65 58  2  0
 66 57  1  0
 66 67  1  0
 68 69  2  0
 69 88  1  0
 70 73  1  0
 70 69  1  0
 71 72  1  0
 71 68  1  0
 72 70  2  0
 73 74  1  0
 74 75  2  0
 76 79  1  0
 76 75  1  0
 77 76  2  0
 78 77  1  0
 78 73  2  0
 79 80  1  0
 80 85  2  0
 80 81  1  0
 81 82  2  0
 82 83  1  0
 83 87  1  0
 84 83  2  0
 85 84  1  0
 86 85  1  0
 88 89  1  0
 89 91  1  0
 89 92  1  0
 90 88  2  0
 93 68  1  0
 93 94  1  0
 95 93  1  0
 96 97  1  0
100 99  1  0
100 98  1  0
100 97  1  0
M  ISO  4   9 101  10 101  58 100  66 100
M  END
>  <TORSDO>  (29) 
F 29

>  <SCORE>  (29) 
-4.841

>  <name>  (29) 
28

>  <ligand_id>  (29) 
28

>  <original_smiles>  (29) 
[H]c1c([H])c([H])c2c(c1[H])C([H])([H])C([H])([H])C([H])([H])C2([H])N([H])C(=O)C1([H])N(C(=O)C([H])(N([H])C(=O)C([H])(N([H])C([H])([H])[H])C([H])([H])[H])C(C([H])([H])[H])(C([H])([H])[H])C([H])([H])[H])C([H])([H])c2c([H])c(OC([H])([H])C([H])([H])[N+]([H])([H])C([H])([H])C([H])([H])C([H])([H])C([H])([H])C([H])(C([H])(N([H])C(=O)N3C([H])([H])C([H])([H])C([H])([H])C([H])(n4nc(-c5c([H])c([H])c(Oc6c([H])c([H])c(F)c([H])c6F)c([H])c5[H])c(C(=O)N([H])[H])c4N([H])[H])C3([H])[H])C([H])([H])C([H])([H])C([H])(C([H])([H])[H])C([H])([H])[H])C([H])([H])[N+]([H])([H])[H])c([H])c([H])c2C1([H])[H]

>  <smiles>  (29) 
[H]c1c([H])c([H])c2c(c1[H])C([H])([H])C([H])([H])C([H])([H])C2([H])N([H])C(=O)C1([H])N(C(=O)C([H])(N([H])C(=O)C([H])(N([H])C([H])([H])[H])C([H])([H])[H])C(C([H])([H])[H])(C([H])([H])[H])C([H])([H])[H])C([H])([H])c2c([H])c(OC([H])([H])C([H])([H])[N+]([H])([H])C([H])([H])C([H])([H])C([H])([H])C([H])([H])C([H])(C([H])(N([H])C(=O)N3C([H])([H])C([H])([H])C([H])([H])C([H])(n4nc(-c5c([H])c([H])c(Oc6c([H])c([H])c(F)c([H])c6F)c([H])c5[H])c(C(=O)N([H])[H])c4N([H])[H])C3([H])[H])C([H])([H])C([H])([H])C([H])(C([H])([H])[H])C([H])([H])[H])C([H])([H])[N+]([H])([H])[H])c([H])c([H])c2C1([H])[H]

$$$$
29:0:0
     RDKit          3D

 92 99  0  0  1  0  0  0  0  0999 V2000
  -28.4230  -21.9220   20.6640 N   0  0  0  0  0  4  0  0  0  0  0  0
  -27.4300  -21.7650   20.7230 H   0  0  0  0  0  0  0  0  0  0  0  0
  -28.6690  -21.9700   19.6890 H   0  0  0  0  0  0  0  0  0  0  0  0
  -29.1130  -20.7490   21.2890 C   0  0  0  0  0  2  0  0  0  0  0  0
  -28.9080  -19.3930   20.5410 C   0  0  0  0  0  2  0  0  0  0  0  0
  -29.6730  -18.1760   21.1670 C   0  0  0  0  0  2  0  0  0  0  0  0
  -29.6950  -16.8380   20.3480 C   0  0  0  0  0  3  0  0  0  0  0  0
  -30.9890  -14.6660   20.5760 C   0  0  0  0  0  0  0  0  0  0  0  0
  -30.6830  -12.5000   19.4330 C   0  0  0  0  0  2  0  0  0  0  0  0
  -29.7790  -12.6770   18.1960 C   0  0  0  0  0  2  0  0  0  0  0  0
  -28.2960  -12.5350   18.5890 C   0  0  0  0  0  2  0  0  0  0  0  0
  -27.9200  -13.4010   19.8200 C   0  0  0  0  0  3  0  0  0  0  0  0
  -28.9440  -13.2330   20.9650 C   0  0  0  0  0  2  0  0  0  0  0  0
  -30.2790  -13.5150   20.4200 N   0  0  0  0  0  0  0  0  0  0  0  0
  -32.1470  -14.7840   20.1750 O   0  0  0  0  0  0  0  0  0  0  0  0
  -30.3590  -15.7370   21.1090 N   0  0  0  0  0  0  0  0  0  0  0  0
  -30.9710  -16.1550   21.7910 H   0  0  0  0  0  0  0  0  0  0  0  0
  -25.5060  -14.0180   20.4500 C   0  0  0  0  0  0  0  0  0  0  0  0
  -24.4260  -13.2520   20.7950 C   0  0  0  0  0  0  0  0  0  0  0  0
  -24.8870  -11.9000   20.8020 C   0  0  0  0  0  0  0  0  0  0  0  0
  -26.5560  -13.1330   20.2660 N   0  0  0  0  0  0  0  0  0  0  0  0
  -26.1870  -11.8550   20.5380 N   0  0  0  0  0  0  0  0  0  0  0  0
  -24.1550  -10.6410   20.9890 C   0  0  0  0  0  0  0  0  0  0  0  0
  -24.5540   -9.6920   21.9550 C   0  0  0  0  0  3  0  0  0  0  0  0
  -23.8220   -8.4970   22.1290 C   0  0  0  0  0  3  0  0  0  0  0  0
  -22.6780   -8.2460   21.3360 C   0  0  0  0  0  0  0  0  0  0  0  0
  -22.2980   -9.1850   20.3620 C   0  0  0  0  0  3  0  0  0  0  0  0
  -23.0300  -10.3700   20.1860 C   0  0  0  0  0  3  0  0  0  0  0  0
  -21.9200   -7.1030   21.4180 O   0  0  0  0  0  0  0  0  0  0  0  0
  -21.8210   -6.3850   22.5820 C   0  0  0  0  0  0  0  0  0  0  0  0
  -21.3210   -6.9600   23.7710 C   0  0  0  0  0  3  0  0  0  0  0  0
  -21.1720   -6.1680   24.9260 C   0  0  0  0  0  3  0  0  0  0  0  0
  -21.5140   -4.8030   24.8940 C   0  0  0  0  0  0  0  0  0  0  0  0
  -22.0070   -4.2280   23.7100 C   0  0  0  0  0  3  0  0  0  0  0  0
  -22.1570   -5.0170   22.5560 C   0  0  0  0  0  0  0  0  0  0  0  0
  -22.6130   -4.4530   21.4120 F   0  0  0  0  0  0  0  0  0  0  0  0
  -21.3630   -4.0390   26.0020 F   0  0  0  0  0  0  0  0  0  0  0  0
  -23.0220  -13.7350   21.0120 C   0  0  0  0  0  0  0  0  0  0  0  0
  -22.2660  -13.0580   21.8680 N   0  0  0  0  0  0  0  0  0  0  0  0
  -22.6020  -14.7500   20.4570 O   0  0  0  0  0  0  0  0  0  0  0  0
  -22.6200  -12.2400   22.3410 H   0  0  0  0  0  0  0  0  0  0  0  0
  -21.3210  -13.3640   22.0550 H   0  0  0  0  0  0  0  0  0  0  0  0
  -25.6720  -15.3860   20.2550 N   0  0  0  0  0  0  0  0  0  0  0  0
  -24.8960  -16.0340   20.3340 H   0  0  0  0  0  0  0  0  0  0  0  0
  -26.5340  -15.8300   19.9710 H   0  0  0  0  0  0  0  0  0  0  0  0
  -30.2440  -17.0480   18.9130 C   0  0  0  0  0  0  0  0  0  0  0  0
  -29.2410  -17.0790   17.7700 C   0  0  0  0  0  1  0  0  0  0  0  0
  -31.4350  -17.2440   18.6720 O   0  0  0  0  0  0  0  0  0  0  0  0
  -28.7450  -23.2350   21.3050 C   0  0  0  0  0  2  0  0  0  0  0  0
  -27.8600  -24.4590   20.8910 C   0  0  0  0  0  2  0  0  0  0  0  0
  -28.4280  -25.4210   19.8060 C   0  0  0  0  0  2  0  0  0  0  0  0
  -28.3720  -26.8220   20.1560 O   0  0  0  0  0  0  0  0  0  0  0  0
  -24.5470  -31.9570   23.2780 C   0  0  0  0  0  0  0  0  0  0  0  0
  -27.1790  -27.5230   20.1490 C   0  0  0  0  0  0  0  0  0  0  0  0
  -23.3340  -30.5620   21.6350 C   0  0  0  0  0  3  0  0  0  0  0  0
  -24.7800  -29.0340   20.1910 C   0  0  0  0  0  0  0  0  0  0  0  0
  -25.8580  -30.9250   21.4220 C   0  0  0  0  0  2  0  0  0  0  0  0
  -25.9420  -29.5570   20.7700 C   0  0  0  0  0  0  0  0  0  0  0  0
  -27.1420  -28.8090   20.7440 C   0  0  0  0  0  3  0  0  0  0  0  0
  -25.9950  -27.0160   19.5680 C   0  0  0  0  0  3  0  0  0  0  0  0
  -24.8030  -27.7650   19.5860 C   0  0  0  0  0  3  0  0  0  0  0  0
  -23.5360  -29.8910   20.2510 C   0  0  0  0  0  2  0  0  0  0  0  0
  -24.5990  -31.1630   22.1700 N   0  0  0  0  0  0  0  0  0  0  0  0
  -23.4680  -32.2210   23.8270 O   0  0  0  0  0  0  0  0  0  0  0  0
  -22.6920  -29.5330   22.5940 C   0  0  0  0  0  0  0  0  0  0  0  0
  -21.3720  -29.3260   22.4560 N   0  0  0  0  0  0  0  0  0  0  0  0
  -23.3800  -28.9240   23.4190 O   0  0  0  0  0  0  0  0  0  0  0  0
  -20.8800  -29.8720   21.7630 H   0  0  0  0  0  0  0  0  0  0  0  0
  -18.0240  -28.0460   22.9030 C   0  0  0  0  0  0  0  0  0  0  0  0
  -20.5670  -28.3730   23.2210 C   0  0  0  0  0  3  0  0  0  0  0  0
  -20.7180  -26.9410   22.6600 C   0  0  0  0  0  2  0  0  0  0  0  0
  -19.6450  -26.5830   21.6250 C   0  0  0  0  0  2  0  0  0  0  0  0
  -18.2500  -26.6940   22.2450 C   0  0  0  0  0  2  0  0  0  0  0  0
  -19.1130  -28.8400   23.3480 C   0  0  0  0  0  0  0  0  0  0  0  0
  -18.8520  -30.1040   23.9210 C   0  0  0  0  0  3  0  0  0  0  0  0
  -17.5310  -30.5730   24.0570 C   0  0  0  0  0  3  0  0  0  0  0  0
  -16.4550  -29.7770   23.6290 C   0  0  0  0  0  3  0  0  0  0  0  0
  -16.7030  -28.5150   23.0580 C   0  0  0  0  0  3  0  0  0  0  0  0
  -25.8350  -32.5890   23.8930 C   0  0  0  0  0  3  0  0  0  0  0  0
  -25.5340  -33.9930   24.2030 N   0  0  0  0  0  0  0  0  0  0  0  0
  -25.8850  -35.0330   23.4350 C   0  0  0  0  0  0  0  0  0  0  0  0
  -26.5660  -34.9120   22.4120 O   0  0  0  0  0  0  0  0  0  0  0  0
  -24.9330  -34.1630   24.9970 H   0  0  0  0  0  0  0  0  0  0  0  0
  -24.1850  -36.8410   23.0290 C   0  0  0  0  0  1  0  0  0  0  0  0
  -25.4050  -36.4300   23.8700 C   0  0  0  0  0  3  0  0  0  0  0  0
  -27.5280  -37.2990   24.7430 C   0  0  0  0  0  1  0  0  0  0  0  0
  -26.4510  -37.4700   23.7710 N   0  0  0  0  0  0  0  0  0  0  0  0
  -26.0530  -38.3960   23.9010 H   0  0  0  0  0  0  0  0  0  0  0  0
  -26.3480  -31.8310   25.1780 C   0  0  1  0  0  0  0  0  0  0  0  0
  -25.2510  -31.6080   26.2470 C   0  0  0  0  0  1  0  0  0  0  0  0
  -26.9260  -30.4470   24.8000 C   0  0  0  0  0  1  0  0  0  0  0  0
  -27.5010  -32.6280   25.8330 C   0  0  0  0  0  1  0  0  0  0  0  0
  1  2  1  0
  1  4  1  0
  1 49  1  0
  3  1  1  0
  5  6  1  0
  5  4  1  0
  7 16  1  0
  7  6  1  0
  8 16  1  0
  9 14  1  0
 10 11  1  0
 10  9  1  0
 12 11  1  0
 12 21  1  0
 12 13  1  0
 14  8  1  0
 14 13  1  0
 15  8  2  0
 16 17  1  0
 18 19  2  0
 19 20  1  0
 19 38  1  0
 20 23  1  0
 21 18  1  0
 21 22  1  0
 22 20  2  0
 23 24  1  0
 24 25  2  0
 26 29  1  0
 26 25  1  0
 27 26  2  0
 28 27  1  0
 28 23  2  0
 29 30  1  0
 30 31  1  0
 31 32  2  0
 33 32  1  0
 33 37  1  0
 34 33  2  0
 35 30  2  0
 35 34  1  0
 36 35  1  0
 38 39  1  0
 39 42  1  0
 39 41  1  0
 40 38  2  0
 43 44  1  0
 43 18  1  0
 45 43  1  0
 46  7  1  0
 47 46  1  0
 48 46  2  0
 50 49  1  0
 51 52  1  0
 51 50  1  0
 53 64  2  0
 54 52  1  0
 54 59  1  0
 55 63  1  0
 55 65  1  0
 56 62  1  0
 56 58  1  0
 57 63  1  0
 58 57  1  0
 59 58  2  0
 60 61  1  0
 60 54  2  0
 61 56  2  0
 62 55  1  0
 63 53  1  0
 65 67  2  0
 66 65  1  0
 68 66  1  0
 69 78  2  0
 69 74  1  0
 70 66  1  0
 70 74  1  0
 71 70  1  0
 72 73  1  0
 72 71  1  0
 73 69  1  0
 74 75  2  0
 75 76  1  0
 77 76  2  0
 78 77  1  0
 79 53  1  0
 79 80  1  0
 79 89  1  0
 80 83  1  0
 81 85  1  0
 81 80  1  0
 82 81  2  0
 85 84  1  0
 87 85  1  0
 87 88  1  0
 87 86  1  0
 89 92  1  1
 89 90  1  0
 91 89  1  0
M  ISO  4   8 100  16 100  51 101  52 101
M  END
>  <TORSDO>  (30) 
F 24

>  <SCORE>  (30) 
-11.674

>  <name>  (30) 
29

>  <ligand_id>  (30) 
29

>  <original_smiles>  (30) 
[H]c1c([H])c([H])c2c(c1[H])C([H])([H])C([H])([H])C([H])([H])C2([H])N([H])C(=O)C1([H])N(C(=O)C([H])(N([H])C(=O)C([H])(N([H])C([H])([H])[H])C([H])([H])[H])C(C([H])([H])[H])(C([H])([H])[H])C([H])([H])[H])C([H])([H])c2c([H])c(OC([H])([H])C([H])([H])C([H])([H])[N+]([H])([H])C([H])([H])C([H])([H])C([H])([H])C([H])(C(=O)C([H])([H])[H])N([H])C(=O)N3C([H])([H])C([H])([H])C([H])([H])C([H])(n4nc(-c5c([H])c([H])c(Oc6c([H])c([H])c(F)c([H])c6F)c([H])c5[H])c(C(=O)N([H])[H])c4N([H])[H])C3([H])[H])c([H])c([H])c2C1([H])[H]

>  <smiles>  (30) 
[H]c1c([H])c([H])c2c(c1[H])C([H])([H])C([H])([H])C([H])([H])C2([H])N([H])C(=O)C1([H])N(C(=O)C([H])(N([H])C(=O)C([H])(N([H])C([H])([H])[H])C([H])([H])[H])C(C([H])([H])[H])(C([H])([H])[H])C([H])([H])[H])C([H])([H])c2c([H])c(OC([H])([H])C([H])([H])C([H])([H])[N+]([H])([H])C([H])([H])C([H])([H])C([H])([H])C([H])(C(=O)C([H])([H])[H])N([H])C(=O)N3C([H])([H])C([H])([H])C([H])([H])C([H])(n4nc(-c5c([H])c([H])c(Oc6c([H])c([H])c(F)c([H])c6F)c([H])c5[H])c(C(=O)N([H])[H])c4N([H])[H])C3([H])[H])c([H])c([H])c2C1([H])[H]

$$$$
30:0:0
     RDKit          3D

102110  0  0  1  0  0  0  0  0999 V2000
  -29.5240  -22.2380   18.2040 C   0  0  0  0  0  3  0  0  0  0  0  0
  -30.8760  -21.8670   18.3630 C   0  0  0  0  0  3  0  0  0  0  0  0
  -30.3800  -24.4800   18.0820 C   0  0  0  0  0  3  0  0  0  0  0  0
  -29.1260  -23.5720   18.1390 C   0  0  0  0  0  0  0  0  0  0  0  0
  -32.0150  -22.7350   18.4870 C   0  0  0  0  0  0  0  0  0  0  0  0
  -31.8970  -24.1530   18.1900 C   0  0  0  0  0  0  0  0  0  0  0  0
  -33.7510  -20.9130   18.0900 C   0  0  0  0  0  1  0  0  0  0  0  0
  -32.7900  -21.2520   20.4040 C   0  0  0  0  0  1  0  0  0  0  0  0
  -34.4450  -22.7900   19.5630 C   0  0  0  0  0  1  0  0  0  0  0  0
  -33.2360  -21.9690   19.1000 C   0  0  2  0  0  0  0  0  0  0  0  0
  -33.2380  -25.2980   18.2670 C   0  0  0  0  0  2  0  0  0  0  0  0
  -35.0490  -25.5710   17.9360 C   0  0  0  0  0  3  0  0  0  0  0  0
  -36.8110  -23.8050   19.6240 C   0  0  0  0  0  0  0  0  0  0  0  0
  -36.0030  -22.9520   21.8410 C   0  0  0  0  0  2  0  0  0  0  0  0
  -34.4790  -22.9440   21.6330 C   0  0  0  0  0  2  0  0  0  0  0  0
  -33.9710  -24.3610   21.8550 C   0  0  0  0  0  2  0  0  0  0  0  0
  -34.9380  -25.3780   21.1720 C   0  0  0  0  0  3  0  0  0  0  0  0
  -36.3640  -25.2970   21.4970 C   0  0  0  0  0  2  0  0  0  0  0  0
  -36.5530  -24.0080   20.9520 N   0  0  0  0  0  0  0  0  0  0  0  0
  -37.5500  -22.8310   19.4350 O   0  0  0  0  0  0  0  0  0  0  0  0
  -36.0620  -24.4150   18.5240 N   0  0  0  0  0  0  0  0  0  0  0  0
  -36.3770  -23.9020   17.7150 H   0  0  0  0  0  0  0  0  0  0  0  0
  -35.0380  -28.3780   20.3580 C   0  0  0  0  0  2  0  0  0  0  0  0
  -33.5670  -29.2680   20.4430 C   0  0  0  0  0  3  0  0  0  0  0  0
  -32.3230  -28.3240   21.3020 C   0  0  0  0  0  3  0  0  0  0  0  0
  -34.6540  -26.6880   21.2400 N   0  0  0  0  0  2  0  0  0  0  0  0
  -32.9390  -26.8030   21.7560 N   0  0  0  0  0  2  0  0  0  0  0  0
  -31.4020  -28.8890   22.3090 C   0  0  0  0  0  0  0  0  0  0  0  0
  -31.4810  -28.6720   23.7240 C   0  0  0  0  0  3  0  0  0  0  0  0
  -30.5050  -29.2310   24.5930 C   0  0  0  0  0  3  0  0  0  0  0  0
  -29.4620  -30.0180   24.0420 C   0  0  0  0  0  0  0  0  0  0  0  0
  -29.4350  -30.2530   22.6630 C   0  0  0  0  0  3  0  0  0  0  0  0
  -30.4000  -29.7120   21.8120 C   0  0  0  0  0  3  0  0  0  0  0  0
  -28.3920  -30.5400   24.7250 O   0  0  0  0  0  0  0  0  0  0  0  0
  -28.5260  -31.4020   25.7770 C   0  0  0  0  0  0  0  0  0  0  0  0
  -29.4410  -32.4750   25.7570 C   0  0  0  0  0  3  0  0  0  0  0  0
  -29.4820  -33.3790   26.8350 C   0  0  0  0  0  3  0  0  0  0  0  0
  -28.5980  -33.2230   27.9220 C   0  0  0  0  0  0  0  0  0  0  0  0
  -27.6780  -32.1610   27.9340 C   0  0  0  0  0  3  0  0  0  0  0  0
  -27.6400  -31.2540   26.8620 C   0  0  0  0  0  0  0  0  0  0  0  0
  -26.7360  -30.2450   26.8640 F   0  0  0  0  0  0  0  0  0  0  0  0
  -28.6310  -34.0990   28.9540 F   0  0  0  0  0  0  0  0  0  0  0  0
  -33.2860  -30.5960   19.9220 C   0  0  0  0  0  0  0  0  0  0  0  0
  -32.8540  -31.4840   20.8060 N   0  0  0  0  0  0  0  0  0  0  0  0
  -33.4270  -30.8120   18.7280 O   0  0  0  0  0  0  0  0  0  0  0  0
  -32.7570  -31.2440   21.7820 H   0  0  0  0  0  0  0  0  0  0  0  0
  -32.6400  -32.4240   20.5090 H   0  0  0  0  0  0  0  0  0  0  0  0
  -36.0580  -28.6200   19.4920 N   0  0  0  0  0  4  0  0  0  0  0  0
  -36.2020  -29.6120   19.3290 H   0  0  0  0  0  0  0  0  0  0  0  0
  -36.9310  -28.2120   19.8110 H   0  0  0  0  0  0  0  0  0  0  0  0
  -35.5540  -27.3800   17.6220 C   0  0  0  0  0  3  0  0  0  0  0  0
  -34.2230  -27.9970   17.4330 N   0  0  0  0  0  4  0  0  0  0  0  0
  -33.9410  -27.7430   16.4930 H   0  0  0  0  0  0  0  0  0  0  0  0
  -34.2390  -28.9960   17.5190 H   0  0  0  0  0  0  0  0  0  0  0  0
  -33.5550  -27.6180   18.0800 H   0  0  0  0  0  0  0  0  0  0  0  0
  -36.7180  -28.5110   16.5160 C   0  0  0  0  0  2  0  0  0  0  0  0
  -37.3280  -29.5060   18.9270 C   0  0  0  0  0  2  0  0  0  0  0  0
  -36.6620  -31.0890   17.1840 C   0  0  0  0  0  1  0  0  0  0  0  0
  -38.9260  -30.1180   17.1900 C   0  0  0  0  0  1  0  0  0  0  0  0
  -37.4200  -29.7420   17.3960 C   0  0  2  0  0  0  0  0  0  0  0  0
  -27.4050  -23.8580   18.1790 C   0  0  0  0  0  2  0  0  0  0  0  0
  -26.0860  -22.9190   18.5470 O   0  0  0  0  0  0  0  0  0  0  0  0
  -21.1440  -26.6720   22.9430 C   0  0  0  0  0  0  0  0  0  0  0  0
  -25.2310  -23.1220   19.7450 C   0  0  0  0  0  0  0  0  0  0  0  0
  -22.9220  -25.3100   23.9440 C   0  0  0  0  0  3  0  0  0  0  0  0
  -24.0710  -23.5870   22.4130 C   0  0  0  0  0  0  0  0  0  0  0  0
  -21.9600  -24.6380   21.6430 C   0  0  0  0  0  2  0  0  0  0  0  0
  -23.3190  -23.9600   21.2900 C   0  0  0  0  0  0  0  0  0  0  0  0
  -23.8810  -23.7060   19.9580 C   0  0  0  0  0  3  0  0  0  0  0  0
  -25.8130  -22.6820   20.9440 C   0  0  0  0  0  3  0  0  0  0  0  0
  -25.2870  -22.9230   22.2260 C   0  0  0  0  0  3  0  0  0  0  0  0
  -23.5540  -23.9030   23.8090 C   0  0  0  0  0  2  0  0  0  0  0  0
  -21.9730  -25.5860   22.8190 N   0  0  0  0  0  0  0  0  0  0  0  0
  -21.1780  -27.4110   23.9410 O   0  0  0  0  0  0  0  0  0  0  0  0
  -24.0410  -26.3770   24.0710 C   0  0  0  0  0  0  0  0  0  0  0  0
  -24.5890  -26.5620   25.2870 N   0  0  0  0  0  0  0  0  0  0  0  0
  -24.4100  -27.0130   23.0810 O   0  0  0  0  0  0  0  0  0  0  0  0
  -24.2290  -26.0150   26.0580 H   0  0  0  0  0  0  0  0  0  0  0  0
  -26.7080  -27.7970   27.9600 C   0  0  0  0  0  0  0  0  0  0  0  0
  -25.6870  -27.4820   25.6030 C   0  0  0  0  0  3  0  0  0  0  0  0
  -27.0530  -26.8750   25.2080 C   0  0  0  0  0  2  0  0  0  0  0  0
  -27.7390  -26.1310   26.3590 C   0  0  0  0  0  2  0  0  0  0  0  0
  -27.9770  -27.0730   27.5430 C   0  0  0  0  0  2  0  0  0  0  0  0
  -25.6270  -27.9760   27.0550 C   0  0  0  0  0  0  0  0  0  0  0  0
  -24.4610  -28.6300   27.5070 C   0  0  0  0  0  3  0  0  0  0  0  0
  -24.3650  -29.1020   28.8300 C   0  0  0  0  0  3  0  0  0  0  0  0
  -25.4440  -28.9330   29.7170 C   0  0  0  0  0  3  0  0  0  0  0  0
  -26.6120  -28.2860   29.2800 C   0  0  0  0  0  3  0  0  0  0  0  0
  -20.1030  -27.0320   21.8420 C   0  0  0  0  0  3  0  0  0  0  0  0
  -20.4580  -28.3630   21.0690 C   0  0  1  0  0  0  0  0  0  0  0  0
  -20.7920  -29.5550   21.9970 C   0  0  0  0  0  1  0  0  0  0  0  0
  -21.6660  -28.1490   20.1310 C   0  0  0  0  0  1  0  0  0  0  0  0
  -19.2720  -28.7740   20.1660 C   0  0  0  0  0  1  0  0  0  0  0  0
  -18.7860  -27.1630   22.4920 N   0  0  0  0  0  0  0  0  0  0  0  0
  -17.8250  -26.2310   22.4750 C   0  0  0  0  0  0  0  0  0  0  0  0
  -17.9350  -25.1750   21.8500 O   0  0  0  0  0  0  0  0  0  0  0  0
  -18.6510  -27.9810   23.0690 H   0  0  0  0  0  0  0  0  0  0  0  0
  -16.4110  -25.5070   24.4310 C   0  0  0  0  0  1  0  0  0  0  0  0
  -16.5360  -26.5140   23.2770 C   0  0  0  0  0  3  0  0  0  0  0  0
  -15.2430  -27.5480   21.4600 C   0  0  0  0  0  1  0  0  0  0  0  0
  -15.3090  -26.4770   22.4510 N   0  0  0  0  0  0  0  0  0  0  0  0
  -14.4800  -26.5370   23.0360 H   0  0  0  0  0  0  0  0  0  0  0  0
  1  2  1  0
  2  5  2  0
  3  4  1  0
  3  6  2  0
  4 61  1  0
  4  1  2  0
  5 10  1  0
  6 11  1  0
  6  5  1  0
 10  7  1  6
 10  9  1  0
 10  8  1  0
 12 11  1  0
 12 21  1  0
 13 19  1  0
 15 14  1  0
 15 16  1  0
 17 26  1  0
 17 18  1  0
 17 16  1  0
 19 18  1  0
 19 14  1  0
 20 13  2  0
 21 13  1  0
 22 21  1  0
 23 24  1  0
 24 43  1  0
 24 25  1  0
 25 27  1  0
 25 28  1  0
 26 27  1  0
 28 29  1  0
 29 30  2  0
 31 30  1  0
 31 34  1  0
 32 31  2  0
 33 28  2  0
 33 32  1  0
 34 35  1  0
 35 40  1  0
 36 35  2  0
 36 37  1  0
 37 38  2  0
 38 39  1  0
 38 42  1  0
 40 41  1  0
 40 39  2  0
 43 44  1  0
 44 46  1  0
 45 43  2  0
 47 44  1  0
 48 50  1  0
 48 23  1  0
 49 48  1  0
 51 52  1  0
 51 12  1  0
 52 54  1  0
 52 55  1  0
 53 52  1  0
 56 60  1  0
 56 51  1  0
 57 48  1  0
 60 58  1  1
 59 60  1  0
 60 57  1  0
 61 62  1  0
 62 64  1  0
 63 74  2  0
 64 69  2  0
 64 70  1  0
 65 75  1  0
 66 72  1  0
 67 73  1  0
 68 67  1  0
 68 66  2  0
 69 68  1  0
 70 71  2  0
 71 66  1  0
 72 65  1  0
 73 63  1  0
 73 65  1  0
 75 76  1  0
 76 78  1  0
 77 75  2  0
 79 88  1  0
 80 76  1  0
 80 84  1  0
 81 80  1  0
 81 82  1  0
 82 83  1  0
 83 79  1  0
 84 85  1  0
 84 79  2  0
 85 86  2  0
 86 87  1  0
 88 87  2  0
 89 94  1  0
 89 63  1  0
 90 89  1  0
 90 91  1  1
 92 90  1  0
 93 90  1  0
 94 97  1  0
 95 94  1  0
 95 99  1  0
 96 95  2  0
 99 98  1  0
100101  1  0
101102  1  0
101 99  1  0
M  ISO  4  13 100  21 100  61 101  62 101
M  END
>  <TORSDO>  (31) 
F 24

>  <SCORE>  (31) 
12.172

>  <name>  (31) 
30

>  <ligand_id>  (31) 
30

>  <original_smiles>  (31) 
[H]c1c([H])c([H])c2c(c1[H])C([H])([H])C([H])([H])C([H])([H])C2([H])N([H])C(=O)C1([H])N(C(=O)C([H])(N([H])C(=O)C([H])(N([H])C([H])([H])[H])C([H])([H])[H])C(C([H])([H])[H])(C([H])([H])[H])C([H])([H])[H])C([H])([H])c2c([H])c(OC([H])([H])c3c([H])c([H])c(C(C([H])([H])[H])(C([H])([H])[H])C([H])([H])[H])c(C([H])([H])C([H])(N([H])C(=O)N4C([H])([H])C([H])([H])C([H])([H])C([H])(n5nc(-c6c([H])c([H])c(Oc7c([H])c([H])c(F)c([H])c7F)c([H])c6[H])c(C(=O)N([H])[H])c5N([H])[H])C4([H])[H])C([H])(C([H])([H])C(C([H])([H])[H])(C([H])([H])[H])C([H])([H])[H])[N+]([H])([H])[H])c3[H])c([H])c([H])c2C1([H])[H]

>  <smiles>  (31) 
[H]c1c([H])c([H])c2c(c1[H])C([H])([H])C([H])([H])C([H])([H])C2([H])N([H])C(=O)C1([H])N(C(=O)C([H])(N([H])C(=O)C([H])(N([H])C([H])([H])[H])C([H])([H])[H])C(C([H])([H])[H])(C([H])([H])[H])C([H])([H])[H])C([H])([H])c2c([H])c(OC([H])([H])c3c([H])c([H])c(C(C([H])([H])[H])(C([H])([H])[H])C([H])([H])[H])c(C([H])([H])C([H])(N([H])C(=O)N4C([H])([H])C([H])([H])C([H])([H])C([H])(n5nc(-c6c([H])c([H])c(Oc7c([H])c([H])c(F)c([H])c7F)c([H])c6[H])c(C(=O)N([H])[H])c5N([H])[H])C4([H])[H])C([H])(C([H])([H])C(C([H])([H])[H])(C([H])([H])[H])C([H])([H])[H])[N+]([H])([H])[H])c3[H])c([H])c([H])c2C1([H])[H]

$$$$
31:0:0
     RDKit          3D

 95103  0  0  1  0  0  0  0  0999 V2000
  -25.9140  -22.3230   19.9290 C   0  0  0  0  0  2  0  0  0  0  0  0
  -27.2090  -21.8320   20.6050 C   0  0  0  0  0  2  0  0  0  0  0  0
  -28.4720  -22.4140   18.4520 C   0  0  0  0  0  2  0  0  0  0  0  0
  -25.4620  -21.4190   18.7630 C   0  0  0  0  0  2  0  0  0  0  0  0
  -27.7390  -21.2710   17.7210 C   0  0  0  0  0  2  0  0  0  0  0  0
  -28.5570  -22.3130   19.9980 C   0  0  1  0  0  0  0  0  0  0  0  0
  -26.2960  -21.5490   17.5510 N   0  0  0  0  0  4  0  0  0  0  0  0
  -26.1760  -22.4660   17.1510 H   0  0  0  0  0  0  0  0  0  0  0  0
  -25.9370  -20.8930   16.8750 H   0  0  0  0  0  0  0  0  0  0  0  0
  -28.5650  -24.1780   20.5010 C   0  0  0  0  0  2  0  0  0  0  0  0
  -28.3380  -25.8510   20.0310 O   0  0  0  0  0  0  0  0  0  0  0  0
  -24.6390  -31.9350   23.1580 C   0  0  0  0  0  0  0  0  0  0  0  0
  -27.2870  -26.9750   20.1290 C   0  0  0  0  0  0  0  0  0  0  0  0
  -23.4850  -30.5320   21.5020 C   0  0  0  0  0  3  0  0  0  0  0  0
  -24.9690  -28.9310   20.0860 C   0  0  0  0  0  0  0  0  0  0  0  0
  -26.0590  -30.7440   21.3830 C   0  0  0  0  0  2  0  0  0  0  0  0
  -26.1560  -29.3190   20.7190 C   0  0  0  0  0  0  0  0  0  0  0  0
  -27.3030  -28.3710   20.7020 C   0  0  0  0  0  3  0  0  0  0  0  0
  -26.0580  -26.7840   19.4510 C   0  0  0  0  0  3  0  0  0  0  0  0
  -24.9550  -27.6890   19.4290 C   0  0  0  0  0  3  0  0  0  0  0  0
  -23.7430  -29.8550   20.1260 C   0  0  0  0  0  2  0  0  0  0  0  0
  -24.7510  -31.1020   22.0680 N   0  0  0  0  0  0  0  0  0  0  0  0
  -23.5390  -32.2020   23.6710 O   0  0  0  0  0  0  0  0  0  0  0  0
  -22.7910  -29.5250   22.4590 C   0  0  0  0  0  0  0  0  0  0  0  0
  -21.4620  -29.3470   22.3340 N   0  0  0  0  0  0  0  0  0  0  0  0
  -23.4610  -28.9010   23.2860 O   0  0  0  0  0  0  0  0  0  0  0  0
  -20.9710  -29.9020   21.6460 H   0  0  0  0  0  0  0  0  0  0  0  0
  -18.0930  -28.0970   22.8620 C   0  0  0  0  0  0  0  0  0  0  0  0
  -20.6540  -28.3850   23.0930 C   0  0  0  0  0  3  0  0  0  0  0  0
  -20.7600  -26.9690   22.4820 C   0  0  0  0  0  2  0  0  0  0  0  0
  -19.6460  -26.6610   21.4760 C   0  0  0  0  0  2  0  0  0  0  0  0
  -18.2730  -26.7710   22.1430 C   0  0  0  0  0  2  0  0  0  0  0  0
  -19.2090  -28.8620   23.2940 C   0  0  0  0  0  0  0  0  0  0  0  0
  -18.9820  -30.1010   23.9320 C   0  0  0  0  0  3  0  0  0  0  0  0
  -17.6730  -30.5770   24.1380 C   0  0  0  0  0  3  0  0  0  0  0  0
  -16.5720  -29.8100   23.7200 C   0  0  0  0  0  3  0  0  0  0  0  0
  -16.7830  -28.5720   23.0880 C   0  0  0  0  0  3  0  0  0  0  0  0
  -25.8870  -32.6040   23.8100 C   0  0  0  0  0  3  0  0  0  0  0  0
  -25.5370  -33.9970   24.1480 N   0  0  0  0  0  0  0  0  0  0  0  0
  -25.8920  -35.0770   23.4380 C   0  0  0  0  0  0  0  0  0  0  0  0
  -26.6060  -35.0050   22.4350 O   0  0  0  0  0  0  0  0  0  0  0  0
  -24.9040  -34.1250   24.9250 H   0  0  0  0  0  0  0  0  0  0  0  0
  -24.1950  -36.8960   23.0340 C   0  0  0  0  0  1  0  0  0  0  0  0
  -25.3780  -36.4540   23.9110 C   0  0  0  0  0  3  0  0  0  0  0  0
  -27.4490  -37.3110   24.9200 C   0  0  0  0  0  1  0  0  0  0  0  0
  -26.4180  -37.5080   23.9030 N   0  0  0  0  0  0  0  0  0  0  0  0
  -26.0030  -38.4250   24.0460 H   0  0  0  0  0  0  0  0  0  0  0  0
  -26.3870  -31.8490   25.1040 C   0  0  1  0  0  0  0  0  0  0  0  0
  -25.2740  -31.5990   26.1510 C   0  0  0  0  0  1  0  0  0  0  0  0
  -27.0000  -30.4790   24.7430 C   0  0  0  0  0  1  0  0  0  0  0  0
  -27.5110  -32.6640   25.7840 C   0  0  0  0  0  1  0  0  0  0  0  0
  -29.6250  -20.7310   20.3050 C   0  0  0  0  0  3  0  0  0  0  0  0
  -30.9930  -20.9480   19.6230 C   0  0  0  0  0  2  0  0  0  0  0  0
  -32.1970  -20.3800   20.4020 C   0  0  0  0  0  2  0  0  0  0  0  0
  -34.7420  -20.3430   20.6390 C   0  0  0  0  0  1  0  0  0  0  0  0
  -33.5420  -20.8600   19.8360 C   0  0  0  0  0  2  0  0  0  0  0  0
  -29.4830  -18.8450   20.6830 C   0  0  0  0  0  2  0  0  0  0  0  0
  -30.5370  -15.8580   20.2320 C   0  0  0  0  0  0  0  0  0  0  0  0
  -30.6490  -13.3450   19.3640 C   0  0  0  0  0  2  0  0  0  0  0  0
  -29.7530  -12.9480   18.1580 C   0  0  0  0  0  2  0  0  0  0  0  0
  -28.3270  -12.5960   18.6180 C   0  0  0  0  0  2  0  0  0  0  0  0
  -27.8140  -13.5950   19.6820 C   0  0  0  0  0  3  0  0  0  0  0  0
  -28.8490  -13.8930   20.7870 C   0  0  0  0  0  2  0  0  0  0  0  0
  -30.0130  -14.5090   20.1120 N   0  0  0  0  0  0  0  0  0  0  0  0
  -31.7800  -15.8170   20.1940 O   0  0  0  0  0  0  0  0  0  0  0  0
  -29.7450  -17.1830   20.1480 N   0  0  0  0  0  0  0  0  0  0  0  0
  -28.8420  -16.8730   19.8160 H   0  0  0  0  0  0  0  0  0  0  0  0
  -25.4520  -14.1190   20.4590 C   0  0  0  0  0  0  0  0  0  0  0  0
  -24.3950  -13.3320   20.8180 C   0  0  0  0  0  0  0  0  0  0  0  0
  -24.8710  -11.9850   20.7760 C   0  0  0  0  0  0  0  0  0  0  0  0
  -26.4990  -13.2520   20.2050 N   0  0  0  0  0  0  0  0  0  0  0  0
  -26.1650  -11.9610   20.4650 N   0  0  0  0  0  0  0  0  0  0  0  0
  -24.1500  -10.7160   20.9530 C   0  0  0  0  0  0  0  0  0  0  0  0
  -24.5420   -9.7720   21.9270 C   0  0  0  0  0  3  0  0  0  0  0  0
  -23.8170   -8.5710   22.0930 C   0  0  0  0  0  3  0  0  0  0  0  0
  -22.6860   -8.3080   21.2860 C   0  0  0  0  0  0  0  0  0  0  0  0
  -22.3130   -9.2420   20.3020 C   0  0  0  0  0  3  0  0  0  0  0  0
  -23.0390  -10.4320   20.1340 C   0  0  0  0  0  3  0  0  0  0  0  0
  -21.9360   -7.1600   21.3590 O   0  0  0  0  0  0  0  0  0  0  0  0
  -21.7780   -6.4770   22.5380 C   0  0  0  0  0  0  0  0  0  0  0  0
  -21.1840   -7.0760   23.6710 C   0  0  0  0  0  3  0  0  0  0  0  0
  -20.9750   -6.3180   24.8410 C   0  0  0  0  0  3  0  0  0  0  0  0
  -21.3520   -4.9620   24.8780 C   0  0  0  0  0  0  0  0  0  0  0  0
  -21.9390   -4.3630   23.7490 C   0  0  0  0  0  3  0  0  0  0  0  0
  -22.1470   -5.1180   22.5820 C   0  0  0  0  0  0  0  0  0  0  0  0
  -22.6940   -4.5300   21.4900 F   0  0  0  0  0  0  0  0  0  0  0  0
  -21.1450   -4.2310   25.9980 F   0  0  0  0  0  0  0  0  0  0  0  0
  -22.9940  -13.7990   21.0810 C   0  0  0  0  0  0  0  0  0  0  0  0
  -22.2660  -13.1020   21.9460 N   0  0  0  0  0  0  0  0  0  0  0  0
  -22.5530  -14.8210   20.5560 O   0  0  0  0  0  0  0  0  0  0  0  0
  -22.6370  -12.2770   22.3940 H   0  0  0  0  0  0  0  0  0  0  0  0
  -21.3260  -13.3990   22.1650 H   0  0  0  0  0  0  0  0  0  0  0  0
  -25.6040  -15.4920   20.2950 N   0  0  0  0  0  0  0  0  0  0  0  0
  -24.8340  -16.1400   20.4230 H   0  0  0  0  0  0  0  0  0  0  0  0
  -26.4530  -15.9410   19.9790 H   0  0  0  0  0  0  0  0  0  0  0  0
  1  2  1  0
  3  6  1  0
  4  1  1  0
  5  3  1  0
  6 52  1  0
  6 10  1  1
  6  2  1  0
  7  5  1  0
  7  4  1  0
  8  7  1  0
  9  7  1  0
 11 13  1  0
 11 10  1  0
 12 23  2  0
 13 18  1  0
 14 22  1  0
 14 24  1  0
 15 21  1  0
 15 17  1  0
 16 22  1  0
 17 16  1  0
 18 17  2  0
 19 13  2  0
 20 19  1  0
 20 15  2  0
 21 14  1  0
 22 12  1  0
 24 26  2  0
 25 24  1  0
 27 25  1  0
 28 37  2  0
 28 33  1  0
 29 25  1  0
 29 33  1  0
 30 29  1  0
 31 32  1  0
 31 30  1  0
 32 28  1  0
 33 34  2  0
 34 35  1  0
 36 35  2  0
 37 36  1  0
 38 12  1  0
 38 39  1  0
 38 48  1  0
 39 42  1  0
 40 44  1  0
 40 39  1  0
 41 40  2  0
 44 43  1  0
 46 44  1  0
 46 47  1  0
 46 45  1  0
 48 51  1  1
 48 49  1  0
 50 48  1  0
 52 53  1  0
 52 57  1  0
 53 54  1  0
 56 54  1  0
 56 55  1  0
 59 64  1  0
 60 61  1  0
 60 59  1  0
 62 61  1  0
 62 71  1  0
 62 63  1  0
 64 58  1  0
 64 63  1  0
 65 58  2  0
 66 58  1  0
 66 57  1  0
 67 66  1  0
 68 69  2  0
 69 88  1  0
 70 69  1  0
 70 73  1  0
 71 68  1  0
 71 72  1  0
 72 70  2  0
 73 74  1  0
 74 75  2  0
 76 79  1  0
 76 75  1  0
 77 76  2  0
 78 77  1  0
 78 73  2  0
 79 80  1  0
 80 85  2  0
 80 81  1  0
 81 82  2  0
 82 83  1  0
 83 87  1  0
 84 83  2  0
 85 84  1  0
 86 85  1  0
 88 89  1  0
 89 92  1  0
 89 91  1  0
 90 88  2  0
 93 94  1  0
 93 68  1  0
 95 93  1  0
M  ISO  4  10 101  11 101  58 100  66 100
M  END
>  <TORSDO>  (32) 
F 22

>  <SCORE>  (32) 
-14.548

>  <name>  (32) 
31

>  <ligand_id>  (32) 
31

>  <original_smiles>  (32) 
[H]c1c([H])c([H])c2c(c1[H])C([H])([H])C([H])([H])C([H])([H])C2([H])N([H])C(=O)C1([H])N(C(=O)C([H])(N([H])C(=O)C([H])(N([H])C([H])([H])[H])C([H])([H])[H])C(C([H])([H])[H])(C([H])([H])[H])C([H])([H])[H])C([H])([H])c2c([H])c(OC([H])([H])C3(C([H])(C([H])([H])N([H])C(=O)N4C([H])([H])C([H])([H])C([H])([H])C([H])(n5nc(-c6c([H])c([H])c(Oc7c([H])c([H])c(F)c([H])c7F)c([H])c6[H])c(C(=O)N([H])[H])c5N([H])[H])C4([H])[H])C([H])([H])C([H])([H])C([H])([H])C([H])([H])[H])C([H])([H])C([H])([H])C([H])([H])[N+]([H])([H])C([H])([H])C3([H])[H])c([H])c([H])c2C1([H])[H]

>  <smiles>  (32) 
[H]c1c([H])c([H])c2c(c1[H])C([H])([H])C([H])([H])C([H])([H])C2([H])N([H])C(=O)C1([H])N(C(=O)C([H])(N([H])C(=O)C([H])(N([H])C([H])([H])[H])C([H])([H])[H])C(C([H])([H])[H])(C([H])([H])[H])C([H])([H])[H])C([H])([H])c2c([H])c(OC([H])([H])C3(C([H])(C([H])([H])N([H])C(=O)N4C([H])([H])C([H])([H])C([H])([H])C([H])(n5nc(-c6c([H])c([H])c(Oc7c([H])c([H])c(F)c([H])c7F)c([H])c6[H])c(C(=O)N([H])[H])c5N([H])[H])C4([H])[H])C([H])([H])C([H])([H])C([H])([H])C([H])([H])[H])C([H])([H])C([H])([H])C([H])([H])[N+]([H])([H])C([H])([H])C3([H])[H])c([H])c([H])c2C1([H])[H]

$$$$
32:0:0
     RDKit          3D

 95102  0  0  1  0  0  0  0  0999 V2000
  -29.8930  -21.1880   20.5600 C   0  0  0  0  0  2  0  0  0  0  0  0
  -28.7770  -22.1330   20.7070 N   0  0  0  0  0  4  0  0  0  0  0  0
  -27.9740  -21.6210   21.0350 H   0  0  0  0  0  0  0  0  0  0  0  0
  -28.4930  -22.5130   19.8180 H   0  0  0  0  0  0  0  0  0  0  0  0
  -29.0560  -23.2010   21.6800 C   0  0  0  0  0  2  0  0  0  0  0  0
  -29.4280  -24.6060   21.1090 C   0  0  0  0  0  2  0  0  0  0  0  0
  -28.2420  -25.3960   20.4990 C   0  0  0  0  0  2  0  0  0  0  0  0
  -28.4550  -26.8230   20.4430 O   0  0  0  0  0  0  0  0  0  0  0  0
  -24.6170  -32.0090   23.4590 C   0  0  0  0  0  0  0  0  0  0  0  0
  -27.3030  -27.5900   20.3790 C   0  0  0  0  0  0  0  0  0  0  0  0
  -23.4380  -30.6330   21.7770 C   0  0  0  0  0  3  0  0  0  0  0  0
  -24.9140  -29.1150   20.3550 C   0  0  0  0  0  0  0  0  0  0  0  0
  -25.9690  -30.9880   21.6300 C   0  0  0  0  0  2  0  0  0  0  0  0
  -26.0640  -29.6260   20.9710 C   0  0  0  0  0  0  0  0  0  0  0  0
  -27.2630  -28.8730   20.9770 C   0  0  0  0  0  3  0  0  0  0  0  0
  -26.1350  -27.1070   19.7410 C   0  0  0  0  0  3  0  0  0  0  0  0
  -24.9460  -27.8560   19.7330 C   0  0  0  0  0  3  0  0  0  0  0  0
  -23.6710  -29.9740   20.3920 C   0  0  0  0  0  2  0  0  0  0  0  0
  -24.6930  -31.2230   22.3480 N   0  0  0  0  0  0  0  0  0  0  0  0
  -23.5260  -32.2760   23.9840 O   0  0  0  0  0  0  0  0  0  0  0  0
  -22.7670  -29.5990   22.7110 C   0  0  0  0  0  0  0  0  0  0  0  0
  -21.4570  -29.3790   22.5170 N   0  0  0  0  0  0  0  0  0  0  0  0
  -23.4260  -29.0000   23.5650 O   0  0  0  0  0  0  0  0  0  0  0  0
  -20.9890  -29.9190   21.8020 H   0  0  0  0  0  0  0  0  0  0  0  0
  -18.1020  -28.0710   22.8290 C   0  0  0  0  0  0  0  0  0  0  0  0
  -20.6270  -28.4250   23.2520 C   0  0  0  0  0  3  0  0  0  0  0  0
  -20.8150  -26.9890   22.7080 C   0  0  0  0  0  2  0  0  0  0  0  0
  -19.7890  -26.6130   21.6340 C   0  0  0  0  0  2  0  0  0  0  0  0
  -18.3660  -26.7180   22.1890 C   0  0  0  0  0  2  0  0  0  0  0  0
  -19.1650  -28.8790   23.3140 C   0  0  0  0  0  0  0  0  0  0  0  0
  -18.8670  -30.1420   23.8670 C   0  0  0  0  0  3  0  0  0  0  0  0
  -17.5400  -30.6000   23.9440 C   0  0  0  0  0  3  0  0  0  0  0  0
  -16.4890  -29.7910   23.4770 C   0  0  0  0  0  3  0  0  0  0  0  0
  -16.7710  -28.5280   22.9250 C   0  0  0  0  0  3  0  0  0  0  0  0
  -25.8930  -32.6290   24.1100 C   0  0  0  0  0  3  0  0  0  0  0  0
  -26.3660  -31.8600   25.4050 C   0  0  1  0  0  0  0  0  0  0  0  0
  -25.2360  -31.6180   26.4320 C   0  0  0  0  0  1  0  0  0  0  0  0
  -26.9680  -30.4850   25.0310 C   0  0  0  0  0  1  0  0  0  0  0  0
  -27.4870  -32.6600   26.1090 C   0  0  0  0  0  1  0  0  0  0  0  0
  -25.5930  -34.0330   24.4230 N   0  0  0  0  0  0  0  0  0  0  0  0
  -25.9500  -35.0750   23.6580 C   0  0  0  0  0  0  0  0  0  0  0  0
  -26.6390  -34.9540   22.6410 O   0  0  0  0  0  0  0  0  0  0  0  0
  -24.9910  -34.2020   25.2140 H   0  0  0  0  0  0  0  0  0  0  0  0
  -24.2420  -36.8770   23.2560 C   0  0  0  0  0  1  0  0  0  0  0  0
  -25.4670  -36.4720   24.0920 C   0  0  0  0  0  3  0  0  0  0  0  0
  -27.5920  -37.3510   24.9500 C   0  0  0  0  0  1  0  0  0  0  0  0
  -26.5100  -37.5150   23.9840 N   0  0  0  0  0  0  0  0  0  0  0  0
  -26.1090  -38.4410   24.1110 H   0  0  0  0  0  0  0  0  0  0  0  0
  -29.7150  -20.1620   19.3990 C   0  0  0  0  0  2  0  0  0  0  0  0
  -28.6040  -19.0830   19.5480 C   0  0  0  0  0  2  0  0  0  0  0  0
  -28.8170  -18.0330   20.6670 C   0  0  0  0  0  2  0  0  0  0  0  0
  -29.9750  -17.0180   20.4290 C   0  0  0  0  0  3  0  0  0  0  0  0
  -30.1520  -14.6340   19.7300 C   0  0  0  0  0  0  0  0  0  0  0  0
  -29.9580  -12.3520   18.8140 C   0  0  0  0  0  2  0  0  0  0  0  0
  -28.9090  -12.3420   17.6850 C   0  0  0  0  0  2  0  0  0  0  0  0
  -27.4980  -12.1100   18.2570 C   0  0  0  0  0  2  0  0  0  0  0  0
  -27.1780  -13.0390   19.4600 C   0  0  0  0  0  3  0  0  0  0  0  0
  -28.3360  -13.0440   20.4830 C   0  0  0  0  0  2  0  0  0  0  0  0
  -29.5720  -13.4030   19.7700 N   0  0  0  0  0  0  0  0  0  0  0  0
  -31.1920  -14.8590   19.1070 O   0  0  0  0  0  0  0  0  0  0  0  0
  -29.4740  -15.6360   20.3180 N   0  0  0  0  0  0  0  0  0  0  0  0
  -28.6310  -15.4000   20.8170 H   0  0  0  0  0  0  0  0  0  0  0  0
  -24.8450  -13.5040   20.4400 C   0  0  0  0  0  0  0  0  0  0  0  0
  -23.8680  -12.6710   20.9160 C   0  0  0  0  0  0  0  0  0  0  0  0
  -24.3960  -11.3460   20.8140 C   0  0  0  0  0  0  0  0  0  0  0  0
  -25.9040  -12.6840   20.0820 N   0  0  0  0  0  0  0  0  0  0  0  0
  -25.6440  -11.3810   20.3630 N   0  0  0  0  0  0  0  0  0  0  0  0
  -23.7640  -10.0450   21.0670 C   0  0  0  0  0  0  0  0  0  0  0  0
  -24.2820   -9.1470   22.0280 C   0  0  0  0  0  3  0  0  0  0  0  0
  -23.6460   -7.9100   22.2660 C   0  0  0  0  0  3  0  0  0  0  0  0
  -22.4800   -7.5600   21.5440 C   0  0  0  0  0  0  0  0  0  0  0  0
  -21.9830   -8.4470   20.5740 C   0  0  0  0  0  3  0  0  0  0  0  0
  -22.6200   -9.6760   20.3330 C   0  0  0  0  0  3  0  0  0  0  0  0
  -21.8110   -6.3690   21.6910 O   0  0  0  0  0  0  0  0  0  0  0  0
  -21.7730   -5.7070   22.8920 C   0  0  0  0  0  0  0  0  0  0  0  0
  -21.2380   -6.3030   24.0550 C   0  0  0  0  0  3  0  0  0  0  0  0
  -21.1550   -5.5620   25.2520 C   0  0  0  0  0  3  0  0  0  0  0  0
  -21.5980   -4.2270   25.2860 C   0  0  0  0  0  0  0  0  0  0  0  0
  -22.1260   -3.6300   24.1270 C   0  0  0  0  0  3  0  0  0  0  0  0
  -22.2110   -4.3670   22.9330 C   0  0  0  0  0  0  0  0  0  0  0  0
  -22.7010   -3.7810   21.8150 F   0  0  0  0  0  0  0  0  0  0  0  0
  -21.5110   -3.5130   26.4320 F   0  0  0  0  0  0  0  0  0  0  0  0
  -22.4870  -13.0680   21.3500 C   0  0  0  0  0  0  0  0  0  0  0  0
  -21.9030  -12.3290   22.2880 N   0  0  0  0  0  0  0  0  0  0  0  0
  -21.9360  -14.0680   20.8940 O   0  0  0  0  0  0  0  0  0  0  0  0
  -22.3640  -11.5210   22.6780 H   0  0  0  0  0  0  0  0  0  0  0  0
  -20.9820  -12.5770   22.6210 H   0  0  0  0  0  0  0  0  0  0  0  0
  -24.9150  -14.8820   20.2630 N   0  0  0  0  0  0  0  0  0  0  0  0
  -24.1290  -15.4930   20.4620 H   0  0  0  0  0  0  0  0  0  0  0  0
  -25.6980  -15.3690   19.8470 H   0  0  0  0  0  0  0  0  0  0  0  0
  -30.9420  -17.0990   21.6240 C   0  0  0  0  0  0  0  0  0  0  0  0
  -31.8600  -18.0540   21.6010 N   0  0  0  0  0  0  0  0  0  0  0  0
  -30.8530  -16.3200   22.5720 O   0  0  0  0  0  0  0  0  0  0  0  0
  -31.9230  -18.6840   20.8140 H   0  0  0  0  0  0  0  0  0  0  0  0
  -32.5090  -18.1610   22.3680 H   0  0  0  0  0  0  0  0  0  0  0  0
  1  2  1  0
  2  3  1  0
  2  5  1  0
  4  2  1  0
  6  5  1  0
  7  6  1  0
  8  7  1  0
  9 20  2  0
 10  8  1  0
 10 15  1  0
 11 19  1  0
 11 21  1  0
 12 18  1  0
 12 14  1  0
 13 19  1  0
 14 15  2  0
 14 13  1  0
 16 10  2  0
 17 16  1  0
 17 12  2  0
 18 11  1  0
 19  9  1  0
 21 23  2  0
 22 21  1  0
 24 22  1  0
 25 34  2  0
 25 30  1  0
 26 22  1  0
 26 30  1  0
 27 26  1  0
 28 29  1  0
 28 27  1  0
 29 25  1  0
 30 31  2  0
 31 32  1  0
 33 32  2  0
 34 33  1  0
 35  9  1  0
 35 40  1  0
 35 36  1  0
 36 39  1  1
 36 37  1  0
 38 36  1  0
 40 43  1  0
 41 45  1  0
 41 40  1  0
 42 41  2  0
 45 44  1  0
 47 45  1  0
 47 48  1  0
 47 46  1  0
 49 50  1  0
 49  1  1  0
 50 51  1  0
 52 51  1  0
 52 91  1  0
 53 59  1  0
 53 61  1  0
 54 59  1  0
 55 56  1  0
 55 54  1  0
 57 56  1  0
 57 66  1  0
 57 58  1  0
 59 58  1  0
 60 53  2  0
 61 52  1  0
 61 62  1  0
 63 64  2  0
 64 83  1  0
 65 64  1  0
 65 68  1  0
 66 67  1  0
 66 63  1  0
 67 65  2  0
 68 69  1  0
 69 70  2  0
 71 74  1  0
 71 70  1  0
 72 71  2  0
 73 72  1  0
 73 68  2  0
 74 75  1  0
 75 80  2  0
 75 76  1  0
 76 77  2  0
 77 78  1  0
 78 82  1  0
 79 78  2  0
 80 79  1  0
 81 80  1  0
 83 84  1  0
 84 87  1  0
 84 86  1  0
 85 83  2  0
 88 63  1  0
 88 89  1  0
 90 88  1  0
 91 93  2  0
 92 91  1  0
 92 95  1  0
 94 92  1  0
M  ISO  4   7 101   8 101  53 100  61 100
M  END
>  <TORSDO>  (33) 
F 25

>  <SCORE>  (33) 
-11.471

>  <name>  (33) 
32

>  <ligand_id>  (33) 
32

>  <original_smiles>  (33) 
[H]c1c([H])c([H])c2c(c1[H])C([H])([H])C([H])([H])C([H])([H])C2([H])N([H])C(=O)C1([H])N(C(=O)C([H])(N([H])C(=O)C([H])(N([H])C([H])([H])[H])C([H])([H])[H])C(C([H])([H])[H])(C([H])([H])[H])C([H])([H])[H])C([H])([H])c2c([H])c(OC([H])([H])C([H])([H])C([H])([H])[N+]([H])([H])C([H])([H])C([H])([H])C([H])([H])C([H])([H])C([H])(C(=O)N([H])[H])N([H])C(=O)N3C([H])([H])C([H])([H])C([H])([H])C([H])(n4nc(-c5c([H])c([H])c(Oc6c([H])c([H])c(F)c([H])c6F)c([H])c5[H])c(C(=O)N([H])[H])c4N([H])[H])C3([H])[H])c([H])c([H])c2C1([H])[H]

>  <smiles>  (33) 
[H]c1c([H])c([H])c2c(c1[H])C([H])([H])C([H])([H])C([H])([H])C2([H])N([H])C(=O)C1([H])N(C(=O)C([H])(N([H])C(=O)C([H])(N([H])C([H])([H])[H])C([H])([H])[H])C(C([H])([H])[H])(C([H])([H])[H])C([H])([H])[H])C([H])([H])c2c([H])c(OC([H])([H])C([H])([H])C([H])([H])[N+]([H])([H])C([H])([H])C([H])([H])C([H])([H])C([H])([H])C([H])(C(=O)N([H])[H])N([H])C(=O)N3C([H])([H])C([H])([H])C([H])([H])C([H])(n4nc(-c5c([H])c([H])c(Oc6c([H])c([H])c(F)c([H])c6F)c([H])c5[H])c(C(=O)N([H])[H])c4N([H])[H])C3([H])[H])c([H])c([H])c2C1([H])[H]

$$$$
33:0:0
     RDKit          3D

 98106  0  0  1  0  0  0  0  0999 V2000
  -29.2750  -21.0390   20.5760 C   0  0  0  0  0  3  0  0  0  0  0  0
  -29.6890  -24.2810   23.7000 C   0  0  0  0  0  3  0  0  0  0  0  0
  -29.9130  -22.9250   23.8880 C   0  0  0  0  0  3  0  0  0  0  0  0
  -29.1770  -24.7290   22.4780 C   0  0  0  0  0  3  0  0  0  0  0  0
  -29.6740  -22.0320   22.8370 C   0  0  0  0  0  3  0  0  0  0  0  0
  -28.8970  -23.8930   21.3640 C   0  0  0  0  0  0  0  0  0  0  0  0
  -29.2140  -22.3950   21.5370 C   0  0  0  0  0  0  0  0  0  0  0  0
  -28.2270  -24.8770   20.2260 C   0  0  0  0  0  2  0  0  0  0  0  0
  -28.3600  -26.4370   20.3390 O   0  0  0  0  0  0  0  0  0  0  0  0
  -24.6480  -32.0070   23.3930 C   0  0  0  0  0  0  0  0  0  0  0  0
  -27.2800  -27.3920   20.2680 C   0  0  0  0  0  0  0  0  0  0  0  0
  -23.4730  -30.6580   21.7020 C   0  0  0  0  0  3  0  0  0  0  0  0
  -24.9420  -29.1270   20.2490 C   0  0  0  0  0  0  0  0  0  0  0  0
  -26.0260  -30.9370   21.5710 C   0  0  0  0  0  2  0  0  0  0  0  0
  -26.1120  -29.5640   20.8820 C   0  0  0  0  0  0  0  0  0  0  0  0
  -27.2780  -28.7140   20.8700 C   0  0  0  0  0  3  0  0  0  0  0  0
  -26.0860  -27.0530   19.5950 C   0  0  0  0  0  3  0  0  0  0  0  0
  -24.9450  -27.8860   19.5890 C   0  0  0  0  0  3  0  0  0  0  0  0
  -23.7110  -30.0210   20.3070 C   0  0  0  0  0  2  0  0  0  0  0  0
  -24.7370  -31.2190   22.2810 N   0  0  0  0  0  0  0  0  0  0  0  0
  -23.5550  -32.2740   23.9170 O   0  0  0  0  0  0  0  0  0  0  0  0
  -22.7850  -29.6230   22.6260 C   0  0  0  0  0  0  0  0  0  0  0  0
  -21.4620  -29.4410   22.4710 N   0  0  0  0  0  0  0  0  0  0  0  0
  -23.4470  -28.9850   23.4490 O   0  0  0  0  0  0  0  0  0  0  0  0
  -20.9830  -30.0100   21.7870 H   0  0  0  0  0  0  0  0  0  0  0  0
  -18.0860  -28.1940   22.8700 C   0  0  0  0  0  0  0  0  0  0  0  0
  -20.6350  -28.4820   23.2070 C   0  0  0  0  0  3  0  0  0  0  0  0
  -20.7680  -27.0600   22.6100 C   0  0  0  0  0  2  0  0  0  0  0  0
  -19.6950  -26.7440   21.5630 C   0  0  0  0  0  2  0  0  0  0  0  0
  -18.2960  -26.8610   22.1730 C   0  0  0  0  0  2  0  0  0  0  0  0
  -19.1830  -28.9620   23.3420 C   0  0  0  0  0  0  0  0  0  0  0  0
  -18.9320  -30.2100   23.9540 C   0  0  0  0  0  3  0  0  0  0  0  0
  -17.6170  -30.6900   24.1000 C   0  0  0  0  0  3  0  0  0  0  0  0
  -16.5340  -29.9190   23.6470 C   0  0  0  0  0  3  0  0  0  0  0  0
  -16.7690  -28.6740   23.0360 C   0  0  0  0  0  3  0  0  0  0  0  0
  -25.9160  -32.6340   24.0540 C   0  0  0  0  0  3  0  0  0  0  0  0
  -26.4110  -31.8320   25.3190 C   0  0  1  0  0  0  0  0  0  0  0  0
  -25.3020  -31.5680   26.3660 C   0  0  0  0  0  1  0  0  0  0  0  0
  -27.0020  -30.4650   24.9030 C   0  0  0  0  0  1  0  0  0  0  0  0
  -27.5520  -32.6110   26.0160 C   0  0  0  0  0  1  0  0  0  0  0  0
  -25.5920  -34.0200   24.4210 N   0  0  0  0  0  0  0  0  0  0  0  0
  -25.9780  -35.1060   23.7370 C   0  0  0  0  0  0  0  0  0  0  0  0
  -26.7040  -35.0420   22.7400 O   0  0  0  0  0  0  0  0  0  0  0  0
  -24.9580  -34.1450   25.1970 H   0  0  0  0  0  0  0  0  0  0  0  0
  -24.3050  -36.9470   23.3540 C   0  0  0  0  0  1  0  0  0  0  0  0
  -25.4780  -36.4800   24.2310 C   0  0  0  0  0  3  0  0  0  0  0  0
  -27.5610  -37.2860   25.2510 C   0  0  0  0  0  1  0  0  0  0  0  0
  -26.5300  -37.5200   24.2440 N   0  0  0  0  0  0  0  0  0  0  0  0
  -26.1300  -38.4400   24.4070 H   0  0  0  0  0  0  0  0  0  0  0  0
  -29.6790  -19.4660   21.1900 C   0  0  0  0  0  2  0  0  0  0  0  0
  -29.6940  -17.9390   20.4200 C   0  0  0  0  0  3  0  0  0  0  0  0
  -30.5870  -15.3620   21.2160 C   0  0  0  0  0  0  0  0  0  0  0  0
  -30.7090  -12.9180   20.5310 C   0  0  0  0  0  2  0  0  0  0  0  0
  -29.9730  -12.7400   19.1830 C   0  0  0  0  0  2  0  0  0  0  0  0
  -28.4690  -12.4970   19.4150 C   0  0  0  0  0  2  0  0  0  0  0  0
  -27.8590  -13.4600   20.4670 C   0  0  0  0  0  3  0  0  0  0  0  0
  -28.7500  -13.6210   21.7200 C   0  0  0  0  0  2  0  0  0  0  0  0
  -30.0730  -14.0610   21.2520 N   0  0  0  0  0  0  0  0  0  0  0  0
  -31.8080  -15.4640   21.0440 O   0  0  0  0  0  0  0  0  0  0  0  0
  -29.7200  -16.5060   21.1550 N   0  0  0  0  0  0  0  0  0  0  0  0
  -28.7810  -16.2240   21.3940 H   0  0  0  0  0  0  0  0  0  0  0  0
  -25.3860  -13.9570   20.8920 C   0  0  0  0  0  0  0  0  0  0  0  0
  -24.3080  -13.1590   21.1300 C   0  0  0  0  0  0  0  0  0  0  0  0
  -24.8130  -11.8240   21.1700 C   0  0  0  0  0  0  0  0  0  0  0  0
  -26.4810  -13.1160   20.7970 N   0  0  0  0  0  0  0  0  0  0  0  0
  -26.1350  -11.8240   21.0290 N   0  0  0  0  0  0  0  0  0  0  0  0
  -24.0980  -10.5490   21.2760 C   0  0  0  0  0  0  0  0  0  0  0  0
  -24.4170   -9.6060   22.2770 C   0  0  0  0  0  3  0  0  0  0  0  0
  -23.6990   -8.3950   22.3710 C   0  0  0  0  0  3  0  0  0  0  0  0
  -22.6470   -8.1230   21.4650 C   0  0  0  0  0  0  0  0  0  0  0  0
  -22.3470   -9.0560   20.4560 C   0  0  0  0  0  3  0  0  0  0  0  0
  -23.0680  -10.2570   20.3610 C   0  0  0  0  0  3  0  0  0  0  0  0
  -21.9130   -6.9610   21.4670 O   0  0  0  0  0  0  0  0  0  0  0  0
  -21.7020   -6.2470   22.6190 C   0  0  0  0  0  0  0  0  0  0  0  0
  -21.0520   -6.8150   23.7370 C   0  0  0  0  0  3  0  0  0  0  0  0
  -20.7930   -6.0240   24.8750 C   0  0  0  0  0  3  0  0  0  0  0  0
  -21.1750   -4.6690   24.8940 C   0  0  0  0  0  0  0  0  0  0  0  0
  -21.8160   -4.1020   23.7780 C   0  0  0  0  0  3  0  0  0  0  0  0
  -22.0760   -4.8890   22.6430 C   0  0  0  0  0  0  0  0  0  0  0  0
  -22.6780   -4.3350   21.5640 F   0  0  0  0  0  0  0  0  0  0  0  0
  -20.9170   -3.9080   25.9820 F   0  0  0  0  0  0  0  0  0  0  0  0
  -22.8790  -13.6070   21.2160 C   0  0  0  0  0  0  0  0  0  0  0  0
  -22.0630  -12.9060   21.9950 N   0  0  0  0  0  0  0  0  0  0  0  0
  -22.4900  -14.6160   20.6300 O   0  0  0  0  0  0  0  0  0  0  0  0
  -22.3840  -12.0880   22.4910 H   0  0  0  0  0  0  0  0  0  0  0  0
  -21.1010  -13.1950   22.1010 H   0  0  0  0  0  0  0  0  0  0  0  0
  -25.5120  -15.3240   20.7240 N   0  0  0  0  0  0  0  0  0  0  0  0
  -24.7120  -15.9440   20.7520 H   0  0  0  0  0  0  0  0  0  0  0  0
  -26.3710  -15.7940   20.4740 H   0  0  0  0  0  0  0  0  0  0  0  0
  -27.1570  -18.0850   20.2230 C   0  0  0  0  0  1  0  0  0  0  0  0
  -28.4760  -17.9210   19.4430 C   0  0  0  0  0  3  0  0  0  0  0  0
  -27.2160  -16.5460   17.6280 C   0  0  0  0  0  1  0  0  0  0  0  0
  -28.4980  -16.7210   18.4560 C   0  0  0  0  0  2  0  0  0  0  0  0
  -30.2370  -21.3790   19.4200 C   0  0  0  0  0  2  0  0  0  0  0  0
  -31.5710  -21.7720   19.9190 N   0  0  0  0  0  4  0  0  0  0  0  0
  -32.1510  -22.0910   19.1660 H   0  0  0  0  0  0  0  0  0  0  0  0
  -32.0420  -21.0110   20.3790 H   0  0  0  0  0  0  0  0  0  0  0  0
  -31.4660  -22.5230   20.5780 H   0  0  0  0  0  0  0  0  0  0  0  0
  1 94  1  0
  1 50  1  0
  1  7  1  0
  2  3  1  0
  4  2  2  0
  5  3  2  0
  6  7  2  0
  6  4  1  0
  7  5  1  0
  8  9  1  0
  8  6  1  0
 10 21  2  0
 11  9  1  0
 11 16  1  0
 12 20  1  0
 12 22  1  0
 13 19  1  0
 13 15  1  0
 14 20  1  0
 15 14  1  0
 16 15  2  0
 17 11  2  0
 18 17  1  0
 18 13  2  0
 19 12  1  0
 20 10  1  0
 22 24  2  0
 23 22  1  0
 25 23  1  0
 26 35  2  0
 26 31  1  0
 27 23  1  0
 27 31  1  0
 28 27  1  0
 29 30  1  0
 29 28  1  0
 30 26  1  0
 31 32  2  0
 32 33  1  0
 34 33  2  0
 35 34  1  0
 36 10  1  0
 36 41  1  0
 36 37  1  0
 37 40  1  1
 37 38  1  0
 39 37  1  0
 41 44  1  0
 42 46  1  0
 42 41  1  0
 43 42  2  0
 46 45  1  0
 46 48  1  0
 48 49  1  0
 48 47  1  0
 51 60  1  0
 51 50  1  0
 52 58  1  0
 53 58  1  0
 54 55  1  0
 54 53  1  0
 56 55  1  0
 56 65  1  0
 56 57  1  0
 58 57  1  0
 59 52  2  0
 60 52  1  0
 60 61  1  0
 62 63  2  0
 63 64  1  0
 63 82  1  0
 64 67  1  0
 65 62  1  0
 65 66  1  0
 66 64  2  0
 67 68  1  0
 68 69  2  0
 70 73  1  0
 70 69  1  0
 71 70  2  0
 72 71  1  0
 72 67  2  0
 73 74  1  0
 74 79  2  0
 74 75  1  0
 75 76  2  0
 76 77  1  0
 77 81  1  0
 78 77  2  0
 79 78  1  0
 80 79  1  0
 82 83  1  0
 83 86  1  0
 83 85  1  0
 84 82  2  0
 87 88  1  0
 87 62  1  0
 89 87  1  0
 91 90  1  0
 91 51  1  0
 92 93  1  0
 93 91  1  0
 94 95  1  0
 95 97  1  0
 95 98  1  0
 96 95  1  0
M  ISO  4   8 101   9 101  52 100  60 100
M  END
>  <TORSDO>  (34) 
F 24

>  <SCORE>  (34) 
-9.690

>  <name>  (34) 
33

>  <ligand_id>  (34) 
33

>  <original_smiles>  (34) 
[H]c1c([H])c([H])c(C([H])(C([H])([H])C([H])(N([H])C(=O)N2C([H])([H])C([H])([H])C([H])([H])C([H])(n3nc(-c4c([H])c([H])c(Oc5c([H])c([H])c(F)c([H])c5F)c([H])c4[H])c(C(=O)N([H])[H])c3N([H])[H])C2([H])[H])C([H])(C([H])([H])[H])C([H])([H])C([H])([H])[H])C([H])([H])[N+]([H])([H])[H])c(C([H])([H])Oc2c([H])c([H])c3c(c2[H])C([H])([H])N(C(=O)C([H])(N([H])C(=O)C([H])(N([H])C([H])([H])[H])C([H])([H])[H])C(C([H])([H])[H])(C([H])([H])[H])C([H])([H])[H])C([H])(C(=O)N([H])C2([H])c4c([H])c([H])c([H])c([H])c4C([H])([H])C([H])([H])C2([H])[H])C3([H])[H])c1[H]

>  <smiles>  (34) 
[H]c1c([H])c([H])c(C([H])(C([H])([H])C([H])(N([H])C(=O)N2C([H])([H])C([H])([H])C([H])([H])C([H])(n3nc(-c4c([H])c([H])c(Oc5c([H])c([H])c(F)c([H])c5F)c([H])c4[H])c(C(=O)N([H])[H])c3N([H])[H])C2([H])[H])C([H])(C([H])([H])[H])C([H])([H])C([H])([H])[H])C([H])([H])[N+]([H])([H])[H])c(C([H])([H])Oc2c([H])c([H])c3c(c2[H])C([H])([H])N(C(=O)C([H])(N([H])C(=O)C([H])(N([H])C([H])([H])[H])C([H])([H])[H])C(C([H])([H])[H])(C([H])([H])[H])C([H])([H])[H])C([H])(C(=O)N([H])C2([H])c4c([H])c([H])c([H])c([H])c4C([H])([H])C([H])([H])C2([H])[H])C3([H])[H])c1[H]

$$$$
34:0:0
     RDKit          3D

 95102  0  0  1  0  0  0  0  0999 V2000
  -29.6150  -18.8890   19.7800 C   0  0  0  0  0  3  0  0  0  0  0  0
  -29.6150  -20.4480   20.4310 C   0  0  0  0  0  3  0  0  0  0  0  0
  -28.8130  -21.8090   19.8820 C   0  0  0  0  0  3  0  0  0  0  0  0
  -28.9180  -23.3330   20.5710 C   0  0  0  0  0  3  0  0  0  0  0  0
  -27.9860  -24.6500   20.1400 C   0  0  0  0  0  3  0  0  0  0  0  0
  -28.1890  -26.1270   20.5520 O   0  0  0  0  0  0  0  0  0  0  0  0
  -24.6260  -31.8910   23.4010 C   0  0  0  0  0  0  0  0  0  0  0  0
  -27.1470  -27.1130   20.4450 C   0  0  0  0  0  0  0  0  0  0  0  0
  -23.4220  -30.5150   21.7480 C   0  0  0  0  0  3  0  0  0  0  0  0
  -24.8590  -28.8970   20.3610 C   0  0  0  0  0  0  0  0  0  0  0  0
  -25.9840  -30.7160   21.6340 C   0  0  0  0  0  2  0  0  0  0  0  0
  -26.0320  -29.3190   20.9970 C   0  0  0  0  0  0  0  0  0  0  0  0
  -27.1740  -28.4380   21.0320 C   0  0  0  0  0  3  0  0  0  0  0  0
  -25.9560  -26.7930   19.7570 C   0  0  0  0  0  3  0  0  0  0  0  0
  -24.8330  -27.6450   19.7280 C   0  0  0  0  0  3  0  0  0  0  0  0
  -23.6490  -29.8170   20.3790 C   0  0  0  0  0  2  0  0  0  0  0  0
  -24.6970  -31.0610   22.3160 N   0  0  0  0  0  0  0  0  0  0  0  0
  -23.5380  -32.2090   23.9050 O   0  0  0  0  0  0  0  0  0  0  0  0
  -22.7020  -29.5320   22.7060 C   0  0  0  0  0  0  0  0  0  0  0  0
  -21.3810  -29.3570   22.5230 N   0  0  0  0  0  0  0  0  0  0  0  0
  -23.3350  -28.9250   23.5740 O   0  0  0  0  0  0  0  0  0  0  0  0
  -20.9280  -29.8950   21.7980 H   0  0  0  0  0  0  0  0  0  0  0  0
  -17.9890  -28.1410   22.8750 C   0  0  0  0  0  0  0  0  0  0  0  0
  -20.5250  -28.4430   23.2840 C   0  0  0  0  0  3  0  0  0  0  0  0
  -20.6720  -26.9890   22.7760 C   0  0  0  0  0  2  0  0  0  0  0  0
  -19.6360  -26.6130   21.7110 C   0  0  0  0  0  2  0  0  0  0  0  0
  -18.2160  -26.7680   22.2650 C   0  0  0  0  0  2  0  0  0  0  0  0
  -19.0720  -28.9340   23.3400 C   0  0  0  0  0  0  0  0  0  0  0  0
  -18.8050  -30.2150   23.8690 C   0  0  0  0  0  3  0  0  0  0  0  0
  -17.4880  -30.7060   23.9370 C   0  0  0  0  0  3  0  0  0  0  0  0
  -16.4190  -29.9130   23.4870 C   0  0  0  0  0  3  0  0  0  0  0  0
  -16.6700  -28.6310   22.9640 C   0  0  0  0  0  3  0  0  0  0  0  0
  -25.9090  -32.4980   24.0480 C   0  0  0  0  0  3  0  0  0  0  0  0
  -26.3650  -31.7330   25.3510 C   0  0  1  0  0  0  0  0  0  0  0  0
  -25.2290  -31.5360   26.3830 C   0  0  0  0  0  1  0  0  0  0  0  0
  -26.9330  -30.3380   25.0040 C   0  0  0  0  0  1  0  0  0  0  0  0
  -27.5100  -32.5130   26.0390 C   0  0  0  0  0  1  0  0  0  0  0  0
  -25.6300  -33.9100   24.3510 N   0  0  0  0  0  0  0  0  0  0  0  0
  -26.0070  -34.9440   23.5880 C   0  0  0  0  0  0  0  0  0  0  0  0
  -26.6920  -34.8080   22.5710 O   0  0  0  0  0  0  0  0  0  0  0  0
  -25.0210  -34.0900   25.1360 H   0  0  0  0  0  0  0  0  0  0  0  0
  -24.3340  -36.7840   23.1860 C   0  0  0  0  0  1  0  0  0  0  0  0
  -25.5540  -36.3540   24.0180 C   0  0  0  0  0  3  0  0  0  0  0  0
  -27.7040  -37.1910   24.8590 C   0  0  0  0  0  1  0  0  0  0  0  0
  -26.6190  -37.3740   23.9000 N   0  0  0  0  0  0  0  0  0  0  0  0
  -26.2380  -38.3080   24.0250 H   0  0  0  0  0  0  0  0  0  0  0  0
  -28.1650  -18.3350   19.8220 C   0  0  0  0  0  2  0  0  0  0  0  0
  -27.6590  -17.9100   18.5050 N   0  0  0  0  0  4  0  0  0  0  0  0
  -27.5080  -18.7040   17.9080 H   0  0  0  0  0  0  0  0  0  0  0  0
  -26.7750  -17.4460   18.6250 H   0  0  0  0  0  0  0  0  0  0  0  0
  -28.2890  -17.2750   18.0480 H   0  0  0  0  0  0  0  0  0  0  0  0
  -30.7350  -17.6640   20.1710 C   0  0  0  0  0  3  0  0  0  0  0  0
  -31.2450  -14.9640   19.9030 C   0  0  0  0  0  0  0  0  0  0  0  0
  -31.0920  -12.5320   19.2430 C   0  0  0  0  0  2  0  0  0  0  0  0
  -30.1320  -12.3690   18.0420 C   0  0  0  0  0  2  0  0  0  0  0  0
  -28.6700  -12.2450   18.5170 C   0  0  0  0  0  2  0  0  0  0  0  0
  -28.3020  -13.3080   19.5840 C   0  0  0  0  0  3  0  0  0  0  0  0
  -29.3730  -13.4110   20.6870 C   0  0  0  0  0  2  0  0  0  0  0  0
  -30.6400  -13.7210   20.0130 N   0  0  0  0  0  0  0  0  0  0  0  0
  -32.4460  -15.0070   19.6230 O   0  0  0  0  0  0  0  0  0  0  0  0
  -30.4430  -16.1330   19.9350 N   0  0  0  0  0  0  0  0  0  0  0  0
  -29.4770  -15.8930   20.0890 H   0  0  0  0  0  0  0  0  0  0  0  0
  -26.0020  -14.0500   20.4320 C   0  0  0  0  0  0  0  0  0  0  0  0
  -24.8970  -13.3470   20.8290 C   0  0  0  0  0  0  0  0  0  0  0  0
  -25.2590  -11.9670   20.7510 C   0  0  0  0  0  0  0  0  0  0  0  0
  -26.9650  -13.1010   20.1310 N   0  0  0  0  0  0  0  0  0  0  0  0
  -26.5290  -11.8420   20.3860 N   0  0  0  0  0  0  0  0  0  0  0  0
  -24.4480  -10.7580   20.9430 C   0  0  0  0  0  0  0  0  0  0  0  0
  -24.8190   -9.7660   21.8760 C   0  0  0  0  0  3  0  0  0  0  0  0
  -24.0160   -8.6190   22.0570 C   0  0  0  0  0  3  0  0  0  0  0  0
  -22.8280   -8.4610   21.3040 C   0  0  0  0  0  0  0  0  0  0  0  0
  -22.4760   -9.4410   20.3600 C   0  0  0  0  0  3  0  0  0  0  0  0
  -23.2790  -10.5790   20.1780 C   0  0  0  0  0  3  0  0  0  0  0  0
  -21.9980   -7.3690   21.3960 O   0  0  0  0  0  0  0  0  0  0  0  0
  -21.8590   -6.6660   22.5650 C   0  0  0  0  0  0  0  0  0  0  0  0
  -21.4260   -7.2850   23.7590 C   0  0  0  0  0  3  0  0  0  0  0  0
  -21.2300   -6.5120   24.9210 C   0  0  0  0  0  3  0  0  0  0  0  0
  -21.4540   -5.1230   24.8890 C   0  0  0  0  0  0  0  0  0  0  0  0
  -21.8770   -4.5040   23.6990 C   0  0  0  0  0  3  0  0  0  0  0  0
  -22.0760   -5.2730   22.5410 C   0  0  0  0  0  0  0  0  0  0  0  0
  -22.4640   -4.6700   21.3920 F   0  0  0  0  0  0  0  0  0  0  0  0
  -21.2570   -4.3780   26.0020 F   0  0  0  0  0  0  0  0  0  0  0  0
  -23.5510  -13.9220   21.1650 C   0  0  0  0  0  0  0  0  0  0  0  0
  -22.8160  -13.2710   22.0590 N   0  0  0  0  0  0  0  0  0  0  0  0
  -23.1650  -14.9800   20.6700 O   0  0  0  0  0  0  0  0  0  0  0  0
  -23.1460  -12.4140   22.4800 H   0  0  0  0  0  0  0  0  0  0  0  0
  -21.9110  -13.6290   22.3240 H   0  0  0  0  0  0  0  0  0  0  0  0
  -26.2600  -15.4070   20.2710 N   0  0  0  0  0  0  0  0  0  0  0  0
  -25.5450  -16.1110   20.4190 H   0  0  0  0  0  0  0  0  0  0  0  0
  -27.1030  -15.7760   19.8580 H   0  0  0  0  0  0  0  0  0  0  0  0
  -32.3490  -16.6390   21.9150 C   0  0  0  0  0  1  0  0  0  0  0  0
  -32.1720  -19.0880   21.8010 C   0  0  0  0  0  1  0  0  0  0  0  0
  -31.3460  -17.7900   21.6350 C   0  0  1  0  0  0  0  0  0  0  0  0
  -30.6460  -17.9750   24.1630 C   0  0  0  0  0  1  0  0  0  0  0  0
  -30.2170  -17.7250   22.7040 C   0  0  0  0  0  2  0  0  0  0  0  0
  1 47  1  0
  1 52  1  0
  1  2  1  0
  3  2  2  0
  3  4  1  0
  5  6  1  0
  5  4  2  0
  7 18  2  0
  8  6  1  0
  8 13  1  0
  9 17  1  0
  9 19  1  0
 10 16  1  0
 10 12  1  0
 11 17  1  0
 12 13  2  0
 12 11  1  0
 14  8  2  0
 15 14  1  0
 15 10  2  0
 16  9  1  0
 17  7  1  0
 19 21  2  0
 20 19  1  0
 22 20  1  0
 23 32  2  0
 23 28  1  0
 24 20  1  0
 24 28  1  0
 25 24  1  0
 26 27  1  0
 26 25  1  0
 27 23  1  0
 28 29  2  0
 29 30  1  0
 31 30  2  0
 32 31  1  0
 33  7  1  0
 33 38  1  0
 33 34  1  0
 34 37  1  1
 34 35  1  0
 36 34  1  0
 38 41  1  0
 39 43  1  0
 39 38  1  0
 40 39  2  0
 43 42  1  0
 45 43  1  0
 45 46  1  0
 45 44  1  0
 48 50  1  0
 48 47  1  0
 49 48  1  0
 51 48  1  0
 52 61  1  0
 52 93  1  0
 53 61  1  0
 53 59  1  0
 54 59  1  0
 55 56  1  0
 55 54  1  0
 57 56  1  0
 57 66  1  0
 57 58  1  0
 59 58  1  0
 60 53  2  0
 61 62  1  0
 63 64  2  0
 64 83  1  0
 65 64  1  0
 65 68  1  0
 66 67  1  0
 66 63  1  0
 67 65  2  0
 68 69  1  0
 69 70  2  0
 71 74  1  0
 71 70  1  0
 72 71  2  0
 73 72  1  0
 73 68  2  0
 74 75  1  0
 75 76  1  0
 76 77  2  0
 78 77  1  0
 78 82  1  0
 79 78  2  0
 80 75  2  0
 80 79  1  0
 81 80  1  0
 83 84  1  0
 84 87  1  0
 84 86  1  0
 85 83  2  0
 88 89  1  0
 88 63  1  0
 90 88  1  0
 93 92  1  6
 93 91  1  0
 93 95  1  0
 95 94  1  0
M  ISO  4   5 101   6 101  53 100  61 100
M  END
>  <TORSDO>  (35) 
F 25

>  <SCORE>  (35) 
-9.356

>  <name>  (35) 
34

>  <ligand_id>  (35) 
34

>  <original_smiles>  (35) 
[H]c1c([H])c([H])c2c(c1[H])C([H])([H])C([H])([H])C([H])([H])C2([H])N([H])C(=O)C1([H])N(C(=O)C([H])(N([H])C(=O)C([H])(N([H])C([H])([H])[H])C([H])([H])[H])C(C([H])([H])[H])(C([H])([H])[H])C([H])([H])[H])C([H])([H])c2c([H])c(OC([H])([H])C([H])([H])C([H])([H])C([H])([H])C([H])(C([H])(N([H])C(=O)N3C([H])([H])C([H])([H])C([H])([H])C([H])(n4nc(-c5c([H])c([H])c(Oc6c([H])c([H])c(F)c([H])c6F)c([H])c5[H])c(C(=O)N([H])[H])c4N([H])[H])C3([H])[H])C(C([H])([H])[H])(C([H])([H])[H])C([H])([H])C([H])([H])[H])C([H])([H])[N+]([H])([H])[H])c([H])c([H])c2C1([H])[H]

>  <smiles>  (35) 
[H]c1c([H])c([H])c2c(c1[H])C([H])([H])C([H])([H])C([H])([H])C2([H])N([H])C(=O)C1([H])N(C(=O)C([H])(N([H])C(=O)C([H])(N([H])C([H])([H])[H])C([H])([H])[H])C(C([H])([H])[H])(C([H])([H])[H])C([H])([H])[H])C([H])([H])c2c([H])c(OC([H])([H])C([H])([H])C([H])([H])C([H])([H])C([H])(C([H])(N([H])C(=O)N3C([H])([H])C([H])([H])C([H])([H])C([H])(n4nc(-c5c([H])c([H])c(Oc6c([H])c([H])c(F)c([H])c6F)c([H])c5[H])c(C(=O)N([H])[H])c4N([H])[H])C3([H])[H])C(C([H])([H])[H])(C([H])([H])[H])C([H])([H])C([H])([H])[H])C([H])([H])[N+]([H])([H])[H])c([H])c([H])c2C1([H])[H]

$$$$
35:0:0
     RDKit          3D

 94101  0  0  1  0  0  0  0  0999 V2000
  -28.9510  -21.1400   19.5720 C   0  0  0  0  0  0  0  0  0  0  0  0
  -27.7550  -21.0250   18.9650 N   0  0  0  0  0  4  0  0  0  0  0  0
  -29.3530  -22.4120   19.9520 N   0  0  0  0  0  0  0  0  0  0  0  0
  -27.4470  -20.1440   18.5850 H   0  0  0  0  0  0  0  0  0  0  0  0
  -27.0890  -21.7830   18.9350 H   0  0  0  0  0  0  0  0  0  0  0  0
  -30.1840  -22.4700   20.5280 H   0  0  0  0  0  0  0  0  0  0  0  0
  -29.8750  -19.8630   19.6950 C   0  0  0  0  0  2  0  0  0  0  0  0
  -29.3430  -18.3800   20.1030 C   0  0  0  0  0  3  0  0  0  0  0  0
  -27.3050  -18.1870   18.5310 C   0  0  0  0  0  1  0  0  0  0  0  0
  -27.8030  -18.1780   19.9800 C   0  0  0  0  0  3  0  0  0  0  0  0
  -25.9030  -16.4690   20.5200 C   0  0  0  0  0  1  0  0  0  0  0  0
  -27.3650  -16.8820   20.7080 C   0  0  0  0  0  2  0  0  0  0  0  0
  -30.2860  -17.1140   19.6950 C   0  0  0  0  0  2  0  0  0  0  0  0
  -30.8070  -14.5520   19.9670 C   0  0  0  0  0  0  0  0  0  0  0  0
  -30.5130  -12.2970   18.9520 C   0  0  0  0  0  2  0  0  0  0  0  0
  -29.5510  -12.4370   17.7520 C   0  0  0  0  0  2  0  0  0  0  0  0
  -28.0820  -12.3070   18.2040 C   0  0  0  0  0  2  0  0  0  0  0  0
  -27.7640  -13.1500   19.4700 C   0  0  0  0  0  3  0  0  0  0  0  0
  -28.8600  -13.0230   20.5560 C   0  0  0  0  0  2  0  0  0  0  0  0
  -30.1500  -13.3430   19.9330 N   0  0  0  0  0  0  0  0  0  0  0  0
  -31.9690  -14.6380   19.5590 O   0  0  0  0  0  0  0  0  0  0  0  0
  -30.0730  -15.6950   20.2250 N   0  0  0  0  0  0  0  0  0  0  0  0
  -29.1630  -15.5210   20.6210 H   0  0  0  0  0  0  0  0  0  0  0  0
  -25.3710  -13.7370   20.1920 C   0  0  0  0  0  0  0  0  0  0  0  0
  -24.3190  -12.9710   20.6170 C   0  0  0  0  0  0  0  0  0  0  0  0
  -24.7960  -11.6260   20.6340 C   0  0  0  0  0  0  0  0  0  0  0  0
  -26.4270  -12.8650   19.9900 N   0  0  0  0  0  0  0  0  0  0  0  0
  -26.0860  -11.5900   20.3100 N   0  0  0  0  0  0  0  0  0  0  0  0
  -24.0790  -10.3700   20.8780 C   0  0  0  0  0  0  0  0  0  0  0  0
  -24.4720   -9.4810   21.9030 C   0  0  0  0  0  3  0  0  0  0  0  0
  -23.7460   -8.2930   22.1320 C   0  0  0  0  0  3  0  0  0  0  0  0
  -22.6180   -7.9820   21.3380 C   0  0  0  0  0  0  0  0  0  0  0  0
  -22.2450   -8.8590   20.3050 C   0  0  0  0  0  3  0  0  0  0  0  0
  -22.9700  -10.0400   20.0740 C   0  0  0  0  0  3  0  0  0  0  0  0
  -21.8730   -6.8360   21.4700 O   0  0  0  0  0  0  0  0  0  0  0  0
  -21.7050   -6.2250   22.6860 C   0  0  0  0  0  0  0  0  0  0  0  0
  -21.1720   -6.9150   23.7990 C   0  0  0  0  0  3  0  0  0  0  0  0
  -20.9510   -6.2290   25.0090 C   0  0  0  0  0  3  0  0  0  0  0  0
  -21.2520   -4.8590   25.1110 C   0  0  0  0  0  0  0  0  0  0  0  0
  -21.7820   -4.1710   24.0040 C   0  0  0  0  0  3  0  0  0  0  0  0
  -22.0020   -4.8520   22.7940 C   0  0  0  0  0  0  0  0  0  0  0  0
  -22.4890   -4.1810   21.7230 F   0  0  0  0  0  0  0  0  0  0  0  0
  -21.0350   -4.1990   26.2740 F   0  0  0  0  0  0  0  0  0  0  0  0
  -22.9230  -13.4550   20.8870 C   0  0  0  0  0  0  0  0  0  0  0  0
  -22.2190  -12.8220   21.8200 N   0  0  0  0  0  0  0  0  0  0  0  0
  -22.4610  -14.4350   20.3020 O   0  0  0  0  0  0  0  0  0  0  0  0
  -22.6010  -12.0380   22.3280 H   0  0  0  0  0  0  0  0  0  0  0  0
  -21.2800  -13.1310   22.0310 H   0  0  0  0  0  0  0  0  0  0  0  0
  -25.4910  -15.0920   19.9370 N   0  0  0  0  0  0  0  0  0  0  0  0
  -24.6970  -15.7200   20.0050 H   0  0  0  0  0  0  0  0  0  0  0  0
  -26.3170  -15.5390   19.5630 H   0  0  0  0  0  0  0  0  0  0  0  0
  -28.8250  -23.7770   19.4820 C   0  0  0  0  0  2  0  0  0  0  0  0
  -28.7550  -24.9960   20.5160 C   0  0  0  0  0  2  0  0  0  0  0  0
  -28.7980  -26.4180   20.0690 O   0  0  0  0  0  0  0  0  0  0  0  0
  -24.9080  -31.5800   23.3240 C   0  0  0  0  0  0  0  0  0  0  0  0
  -27.6440  -27.2100   20.1190 C   0  0  0  0  0  0  0  0  0  0  0  0
  -23.7510  -30.2440   21.6010 C   0  0  0  0  0  3  0  0  0  0  0  0
  -25.2460  -28.7680   20.1480 C   0  0  0  0  0  0  0  0  0  0  0  0
  -26.2840  -30.6160   21.4620 C   0  0  0  0  0  2  0  0  0  0  0  0
  -26.4010  -29.2650   20.7640 C   0  0  0  0  0  0  0  0  0  0  0  0
  -27.6080  -28.5030   20.7280 C   0  0  0  0  0  3  0  0  0  0  0  0
  -26.4600  -26.7450   19.5130 C   0  0  0  0  0  3  0  0  0  0  0  0
  -25.2740  -27.5100   19.5240 C   0  0  0  0  0  3  0  0  0  0  0  0
  -23.9900  -29.6200   20.2020 C   0  0  0  0  0  2  0  0  0  0  0  0
  -25.0010  -30.8270   22.1880 N   0  0  0  0  0  0  0  0  0  0  0  0
  -23.8120  -31.8150   23.8530 O   0  0  0  0  0  0  0  0  0  0  0  0
  -23.0870  -29.1780   22.5060 C   0  0  0  0  0  0  0  0  0  0  0  0
  -21.7620  -29.0000   22.3550 N   0  0  0  0  0  0  0  0  0  0  0  0
  -23.7610  -28.5150   23.3000 O   0  0  0  0  0  0  0  0  0  0  0  0
  -21.2790  -29.5820   21.6840 H   0  0  0  0  0  0  0  0  0  0  0  0
  -18.3840  -27.7900   22.7840 C   0  0  0  0  0  0  0  0  0  0  0  0
  -20.9420  -28.0200   23.0670 C   0  0  0  0  0  3  0  0  0  0  0  0
  -21.0380  -26.6270   22.4010 C   0  0  0  0  0  2  0  0  0  0  0  0
  -19.9330  -26.3770   21.3690 C   0  0  0  0  0  2  0  0  0  0  0  0
  -18.5520  -26.4870   22.0210 C   0  0  0  0  0  2  0  0  0  0  0  0
  -19.5060  -28.5190   23.2590 C   0  0  0  0  0  0  0  0  0  0  0  0
  -19.2910  -29.7440   23.9300 C   0  0  0  0  0  3  0  0  0  0  0  0
  -17.9890  -30.2370   24.1300 C   0  0  0  0  0  3  0  0  0  0  0  0
  -16.8800  -29.5010   23.6730 C   0  0  0  0  0  3  0  0  0  0  0  0
  -17.0790  -28.2800   23.0050 C   0  0  0  0  0  3  0  0  0  0  0  0
  -26.1700  -32.1960   24.0030 C   0  0  0  0  0  3  0  0  0  0  0  0
  -25.8220  -33.5600   24.4250 N   0  0  0  0  0  0  0  0  0  0  0  0
  -26.1370  -34.6710   23.7460 C   0  0  0  0  0  0  0  0  0  0  0  0
  -26.8150  -34.6570   22.7160 O   0  0  0  0  0  0  0  0  0  0  0  0
  -25.2180  -33.6430   25.2290 H   0  0  0  0  0  0  0  0  0  0  0  0
  -24.3650  -36.4420   23.5110 C   0  0  0  0  0  1  0  0  0  0  0  0
  -25.6150  -36.0130   24.2950 C   0  0  0  0  0  3  0  0  0  0  0  0
  -27.7210  -36.8960   25.1950 C   0  0  0  0  0  1  0  0  0  0  0  0
  -26.6210  -37.0970   24.2570 N   0  0  0  0  0  0  0  0  0  0  0  0
  -26.1880  -37.9930   24.4600 H   0  0  0  0  0  0  0  0  0  0  0  0
  -26.6920  -31.3490   25.2280 C   0  0  1  0  0  0  0  0  0  0  0  0
  -25.5920  -30.9990   26.2570 C   0  0  0  0  0  1  0  0  0  0  0  0
  -27.3160  -30.0200   24.7430 C   0  0  0  0  0  1  0  0  0  0  0  0
  -27.8160  -32.1220   25.9580 C   0  0  0  0  0  1  0  0  0  0  0  0
  1  7  1  0
  1  3  1  0
  2  1  2  0
  3  6  1  0
  4  2  1  0
  5  2  1  0
  8  7  1  0
 10  9  1  0
 10  8  1  0
 10 12  1  0
 11 12  1  0
 13  8  1  0
 13 22  1  0
 14 22  1  0
 15 20  1  0
 16 17  1  0
 16 15  1  0
 18 17  1  0
 18 27  1  0
 18 19  1  0
 20 14  1  0
 20 19  1  0
 21 14  2  0
 22 23  1  0
 24 25  2  0
 25 26  1  0
 25 44  1  0
 26 29  1  0
 27 24  1  0
 27 28  1  0
 28 26  2  0
 29 30  1  0
 30 31  2  0
 32 35  1  0
 32 31  1  0
 33 32  2  0
 34 33  1  0
 34 29  2  0
 35 36  1  0
 36 41  2  0
 36 37  1  0
 37 38  2  0
 38 39  1  0
 39 43  1  0
 40 39  2  0
 41 40  1  0
 42 41  1  0
 44 45  1  0
 45 48  1  0
 45 47  1  0
 46 44  2  0
 49 50  1  0
 49 24  1  0
 51 49  1  0
 52  3  1  0
 52 53  1  0
 54 56  1  0
 54 53  1  0
 55 66  2  0
 56 61  1  0
 57 65  1  0
 57 67  1  0
 58 64  1  0
 58 60  1  0
 59 65  1  0
 60 59  1  0
 61 60  2  0
 62 63  1  0
 62 56  2  0
 63 58  2  0
 64 57  1  0
 65 55  1  0
 67 69  2  0
 68 67  1  0
 70 68  1  0
 71 80  2  0
 71 76  1  0
 72 68  1  0
 72 76  1  0
 73 72  1  0
 74 75  1  0
 74 73  1  0
 75 71  1  0
 76 77  2  0
 77 78  1  0
 79 78  2  0
 80 79  1  0
 81 55  1  0
 81 82  1  0
 81 91  1  0
 82 85  1  0
 83 87  1  0
 83 82  1  0
 84 83  2  0
 87 86  1  0
 89 87  1  0
 89 90  1  0
 89 88  1  0
 91 94  1  1
 91 92  1  0
 93 91  1  0
M  ISO  4  14 100  22 100  53 101  54 101
M  END
>  <TORSDO>  (36) 
F 23

>  <SCORE>  (36) 
-10.954

>  <name>  (36) 
35

>  <ligand_id>  (36) 
35

>  <original_smiles>  (36) 
[H]c1c([H])c([H])c2c(c1[H])C([H])([H])C([H])([H])C([H])([H])C2([H])N([H])C(=O)C1([H])N(C(=O)C([H])(N([H])C(=O)C([H])(N([H])C([H])([H])[H])C([H])([H])[H])C(C([H])([H])[H])(C([H])([H])[H])C([H])([H])[H])C([H])([H])c2c([H])c(OC([H])([H])C([H])([H])[N+]([H])=C(N([H])[H])C([H])([H])C([H])(C([H])([H])N([H])C(=O)N3C([H])([H])C([H])([H])C([H])([H])C([H])(n4nc(-c5c([H])c([H])c(Oc6c([H])c([H])c(F)c([H])c6F)c([H])c5[H])c(C(=O)N([H])[H])c4N([H])[H])C3([H])[H])C([H])(C([H])([H])[H])C([H])([H])C([H])([H])[H])c([H])c([H])c2C1([H])[H]

>  <smiles>  (36) 
[H]c1c([H])c([H])c2c(c1[H])C([H])([H])C([H])([H])C([H])([H])C2([H])N([H])C(=O)C1([H])N(C(=O)C([H])(N([H])C(=O)C([H])(N([H])C([H])([H])[H])C([H])([H])[H])C(C([H])([H])[H])(C([H])([H])[H])C([H])([H])[H])C([H])([H])c2c([H])c(OC([H])([H])C([H])([H])[N+]([H])=C(N([H])[H])C([H])([H])C([H])(C([H])([H])N([H])C(=O)N3C([H])([H])C([H])([H])C([H])([H])C([H])(n4nc(-c5c([H])c([H])c(Oc6c([H])c([H])c(F)c([H])c6F)c([H])c5[H])c(C(=O)N([H])[H])c4N([H])[H])C3([H])[H])C([H])(C([H])([H])[H])C([H])([H])C([H])([H])[H])c([H])c([H])c2C1([H])[H]

$$$$
36:0:0
     RDKit          3D

 92 99  0  0  1  0  0  0  0  0999 V2000
  -29.2440  -22.8120   20.3460 C   0  0  0  0  0  3  0  0  0  0  0  0
  -30.6440  -23.2630   20.2080 N   0  0  0  0  0  4  0  0  0  0  0  0
  -30.9080  -23.3380   19.2410 H   0  0  0  0  0  0  0  0  0  0  0  0
  -31.2760  -22.6280   20.6620 H   0  0  0  0  0  0  0  0  0  0  0  0
  -30.7640  -24.1680   20.6330 H   0  0  0  0  0  0  0  0  0  0  0  0
  -29.1990  -21.1070   19.8240 C   0  0  0  0  0  3  0  0  0  0  0  0
  -30.0600  -19.5980   20.2820 C   0  0  0  0  0  3  0  0  0  0  0  0
  -30.1190  -17.9790   19.5120 C   0  0  0  0  0  3  0  0  0  0  0  0
  -31.0750  -15.1720   19.6050 C   0  0  0  0  0  0  0  0  0  0  0  0
  -30.8040  -12.7630   18.6990 C   0  0  0  0  0  2  0  0  0  0  0  0
  -29.7760  -12.7080   17.5400 C   0  0  0  0  0  2  0  0  0  0  0  0
  -28.3510  -12.5230   18.0860 C   0  0  0  0  0  2  0  0  0  0  0  0
  -28.0680  -13.4610   19.2850 C   0  0  0  0  0  3  0  0  0  0  0  0
  -29.2150  -13.4790   20.3240 C   0  0  0  0  0  2  0  0  0  0  0  0
  -30.4430  -13.8980   19.6280 N   0  0  0  0  0  0  0  0  0  0  0  0
  -32.1990  -15.1540   19.0860 O   0  0  0  0  0  0  0  0  0  0  0  0
  -30.4530  -16.4360   20.0370 N   0  0  0  0  0  0  0  0  0  0  0  0
  -29.7320  -16.1840   20.6960 H   0  0  0  0  0  0  0  0  0  0  0  0
  -25.8170  -14.1250   20.2900 C   0  0  0  0  0  0  0  0  0  0  0  0
  -24.7400  -13.4120   20.7260 C   0  0  0  0  0  0  0  0  0  0  0  0
  -25.0910  -12.0400   20.5490 C   0  0  0  0  0  0  0  0  0  0  0  0
  -26.7660  -13.2040   19.8930 N   0  0  0  0  0  0  0  0  0  0  0  0
  -26.3410  -11.9310   20.1080 N   0  0  0  0  0  0  0  0  0  0  0  0
  -24.2770  -10.8310   20.7200 C   0  0  0  0  0  0  0  0  0  0  0  0
  -24.6950   -9.7710   21.5530 C   0  0  0  0  0  3  0  0  0  0  0  0
  -23.8830   -8.6290   21.7170 C   0  0  0  0  0  3  0  0  0  0  0  0
  -22.6390   -8.5420   21.0480 C   0  0  0  0  0  0  0  0  0  0  0  0
  -22.2370   -9.5910   20.2030 C   0  0  0  0  0  3  0  0  0  0  0  0
  -23.0490  -10.7250   20.0370 C   0  0  0  0  0  3  0  0  0  0  0  0
  -21.7960   -7.4600   21.1280 O   0  0  0  0  0  0  0  0  0  0  0  0
  -21.7550   -6.6610   22.2420 C   0  0  0  0  0  0  0  0  0  0  0  0
  -21.4630   -7.1820   23.5220 C   0  0  0  0  0  3  0  0  0  0  0  0
  -21.3640   -6.3150   24.6280 C   0  0  0  0  0  3  0  0  0  0  0  0
  -21.5440   -4.9300   24.4570 C   0  0  0  0  0  0  0  0  0  0  0  0
  -21.8300   -4.4090   23.1820 C   0  0  0  0  0  3  0  0  0  0  0  0
  -21.9320   -5.2730   22.0770 C   0  0  0  0  0  0  0  0  0  0  0  0
  -22.1870   -4.7650   20.8480 F   0  0  0  0  0  0  0  0  0  0  0  0
  -21.4410   -4.0950   25.5170 F   0  0  0  0  0  0  0  0  0  0  0  0
  -23.4250  -13.9800   21.1730 C   0  0  0  0  0  0  0  0  0  0  0  0
  -22.7400  -13.2980   22.0830 N   0  0  0  0  0  0  0  0  0  0  0  0
  -23.0220  -15.0640   20.7550 O   0  0  0  0  0  0  0  0  0  0  0  0
  -23.0800  -12.4180   22.4450 H   0  0  0  0  0  0  0  0  0  0  0  0
  -21.8630  -13.6620   22.4270 H   0  0  0  0  0  0  0  0  0  0  0  0
  -26.0430  -15.4820   20.1650 N   0  0  0  0  0  0  0  0  0  0  0  0
  -25.3330  -16.1610   20.4120 H   0  0  0  0  0  0  0  0  0  0  0  0
  -26.8750  -15.8990   19.7720 H   0  0  0  0  0  0  0  0  0  0  0  0
  -28.4280  -18.6840   17.6340 C   0  0  0  0  0  1  0  0  0  0  0  0
  -28.7390  -17.7620   18.8240 C   0  0  0  0  0  3  0  0  0  0  0  0
  -27.1650  -18.6940   20.7800 C   0  0  0  0  0  1  0  0  0  0  0  0
  -27.5260  -17.5870   19.7820 C   0  0  0  0  0  2  0  0  0  0  0  0
  -28.2250  -24.2020   19.8820 C   0  0  0  0  0  2  0  0  0  0  0  0
  -28.3520  -25.8140   20.0940 O   0  0  0  0  0  0  0  0  0  0  0  0
  -24.5370  -31.6090   22.9350 C   0  0  0  0  0  0  0  0  0  0  0  0
  -27.2820  -26.8320   19.9890 C   0  0  0  0  0  0  0  0  0  0  0  0
  -23.3960  -30.1560   21.3080 C   0  0  0  0  0  3  0  0  0  0  0  0
  -24.9040  -28.5900   19.9090 C   0  0  0  0  0  0  0  0  0  0  0  0
  -25.9490  -30.4680   21.1620 C   0  0  0  0  0  2  0  0  0  0  0  0
  -26.0710  -29.0580   20.5250 C   0  0  0  0  0  0  0  0  0  0  0  0
  -27.2530  -28.1990   20.5400 C   0  0  0  0  0  3  0  0  0  0  0  0
  -26.0800  -26.5000   19.3210 C   0  0  0  0  0  3  0  0  0  0  0  0
  -24.9300  -27.3310   19.2860 C   0  0  0  0  0  3  0  0  0  0  0  0
  -23.6510  -29.4630   19.9410 C   0  0  0  0  0  2  0  0  0  0  0  0
  -24.6470  -30.7720   21.8560 N   0  0  0  0  0  0  0  0  0  0  0  0
  -23.4380  -31.8680   23.4520 O   0  0  0  0  0  0  0  0  0  0  0  0
  -22.7320  -29.1490   22.2830 C   0  0  0  0  0  0  0  0  0  0  0  0
  -21.4040  -28.9610   22.1740 N   0  0  0  0  0  0  0  0  0  0  0  0
  -23.4190  -28.5350   23.1030 O   0  0  0  0  0  0  0  0  0  0  0  0
  -20.9000  -29.5090   21.4910 H   0  0  0  0  0  0  0  0  0  0  0  0
  -18.0480  -27.7050   22.7350 C   0  0  0  0  0  0  0  0  0  0  0  0
  -20.6080  -28.0080   22.9560 C   0  0  0  0  0  3  0  0  0  0  0  0
  -20.7210  -26.5790   22.3720 C   0  0  0  0  0  2  0  0  0  0  0  0
  -19.6040  -26.2420   21.3790 C   0  0  0  0  0  2  0  0  0  0  0  0
  -18.2340  -26.3610   22.0510 C   0  0  0  0  0  2  0  0  0  0  0  0
  -19.1620  -28.4840   23.1470 C   0  0  0  0  0  0  0  0  0  0  0  0
  -18.9320  -29.7380   23.7520 C   0  0  0  0  0  3  0  0  0  0  0  0
  -17.6210  -30.2150   23.9460 C   0  0  0  0  0  3  0  0  0  0  0  0
  -16.5220  -29.4330   23.5480 C   0  0  0  0  0  3  0  0  0  0  0  0
  -16.7370  -28.1790   22.9480 C   0  0  0  0  0  3  0  0  0  0  0  0
  -25.7870  -32.2990   23.5650 C   0  0  0  0  0  3  0  0  0  0  0  0
  -26.3630  -31.5190   24.8110 C   0  0  1  0  0  0  0  0  0  0  0  0
  -25.3000  -31.1850   25.8850 C   0  0  0  0  0  1  0  0  0  0  0  0
  -27.0200  -30.1890   24.3760 C   0  0  0  0  0  1  0  0  0  0  0  0
  -27.4730  -32.3580   25.4870 C   0  0  0  0  0  1  0  0  0  0  0  0
  -25.4020  -33.6660   23.9560 N   0  0  0  0  0  0  0  0  0  0  0  0
  -25.7250  -34.7760   23.2800 C   0  0  0  0  0  0  0  0  0  0  0  0
  -26.4410  -34.7610   22.2760 O   0  0  0  0  0  0  0  0  0  0  0  0
  -24.7680  -33.7480   24.7360 H   0  0  0  0  0  0  0  0  0  0  0  0
  -23.9480  -36.5330   22.9620 C   0  0  0  0  0  1  0  0  0  0  0  0
  -25.1680  -36.1180   23.8000 C   0  0  0  0  0  3  0  0  0  0  0  0
  -27.2300  -37.0270   24.7790 C   0  0  0  0  0  1  0  0  0  0  0  0
  -26.1640  -37.2120   23.7980 N   0  0  0  0  0  0  0  0  0  0  0  0
  -25.7160  -38.1060   23.9800 H   0  0  0  0  0  0  0  0  0  0  0  0
  1  6  1  0
  2  1  1  0
  2  5  1  0
  2  4  1  0
  3  2  1  0
  6  7  2  0
  8 17  1  0
  8  7  1  0
  9 15  1  0
  9 17  1  0
 10 15  1  0
 11 12  1  0
 11 10  1  0
 13 12  1  0
 13 22  1  0
 13 14  1  0
 15 14  1  0
 16  9  2  0
 17 18  1  0
 19 20  2  0
 20 39  1  0
 21 24  1  0
 21 20  1  0
 22 23  1  0
 22 19  1  0
 23 21  2  0
 24 25  1  0
 25 26  2  0
 27 30  1  0
 27 26  1  0
 28 27  2  0
 29 28  1  0
 29 24  2  0
 30 31  1  0
 31 32  1  0
 32 33  2  0
 34 33  1  0
 34 38  1  0
 35 34  2  0
 36 31  2  0
 36 35  1  0
 37 36  1  0
 39 40  1  0
 40 43  1  0
 40 42  1  0
 41 39  2  0
 44 19  1  0
 44 45  1  0
 46 44  1  0
 48 47  1  0
 48  8  1  0
 48 50  1  0
 50 49  1  0
 51 52  1  0
 51  1  1  0
 53 64  2  0
 54 52  1  0
 54 59  1  0
 55 63  1  0
 55 65  1  0
 56 62  1  0
 56 58  1  0
 57 63  1  0
 58 59  2  0
 58 57  1  0
 60 54  2  0
 61 60  1  0
 61 56  2  0
 62 55  1  0
 63 53  1  0
 65 67  2  0
 66 65  1  0
 68 66  1  0
 69 78  2  0
 69 74  1  0
 70 66  1  0
 70 74  1  0
 71 70  1  0
 72 73  1  0
 72 71  1  0
 73 69  1  0
 74 75  2  0
 75 76  1  0
 77 76  2  0
 78 77  1  0
 79 53  1  0
 79 84  1  0
 79 80  1  0
 80 83  1  1
 80 81  1  0
 82 80  1  0
 84 87  1  0
 85 89  1  0
 85 84  1  0
 86 85  2  0
 89 88  1  0
 91 89  1  0
 91 92  1  0
 91 90  1  0
M  ISO  4   9 100  17 100  51 101  52 101
M  END
>  <TORSDO>  (37) 
F 23

>  <SCORE>  (37) 
-12.963

>  <name>  (37) 
36

>  <ligand_id>  (37) 
36

>  <original_smiles>  (37) 
[H]c1c([H])c([H])c2c(c1[H])C([H])([H])C([H])([H])C([H])([H])C2([H])N([H])C(=O)C1([H])N(C(=O)C([H])(N([H])C(=O)C([H])(N([H])C([H])([H])[H])C([H])([H])[H])C(C([H])([H])[H])(C([H])([H])[H])C([H])([H])[H])C([H])([H])c2c([H])c(OC([H])([H])C([H])(C([H])([H])C([H])([H])C([H])(N([H])C(=O)N3C([H])([H])C([H])([H])C([H])([H])C([H])(n4nc(-c5c([H])c([H])c(Oc6c([H])c([H])c(F)c([H])c6F)c([H])c5[H])c(C(=O)N([H])[H])c4N([H])[H])C3([H])[H])C([H])(C([H])([H])[H])C([H])([H])C([H])([H])[H])[N+]([H])([H])[H])c([H])c([H])c2C1([H])[H]

>  <smiles>  (37) 
[H]c1c([H])c([H])c2c(c1[H])C([H])([H])C([H])([H])C([H])([H])C2([H])N([H])C(=O)C1([H])N(C(=O)C([H])(N([H])C(=O)C([H])(N([H])C([H])([H])[H])C([H])([H])[H])C(C([H])([H])[H])(C([H])([H])[H])C([H])([H])[H])C([H])([H])c2c([H])c(OC([H])([H])C([H])(C([H])([H])C([H])([H])C([H])(N([H])C(=O)N3C([H])([H])C([H])([H])C([H])([H])C([H])(n4nc(-c5c([H])c([H])c(Oc6c([H])c([H])c(F)c([H])c6F)c([H])c5[H])c(C(=O)N([H])[H])c4N([H])[H])C3([H])[H])C([H])(C([H])([H])[H])C([H])([H])C([H])([H])[H])[N+]([H])([H])[H])c([H])c([H])c2C1([H])[H]

$$$$
37:0:0
     RDKit          3D

 86 89  0  0  1  0  0  0  0  0999 V2000
  -28.7810  -21.4620   20.5560 C   0  0  0  0  0  2  0  0  0  0  0  0
  -28.8170  -21.4990   21.7900 O   0  0  0  0  0  0  0  0  0  0  0  0
  -28.1870  -23.2860   19.9160 C   0  0  0  0  0 15  0  0  0  0  0  0
  -28.1200  -25.1380   20.3760 O   0  0  0  0  0  1  0  0  0  0  0  0
  -24.6160  -31.8200   23.1230 C   0  0  0  0  0  0  0  0  0  0  0  0
  -27.1950  -26.4850   20.2410 C   0  0  0  0  0  0  0  0  0  0  0  0
  -23.4640  -30.3880   21.4950 C   0  0  0  0  0  3  0  0  0  0  0  0
  -24.9410  -28.6810   20.1270 C   0  0  0  0  0  0  0  0  0  0  0  0
  -26.0540  -30.4650   21.4320 C   0  0  0  0  0  2  0  0  0  0  0  0
  -26.1300  -28.9970   20.7920 C   0  0  0  0  0  0  0  0  0  0  0  0
  -27.2220  -27.9330   20.8150 C   0  0  0  0  0  3  0  0  0  0  0  0
  -25.9720  -26.4580   19.5000 C   0  0  0  0  0  3  0  0  0  0  0  0
  -24.9180  -27.4420   19.4560 C   0  0  0  0  0  3  0  0  0  0  0  0
  -23.7360  -29.6550   20.1440 C   0  0  0  0  0  2  0  0  0  0  0  0
  -24.7380  -30.9330   22.0680 N   0  0  0  0  0  0  0  0  0  0  0  0
  -23.5110  -32.1310   23.6040 O   0  0  0  0  0  0  0  0  0  0  0  0
  -22.7190  -29.4430   22.4780 C   0  0  0  0  0  0  0  0  0  0  0  0
  -21.3810  -29.3130   22.3610 N   0  0  0  0  0  0  0  0  0  0  0  0
  -23.3610  -28.8190   23.3250 O   0  0  0  0  0  0  0  0  0  0  0  0
  -20.9080  -29.8660   21.6590 H   0  0  0  0  0  0  0  0  0  0  0  0
  -17.9780  -28.1440   22.9140 C   0  0  0  0  0  0  0  0  0  0  0  0
  -20.5460  -28.3890   23.1410 C   0  0  0  0  0  3  0  0  0  0  0  0
  -20.6220  -26.9550   22.5660 C   0  0  0  0  0  2  0  0  0  0  0  0
  -19.5060  -26.6480   21.5620 C   0  0  0  0  0  2  0  0  0  0  0  0
  -18.1330  -26.8000   22.2230 C   0  0  0  0  0  2  0  0  0  0  0  0
  -19.1090  -28.8970   23.3310 C   0  0  0  0  0  0  0  0  0  0  0  0
  -18.9040  -30.1510   23.9450 C   0  0  0  0  0  3  0  0  0  0  0  0
  -17.6040  -30.6540   24.1420 C   0  0  0  0  0  3  0  0  0  0  0  0
  -16.4900  -29.9000   23.7370 C   0  0  0  0  0  3  0  0  0  0  0  0
  -16.6770  -28.6460   23.1290 C   0  0  0  0  0  3  0  0  0  0  0  0
  -25.8570  -32.5010   23.7790 C   0  0  0  0  0  3  0  0  0  0  0  0
  -26.3480  -31.7610   25.0850 C   0  0  1  0  0  0  0  0  0  0  0  0
  -25.2320  -31.5340   26.1330 C   0  0  0  0  0  1  0  0  0  0  0  0
  -26.9530  -30.3800   24.7510 C   0  0  0  0  0  1  0  0  0  0  0  0
  -27.4760  -32.5770   25.7580 C   0  0  0  0  0  1  0  0  0  0  0  0
  -25.5050  -33.9000   24.1120 N   0  0  0  0  0  0  0  0  0  0  0  0
  -25.8350  -34.9790   23.3880 C   0  0  0  0  0  0  0  0  0  0  0  0
  -26.5160  -34.9040   22.3640 O   0  0  0  0  0  0  0  0  0  0  0  0
  -24.8970  -34.0300   24.9060 H   0  0  0  0  0  0  0  0  0  0  0  0
  -24.0920  -36.7760   23.0700 C   0  0  0  0  0  1  0  0  0  0  0  0
  -25.3360  -36.3610   23.8730 C   0  0  0  0  0  3  0  0  0  0  0  0
  -27.4580  -37.2610   24.7240 C   0  0  0  0  0  1  0  0  0  0  0  0
  -26.3580  -37.4270   23.7790 N   0  0  0  0  0  0  0  0  0  0  0  0
  -25.9400  -38.3410   23.9360 H   0  0  0  0  0  0  0  0  0  0  0  0
  -29.3710  -19.5000   19.9120 C   0  0  0  0  0  1  0  0  0  0  0  0
  -30.1460  -16.1320   20.2080 C   0  0  0  0  0  0  0  0  0  0  0  0
  -30.3520  -13.4800   19.4410 C   0  0  0  0  0  2  0  0  0  0  0  0
  -29.5190  -12.8980   18.2490 C   0  0  0  0  0  2  0  0  0  0  0  0
  -28.1220  -12.4580   18.7030 C   0  0  0  0  0  2  0  0  0  0  0  0
  -27.5490  -13.4800   19.7040 C   0  0  0  0  0  3  0  0  0  0  0  0
  -28.5400  -13.9510   20.8080 C   0  0  0  0  0  2  0  0  0  0  0  0
  -29.6620  -14.6950   20.1500 N   0  0  0  0  0  0  0  0  0  0  0  0
  -31.3790  -15.9930   20.0110 O   0  0  0  0  0  0  0  0  0  0  0  0
  -29.4100  -17.6130   20.2990 N   0  0  0  0  0  2  0  0  0  0  0  0
  -28.4660  -17.3900   20.5820 H   0  0  0  0  0  0  0  0  0  0  0  0
  -25.1810  -13.9700   20.4400 C   0  0  0  0  0  0  0  0  0  0  0  0
  -24.1250  -13.1820   20.7980 C   0  0  0  0  0  0  0  0  0  0  0  0
  -24.6070  -11.8370   20.7810 C   0  0  0  0  0  0  0  0  0  0  0  0
  -26.2370  -13.1110   20.2170 N   0  0  0  0  0  0  0  0  0  0  0  0
  -25.9060  -11.8170   20.4860 N   0  0  0  0  0  0  0  0  0  0  0  0
  -23.8820  -10.5710   20.9700 C   0  0  0  0  0  0  0  0  0  0  0  0
  -24.2980   -9.6120   21.9200 C   0  0  0  0  0  3  0  0  0  0  0  0
  -23.5660   -8.4180   22.1000 C   0  0  0  0  0  3  0  0  0  0  0  0
  -22.4040   -8.1730   21.3310 C   0  0  0  0  0  0  0  0  0  0  0  0
  -22.0060   -9.1210   20.3720 C   0  0  0  0  0  3  0  0  0  0  0  0
  -22.7380  -10.3060   20.1900 C   0  0  0  0  0  3  0  0  0  0  0  0
  -21.6460   -7.0290   21.4200 O   0  0  0  0  0  0  0  0  0  0  0  0
  -21.5770   -6.2990   22.5800 C   0  0  0  0  0  0  0  0  0  0  0  0
  -21.1250   -6.8670   23.7910 C   0  0  0  0  0  3  0  0  0  0  0  0
  -21.0030   -6.0640   24.9430 C   0  0  0  0  0  3  0  0  0  0  0  0
  -21.3210   -4.6930   24.8830 C   0  0  0  0  0  0  0  0  0  0  0  0
  -21.7650   -4.1250   23.6760 C   0  0  0  0  0  3  0  0  0  0  0  0
  -21.8890   -4.9250   22.5270 C   0  0  0  0  0  0  0  0  0  0  0  0
  -22.2950   -4.3680   21.3620 F   0  0  0  0  0  0  0  0  0  0  0  0
  -21.1980   -3.9190   25.9870 F   0  0  0  0  0  0  0  0  0  0  0  0
  -22.7210  -13.6530   21.0350 C   0  0  0  0  0  0  0  0  0  0  0  0
  -21.9820  -12.9630   21.8960 N   0  0  0  0  0  0  0  0  0  0  0  0
  -22.2890  -14.6710   20.4950 O   0  0  0  0  0  0  0  0  0  0  0  0
  -22.3450  -12.1410   22.3550 H   0  0  0  0  0  0  0  0  0  0  0  0
  -21.0370  -13.2610   22.1000 H   0  0  0  0  0  0  0  0  0  0  0  0
  -25.3290  -15.3410   20.2510 N   0  0  0  0  0  0  0  0  0  0  0  0
  -24.5500  -15.9840   20.3380 H   0  0  0  0  0  0  0  0  0  0  0  0
  -26.1700  -15.7800   19.9020 H   0  0  0  0  0  0  0  0  0  0  0  0
  -27.7670  -19.0590   17.9850 C   0  0  0  0  0  1  0  0  0  0  0  0
  -30.2570  -18.8120   17.5840 C   0  0  0  0  0  1  0  0  0  0  0  0
  -29.1670  -19.5560   18.3790 C   0  0  0  0  0  3  0  0  0  0  0  0
  1  2  2  0
  5 16  2  0
  6  4  1  0
  6 11  1  0
  7 15  1  0
  7 17  1  0
  8 14  1  0
  8 10  1  0
  9 15  1  0
 10 11  2  0
 10  9  1  0
 12  6  2  0
 13 12  1  0
 13  8  2  0
 14  7  1  0
 15  5  1  0
 17 19  2  0
 18 17  1  0
 20 18  1  0
 21 30  2  0
 21 26  1  0
 22 18  1  0
 22 26  1  0
 23 22  1  0
 24 25  1  0
 24 23  1  0
 25 21  1  0
 26 27  2  0
 27 28  1  0
 29 28  2  0
 30 29  1  0
 31  5  1  0
 31 36  1  0
 31 32  1  0
 32 35  1  1
 32 33  1  0
 34 32  1  0
 36 39  1  0
 37 41  1  0
 37 36  1  0
 38 37  2  0
 41 40  1  0
 43 41  1  0
 43 44  1  0
 43 42  1  0
 46 54  1  0
 47 52  1  0
 48 49  1  0
 48 47  1  0
 50 49  1  0
 50 59  1  0
 50 51  1  0
 52 46  1  0
 52 51  1  0
 53 46  2  0
 54 55  1  0
 56 57  2  0
 57 76  1  0
 58 57  1  0
 58 61  1  0
 59 56  1  0
 59 60  1  0
 60 58  2  0
 61 62  1  0
 62 63  2  0
 64 67  1  0
 64 63  1  0
 65 64  2  0
 66 65  1  0
 66 61  2  0
 67 68  1  0
 68 69  1  0
 69 70  2  0
 71 70  1  0
 71 75  1  0
 72 71  2  0
 73 68  2  0
 73 72  1  0
 74 73  1  0
 76 77  1  0
 77 80  1  0
 77 79  1  0
 78 76  2  0
 81 82  1  0
 81 56  1  0
 83 81  1  0
 84 86  1  0
 85 86  1  0
 86 45  1  0
M  ISO  4   3 101   4 101  46 100  54 100
M  END
>  <TORSDO>  (38) 
F 19

>  <SCORE>  (38) 
-16.227

>  <name>  (38) 
37

>  <ligand_id>  (38) 
37

>  <original_smiles>  (38) 
[H]c1c([H])c([H])c2c(c1[H])C([H])([H])C([H])([H])C([H])([H])C2([H])N([H])C(=O)C1([H])N(C(=O)C([H])(N([H])C(=O)C([H])(N([H])C([H])([H])[H])C([H])([H])[H])C(C([H])([H])[H])(C([H])([H])[H])C([H])([H])[H])C([H])([H])c2c([H])c(OC([H])([H])C(=O)C([H])(N([H])C(=O)N3C([H])([H])C([H])([H])C([H])([H])C([H])(n4nc(-c5c([H])c([H])c(Oc6c([H])c([H])c(F)c([H])c6F)c([H])c5[H])c(C(=O)N([H])[H])c4N([H])[H])C3([H])[H])C([H])(C([H])([H])[H])C([H])([H])[H])c([H])c([H])c2C1([H])[H]

>  <smiles>  (38) 
[H]c1c([H])c([H])c2c(c1[H])C([H])([H])C([H])([H])C([H])([H])C2([H])N([H])C(=O)C1([H])N(C(=O)C([H])(N([H])C(=O)C([H])(N([H])C([H])([H])[H])C([H])([H])[H])C(C([H])([H])[H])(C([H])([H])[H])C([H])([H])[H])C([H])([H])c2c([H])c(OC([H])([H])C(=O)C([H])(N([H])C(=O)N3C([H])([H])C([H])([H])C([H])([H])C([H])(n4nc(-c5c([H])c([H])c(Oc6c([H])c([H])c(F)c([H])c6F)c([H])c5[H])c(C(=O)N([H])[H])c4N([H])[H])C3([H])[H])C([H])(C([H])([H])[H])C([H])([H])[H])c([H])c([H])c2C1([H])[H]

$$$$
38:0:0
     RDKit          3D

 95102  0  0  1  0  0  0  0  0999 V2000
  -30.6420  -21.1600   18.4980 C   0  0  0  0  0  2  0  0  0  0  0  0
  -30.7220  -22.4020   19.2990 N   0  0  0  0  0  4  0  0  0  0  0  0
  -31.6700  -22.7480   19.2660 H   0  0  0  0  0  0  0  0  0  0  0  0
  -30.4970  -22.1850   20.2550 H   0  0  0  0  0  0  0  0  0  0  0  0
  -29.7810  -23.4420   18.8250 C   0  0  0  0  0  2  0  0  0  0  0  0
  -29.7130  -24.6980   19.7190 C   0  0  0  0  0  2  0  0  0  0  0  0
  -28.4300  -25.4880   19.4140 C   0  0  0  0  0  2  0  0  0  0  0  0
  -28.3770  -26.7320   20.1140 O   0  0  0  0  0  0  0  0  0  0  0  0
  -24.5330  -31.8720   23.1930 C   0  0  0  0  0  0  0  0  0  0  0  0
  -27.1840  -27.4330   20.1000 C   0  0  0  0  0  0  0  0  0  0  0  0
  -23.3310  -30.4760   21.5450 C   0  0  0  0  0  3  0  0  0  0  0  0
  -24.7840  -28.9410   20.1230 C   0  0  0  0  0  0  0  0  0  0  0  0
  -25.8590  -30.8260   21.3580 C   0  0  0  0  0  2  0  0  0  0  0  0
  -25.9410  -29.4550   20.7210 C   0  0  0  0  0  0  0  0  0  0  0  0
  -27.1380  -28.7050   20.7170 C   0  0  0  0  0  3  0  0  0  0  0  0
  -26.0030  -26.9360   19.4930 C   0  0  0  0  0  3  0  0  0  0  0  0
  -24.8100  -27.6770   19.5120 C   0  0  0  0  0  3  0  0  0  0  0  0
  -23.5430  -29.8010   20.1650 C   0  0  0  0  0  2  0  0  0  0  0  0
  -24.5930  -31.0730   22.0900 N   0  0  0  0  0  0  0  0  0  0  0  0
  -23.4500  -32.1470   23.7270 O   0  0  0  0  0  0  0  0  0  0  0  0
  -22.6720  -29.4540   22.4990 C   0  0  0  0  0  0  0  0  0  0  0  0
  -21.3470  -29.2780   22.3660 N   0  0  0  0  0  0  0  0  0  0  0  0
  -23.3500  -28.8220   23.3130 O   0  0  0  0  0  0  0  0  0  0  0  0
  -20.8630  -29.8410   21.6800 H   0  0  0  0  0  0  0  0  0  0  0  0
  -17.9620  -28.1140   22.8520 C   0  0  0  0  0  0  0  0  0  0  0  0
  -20.5210  -28.3430   23.1280 C   0  0  0  0  0  3  0  0  0  0  0  0
  -20.6100  -26.9150   22.5400 C   0  0  0  0  0  2  0  0  0  0  0  0
  -19.5050  -26.6120   21.5230 C   0  0  0  0  0  2  0  0  0  0  0  0
  -18.1250  -26.7670   22.1690 C   0  0  0  0  0  2  0  0  0  0  0  0
  -19.0890  -28.8630   23.2880 C   0  0  0  0  0  0  0  0  0  0  0  0
  -18.8830  -30.1260   23.8850 C   0  0  0  0  0  3  0  0  0  0  0  0
  -17.5830  -30.6390   24.0510 C   0  0  0  0  0  3  0  0  0  0  0  0
  -16.4720  -29.8880   23.6330 C   0  0  0  0  0  3  0  0  0  0  0  0
  -16.6620  -28.6280   23.0390 C   0  0  0  0  0  3  0  0  0  0  0  0
  -25.8170  -32.4960   23.8190 C   0  0  0  0  0  3  0  0  0  0  0  0
  -26.3350  -31.7140   25.0890 C   0  0  1  0  0  0  0  0  0  0  0  0
  -25.2420  -31.4630   26.1530 C   0  0  0  0  0  1  0  0  0  0  0  0
  -26.9180  -30.3410   24.6800 C   0  0  0  0  0  1  0  0  0  0  0  0
  -27.4850  -32.5020   25.7580 C   0  0  0  0  0  1  0  0  0  0  0  0
  -25.5110  -33.8920   24.1570 N   0  0  0  0  0  0  0  0  0  0  0  0
  -25.8470  -34.9480   23.4030 C   0  0  0  0  0  0  0  0  0  0  0  0
  -26.5220  -34.8500   22.3740 O   0  0  0  0  0  0  0  0  0  0  0  0
  -24.9090  -34.0450   24.9540 H   0  0  0  0  0  0  0  0  0  0  0  0
  -24.1260  -36.7470   23.0430 C   0  0  0  0  0  1  0  0  0  0  0  0
  -25.3580  -36.3340   23.8650 C   0  0  0  0  0  3  0  0  0  0  0  0
  -27.4860  -37.2090   24.7250 C   0  0  0  0  0  1  0  0  0  0  0  0
  -26.3950  -37.3850   23.7690 N   0  0  0  0  0  0  0  0  0  0  0  0
  -25.9900  -38.3060   23.9150 H   0  0  0  0  0  0  0  0  0  0  0  0
  -30.9450  -19.8820   19.3070 C   0  0  0  0  0  2  0  0  0  0  0  0
  -30.5660  -18.6300   18.4880 C   0  0  0  0  0  2  0  0  0  0  0  0
  -30.7280  -17.2590   19.1830 C   0  0  0  0  0  2  0  0  0  0  0  0
  -29.8610  -16.9460   20.4450 C   0  0  0  0  0  3  0  0  0  0  0  0
  -30.6140  -14.4900   20.4760 C   0  0  0  0  0  0  0  0  0  0  0  0
  -30.3790  -12.3080   19.3860 C   0  0  0  0  0  2  0  0  0  0  0  0
  -29.4390  -12.5010   18.1750 C   0  0  0  0  0  2  0  0  0  0  0  0
  -27.9620  -12.3530   18.5970 C   0  0  0  0  0  2  0  0  0  0  0  0
  -27.6140  -13.1950   19.8520 C   0  0  0  0  0  3  0  0  0  0  0  0
  -28.6640  -12.9840   20.9680 C   0  0  0  0  0  2  0  0  0  0  0  0
  -29.9910  -13.2870   20.4080 N   0  0  0  0  0  0  0  0  0  0  0  0
  -31.7670  -14.6800   20.0780 O   0  0  0  0  0  0  0  0  0  0  0  0
  -29.7730  -15.5040   20.7560 N   0  0  0  0  0  0  0  0  0  0  0  0
  -28.9010  -15.1970   21.1580 H   0  0  0  0  0  0  0  0  0  0  0  0
  -25.2230  -13.8280   20.5550 C   0  0  0  0  0  0  0  0  0  0  0  0
  -24.1460  -13.0600   20.9110 C   0  0  0  0  0  0  0  0  0  0  0  0
  -24.5990  -11.7060   20.8830 C   0  0  0  0  0  0  0  0  0  0  0  0
  -26.2580  -12.9350   20.3240 N   0  0  0  0  0  0  0  0  0  0  0  0
  -25.8890  -11.6580   20.5830 N   0  0  0  0  0  0  0  0  0  0  0  0
  -23.8690  -10.4440   21.0690 C   0  0  0  0  0  0  0  0  0  0  0  0
  -24.3020   -9.4710   21.9960 C   0  0  0  0  0  3  0  0  0  0  0  0
  -23.5740   -8.2730   22.1700 C   0  0  0  0  0  3  0  0  0  0  0  0
  -22.4020   -8.0400   21.4130 C   0  0  0  0  0  0  0  0  0  0  0  0
  -21.9900   -9.0040   20.4750 C   0  0  0  0  0  3  0  0  0  0  0  0
  -22.7160  -10.1930   20.3010 C   0  0  0  0  0  3  0  0  0  0  0  0
  -21.6470   -6.8950   21.4930 O   0  0  0  0  0  0  0  0  0  0  0  0
  -21.6020   -6.1400   22.6390 C   0  0  0  0  0  0  0  0  0  0  0  0
  -21.1750   -6.6830   23.8700 C   0  0  0  0  0  3  0  0  0  0  0  0
  -21.0780   -5.8590   25.0080 C   0  0  0  0  0  3  0  0  0  0  0  0
  -21.3990   -4.4900   24.9160 C   0  0  0  0  0  0  0  0  0  0  0  0
  -21.8170   -3.9460   23.6880 C   0  0  0  0  0  3  0  0  0  0  0  0
  -21.9150   -4.7700   22.5520 C   0  0  0  0  0  0  0  0  0  0  0  0
  -22.3000   -4.2380   21.3670 F   0  0  0  0  0  0  0  0  0  0  0  0
  -21.2970   -3.6950   26.0060 F   0  0  0  0  0  0  0  0  0  0  0  0
  -22.7490  -13.5420   21.1810 C   0  0  0  0  0  0  0  0  0  0  0  0
  -22.0130  -12.8400   22.0370 N   0  0  0  0  0  0  0  0  0  0  0  0
  -22.3240  -14.5740   20.6670 O   0  0  0  0  0  0  0  0  0  0  0  0
  -22.3690  -12.0020   22.4700 H   0  0  0  0  0  0  0  0  0  0  0  0
  -21.0760  -13.1470   22.2600 H   0  0  0  0  0  0  0  0  0  0  0  0
  -25.4230  -15.1990   20.3950 N   0  0  0  0  0  0  0  0  0  0  0  0
  -24.5350  -15.5490   20.0440 H   0  0  0  0  0  0  0  0  0  0  0  0
  -25.4220  -15.5670   21.3420 H   0  0  0  0  0  0  0  0  0  0  0  0
  -28.4260  -17.5390   20.3810 C   0  0  0  0  0  2  0  0  0  0  0  0
  -27.5960  -16.9720   19.3000 N   0  0  0  0  0  4  0  0  0  0  0  0
  -28.1590  -16.6690   18.5270 H   0  0  0  0  0  0  0  0  0  0  0  0
  -26.9630  -17.6800   18.9700 H   0  0  0  0  0  0  0  0  0  0  0  0
  -27.0150  -16.2050   19.6230 H   0  0  0  0  0  0  0  0  0  0  0  0
  1  2  1  0
  1 49  1  0
  2  4  1  0
  3  2  1  0
  5  2  1  0
  5  6  1  0
  7  6  1  0
  7  8  1  0
  9 20  2  0
 10  8  1  0
 10 15  1  0
 11 19  1  0
 11 21  1  0
 12 18  1  0
 12 14  1  0
 13 19  1  0
 14 13  1  0
 15 14  2  0
 16 17  1  0
 16 10  2  0
 17 12  2  0
 18 11  1  0
 19  9  1  0
 21 23  2  0
 22 21  1  0
 24 22  1  0
 25 34  2  0
 25 30  1  0
 26 22  1  0
 26 30  1  0
 27 26  1  0
 28 29  1  0
 28 27  1  0
 29 25  1  0
 30 31  2  0
 31 32  1  0
 33 32  2  0
 34 33  1  0
 35  9  1  0
 35 40  1  0
 35 36  1  0
 36 39  1  1
 36 37  1  0
 38 36  1  0
 40 43  1  0
 41 45  1  0
 41 40  1  0
 42 41  2  0
 45 44  1  0
 47 45  1  0
 47 48  1  0
 47 46  1  0
 50 51  1  0
 50 49  1  0
 52 51  1  0
 52 61  1  0
 53 61  1  0
 54 59  1  0
 55 56  1  0
 55 54  1  0
 57 56  1  0
 57 66  1  0
 57 58  1  0
 59 53  1  0
 59 58  1  0
 60 53  2  0
 61 62  1  0
 63 64  2  0
 64 83  1  0
 65 64  1  0
 65 68  1  0
 66 63  1  0
 66 67  1  0
 67 65  2  0
 68 69  1  0
 69 70  2  0
 71 74  1  0
 71 70  1  0
 72 71  2  0
 73 72  1  0
 73 68  2  0
 74 75  1  0
 75 76  1  0
 76 77  2  0
 78 77  1  0
 78 82  1  0
 79 78  2  0
 80 75  2  0
 80 79  1  0
 81 80  1  0
 83 84  1  0
 84 87  1  0
 84 86  1  0
 85 83  2  0
 88 63  1  0
 88 90  1  0
 89 88  1  0
 91 52  1  0
 92 95  1  0
 92 91  1  0
 93 92  1  0
 94 92  1  0
M  ISO  4   7 101   8 101  53 100  61 100
M  END
>  <TORSDO>  (39) 
F 26

>  <SCORE>  (39) 
-12.067

>  <name>  (39) 
38

>  <ligand_id>  (39) 
38

>  <original_smiles>  (39) 
[H]c1c([H])c([H])c2c(c1[H])C([H])([H])C([H])([H])C([H])([H])C2([H])N([H])C(=O)C1([H])N(C(=O)C([H])(N([H])C(=O)C([H])(N([H])C([H])([H])[H])C([H])([H])[H])C(C([H])([H])[H])(C([H])([H])[H])C([H])([H])[H])C([H])([H])c2c([H])c(OC([H])([H])C([H])([H])C([H])([H])[N+]([H])([H])C([H])([H])C([H])([H])C([H])([H])C([H])([H])C([H])(N([H])C(=O)N3C([H])([H])C([H])([H])C([H])([H])C([H])(n4nc(-c5c([H])c([H])c(Oc6c([H])c([H])c(F)c([H])c6F)c([H])c5[H])c(C(=O)N([H])[H])c4N([H])[H])C3([H])[H])C([H])([H])[N+]([H])([H])[H])c([H])c([H])c2C1([H])[H]

>  <smiles>  (39) 
[H]c1c([H])c([H])c2c(c1[H])C([H])([H])C([H])([H])C([H])([H])C2([H])N([H])C(=O)C1([H])N(C(=O)C([H])(N([H])C(=O)C([H])(N([H])C([H])([H])[H])C([H])([H])[H])C(C([H])([H])[H])(C([H])([H])[H])C([H])([H])[H])C([H])([H])c2c([H])c(OC([H])([H])C([H])([H])C([H])([H])[N+]([H])([H])C([H])([H])C([H])([H])C([H])([H])C([H])([H])C([H])(N([H])C(=O)N3C([H])([H])C([H])([H])C([H])([H])C([H])(n4nc(-c5c([H])c([H])c(Oc6c([H])c([H])c(F)c([H])c6F)c([H])c5[H])c(C(=O)N([H])[H])c4N([H])[H])C3([H])[H])C([H])([H])[N+]([H])([H])[H])c([H])c([H])c2C1([H])[H]

$$$$
39:0:0
     RDKit          3D

 91 98  0  0  1  0  0  0  0  0999 V2000
  -27.7560  -21.7280   18.9630 C   0  0  0  0  0  1  0  0  0  0  0  0
  -28.7230  -21.9390   20.1400 C   0  0  0  0  0  3  0  0  0  0  0  0
  -30.3810  -23.7730   19.2670 C   0  0  0  0  0  1  0  0  0  0  0  0
  -29.1660  -23.5700   20.1960 C   0  0  0  0  0  3  0  0  0  0  0  0
  -28.0730  -24.8380   19.9730 C   0  0  0  0  0  2  0  0  0  0  0  0
  -28.2790  -26.3630   20.2020 O   0  0  0  0  0  0  0  0  0  0  0  0
  -24.5310  -31.9490   23.2610 C   0  0  0  0  0  0  0  0  0  0  0  0
  -27.1840  -27.3040   20.1750 C   0  0  0  0  0  0  0  0  0  0  0  0
  -23.3440  -30.5510   21.6130 C   0  0  0  0  0  3  0  0  0  0  0  0
  -24.8140  -28.9960   20.1850 C   0  0  0  0  0  0  0  0  0  0  0  0
  -25.8960  -30.8520   21.4440 C   0  0  0  0  0  2  0  0  0  0  0  0
  -25.9890  -29.4630   20.7860 C   0  0  0  0  0  0  0  0  0  0  0  0
  -27.1740  -28.6340   20.7630 C   0  0  0  0  0  3  0  0  0  0  0  0
  -25.9720  -26.9340   19.5480 C   0  0  0  0  0  3  0  0  0  0  0  0
  -24.8150  -27.7390   19.5580 C   0  0  0  0  0  3  0  0  0  0  0  0
  -23.5740  -29.8750   20.2370 C   0  0  0  0  0  2  0  0  0  0  0  0
  -24.6110  -31.1370   22.1640 N   0  0  0  0  0  0  0  0  0  0  0  0
  -23.4410  -32.2180   23.7920 O   0  0  0  0  0  0  0  0  0  0  0  0
  -22.6760  -29.5340   22.5720 C   0  0  0  0  0  0  0  0  0  0  0  0
  -21.3530  -29.3410   22.4390 N   0  0  0  0  0  0  0  0  0  0  0  0
  -23.3530  -28.9180   23.4000 O   0  0  0  0  0  0  0  0  0  0  0  0
  -20.8650  -29.8840   21.7400 H   0  0  0  0  0  0  0  0  0  0  0  0
  -17.9920  -28.0790   22.9160 C   0  0  0  0  0  0  0  0  0  0  0  0
  -20.5430  -28.3930   23.2090 C   0  0  0  0  0  3  0  0  0  0  0  0
  -20.6790  -26.9600   22.6430 C   0  0  0  0  0  2  0  0  0  0  0  0
  -19.5930  -26.6080   21.6210 C   0  0  0  0  0  2  0  0  0  0  0  0
  -18.2010  -26.7310   22.2470 C   0  0  0  0  0  2  0  0  0  0  0  0
  -19.0910  -28.8640   23.3550 C   0  0  0  0  0  0  0  0  0  0  0  0
  -18.8400  -30.1240   23.9430 C   0  0  0  0  0  3  0  0  0  0  0  0
  -17.5230  -30.5970   24.0960 C   0  0  0  0  0  3  0  0  0  0  0  0
  -16.4390  -29.8100   23.6730 C   0  0  0  0  0  3  0  0  0  0  0  0
  -16.6730  -28.5530   23.0860 C   0  0  0  0  0  3  0  0  0  0  0  0
  -25.8030  -32.5940   23.8920 C   0  0  0  0  0  3  0  0  0  0  0  0
  -25.4860  -33.9970   24.2030 N   0  0  0  0  0  0  0  0  0  0  0  0
  -25.8520  -35.0470   23.4560 C   0  0  0  0  0  0  0  0  0  0  0  0
  -26.5560  -34.9360   22.4480 O   0  0  0  0  0  0  0  0  0  0  0  0
  -24.8710  -34.1580   24.9870 H   0  0  0  0  0  0  0  0  0  0  0  0
  -24.1740  -36.8670   23.0150 C   0  0  0  0  0  1  0  0  0  0  0  0
  -25.3600  -36.4400   23.8940 C   0  0  0  0  0  3  0  0  0  0  0  0
  -27.4530  -37.2890   24.8540 C   0  0  0  0  0  1  0  0  0  0  0  0
  -26.4120  -37.4780   23.8490 N   0  0  0  0  0  0  0  0  0  0  0  0
  -26.0100  -38.4030   23.9790 H   0  0  0  0  0  0  0  0  0  0  0  0
  -26.2990  -31.8450   25.1890 C   0  0  1  0  0  0  0  0  0  0  0  0
  -25.1900  -31.6250   26.2450 C   0  0  0  0  0  1  0  0  0  0  0  0
  -26.8860  -30.4610   24.8280 C   0  0  0  0  0  1  0  0  0  0  0  0
  -27.4370  -32.6540   25.8570 C   0  0  0  0  0  1  0  0  0  0  0  0
  -29.7670  -20.6240   20.4070 C   0  0  0  0  0  2  0  0  0  0  0  0
  -29.7170  -19.0450   19.7950 C   0  0  0  0  0  3  0  0  0  0  0  0
  -29.9210  -17.8900   17.4880 C   0  0  0  0  0  1  0  0  0  0  0  0
  -30.4820  -20.2600   17.5790 C   0  0  0  0  0  1  0  0  0  0  0  0
  -32.0180  -18.6320   18.6350 C   0  0  0  0  0  1  0  0  0  0  0  0
  -30.5190  -18.9620   18.4200 C   0  0  1  0  0  0  0  0  0  0  0  0
  -30.1530  -17.7370   20.7640 C   0  0  0  0  0  2  0  0  0  0  0  0
  -30.6160  -15.0650   20.3960 C   0  0  0  0  0  0  0  0  0  0  0  0
  -30.4960  -12.7600   19.3840 C   0  0  0  0  0  2  0  0  0  0  0  0
  -29.5680  -12.7940   18.1520 C   0  0  0  0  0  2  0  0  0  0  0  0
  -28.1040  -12.5550   18.5780 C   0  0  0  0  0  2  0  0  0  0  0  0
  -27.6890  -13.4290   19.7910 C   0  0  0  0  0  3  0  0  0  0  0  0
  -28.7460  -13.3870   20.9110 C   0  0  0  0  0  2  0  0  0  0  0  0
  -30.0180  -13.8160   20.3110 N   0  0  0  0  0  0  0  0  0  0  0  0
  -31.8270  -15.1500   20.1810 O   0  0  0  0  0  0  0  0  0  0  0  0
  -29.8250  -16.2240   20.5100 N   0  0  0  0  0  0  0  0  0  0  0  0
  -28.8390  -16.0140   20.5590 H   0  0  0  0  0  0  0  0  0  0  0  0
  -25.2900  -13.9510   20.5270 C   0  0  0  0  0  0  0  0  0  0  0  0
  -24.2440  -13.1500   20.8860 C   0  0  0  0  0  0  0  0  0  0  0  0
  -24.7410  -11.8100   20.8450 C   0  0  0  0  0  0  0  0  0  0  0  0
  -26.3550  -13.1010   20.2810 N   0  0  0  0  0  0  0  0  0  0  0  0
  -26.0330  -11.8070   20.5400 N   0  0  0  0  0  0  0  0  0  0  0  0
  -24.0440  -10.5310   21.0190 C   0  0  0  0  0  0  0  0  0  0  0  0
  -24.4800   -9.5750   21.9640 C   0  0  0  0  0  3  0  0  0  0  0  0
  -23.7800   -8.3590   22.1260 C   0  0  0  0  0  3  0  0  0  0  0  0
  -22.6320   -8.0920   21.3440 C   0  0  0  0  0  0  0  0  0  0  0  0
  -22.2170   -9.0360   20.3890 C   0  0  0  0  0  3  0  0  0  0  0  0
  -22.9160  -10.2430   20.2240 C   0  0  0  0  0  3  0  0  0  0  0  0
  -21.9040   -6.9290   21.4160 O   0  0  0  0  0  0  0  0  0  0  0  0
  -21.8190   -6.2030   22.5760 C   0  0  0  0  0  0  0  0  0  0  0  0
  -21.2990   -6.7580   23.7670 C   0  0  0  0  0  3  0  0  0  0  0  0
  -21.1660   -5.9550   24.9170 C   0  0  0  0  0  3  0  0  0  0  0  0
  -21.5400   -4.5990   24.8790 C   0  0  0  0  0  0  0  0  0  0  0  0
  -22.0510   -4.0430   23.6930 C   0  0  0  0  0  3  0  0  0  0  0  0
  -22.1890   -4.8430   22.5450 C   0  0  0  0  0  0  0  0  0  0  0  0
  -22.6620   -4.2970   21.3980 F   0  0  0  0  0  0  0  0  0  0  0  0
  -21.4040   -3.8260   25.9820 F   0  0  0  0  0  0  0  0  0  0  0  0
  -22.8340  -13.5890   21.1560 C   0  0  0  0  0  0  0  0  0  0  0  0
  -22.1170  -12.8600   22.0030 N   0  0  0  0  0  0  0  0  0  0  0  0
  -22.3770  -14.6150   20.6510 O   0  0  0  0  0  0  0  0  0  0  0  0
  -22.5070  -12.0340   22.4350 H   0  0  0  0  0  0  0  0  0  0  0  0
  -21.1690  -13.1270   22.2250 H   0  0  0  0  0  0  0  0  0  0  0  0
  -25.4140  -15.3290   20.3650 N   0  0  0  0  0  0  0  0  0  0  0  0
  -24.6110  -15.9410   20.4610 H   0  0  0  0  0  0  0  0  0  0  0  0
  -26.2370  -15.8100   20.0340 H   0  0  0  0  0  0  0  0  0  0  0  0
  2  1  1  0
  2  4  1  0
  2 47  1  0
  4  3  1  0
  5  4  1  0
  5  6  1  0
  7 18  2  0
  8  6  1  0
  8 13  1  0
  9 17  1  0
  9 19  1  0
 10 16  1  0
 10 12  1  0
 11 17  1  0
 12 11  1  0
 13 12  2  0
 14 15  1  0
 14  8  2  0
 15 10  2  0
 16  9  1  0
 17  7  1  0
 19 21  2  0
 20 19  1  0
 22 20  1  0
 23 32  2  0
 23 28  1  0
 24 20  1  0
 24 28  1  0
 25 24  1  0
 26 27  1  0
 26 25  1  0
 27 23  1  0
 28 29  2  0
 29 30  1  0
 31 30  2  0
 32 31  1  0
 33  7  1  0
 33 34  1  0
 33 43  1  0
 34 37  1  0
 35 39  1  0
 35 34  1  0
 36 35  2  0
 39 38  1  0
 41 39  1  0
 41 42  1  0
 41 40  1  0
 43 46  1  1
 43 44  1  0
 45 43  1  0
 48 47  1  0
 48 53  1  0
 52 49  1  6
 50 52  1  0
 52 51  1  0
 52 48  1  0
 54 62  1  0
 55 60  1  0
 56 57  1  0
 56 55  1  0
 58 57  1  0
 58 67  1  0
 58 59  1  0
 60 54  1  0
 60 59  1  0
 61 54  2  0
 62 63  1  0
 62 53  1  0
 64 65  2  0
 65 84  1  0
 66 65  1  0
 66 69  1  0
 67 64  1  0
 67 68  1  0
 68 66  2  0
 69 70  1  0
 70 71  2  0
 72 75  1  0
 72 71  1  0
 73 72  2  0
 74 73  1  0
 74 69  2  0
 75 76  1  0
 76 77  1  0
 77 78  2  0
 79 78  1  0
 79 83  1  0
 80 79  2  0
 81 76  2  0
 81 80  1  0
 82 81  1  0
 84 85  1  0
 85 88  1  0
 85 87  1  0
 86 84  2  0
 89 90  1  0
 89 64  1  0
 91 89  1  0
M  ISO  4   5 101   6 101  54 100  62 100
M  END
>  <TORSDO>  (40) 
F 22

>  <SCORE>  (40) 
-13.626

>  <name>  (40) 
39

>  <ligand_id>  (40) 
39

>  <original_smiles>  (40) 
[H]c1c([H])c([H])c2c(c1[H])C([H])([H])C([H])([H])C([H])([H])C2([H])N([H])C(=O)C1([H])N(C(=O)C([H])(N([H])C(=O)C([H])(N([H])C([H])([H])[H])C([H])([H])[H])C(C([H])([H])[H])(C([H])([H])[H])C([H])([H])[H])C([H])([H])c2c([H])c(OC([H])([H])C([H])(C([H])([H])[H])C([H])(C([H])([H])[H])C([H])([H])C([H])(C([H])([H])N([H])C(=O)N3C([H])([H])C([H])([H])C([H])([H])C([H])(n4nc(-c5c([H])c([H])c(Oc6c([H])c([H])c(F)c([H])c6F)c([H])c5[H])c(C(=O)N([H])[H])c4N([H])[H])C3([H])[H])C(C([H])([H])[H])(C([H])([H])[H])C([H])([H])[H])c([H])c([H])c2C1([H])[H]

>  <smiles>  (40) 
[H]c1c([H])c([H])c2c(c1[H])C([H])([H])C([H])([H])C([H])([H])C2([H])N([H])C(=O)C1([H])N(C(=O)C([H])(N([H])C(=O)C([H])(N([H])C([H])([H])[H])C([H])([H])[H])C(C([H])([H])[H])(C([H])([H])[H])C([H])([H])[H])C([H])([H])c2c([H])c(OC([H])([H])C([H])(C([H])([H])[H])C([H])(C([H])([H])[H])C([H])([H])C([H])(C([H])([H])N([H])C(=O)N3C([H])([H])C([H])([H])C([H])([H])C([H])(n4nc(-c5c([H])c([H])c(Oc6c([H])c([H])c(F)c([H])c6F)c([H])c5[H])c(C(=O)N([H])[H])c4N([H])[H])C3([H])[H])C(C([H])([H])[H])(C([H])([H])[H])C([H])([H])[H])c([H])c([H])c2C1([H])[H]

$$$$
40:0:0
     RDKit          3D

 94102  0  0  1  0  0  0  0  0999 V2000
  -30.0300  -19.5120   21.5760 C   0  0  0  0  0  2  0  0  0  0  0  0
  -31.0180  -19.2770   19.2420 C   0  0  0  0  0  2  0  0  0  0  0  0
  -30.4160  -21.0360   21.5280 C   0  0  0  0  0  2  0  0  0  0  0  0
  -31.3060  -20.8190   19.3200 C   0  0  0  0  0  2  0  0  0  0  0  0
  -30.7380  -18.5070   20.5830 C   0  0  0  0  0  3  0  0  0  0  0  0
  -30.3250  -21.5950   20.1480 N   0  0  2  0  0  4  0  0  0  0  0  0
  -29.4090  -21.3610   19.7980 H   0  0  0  0  0  0  0  0  0  0  0  0
  -30.4370  -23.1090   19.9630 C   0  0  0  0  0  2  0  0  0  0  0  0
  -29.3620  -24.1020   20.6070 C   0  0  0  0  0  2  0  0  0  0  0  0
  -28.9970  -25.4150   19.7670 C   0  0  0  0  0  2  0  0  0  0  0  0
  -28.6430  -26.6620   20.4700 O   0  0  0  0  0  0  0  0  0  0  0  0
  -24.5910  -31.9230   23.1580 C   0  0  0  0  0  0  0  0  0  0  0  0
  -27.4480  -27.3860   20.3110 C   0  0  0  0  0  0  0  0  0  0  0  0
  -23.4730  -30.4580   21.5080 C   0  0  0  0  0  3  0  0  0  0  0  0
  -25.0130  -28.8990   20.1800 C   0  0  0  0  0  0  0  0  0  0  0  0
  -26.0040  -30.8420   21.4010 C   0  0  0  0  0  2  0  0  0  0  0  0
  -26.1410  -29.4480   20.7990 C   0  0  0  0  0  0  0  0  0  0  0  0
  -27.3500  -28.7010   20.8560 C   0  0  0  0  0  3  0  0  0  0  0  0
  -26.2900  -26.8730   19.6740 C   0  0  0  0  0  3  0  0  0  0  0  0
  -25.0890  -27.6160   19.6110 C   0  0  0  0  0  3  0  0  0  0  0  0
  -23.7500  -29.7370   20.1590 C   0  0  0  0  0  2  0  0  0  0  0  0
  -24.7050  -31.0940   22.0800 N   0  0  0  0  0  0  0  0  0  0  0  0
  -23.4850  -32.1920   23.6510 O   0  0  0  0  0  0  0  0  0  0  0  0
  -22.7960  -29.4580   22.4740 C   0  0  0  0  0  0  0  0  0  0  0  0
  -21.4670  -29.2980   22.3410 N   0  0  0  0  0  0  0  0  0  0  0  0
  -23.4640  -28.8250   23.2960 O   0  0  0  0  0  0  0  0  0  0  0  0
  -20.9920  -29.8540   21.6450 H   0  0  0  0  0  0  0  0  0  0  0  0
  -18.0630  -28.2100   22.8870 C   0  0  0  0  0  0  0  0  0  0  0  0
  -20.6340  -28.3750   23.1120 C   0  0  0  0  0  3  0  0  0  0  0  0
  -20.6750  -26.9520   22.5080 C   0  0  0  0  0  2  0  0  0  0  0  0
  -19.5430  -26.6870   21.5100 C   0  0  0  0  0  2  0  0  0  0  0  0
  -18.1800  -26.8690   22.1840 C   0  0  0  0  0  2  0  0  0  0  0  0
  -19.2150  -28.9240   23.3100 C   0  0  0  0  0  0  0  0  0  0  0  0
  -19.0520  -30.1830   23.9290 C   0  0  0  0  0  3  0  0  0  0  0  0
  -17.7680  -30.7250   24.1290 C   0  0  0  0  0  3  0  0  0  0  0  0
  -16.6310  -30.0070   23.7220 C   0  0  0  0  0  3  0  0  0  0  0  0
  -16.7790  -28.7500   23.1080 C   0  0  0  0  0  3  0  0  0  0  0  0
  -25.8410  -32.5930   23.8100 C   0  0  0  0  0  3  0  0  0  0  0  0
  -25.4800  -33.9770   24.1460 N   0  0  0  0  0  0  0  0  0  0  0  0
  -25.7860  -35.0460   23.3990 C   0  0  0  0  0  0  0  0  0  0  0  0
  -26.4690  -34.9710   22.3730 O   0  0  0  0  0  0  0  0  0  0  0  0
  -24.8670  -34.1050   24.9370 H   0  0  0  0  0  0  0  0  0  0  0  0
  -23.9980  -36.7770   23.0470 C   0  0  0  0  0  1  0  0  0  0  0  0
  -25.2490  -36.4130   23.8620 C   0  0  0  0  0  3  0  0  0  0  0  0
  -27.3420  -37.3710   24.7150 C   0  0  0  0  0  1  0  0  0  0  0  0
  -26.2460  -37.5000   23.7590 N   0  0  0  0  0  0  0  0  0  0  0  0
  -25.8080  -38.4060   23.9030 H   0  0  0  0  0  0  0  0  0  0  0  0
  -26.3610  -31.8270   25.0880 C   0  0  1  0  0  0  0  0  0  0  0  0
  -25.2540  -31.5380   26.1260 C   0  0  0  0  0  1  0  0  0  0  0  0
  -27.0020  -30.4780   24.6930 C   0  0  0  0  0  1  0  0  0  0  0  0
  -27.4660  -32.6570   25.7840 C   0  0  0  0  0  1  0  0  0  0  0  0
  -29.8820  -17.1440   20.4370 C   0  0  0  0  0  0  0  0  0  0  0  0
  -31.0630  -14.6860   20.2990 C   0  0  0  0  0  0  0  0  0  0  0  0
  -30.8910  -12.3160   19.5110 C   0  0  0  0  0  2  0  0  0  0  0  0
  -29.9860  -12.2610   18.2560 C   0  0  0  0  0  2  0  0  0  0  0  0
  -28.5000  -12.1430   18.6460 C   0  0  0  0  0  2  0  0  0  0  0  0
  -28.0960  -13.1690   19.7330 C   0  0  0  0  0  3  0  0  0  0  0  0
  -29.1100  -13.1710   20.9050 C   0  0  0  0  0  2  0  0  0  0  0  0
  -30.4540  -13.4500   20.3610 N   0  0  0  0  0  0  0  0  0  0  0  0
  -32.1600  -14.8340   19.7590 O   0  0  0  0  0  0  0  0  0  0  0  0
  -30.3370  -15.7330   20.8100 N   0  0  0  0  0  4  0  0  0  0  0  0
  -29.6630  -15.3420   21.4510 H   0  0  0  0  0  0  0  0  0  0  0  0
  -25.7140  -13.9040   20.3970 C   0  0  0  0  0  0  0  0  0  0  0  0
  -24.6080  -13.2030   20.7700 C   0  0  0  0  0  0  0  0  0  0  0  0
  -24.9970  -11.8310   20.7510 C   0  0  0  0  0  0  0  0  0  0  0  0
  -26.7230  -12.9730   20.1920 N   0  0  0  0  0  0  0  0  0  0  0  0
  -26.2890  -11.7160   20.4620 N   0  0  0  0  0  0  0  0  0  0  0  0
  -24.1960  -10.6190   20.9320 C   0  0  0  0  0  0  0  0  0  0  0  0
  -24.5610   -9.6250   21.8630 C   0  0  0  0  0  3  0  0  0  0  0  0
  -23.7620   -8.4750   22.0290 C   0  0  0  0  0  3  0  0  0  0  0  0
  -22.5830   -8.3140   21.2650 C   0  0  0  0  0  0  0  0  0  0  0  0
  -22.2360   -9.2960   20.3220 C   0  0  0  0  0  3  0  0  0  0  0  0
  -23.0360  -10.4380   20.1530 C   0  0  0  0  0  3  0  0  0  0  0  0
  -21.7580   -7.2190   21.3430 O   0  0  0  0  0  0  0  0  0  0  0  0
  -21.6460   -6.4860   22.4980 C   0  0  0  0  0  0  0  0  0  0  0  0
  -21.1950   -7.0630   23.7060 C   0  0  0  0  0  3  0  0  0  0  0  0
  -21.0300   -6.2580   24.8510 C   0  0  0  0  0  3  0  0  0  0  0  0
  -21.3030   -4.8780   24.7870 C   0  0  0  0  0  0  0  0  0  0  0  0
  -21.7470   -4.3020   23.5840 C   0  0  0  0  0  3  0  0  0  0  0  0
  -21.9160   -5.1050   22.4420 C   0  0  0  0  0  0  0  0  0  0  0  0
  -22.3260   -4.5420   21.2790 F   0  0  0  0  0  0  0  0  0  0  0  0
  -21.1360   -4.1020   25.8830 F   0  0  0  0  0  0  0  0  0  0  0  0
  -23.2390  -13.7670   21.0220 C   0  0  0  0  0  0  0  0  0  0  0  0
  -22.4830  -13.1580   21.9270 N   0  0  0  0  0  0  0  0  0  0  0  0
  -22.8530  -14.7880   20.4520 O   0  0  0  0  0  0  0  0  0  0  0  0
  -22.8070  -12.3310   22.4070 H   0  0  0  0  0  0  0  0  0  0  0  0
  -21.5660  -13.5220   22.1420 H   0  0  0  0  0  0  0  0  0  0  0  0
  -25.9130  -15.2540   20.1920 N   0  0  0  0  0  0  0  0  0  0  0  0
  -25.1510  -15.9180   20.2820 H   0  0  0  0  0  0  0  0  0  0  0  0
  -26.7600  -15.6710   19.8310 H   0  0  0  0  0  0  0  0  0  0  0  0
  -29.0140  -17.0390   19.1470 C   0  0  0  0  0  2  0  0  0  0  0  0
  -26.8620  -18.2010   20.0370 C   0  0  0  0  0  1  0  0  0  0  0  0
  -28.1600  -19.3270   18.1220 C   0  0  0  0  0  1  0  0  0  0  0  0
  -27.8330  -18.0170   18.8560 C   0  0  0  0  0  3  0  0  0  0  0  0
  2  4  1  0
  2  5  1  0
  3  1  1  0
  4  6  1  0
  5 52  1  0
  5  1  1  0
  6  3  1  0
  6  7  1  6
  8  6  1  0
  8  9  1  0
 10 11  1  0
 10  9  1  0
 12 23  2  0
 13 11  1  0
 13 18  1  0
 14 22  1  0
 14 24  1  0
 15 17  1  0
 16 22  1  0
 17 18  2  0
 17 16  1  0
 19 13  2  0
 20 19  1  0
 20 15  2  0
 21 15  1  0
 21 14  1  0
 22 12  1  0
 24 26  2  0
 25 24  1  0
 27 25  1  0
 28 37  2  0
 28 33  1  0
 29 25  1  0
 29 33  1  0
 30 29  1  0
 31 32  1  0
 31 30  1  0
 32 28  1  0
 33 34  2  0
 34 35  1  0
 36 35  2  0
 37 36  1  0
 38 12  1  0
 38 39  1  0
 38 48  1  0
 39 42  1  0
 40 44  1  0
 40 39  1  0
 41 40  2  0
 44 43  1  0
 46 44  1  0
 46 47  1  0
 46 45  1  0
 48 51  1  1
 48 49  1  0
 50 48  1  0
 52 61  2  3
 53 59  1  0
 53 61  1  0
 54 59  1  0
 55 56  1  0
 55 54  1  0
 57 56  1  0
 57 66  1  0
 57 58  1  0
 59 58  1  0
 60 53  2  0
 61 62  1  0
 63 64  2  0
 64 83  1  0
 65 64  1  0
 65 68  1  0
 66 63  1  0
 66 67  1  0
 67 65  2  0
 68 69  1  0
 69 70  2  0
 71 74  1  0
 71 70  1  0
 72 71  2  0
 73 72  1  0
 73 68  2  0
 74 75  1  0
 75 76  1  0
 76 77  2  0
 78 77  1  0
 78 82  1  0
 79 78  2  0
 80 75  2  0
 80 79  1  0
 81 80  1  0
 83 84  1  0
 84 87  1  0
 84 86  1  0
 85 83  2  0
 88 89  1  0
 88 63  1  0
 90 88  1  0
 91 52  1  0
 93 94  1  0
 94 91  1  0
 94 92  1  0
M  ISO  4  10 101  11 101  53 100  61 100
M  END
>  <TORSDO>  (41) 
F 22

>  <SCORE>  (41) 
-13.088

>  <name>  (41) 
40

>  <ligand_id>  (41) 
40

>  <original_smiles>  (41) 
[H]c1c([H])c([H])c2c(c1[H])C([H])([H])C([H])([H])C([H])([H])C2([H])N([H])C(=O)C1([H])N(C(=O)C([H])(N([H])C(=O)C([H])(N([H])C([H])([H])[H])C([H])([H])[H])C(C([H])([H])[H])(C([H])([H])[H])C([H])([H])[H])C([H])([H])c2c([H])c(OC([H])([H])C([H])([H])C([H])([H])[N+]3([H])C([H])([H])C([H])([H])C([H])(C([H])(N([H])C(=O)N4C([H])([H])C([H])([H])C([H])([H])C([H])(n5nc(-c6c([H])c([H])c(Oc7c([H])c([H])c(F)c([H])c7F)c([H])c6[H])c(C(=O)N([H])[H])c5N([H])[H])C4([H])[H])C([H])([H])C([H])(C([H])([H])[H])C([H])([H])[H])C([H])([H])C3([H])[H])c([H])c([H])c2C1([H])[H]

>  <smiles>  (41) 
[H]c1c([H])c([H])c2c(c1[H])C([H])([H])C([H])([H])C([H])([H])C2([H])N([H])C(=O)C1([H])N(C(=O)C([H])(N([H])C(=O)C([H])(N([H])C([H])([H])[H])C([H])([H])[H])C(C([H])([H])[H])(C([H])([H])[H])C([H])([H])[H])C([H])([H])c2c([H])c(OC([H])([H])C([H])([H])C([H])([H])[N+]3([H])C([H])([H])C([H])([H])C([H])(C([H])(N([H])C(=O)N4C([H])([H])C([H])([H])C([H])([H])C([H])(n5nc(-c6c([H])c([H])c(Oc7c([H])c([H])c(F)c([H])c7F)c([H])c6[H])c(C(=O)N([H])[H])c5N([H])[H])C4([H])[H])C([H])([H])C([H])(C([H])([H])[H])C([H])([H])[H])C([H])([H])C3([H])[H])c([H])c([H])c2C1([H])[H]

$$$$
41:0:0
     RDKit          3D

 97105  0  0  1  0  0  0  0  0999 V2000
  -29.9980  -18.4370   20.8710 C   0  0  0  0  0  3  0  0  0  0  0  0
  -31.4590  -18.6280   21.3580 C   0  0  0  0  0  2  0  0  0  0  0  0
  -32.3890  -19.0520   20.2840 N   0  0  0  0  0  4  0  0  0  0  0  0
  -31.8600  -19.5370   19.5770 H   0  0  0  0  0  0  0  0  0  0  0  0
  -33.0420  -19.7140   20.6760 H   0  0  0  0  0  0  0  0  0  0  0  0
  -33.1800  -17.9700   19.6620 C   0  0  0  0  0  2  0  0  0  0  0  0
  -33.7760  -17.6570   15.3010 C   0  0  0  0  0  2  0  0  0  0  0  0
  -34.9940  -17.4820   16.2210 C   0  0  0  0  0  2  0  0  0  0  0  0
  -32.8420  -18.7530   15.8310 C   0  0  0  0  0  2  0  0  0  0  0  0
  -34.5750  -17.2200   17.6780 C   0  0  0  0  0  2  0  0  0  0  0  0
  -32.4070  -18.4520   17.2730 C   0  0  0  0  0  2  0  0  0  0  0  0
  -33.6210  -18.3070   18.2210 C   0  0  0  0  0  3  0  0  0  0  0  0
  -29.8040  -17.0750   20.0510 C   0  0  0  0  0  2  0  0  0  0  0  0
  -30.6080  -14.6430   20.4230 C   0  0  0  0  0  0  0  0  0  0  0  0
  -30.3790  -12.4100   19.3770 C   0  0  0  0  0  2  0  0  0  0  0  0
  -29.4430  -12.5580   18.1560 C   0  0  0  0  0  2  0  0  0  0  0  0
  -27.9700  -12.3980   18.5790 C   0  0  0  0  0  2  0  0  0  0  0  0
  -27.6100  -13.2610   19.8170 C   0  0  0  0  0  3  0  0  0  0  0  0
  -28.6630  -13.1060   20.9390 C   0  0  0  0  0  2  0  0  0  0  0  0
  -29.9800  -13.4280   20.3720 N   0  0  0  0  0  0  0  0  0  0  0  0
  -31.7540  -14.7850   19.9920 O   0  0  0  0  0  0  0  0  0  0  0  0
  -29.8370  -15.7300   20.7400 N   0  0  0  0  0  0  0  0  0  0  0  0
  -28.9670  -15.4750   21.1870 H   0  0  0  0  0  0  0  0  0  0  0  0
  -25.2110  -13.8640   20.5200 C   0  0  0  0  0  0  0  0  0  0  0  0
  -24.1430  -13.0930   20.8870 C   0  0  0  0  0  0  0  0  0  0  0  0
  -24.6050  -11.7410   20.8680 C   0  0  0  0  0  0  0  0  0  0  0  0
  -26.2570  -12.9830   20.2960 N   0  0  0  0  0  0  0  0  0  0  0  0
  -25.8970  -11.7020   20.5660 N   0  0  0  0  0  0  0  0  0  0  0  0
  -23.8780  -10.4800   21.0640 C   0  0  0  0  0  0  0  0  0  0  0  0
  -24.3170   -9.5080   21.9920 C   0  0  0  0  0  3  0  0  0  0  0  0
  -23.5890   -8.3120   22.1740 C   0  0  0  0  0  3  0  0  0  0  0  0
  -22.4080   -8.0800   21.4300 C   0  0  0  0  0  0  0  0  0  0  0  0
  -21.9870   -9.0410   20.4930 C   0  0  0  0  0  3  0  0  0  0  0  0
  -22.7160  -10.2270   20.3090 C   0  0  0  0  0  3  0  0  0  0  0  0
  -21.6520   -6.9360   21.5220 O   0  0  0  0  0  0  0  0  0  0  0  0
  -21.6270   -6.1800   22.6660 C   0  0  0  0  0  0  0  0  0  0  0  0
  -21.2420   -6.7240   23.9110 C   0  0  0  0  0  3  0  0  0  0  0  0
  -21.1650   -5.8960   25.0490 C   0  0  0  0  0  3  0  0  0  0  0  0
  -21.4590   -4.5230   24.9430 C   0  0  0  0  0  0  0  0  0  0  0  0
  -21.8350   -3.9770   23.7030 C   0  0  0  0  0  3  0  0  0  0  0  0
  -21.9160   -4.8030   22.5670 C   0  0  0  0  0  0  0  0  0  0  0  0
  -22.2610   -4.2670   21.3710 F   0  0  0  0  0  0  0  0  0  0  0  0
  -21.3750   -3.7270   26.0340 F   0  0  0  0  0  0  0  0  0  0  0  0
  -22.7430  -13.5730   21.1490 C   0  0  0  0  0  0  0  0  0  0  0  0
  -22.0100  -12.8850   22.0170 N   0  0  0  0  0  0  0  0  0  0  0  0
  -22.3090  -14.5960   20.6210 O   0  0  0  0  0  0  0  0  0  0  0  0
  -22.3740  -12.0580   22.4660 H   0  0  0  0  0  0  0  0  0  0  0  0
  -21.0750  -13.1950   22.2390 H   0  0  0  0  0  0  0  0  0  0  0  0
  -25.3740  -15.2340   20.3360 N   0  0  0  0  0  0  0  0  0  0  0  0
  -24.6040  -15.8860   20.4370 H   0  0  0  0  0  0  0  0  0  0  0  0
  -26.2220  -15.6750   20.0030 H   0  0  0  0  0  0  0  0  0  0  0  0
  -29.4280  -19.7530   20.1460 C   0  0  0  0  0  3  0  0  0  0  0  0
  -29.5540  -21.1990   20.8170 C   0  0  0  0  0  3  0  0  0  0  0  0
  -28.8620  -22.4260   20.0700 C   0  0  0  0  0  2  0  0  0  0  0  0
  -29.0240  -23.9130   20.6370 C   0  0  0  0  0  3  0  0  0  0  0  0
  -28.1240  -25.0380   19.9590 C   0  0  0  0  0  3  0  0  0  0  0  0
  -28.2830  -26.4710   20.3170 O   0  0  0  0  0  0  0  0  0  0  0  0
  -24.5920  -31.9160   23.2770 C   0  0  0  0  0  0  0  0  0  0  0  0
  -27.1710  -27.3280   20.2330 C   0  0  0  0  0  0  0  0  0  0  0  0
  -23.3770  -30.5200   21.6450 C   0  0  0  0  0  3  0  0  0  0  0  0
  -24.8150  -28.9610   20.2180 C   0  0  0  0  0  0  0  0  0  0  0  0
  -25.9170  -30.8170   21.4620 C   0  0  0  0  0  2  0  0  0  0  0  0
  -25.9850  -29.4350   20.8230 C   0  0  0  0  0  0  0  0  0  0  0  0
  -27.1610  -28.6280   20.8290 C   0  0  0  0  0  3  0  0  0  0  0  0
  -25.9820  -26.9230   19.5770 C   0  0  0  0  0  3  0  0  0  0  0  0
  -24.8170  -27.7090   19.5850 C   0  0  0  0  0  3  0  0  0  0  0  0
  -23.5840  -29.8420   20.2660 C   0  0  0  0  0  2  0  0  0  0  0  0
  -24.6480  -31.1010   22.1840 N   0  0  0  0  0  0  0  0  0  0  0  0
  -23.5110  -32.2050   23.8110 O   0  0  0  0  0  0  0  0  0  0  0  0
  -22.7090  -29.5080   22.6090 C   0  0  0  0  0  0  0  0  0  0  0  0
  -21.3840  -29.3360   22.4780 N   0  0  0  0  0  0  0  0  0  0  0  0
  -23.3840  -28.8860   23.4330 O   0  0  0  0  0  0  0  0  0  0  0  0
  -20.9010  -29.8870   21.7830 H   0  0  0  0  0  0  0  0  0  0  0  0
  -18.0040  -28.1470   22.9640 C   0  0  0  0  0  0  0  0  0  0  0  0
  -20.5590  -28.4080   23.2530 C   0  0  0  0  0  3  0  0  0  0  0  0
  -20.6660  -26.9710   22.6940 C   0  0  0  0  0  2  0  0  0  0  0  0
  -19.5710  -26.6360   21.6750 C   0  0  0  0  0  2  0  0  0  0  0  0
  -18.1840  -26.7900   22.3050 C   0  0  0  0  0  2  0  0  0  0  0  0
  -19.1180  -28.9140   23.3950 C   0  0  0  0  0  0  0  0  0  0  0  0
  -18.8940  -30.1840   23.9700 C   0  0  0  0  0  3  0  0  0  0  0  0
  -17.5880  -30.6860   24.1190 C   0  0  0  0  0  3  0  0  0  0  0  0
  -16.4870  -29.9170   23.7040 C   0  0  0  0  0  3  0  0  0  0  0  0
  -16.6960  -28.6500   23.1330 C   0  0  0  0  0  3  0  0  0  0  0  0
  -25.8800  -32.5420   23.8950 C   0  0  0  0  0  3  0  0  0  0  0  0
  -26.3900  -31.7740   25.1770 C   0  0  1  0  0  0  0  0  0  0  0  0
  -25.2940  -31.5530   26.2460 C   0  0  0  0  0  1  0  0  0  0  0  0
  -26.9610  -30.3890   24.7930 C   0  0  0  0  0  1  0  0  0  0  0  0
  -27.5510  -32.5610   25.8300 C   0  0  0  0  0  1  0  0  0  0  0  0
  -25.5830  -33.9450   24.2180 N   0  0  0  0  0  0  0  0  0  0  0  0
  -25.9190  -34.9900   23.4510 C   0  0  0  0  0  0  0  0  0  0  0  0
  -26.5830  -34.8750   22.4160 O   0  0  0  0  0  0  0  0  0  0  0  0
  -24.9970  -34.1100   25.0230 H   0  0  0  0  0  0  0  0  0  0  0  0
  -24.1990  -36.7900   23.0960 C   0  0  0  0  0  1  0  0  0  0  0  0
  -25.4440  -36.3850   23.9010 C   0  0  0  0  0  3  0  0  0  0  0  0
  -27.5910  -37.2610   24.7080 C   0  0  0  0  0  1  0  0  0  0  0  0
  -26.4830  -37.4300   23.7710 N   0  0  0  0  0  0  0  0  0  0  0  0
  -26.0860  -38.3550   23.9130 H   0  0  0  0  0  0  0  0  0  0  0  0
  1 13  1  0
  1  2  1  0
  3  5  1  0
  3  2  1  0
  4  3  1  0
  6  3  1  0
  7  9  1  0
  7  8  1  0
  8 10  1  0
  9 11  1  0
 10 12  1  0
 11 12  1  0
 12  6  1  0
 13 22  1  0
 14 22  1  0
 15 20  1  0
 16 17  1  0
 16 15  1  0
 18 17  1  0
 18 27  1  0
 18 19  1  0
 20 14  1  0
 20 19  1  0
 21 14  2  0
 22 23  1  0
 24 25  2  0
 25 44  1  0
 26 25  1  0
 26 29  1  0
 27 24  1  0
 27 28  1  0
 28 26  2  0
 29 30  1  0
 30 31  2  0
 32 35  1  0
 32 31  1  0
 33 32  2  0
 34 33  1  0
 34 29  2  0
 35 36  1  0
 36 37  1  0
 37 38  2  0
 39 38  1  0
 39 43  1  0
 40 39  2  0
 41 36  2  0
 41 40  1  0
 42 41  1  0
 44 45  1  0
 45 48  1  0
 45 47  1  0
 46 44  2  0
 49 50  1  0
 49 24  1  0
 51 49  1  0
 52 53  2  0
 52  1  1  0
 54 55  1  0
 54 53  1  0
 56 57  1  0
 56 55  2  0
 58 69  2  0
 59 57  1  0
 59 64  1  0
 60 68  1  0
 60 70  1  0
 61 67  1  0
 61 63  1  0
 62 68  1  0
 63 64  2  0
 63 62  1  0
 65 66  1  0
 65 59  2  0
 66 61  2  0
 67 60  1  0
 68 58  1  0
 70 72  2  0
 71 70  1  0
 73 71  1  0
 74 83  2  0
 74 79  1  0
 75 71  1  0
 75 79  1  0
 76 75  1  0
 77 78  1  0
 77 76  1  0
 78 74  1  0
 79 80  2  0
 80 81  1  0
 82 81  2  0
 83 82  1  0
 84 58  1  0
 84 89  1  0
 84 85  1  0
 85 88  1  1
 85 86  1  0
 87 85  1  0
 89 92  1  0
 90 94  1  0
 90 89  1  0
 91 90  2  0
 94 93  1  0
 96 94  1  0
 96 97  1  0
 96 95  1  0
M  ISO  4  14 100  22 100  56 101  57 101
M  END
>  <TORSDO>  (42) 
F 26

>  <SCORE>  (42) 
-12.022

>  <name>  (42) 
41

>  <ligand_id>  (42) 
41

>  <original_smiles>  (42) 
[H]c1c([H])c([H])c2c(c1[H])C([H])([H])C([H])([H])C([H])([H])C2([H])N([H])C(=O)C1([H])N(C(=O)C([H])(N([H])C(=O)C([H])(N([H])C([H])([H])[H])C([H])([H])[H])C(C([H])([H])[H])(C([H])([H])[H])C([H])([H])[H])C([H])([H])c2c([H])c(OC([H])([H])C([H])([H])C([H])([H])C([H])([H])C([H])([H])C([H])(C([H])([H])N([H])C(=O)N3C([H])([H])C([H])([H])C([H])([H])C([H])(n4nc(-c5c([H])c([H])c(Oc6c([H])c([H])c(F)c([H])c6F)c([H])c5[H])c(C(=O)N([H])[H])c4N([H])[H])C3([H])[H])C([H])([H])[N+]([H])([H])C([H])([H])C3([H])C([H])([H])C([H])([H])C([H])([H])C([H])([H])C3([H])[H])c([H])c([H])c2C1([H])[H]

>  <smiles>  (42) 
[H]c1c([H])c([H])c2c(c1[H])C([H])([H])C([H])([H])C([H])([H])C2([H])N([H])C(=O)C1([H])N(C(=O)C([H])(N([H])C(=O)C([H])(N([H])C([H])([H])[H])C([H])([H])[H])C(C([H])([H])[H])(C([H])([H])[H])C([H])([H])[H])C([H])([H])c2c([H])c(OC([H])([H])C([H])([H])C([H])([H])C([H])([H])C([H])([H])C([H])(C([H])([H])N([H])C(=O)N3C([H])([H])C([H])([H])C([H])([H])C([H])(n4nc(-c5c([H])c([H])c(Oc6c([H])c([H])c(F)c([H])c6F)c([H])c5[H])c(C(=O)N([H])[H])c4N([H])[H])C3([H])[H])C([H])([H])[N+]([H])([H])C([H])([H])C3([H])C([H])([H])C([H])([H])C([H])([H])C([H])([H])C3([H])[H])c([H])c([H])c2C1([H])[H]

$$$$
42:0:0
     RDKit          3D

 96103  0  0  1  0  0  0  0  0999 V2000
  -26.9710  -21.2540   18.4900 C   0  0  0  0  0  3  0  0  0  0  0  0
  -26.2660  -20.0040   19.0400 C   0  0  0  0  0  0  0  0  0  0  0  0
  -26.8480  -19.2000   19.7730 O   0  0  0  0  0  0  0  0  0  0  0  0
  -24.6150  -18.6340   17.7030 C   0  0  0  0  0  1  0  0  0  0  0  0
  -24.7970  -19.8030   18.6760 C   0  0  0  0  0  2  0  0  0  0  0  0
  -27.7630  -21.9770   19.6170 C   0  0  0  0  0  2  0  0  0  0  0  0
  -28.6870  -23.1470   19.1290 C   0  0  0  0  0  2  0  0  0  0  0  0
  -28.9410  -24.5740   19.7660 C   0  0  0  0  0  3  0  0  0  0  0  0
  -29.6210  -24.3620   22.2870 C   0  0  0  0  0  1  0  0  0  0  0  0
  -30.0620  -24.6790   20.8500 C   0  0  0  0  0  2  0  0  0  0  0  0
  -29.2700  -25.5440   18.6020 C   0  0  0  0  0  2  0  0  0  0  0  0
  -29.1570  -26.9240   18.9630 O   0  0  0  0  0  0  0  0  0  0  0  0
  -25.1170  -31.1130   23.0310 C   0  0  0  0  0  0  0  0  0  0  0  0
  -27.9030  -27.4740   19.1430 C   0  0  0  0  0  0  0  0  0  0  0  0
  -23.9170  -29.8360   21.2880 C   0  0  0  0  0  3  0  0  0  0  0  0
  -25.3800  -28.6880   19.5530 C   0  0  0  0  0  0  0  0  0  0  0  0
  -26.3660  -30.5020   20.9620 C   0  0  0  0  0  2  0  0  0  0  0  0
  -26.5280  -29.2490   20.1240 C   0  0  0  0  0  0  0  0  0  0  0  0
  -27.7910  -28.6520   19.9160 C   0  0  0  0  0  3  0  0  0  0  0  0
  -26.7270  -26.9170   18.5830 C   0  0  0  0  0  3  0  0  0  0  0  0
  -25.4740  -27.5160   18.7870 C   0  0  0  0  0  3  0  0  0  0  0  0
  -24.0730  -29.4020   19.8070 C   0  0  0  0  0  2  0  0  0  0  0  0
  -25.1550  -30.4940   21.8180 N   0  0  0  0  0  0  0  0  0  0  0  0
  -24.0640  -31.1800   23.6810 O   0  0  0  0  0  0  0  0  0  0  0  0
  -23.4630  -28.6150   22.1210 C   0  0  0  0  0  0  0  0  0  0  0  0
  -22.1830  -28.2330   21.9700 N   0  0  0  0  0  0  0  0  0  0  0  0
  -24.2540  -28.0230   22.8610 O   0  0  0  0  0  0  0  0  0  0  0  0
  -21.5960  -28.7880   21.3620 H   0  0  0  0  0  0  0  0  0  0  0  0
  -19.0890  -26.3790   22.2210 C   0  0  0  0  0  0  0  0  0  0  0  0
  -21.5390  -27.0980   22.6300 C   0  0  0  0  0  3  0  0  0  0  0  0
  -21.9320  -25.7630   21.9550 C   0  0  0  0  0  2  0  0  0  0  0  0
  -20.9460  -25.3200   20.8690 C   0  0  0  0  0  2  0  0  0  0  0  0
  -19.5430  -25.1480   21.4550 C   0  0  0  0  0  2  0  0  0  0  0  0
  -20.0260  -27.3020   22.7600 C   0  0  0  0  0  0  0  0  0  0  0  0
  -19.5500  -28.4470   23.4360 C   0  0  0  0  0  3  0  0  0  0  0  0
  -18.1700  -28.6790   23.5750 C   0  0  0  0  0  3  0  0  0  0  0  0
  -17.2470  -27.7560   23.0500 C   0  0  0  0  0  3  0  0  0  0  0  0
  -17.7070  -26.6070   22.3830 C   0  0  0  0  0  3  0  0  0  0  0  0
  -26.3810  -31.7890   23.6460 C   0  0  0  0  0  3  0  0  0  0  0  0
  -25.9850  -33.1240   24.1150 N   0  0  0  0  0  0  0  0  0  0  0  0
  -26.1660  -34.2570   23.4230 C   0  0  0  0  0  0  0  0  0  0  0  0
  -26.7620  -34.2940   22.3430 O   0  0  0  0  0  0  0  0  0  0  0  0
  -25.4440  -33.1610   24.9670 H   0  0  0  0  0  0  0  0  0  0  0  0
  -24.2500  -35.8840   23.3690 C   0  0  0  0  0  1  0  0  0  0  0  0
  -25.6010  -35.5560   24.0260 C   0  0  0  0  0  3  0  0  0  0  0  0
  -27.7060  -36.6080   24.7280 C   0  0  0  0  0  1  0  0  0  0  0  0
  -26.5130  -36.7130   23.8920 N   0  0  0  0  0  0  0  0  0  0  0  0
  -26.0340  -37.5790   24.1270 H   0  0  0  0  0  0  0  0  0  0  0  0
  -27.0260  -30.9520   24.8180 C   0  0  1  0  0  0  0  0  0  0  0  0
  -26.0140  -30.5120   25.9010 C   0  0  0  0  0  1  0  0  0  0  0  0
  -27.7070  -29.6790   24.2610 C   0  0  0  0  0  1  0  0  0  0  0  0
  -28.1340  -31.7840   25.5060 C   0  0  0  0  0  1  0  0  0  0  0  0
  -27.7700  -21.0240   17.1700 C   0  0  0  0  0  2  0  0  0  0  0  0
  -28.2470  -19.5990   16.7750 C   0  0  0  0  0  2  0  0  0  0  0  0
  -29.3450  -18.9770   17.6650 C   0  0  0  0  0  2  0  0  0  0  0  0
  -28.8420  -17.9290   18.6700 C   0  0  0  0  0  2  0  0  0  0  0  0
  -29.9640  -17.0220   19.2180 C   0  0  0  0  0  2  0  0  0  0  0  0
  -29.5500  -16.2630   20.4970 C   0  0  0  0  0  2  0  0  0  0  0  0
  -31.2530  -14.4620   20.7500 C   0  0  0  0  0  0  0  0  0  0  0  0
  -31.1000  -12.0240   20.3810 C   0  0  0  0  0  2  0  0  0  0  0  0
  -30.3870  -11.7370   19.0470 C   0  0  0  0  0  2  0  0  0  0  0  0
  -28.8550  -11.7140   19.2260 C   0  0  0  0  0  2  0  0  0  0  0  0
  -28.3240  -12.9410   20.0160 C   0  0  0  0  0  3  0  0  0  0  0  0
  -29.1610  -13.1450   21.3000 C   0  0  0  0  0  2  0  0  0  0  0  0
  -30.5700  -13.2950   20.9040 N   0  0  0  0  0  0  0  0  0  0  0  0
  -32.4100  -14.5160   20.3240 O   0  0  0  0  0  0  0  0  0  0  0  0
  -30.6630  -15.5820   21.1790 N   0  0  0  0  0  0  0  0  0  0  0  0
  -31.3510  -16.2490   21.5030 H   0  0  0  0  0  0  0  0  0  0  0  0
  -25.9150  -13.8010   20.3510 C   0  0  0  0  0  0  0  0  0  0  0  0
  -24.7360  -13.1500   20.6050 C   0  0  0  0  0  0  0  0  0  0  0  0
  -25.0660  -11.7650   20.6870 C   0  0  0  0  0  0  0  0  0  0  0  0
  -26.8940  -12.8200   20.3060 N   0  0  0  0  0  0  0  0  0  0  0  0
  -26.3760  -11.5910   20.5550 N   0  0  0  0  0  0  0  0  0  0  0  0
  -24.2010  -10.5880   20.8210 C   0  0  0  0  0  0  0  0  0  0  0  0
  -24.4460   -9.5980   21.7980 C   0  0  0  0  0  3  0  0  0  0  0  0
  -23.5880   -8.4840   21.9210 C   0  0  0  0  0  3  0  0  0  0  0  0
  -22.4680   -8.3550   21.0650 C   0  0  0  0  0  0  0  0  0  0  0  0
  -22.2430   -9.3290   20.0770 C   0  0  0  0  0  3  0  0  0  0  0  0
  -23.1020  -10.4340   19.9540 C   0  0  0  0  0  3  0  0  0  0  0  0
  -21.5980   -7.2930   21.0920 O   0  0  0  0  0  0  0  0  0  0  0  0
  -21.2660   -6.6660   22.2660 C   0  0  0  0  0  0  0  0  0  0  0  0
  -20.6220   -7.3520   23.3180 C   0  0  0  0  0  3  0  0  0  0  0  0
  -20.2320   -6.6530   24.4780 C   0  0  0  0  0  3  0  0  0  0  0  0
  -20.4820   -5.2710   24.5860 C   0  0  0  0  0  0  0  0  0  0  0  0
  -21.1200   -4.5880   23.5380 C   0  0  0  0  0  3  0  0  0  0  0  0
  -21.5100   -5.2830   22.3800 C   0  0  0  0  0  0  0  0  0  0  0  0
  -22.1060   -4.6130   21.3640 F   0  0  0  0  0  0  0  0  0  0  0  0
  -20.1020   -4.6010   25.6990 F   0  0  0  0  0  0  0  0  0  0  0  0
  -23.3700  -13.7710   20.6550 C   0  0  0  0  0  0  0  0  0  0  0  0
  -22.4850  -13.2330   21.4880 N   0  0  0  0  0  0  0  0  0  0  0  0
  -23.0900  -14.7660   19.9890 O   0  0  0  0  0  0  0  0  0  0  0  0
  -22.7200  -12.4350   22.0590 H   0  0  0  0  0  0  0  0  0  0  0  0
  -21.5660  -13.6440   21.5720 H   0  0  0  0  0  0  0  0  0  0  0  0
  -26.2170  -15.1350   20.1300 N   0  0  0  0  0  0  0  0  0  0  0  0
  -25.4970  -15.8470   20.0820 H   0  0  0  0  0  0  0  0  0  0  0  0
  -27.1090  -15.4520   19.7720 H   0  0  0  0  0  0  0  0  0  0  0  0
  1 53  1  0
  1  2  1  0
  1  6  1  0
  2  3  2  0
  4  5  1  0
  5  2  1  0
  7  6  1  0
  7  8  1  0
  8 11  1  0
  8 10  1  0
 10  9  1  0
 11 12  1  0
 12 14  1  0
 13 24  2  0
 14 19  1  0
 15 23  1  0
 15 25  1  0
 16 22  1  0
 16 18  1  0
 17 23  1  0
 18 17  1  0
 19 18  2  0
 20 21  1  0
 20 14  2  0
 21 16  2  0
 22 15  1  0
 23 13  1  0
 25 27  2  0
 26 25  1  0
 28 26  1  0
 29 38  2  0
 29 34  1  0
 30 26  1  0
 30 34  1  0
 31 30  1  0
 32 33  1  0
 32 31  1  0
 33 29  1  0
 34 35  2  0
 35 36  1  0
 37 36  2  0
 38 37  1  0
 39 13  1  0
 39 40  1  0
 39 49  1  0
 40 43  1  0
 41 45  1  0
 41 40  1  0
 42 41  2  0
 45 44  1  0
 47 45  1  0
 47 48  1  0
 47 46  1  0
 49 52  1  1
 49 50  1  0
 51 49  1  0
 54 53  1  0
 54 55  1  0
 55 56  1  0
 56 57  1  0
 57 58  1  0
 58 67  1  0
 59 65  1  0
 59 67  1  0
 60 65  1  0
 61 62  1  0
 61 60  1  0
 63 62  1  0
 63 72  1  0
 63 64  1  0
 65 64  1  0
 66 59  2  0
 67 68  1  0
 69 70  2  0
 70 89  1  0
 70 71  1  0
 71 74  1  0
 72 69  1  0
 72 73  1  0
 73 71  2  0
 74 75  1  0
 75 76  2  0
 77 80  1  0
 77 76  1  0
 78 77  2  0
 79 78  1  0
 79 74  2  0
 80 81  1  0
 81 86  2  0
 81 82  1  0
 82 83  2  0
 83 84  1  0
 84 88  1  0
 85 84  2  0
 86 85  1  0
 87 86  1  0
 89 90  1  0
 90 93  1  0
 90 92  1  0
 91 89  2  0
 94 69  1  0
 95 94  1  0
 96 94  1  0
M  ISO  4  11 101  12 101  59 100  67 100
M  END
>  <TORSDO>  (43) 
F 29

>  <SCORE>  (43) 
-5.313

>  <name>  (43) 
42

>  <ligand_id>  (43) 
42

>  <original_smiles>  (43) 
[H]c1c([H])c([H])c2c(c1[H])C([H])([H])C([H])([H])C([H])([H])C2([H])N([H])C(=O)C1([H])N(C(=O)C([H])(N([H])C(=O)C([H])(N([H])C([H])([H])[H])C([H])([H])[H])C(C([H])([H])[H])(C([H])([H])[H])C([H])([H])[H])C([H])([H])c2c([H])c(OC([H])([H])C([H])(C([H])([H])C([H])([H])[H])C([H])([H])C([H])([H])C([H])(C(=O)C([H])([H])C([H])([H])[H])C([H])([H])C([H])([H])C([H])([H])C([H])([H])C([H])([H])C([H])([H])N([H])C(=O)N3C([H])([H])C([H])([H])C([H])([H])C([H])(n4nc(-c5c([H])c([H])c(Oc6c([H])c([H])c(F)c([H])c6F)c([H])c5[H])c(C(=O)N([H])[H])c4N([H])[H])C3([H])[H])c([H])c([H])c2C1([H])[H]

>  <smiles>  (43) 
[H]c1c([H])c([H])c2c(c1[H])C([H])([H])C([H])([H])C([H])([H])C2([H])N([H])C(=O)C1([H])N(C(=O)C([H])(N([H])C(=O)C([H])(N([H])C([H])([H])[H])C([H])([H])[H])C(C([H])([H])[H])(C([H])([H])[H])C([H])([H])[H])C([H])([H])c2c([H])c(OC([H])([H])C([H])(C([H])([H])C([H])([H])[H])C([H])([H])C([H])([H])C([H])(C(=O)C([H])([H])C([H])([H])[H])C([H])([H])C([H])([H])C([H])([H])C([H])([H])C([H])([H])C([H])([H])N([H])C(=O)N3C([H])([H])C([H])([H])C([H])([H])C([H])(n4nc(-c5c([H])c([H])c(Oc6c([H])c([H])c(F)c([H])c6F)c([H])c5[H])c(C(=O)N([H])[H])c4N([H])[H])C3([H])[H])c([H])c([H])c2C1([H])[H]

$$$$
43:0:0
     RDKit          3D

 99107  0  0  1  0  0  0  0  0999 V2000
  -28.7170  -19.2060   19.4690 C   0  0  0  0  0  0  0  0  0  0  0  0
  -30.8500  -22.0090   18.6410 C   0  0  0  0  0  2  0  0  0  0  0  0
  -29.5690  -22.2370   17.8440 C   0  0  0  0  0  2  0  0  0  0  0  0
  -30.5070  -20.9150   19.6580 C   0  0  0  0  0  2  0  0  0  0  0  0
  -28.4400  -21.9040   18.8250 C   0  0  0  0  0  3  0  0  0  0  0  0
  -29.0790  -20.5980   19.4900 N   0  0  0  0  0  0  0  0  0  0  0  0
  -27.6050  -18.8930   19.0360 O   0  0  0  0  0  0  0  0  0  0  0  0
  -29.6530  -17.9230   20.0010 C   0  0  0  0  0  3  0  0  0  0  0  0
  -30.1800  -15.2240   19.5820 C   0  0  0  0  0  0  0  0  0  0  0  0
  -30.0860  -12.8340   18.7210 C   0  0  0  0  0  2  0  0  0  0  0  0
  -29.0340  -12.6790   17.5990 C   0  0  0  0  0  2  0  0  0  0  0  0
  -27.6380  -12.4170   18.1960 C   0  0  0  0  0  2  0  0  0  0  0  0
  -27.3050  -13.3790   19.3660 C   0  0  0  0  0  3  0  0  0  0  0  0
  -28.4670  -13.4890   20.3740 C   0  0  0  0  0  2  0  0  0  0  0  0
  -29.6400  -13.9390   19.6170 N   0  0  0  0  0  0  0  0  0  0  0  0
  -31.3520  -15.3270   19.2070 O   0  0  0  0  0  0  0  0  0  0  0  0
  -29.3650  -16.3740   19.7930 N   0  0  0  0  0  0  0  0  0  0  0  0
  -28.3910  -16.1450   19.9290 H   0  0  0  0  0  0  0  0  0  0  0  0
  -25.0370  -13.8950   20.4290 C   0  0  0  0  0  0  0  0  0  0  0  0
  -24.0300  -13.0910   20.8850 C   0  0  0  0  0  0  0  0  0  0  0  0
  -24.4930  -11.7480   20.7260 C   0  0  0  0  0  0  0  0  0  0  0  0
  -26.0450  -13.0410   20.0130 N   0  0  0  0  0  0  0  0  0  0  0  0
  -25.7350  -11.7410   20.2570 N   0  0  0  0  0  0  0  0  0  0  0  0
  -23.8000  -10.4710   20.9350 C   0  0  0  0  0  0  0  0  0  0  0  0
  -24.3060   -9.4910   21.8170 C   0  0  0  0  0  3  0  0  0  0  0  0
  -23.6110   -8.2800   22.0150 C   0  0  0  0  0  3  0  0  0  0  0  0
  -22.3950   -8.0400   21.3330 C   0  0  0  0  0  0  0  0  0  0  0  0
  -21.9080   -9.0070   20.4370 C   0  0  0  0  0  3  0  0  0  0  0  0
  -22.6050  -10.2100   20.2360 C   0  0  0  0  0  3  0  0  0  0  0  0
  -21.6640   -6.8820   21.4460 O   0  0  0  0  0  0  0  0  0  0  0  0
  -21.6480   -6.1500   22.6060 C   0  0  0  0  0  0  0  0  0  0  0  0
  -21.1890   -6.6950   23.8240 C   0  0  0  0  0  3  0  0  0  0  0  0
  -21.1240   -5.8860   24.9770 C   0  0  0  0  0  3  0  0  0  0  0  0
  -21.5100   -4.5330   24.9110 C   0  0  0  0  0  0  0  0  0  0  0  0
  -21.9620   -3.9880   23.6970 C   0  0  0  0  0  3  0  0  0  0  0  0
  -22.0280   -4.7930   22.5470 C   0  0  0  0  0  0  0  0  0  0  0  0
  -22.4440   -4.2590   21.3740 F   0  0  0  0  0  0  0  0  0  0  0  0
  -21.4410   -3.7540   26.0150 F   0  0  0  0  0  0  0  0  0  0  0  0
  -22.6760  -13.5380   21.3500 C   0  0  0  0  0  0  0  0  0  0  0  0
  -22.0650  -12.7940   22.2650 N   0  0  0  0  0  0  0  0  0  0  0  0
  -22.1730  -14.5820   20.9370 O   0  0  0  0  0  0  0  0  0  0  0  0
  -22.4900  -11.9490   22.6160 H   0  0  0  0  0  0  0  0  0  0  0  0
  -21.1600  -13.0710   22.6180 H   0  0  0  0  0  0  0  0  0  0  0  0
  -25.1690  -15.2750   20.3070 N   0  0  0  0  0  0  0  0  0  0  0  0
  -24.4060  -15.9010   20.5430 H   0  0  0  0  0  0  0  0  0  0  0  0
  -25.9420  -15.7480   19.8590 H   0  0  0  0  0  0  0  0  0  0  0  0
  -29.9300  -18.1400   21.5200 C   0  0  0  0  0  2  0  0  0  0  0  0
  -31.4660  -18.3030   23.5180 C   0  0  0  0  0  1  0  0  0  0  0  0
  -32.3110  -19.0540   21.2590 C   0  0  0  0  0  1  0  0  0  0  0  0
  -31.3960  -18.0650   22.0010 C   0  0  0  0  0  3  0  0  0  0  0  0
  -27.9770  -23.3770   19.5660 C   0  0  0  0  0  3  0  0  0  0  0  0
  -28.9510  -22.9280   21.8150 C   0  0  0  0  0  0  0  0  0  0  0  0
  -28.8150  -23.6830   20.7200 N   0  0  0  0  0  0  0  0  0  0  0  0
  -28.4480  -21.8080   21.9240 O   0  0  0  0  0  0  0  0  0  0  0  0
  -29.2560  -24.5940   20.7230 H   0  0  0  0  0  0  0  0  0  0  0  0
  -29.9270  -22.6240   24.1730 C   0  0  0  0  0  1  0  0  0  0  0  0
  -29.7710  -23.5420   22.9510 C   0  0  0  0  0  2  0  0  0  0  0  0
  -27.6850  -24.8470   18.7550 C   0  0  0  0  0  2  0  0  0  0  0  0
  -27.8110  -26.3300   19.2570 O   0  0  0  0  0  0  0  0  0  0  0  0
  -24.4780  -31.7510   22.9880 C   0  0  0  0  0  0  0  0  0  0  0  0
  -26.7570  -27.3230   19.3250 C   0  0  0  0  0  0  0  0  0  0  0  0
  -23.1410  -30.5160   21.3280 C   0  0  0  0  0  3  0  0  0  0  0  0
  -24.4560  -29.0840   19.6450 C   0  0  0  0  0  0  0  0  0  0  0  0
  -25.6760  -30.7900   20.9840 C   0  0  0  0  0  2  0  0  0  0  0  0
  -25.6830  -29.4620   20.2010 C   0  0  0  0  0  0  0  0  0  0  0  0
  -26.8300  -28.5950   20.0300 C   0  0  0  0  0  3  0  0  0  0  0  0
  -25.5030  -27.0660   18.7290 C   0  0  0  0  0  3  0  0  0  0  0  0
  -24.3790  -27.9030   18.8950 C   0  0  0  0  0  3  0  0  0  0  0  0
  -23.2440  -29.9750   19.8770 C   0  0  0  0  0  2  0  0  0  0  0  0
  -24.4560  -31.0350   21.8220 N   0  0  0  0  0  0  0  0  0  0  0  0
  -23.4390  -31.9830   23.6240 O   0  0  0  0  0  0  0  0  0  0  0  0
  -22.5310  -29.4240   22.2430 C   0  0  0  0  0  0  0  0  0  0  0  0
  -21.1990  -29.2450   22.1870 N   0  0  0  0  0  0  0  0  0  0  0  0
  -23.2580  -28.7410   22.9690 O   0  0  0  0  0  0  0  0  0  0  0  0
  -20.6630  -29.8490   21.5800 H   0  0  0  0  0  0  0  0  0  0  0  0
  -17.8710  -27.9360   22.7650 C   0  0  0  0  0  0  0  0  0  0  0  0
  -20.4360  -28.2380   22.9280 C   0  0  0  0  0  3  0  0  0  0  0  0
  -20.5380  -26.8520   22.2480 C   0  0  0  0  0  2  0  0  0  0  0  0
  -19.3940  -26.5750   21.2670 C   0  0  0  0  0  2  0  0  0  0  0  0
  -18.0420  -26.6440   21.9840 C   0  0  0  0  0  2  0  0  0  0  0  0
  -18.9950  -28.6920   23.1940 C   0  0  0  0  0  0  0  0  0  0  0  0
  -18.7780  -29.9030   23.8860 C   0  0  0  0  0  3  0  0  0  0  0  0
  -17.4720  -30.3600   24.1500 C   0  0  0  0  0  3  0  0  0  0  0  0
  -16.3660  -29.6000   23.7350 C   0  0  0  0  0  3  0  0  0  0  0  0
  -16.5660  -28.3890   23.0480 C   0  0  0  0  0  3  0  0  0  0  0  0
  -25.8060  -32.3260   23.5670 C   0  0  0  0  0  3  0  0  0  0  0  0
  -25.5410  -33.6980   24.0270 N   0  0  0  0  0  0  0  0  0  0  0  0
  -25.8600  -34.8080   23.3470 C   0  0  0  0  0  0  0  0  0  0  0  0
  -26.4760  -34.7810   22.2780 O   0  0  0  0  0  0  0  0  0  0  0  0
  -24.9980  -33.7930   24.8730 H   0  0  0  0  0  0  0  0  0  0  0  0
  -24.1570  -36.6550   23.2400 C   0  0  0  0  0  1  0  0  0  0  0  0
  -25.4280  -36.1600   23.9480 C   0  0  0  0  0  3  0  0  0  0  0  0
  -27.6180  -36.9360   24.7440 C   0  0  0  0  0  1  0  0  0  0  0  0
  -26.4770  -37.2010   23.8720 N   0  0  0  0  0  0  0  0  0  0  0  0
  -26.0970  -38.1130   24.1120 H   0  0  0  0  0  0  0  0  0  0  0  0
  -26.3940  -31.4560   24.7450 C   0  0  1  0  0  0  0  0  0  0  0  0
  -25.3730  -31.1570   25.8670 C   0  0  0  0  0  1  0  0  0  0  0  0
  -26.9200  -30.1020   24.2140 C   0  0  0  0  0  1  0  0  0  0  0  0
  -27.6070  -32.1810   25.3740 C   0  0  0  0  0  1  0  0  0  0  0  0
  1  6  1  0
  1  8  1  0
  2  4  1  0
  3  2  1  0
  3  5  1  0
  5  6  1  0
  5 51  1  0
  6  4  1  0
  7  1  2  0
  8 47  1  0
  9 15  1  0
  9 17  1  0
 10 15  1  0
 11 12  1  0
 11 10  1  0
 13 12  1  0
 13 22  1  0
 13 14  1  0
 15 14  1  0
 16  9  2  0
 17 18  1  0
 17  8  1  0
 19 20  2  0
 20 39  1  0
 21 20  1  0
 21 24  1  0
 22 23  1  0
 22 19  1  0
 23 21  2  0
 24 25  1  0
 25 26  2  0
 27 30  1  0
 27 26  1  0
 28 27  2  0
 29 28  1  0
 29 24  2  0
 30 31  1  0
 31 32  1  0
 32 33  2  0
 34 33  1  0
 34 38  1  0
 35 34  2  0
 36 31  2  0
 36 35  1  0
 37 36  1  0
 39 40  1  0
 40 42  1  0
 40 43  1  0
 41 39  2  0
 44 19  1  0
 44 45  1  0
 46 44  1  0
 47 50  1  0
 49 50  1  0
 50 48  1  0
 51 58  1  0
 51 53  1  0
 52 54  2  0
 52 57  1  0
 53 55  1  0
 53 52  1  0
 57 56  1  0
 58 59  1  0
 59 61  1  0
 60 71  2  0
 61 66  1  0
 62 70  1  0
 62 72  1  0
 63 69  1  0
 63 65  1  0
 64 70  1  0
 65 64  1  0
 66 65  2  0
 67 68  1  0
 67 61  2  0
 68 63  2  0
 69 62  1  0
 70 60  1  0
 72 74  2  0
 73 72  1  0
 75 73  1  0
 76 85  2  0
 76 81  1  0
 77 73  1  0
 77 81  1  0
 78 77  1  0
 79 80  1  0
 79 78  1  0
 80 76  1  0
 81 82  2  0
 82 83  1  0
 84 83  2  0
 85 84  1  0
 86 60  1  0
 86 87  1  0
 86 96  1  0
 87 90  1  0
 88 92  1  0
 88 87  1  0
 89 88  2  0
 92 91  1  0
 94 92  1  0
 94 95  1  0
 94 93  1  0
 96 99  1  1
 96 97  1  0
 98 96  1  0
M  ISO  4   9 100  17 100  58 101  59 101
M  END
>  <TORSDO>  (44) 
F 23

>  <SCORE>  (44) 
-12.666

>  <name>  (44) 
43

>  <ligand_id>  (44) 
43

>  <original_smiles>  (44) 
[H]c1c([H])c([H])c2c(c1[H])C([H])([H])C([H])([H])C([H])([H])C2([H])N([H])C(=O)C1([H])N(C(=O)C([H])(N([H])C(=O)C([H])(N([H])C([H])([H])[H])C([H])([H])[H])C(C([H])([H])[H])(C([H])([H])[H])C([H])([H])[H])C([H])([H])c2c([H])c(OC([H])([H])C([H])(N([H])C(=O)C([H])([H])C([H])([H])[H])C3([H])N(C(=O)C([H])(N([H])C(=O)N4C([H])([H])C([H])([H])C([H])([H])C([H])(n5nc(-c6c([H])c([H])c(Oc7c([H])c([H])c(F)c([H])c7F)c([H])c6[H])c(C(=O)N([H])[H])c5N([H])[H])C4([H])[H])C([H])([H])C([H])(C([H])([H])[H])C([H])([H])[H])C([H])([H])C([H])([H])C3([H])[H])c([H])c([H])c2C1([H])[H]

>  <smiles>  (44) 
[H]c1c([H])c([H])c2c(c1[H])C([H])([H])C([H])([H])C([H])([H])C2([H])N([H])C(=O)C1([H])N(C(=O)C([H])(N([H])C(=O)C([H])(N([H])C([H])([H])[H])C([H])([H])[H])C(C([H])([H])[H])(C([H])([H])[H])C([H])([H])[H])C([H])([H])c2c([H])c(OC([H])([H])C([H])(N([H])C(=O)C([H])([H])C([H])([H])[H])C3([H])N(C(=O)C([H])(N([H])C(=O)N4C([H])([H])C([H])([H])C([H])([H])C([H])(n5nc(-c6c([H])c([H])c(Oc7c([H])c([H])c(F)c([H])c7F)c([H])c6[H])c(C(=O)N([H])[H])c5N([H])[H])C4([H])[H])C([H])([H])C([H])(C([H])([H])[H])C([H])([H])[H])C([H])([H])C([H])([H])C3([H])[H])c([H])c([H])c2C1([H])[H]

$$$$
44:0:0
     RDKit          3D

 93100  0  0  1  0  0  0  0  0999 V2000
  -27.5090  -19.9530   19.3400 C   0  0  0  0  0  1  0  0  0  0  0  0
  -28.6980  -20.1880   20.2860 C   0  0  0  0  0  3  0  0  0  0  0  0
  -29.7970  -18.9460   20.0010 C   0  0  0  0  0  2  0  0  0  0  0  0
  -29.7640  -17.4440   20.7630 C   0  0  0  0  0  0  0  0  0  0  0  0
  -30.6030  -14.8770   19.9860 C   0  0  0  0  0  0  0  0  0  0  0  0
  -30.4000  -12.5770   18.9420 C   0  0  0  0  0  2  0  0  0  0  0  0
  -29.3890  -12.6070   17.7720 C   0  0  0  0  0  2  0  0  0  0  0  0
  -27.9410  -12.4250   18.2750 C   0  0  0  0  0  2  0  0  0  0  0  0
  -27.6320  -13.3170   19.5080 C   0  0  0  0  0  3  0  0  0  0  0  0
  -28.7480  -13.2300   20.5660 C   0  0  0  0  0  2  0  0  0  0  0  0
  -29.9880  -13.6360   19.8970 N   0  0  0  0  0  0  0  0  0  0  0  0
  -31.8110  -14.9400   19.7320 O   0  0  0  0  0  0  0  0  0  0  0  0
  -29.7850  -16.0330   20.0510 N   0  0  0  0  0  4  0  0  0  0  0  0
  -28.8340  -15.7300   19.9160 H   0  0  0  0  0  0  0  0  0  0  0  0
  -25.3100  -13.9430   20.3930 C   0  0  0  0  0  0  0  0  0  0  0  0
  -24.2540  -13.1860   20.8190 C   0  0  0  0  0  0  0  0  0  0  0  0
  -24.6880  -11.8270   20.7470 C   0  0  0  0  0  0  0  0  0  0  0  0
  -26.3170  -13.0460   20.0800 N   0  0  0  0  0  0  0  0  0  0  0  0
  -25.9570  -11.7680   20.3620 N   0  0  0  0  0  0  0  0  0  0  0  0
  -23.9480  -10.5760   20.9610 C   0  0  0  0  0  0  0  0  0  0  0  0
  -24.4050   -9.5940   21.8680 C   0  0  0  0  0  3  0  0  0  0  0  0
  -23.6670   -8.4100   22.0750 C   0  0  0  0  0  3  0  0  0  0  0  0
  -22.4570   -8.1970   21.3720 C   0  0  0  0  0  0  0  0  0  0  0  0
  -22.0170   -9.1670   20.4530 C   0  0  0  0  0  3  0  0  0  0  0  0
  -22.7570  -10.3430   20.2460 C   0  0  0  0  0  3  0  0  0  0  0  0
  -21.6860   -7.0670   21.4900 O   0  0  0  0  0  0  0  0  0  0  0  0
  -21.6660   -6.3230   22.6430 C   0  0  0  0  0  0  0  0  0  0  0  0
  -21.3170   -6.8910   23.8880 C   0  0  0  0  0  3  0  0  0  0  0  0
  -21.2420   -6.0750   25.0350 C   0  0  0  0  0  3  0  0  0  0  0  0
  -21.5090   -4.6970   24.9390 C   0  0  0  0  0  0  0  0  0  0  0  0
  -21.8510   -4.1290   23.6980 C   0  0  0  0  0  3  0  0  0  0  0  0
  -21.9260   -4.9410   22.5520 C   0  0  0  0  0  0  0  0  0  0  0  0
  -22.2350   -4.3860   21.3560 F   0  0  0  0  0  0  0  0  0  0  0  0
  -21.4300   -3.9120   26.0370 F   0  0  0  0  0  0  0  0  0  0  0  0
  -22.8810  -13.6870   21.1660 C   0  0  0  0  0  0  0  0  0  0  0  0
  -22.1860  -13.0060   22.0700 N   0  0  0  0  0  0  0  0  0  0  0  0
  -22.4330  -14.7170   20.6640 O   0  0  0  0  0  0  0  0  0  0  0  0
  -22.5630  -12.1800   22.5110 H   0  0  0  0  0  0  0  0  0  0  0  0
  -21.2580  -13.3160   22.3250 H   0  0  0  0  0  0  0  0  0  0  0  0
  -25.4860  -15.3140   20.2160 N   0  0  0  0  0  0  0  0  0  0  0  0
  -24.7380  -15.9770   20.3870 H   0  0  0  0  0  0  0  0  0  0  0  0
  -26.3000  -15.7370   19.7920 H   0  0  0  0  0  0  0  0  0  0  0  0
  -30.7560  -17.4830   21.9340 C   0  0  0  0  0  0  0  0  0  0  0  0
  -30.3800  -18.1250   23.0320 N   0  0  0  0  0  0  0  0  0  0  0  0
  -31.8660  -16.9650   21.8600 O   0  0  0  0  0  0  0  0  0  0  0  0
  -29.4650  -18.5490   23.0950 H   0  0  0  0  0  0  0  0  0  0  0  0
  -31.0220  -18.2150   23.8070 H   0  0  0  0  0  0  0  0  0  0  0  0
  -28.9460  -21.8330   20.6670 C   0  0  0  0  0  2  0  0  0  0  0  0
  -30.0990  -23.6250   19.2140 C   0  0  0  0  0  1  0  0  0  0  0  0
  -27.7250  -23.0830   18.6840 C   0  0  0  0  0  1  0  0  0  0  0  0
  -28.7290  -23.2920   19.8250 C   0  0  1  0  0  0  0  0  0  0  0  0
  -28.2070  -24.6960   20.5990 C   0  0  0  0  0  2  0  0  0  0  0  0
  -28.3670  -26.1760   20.1530 O   0  0  0  0  0  0  0  0  0  0  0  0
  -24.5770  -31.7500   23.1350 C   0  0  0  0  0  0  0  0  0  0  0  0
  -27.2760  -27.1090   20.1340 C   0  0  0  0  0  0  0  0  0  0  0  0
  -23.4230  -30.3420   21.4710 C   0  0  0  0  0  3  0  0  0  0  0  0
  -24.9160  -28.7930   20.0700 C   0  0  0  0  0  0  0  0  0  0  0  0
  -25.9730  -30.6610   21.3370 C   0  0  0  0  0  2  0  0  0  0  0  0
  -26.0800  -29.2720   20.6830 C   0  0  0  0  0  0  0  0  0  0  0  0
  -27.2660  -28.4490   20.6880 C   0  0  0  0  0  3  0  0  0  0  0  0
  -26.0850  -26.7160   19.4920 C   0  0  0  0  0  3  0  0  0  0  0  0
  -24.9280  -27.5280   19.4570 C   0  0  0  0  0  3  0  0  0  0  0  0
  -23.6730  -29.6690   20.0960 C   0  0  0  0  0  2  0  0  0  0  0  0
  -24.6760  -30.9380   22.0360 N   0  0  0  0  0  0  0  0  0  0  0  0
  -23.4810  -32.0130   23.6490 O   0  0  0  0  0  0  0  0  0  0  0  0
  -22.7450  -29.3220   22.4200 C   0  0  0  0  0  0  0  0  0  0  0  0
  -21.4190  -29.1420   22.2820 N   0  0  0  0  0  0  0  0  0  0  0  0
  -23.4150  -28.6940   23.2430 O   0  0  0  0  0  0  0  0  0  0  0  0
  -20.9310  -29.7040   21.5990 H   0  0  0  0  0  0  0  0  0  0  0  0
  -18.0440  -27.9050   22.7420 C   0  0  0  0  0  0  0  0  0  0  0  0
  -20.5980  -28.1930   23.0380 C   0  0  0  0  0  3  0  0  0  0  0  0
  -20.7200  -26.7630   22.4570 C   0  0  0  0  0  2  0  0  0  0  0  0
  -19.6330  -26.4360   21.4280 C   0  0  0  0  0  2  0  0  0  0  0  0
  -18.2420  -26.5630   22.0580 C   0  0  0  0  0  2  0  0  0  0  0  0
  -19.1520  -28.6780   23.1860 C   0  0  0  0  0  0  0  0  0  0  0  0
  -18.9120  -29.9330   23.7840 C   0  0  0  0  0  3  0  0  0  0  0  0
  -17.6000  -30.4190   23.9410 C   0  0  0  0  0  3  0  0  0  0  0  0
  -16.5090  -29.6440   23.5120 C   0  0  0  0  0  3  0  0  0  0  0  0
  -16.7320  -28.3890   22.9180 C   0  0  0  0  0  3  0  0  0  0  0  0
  -25.8340  -32.4060   23.7840 C   0  0  0  0  0  3  0  0  0  0  0  0
  -25.4900  -33.7950   24.1300 N   0  0  0  0  0  0  0  0  0  0  0  0
  -25.8100  -34.8680   23.3950 C   0  0  0  0  0  0  0  0  0  0  0  0
  -26.4900  -34.7940   22.3670 O   0  0  0  0  0  0  0  0  0  0  0  0
  -24.8890  -33.9240   24.9310 H   0  0  0  0  0  0  0  0  0  0  0  0
  -24.0460  -36.6320   23.0640 C   0  0  0  0  0  1  0  0  0  0  0  0
  -25.2940  -36.2410   23.8720 C   0  0  0  0  0  3  0  0  0  0  0  0
  -27.4140  -37.1540   24.7100 C   0  0  0  0  0  1  0  0  0  0  0  0
  -26.3050  -37.3160   23.7750 N   0  0  0  0  0  0  0  0  0  0  0  0
  -25.8810  -38.2260   23.9400 H   0  0  0  0  0  0  0  0  0  0  0  0
  -26.3460  -31.6330   25.0610 C   0  0  1  0  0  0  0  0  0  0  0  0
  -25.2450  -31.3710   26.1170 C   0  0  0  0  0  1  0  0  0  0  0  0
  -26.9560  -30.2670   24.6690 C   0  0  0  0  0  1  0  0  0  0  0  0
  -27.4760  -32.4390   25.7440 C   0  0  0  0  0  1  0  0  0  0  0  0
  2  1  1  0
  2 48  1  0
  3  2  1  0
  3  4  1  0
  4 43  1  0
  5 13  1  0
  6 11  1  0
  7  8  1  0
  7  6  1  0
  9  8  1  0
  9 18  1  0
  9 10  1  0
 11  5  1  0
 11 10  1  0
 12  5  2  0
 13  4  2  3
 14 13  1  0
 15 16  2  0
 16 35  1  0
 17 16  1  0
 17 20  1  0
 18 19  1  0
 18 15  1  0
 19 17  2  0
 20 21  1  0
 21 22  2  0
 23 26  1  0
 23 22  1  0
 24 23  2  0
 25 24  1  0
 25 20  2  0
 26 27  1  0
 27 28  1  0
 28 29  2  0
 30 29  1  0
 30 34  1  0
 31 30  2  0
 32 27  2  0
 32 31  1  0
 33 32  1  0
 35 36  1  0
 36 39  1  0
 36 38  1  0
 37 35  2  0
 40 41  1  0
 40 15  1  0
 42 40  1  0
 43 44  1  0
 44 46  1  0
 44 47  1  0
 45 43  2  0
 51 49  1  6
 50 51  1  0
 51 52  1  0
 51 48  1  0
 53 52  1  0
 54 65  2  0
 55 53  1  0
 55 60  1  0
 56 64  1  0
 56 66  1  0
 57 63  1  0
 57 59  1  0
 58 64  1  0
 59 60  2  0
 59 58  1  0
 61 55  2  0
 62 61  1  0
 62 57  2  0
 63 56  1  0
 64 54  1  0
 66 68  2  0
 67 66  1  0
 69 67  1  0
 70 79  2  0
 70 75  1  0
 71 67  1  0
 71 75  1  0
 72 71  1  0
 73 74  1  0
 73 72  1  0
 74 70  1  0
 75 76  2  0
 76 77  1  0
 78 77  2  0
 79 78  1  0
 80 54  1  0
 80 81  1  0
 80 90  1  0
 81 84  1  0
 82 86  1  0
 82 81  1  0
 83 82  2  0
 86 85  1  0
 88 86  1  0
 88 89  1  0
 88 87  1  0
 90 93  1  1
 90 91  1  0
 92 90  1  0
M  ISO  4   5 100  13 100  52 101  53 101
M  END
>  <TORSDO>  (45) 
F 22

>  <SCORE>  (45) 
-13.407

>  <name>  (45) 
44

>  <ligand_id>  (45) 
44

>  <original_smiles>  (45) 
[H]c1c([H])c([H])c2c(c1[H])C([H])([H])C([H])([H])C([H])([H])C2([H])N([H])C(=O)C1([H])N(C(=O)C([H])(N([H])C(=O)C([H])(N([H])C([H])([H])[H])C([H])([H])[H])C(C([H])([H])[H])(C([H])([H])[H])C([H])([H])[H])C([H])([H])c2c([H])c(OC([H])([H])C(C([H])([H])[H])(C([H])([H])[H])C([H])([H])C([H])(C([H])([H])[H])C([H])([H])C([H])(C(=O)N([H])[H])N([H])C(=O)N3C([H])([H])C([H])([H])C([H])([H])C([H])(n4nc(-c5c([H])c([H])c(Oc6c([H])c([H])c(F)c([H])c6F)c([H])c5[H])c(C(=O)N([H])[H])c4N([H])[H])C3([H])[H])c([H])c([H])c2C1([H])[H]

>  <smiles>  (45) 
[H]c1c([H])c([H])c2c(c1[H])C([H])([H])C([H])([H])C([H])([H])C2([H])N([H])C(=O)C1([H])N(C(=O)C([H])(N([H])C(=O)C([H])(N([H])C([H])([H])[H])C([H])([H])[H])C(C([H])([H])[H])(C([H])([H])[H])C([H])([H])[H])C([H])([H])c2c([H])c(OC([H])([H])C(C([H])([H])[H])(C([H])([H])[H])C([H])([H])C([H])(C([H])([H])[H])C([H])([H])C([H])(C(=O)N([H])[H])N([H])C(=O)N3C([H])([H])C([H])([H])C([H])([H])C([H])(n4nc(-c5c([H])c([H])c(Oc6c([H])c([H])c(F)c([H])c6F)c([H])c5[H])c(C(=O)N([H])[H])c4N([H])[H])C3([H])[H])c([H])c([H])c2C1([H])[H]

$$$$
45:0:0
     RDKit          3D

 88 95  0  0  1  0  0  0  0  0999 V2000
  -28.9490  -22.8910   20.2160 C   0  0  0  0  0  3  0  0  0  0  0  0
  -31.2430  -22.1560   19.3180 C   0  0  0  0  0  1  0  0  0  0  0  0
  -29.5200  -23.0270   17.6730 C   0  0  0  0  0  1  0  0  0  0  0  0
  -30.0440  -23.1030   19.1310 C   0  0  0  0  0  3  0  0  0  0  0  0
  -28.5340  -21.1500   20.1520 C   0  0  0  0  0  2  0  0  0  0  0  0
  -29.3080  -19.6180   20.6740 C   0  0  0  0  0  2  0  0  0  0  0  0
  -28.4420  -17.9590   18.8090 C   0  0  0  0  0  1  0  0  0  0  0  0
  -29.5130  -18.0200   19.9080 C   0  0  0  0  0  3  0  0  0  0  0  0
  -30.4160  -15.2380   20.2320 C   0  0  0  0  0  0  0  0  0  0  0  0
  -30.3990  -12.7990   19.3650 C   0  0  0  0  0  2  0  0  0  0  0  0
  -29.4780  -12.6910   18.1230 C   0  0  0  0  0  2  0  0  0  0  0  0
  -28.0180  -12.4340   18.5380 C   0  0  0  0  0  2  0  0  0  0  0  0
  -27.5990  -13.3380   19.7260 C   0  0  0  0  0  3  0  0  0  0  0  0
  -28.6550  -13.4080   20.8490 C   0  0  0  0  0  2  0  0  0  0  0  0
  -29.8910  -13.9170   20.2420 N   0  0  0  0  0  0  0  0  0  0  0  0
  -31.5890  -15.2940   19.8380 O   0  0  0  0  0  0  0  0  0  0  0  0
  -29.6300  -16.4640   20.4870 N   0  0  0  0  0  0  0  0  0  0  0  0
  -28.7970  -16.2200   21.0030 H   0  0  0  0  0  0  0  0  0  0  0  0
  -25.2330  -13.8990   20.4820 C   0  0  0  0  0  0  0  0  0  0  0  0
  -24.1730  -13.1250   20.8540 C   0  0  0  0  0  0  0  0  0  0  0  0
  -24.6330  -11.7720   20.8140 C   0  0  0  0  0  0  0  0  0  0  0  0
  -26.2720  -13.0210   20.2290 N   0  0  0  0  0  0  0  0  0  0  0  0
  -25.9200  -11.7330   20.4880 N   0  0  0  0  0  0  0  0  0  0  0  0
  -23.9050  -10.5120   21.0080 C   0  0  0  0  0  0  0  0  0  0  0  0
  -24.3420   -9.5460   21.9400 C   0  0  0  0  0  3  0  0  0  0  0  0
  -23.6120   -8.3510   22.1260 C   0  0  0  0  0  3  0  0  0  0  0  0
  -22.4320   -8.1160   21.3810 C   0  0  0  0  0  0  0  0  0  0  0  0
  -22.0120   -9.0730   20.4430 C   0  0  0  0  0  3  0  0  0  0  0  0
  -22.7390  -10.2600   20.2540 C   0  0  0  0  0  3  0  0  0  0  0  0
  -21.6810   -6.9710   21.4700 O   0  0  0  0  0  0  0  0  0  0  0  0
  -21.6350   -6.2270   22.6240 C   0  0  0  0  0  0  0  0  0  0  0  0
  -21.2180   -6.7840   23.8520 C   0  0  0  0  0  3  0  0  0  0  0  0
  -21.1210   -5.9660   24.9970 C   0  0  0  0  0  3  0  0  0  0  0  0
  -21.4300   -4.5970   24.9120 C   0  0  0  0  0  0  0  0  0  0  0  0
  -21.8420   -4.0410   23.6890 C   0  0  0  0  0  3  0  0  0  0  0  0
  -21.9380   -4.8540   22.5450 C   0  0  0  0  0  0  0  0  0  0  0  0
  -22.3160   -4.3110   21.3630 F   0  0  0  0  0  0  0  0  0  0  0  0
  -21.3300   -3.8090   26.0080 F   0  0  0  0  0  0  0  0  0  0  0  0
  -22.7820  -13.6080   21.1380 C   0  0  0  0  0  0  0  0  0  0  0  0
  -22.0620  -12.9100   22.0110 N   0  0  0  0  0  0  0  0  0  0  0  0
  -22.3440  -14.6370   20.6250 O   0  0  0  0  0  0  0  0  0  0  0  0
  -22.4240  -12.0710   22.4380 H   0  0  0  0  0  0  0  0  0  0  0  0
  -21.1310  -13.2210   22.2460 H   0  0  0  0  0  0  0  0  0  0  0  0
  -25.3930  -15.2710   20.3090 N   0  0  0  0  0  0  0  0  0  0  0  0
  -24.6200  -15.9180   20.4210 H   0  0  0  0  0  0  0  0  0  0  0  0
  -26.2270  -15.7160   19.9530 H   0  0  0  0  0  0  0  0  0  0  0  0
  -27.9310  -24.3590   20.1300 C   0  0  0  0  0  2  0  0  0  0  0  0
  -28.2120  -25.9590   20.2370 O   0  0  0  0  0  0  0  0  0  0  0  0
  -24.6350  -31.8580   23.2290 C   0  0  0  0  0  0  0  0  0  0  0  0
  -27.1920  -27.0270   20.1890 C   0  0  0  0  0  0  0  0  0  0  0  0
  -23.4340  -30.4570   21.5990 C   0  0  0  0  0  3  0  0  0  0  0  0
  -24.8790  -28.8600   20.1740 C   0  0  0  0  0  0  0  0  0  0  0  0
  -26.0020  -30.6740   21.4500 C   0  0  0  0  0  2  0  0  0  0  0  0
  -26.0700  -29.2750   20.7870 C   0  0  0  0  0  0  0  0  0  0  0  0
  -27.2240  -28.3770   20.7710 C   0  0  0  0  0  3  0  0  0  0  0  0
  -25.9770  -26.7560   19.5200 C   0  0  0  0  0  3  0  0  0  0  0  0
  -24.8540  -27.6180   19.5260 C   0  0  0  0  0  3  0  0  0  0  0  0
  -23.6530  -29.7660   20.2270 C   0  0  0  0  0  2  0  0  0  0  0  0
  -24.7090  -31.0230   22.1450 N   0  0  0  0  0  0  0  0  0  0  0  0
  -23.5450  -32.1540   23.7520 O   0  0  0  0  0  0  0  0  0  0  0  0
  -22.7450  -29.4610   22.5680 C   0  0  0  0  0  0  0  0  0  0  0  0
  -21.4150  -29.2890   22.4440 N   0  0  0  0  0  0  0  0  0  0  0  0
  -23.4120  -28.8410   23.3990 O   0  0  0  0  0  0  0  0  0  0  0  0
  -20.9320  -29.8370   21.7460 H   0  0  0  0  0  0  0  0  0  0  0  0
  -18.0430  -28.0680   22.9640 C   0  0  0  0  0  0  0  0  0  0  0  0
  -20.6000  -28.3520   23.2220 C   0  0  0  0  0  3  0  0  0  0  0  0
  -20.7100  -26.9150   22.6590 C   0  0  0  0  0  2  0  0  0  0  0  0
  -19.6140  -26.5790   21.6450 C   0  0  0  0  0  2  0  0  0  0  0  0
  -18.2300  -26.7180   22.2890 C   0  0  0  0  0  2  0  0  0  0  0  0
  -19.1550  -28.8420   23.3870 C   0  0  0  0  0  0  0  0  0  0  0  0
  -18.9260  -30.1040   23.9790 C   0  0  0  0  0  3  0  0  0  0  0  0
  -17.6190  -30.5970   24.1380 C   0  0  0  0  0  3  0  0  0  0  0  0
  -16.5210  -29.8220   23.7300 C   0  0  0  0  0  3  0  0  0  0  0  0
  -16.7330  -28.5560   23.1560 C   0  0  0  0  0  3  0  0  0  0  0  0
  -25.9100  -32.4970   23.8550 C   0  0  0  0  0  3  0  0  0  0  0  0
  -25.5960  -33.8990   24.1940 N   0  0  0  0  0  0  0  0  0  0  0  0
  -25.9280  -34.9580   23.4420 C   0  0  0  0  0  0  0  0  0  0  0  0
  -26.5920  -34.8600   22.4080 O   0  0  0  0  0  0  0  0  0  0  0  0
  -25.0040  -34.0530   24.9960 H   0  0  0  0  0  0  0  0  0  0  0  0
  -24.2030  -36.7600   23.1040 C   0  0  0  0  0  1  0  0  0  0  0  0
  -25.4460  -36.3490   23.9100 C   0  0  0  0  0  3  0  0  0  0  0  0
  -27.5870  -37.2220   24.7360 C   0  0  0  0  0  1  0  0  0  0  0  0
  -26.4850  -37.3970   23.7960 N   0  0  0  0  0  0  0  0  0  0  0  0
  -26.0860  -38.3230   23.9380 H   0  0  0  0  0  0  0  0  0  0  0  0
  -26.4310  -31.7290   25.1340 C   0  0  1  0  0  0  0  0  0  0  0  0
  -25.3350  -31.4900   26.1980 C   0  0  0  0  0  1  0  0  0  0  0  0
  -27.0150  -30.3460   24.7620 C   0  0  0  0  0  1  0  0  0  0  0  0
  -27.5850  -32.5230   25.7870 C   0  0  0  0  0  1  0  0  0  0  0  0
  1 47  1  0
  3  4  1  0
  4  2  1  0
  4  1  1  0
  5  1  1  0
  5  6  1  0
  8  7  1  0
  8 17  1  0
  8  6  1  0
  9 15  1  0
  9 17  1  0
 10 15  1  0
 11 12  1  0
 11 10  1  0
 13 12  1  0
 13 22  1  0
 13 14  1  0
 15 14  1  0
 16  9  2  0
 17 18  1  0
 19 20  2  0
 20 39  1  0
 21 20  1  0
 21 24  1  0
 22 19  1  0
 22 23  1  0
 23 21  2  0
 24 25  1  0
 25 26  2  0
 27 30  1  0
 27 26  1  0
 28 27  2  0
 29 28  1  0
 29 24  2  0
 30 31  1  0
 31 32  1  0
 32 33  2  0
 34 33  1  0
 34 38  1  0
 35 34  2  0
 36 31  2  0
 36 35  1  0
 37 36  1  0
 39 40  1  0
 40 43  1  0
 40 42  1  0
 41 39  2  0
 44 45  1  0
 44 19  1  0
 46 44  1  0
 47 48  1  0
 49 60  2  0
 50 48  1  0
 50 55  1  0
 51 59  1  0
 51 61  1  0
 52 58  1  0
 52 54  1  0
 53 59  1  0
 54 53  1  0
 55 54  2  0
 56 57  1  0
 56 50  2  0
 57 52  2  0
 58 51  1  0
 59 49  1  0
 61 63  2  0
 62 61  1  0
 64 62  1  0
 65 74  2  0
 65 70  1  0
 66 62  1  0
 66 70  1  0
 67 66  1  0
 68 69  1  0
 68 67  1  0
 69 65  1  0
 70 71  2  0
 71 72  1  0
 73 72  2  0
 74 73  1  0
 75 49  1  0
 75 76  1  0
 75 85  1  0
 76 79  1  0
 77 81  1  0
 77 76  1  0
 78 77  2  0
 81 80  1  0
 83 81  1  0
 83 84  1  0
 83 82  1  0
 85 88  1  1
 85 86  1  0
 87 85  1  0
M  ISO  4   9 100  17 100  47 101  48 101
M  END
>  <TORSDO>  (46) 
F 21

>  <SCORE>  (46) 
-15.356

>  <name>  (46) 
45

>  <ligand_id>  (46) 
45

>  <original_smiles>  (46) 
[H]c1c([H])c([H])c2c(c1[H])C([H])([H])C([H])([H])C([H])([H])C2([H])N([H])C(=O)C1([H])N(C(=O)C([H])(N([H])C(=O)C([H])(N([H])C([H])([H])[H])C([H])([H])[H])C(C([H])([H])[H])(C([H])([H])[H])C([H])([H])[H])C([H])([H])c2c([H])c(OC([H])([H])C([H])(C([H])([H])C([H])([H])C([H])(N([H])C(=O)N3C([H])([H])C([H])([H])C([H])([H])C([H])(n4nc(-c5c([H])c([H])c(Oc6c([H])c([H])c(F)c([H])c6F)c([H])c5[H])c(C(=O)N([H])[H])c4N([H])[H])C3([H])[H])C([H])([H])[H])C([H])(C([H])([H])[H])C([H])([H])[H])c([H])c([H])c2C1([H])[H]

>  <smiles>  (46) 
[H]c1c([H])c([H])c2c(c1[H])C([H])([H])C([H])([H])C([H])([H])C2([H])N([H])C(=O)C1([H])N(C(=O)C([H])(N([H])C(=O)C([H])(N([H])C([H])([H])[H])C([H])([H])[H])C(C([H])([H])[H])(C([H])([H])[H])C([H])([H])[H])C([H])([H])c2c([H])c(OC([H])([H])C([H])(C([H])([H])C([H])([H])C([H])(N([H])C(=O)N3C([H])([H])C([H])([H])C([H])([H])C([H])(n4nc(-c5c([H])c([H])c(Oc6c([H])c([H])c(F)c([H])c6F)c([H])c5[H])c(C(=O)N([H])[H])c4N([H])[H])C3([H])[H])C([H])([H])[H])C([H])(C([H])([H])[H])C([H])([H])[H])c([H])c([H])c2C1([H])[H]

$$$$
46:0:0
     RDKit          3D

 99106  0  0  1  0  0  0  0  0999 V2000
  -29.9480  -17.9700   20.9490 C   0  0  0  0  0  2  0  0  0  0  0  0
  -30.2860  -19.4800   20.8870 C   0  0  0  0  0  2  0  0  0  0  0  0
  -29.1890  -20.3540   20.2370 C   0  0  0  0  0  2  0  0  0  0  0  0
  -29.6310  -21.7530   20.0030 N   0  0  0  0  0  4  0  0  0  0  0  0
  -30.4690  -21.7470   19.4430 H   0  0  0  0  0  0  0  0  0  0  0  0
  -29.8590  -22.1640   20.8940 H   0  0  0  0  0  0  0  0  0  0  0  0
  -28.6070  -22.6040   19.3460 C   0  0  0  0  0  2  0  0  0  0  0  0
  -29.0160  -24.0930   19.1890 C   0  0  0  0  0  2  0  0  0  0  0  0
  -27.8330  -24.9210   18.6520 C   0  0  0  0  0  2  0  0  0  0  0  0
  -28.0010  -26.3450   18.7660 O   0  0  0  0  0  0  0  0  0  0  0  0
  -24.6800  -31.1100   22.8850 C   0  0  0  0  0  0  0  0  0  0  0  0
  -26.8470  -27.0850   18.9640 C   0  0  0  0  0  0  0  0  0  0  0  0
  -23.2560  -29.9100   21.2590 C   0  0  0  0  0  3  0  0  0  0  0  0
  -24.4930  -28.5770   19.4780 C   0  0  0  0  0  0  0  0  0  0  0  0
  -25.7420  -30.3000   20.7810 C   0  0  0  0  0  2  0  0  0  0  0  0
  -25.7260  -29.0210   19.9710 C   0  0  0  0  0  0  0  0  0  0  0  0
  -26.9050  -28.2810   19.7150 C   0  0  0  0  0  3  0  0  0  0  0  0
  -25.5910  -26.6760   18.4490 C   0  0  0  0  0  3  0  0  0  0  0  0
  -24.4210  -27.4030   18.7160 C   0  0  0  0  0  3  0  0  0  0  0  0
  -23.2750  -29.4120   19.7930 C   0  0  0  0  0  2  0  0  0  0  0  0
  -24.5850  -30.4470   21.6970 N   0  0  0  0  0  0  0  0  0  0  0  0
  -23.6800  -31.3080   23.5890 O   0  0  0  0  0  0  0  0  0  0  0  0
  -22.7290  -28.7710   22.1620 C   0  0  0  0  0  0  0  0  0  0  0  0
  -21.4300  -28.4560   22.0330 N   0  0  0  0  0  0  0  0  0  0  0  0
  -23.4850  -28.1760   22.9360 O   0  0  0  0  0  0  0  0  0  0  0  0
  -20.8770  -28.9960   21.3800 H   0  0  0  0  0  0  0  0  0  0  0  0
  -18.2520  -26.7640   22.3380 C   0  0  0  0  0  0  0  0  0  0  0  0
  -20.7230  -27.3970   22.7530 C   0  0  0  0  0  3  0  0  0  0  0  0
  -21.0720  -26.0040   22.1810 C   0  0  0  0  0  2  0  0  0  0  0  0
  -20.0870  -25.5300   21.1070 C   0  0  0  0  0  2  0  0  0  0  0  0
  -18.6650  -25.4620   21.6720 C   0  0  0  0  0  2  0  0  0  0  0  0
  -19.2190  -27.6790   22.8310 C   0  0  0  0  0  0  0  0  0  0  0  0
  -18.7820  -28.8920   23.4080 C   0  0  0  0  0  3  0  0  0  0  0  0
  -17.4100  -29.1920   23.5020 C   0  0  0  0  0  3  0  0  0  0  0  0
  -16.4570  -28.2740   23.0280 C   0  0  0  0  0  3  0  0  0  0  0  0
  -16.8780  -27.0630   22.4500 C   0  0  0  0  0  3  0  0  0  0  0  0
  -26.0400  -31.6720   23.4000 C   0  0  0  0  0  3  0  0  0  0  0  0
  -25.7800  -32.9980   23.9760 N   0  0  0  0  0  0  0  0  0  0  0  0
  -26.0460  -34.1590   23.3620 C   0  0  0  0  0  0  0  0  0  0  0  0
  -26.6090  -34.2230   22.2660 O   0  0  0  0  0  0  0  0  0  0  0  0
  -25.2770  -33.0210   24.8510 H   0  0  0  0  0  0  0  0  0  0  0  0
  -24.3240  -35.9870   23.4480 C   0  0  0  0  0  1  0  0  0  0  0  0
  -25.6190  -35.4530   24.0800 C   0  0  0  0  0  3  0  0  0  0  0  0
  -27.8270  -36.1800   24.8690 C   0  0  0  0  0  1  0  0  0  0  0  0
  -26.6570  -36.5070   24.0580 N   0  0  0  0  0  0  0  0  0  0  0  0
  -26.2790  -37.3910   24.3900 H   0  0  0  0  0  0  0  0  0  0  0  0
  -26.7420  -30.7310   24.4540 C   0  0  1  0  0  0  0  0  0  0  0  0
  -25.8060  -30.2760   25.5990 C   0  0  0  0  0  1  0  0  0  0  0  0
  -27.3020  -29.4640   23.7670 C   0  0  0  0  0  1  0  0  0  0  0  0
  -27.9500  -31.4610   25.0840 C   0  0  0  0  0  1  0  0  0  0  0  0
  -31.1950  -17.0760   21.2150 C   0  0  0  0  0  3  0  0  0  0  0  0
  -31.0710  -16.2380   22.5150 C   0  0  0  0  0  2  0  0  0  0  0  0
  -31.2800  -17.0310   23.7400 N   0  0  0  0  0  4  0  0  0  0  0  0
  -32.1660  -17.5060   23.7190 H   0  0  0  0  0  0  0  0  0  0  0  0
  -31.2820  -16.4200   24.5370 H   0  0  0  0  0  0  0  0  0  0  0  0
  -30.5480  -17.7050   23.8720 H   0  0  0  0  0  0  0  0  0  0  0  0
  -31.5770  -16.2220   19.9630 C   0  0  0  0  0  3  0  0  0  0  0  0
  -30.9960  -13.9920   18.9960 C   0  0  0  0  0  0  0  0  0  0  0  0
  -30.5790  -11.6140   18.4880 C   0  0  0  0  0  2  0  0  0  0  0  0
  -29.4760  -11.4270   17.4320 C   0  0  0  0  0  2  0  0  0  0  0  0
  -28.0910  -11.3870   18.1020 C   0  0  0  0  0  2  0  0  0  0  0  0
  -27.8710  -12.5700   19.0800 C   0  0  0  0  0  3  0  0  0  0  0  0
  -29.0720  -12.7310   20.0400 C   0  0  0  0  0  2  0  0  0  0  0  0
  -30.3060  -12.8480   19.2400 N   0  0  0  0  0  0  0  0  0  0  0  0
  -31.8610  -14.0830   18.1190 O   0  0  0  0  0  0  0  0  0  0  0  0
  -30.7620  -15.0020   19.8490 N   0  0  0  0  0  0  0  0  0  0  0  0
  -30.0530  -14.8270   20.5430 H   0  0  0  0  0  0  0  0  0  0  0  0
  -25.8030  -13.4050   20.3690 C   0  0  0  0  0  0  0  0  0  0  0  0
  -24.7110  -12.7500   20.8690 C   0  0  0  0  0  0  0  0  0  0  0  0
  -24.9100  -11.3670   20.5730 C   0  0  0  0  0  0  0  0  0  0  0  0
  -26.6120  -12.4280   19.8090 N   0  0  0  0  0  0  0  0  0  0  0  0
  -26.0860  -11.1870   19.9840 N   0  0  0  0  0  0  0  0  0  0  0  0
  -24.0260  -10.2100   20.7650 C   0  0  0  0  0  0  0  0  0  0  0  0
  -24.3460   -9.1780   21.6740 C   0  0  0  0  0  3  0  0  0  0  0  0
  -23.4720   -8.0850   21.8540 C   0  0  0  0  0  3  0  0  0  0  0  0
  -22.2600   -8.0180   21.1250 C   0  0  0  0  0  0  0  0  0  0  0  0
  -21.9570   -9.0370   20.2050 C   0  0  0  0  0  3  0  0  0  0  0  0
  -22.8310  -10.1210   20.0230 C   0  0  0  0  0  3  0  0  0  0  0  0
  -21.3620   -6.9820   21.2160 O   0  0  0  0  0  0  0  0  0  0  0  0
  -21.0750   -6.3810   22.4150 C   0  0  0  0  0  0  0  0  0  0  0  0
  -20.5630   -7.1090   23.5100 C   0  0  0  0  0  3  0  0  0  0  0  0
  -20.2170   -6.4400   24.7020 C   0  0  0  0  0  3  0  0  0  0  0  0
  -20.3730   -5.0440   24.7950 C   0  0  0  0  0  0  0  0  0  0  0  0
  -20.8780   -4.3160   23.7040 C   0  0  0  0  0  3  0  0  0  0  0  0
  -21.2250   -4.9820   22.5160 C   0  0  0  0  0  0  0  0  0  0  0  0
  -21.6910   -4.2730   21.4600 F   0  0  0  0  0  0  0  0  0  0  0  0
  -20.0330   -4.3990   25.9370 F   0  0  0  0  0  0  0  0  0  0  0  0
  -23.5020  -13.3780   21.5010 C   0  0  0  0  0  0  0  0  0  0  0  0
  -22.8780  -12.6900   22.4510 N   0  0  0  0  0  0  0  0  0  0  0  0
  -23.1300  -14.5100   21.1890 O   0  0  0  0  0  0  0  0  0  0  0  0
  -23.1930  -11.7690   22.7200 H   0  0  0  0  0  0  0  0  0  0  0  0
  -22.0750  -13.0880   22.9160 H   0  0  0  0  0  0  0  0  0  0  0  0
  -26.1710  -14.7470   20.3260 N   0  0  0  0  0  0  0  0  0  0  0  0
  -25.5690  -15.4860   20.6710 H   0  0  0  0  0  0  0  0  0  0  0  0
  -27.0050  -15.0950   19.8680 H   0  0  0  0  0  0  0  0  0  0  0  0
  -33.0820  -15.8380   19.8630 C   0  0  0  0  0  2  0  0  0  0  0  0
  -35.3970  -16.3570   18.9680 C   0  0  0  0  0  1  0  0  0  0  0  0
  -33.4900  -17.8890   18.3690 C   0  0  0  0  0  1  0  0  0  0  0  0
  -34.0670  -16.9570   19.4490 C   0  0  0  0  0  3  0  0  0  0  0  0
  2  1  1  0
  3  2  1  0
  4  3  1  0
  4  6  1  0
  5  4  1  0
  7  4  1  0
  8  7  1  0
  9 10  1  0
  9  8  1  0
 10 12  1  0
 11 22  2  0
 12 17  1  0
 13 21  1  0
 13 23  1  0
 14 20  1  0
 14 16  1  0
 15 21  1  0
 16 15  1  0
 17 16  2  0
 18 19  1  0
 18 12  2  0
 19 14  2  0
 20 13  1  0
 21 11  1  0
 23 25  2  0
 24 23  1  0
 26 24  1  0
 27 36  2  0
 27 32  1  0
 28 24  1  0
 28 32  1  0
 29 28  1  0
 30 31  1  0
 30 29  1  0
 31 27  1  0
 32 33  2  0
 33 34  1  0
 35 34  2  0
 36 35  1  0
 37 11  1  0
 37 38  1  0
 37 47  1  0
 38 41  1  0
 39 38  1  0
 39 43  1  0
 40 39  2  0
 43 42  1  0
 45 43  1  0
 45 46  1  0
 45 44  1  0
 47 50  1  1
 47 48  1  0
 49 47  1  0
 51  1  1  0
 51 52  1  0
 52 53  1  0
 53 56  1  0
 53 55  1  0
 54 53  1  0
 57 96  1  0
 57 51  1  0
 58 64  1  0
 58 66  1  0
 59 64  1  0
 60 61  1  0
 60 59  1  0
 62 61  1  0
 62 71  1  0
 62 63  1  0
 64 63  1  0
 65 58  2  0
 66 57  1  0
 66 67  1  0
 68 69  2  0
 69 88  1  0
 70 73  1  0
 70 69  1  0
 71 72  1  0
 71 68  1  0
 72 70  2  0
 73 74  1  0
 74 75  2  0
 76 79  1  0
 76 75  1  0
 77 76  2  0
 78 77  1  0
 78 73  2  0
 79 80  1  0
 80 85  2  0
 80 81  1  0
 81 82  2  0
 82 83  1  0
 83 87  1  0
 84 83  2  0
 85 84  1  0
 86 85  1  0
 88 89  1  0
 89 91  1  0
 89 92  1  0
 90 88  2  0
 93 68  1  0
 93 94  1  0
 95 93  1  0
 97 99  1  0
 98 99  1  0
 99 96  1  0
M  ISO  4   9 101  10 101  58 100  66 100
M  END
>  <TORSDO>  (47) 
F 28

>  <SCORE>  (47) 
-7.123

>  <name>  (47) 
46

>  <ligand_id>  (47) 
46

>  <original_smiles>  (47) 
[H]c1c([H])c([H])c2c(c1[H])C([H])([H])C([H])([H])C([H])([H])C2([H])N([H])C(=O)C1([H])N(C(=O)C([H])(N([H])C(=O)C([H])(N([H])C([H])([H])[H])C([H])([H])[H])C(C([H])([H])[H])(C([H])([H])[H])C([H])([H])[H])C([H])([H])c2c([H])c(OC([H])([H])C([H])([H])C([H])([H])[N+]([H])([H])C([H])([H])C([H])([H])C([H])([H])C([H])(C([H])(N([H])C(=O)N3C([H])([H])C([H])([H])C([H])([H])C([H])(n4nc(-c5c([H])c([H])c(Oc6c([H])c([H])c(F)c([H])c6F)c([H])c5[H])c(C(=O)N([H])[H])c4N([H])[H])C3([H])[H])C([H])([H])C([H])(C([H])([H])[H])C([H])([H])[H])C([H])([H])[N+]([H])([H])[H])c([H])c([H])c2C1([H])[H]

>  <smiles>  (47) 
[H]c1c([H])c([H])c2c(c1[H])C([H])([H])C([H])([H])C([H])([H])C2([H])N([H])C(=O)C1([H])N(C(=O)C([H])(N([H])C(=O)C([H])(N([H])C([H])([H])[H])C([H])([H])[H])C(C([H])([H])[H])(C([H])([H])[H])C([H])([H])[H])C([H])([H])c2c([H])c(OC([H])([H])C([H])([H])C([H])([H])[N+]([H])([H])C([H])([H])C([H])([H])C([H])([H])C([H])(C([H])(N([H])C(=O)N3C([H])([H])C([H])([H])C([H])([H])C([H])(n4nc(-c5c([H])c([H])c(Oc6c([H])c([H])c(F)c([H])c6F)c([H])c5[H])c(C(=O)N([H])[H])c4N([H])[H])C3([H])[H])C([H])([H])C([H])(C([H])([H])[H])C([H])([H])[H])C([H])([H])[N+]([H])([H])[H])c([H])c([H])c2C1([H])[H]

$$$$
47:0:0
     RDKit          3D

 85 89  0  0  1  0  0  0  0  0999 V2000
  -29.0120  -21.5490   20.4470 C   0  0  0  0  0  2  0  0  0  0  0  0
  -29.8260  -21.7440   21.3540 O   0  0  0  0  0  0  0  0  0  0  0  0
  -30.1510  -16.1430   20.2330 C   0  0  0  0  0  0  0  0  0  0  0  0
  -30.4260  -13.4850   19.4750 C   0  0  0  0  0  2  0  0  0  0  0  0
  -29.5980  -12.8560   18.3000 C   0  0  0  0  0  2  0  0  0  0  0  0
  -28.2120  -12.3880   18.7630 C   0  0  0  0  0  2  0  0  0  0  0  0
  -27.6150  -13.4130   19.7420 C   0  0  0  0  0  3  0  0  0  0  0  0
  -28.6040  -13.9120   20.8380 C   0  0  0  0  0  2  0  0  0  0  0  0
  -29.7070  -14.6870   20.1690 N   0  0  0  0  0  0  0  0  0  0  0  0
  -31.3980  -16.0340   20.1150 O   0  0  0  0  0  0  0  0  0  0  0  0
  -27.0060  -18.1710   19.5360 C   0  0  0  0  0  2  0  0  0  0  0  0
  -27.5140  -19.4670   20.0680 C   0  0  0  0  0  2  0  0  0  0  0  0
  -27.9520  -17.0920   20.0260 C   0  0  0  0  0  2  0  0  0  0  0  0
  -29.0330  -19.4950   19.8760 C   0  0  0  0  0  1  0  0  0  0  0  0
  -29.3210  -17.5930   20.2220 N   0  0  0  0  0  2  0  0  0  0  0  0
  -25.2330  -13.8940   20.4630 C   0  0  0  0  0  0  0  0  0  0  0  0
  -24.1810  -13.1050   20.8180 C   0  0  0  0  0  0  0  0  0  0  0  0
  -24.6740  -11.7640   20.8080 C   0  0  0  0  0  0  0  0  0  0  0  0
  -26.3010  -13.0440   20.2520 N   0  0  0  0  0  0  0  0  0  0  0  0
  -25.9770  -11.7510   20.5220 N   0  0  0  0  0  0  0  0  0  0  0  0
  -23.9580  -10.4970   20.9940 C   0  0  0  0  0  0  0  0  0  0  0  0
  -24.3730   -9.5460   21.9520 C   0  0  0  0  0  3  0  0  0  0  0  0
  -23.6490   -8.3480   22.1310 C   0  0  0  0  0  3  0  0  0  0  0  0
  -22.4970   -8.0910   21.3510 C   0  0  0  0  0  0  0  0  0  0  0  0
  -22.1000   -9.0300   20.3830 C   0  0  0  0  0  3  0  0  0  0  0  0
  -22.8240  -10.2200   20.2030 C   0  0  0  0  0  3  0  0  0  0  0  0
  -21.7480   -6.9420   21.4370 O   0  0  0  0  0  0  0  0  0  0  0  0
  -21.6680   -6.2210   22.6020 C   0  0  0  0  0  0  0  0  0  0  0  0
  -21.1710   -6.7870   23.7960 C   0  0  0  0  0  3  0  0  0  0  0  0
  -21.0420   -5.9910   24.9520 C   0  0  0  0  0  3  0  0  0  0  0  0
  -21.3980   -4.6300   24.9140 C   0  0  0  0  0  0  0  0  0  0  0  0
  -21.8880   -4.0630   23.7240 C   0  0  0  0  0  3  0  0  0  0  0  0
  -22.0200   -4.8560   22.5700 C   0  0  0  0  0  0  0  0  0  0  0  0
  -22.4730   -4.3000   21.4210 F   0  0  0  0  0  0  0  0  0  0  0  0
  -21.2670   -3.8630   26.0210 F   0  0  0  0  0  0  0  0  0  0  0  0
  -22.7730  -13.5690   21.0450 C   0  0  0  0  0  0  0  0  0  0  0  0
  -22.0360  -12.8870   21.9140 N   0  0  0  0  0  0  0  0  0  0  0  0
  -22.3350  -14.5760   20.4900 O   0  0  0  0  0  0  0  0  0  0  0  0
  -22.4050  -12.0740   22.3860 H   0  0  0  0  0  0  0  0  0  0  0  0
  -21.0910  -13.1830   22.1110 H   0  0  0  0  0  0  0  0  0  0  0  0
  -25.3530  -15.2620   20.2630 N   0  0  0  0  0  0  0  0  0  0  0  0
  -24.5520  -15.8790   20.3360 H   0  0  0  0  0  0  0  0  0  0  0  0
  -26.1760  -15.7180   19.8960 H   0  0  0  0  0  0  0  0  0  0  0  0
  -28.1110  -23.2970   20.0130 C   0  0  0  0  0 15  0  0  0  0  0  0
  -28.1780  -25.1680   20.3430 O   0  0  0  0  0  1  0  0  0  0  0  0
  -24.6820  -31.8150   23.1690 C   0  0  0  0  0  0  0  0  0  0  0  0
  -27.2380  -26.5020   20.2520 C   0  0  0  0  0  0  0  0  0  0  0  0
  -23.5180  -30.3960   21.5380 C   0  0  0  0  0  3  0  0  0  0  0  0
  -24.9840  -28.6920   20.1600 C   0  0  0  0  0  0  0  0  0  0  0  0
  -26.1080  -30.4700   21.4630 C   0  0  0  0  0  2  0  0  0  0  0  0
  -26.1780  -29.0050   20.8160 C   0  0  0  0  0  0  0  0  0  0  0  0
  -27.2740  -27.9470   20.8250 C   0  0  0  0  0  3  0  0  0  0  0  0
  -26.0050  -26.4690   19.5290 C   0  0  0  0  0  3  0  0  0  0  0  0
  -24.9520  -27.4520   19.4920 C   0  0  0  0  0  3  0  0  0  0  0  0
  -23.7830  -29.6690   20.1830 C   0  0  0  0  0  2  0  0  0  0  0  0
  -24.7970  -30.9330   22.1080 N   0  0  0  0  0  0  0  0  0  0  0  0
  -23.5800  -32.1270   23.6570 O   0  0  0  0  0  0  0  0  0  0  0  0
  -22.7740  -29.4480   22.5190 C   0  0  0  0  0  0  0  0  0  0  0  0
  -21.4380  -29.3110   22.3950 N   0  0  0  0  0  0  0  0  0  0  0  0
  -23.4150  -28.8290   23.3710 O   0  0  0  0  0  0  0  0  0  0  0  0
  -20.9660  -29.8590   21.6890 H   0  0  0  0  0  0  0  0  0  0  0  0
  -18.0380  -28.1210   22.9260 C   0  0  0  0  0  0  0  0  0  0  0  0
  -20.6020  -28.3830   23.1710 C   0  0  0  0  0  3  0  0  0  0  0  0
  -20.6920  -26.9470   22.6020 C   0  0  0  0  0  2  0  0  0  0  0  0
  -19.5860  -26.6290   21.5910 C   0  0  0  0  0  2  0  0  0  0  0  0
  -18.2070  -26.7750   22.2410 C   0  0  0  0  0  2  0  0  0  0  0  0
  -19.1610  -28.8830   23.3470 C   0  0  0  0  0  0  0  0  0  0  0  0
  -18.9430  -30.1380   23.9560 C   0  0  0  0  0  3  0  0  0  0  0  0
  -17.6390  -30.6330   24.1420 C   0  0  0  0  0  3  0  0  0  0  0  0
  -16.5320  -29.8710   23.7310 C   0  0  0  0  0  3  0  0  0  0  0  0
  -16.7330  -28.6150   23.1290 C   0  0  0  0  0  3  0  0  0  0  0  0
  -25.9280  -32.4860   23.8240 C   0  0  0  0  0  3  0  0  0  0  0  0
  -25.5920  -33.8910   24.1450 N   0  0  0  0  0  0  0  0  0  0  0  0
  -25.9290  -34.9600   23.4100 C   0  0  0  0  0  0  0  0  0  0  0  0
  -26.6070  -34.8670   22.3830 O   0  0  0  0  0  0  0  0  0  0  0  0
  -24.9880  -34.0340   24.9410 H   0  0  0  0  0  0  0  0  0  0  0  0
  -24.2010  -36.7670   23.0810 C   0  0  0  0  0  1  0  0  0  0  0  0
  -25.4450  -36.3490   23.8810 C   0  0  0  0  0  3  0  0  0  0  0  0
  -27.5780  -37.2440   24.7160 C   0  0  0  0  0  1  0  0  0  0  0  0
  -26.4760  -37.4060   23.7710 N   0  0  0  0  0  0  0  0  0  0  0  0
  -26.0680  -38.3260   23.9160 H   0  0  0  0  0  0  0  0  0  0  0  0
  -26.4070  -31.7490   25.1360 C   0  0  1  0  0  0  0  0  0  0  0  0
  -25.2840  -31.5370   26.1800 C   0  0  0  0  0  1  0  0  0  0  0  0
  -27.0010  -30.3610   24.8130 C   0  0  0  0  0  1  0  0  0  0  0  0
  -27.5400  -32.5590   25.8100 C   0  0  0  0  0  1  0  0  0  0  0  0
  1  2  2  0
  4  9  1  0
  5  6  1  0
  5  4  1  0
  7  6  1  0
  7 19  1  0
  7  8  1  0
  9  3  1  0
  9  8  1  0
 10  3  2  0
 11 13  1  0
 11 12  1  0
 13 15  1  0
 14 12  1  0
 15  3  1  0
 16 17  2  0
 17 36  1  0
 18 17  1  0
 18 21  1  0
 19 16  1  0
 19 20  1  0
 20 18  2  0
 21 22  1  0
 22 23  2  0
 24 27  1  0
 24 23  1  0
 25 24  2  0
 26 25  1  0
 26 21  2  0
 27 28  1  0
 28 29  1  0
 29 30  2  0
 31 30  1  0
 31 35  1  0
 32 31  2  0
 33 28  2  0
 33 32  1  0
 34 33  1  0
 36 37  1  0
 37 40  1  0
 37 39  1  0
 38 36  2  0
 41 42  1  0
 41 16  1  0
 43 41  1  0
 46 57  2  0
 47 45  1  0
 47 52  1  0
 48 56  1  0
 48 58  1  0
 49 55  1  0
 49 51  1  0
 50 56  1  0
 51 52  2  0
 51 50  1  0
 53 47  2  0
 54 53  1  0
 54 49  2  0
 55 48  1  0
 56 46  1  0
 58 60  2  0
 59 58  1  0
 61 59  1  0
 62 71  2  0
 62 67  1  0
 63 59  1  0
 63 67  1  0
 64 63  1  0
 65 66  1  0
 65 64  1  0
 66 62  1  0
 67 68  2  0
 68 69  1  0
 70 69  2  0
 71 70  1  0
 72 46  1  0
 72 73  1  0
 72 82  1  0
 73 76  1  0
 74 78  1  0
 74 73  1  0
 75 74  2  0
 78 77  1  0
 80 78  1  0
 80 81  1  0
 80 79  1  0
 82 85  1  1
 82 83  1  0
 84 82  1  0
M  ISO  4   3 100  15 100  44 101  45 101
M  END
>  <TORSDO>  (48) 
F 17

>  <SCORE>  (48) 
-16.299

>  <name>  (48) 
47

>  <ligand_id>  (48) 
47

>  <original_smiles>  (48) 
[H]c1c([H])c([H])c2c(c1[H])C([H])([H])C([H])([H])C([H])([H])C2([H])N([H])C(=O)C1([H])N(C(=O)C([H])(N([H])C(=O)C([H])(N([H])C([H])([H])[H])C([H])([H])[H])C(C([H])([H])[H])(C([H])([H])[H])C([H])([H])[H])C([H])([H])c2c([H])c(OC([H])([H])C(=O)C3([H])N(C(=O)N4C([H])([H])C([H])([H])C([H])([H])C([H])(n5nc(-c6c([H])c([H])c(Oc7c([H])c([H])c(F)c([H])c7F)c([H])c6[H])c(C(=O)N([H])[H])c5N([H])[H])C4([H])[H])C([H])([H])C([H])([H])C3([H])[H])c([H])c([H])c2C1([H])[H]

>  <smiles>  (48) 
[H]c1c([H])c([H])c2c(c1[H])C([H])([H])C([H])([H])C([H])([H])C2([H])N([H])C(=O)C1([H])N(C(=O)C([H])(N([H])C(=O)C([H])(N([H])C([H])([H])[H])C([H])([H])[H])C(C([H])([H])[H])(C([H])([H])[H])C([H])([H])[H])C([H])([H])c2c([H])c(OC([H])([H])C(=O)C3([H])N(C(=O)N4C([H])([H])C([H])([H])C([H])([H])C([H])(n5nc(-c6c([H])c([H])c(Oc7c([H])c([H])c(F)c([H])c7F)c([H])c6[H])c(C(=O)N([H])[H])c5N([H])[H])C4([H])[H])C([H])([H])C([H])([H])C3([H])[H])c([H])c([H])c2C1([H])[H]

$$$$
48:0:0
     RDKit          3D

 94101  0  0  1  0  0  0  0  0999 V2000
  -29.6710  -19.7600   20.5820 C   0  0  0  0  0  0  0  0  0  0  0  0
  -29.2880  -21.0790   19.9980 N   0  0  0  0  0  0  0  0  0  0  0  0
  -29.7580  -19.7450   21.8080 O   0  0  0  0  0  0  0  0  0  0  0  0
  -29.2780  -21.0350   18.9860 H   0  0  0  0  0  0  0  0  0  0  0  0
  -29.0730  -22.6660   20.5310 C   0  0  0  0  0  3  0  0  0  0  0  0
  -28.2280  -24.1650   19.9150 C   0  0  0  0  0  3  0  0  0  0  0  0
  -28.3340  -25.8040   20.2100 O   0  0  0  0  0  0  0  0  0  0  0  0
  -24.6260  -31.7600   23.0830 C   0  0  0  0  0  0  0  0  0  0  0  0
  -27.2980  -26.8840   20.1090 C   0  0  0  0  0  0  0  0  0  0  0  0
  -23.4730  -30.3230   21.4510 C   0  0  0  0  0  3  0  0  0  0  0  0
  -24.9600  -28.7330   20.0410 C   0  0  0  0  0  0  0  0  0  0  0  0
  -26.0370  -30.5750   21.3210 C   0  0  0  0  0  2  0  0  0  0  0  0
  -26.1370  -29.1610   20.6680 C   0  0  0  0  0  0  0  0  0  0  0  0
  -27.2970  -28.2580   20.6750 C   0  0  0  0  0  3  0  0  0  0  0  0
  -26.0860  -26.6130   19.4320 C   0  0  0  0  0  3  0  0  0  0  0  0
  -24.9580  -27.4810   19.4040 C   0  0  0  0  0  3  0  0  0  0  0  0
  -23.7220  -29.6320   20.0830 C   0  0  0  0  0  2  0  0  0  0  0  0
  -24.7330  -30.9160   22.0040 N   0  0  0  0  0  0  0  0  0  0  0  0
  -23.5260  -32.0340   23.5880 O   0  0  0  0  0  0  0  0  0  0  0  0
  -22.7850  -29.3240   22.4190 C   0  0  0  0  0  0  0  0  0  0  0  0
  -21.4550  -29.1460   22.3000 N   0  0  0  0  0  0  0  0  0  0  0  0
  -23.4570  -28.7040   23.2450 O   0  0  0  0  0  0  0  0  0  0  0  0
  -20.9680  -29.6930   21.6050 H   0  0  0  0  0  0  0  0  0  0  0  0
  -18.0800  -27.9410   22.8600 C   0  0  0  0  0  0  0  0  0  0  0  0
  -20.6450  -28.2040   23.0790 C   0  0  0  0  0  3  0  0  0  0  0  0
  -20.7370  -26.7770   22.4880 C   0  0  0  0  0  2  0  0  0  0  0  0
  -19.6160  -26.4680   21.4920 C   0  0  0  0  0  2  0  0  0  0  0  0
  -18.2450  -26.6020   22.1610 C   0  0  0  0  0  2  0  0  0  0  0  0
  -19.2070  -28.6990   23.2750 C   0  0  0  0  0  0  0  0  0  0  0  0
  -18.9960  -29.9490   23.8960 C   0  0  0  0  0  3  0  0  0  0  0  0
  -17.6960  -30.4420   24.1020 C   0  0  0  0  0  3  0  0  0  0  0  0
  -16.5820  -29.6830   23.7000 C   0  0  0  0  0  3  0  0  0  0  0  0
  -16.7780  -28.4320   23.0880 C   0  0  0  0  0  3  0  0  0  0  0  0
  -25.8770  -32.4320   23.7220 C   0  0  0  0  0  3  0  0  0  0  0  0
  -26.4090  -31.6710   24.9990 C   0  0  1  0  0  0  0  0  0  0  0  0
  -25.3170  -31.4030   26.0610 C   0  0  0  0  0  1  0  0  0  0  0  0
  -27.0340  -30.3130   24.6110 C   0  0  0  0  0  1  0  0  0  0  0  0
  -27.5330  -32.4990   25.6720 C   0  0  0  0  0  1  0  0  0  0  0  0
  -25.5190  -33.8190   24.0770 N   0  0  0  0  0  0  0  0  0  0  0  0
  -25.8300  -34.9030   23.3560 C   0  0  0  0  0  0  0  0  0  0  0  0
  -26.5090  -34.8450   22.3270 O   0  0  0  0  0  0  0  0  0  0  0  0
  -24.9350  -33.9460   24.8900 H   0  0  0  0  0  0  0  0  0  0  0  0
  -24.0580  -36.6630   23.0330 C   0  0  0  0  0  1  0  0  0  0  0  0
  -25.3050  -36.2700   23.8440 C   0  0  0  0  0  3  0  0  0  0  0  0
  -27.3980  -37.2010   24.7260 C   0  0  0  0  0  1  0  0  0  0  0  0
  -26.3090  -37.3540   23.7660 N   0  0  0  0  0  0  0  0  0  0  0  0
  -25.8760  -38.2600   23.9260 H   0  0  0  0  0  0  0  0  0  0  0  0
  -30.0340  -18.1920   19.8590 C   0  0  0  0  0  0  0  0  0  0  0  0
  -30.8510  -15.3320   20.1550 C   0  0  0  0  0  0  0  0  0  0  0  0
  -30.7560  -12.8960   19.2590 C   0  0  0  0  0  2  0  0  0  0  0  0
  -29.7950  -12.7790   18.0510 C   0  0  0  0  0  2  0  0  0  0  0  0
  -28.3570  -12.5240   18.5280 C   0  0  0  0  0  2  0  0  0  0  0  0
  -27.9670  -13.4480   19.7040 C   0  0  0  0  0  3  0  0  0  0  0  0
  -29.0510  -13.5270   20.7990 C   0  0  0  0  0  2  0  0  0  0  0  0
  -30.2800  -14.0230   20.1530 N   0  0  0  0  0  0  0  0  0  0  0  0
  -32.0290  -15.3300   19.7710 O   0  0  0  0  0  0  0  0  0  0  0  0
  -30.1210  -16.6040   20.4160 N   0  0  0  0  0  4  0  0  0  0  0  0
  -29.2840  -16.3890   20.9400 H   0  0  0  0  0  0  0  0  0  0  0  0
  -25.6280  -14.0170   20.5410 C   0  0  0  0  0  0  0  0  0  0  0  0
  -24.5650  -13.2530   20.9170 C   0  0  0  0  0  0  0  0  0  0  0  0
  -24.9980  -11.8970   20.7970 C   0  0  0  0  0  0  0  0  0  0  0  0
  -26.6480  -13.1360   20.2320 N   0  0  0  0  0  0  0  0  0  0  0  0
  -26.2780  -11.8470   20.4450 N   0  0  0  0  0  0  0  0  0  0  0  0
  -24.2420  -10.6500   20.9450 C   0  0  0  0  0  0  0  0  0  0  0  0
  -24.6310   -9.6590   21.8720 C   0  0  0  0  0  3  0  0  0  0  0  0
  -23.8740   -8.4790   22.0200 C   0  0  0  0  0  3  0  0  0  0  0  0
  -22.7110   -8.2770   21.2380 C   0  0  0  0  0  0  0  0  0  0  0  0
  -22.3370   -9.2580   20.3010 C   0  0  0  0  0  3  0  0  0  0  0  0
  -23.0950  -10.4320   20.1520 C   0  0  0  0  0  3  0  0  0  0  0  0
  -21.9280   -7.1520   21.2970 O   0  0  0  0  0  0  0  0  0  0  0  0
  -21.7830   -6.4330   22.4580 C   0  0  0  0  0  0  0  0  0  0  0  0
  -21.2320   -7.0050   23.6250 C   0  0  0  0  0  3  0  0  0  0  0  0
  -21.0340   -6.2090   24.7710 C   0  0  0  0  0  3  0  0  0  0  0  0
  -21.3750   -4.8460   24.7480 C   0  0  0  0  0  0  0  0  0  0  0  0
  -21.9160   -4.2720   23.5860 C   0  0  0  0  0  3  0  0  0  0  0  0
  -22.1150   -5.0660   22.4420 C   0  0  0  0  0  0  0  0  0  0  0  0
  -22.6160   -4.5010   21.3150 F   0  0  0  0  0  0  0  0  0  0  0  0
  -21.1750   -4.0810   25.8470 F   0  0  0  0  0  0  0  0  0  0  0  0
  -23.1940  -13.7540   21.2600 C   0  0  0  0  0  0  0  0  0  0  0  0
  -22.4900  -13.0390   22.1310 N   0  0  0  0  0  0  0  0  0  0  0  0
  -22.7640  -14.8090   20.7930 O   0  0  0  0  0  0  0  0  0  0  0  0
  -22.8630  -12.1890   22.5310 H   0  0  0  0  0  0  0  0  0  0  0  0
  -21.5640  -13.3370   22.4000 H   0  0  0  0  0  0  0  0  0  0  0  0
  -25.7930  -15.3870   20.4110 N   0  0  0  0  0  0  0  0  0  0  0  0
  -25.0020  -16.0060   20.5340 H   0  0  0  0  0  0  0  0  0  0  0  0
  -26.5870  -15.8320   19.9790 H   0  0  0  0  0  0  0  0  0  0  0  0
  -29.2590  -18.0980   18.5160 C   0  0  0  0  0  2  0  0  0  0  0  0
  -27.7580  -17.7260   18.6580 C   0  0  0  0  0  2  0  0  0  0  0  0
  -25.3710  -18.3290   19.4450 C   0  0  0  0  0  1  0  0  0  0  0  0
  -26.7770  -18.8550   19.0970 C   0  0  0  0  0  3  0  0  0  0  0  0
  -26.6850  -19.9550   18.1070 N   0  0  0  0  0  4  0  0  0  0  0  0
  -26.3250  -19.6350   17.2250 H   0  0  0  0  0  0  0  0  0  0  0  0
  -27.5780  -20.3810   17.9310 H   0  0  0  0  0  0  0  0  0  0  0  0
  -26.0640  -20.6720   18.4420 H   0  0  0  0  0  0  0  0  0  0  0  0
  1  3  2  0
  2  5  1  0
  2  1  1  0
  4  2  1  0
  6  7  1  0
  6  5  2  0
  8 19  2  0
  9  7  1  0
  9 14  1  0
 10 18  1  0
 10 20  1  0
 11 17  1  0
 11 13  1  0
 12 18  1  0
 13 14  2  0
 13 12  1  0
 15  9  2  0
 16 15  1  0
 16 11  2  0
 17 10  1  0
 18  8  1  0
 20 22  2  0
 21 20  1  0
 23 21  1  0
 24 33  2  0
 24 29  1  0
 25 21  1  0
 25 29  1  0
 26 25  1  0
 27 28  1  0
 27 26  1  0
 28 24  1  0
 29 30  2  0
 30 31  1  0
 32 31  2  0
 33 32  1  0
 34  8  1  0
 34 39  1  0
 34 35  1  0
 35 38  1  1
 35 36  1  0
 37 35  1  0
 39 42  1  0
 40 44  1  0
 40 39  1  0
 41 40  2  0
 44 43  1  0
 46 44  1  0
 46 47  1  0
 46 45  1  0
 48 57  2  3
 48  1  1  0
 49 57  1  0
 50 55  1  0
 51 52  1  0
 51 50  1  0
 53 52  1  0
 53 62  1  0
 53 54  1  0
 55 49  1  0
 55 54  1  0
 56 49  2  0
 57 58  1  0
 59 60  2  0
 60 79  1  0
 61 60  1  0
 61 64  1  0
 62 63  1  0
 62 59  1  0
 63 61  2  0
 64 65  1  0
 65 66  2  0
 67 70  1  0
 67 66  1  0
 68 67  2  0
 69 68  1  0
 69 64  2  0
 70 71  1  0
 71 72  1  0
 72 73  2  0
 74 73  1  0
 74 78  1  0
 75 74  2  0
 76 71  2  0
 76 75  1  0
 77 76  1  0
 79 80  1  0
 80 83  1  0
 80 82  1  0
 81 79  2  0
 84 85  1  0
 84 59  1  0
 86 84  1  0
 87 88  1  0
 87 48  1  0
 88 90  1  0
 90 89  1  0
 91 94  1  0
 91 90  1  0
 92 91  1  0
 93 91  1  0
M  ISO  4   6 101   7 101  49 100  57 100
M  END
>  <TORSDO>  (49) 
F 23

>  <SCORE>  (49) 
-13.980

>  <name>  (49) 
48

>  <ligand_id>  (49) 
48

>  <original_smiles>  (49) 
[H]c1c([H])c([H])c2c(c1[H])C([H])([H])C([H])([H])C([H])([H])C2([H])N([H])C(=O)C1([H])N(C(=O)C([H])(N([H])C(=O)C([H])(N([H])C([H])([H])[H])C([H])([H])[H])C(C([H])([H])[H])(C([H])([H])[H])C([H])([H])[H])C([H])([H])c2c([H])c(OC([H])([H])C([H])([H])N([H])C(=O)C([H])(N([H])C(=O)N3C([H])([H])C([H])([H])C([H])([H])C([H])(n4nc(-c5c([H])c([H])c(Oc6c([H])c([H])c(F)c([H])c6F)c([H])c5[H])c(C(=O)N([H])[H])c4N([H])[H])C3([H])[H])C([H])([H])C([H])([H])C([H])(C([H])([H])[H])[N+]([H])([H])[H])c([H])c([H])c2C1([H])[H]

>  <smiles>  (49) 
[H]c1c([H])c([H])c2c(c1[H])C([H])([H])C([H])([H])C([H])([H])C2([H])N([H])C(=O)C1([H])N(C(=O)C([H])(N([H])C(=O)C([H])(N([H])C([H])([H])[H])C([H])([H])[H])C(C([H])([H])[H])(C([H])([H])[H])C([H])([H])[H])C([H])([H])c2c([H])c(OC([H])([H])C([H])([H])N([H])C(=O)C([H])(N([H])C(=O)N3C([H])([H])C([H])([H])C([H])([H])C([H])(n4nc(-c5c([H])c([H])c(Oc6c([H])c([H])c(F)c([H])c6F)c([H])c5[H])c(C(=O)N([H])[H])c4N([H])[H])C3([H])[H])C([H])([H])C([H])([H])C([H])(C([H])([H])[H])[N+]([H])([H])[H])c([H])c([H])c2C1([H])[H]

$$$$
49:0:0
     RDKit          3D

 97104  0  0  1  0  0  0  0  0999 V2000
  -28.9830  -22.4930   20.5790 C   0  0  0  0  0  2  0  0  0  0  0  0
  -29.8850  -21.3300   20.1320 N   0  0  1  0  0  4  0  0  0  0  0  0
  -29.5940  -21.0900   19.1970 H   0  0  0  0  0  0  0  0  0  0  0  0
  -31.3290  -21.7240   20.0500 C   0  0  0  0  0  2  0  0  0  0  0  0
  -32.1160  -20.4390   17.9600 C   0  0  0  0  0  1  0  0  0  0  0  0
  -33.7550  -20.9650   19.8050 C   0  0  0  0  0  1  0  0  0  0  0  0
  -32.2860  -20.6380   19.4770 C   0  0  0  0  0  3  0  0  0  0  0  0
  -29.7190  -20.0460   20.9490 C   0  0  0  0  0  2  0  0  0  0  0  0
  -27.9990  -18.4010   20.0310 C   0  0  0  0  0  1  0  0  0  0  0  0
  -29.5140  -18.6640   20.1650 C   0  0  0  0  0  3  0  0  0  0  0  0
  -30.3960  -17.3070   22.2300 C   0  0  0  0  0  1  0  0  0  0  0  0
  -30.2850  -17.3520   20.6940 C   0  0  0  0  0  3  0  0  0  0  0  0
  -29.7190  -15.9530   20.1840 C   0  0  0  0  0  2  0  0  0  0  0  0
  -30.6110  -14.6470   20.1520 C   0  0  0  0  0  0  0  0  0  0  0  0
  -30.3780  -12.4060   19.1340 C   0  0  0  0  0  2  0  0  0  0  0  0
  -29.4050  -12.5620   17.9420 C   0  0  0  0  0  2  0  0  0  0  0  0
  -27.9370  -12.4210   18.3990 C   0  0  0  0  0  2  0  0  0  0  0  0
  -27.6170  -13.2870   19.6460 C   0  0  0  0  0  3  0  0  0  0  0  0
  -28.7000  -13.1150   20.7350 C   0  0  0  0  0  2  0  0  0  0  0  0
  -30.0070  -13.4210   20.1370 N   0  0  0  0  0  0  0  0  0  0  0  0
  -31.8010  -14.7700   19.8480 O   0  0  0  0  0  0  0  0  0  0  0  0
  -25.2470  -13.9130   20.4240 C   0  0  0  0  0  0  0  0  0  0  0  0
  -24.1800  -13.1490   20.8160 C   0  0  0  0  0  0  0  0  0  0  0  0
  -24.6290  -11.7940   20.7780 C   0  0  0  0  0  0  0  0  0  0  0  0
  -26.2770  -13.0210   20.1660 N   0  0  0  0  0  0  0  0  0  0  0  0
  -25.9130  -11.7440   20.4400 N   0  0  0  0  0  0  0  0  0  0  0  0
  -23.8970  -10.5380   20.9850 C   0  0  0  0  0  0  0  0  0  0  0  0
  -24.3350   -9.5710   21.9160 C   0  0  0  0  0  3  0  0  0  0  0  0
  -23.6030   -8.3810   22.1100 C   0  0  0  0  0  3  0  0  0  0  0  0
  -22.4190   -8.1470   21.3730 C   0  0  0  0  0  0  0  0  0  0  0  0
  -21.9990   -9.1010   20.4290 C   0  0  0  0  0  3  0  0  0  0  0  0
  -22.7320  -10.2840   20.2330 C   0  0  0  0  0  3  0  0  0  0  0  0
  -21.6590   -7.0070   21.4750 O   0  0  0  0  0  0  0  0  0  0  0  0
  -21.6140   -6.2730   22.6340 C   0  0  0  0  0  0  0  0  0  0  0  0
  -21.2030   -6.8400   23.8610 C   0  0  0  0  0  3  0  0  0  0  0  0
  -21.1050   -6.0330   25.0110 C   0  0  0  0  0  3  0  0  0  0  0  0
  -21.4100   -4.6610   24.9370 C   0  0  0  0  0  0  0  0  0  0  0  0
  -21.8130   -4.0930   23.7160 C   0  0  0  0  0  3  0  0  0  0  0  0
  -21.9120   -4.8970   22.5670 C   0  0  0  0  0  0  0  0  0  0  0  0
  -22.2810   -4.3410   21.3880 F   0  0  0  0  0  0  0  0  0  0  0  0
  -21.3080   -3.8850   26.0400 F   0  0  0  0  0  0  0  0  0  0  0  0
  -22.7930  -13.6390   21.1180 C   0  0  0  0  0  0  0  0  0  0  0  0
  -22.0780  -12.9490   22.0010 N   0  0  0  0  0  0  0  0  0  0  0  0
  -22.3510  -14.6680   20.6070 O   0  0  0  0  0  0  0  0  0  0  0  0
  -22.4460  -12.1150   22.4350 H   0  0  0  0  0  0  0  0  0  0  0  0
  -21.1480  -13.2590   22.2460 H   0  0  0  0  0  0  0  0  0  0  0  0
  -25.4230  -15.2820   20.2430 N   0  0  0  0  0  0  0  0  0  0  0  0
  -24.6740  -15.9500   20.3820 H   0  0  0  0  0  0  0  0  0  0  0  0
  -26.2760  -15.7090   19.9090 H   0  0  0  0  0  0  0  0  0  0  0  0
  -29.1410  -23.9730   19.9540 C   0  0  0  0  0  3  0  0  0  0  0  0
  -29.0640  -24.0260   18.4000 C   0  0  0  0  0  2  0  0  0  0  0  0
  -27.7500  -23.6930   17.8110 N   0  0  0  0  0  4  0  0  0  0  0  0
  -27.4620  -22.7490   17.9980 H   0  0  0  0  0  0  0  0  0  0  0  0
  -27.8130  -23.7850   16.8120 H   0  0  0  0  0  0  0  0  0  0  0  0
  -27.0290  -24.3220   18.1150 H   0  0  0  0  0  0  0  0  0  0  0  0
  -28.2150  -25.1010   20.6080 C   0  0  0  0  0  2  0  0  0  0  0  0
  -28.3950  -26.5220   20.2270 O   0  0  0  0  0  0  0  0  0  0  0  0
  -24.6060  -31.8920   23.2250 C   0  0  0  0  0  0  0  0  0  0  0  0
  -27.2620  -27.3500   20.2070 C   0  0  0  0  0  0  0  0  0  0  0  0
  -23.4160  -30.4860   21.5810 C   0  0  0  0  0  3  0  0  0  0  0  0
  -24.8830  -28.9370   20.1730 C   0  0  0  0  0  0  0  0  0  0  0  0
  -25.9550  -30.8160   21.4100 C   0  0  0  0  0  2  0  0  0  0  0  0
  -26.0470  -29.4380   20.7730 C   0  0  0  0  0  0  0  0  0  0  0  0
  -27.2400  -28.6580   20.7770 C   0  0  0  0  0  3  0  0  0  0  0  0
  -26.0770  -26.9000   19.5820 C   0  0  0  0  0  3  0  0  0  0  0  0
  -24.9000  -27.6710   19.5690 C   0  0  0  0  0  3  0  0  0  0  0  0
  -23.6420  -29.8060   20.2050 C   0  0  0  0  0  2  0  0  0  0  0  0
  -24.6780  -31.0820   22.1290 N   0  0  0  0  0  0  0  0  0  0  0  0
  -23.5190  -32.1660   23.7540 O   0  0  0  0  0  0  0  0  0  0  0  0
  -22.7540  -29.4680   22.5390 C   0  0  0  0  0  0  0  0  0  0  0  0
  -21.4270  -29.2940   22.4100 N   0  0  0  0  0  0  0  0  0  0  0  0
  -23.4300  -28.8400   23.3580 O   0  0  0  0  0  0  0  0  0  0  0  0
  -20.9410  -29.8520   21.7230 H   0  0  0  0  0  0  0  0  0  0  0  0
  -18.0470  -28.1020   22.8980 C   0  0  0  0  0  0  0  0  0  0  0  0
  -20.6050  -28.3570   23.1780 C   0  0  0  0  0  3  0  0  0  0  0  0
  -20.7080  -26.9240   22.6050 C   0  0  0  0  0  2  0  0  0  0  0  0
  -19.6090  -26.6010   21.5880 C   0  0  0  0  0  2  0  0  0  0  0  0
  -18.2250  -26.7490   22.2240 C   0  0  0  0  0  2  0  0  0  0  0  0
  -19.1660  -28.8620   23.3310 C   0  0  0  0  0  0  0  0  0  0  0  0
  -18.9480  -30.1260   23.9200 C   0  0  0  0  0  3  0  0  0  0  0  0
  -17.6450  -30.6310   24.0820 C   0  0  0  0  0  3  0  0  0  0  0  0
  -16.5400  -29.8660   23.6660 C   0  0  0  0  0  3  0  0  0  0  0  0
  -16.7420  -28.6040   23.0790 C   0  0  0  0  0  3  0  0  0  0  0  0
  -25.8840  -32.5290   23.8520 C   0  0  0  0  0  3  0  0  0  0  0  0
  -25.5700  -33.9290   24.1770 N   0  0  0  0  0  0  0  0  0  0  0  0
  -25.9100  -34.9800   23.4210 C   0  0  0  0  0  0  0  0  0  0  0  0
  -26.5900  -34.8760   22.3940 O   0  0  0  0  0  0  0  0  0  0  0  0
  -24.9730  -34.0860   24.9750 H   0  0  0  0  0  0  0  0  0  0  0  0
  -24.1880  -36.7730   23.0440 C   0  0  0  0  0  1  0  0  0  0  0  0
  -25.4170  -36.3690   23.8710 C   0  0  0  0  0  3  0  0  0  0  0  0
  -27.5430  -37.2520   24.7300 C   0  0  0  0  0  1  0  0  0  0  0  0
  -26.4520  -37.4200   23.7730 N   0  0  0  0  0  0  0  0  0  0  0  0
  -26.0450  -38.3410   23.9160 H   0  0  0  0  0  0  0  0  0  0  0  0
  -26.3950  -31.7640   25.1350 C   0  0  1  0  0  0  0  0  0  0  0  0
  -25.2960  -31.5300   26.1980 C   0  0  0  0  0  1  0  0  0  0  0  0
  -26.9860  -30.3860   24.7510 C   0  0  0  0  0  1  0  0  0  0  0  0
  -27.5380  -32.5670   25.8020 C   0  0  0  0  0  1  0  0  0  0  0  0
  2  1  1  0
  2  8  1  0
  2  3  1  6
  4  2  1  0
  5  7  1  0
  7  6  1  0
  7  4  1  0
 10  9  1  0
 10 12  1  0
 10  8  1  0
 12 11  1  0
 13 12  1  0
 14 13  1  0
 15 20  1  0
 16 17  1  0
 16 15  1  0
 18 17  1  0
 18 25  1  0
 18 19  1  0
 20 14  1  0
 20 19  1  0
 21 14  2  0
 22 23  2  0
 23 42  1  0
 24 23  1  0
 24 27  1  0
 25 22  1  0
 25 26  1  0
 26 24  2  0
 27 28  1  0
 28 29  2  0
 30 33  1  0
 30 29  1  0
 31 30  2  0
 32 31  1  0
 32 27  2  0
 33 34  1  0
 34 35  1  0
 35 36  2  0
 37 36  1  0
 37 41  1  0
 38 37  2  0
 39 34  2  0
 39 38  1  0
 40 39  1  0
 42 43  1  0
 43 46  1  0
 43 45  1  0
 44 42  2  0
 47 48  1  0
 47 22  1  0
 49 47  1  0
 50 51  1  0
 50  1  1  0
 50 56  1  0
 52 53  1  0
 52 55  1  0
 52 51  1  0
 54 52  1  0
 57 56  1  0
 58 69  2  0
 59 57  1  0
 59 64  1  0
 60 68  1  0
 60 70  1  0
 61 67  1  0
 61 63  1  0
 62 68  1  0
 63 64  2  0
 63 62  1  0
 65 59  2  0
 66 65  1  0
 66 61  2  0
 67 60  1  0
 68 58  1  0
 70 72  2  0
 71 70  1  0
 73 71  1  0
 74 83  2  0
 74 79  1  0
 75 71  1  0
 75 79  1  0
 76 75  1  0
 77 78  1  0
 77 76  1  0
 78 74  1  0
 79 80  2  0
 80 81  1  0
 82 81  2  0
 83 82  1  0
 84 58  1  0
 84 85  1  0
 84 94  1  0
 85 88  1  0
 86 90  1  0
 86 85  1  0
 87 86  2  0
 90 89  1  0
 92 90  1  0
 92 93  1  0
 92 91  1  0
 94 97  1  1
 94 95  1  0
 96 94  1  0
M  ISO  4  13 100  14 100  56 101  57 101
M  END
>  <TORSDO>  (50) 
F 27

>  <SCORE>  (50) 
-12.001

>  <name>  (50) 
49

>  <ligand_id>  (50) 
49

>  <original_smiles>  (50) 
[H]c1c([H])c([H])c2c(c1[H])C([H])([H])C([H])([H])C([H])([H])C2([H])N([H])C(=O)C1([H])N(C(=O)C([H])(N([H])C(=O)C([H])(N([H])C([H])([H])[H])C([H])([H])[H])C(C([H])([H])[H])(C([H])([H])[H])C([H])([H])[H])C([H])([H])c2c([H])c(OC([H])([H])C([H])(C([H])([H])[N+]([H])([H])[H])C([H])([H])[N+]([H])(C([H])([H])C([H])(C([H])([H])[H])C([H])([H])[H])C([H])([H])C([H])(C([H])([H])[H])C([H])(C([H])([H])[H])C([H])([H])C(=O)N3C([H])([H])C([H])([H])C([H])([H])C([H])(n4nc(-c5c([H])c([H])c(Oc6c([H])c([H])c(F)c([H])c6F)c([H])c5[H])c(C(=O)N([H])[H])c4N([H])[H])C3([H])[H])c([H])c([H])c2C1([H])[H]

>  <smiles>  (50) 
[H]c1c([H])c([H])c2c(c1[H])C([H])([H])C([H])([H])C([H])([H])C2([H])N([H])C(=O)C1([H])N(C(=O)C([H])(N([H])C(=O)C([H])(N([H])C([H])([H])[H])C([H])([H])[H])C(C([H])([H])[H])(C([H])([H])[H])C([H])([H])[H])C([H])([H])c2c([H])c(OC([H])([H])C([H])(C([H])([H])[N+]([H])([H])[H])C([H])([H])[N+]([H])(C([H])([H])C([H])(C([H])([H])[H])C([H])([H])[H])C([H])([H])C([H])(C([H])([H])[H])C([H])(C([H])([H])[H])C([H])([H])C(=O)N3C([H])([H])C([H])([H])C([H])([H])C([H])(n4nc(-c5c([H])c([H])c(Oc6c([H])c([H])c(F)c([H])c6F)c([H])c5[H])c(C(=O)N([H])[H])c4N([H])[H])C3([H])[H])c([H])c([H])c2C1([H])[H]

$$$$
50:0:0
     RDKit          3D

100108  0  0  1  0  0  0  0  0999 V2000
  -29.3460  -22.7550   20.3160 C   0  0  0  0  0  3  0  0  0  0  0  0
  -30.7350  -22.8050   20.8120 N   0  0  0  0  0  4  0  0  0  0  0  0
  -31.3850  -22.7600   20.0460 H   0  0  0  0  0  0  0  0  0  0  0  0
  -30.9180  -22.0290   21.4260 H   0  0  0  0  0  0  0  0  0  0  0  0
  -30.9140  -23.6520   21.3230 H   0  0  0  0  0  0  0  0  0  0  0  0
  -29.1320  -21.3350   19.5610 C   0  0  0  0  0  2  0  0  0  0  0  0
  -30.1720  -20.1240   19.6830 C   0  0  0  0  0  2  0  0  0  0  0  0
  -29.6930  -18.6860   20.2290 C   0  0  0  0  0  3  0  0  0  0  0  0
  -30.9120  -16.6330   23.0020 C   0  0  0  0  0  2  0  0  0  0  0  0
  -31.8840  -17.7910   23.2030 C   0  0  0  0  0  2  0  0  0  0  0  0
  -29.6290  -17.2830   22.4720 C   0  0  0  0  0  2  0  0  0  0  0  0
  -31.5790  -18.7380   22.0450 C   0  0  0  0  0  2  0  0  0  0  0  0
  -30.0680  -18.5740   21.7410 C   0  0  0  0  0  3  0  0  0  0  0  0
  -30.1810  -17.4150   19.3860 C   0  0  0  0  0  2  0  0  0  0  0  0
  -30.6910  -14.9260   19.7670 C   0  0  0  0  0  0  0  0  0  0  0  0
  -30.5270  -12.5660   19.0400 C   0  0  0  0  0  2  0  0  0  0  0  0
  -29.5560  -12.4960   17.8430 C   0  0  0  0  0  2  0  0  0  0  0  0
  -28.1030  -12.3380   18.3310 C   0  0  0  0  0  2  0  0  0  0  0  0
  -27.7340  -13.3330   19.4650 C   0  0  0  0  0  3  0  0  0  0  0  0
  -28.8280  -13.3980   20.5570 C   0  0  0  0  0  2  0  0  0  0  0  0
  -30.1010  -13.6970   19.8880 N   0  0  0  0  0  0  0  0  0  0  0  0
  -31.8400  -15.0400   19.3330 O   0  0  0  0  0  0  0  0  0  0  0  0
  -29.8920  -16.0270   19.9030 N   0  0  0  0  0  0  0  0  0  0  0  0
  -28.9610  -15.8570   20.2490 H   0  0  0  0  0  0  0  0  0  0  0  0
  -25.3760  -13.9260   20.2900 C   0  0  0  0  0  0  0  0  0  0  0  0
  -24.3310  -13.1540   20.7150 C   0  0  0  0  0  0  0  0  0  0  0  0
  -24.7940  -11.8030   20.6740 C   0  0  0  0  0  0  0  0  0  0  0  0
  -26.4120  -13.0480   20.0170 N   0  0  0  0  0  0  0  0  0  0  0  0
  -26.0700  -11.7650   20.3080 N   0  0  0  0  0  0  0  0  0  0  0  0
  -24.0820  -10.5400   20.9110 C   0  0  0  0  0  0  0  0  0  0  0  0
  -24.5130   -9.6200   21.8930 C   0  0  0  0  0  3  0  0  0  0  0  0
  -23.8010   -8.4230   22.1150 C   0  0  0  0  0  3  0  0  0  0  0  0
  -22.6430   -8.1330   21.3550 C   0  0  0  0  0  0  0  0  0  0  0  0
  -22.2300   -9.0390   20.3630 C   0  0  0  0  0  3  0  0  0  0  0  0
  -22.9420  -10.2310   20.1400 C   0  0  0  0  0  3  0  0  0  0  0  0
  -21.9030   -6.9820   21.4840 O   0  0  0  0  0  0  0  0  0  0  0  0
  -21.7910   -6.3300   22.6860 C   0  0  0  0  0  0  0  0  0  0  0  0
  -21.2840   -6.9730   23.8360 C   0  0  0  0  0  3  0  0  0  0  0  0
  -21.1220   -6.2470   25.0330 C   0  0  0  0  0  3  0  0  0  0  0  0
  -21.4550   -4.8790   25.0800 C   0  0  0  0  0  0  0  0  0  0  0  0
  -21.9550   -4.2380   23.9340 C   0  0  0  0  0  3  0  0  0  0  0  0
  -22.1190   -4.9610   22.7390 C   0  0  0  0  0  0  0  0  0  0  0  0
  -22.5820   -4.3340   21.6320 F   0  0  0  0  0  0  0  0  0  0  0  0
  -21.2920   -4.1790   26.2270 F   0  0  0  0  0  0  0  0  0  0  0  0
  -22.9460  -13.6290   21.0480 C   0  0  0  0  0  0  0  0  0  0  0  0
  -22.2750  -12.9550   21.9770 N   0  0  0  0  0  0  0  0  0  0  0  0
  -22.4710  -14.6320   20.5190 O   0  0  0  0  0  0  0  0  0  0  0  0
  -22.6790  -12.1480   22.4280 H   0  0  0  0  0  0  0  0  0  0  0  0
  -21.3440  -13.2510   22.2370 H   0  0  0  0  0  0  0  0  0  0  0  0
  -25.5270  -15.2950   20.0860 N   0  0  0  0  0  0  0  0  0  0  0  0
  -24.7630  -15.9470   20.2220 H   0  0  0  0  0  0  0  0  0  0  0  0
  -26.3420  -15.7230   19.6690 H   0  0  0  0  0  0  0  0  0  0  0  0
  -29.0050  -24.1920   19.6050 C   0  0  0  0  0  3  0  0  0  0  0  0
  -28.0640  -24.2260   18.3470 C   0  0  0  0  0  2  0  0  0  0  0  0
  -27.9280  -23.0560   17.3470 C   0  0  0  0  0  2  0  0  0  0  0  0
  -27.0330  -21.9000   17.8130 C   0  0  0  0  0  0  0  0  0  0  0  0
  -27.0310  -20.6360   16.9630 C   0  0  0  0  0  1  0  0  0  0  0  0
  -26.3810  -21.9630   18.8570 O   0  0  0  0  0  0  0  0  0  0  0  0
  -28.4950  -25.3750   20.5880 C   0  0  0  0  0  2  0  0  0  0  0  0
  -28.6080  -26.8190   20.2600 O   0  0  0  0  0  0  0  0  0  0  0  0
  -24.6070  -31.9830   23.3810 C   0  0  0  0  0  0  0  0  0  0  0  0
  -27.4620  -27.6230   20.2690 C   0  0  0  0  0  0  0  0  0  0  0  0
  -23.5160  -30.6230   21.6340 C   0  0  0  0  0  3  0  0  0  0  0  0
  -25.0650  -29.1750   20.2070 C   0  0  0  0  0  0  0  0  0  0  0  0
  -26.0450  -31.0220   21.5660 C   0  0  0  0  0  2  0  0  0  0  0  0
  -26.1910  -29.6660   20.8810 C   0  0  0  0  0  0  0  0  0  0  0  0
  -27.3940  -28.9010   20.9060 C   0  0  0  0  0  3  0  0  0  0  0  0
  -26.3200  -27.1900   19.5640 C   0  0  0  0  0  3  0  0  0  0  0  0
  -25.1350  -27.9450   19.5330 C   0  0  0  0  0  3  0  0  0  0  0  0
  -23.8050  -30.0160   20.2360 C   0  0  0  0  0  2  0  0  0  0  0  0
  -24.7400  -31.2230   22.2540 N   0  0  0  0  0  0  0  0  0  0  0  0
  -23.4970  -32.2100   23.8820 O   0  0  0  0  0  0  0  0  0  0  0  0
  -22.8410  -29.5490   22.5200 C   0  0  0  0  0  0  0  0  0  0  0  0
  -21.5240  -29.3550   22.3370 N   0  0  0  0  0  0  0  0  0  0  0  0
  -23.5020  -28.8960   23.3310 O   0  0  0  0  0  0  0  0  0  0  0  0
  -21.0510  -29.9360   21.6610 H   0  0  0  0  0  0  0  0  0  0  0  0
  -18.1390  -28.1280   22.6990 C   0  0  0  0  0  0  0  0  0  0  0  0
  -20.6920  -28.3720   23.0360 C   0  0  0  0  0  3  0  0  0  0  0  0
  -20.8120  -26.9810   22.3740 C   0  0  0  0  0  2  0  0  0  0  0  0
  -19.7290  -26.7230   21.3220 C   0  0  0  0  0  2  0  0  0  0  0  0
  -18.3340  -26.8220   21.9460 C   0  0  0  0  0  2  0  0  0  0  0  0
  -19.2470  -28.8640   23.1970 C   0  0  0  0  0  0  0  0  0  0  0  0
  -19.0150  -30.0850   23.8620 C   0  0  0  0  0  3  0  0  0  0  0  0
  -17.7050  -30.5730   24.0360 C   0  0  0  0  0  3  0  0  0  0  0  0
  -16.6100  -29.8330   23.5560 C   0  0  0  0  0  3  0  0  0  0  0  0
  -16.8290  -28.6140   22.8910 C   0  0  0  0  0  3  0  0  0  0  0  0
  -25.8460  -32.6170   24.0880 C   0  0  0  0  0  3  0  0  0  0  0  0
  -26.2800  -31.8430   25.3920 C   0  0  1  0  0  0  0  0  0  0  0  0
  -25.1170  -31.5710   26.3770 C   0  0  0  0  0  1  0  0  0  0  0  0
  -26.9110  -30.4780   25.0270 C   0  0  0  0  0  1  0  0  0  0  0  0
  -27.3660  -32.6470   26.1470 C   0  0  0  0  0  1  0  0  0  0  0  0
  -25.5170  -34.0160   24.4010 N   0  0  0  0  0  0  0  0  0  0  0  0
  -25.8910  -35.0680   23.6600 C   0  0  0  0  0  0  0  0  0  0  0  0
  -26.6170  -34.9610   22.6690 O   0  0  0  0  0  0  0  0  0  0  0  0
  -24.8800  -34.1700   25.1700 H   0  0  0  0  0  0  0  0  0  0  0  0
  -24.1740  -36.8440   23.2090 C   0  0  0  0  0  1  0  0  0  0  0  0
  -25.3740  -36.4560   24.0860 C   0  0  0  0  0  3  0  0  0  0  0  0
  -27.4660  -37.3470   25.0090 C   0  0  0  0  0  1  0  0  0  0  0  0
  -26.4080  -37.5130   24.0180 N   0  0  0  0  0  0  0  0  0  0  0  0
  -25.9910  -38.4310   24.1480 H   0  0  0  0  0  0  0  0  0  0  0  0
  1  6  1  0
  1  2  1  0
  2  5  1  0
  2  4  1  0
  3  2  1  0
  6  7  1  0
  7  8  1  0
  8 14  1  0
  8 13  1  0
  9 10  1  0
 11  9  1  0
 12 10  1  0
 13 12  1  0
 13 11  1  0
 14 23  1  0
 15 21  1  0
 15 23  1  0
 16 21  1  0
 17 18  1  0
 17 16  1  0
 19 18  1  0
 19 28  1  0
 19 20  1  0
 21 20  1  0
 22 15  2  0
 23 24  1  0
 25 26  2  0
 26 45  1  0
 27 26  1  0
 27 30  1  0
 28 25  1  0
 28 29  1  0
 29 27  2  0
 30 31  1  0
 31 32  2  0
 33 36  1  0
 33 32  1  0
 34 33  2  0
 35 34  1  0
 35 30  2  0
 36 37  1  0
 37 42  2  0
 37 38  1  0
 38 39  2  0
 39 40  1  0
 40 44  1  0
 41 40  2  0
 42 41  1  0
 43 42  1  0
 45 46  1  0
 46 49  1  0
 46 48  1  0
 47 45  2  0
 50 51  1  0
 50 25  1  0
 52 50  1  0
 53 54  1  0
 53  1  1  0
 53 59  1  0
 55 56  1  0
 55 54  1  0
 56 58  2  0
 57 56  1  0
 60 62  1  0
 60 59  1  0
 61 72  2  0
 62 67  1  0
 63 71  1  0
 63 73  1  0
 64 70  1  0
 64 66  1  0
 65 71  1  0
 66 67  2  0
 66 65  1  0
 68 62  2  0
 69 68  1  0
 69 64  2  0
 70 63  1  0
 71 61  1  0
 73 75  2  0
 74 73  1  0
 76 74  1  0
 77 86  2  0
 77 82  1  0
 78 74  1  0
 78 82  1  0
 79 78  1  0
 80 81  1  0
 80 79  1  0
 81 77  1  0
 82 83  2  0
 83 84  1  0
 85 84  2  0
 86 85  1  0
 87 61  1  0
 87 92  1  0
 87 88  1  0
 88 91  1  1
 88 89  1  0
 90 88  1  0
 92 95  1  0
 93 97  1  0
 93 92  1  0
 94 93  2  0
 97 96  1  0
 99 97  1  0
 99100  1  0
 99 98  1  0
M  ISO  4  15 100  23 100  59 101  60 101
M  END
>  <TORSDO>  (51) 
F 27

>  <SCORE>  (51) 
-8.528

>  <name>  (51) 
50

>  <ligand_id>  (51) 
50

>  <original_smiles>  (51) 
[H]c1c([H])c([H])c2c(c1[H])C([H])([H])C([H])([H])C([H])([H])C2([H])N([H])C(=O)C1([H])N(C(=O)C([H])(N([H])C(=O)C([H])(N([H])C([H])([H])[H])C([H])([H])[H])C(C([H])([H])[H])(C([H])([H])[H])C([H])([H])[H])C([H])([H])c2c([H])c(OC([H])([H])C([H])(C([H])([H])C([H])([H])C(=O)C([H])([H])[H])C([H])(C([H])([H])C([H])([H])C([H])(C([H])([H])N([H])C(=O)N3C([H])([H])C([H])([H])C([H])([H])C([H])(n4nc(-c5c([H])c([H])c(Oc6c([H])c([H])c(F)c([H])c6F)c([H])c5[H])c(C(=O)N([H])[H])c4N([H])[H])C3([H])[H])C3([H])C([H])([H])C([H])([H])C([H])([H])C3([H])[H])[N+]([H])([H])[H])c([H])c([H])c2C1([H])[H]

>  <smiles>  (51) 
[H]c1c([H])c([H])c2c(c1[H])C([H])([H])C([H])([H])C([H])([H])C2([H])N([H])C(=O)C1([H])N(C(=O)C([H])(N([H])C(=O)C([H])(N([H])C([H])([H])[H])C([H])([H])[H])C(C([H])([H])[H])(C([H])([H])[H])C([H])([H])[H])C([H])([H])c2c([H])c(OC([H])([H])C([H])(C([H])([H])C([H])([H])C(=O)C([H])([H])[H])C([H])(C([H])([H])C([H])([H])C([H])(C([H])([H])N([H])C(=O)N3C([H])([H])C([H])([H])C([H])([H])C([H])(n4nc(-c5c([H])c([H])c(Oc6c([H])c([H])c(F)c([H])c6F)c([H])c5[H])c(C(=O)N([H])[H])c4N([H])[H])C3([H])[H])C3([H])C([H])([H])C([H])([H])C([H])([H])C3([H])[H])[N+]([H])([H])[H])c([H])c([H])c2C1([H])[H]

$$$$
51:0:0
     RDKit          3D

 98105  0  0  1  0  0  0  0  0999 V2000
  -33.4790  -23.6540   21.4930 C   0  0  0  0  0  2  0  0  0  0  0  0
  -32.8580  -25.0510   21.3240 C   0  0  0  0  0  2  0  0  0  0  0  0
  -33.4540  -25.8340   20.1350 C   0  0  0  0  0  2  0  0  0  0  0  0
  -32.9060  -27.2040   19.9940 N   0  0  0  0  0  4  0  0  0  0  0  0
  -33.3950  -27.6160   19.2130 H   0  0  0  0  0  0  0  0  0  0  0  0
  -33.1450  -27.7580   20.8000 H   0  0  0  0  0  0  0  0  0  0  0  0
  -31.4540  -27.2920   19.6980 C   0  0  0  0  0  2  0  0  0  0  0  0
  -30.5970  -27.6960   20.9240 C   0  0  0  0  0  2  0  0  0  0  0  0
  -29.3520  -26.8100   21.1620 C   0  0  0  0  0  2  0  0  0  0  0  0
  -28.4430  -26.7470   20.0540 O   0  0  0  0  0  0  0  0  0  0  0  0
  -24.6090  -31.8700   23.2080 C   0  0  0  0  0  0  0  0  0  0  0  0
  -27.2850  -27.4920   20.1130 C   0  0  0  0  0  0  0  0  0  0  0  0
  -23.3970  -30.4800   21.5480 C   0  0  0  0  0  3  0  0  0  0  0  0
  -24.8580  -28.9490   20.1150 C   0  0  0  0  0  0  0  0  0  0  0  0
  -25.9030  -30.8670   21.3250 C   0  0  0  0  0  2  0  0  0  0  0  0
  -26.0010  -29.4860   20.7170 C   0  0  0  0  0  0  0  0  0  0  0  0
  -27.2100  -28.7600   20.7340 C   0  0  0  0  0  3  0  0  0  0  0  0
  -26.1320  -26.9720   19.4880 C   0  0  0  0  0  3  0  0  0  0  0  0
  -24.9170  -27.6840   19.4990 C   0  0  0  0  0  3  0  0  0  0  0  0
  -23.6030  -29.7960   20.1650 C   0  0  0  0  0  2  0  0  0  0  0  0
  -24.6570  -31.0860   22.0910 N   0  0  0  0  0  0  0  0  0  0  0  0
  -23.5310  -32.1390   23.7530 O   0  0  0  0  0  0  0  0  0  0  0  0
  -22.7430  -29.4620   22.5060 C   0  0  0  0  0  0  0  0  0  0  0  0
  -21.4160  -29.2940   22.3810 N   0  0  0  0  0  0  0  0  0  0  0  0
  -23.4220  -28.8200   23.3120 O   0  0  0  0  0  0  0  0  0  0  0  0
  -20.9350  -29.8660   21.7000 H   0  0  0  0  0  0  0  0  0  0  0  0
  -18.0310  -28.1260   22.8450 C   0  0  0  0  0  0  0  0  0  0  0  0
  -20.5870  -28.3560   23.1360 C   0  0  0  0  0  3  0  0  0  0  0  0
  -20.6800  -26.9320   22.5400 C   0  0  0  0  0  2  0  0  0  0  0  0
  -19.5820  -26.6340   21.5150 C   0  0  0  0  0  2  0  0  0  0  0  0
  -18.1980  -26.7830   22.1530 C   0  0  0  0  0  2  0  0  0  0  0  0
  -19.1530  -28.8730   23.2890 C   0  0  0  0  0  0  0  0  0  0  0  0
  -18.9460  -30.1340   23.8880 C   0  0  0  0  0  3  0  0  0  0  0  0
  -17.6460  -30.6480   24.0490 C   0  0  0  0  0  3  0  0  0  0  0  0
  -16.5370  -29.8970   23.6240 C   0  0  0  0  0  3  0  0  0  0  0  0
  -16.7300  -28.6380   23.0280 C   0  0  0  0  0  3  0  0  0  0  0  0
  -25.9010  -32.4840   23.8390 C   0  0  0  0  0  3  0  0  0  0  0  0
  -25.5940  -33.8620   24.2400 N   0  0  0  0  0  0  0  0  0  0  0  0
  -25.9010  -34.9480   23.5170 C   0  0  0  0  0  0  0  0  0  0  0  0
  -26.5500  -34.8960   22.4690 O   0  0  0  0  0  0  0  0  0  0  0  0
  -25.0370  -33.9800   25.0720 H   0  0  0  0  0  0  0  0  0  0  0  0
  -24.1480  -36.7300   23.2640 C   0  0  0  0  0  1  0  0  0  0  0  0
  -25.4060  -36.3100   24.0390 C   0  0  0  0  0  3  0  0  0  0  0  0
  -27.5530  -37.1820   24.8490 C   0  0  0  0  0  1  0  0  0  0  0  0
  -26.4220  -37.3800   23.9470 N   0  0  0  0  0  0  0  0  0  0  0  0
  -26.0110  -38.2870   24.1460 H   0  0  0  0  0  0  0  0  0  0  0  0
  -26.4480  -31.6520   25.0620 C   0  0  1  0  0  0  0  0  0  0  0  0
  -25.3800  -31.3490   26.1410 C   0  0  0  0  0  1  0  0  0  0  0  0
  -27.0250  -30.3070   24.5630 C   0  0  0  0  0  1  0  0  0  0  0  0
  -27.6130  -32.4120   25.7410 C   0  0  0  0  0  1  0  0  0  0  0  0
  -32.7820  -22.8390   22.5900 C   0  0  0  0  0  2  0  0  0  0  0  0
  -33.3960  -21.4470   22.7920 C   0  0  0  0  0  2  0  0  0  0  0  0
  -32.5820  -20.6130   23.7960 C   0  0  0  0  0  2  0  0  0  0  0  0
  -33.0780  -19.2280   23.9010 N   0  0  0  0  0  4  0  0  0  0  0  0
  -34.0530  -19.2410   24.1540 H   0  0  0  0  0  0  0  0  0  0  0  0
  -33.0030  -18.8000   22.9930 H   0  0  0  0  0  0  0  0  0  0  0  0
  -32.3500  -18.3980   24.8840 C   0  0  0  0  0  2  0  0  0  0  0  0
  -32.4930  -16.9020   24.5630 C   0  0  0  0  0  2  0  0  0  0  0  0
  -31.5410  -16.4330   23.4460 C   0  0  0  0  0  2  0  0  0  0  0  0
  -31.8560  -15.0030   22.9840 C   0  0  0  0  0  2  0  0  0  0  0  0
  -30.8630  -14.2200   20.8160 C   0  0  0  0  0  0  0  0  0  0  0  0
  -30.4160  -12.2960   19.3480 C   0  0  0  0  0  2  0  0  0  0  0  0
  -29.4680  -12.5450   18.1670 C   0  0  0  0  0  2  0  0  0  0  0  0
  -28.0050  -12.3700   18.6040 C   0  0  0  0  0  2  0  0  0  0  0  0
  -27.6690  -13.1990   19.8710 C   0  0  0  0  0  3  0  0  0  0  0  0
  -28.7090  -12.9450   20.9850 C   0  0  0  0  0  2  0  0  0  0  0  0
  -30.0590  -13.1970   20.4500 N   0  0  0  0  0  0  0  0  0  0  0  0
  -31.7530  -14.6940   20.1010 O   0  0  0  0  0  0  0  0  0  0  0  0
  -30.8050  -14.4500   22.1340 N   0  0  0  0  0  0  0  0  0  0  0  0
  -30.0730  -13.9470   22.6150 H   0  0  0  0  0  0  0  0  0  0  0  0
  -25.2650  -13.8160   20.5660 C   0  0  0  0  0  0  0  0  0  0  0  0
  -24.1880  -13.0440   20.9150 C   0  0  0  0  0  0  0  0  0  0  0  0
  -24.6420  -11.6910   20.8730 C   0  0  0  0  0  0  0  0  0  0  0  0
  -26.3080  -12.9310   20.3340 N   0  0  0  0  0  0  0  0  0  0  0  0
  -25.9330  -11.6470   20.5740 N   0  0  0  0  0  0  0  0  0  0  0  0
  -23.9090  -10.4300   21.0410 C   0  0  0  0  0  0  0  0  0  0  0  0
  -24.3630   -9.4210   21.9190 C   0  0  0  0  0  3  0  0  0  0  0  0
  -23.6290   -8.2260   22.0770 C   0  0  0  0  0  3  0  0  0  0  0  0
  -22.4270   -8.0290   21.3550 C   0  0  0  0  0  0  0  0  0  0  0  0
  -21.9920   -9.0270   20.4650 C   0  0  0  0  0  3  0  0  0  0  0  0
  -22.7270  -10.2140   20.3040 C   0  0  0  0  0  3  0  0  0  0  0  0
  -21.6620   -6.8900   21.4240 O   0  0  0  0  0  0  0  0  0  0  0  0
  -21.6840   -6.0750   22.5280 C   0  0  0  0  0  0  0  0  0  0  0  0
  -21.4010   -6.5650   23.8220 C   0  0  0  0  0  3  0  0  0  0  0  0
  -21.3650   -5.6800   24.9180 C   0  0  0  0  0  3  0  0  0  0  0  0
  -21.6040   -4.3060   24.7240 C   0  0  0  0  0  0  0  0  0  0  0  0
  -21.8810   -3.8160   23.4350 C   0  0  0  0  0  3  0  0  0  0  0  0
  -21.9190   -4.6980   22.3410 C   0  0  0  0  0  0  0  0  0  0  0  0
  -22.1660   -4.2170   21.0980 F   0  0  0  0  0  0  0  0  0  0  0  0
  -21.5630   -3.4540   25.7740 F   0  0  0  0  0  0  0  0  0  0  0  0
  -22.7910  -13.5250   21.1800 C   0  0  0  0  0  0  0  0  0  0  0  0
  -22.0520  -12.8250   22.0340 N   0  0  0  0  0  0  0  0  0  0  0  0
  -22.3600  -14.5560   20.6660 O   0  0  0  0  0  0  0  0  0  0  0  0
  -22.4090  -11.9870   22.4700 H   0  0  0  0  0  0  0  0  0  0  0  0
  -21.1130  -13.1290   22.2510 H   0  0  0  0  0  0  0  0  0  0  0  0
  -25.4390  -15.1880   20.4080 N   0  0  0  0  0  0  0  0  0  0  0  0
  -24.6790  -15.8490   20.5260 H   0  0  0  0  0  0  0  0  0  0  0  0
  -26.3030  -15.6250   20.1100 H   0  0  0  0  0  0  0  0  0  0  0  0
  1 51  1  0
  2  1  1  0
  3  2  1  0
  4  3  1  0
  4  6  1  0
  5  4  1  0
  7  4  1  0
  7  8  1  0
  8  9  1  0
 10 12  1  0
 10  9  1  0
 11 22  2  0
 12 17  1  0
 13 21  1  0
 13 23  1  0
 14 20  1  0
 14 16  1  0
 15 21  1  0
 16 17  2  0
 16 15  1  0
 18 19  1  0
 18 12  2  0
 19 14  2  0
 20 13  1  0
 21 11  1  0
 23 25  2  0
 24 23  1  0
 26 24  1  0
 27 36  2  0
 27 32  1  0
 28 24  1  0
 28 32  1  0
 29 28  1  0
 30 31  1  0
 30 29  1  0
 31 27  1  0
 32 33  2  0
 33 34  1  0
 35 34  2  0
 36 35  1  0
 37 11  1  0
 37 38  1  0
 37 47  1  0
 38 41  1  0
 39 43  1  0
 39 38  1  0
 40 39  2  0
 43 42  1  0
 45 43  1  0
 45 46  1  0
 45 44  1  0
 47 50  1  1
 47 48  1  0
 49 47  1  0
 51 52  1  0
 52 53  1  0
 53 54  1  0
 54 55  1  0
 54 57  1  0
 56 54  1  0
 58 57  1  0
 59 58  1  0
 60 59  1  0
 61 69  1  0
 62 67  1  0
 63 64  1  0
 63 62  1  0
 65 64  1  0
 65 74  1  0
 65 66  1  0
 67 61  1  0
 67 66  1  0
 68 61  2  0
 69 70  1  0
 69 60  1  0
 71 72  2  0
 72 91  1  0
 73 72  1  0
 73 76  1  0
 74 71  1  0
 74 75  1  0
 75 73  2  0
 76 77  1  0
 77 78  2  0
 79 82  1  0
 79 78  1  0
 80 79  2  0
 81 80  1  0
 81 76  2  0
 82 83  1  0
 83 84  1  0
 84 85  2  0
 86 85  1  0
 86 90  1  0
 87 86  2  0
 88 83  2  0
 88 87  1  0
 89 88  1  0
 91 92  1  0
 92 95  1  0
 92 94  1  0
 93 91  2  0
 96 97  1  0
 96 71  1  0
 98 96  1  0
M  ISO  4   9 101  10 101  61 100  69 100
M  END
>  <TORSDO>  (52) 
F 30

>  <SCORE>  (52) 
10.067

>  <name>  (52) 
51

>  <ligand_id>  (52) 
51

>  <original_smiles>  (52) 
[H]c1c([H])c([H])c2c(c1[H])C([H])([H])C([H])([H])C([H])([H])C2([H])N([H])C(=O)C1([H])N(C(=O)C([H])(N([H])C(=O)C([H])(N([H])C([H])([H])[H])C([H])([H])[H])C(C([H])([H])[H])(C([H])([H])[H])C([H])([H])[H])C([H])([H])c2c([H])c(OC([H])([H])C([H])([H])C([H])([H])[N+]([H])([H])C([H])([H])C([H])([H])C([H])([H])C([H])([H])C([H])([H])C([H])([H])[N+]([H])([H])C([H])([H])C([H])([H])C([H])([H])C([H])([H])N([H])C(=O)N3C([H])([H])C([H])([H])C([H])([H])C([H])(n4nc(-c5c([H])c([H])c(Oc6c([H])c([H])c(F)c([H])c6F)c([H])c5[H])c(C(=O)N([H])[H])c4N([H])[H])C3([H])[H])c([H])c([H])c2C1([H])[H]

>  <smiles>  (52) 
[H]c1c([H])c([H])c2c(c1[H])C([H])([H])C([H])([H])C([H])([H])C2([H])N([H])C(=O)C1([H])N(C(=O)C([H])(N([H])C(=O)C([H])(N([H])C([H])([H])[H])C([H])([H])[H])C(C([H])([H])[H])(C([H])([H])[H])C([H])([H])[H])C([H])([H])c2c([H])c(OC([H])([H])C([H])([H])C([H])([H])[N+]([H])([H])C([H])([H])C([H])([H])C([H])([H])C([H])([H])C([H])([H])C([H])([H])[N+]([H])([H])C([H])([H])C([H])([H])C([H])([H])C([H])([H])N([H])C(=O)N3C([H])([H])C([H])([H])C([H])([H])C([H])(n4nc(-c5c([H])c([H])c(Oc6c([H])c([H])c(F)c([H])c6F)c([H])c5[H])c(C(=O)N([H])[H])c4N([H])[H])C3([H])[H])c([H])c([H])c2C1([H])[H]

$$$$
52:0:0
     RDKit          3D

105113  0  0  1  0  0  0  0  0999 V2000
  -30.2800  -20.9560   19.4640 C   0  0  0  0  0  0  0  0  0  0  0  0
  -30.2970  -22.0330   20.5960 C   0  0  0  0  0  0  0  0  0  0  0  0
  -29.5170  -23.1170   20.3580 N   0  0  0  0  0  0  0  0  0  0  0  0
  -31.0530  -21.9480   21.5660 O   0  0  0  0  0  0  0  0  0  0  0  0
  -28.9130  -23.0160   19.5530 H   0  0  0  0  0  0  0  0  0  0  0  0
  -29.5030  -24.4760   20.9540 C   0  0  0  0  0  2  0  0  0  0  0  0
  -28.4640  -25.4100   20.2360 C   0  0  0  0  0  2  0  0  0  0  0  0
  -28.5330  -26.8410   20.5070 O   0  0  0  0  0  0  0  0  0  0  0  0
  -24.5730  -32.0260   23.4090 C   0  0  0  0  0  0  0  0  0  0  0  0
  -27.3710  -27.6040   20.3920 C   0  0  0  0  0  0  0  0  0  0  0  0
  -23.4350  -30.6190   21.7240 C   0  0  0  0  0  3  0  0  0  0  0  0
  -24.9570  -29.1180   20.3240 C   0  0  0  0  0  0  0  0  0  0  0  0
  -25.9630  -31.0090   21.6040 C   0  0  0  0  0  2  0  0  0  0  0  0
  -26.0910  -29.6420   20.9550 C   0  0  0  0  0  0  0  0  0  0  0  0
  -27.2960  -28.8920   20.9870 C   0  0  0  0  0  3  0  0  0  0  0  0
  -26.2210  -27.1280   19.7150 C   0  0  0  0  0  3  0  0  0  0  0  0
  -25.0210  -27.8640   19.6960 C   0  0  0  0  0  3  0  0  0  0  0  0
  -23.6970  -29.9550   20.3450 C   0  0  0  0  0  2  0  0  0  0  0  0
  -24.6730  -31.2320   22.3050 N   0  0  0  0  0  0  0  0  0  0  0  0
  -23.4720  -32.2770   23.9220 O   0  0  0  0  0  0  0  0  0  0  0  0
  -22.7740  -29.5790   22.6600 C   0  0  0  0  0  0  0  0  0  0  0  0
  -21.4600  -29.3630   22.4840 N   0  0  0  0  0  0  0  0  0  0  0  0
  -23.4420  -28.9710   23.5000 O   0  0  0  0  0  0  0  0  0  0  0  0
  -20.9790  -29.9040   21.7780 H   0  0  0  0  0  0  0  0  0  0  0  0
  -18.1020  -28.0790   22.8610 C   0  0  0  0  0  0  0  0  0  0  0  0
  -20.6410  -28.4040   23.2250 C   0  0  0  0  0  3  0  0  0  0  0  0
  -20.8020  -26.9760   22.6520 C   0  0  0  0  0  2  0  0  0  0  0  0
  -19.7480  -26.6270   21.5980 C   0  0  0  0  0  2  0  0  0  0  0  0
  -18.3400  -26.7360   22.1900 C   0  0  0  0  0  2  0  0  0  0  0  0
  -19.1840  -28.8680   23.3320 C   0  0  0  0  0  0  0  0  0  0  0  0
  -18.9120  -30.1240   23.9170 C   0  0  0  0  0  3  0  0  0  0  0  0
  -17.5890  -30.5920   24.0360 C   0  0  0  0  0  3  0  0  0  0  0  0
  -16.5220  -29.7990   23.5810 C   0  0  0  0  0  3  0  0  0  0  0  0
  -16.7780  -28.5450   23.0000 C   0  0  0  0  0  3  0  0  0  0  0  0
  -25.8310  -32.6740   24.0650 C   0  0  0  0  0  3  0  0  0  0  0  0
  -26.2970  -31.9350   25.3790 C   0  0  1  0  0  0  0  0  0  0  0  0
  -25.1580  -31.7040   26.3990 C   0  0  0  0  0  1  0  0  0  0  0  0
  -26.9150  -30.5570   25.0440 C   0  0  0  0  0  1  0  0  0  0  0  0
  -27.4080  -32.7560   26.0770 C   0  0  0  0  0  1  0  0  0  0  0  0
  -25.5110  -34.0800   24.3450 N   0  0  0  0  0  0  0  0  0  0  0  0
  -25.8680  -35.1110   23.5660 C   0  0  0  0  0  0  0  0  0  0  0  0
  -26.5720  -34.9780   22.5620 O   0  0  0  0  0  0  0  0  0  0  0  0
  -24.8910  -34.2580   25.1220 H   0  0  0  0  0  0  0  0  0  0  0  0
  -24.1510  -36.8880   23.1000 C   0  0  0  0  0  1  0  0  0  0  0  0
  -25.3640  -36.5110   23.9660 C   0  0  0  0  0  3  0  0  0  0  0  0
  -27.4600  -37.4310   24.8510 C   0  0  0  0  0  1  0  0  0  0  0  0
  -26.3980  -37.5630   23.8580 N   0  0  0  0  0  0  0  0  0  0  0  0
  -25.9840  -38.4860   23.9570 H   0  0  0  0  0  0  0  0  0  0  0  0
  -30.3910  -18.5580   20.6130 C   0  0  0  0  0  0  0  0  0  0  0  0
  -30.4100  -19.4780   19.6260 N   0  0  0  0  0  4  0  0  0  0  0  0
  -30.7830  -18.7860   21.7570 O   0  0  0  0  0  0  0  0  0  0  0  0
  -30.1190  -19.0180   18.7730 H   0  0  0  0  0  0  0  0  0  0  0  0
  -26.9500  -17.9620   18.5820 C   0  0  0  0  0  2  0  0  0  0  0  0
  -27.9850  -18.4900   17.5880 C   0  0  0  0  0  2  0  0  0  0  0  0
  -27.2690  -18.3610   20.0280 C   0  0  0  0  0  2  0  0  0  0  0  0
  -29.3300  -17.7380   17.5510 C   0  0  0  0  0  2  0  0  0  0  0  0
  -28.2190  -17.4000   20.7640 C   0  0  0  0  0  2  0  0  0  0  0  0
  -29.7030  -16.7950   18.7260 C   0  0  0  0  0  2  0  0  0  0  0  0
  -29.6740  -17.1930   20.2560 C   0  0  1  0  0  0  0  0  0  0  0  0
  -30.8450  -14.9150   20.7350 C   0  0  0  0  0  0  0  0  0  0  0  0
  -30.6540  -12.6960   19.6500 C   0  0  0  0  0  2  0  0  0  0  0  0
  -29.7750  -12.8440   18.3880 C   0  0  0  0  0  2  0  0  0  0  0  0
  -28.2840  -12.6720   18.7390 C   0  0  0  0  0  2  0  0  0  0  0  0
  -27.8550  -13.5010   19.9780 C   0  0  0  0  0  3  0  0  0  0  0  0
  -28.8680  -13.3660   21.1440 C   0  0  0  0  0  2  0  0  0  0  0  0
  -30.2140  -13.7010   20.6390 N   0  0  0  0  0  0  0  0  0  0  0  0
  -31.9970  -15.0840   20.3290 O   0  0  0  0  0  0  0  0  0  0  0  0
  -30.0650  -15.9790   21.0680 N   0  0  0  0  0  0  0  0  0  0  0  0
  -29.3110  -15.7010   21.6780 H   0  0  0  0  0  0  0  0  0  0  0  0
  -25.4050  -14.0480   20.5770 C   0  0  0  0  0  0  0  0  0  0  0  0
  -24.3400  -13.2570   20.8940 C   0  0  0  0  0  0  0  0  0  0  0  0
  -24.8280  -11.9160   20.8670 C   0  0  0  0  0  0  0  0  0  0  0  0
  -26.4840  -13.1960   20.3930 N   0  0  0  0  0  0  0  0  0  0  0  0
  -26.1340  -11.9040   20.6240 N   0  0  0  0  0  0  0  0  0  0  0  0
  -24.1120  -10.6450   21.0010 C   0  0  0  0  0  0  0  0  0  0  0  0
  -24.4980   -9.6800   21.9560 C   0  0  0  0  0  3  0  0  0  0  0  0
  -23.7810   -8.4700   22.0780 C   0  0  0  0  0  3  0  0  0  0  0  0
  -22.6650   -8.2210   21.2430 C   0  0  0  0  0  0  0  0  0  0  0  0
  -22.2990   -9.1760   20.2770 C   0  0  0  0  0  3  0  0  0  0  0  0
  -23.0180  -10.3780   20.1540 C   0  0  0  0  0  3  0  0  0  0  0  0
  -21.9230   -7.0660   21.2740 O   0  0  0  0  0  0  0  0  0  0  0  0
  -21.7740   -6.3390   22.4280 C   0  0  0  0  0  0  0  0  0  0  0  0
  -21.1710   -6.8870   23.5800 C   0  0  0  0  0  3  0  0  0  0  0  0
  -20.9740   -6.0830   24.7210 C   0  0  0  0  0  3  0  0  0  0  0  0
  -21.3710   -4.7320   24.7090 C   0  0  0  0  0  0  0  0  0  0  0  0
  -21.9680   -4.1840   23.5590 C   0  0  0  0  0  3  0  0  0  0  0  0
  -22.1660   -4.9850   22.4210 C   0  0  0  0  0  0  0  0  0  0  0  0
  -22.7230   -4.4460   21.3090 F   0  0  0  0  0  0  0  0  0  0  0  0
  -21.1730   -3.9570   25.8000 F   0  0  0  0  0  0  0  0  0  0  0  0
  -22.9250  -13.7160   21.1060 C   0  0  0  0  0  0  0  0  0  0  0  0
  -22.1660  -13.0010   21.9290 N   0  0  0  0  0  0  0  0  0  0  0  0
  -22.4990  -14.7440   20.5810 O   0  0  0  0  0  0  0  0  0  0  0  0
  -22.5180  -12.1700   22.3780 H   0  0  0  0  0  0  0  0  0  0  0  0
  -21.2160  -13.2930   22.1120 H   0  0  0  0  0  0  0  0  0  0  0  0
  -25.5130  -15.4170   20.4060 N   0  0  0  0  0  0  0  0  0  0  0  0
  -24.7020  -16.0230   20.4640 H   0  0  0  0  0  0  0  0  0  0  0  0
  -26.3370  -15.8970   20.0700 H   0  0  0  0  0  0  0  0  0  0  0  0
  -31.0640  -21.4190   18.2030 C   0  0  0  0  0  2  0  0  0  0  0  0
  -30.2490  -22.2960   17.2230 C   0  0  0  0  0  2  0  0  0  0  0  0
  -31.1160  -23.1240   16.2590 C   0  0  0  0  0  2  0  0  0  0  0  0
  -30.2730  -24.1290   15.4460 C   0  0  0  0  0  2  0  0  0  0  0  0
  -31.0950  -24.9770   14.5650 N   0  0  0  0  0  4  0  0  0  0  0  0
  -31.7550  -25.5140   15.0980 H   0  0  0  0  0  0  0  0  0  0  0  0
  -30.5020  -25.6170   14.0680 H   0  0  0  0  0  0  0  0  0  0  0  0
  -31.5920  -24.4260   13.8890 H   0  0  0  0  0  0  0  0  0  0  0  0
  1 50  2  0
  1  2  1  0
  2  4  2  0
  3  2  1  0
  3  6  1  0
  5  3  1  0
  7  8  1  0
  7  6  1  0
  9 20  2  0
 10  8  1  0
 10 15  1  0
 11 19  1  0
 11 21  1  0
 12 18  1  0
 12 14  1  0
 13 19  1  0
 14 15  2  0
 14 13  1  0
 16 10  2  0
 17 16  1  0
 17 12  2  0
 18 11  1  0
 19  9  1  0
 21 23  2  0
 22 21  1  0
 24 22  1  0
 25 34  2  0
 25 30  1  0
 26 22  1  0
 26 30  1  0
 27 26  1  0
 28 29  1  0
 28 27  1  0
 29 25  1  0
 30 31  2  0
 31 32  1  0
 33 32  2  0
 34 33  1  0
 35  9  1  0
 35 40  1  0
 35 36  1  0
 36 39  1  1
 36 37  1  0
 38 36  1  0
 40 43  1  0
 41 45  1  0
 41 40  1  0
 42 41  2  0
 45 44  1  0
 47 48  1  0
 47 45  1  0
 47 46  1  0
 49 51  2  0
 50 49  1  0
 52 50  1  0
 53 55  1  0
 54 53  1  0
 55 57  1  0
 56 54  1  0
 56 58  1  0
 58 59  1  0
 59 49  1  0
 59 57  1  0
 59 68  1  1
 60 68  1  0
 61 66  1  0
 62 63  1  0
 62 61  1  0
 64 63  1  0
 64 73  1  0
 64 65  1  0
 66 60  1  0
 66 65  1  0
 67 60  2  0
 68 69  1  0
 70 71  2  0
 71 90  1  0
 72 71  1  0
 72 75  1  0
 73 70  1  0
 73 74  1  0
 74 72  2  0
 75 76  1  0
 76 77  2  0
 78 81  1  0
 78 77  1  0
 79 78  2  0
 80 79  1  0
 80 75  2  0
 81 82  1  0
 82 83  1  0
 83 84  2  0
 85 84  1  0
 85 89  1  0
 86 85  2  0
 87 82  2  0
 87 86  1  0
 88 87  1  0
 90 91  1  0
 91 94  1  0
 91 93  1  0
 92 90  2  0
 95 96  1  0
 95 70  1  0
 97 95  1  0
 98  1  1  0
 99 98  1  0
100 99  1  0
101100  1  0
102103  1  0
102101  1  0
104102  1  0
105102  1  0
M  ISO  4   7 101   8 101  60 100  68 100
M  END
>  <TORSDO>  (53) 
F 26

>  <SCORE>  (53) 
-11.610

>  <name>  (53) 
52

>  <ligand_id>  (53) 
52

>  <original_smiles>  (53) 
[H]c1c([H])c([H])c2c(c1[H])C([H])([H])C([H])([H])C([H])([H])C2([H])N([H])C(=O)C1([H])N(C(=O)C([H])(N([H])C(=O)C([H])(N([H])C([H])([H])[H])C([H])([H])[H])C(C([H])([H])[H])(C([H])([H])[H])C([H])([H])[H])C([H])([H])c2c([H])c(OC([H])([H])C([H])([H])N([H])C(=O)C([H])(N([H])C(=O)C3(N([H])C(=O)N4C([H])([H])C([H])([H])C([H])([H])C([H])(n5nc(-c6c([H])c([H])c(Oc7c([H])c([H])c(F)c([H])c7F)c([H])c6[H])c(C(=O)N([H])[H])c5N([H])[H])C4([H])[H])C([H])([H])C([H])([H])C([H])([H])C([H])([H])C([H])([H])C3([H])[H])C([H])([H])C([H])([H])C([H])([H])C([H])([H])[N+]([H])([H])[H])c([H])c([H])c2C1([H])[H]

>  <smiles>  (53) 
[H]c1c([H])c([H])c2c(c1[H])C([H])([H])C([H])([H])C([H])([H])C2([H])N([H])C(=O)C1([H])N(C(=O)C([H])(N([H])C(=O)C([H])(N([H])C([H])([H])[H])C([H])([H])[H])C(C([H])([H])[H])(C([H])([H])[H])C([H])([H])[H])C([H])([H])c2c([H])c(OC([H])([H])C([H])([H])N([H])C(=O)C([H])(N([H])C(=O)C3(N([H])C(=O)N4C([H])([H])C([H])([H])C([H])([H])C([H])(n5nc(-c6c([H])c([H])c(Oc7c([H])c([H])c(F)c([H])c7F)c([H])c6[H])c(C(=O)N([H])[H])c5N([H])[H])C4([H])[H])C([H])([H])C([H])([H])C([H])([H])C([H])([H])C([H])([H])C3([H])[H])C([H])([H])C([H])([H])C([H])([H])C([H])([H])[N+]([H])([H])[H])c([H])c([H])c2C1([H])[H]

$$$$
53:0:0
     RDKit          3D

 98105  0  0  1  0  0  0  0  0999 V2000
  -28.0190  -24.2200   20.1020 C   0  0  0  0  0  2  0  0  0  0  0  0
  -27.7540  -23.7970   17.6030 C   0  0  0  0  0  1  0  0  0  0  0  0
  -28.5110  -24.6290   18.6670 C   0  0  2  0  0  0  0  0  0  0  0  0
  -30.0430  -24.4120   18.5660 C   0  0  0  0  0  0  0  0  0  0  0  0
  -30.5480  -23.6910   17.5720 N   0  0  0  0  0  0  0  0  0  0  0  0
  -30.8020  -24.9090   19.3930 O   0  0  0  0  0  0  0  0  0  0  0  0
  -29.9450  -23.2420   16.8950 H   0  0  0  0  0  0  0  0  0  0  0  0
  -31.5490  -23.5950   17.4930 H   0  0  0  0  0  0  0  0  0  0  0  0
  -28.2280  -26.1430   18.3980 C   0  0  0  0  0  2  0  0  0  0  0  0
  -28.0540  -26.9090   19.5930 O   0  0  0  0  0  0  0  0  0  0  0  0
  -24.5000  -31.9270   23.1760 C   0  0  0  0  0  0  0  0  0  0  0  0
  -26.8650  -27.5900   19.7410 C   0  0  0  0  0  0  0  0  0  0  0  0
  -23.1660  -30.6060   21.5680 C   0  0  0  0  0  3  0  0  0  0  0  0
  -24.4990  -29.1040   20.0020 C   0  0  0  0  0  0  0  0  0  0  0  0
  -25.6760  -30.9280   21.2270 C   0  0  0  0  0  2  0  0  0  0  0  0
  -25.6960  -29.5730   20.5560 C   0  0  0  0  0  0  0  0  0  0  0  0
  -26.8750  -28.8040   20.4560 C   0  0  0  0  0  3  0  0  0  0  0  0
  -25.6470  -27.1330   19.1810 C   0  0  0  0  0  3  0  0  0  0  0  0
  -24.4630  -27.8770   19.3230 C   0  0  0  0  0  3  0  0  0  0  0  0
  -23.2820  -29.9860   20.1490 C   0  0  0  0  0  2  0  0  0  0  0  0
  -24.4700  -31.1650   22.0490 N   0  0  0  0  0  0  0  0  0  0  0  0
  -23.4590  -32.1940   23.7940 O   0  0  0  0  0  0  0  0  0  0  0  0
  -22.5640  -29.5510   22.5250 C   0  0  0  0  0  0  0  0  0  0  0  0
  -21.2380  -29.3580   22.4410 N   0  0  0  0  0  0  0  0  0  0  0  0
  -23.2830  -28.9160   23.2990 O   0  0  0  0  0  0  0  0  0  0  0  0
  -20.7180  -29.9360   21.7960 H   0  0  0  0  0  0  0  0  0  0  0  0
  -17.9130  -28.0400   22.9410 C   0  0  0  0  0  0  0  0  0  0  0  0
  -20.4590  -28.3910   23.2150 C   0  0  0  0  0  3  0  0  0  0  0  0
  -20.6160  -26.9630   22.6420 C   0  0  0  0  0  2  0  0  0  0  0  0
  -19.5290  -26.5990   21.6260 C   0  0  0  0  0  2  0  0  0  0  0  0
  -18.1410  -26.6960   22.2720 C   0  0  0  0  0  2  0  0  0  0  0  0
  -19.0030  -28.8450   23.3670 C   0  0  0  0  0  0  0  0  0  0  0  0
  -18.7400  -30.1050   23.9470 C   0  0  0  0  0  3  0  0  0  0  0  0
  -17.4180  -30.5630   24.1030 C   0  0  0  0  0  3  0  0  0  0  0  0
  -16.3420  -29.7570   23.6910 C   0  0  0  0  0  3  0  0  0  0  0  0
  -16.5910  -28.4980   23.1170 C   0  0  0  0  0  3  0  0  0  0  0  0
  -25.8320  -32.5170   23.7310 C   0  0  0  0  0  3  0  0  0  0  0  0
  -25.5750  -33.9090   24.1180 N   0  0  0  0  0  0  0  0  0  0  0  0
  -25.8890  -34.9760   23.3690 C   0  0  0  0  0  0  0  0  0  0  0  0
  -26.5010  -34.8910   22.3000 O   0  0  0  0  0  0  0  0  0  0  0  0
  -25.0320  -34.0500   24.9580 H   0  0  0  0  0  0  0  0  0  0  0  0
  -24.1870  -36.8150   23.1500 C   0  0  0  0  0  1  0  0  0  0  0  0
  -25.4570  -36.3600   23.8890 C   0  0  0  0  0  3  0  0  0  0  0  0
  -27.6490  -37.1770   24.6330 C   0  0  0  0  0  1  0  0  0  0  0  0
  -26.5030  -37.3960   23.7530 N   0  0  0  0  0  0  0  0  0  0  0  0
  -26.1250  -38.3180   23.9490 H   0  0  0  0  0  0  0  0  0  0  0  0
  -26.4160  -31.6960   24.9460 C   0  0  1  0  0  0  0  0  0  0  0  0
  -25.3900  -31.4430   26.0740 C   0  0  0  0  0  1  0  0  0  0  0  0
  -26.9360  -30.3230   24.4650 C   0  0  0  0  0  1  0  0  0  0  0  0
  -27.6220  -32.4440   25.5590 C   0  0  0  0  0  1  0  0  0  0  0  0
  -28.0990  -22.7260   20.4930 C   0  0  0  0  0  2  0  0  0  0  0  0
  -28.3580  -22.4620   21.9970 C   0  0  0  0  0  2  0  0  0  0  0  0
  -29.8440  -22.3320   22.4010 C   0  0  0  0  0  2  0  0  0  0  0  0
  -30.5830  -21.2760   21.6730 N   0  0  0  0  0  4  0  0  0  0  0  0
  -31.5100  -21.2240   22.0690 H   0  0  0  0  0  0  0  0  0  0  0  0
  -30.6820  -21.5600   20.7130 H   0  0  0  0  0  0  0  0  0  0  0  0
  -30.0090  -19.9130   21.7290 C   0  0  0  0  0  2  0  0  0  0  0  0
  -30.9280  -18.9040   21.0200 C   0  0  0  0  0  2  0  0  0  0  0  0
  -30.5380  -17.4270   21.2020 C   0  0  0  0  0  2  0  0  0  0  0  0
  -31.6640  -16.4910   20.7260 C   0  0  0  0  0  2  0  0  0  0  0  0
  -31.6610  -14.1270   19.9080 C   0  0  0  0  0  0  0  0  0  0  0  0
  -31.1120  -11.9080   18.9830 C   0  0  0  0  0  2  0  0  0  0  0  0
  -30.1670  -12.0650   17.7790 C   0  0  0  0  0  2  0  0  0  0  0  0
  -28.6990  -12.0820   18.2410 C   0  0  0  0  0  2  0  0  0  0  0  0
  -28.4660  -13.1080   19.3820 C   0  0  0  0  0  3  0  0  0  0  0  0
  -29.5160  -12.9500   20.5000 C   0  0  0  0  0  2  0  0  0  0  0  0
  -30.8610  -13.0330   19.8930 N   0  0  0  0  0  0  0  0  0  0  0  0
  -32.6980  -14.2370   19.2460 O   0  0  0  0  0  0  0  0  0  0  0  0
  -31.2000  -15.1130   20.6880 N   0  0  0  0  0  0  0  0  0  0  0  0
  -30.3590  -14.9000   21.2000 H   0  0  0  0  0  0  0  0  0  0  0  0
  -26.2130  -14.0490   20.2140 C   0  0  0  0  0  0  0  0  0  0  0  0
  -25.0660  -13.4330   20.6320 C   0  0  0  0  0  0  0  0  0  0  0  0
  -25.3210  -12.0280   20.5570 C   0  0  0  0  0  0  0  0  0  0  0  0
  -27.1080  -13.0300   19.9190 N   0  0  0  0  0  0  0  0  0  0  0  0
  -26.5730  -11.8100   20.1790 N   0  0  0  0  0  0  0  0  0  0  0  0
  -24.4330  -10.8840   20.7680 C   0  0  0  0  0  0  0  0  0  0  0  0
  -24.7580   -9.8550   21.6780 C   0  0  0  0  0  3  0  0  0  0  0  0
  -23.8740   -8.7730   21.8790 C   0  0  0  0  0  3  0  0  0  0  0  0
  -22.6490   -8.7140   21.1720 C   0  0  0  0  0  0  0  0  0  0  0  0
  -22.3410   -9.7320   20.2500 C   0  0  0  0  0  3  0  0  0  0  0  0
  -23.2240  -10.8080   20.0490 C   0  0  0  0  0  3  0  0  0  0  0  0
  -21.7430   -7.6870   21.2770 O   0  0  0  0  0  0  0  0  0  0  0  0
  -21.6150   -6.9610   22.4320 C   0  0  0  0  0  0  0  0  0  0  0  0
  -21.3200   -7.5730   23.6730 C   0  0  0  0  0  3  0  0  0  0  0  0
  -21.1290   -6.7800   24.8210 C   0  0  0  0  0  3  0  0  0  0  0  0
  -21.2180   -5.3780   24.7290 C   0  0  0  0  0  0  0  0  0  0  0  0
  -21.5060   -4.7670   23.4960 C   0  0  0  0  0  3  0  0  0  0  0  0
  -21.7000   -5.5560   22.3510 C   0  0  0  0  0  0  0  0  0  0  0  0
  -21.9540   -4.9630   21.1610 F   0  0  0  0  0  0  0  0  0  0  0  0
  -21.0260   -4.6140   25.8320 F   0  0  0  0  0  0  0  0  0  0  0  0
  -23.7730  -14.1010   20.9920 C   0  0  0  0  0  0  0  0  0  0  0  0
  -23.0070  -13.5130   21.8990 N   0  0  0  0  0  0  0  0  0  0  0  0
  -23.4590  -15.1860   20.5000 O   0  0  0  0  0  0  0  0  0  0  0  0
  -23.2720  -12.6350   22.3230 H   0  0  0  0  0  0  0  0  0  0  0  0
  -22.1390  -13.9450   22.1810 H   0  0  0  0  0  0  0  0  0  0  0  0
  -26.5630  -15.3890   20.0460 N   0  0  0  0  0  0  0  0  0  0  0  0
  -25.8710  -16.1240   20.1460 H   0  0  0  0  0  0  0  0  0  0  0  0
  -27.4400  -15.7180   19.6590 H   0  0  0  0  0  0  0  0  0  0  0  0
  1 51  1  0
  3  2  1  6
  3  1  1  0
  4  3  1  0
  4  6  2  0
  5  4  1  0
  7  5  1  0
  8  5  1  0
  9  3  1  0
  9 10  1  0
 10 12  1  0
 11 22  2  0
 12 17  1  0
 13 21  1  0
 13 23  1  0
 14 20  1  0
 14 16  1  0
 15 21  1  0
 16 15  1  0
 17 16  2  0
 18 19  1  0
 18 12  2  0
 19 14  2  0
 20 13  1  0
 21 11  1  0
 23 25  2  0
 24 23  1  0
 26 24  1  0
 27 36  2  0
 27 32  1  0
 28 24  1  0
 28 32  1  0
 29 28  1  0
 30 31  1  0
 30 29  1  0
 31 27  1  0
 32 33  2  0
 33 34  1  0
 35 34  2  0
 36 35  1  0
 37 11  1  0
 37 38  1  0
 37 47  1  0
 38 41  1  0
 39 43  1  0
 39 38  1  0
 40 39  2  0
 43 42  1  0
 45 43  1  0
 45 46  1  0
 45 44  1  0
 47 50  1  1
 47 48  1  0
 49 47  1  0
 51 52  1  0
 52 53  1  0
 54 57  1  0
 54 55  1  0
 54 53  1  0
 56 54  1  0
 58 59  1  0
 58 57  1  0
 60 59  1  0
 61 69  1  0
 62 67  1  0
 63 64  1  0
 63 62  1  0
 65 64  1  0
 65 74  1  0
 65 66  1  0
 67 61  1  0
 67 66  1  0
 68 61  2  0
 69 60  1  0
 69 70  1  0
 71 72  2  0
 72 91  1  0
 73 72  1  0
 73 76  1  0
 74 75  1  0
 74 71  1  0
 75 73  2  0
 76 77  1  0
 77 78  2  0
 79 82  1  0
 79 78  1  0
 80 79  2  0
 81 80  1  0
 81 76  2  0
 82 83  1  0
 83 84  1  0
 84 85  2  0
 86 85  1  0
 86 90  1  0
 87 86  2  0
 88 83  2  0
 88 87  1  0
 89 88  1  0
 91 92  1  0
 92 95  1  0
 92 94  1  0
 93 91  2  0
 96 97  1  0
 96 71  1  0
 98 96  1  0
M  ISO  4   9 101  10 101  61 100  69 100
M  END
>  <TORSDO>  (54) 
F 27

>  <SCORE>  (54) 
-10.844

>  <name>  (54) 
53

>  <ligand_id>  (54) 
53

>  <original_smiles>  (54) 
[H]c1c([H])c([H])c2c(c1[H])C([H])([H])C([H])([H])C([H])([H])C2([H])N([H])C(=O)C1([H])N(C(=O)C([H])(N([H])C(=O)C([H])(N([H])C([H])([H])[H])C([H])([H])[H])C(C([H])([H])[H])(C([H])([H])[H])C([H])([H])[H])C([H])([H])c2c([H])c(OC([H])([H])C(C(=O)N([H])[H])(C([H])([H])[H])C([H])([H])C([H])([H])C([H])([H])C([H])([H])[N+]([H])([H])C([H])([H])C([H])([H])C([H])([H])C([H])([H])N([H])C(=O)N3C([H])([H])C([H])([H])C([H])([H])C([H])(n4nc(-c5c([H])c([H])c(Oc6c([H])c([H])c(F)c([H])c6F)c([H])c5[H])c(C(=O)N([H])[H])c4N([H])[H])C3([H])[H])c([H])c([H])c2C1([H])[H]

>  <smiles>  (54) 
[H]c1c([H])c([H])c2c(c1[H])C([H])([H])C([H])([H])C([H])([H])C2([H])N([H])C(=O)C1([H])N(C(=O)C([H])(N([H])C(=O)C([H])(N([H])C([H])([H])[H])C([H])([H])[H])C(C([H])([H])[H])(C([H])([H])[H])C([H])([H])[H])C([H])([H])c2c([H])c(OC([H])([H])C(C(=O)N([H])[H])(C([H])([H])[H])C([H])([H])C([H])([H])C([H])([H])C([H])([H])[N+]([H])([H])C([H])([H])C([H])([H])C([H])([H])C([H])([H])N([H])C(=O)N3C([H])([H])C([H])([H])C([H])([H])C([H])(n4nc(-c5c([H])c([H])c(Oc6c([H])c([H])c(F)c([H])c6F)c([H])c5[H])c(C(=O)N([H])[H])c4N([H])[H])C3([H])[H])c([H])c([H])c2C1([H])[H]

$$$$
54:0:0
     RDKit          3D

 84 88  0  0  1  0  0  0  0  0999 V2000
  -28.3930  -23.3790   19.8880 C   0  0  0  0  0 15  0  0  0  0  0  0
  -30.0310  -21.6830   21.4170 C   0  0  0  0  0  1  0  0  0  0  0  0
  -27.6180  -21.0420   21.2730 C   0  0  0  0  0  1  0  0  0  0  0  0
  -28.8670  -21.3980   20.4560 C   0  0  0  0  0  2  0  0  0  0  0  0
  -29.4560  -19.4750   19.8290 C   0  0  0  0  0  1  0  0  0  0  0  0
  -30.2070  -16.1150   20.0280 C   0  0  0  0  0  0  0  0  0  0  0  0
  -30.3640  -13.4810   19.2300 C   0  0  0  0  0  2  0  0  0  0  0  0
  -29.4800  -12.9230   18.0630 C   0  0  0  0  0  2  0  0  0  0  0  0
  -28.0950  -12.4960   18.5650 C   0  0  0  0  0  2  0  0  0  0  0  0
  -27.5700  -13.5120   19.5980 C   0  0  0  0  0  3  0  0  0  0  0  0
  -28.6050  -13.9520   20.6720 C   0  0  0  0  0  2  0  0  0  0  0  0
  -29.7120  -14.6880   19.9790 N   0  0  0  0  0  0  0  0  0  0  0  0
  -31.4310  -15.9810   19.7820 O   0  0  0  0  0  0  0  0  0  0  0  0
  -29.4850  -17.5910   20.1660 N   0  0  0  0  0  0  0  0  0  0  0  0
  -28.5490  -17.3600   20.4680 H   0  0  0  0  0  0  0  0  0  0  0  0
  -25.2340  -14.0180   20.4290 C   0  0  0  0  0  0  0  0  0  0  0  0
  -24.1850  -13.2370   20.8160 C   0  0  0  0  0  0  0  0  0  0  0  0
  -24.6540  -11.8870   20.7660 C   0  0  0  0  0  0  0  0  0  0  0  0
  -26.2730  -13.1520   20.1550 N   0  0  0  0  0  0  0  0  0  0  0  0
  -25.9410  -11.8590   20.4230 N   0  0  0  0  0  0  0  0  0  0  0  0
  -23.9260  -10.6250   20.9680 C   0  0  0  0  0  0  0  0  0  0  0  0
  -24.3690   -9.6540   21.8950 C   0  0  0  0  0  3  0  0  0  0  0  0
  -23.6340   -8.4640   22.0920 C   0  0  0  0  0  3  0  0  0  0  0  0
  -22.4440   -8.2350   21.3610 C   0  0  0  0  0  0  0  0  0  0  0  0
  -22.0190   -9.1950   20.4250 C   0  0  0  0  0  3  0  0  0  0  0  0
  -22.7530  -10.3760   20.2260 C   0  0  0  0  0  3  0  0  0  0  0  0
  -21.6810   -7.0960   21.4650 O   0  0  0  0  0  0  0  0  0  0  0  0
  -21.6450   -6.3560   22.6190 C   0  0  0  0  0  0  0  0  0  0  0  0
  -21.2390   -6.9140   23.8500 C   0  0  0  0  0  3  0  0  0  0  0  0
  -21.1520   -6.1010   24.9970 C   0  0  0  0  0  3  0  0  0  0  0  0
  -21.4600   -4.7300   24.9150 C   0  0  0  0  0  0  0  0  0  0  0  0
  -21.8580   -4.1710   23.6880 C   0  0  0  0  0  3  0  0  0  0  0  0
  -21.9490   -4.9810   22.5430 C   0  0  0  0  0  0  0  0  0  0  0  0
  -22.3130   -4.4320   21.3580 F   0  0  0  0  0  0  0  0  0  0  0  0
  -21.3680   -3.9470   26.0160 F   0  0  0  0  0  0  0  0  0  0  0  0
  -22.7950  -13.7160   21.1110 C   0  0  0  0  0  0  0  0  0  0  0  0
  -22.0850  -13.0310   21.9980 N   0  0  0  0  0  0  0  0  0  0  0  0
  -22.3500  -14.7400   20.5910 O   0  0  0  0  0  0  0  0  0  0  0  0
  -22.4620  -12.2080   22.4430 H   0  0  0  0  0  0  0  0  0  0  0  0
  -21.1530  -13.3370   22.2370 H   0  0  0  0  0  0  0  0  0  0  0  0
  -25.3910  -15.3880   20.2500 N   0  0  0  0  0  0  0  0  0  0  0  0
  -24.6260  -16.0420   20.3740 H   0  0  0  0  0  0  0  0  0  0  0  0
  -26.2260  -15.8190   19.8760 H   0  0  0  0  0  0  0  0  0  0  0  0
  -28.2260  -25.2270   20.3080 O   0  0  0  0  0  1  0  0  0  0  0  0
  -24.7120  -31.8280   23.1410 C   0  0  0  0  0  0  0  0  0  0  0  0
  -27.2760  -26.5470   20.1900 C   0  0  0  0  0  0  0  0  0  0  0  0
  -23.5420  -30.4050   21.5170 C   0  0  0  0  0  3  0  0  0  0  0  0
  -25.0060  -28.7140   20.1230 C   0  0  0  0  0  0  0  0  0  0  0  0
  -26.1300  -30.4980   21.4210 C   0  0  0  0  0  2  0  0  0  0  0  0
  -26.2030  -29.0370   20.7690 C   0  0  0  0  0  0  0  0  0  0  0  0
  -27.3030  -27.9880   20.7700 C   0  0  0  0  0  3  0  0  0  0  0  0
  -26.0430  -26.5040   19.4680 C   0  0  0  0  0  3  0  0  0  0  0  0
  -24.9800  -27.4770   19.4470 C   0  0  0  0  0  3  0  0  0  0  0  0
  -23.7980  -29.6820   20.1590 C   0  0  0  0  0  2  0  0  0  0  0  0
  -24.8210  -30.9510   22.0760 N   0  0  0  0  0  0  0  0  0  0  0  0
  -23.6130  -32.1310   23.6400 O   0  0  0  0  0  0  0  0  0  0  0  0
  -22.8120  -29.4500   22.5020 C   0  0  0  0  0  0  0  0  0  0  0  0
  -21.4760  -29.3040   22.3900 N   0  0  0  0  0  0  0  0  0  0  0  0
  -23.4660  -28.8330   23.3460 O   0  0  0  0  0  0  0  0  0  0  0  0
  -20.9930  -29.8530   21.6920 H   0  0  0  0  0  0  0  0  0  0  0  0
  -18.0920  -28.0800   22.9390 C   0  0  0  0  0  0  0  0  0  0  0  0
  -20.6540  -28.3700   23.1740 C   0  0  0  0  0  3  0  0  0  0  0  0
  -20.7580  -26.9340   22.6090 C   0  0  0  0  0  2  0  0  0  0  0  0
  -19.6510  -26.6010   21.6030 C   0  0  0  0  0  2  0  0  0  0  0  0
  -18.2740  -26.7340   22.2580 C   0  0  0  0  0  2  0  0  0  0  0  0
  -19.2090  -28.8560   23.3540 C   0  0  0  0  0  0  0  0  0  0  0  0
  -18.9800  -30.1110   23.9600 C   0  0  0  0  0  3  0  0  0  0  0  0
  -17.6700  -30.5930   24.1470 C   0  0  0  0  0  3  0  0  0  0  0  0
  -16.5700  -29.8170   23.7420 C   0  0  0  0  0  3  0  0  0  0  0  0
  -16.7820  -28.5600   23.1460 C   0  0  0  0  0  3  0  0  0  0  0  0
  -25.9590  -32.5060   23.7860 C   0  0  0  0  0  3  0  0  0  0  0  0
  -25.6110  -33.9030   24.1290 N   0  0  0  0  0  0  0  0  0  0  0  0
  -25.9300  -34.9840   23.4050 C   0  0  0  0  0  0  0  0  0  0  0  0
  -26.5950  -34.9120   22.3700 O   0  0  0  0  0  0  0  0  0  0  0  0
  -25.0140  -34.0310   24.9330 H   0  0  0  0  0  0  0  0  0  0  0  0
  -24.1730  -36.7730   23.1230 C   0  0  0  0  0  1  0  0  0  0  0  0
  -25.4350  -36.3620   23.8990 C   0  0  0  0  0  3  0  0  0  0  0  0
  -27.5710  -37.2690   24.7100 C   0  0  0  0  0  1  0  0  0  0  0  0
  -26.4520  -37.4330   23.7870 N   0  0  0  0  0  0  0  0  0  0  0  0
  -26.0360  -38.3460   23.9520 H   0  0  0  0  0  0  0  0  0  0  0  0
  -26.4680  -31.7590   25.0820 C   0  0  1  0  0  0  0  0  0  0  0  0
  -25.3620  -31.5250   26.1400 C   0  0  0  0  0  1  0  0  0  0  0  0
  -27.0660  -30.3780   24.7330 C   0  0  0  0  0  1  0  0  0  0  0  0
  -27.6060  -32.5710   25.7450 C   0  0  0  0  0  1  0  0  0  0  0  0
  4  3  1  0
  4  2  1  0
  5 14  1  0
  6 14  1  0
  7 12  1  0
  8  9  1  0
  8  7  1  0
 10  9  1  0
 10 19  1  0
 10 11  1  0
 12  6  1  0
 12 11  1  0
 13  6  2  0
 14 15  1  0
 16 17  2  0
 17 36  1  0
 18 17  1  0
 18 21  1  0
 19 20  1  0
 19 16  1  0
 20 18  2  0
 21 22  1  0
 22 23  2  0
 24 27  1  0
 24 23  1  0
 25 24  2  0
 26 25  1  0
 26 21  2  0
 27 28  1  0
 28 29  1  0
 29 30  2  0
 31 30  1  0
 31 35  1  0
 32 31  2  0
 33 28  2  0
 33 32  1  0
 34 33  1  0
 36 37  1  0
 37 40  1  0
 37 39  1  0
 38 36  2  0
 41 42  1  0
 41 16  1  0
 43 41  1  0
 45 56  2  0
 46 44  1  0
 46 51  1  0
 47 55  1  0
 47 57  1  0
 48 54  1  0
 48 50  1  0
 49 55  1  0
 50 51  2  0
 50 49  1  0
 52 46  2  0
 53 52  1  0
 53 48  2  0
 54 47  1  0
 55 45  1  0
 57 59  2  0
 58 57  1  0
 60 58  1  0
 61 70  2  0
 61 66  1  0
 62 58  1  0
 62 66  1  0
 63 62  1  0
 64 65  1  0
 64 63  1  0
 65 61  1  0
 66 67  2  0
 67 68  1  0
 69 68  2  0
 70 69  1  0
 71 45  1  0
 71 72  1  0
 71 81  1  0
 72 75  1  0
 73 77  1  0
 73 72  1  0
 74 73  2  0
 77 76  1  0
 79 77  1  0
 79 80  1  0
 79 78  1  0
 81 84  1  1
 81 82  1  0
 83 81  1  0
M  ISO  4   1 101   6 100  14 100  44 101
M  END
>  <TORSDO>  (55) 
F 18

>  <SCORE>  (55) 
-15.543

>  <name>  (55) 
54

>  <ligand_id>  (55) 
54

>  <original_smiles>  (55) 
[H]c1c([H])c([H])c2c(c1[H])C([H])([H])C([H])([H])C([H])([H])C2([H])N([H])C(=O)C1([H])N(C(=O)C([H])(N([H])C(=O)C([H])(N([H])C([H])([H])[H])C([H])([H])[H])C(C([H])([H])[H])(C([H])([H])[H])C([H])([H])[H])C([H])([H])c2c([H])c(OC([H])([H])C(C([H])([H])[H])(C([H])([H])[H])C([H])([H])N([H])C(=O)N3C([H])([H])C([H])([H])C([H])([H])C([H])(n4nc(-c5c([H])c([H])c(Oc6c([H])c([H])c(F)c([H])c6F)c([H])c5[H])c(C(=O)N([H])[H])c4N([H])[H])C3([H])[H])c([H])c([H])c2C1([H])[H]

>  <smiles>  (55) 
[H]c1c([H])c([H])c2c(c1[H])C([H])([H])C([H])([H])C([H])([H])C2([H])N([H])C(=O)C1([H])N(C(=O)C([H])(N([H])C(=O)C([H])(N([H])C([H])([H])[H])C([H])([H])[H])C(C([H])([H])[H])(C([H])([H])[H])C([H])([H])[H])C([H])([H])c2c([H])c(OC([H])([H])C(C([H])([H])[H])(C([H])([H])[H])C([H])([H])N([H])C(=O)N3C([H])([H])C([H])([H])C([H])([H])C([H])(n4nc(-c5c([H])c([H])c(Oc6c([H])c([H])c(F)c([H])c6F)c([H])c5[H])c(C(=O)N([H])[H])c4N([H])[H])C3([H])[H])c([H])c([H])c2C1([H])[H]

$$$$
55:0:0
     RDKit          3D

 98106  0  0  1  0  0  0  0  0999 V2000
  -31.6960  -21.3820   15.8770 C   0  0  0  0  0  2  0  0  0  0  0  0
  -30.8290  -22.6040   16.2050 C   0  0  0  0  0  2  0  0  0  0  0  0
  -32.2870  -20.7770   17.1670 C   0  0  0  0  0  2  0  0  0  0  0  0
  -31.3990  -23.3270   17.4350 C   0  0  0  0  0  2  0  0  0  0  0  0
  -31.4050  -21.0130   18.4310 C   0  0  0  0  0  3  0  0  0  0  0  0
  -31.2400  -22.5070   18.6800 N   0  0  2  0  0  4  0  0  0  0  0  0
  -32.0190  -22.7720   19.2630 H   0  0  0  0  0  0  0  0  0  0  0  0
  -32.8260  -21.0710   20.6140 C   0  0  0  0  0  1  0  0  0  0  0  0
  -32.0250  -20.1920   19.6300 C   0  0  0  0  0  3  0  0  0  0  0  0
  -31.0610  -19.1970   20.3670 C   0  0  0  0  0  3  0  0  0  0  0  0
  -31.1720  -17.6830   19.9610 C   0  0  0  0  0  3  0  0  0  0  0  0
  -30.5080  -16.6570   20.9520 C   0  0  0  0  0  3  0  0  0  0  0  0
  -30.8980  -14.3550   19.7270 C   0  0  0  0  0  0  0  0  0  0  0  0
  -30.3340  -12.3630   18.3590 C   0  0  0  0  0  2  0  0  0  0  0  0
  -29.2900  -12.7650   17.2940 C   0  0  0  0  0  2  0  0  0  0  0  0
  -27.8550  -12.7170   17.8590 C   0  0  0  0  0  2  0  0  0  0  0  0
  -27.7280  -13.4330   19.2310 C   0  0  0  0  0  3  0  0  0  0  0  0
  -28.8490  -12.9560   20.1820 C   0  0  0  0  0  2  0  0  0  0  0  0
  -30.1420  -13.2370   19.5250 N   0  0  0  0  0  0  0  0  0  0  0  0
  -31.9920  -14.5400   19.1860 O   0  0  0  0  0  0  0  0  0  0  0  0
  -30.2530  -15.2860   20.4570 N   0  0  0  0  0  0  0  0  0  0  0  0
  -29.3700  -14.9240   20.7850 H   0  0  0  0  0  0  0  0  0  0  0  0
  -25.4360  -14.2110   20.1090 C   0  0  0  0  0  0  0  0  0  0  0  0
  -24.3500  -13.5140   20.5720 C   0  0  0  0  0  0  0  0  0  0  0  0
  -24.7160  -12.1370   20.5200 C   0  0  0  0  0  0  0  0  0  0  0  0
  -26.4000  -13.2570   19.8120 N   0  0  0  0  0  0  0  0  0  0  0  0
  -25.9730  -12.0050   20.1120 N   0  0  0  0  0  0  0  0  0  0  0  0
  -23.9260  -10.9260   20.7790 C   0  0  0  0  0  0  0  0  0  0  0  0
  -24.3620   -9.9450   21.6950 C   0  0  0  0  0  3  0  0  0  0  0  0
  -23.5790   -8.7960   21.9430 C   0  0  0  0  0  3  0  0  0  0  0  0
  -22.3450   -8.6210   21.2740 C   0  0  0  0  0  0  0  0  0  0  0  0
  -21.9240   -9.5920   20.3470 C   0  0  0  0  0  3  0  0  0  0  0  0
  -22.7070  -10.7310   20.0980 C   0  0  0  0  0  3  0  0  0  0  0  0
  -21.5300   -7.5260   21.4300 O   0  0  0  0  0  0  0  0  0  0  0  0
  -21.4880   -6.8230   22.6050 C   0  0  0  0  0  0  0  0  0  0  0  0
  -21.1800   -7.4440   23.8360 C   0  0  0  0  0  3  0  0  0  0  0  0
  -21.0810   -6.6700   25.0090 C   0  0  0  0  0  3  0  0  0  0  0  0
  -21.2820   -5.2780   24.9550 C   0  0  0  0  0  0  0  0  0  0  0  0
  -21.5860   -4.6570   23.7310 C   0  0  0  0  0  3  0  0  0  0  0  0
  -21.6880   -5.4270   22.5590 C   0  0  0  0  0  0  0  0  0  0  0  0
  -21.9580   -4.8230   21.3780 F   0  0  0  0  0  0  0  0  0  0  0  0
  -21.1800   -4.5330   26.0810 F   0  0  0  0  0  0  0  0  0  0  0  0
  -23.0130  -14.0850   20.9480 C   0  0  0  0  0  0  0  0  0  0  0  0
  -22.3310  -13.4660   21.9050 N   0  0  0  0  0  0  0  0  0  0  0  0
  -22.5880  -15.1140   20.4290 O   0  0  0  0  0  0  0  0  0  0  0  0
  -22.6930  -12.6360   22.3510 H   0  0  0  0  0  0  0  0  0  0  0  0
  -21.4350  -13.8300   22.1970 H   0  0  0  0  0  0  0  0  0  0  0  0
  -25.6740  -15.5650   19.8990 N   0  0  0  0  0  0  0  0  0  0  0  0
  -24.9500  -16.2620   20.0340 H   0  0  0  0  0  0  0  0  0  0  0  0
  -26.5100  -15.9390   19.4640 H   0  0  0  0  0  0  0  0  0  0  0  0
  -32.3810  -15.6420   22.4210 C   0  0  0  0  0  1  0  0  0  0  0  0
  -31.1300  -16.5300   22.3780 C   0  0  0  0  0  3  0  0  0  0  0  0
  -29.9820  -18.4180   23.6860 C   0  0  0  0  0  1  0  0  0  0  0  0
  -31.3070  -17.8800   23.1140 C   0  0  0  0  0  2  0  0  0  0  0  0
  -30.0110  -22.9040   19.4460 C   0  0  0  0  0  2  0  0  0  0  0  0
  -30.0190  -24.3680   20.0270 C   0  0  0  0  0  2  0  0  0  0  0  0
  -28.6970  -25.1590   19.7820 C   0  0  0  0  0  2  0  0  0  0  0  0
  -28.7050  -26.5220   20.2660 O   0  0  0  0  0  0  0  0  0  0  0  0
  -24.6920  -31.5600   23.3680 C   0  0  0  0  0  0  0  0  0  0  0  0
  -27.5400  -27.2800   20.1870 C   0  0  0  0  0  0  0  0  0  0  0  0
  -23.6240  -30.3320   21.5090 C   0  0  0  0  0  3  0  0  0  0  0  0
  -25.1760  -28.8660   20.1060 C   0  0  0  0  0  0  0  0  0  0  0  0
  -26.1680  -30.6130   21.5930 C   0  0  0  0  0  2  0  0  0  0  0  0
  -26.2860  -29.2990   20.8430 C   0  0  0  0  0  0  0  0  0  0  0  0
  -27.4660  -28.5160   20.8780 C   0  0  0  0  0  3  0  0  0  0  0  0
  -26.4060  -26.8680   19.4440 C   0  0  0  0  0  3  0  0  0  0  0  0
  -25.2360  -27.6500   19.4020 C   0  0  0  0  0  3  0  0  0  0  0  0
  -23.9530  -29.7590   20.1050 C   0  0  0  0  0  2  0  0  0  0  0  0
  -24.8400  -30.8490   22.2140 N   0  0  0  0  0  0  0  0  0  0  0  0
  -23.5680  -31.8240   23.8200 O   0  0  0  0  0  0  0  0  0  0  0  0
  -22.8580  -29.2600   22.3170 C   0  0  0  0  0  0  0  0  0  0  0  0
  -21.5330  -29.1790   22.0960 N   0  0  0  0  0  0  0  0  0  0  0  0
  -23.4510  -28.5070   23.0950 O   0  0  0  0  0  0  0  0  0  0  0  0
  -21.1230  -29.8360   21.4480 H   0  0  0  0  0  0  0  0  0  0  0  0
  -18.0620  -28.2180   22.3410 C   0  0  0  0  0  0  0  0  0  0  0  0
  -20.6190  -28.2190   22.7100 C   0  0  0  0  0  3  0  0  0  0  0  0
  -20.6280  -26.8760   21.9440 C   0  0  0  0  0  2  0  0  0  0  0  0
  -19.5400  -26.7860   20.8700 C   0  0  0  0  0  2  0  0  0  0  0  0
  -18.1530  -26.9610   21.4950 C   0  0  0  0  0  2  0  0  0  0  0  0
  -19.2200  -28.8190   22.8990 C   0  0  0  0  0  0  0  0  0  0  0  0
  -19.0810  -30.0120   23.6460 C   0  0  0  0  0  3  0  0  0  0  0  0
  -17.8140  -30.5880   23.8510 C   0  0  0  0  0  3  0  0  0  0  0  0
  -16.6690  -29.9810   23.3090 C   0  0  0  0  0  3  0  0  0  0  0  0
  -16.7940  -28.8000   22.5550 C   0  0  0  0  0  3  0  0  0  0  0  0
  -25.9220  -32.1000   24.1640 C   0  0  0  0  0  3  0  0  0  0  0  0
  -26.2990  -31.2080   25.4110 C   0  0  1  0  0  0  0  0  0  0  0  0
  -25.1010  -30.9120   26.3440 C   0  0  0  0  0  1  0  0  0  0  0  0
  -26.8860  -29.8530   24.9520 C   0  0  0  0  0  1  0  0  0  0  0  0
  -27.3990  -31.9110   26.2420 C   0  0  0  0  0  1  0  0  0  0  0  0
  -25.6100  -33.4710   24.5840 N   0  0  0  0  0  0  0  0  0  0  0  0
  -26.0340  -34.5770   23.9580 C   0  0  0  0  0  0  0  0  0  0  0  0
  -26.7980  -34.5470   22.9880 O   0  0  0  0  0  0  0  0  0  0  0  0
  -24.9440  -33.5730   25.3350 H   0  0  0  0  0  0  0  0  0  0  0  0
  -24.3700  -36.4340   23.6190 C   0  0  0  0  0  1  0  0  0  0  0  0
  -25.5300  -35.9290   24.4950 C   0  0  0  0  0  3  0  0  0  0  0  0
  -27.5930  -36.6910   25.5890 C   0  0  0  0  0  1  0  0  0  0  0  0
  -26.5850  -36.9620   24.5680 N   0  0  0  0  0  0  0  0  0  0  0  0
  -26.1800  -37.8740   24.7580 H   0  0  0  0  0  0  0  0  0  0  0  0
  1  2  1  0
  1  3  1  0
  2  4  1  0
  3  5  1  0
  4  6  1  0
  5  6  1  0
  5  9  1  0
  6  7  1  1
  6 55  1  0
  9 10  1  0
  9  8  1  0
 11 10  2  0
 12 11  1  0
 12 52  1  0
 13 21  1  0
 14 19  1  0
 15 16  1  0
 15 14  1  0
 17 16  1  0
 17 26  1  0
 17 18  1  0
 19 13  1  0
 19 18  1  0
 20 13  2  0
 21 22  1  0
 21 12  1  0
 23 24  2  0
 24 43  1  0
 25 24  1  0
 25 28  1  0
 26 23  1  0
 26 27  1  0
 27 25  2  0
 28 29  1  0
 29 30  2  0
 31 34  1  0
 31 30  1  0
 32 31  2  0
 33 32  1  0
 33 28  2  0
 34 35  1  0
 35 36  1  0
 36 37  2  0
 38 37  1  0
 38 42  1  0
 39 38  2  0
 40 35  2  0
 40 39  1  0
 41 40  1  0
 43 44  1  0
 44 47  1  0
 44 46  1  0
 45 43  2  0
 48 49  1  0
 48 23  1  0
 50 48  1  0
 52 51  1  0
 52 54  1  0
 54 53  1  0
 55 56  1  0
 57 56  1  0
 57 58  1  0
 59 70  2  0
 60 58  1  0
 60 65  1  0
 61 69  1  0
 61 71  1  0
 62 64  1  0
 63 69  1  0
 64 65  2  0
 64 63  1  0
 66 60  2  0
 67 66  1  0
 67 62  2  0
 68 62  1  0
 68 61  1  0
 69 59  1  0
 71 73  2  0
 72 71  1  0
 74 72  1  0
 75 84  2  0
 75 80  1  0
 76 72  1  0
 76 80  1  0
 77 76  1  0
 78 79  1  0
 78 77  1  0
 79 75  1  0
 80 81  2  0
 81 82  1  0
 83 82  2  0
 84 83  1  0
 85 59  1  0
 85 90  1  0
 85 86  1  0
 86 89  1  1
 86 87  1  0
 88 86  1  0
 90 93  1  0
 91 95  1  0
 91 90  1  0
 92 91  2  0
 95 94  1  0
 95 97  1  0
 97 98  1  0
 97 96  1  0
M  ISO  4  13 100  21 100  57 101  58 101
M  END
>  <TORSDO>  (56) 
F 25

>  <SCORE>  (56) 
-5.360

>  <name>  (56) 
55

>  <ligand_id>  (56) 
55

>  <original_smiles>  (56) 
[H]c1c([H])c([H])c2c(c1[H])C([H])([H])C([H])([H])C([H])([H])C2([H])N([H])C(=O)C1([H])N(C(=O)C([H])(N([H])C(=O)C([H])(N([H])C([H])([H])[H])C([H])([H])[H])C(C([H])([H])[H])(C([H])([H])[H])C([H])([H])[H])C([H])([H])c2c([H])c(OC([H])([H])C([H])([H])C([H])([H])[N+]3([H])C([H])([H])C([H])([H])C([H])([H])C([H])([H])C3([H])C([H])(C([H])([H])[H])C([H])([H])C([H])([H])C([H])(N([H])C(=O)N3C([H])([H])C([H])([H])C([H])([H])C([H])(n4nc(-c5c([H])c([H])c(Oc6c([H])c([H])c(F)c([H])c6F)c([H])c5[H])c(C(=O)N([H])[H])c4N([H])[H])C3([H])[H])C([H])(C([H])([H])[H])C([H])([H])C([H])([H])[H])c([H])c([H])c2C1([H])[H]

>  <smiles>  (56) 
[H]c1c([H])c([H])c2c(c1[H])C([H])([H])C([H])([H])C([H])([H])C2([H])N([H])C(=O)C1([H])N(C(=O)C([H])(N([H])C(=O)C([H])(N([H])C([H])([H])[H])C([H])([H])[H])C(C([H])([H])[H])(C([H])([H])[H])C([H])([H])[H])C([H])([H])c2c([H])c(OC([H])([H])C([H])([H])C([H])([H])[N+]3([H])C([H])([H])C([H])([H])C([H])([H])C([H])([H])C3([H])C([H])(C([H])([H])[H])C([H])([H])C([H])([H])C([H])(N([H])C(=O)N3C([H])([H])C([H])([H])C([H])([H])C([H])(n4nc(-c5c([H])c([H])c(Oc6c([H])c([H])c(F)c([H])c6F)c([H])c5[H])c(C(=O)N([H])[H])c4N([H])[H])C3([H])[H])C([H])(C([H])([H])[H])C([H])([H])C([H])([H])[H])c([H])c([H])c2C1([H])[H]

$$$$
56:0:0
     RDKit          3D

 93101  0  0  1  0  0  0  0  0999 V2000
  -28.9900  -18.2540   21.5420 C   0  0  0  0  0  2  0  0  0  0  0  0
  -28.1730  -18.8130   20.3920 C   0  0  0  0  0  2  0  0  0  0  0  0
  -30.2640  -19.0950   21.4990 C   0  0  0  0  0  2  0  0  0  0  0  0
  -29.2110  -19.1650   19.3170 C   0  0  0  0  0  2  0  0  0  0  0  0
  -30.5710  -19.4660   20.0030 C   0  0  1  0  0  0  0  0  0  0  0  0
  -30.8460  -21.2740   20.0380 C   0  0  0  0  0  2  0  0  0  0  0  0
  -31.3250  -23.2210   18.2980 C   0  0  0  0  0  1  0  0  0  0  0  0
  -28.9630  -22.5180   18.5630 C   0  0  0  0  0  1  0  0  0  0  0  0
  -30.2590  -22.8200   19.3320 C   0  0  1  0  0  0  0  0  0  0  0  0
  -29.8500  -24.3480   20.1610 C   0  0  0  0  0  2  0  0  0  0  0  0
  -29.6240  -25.9150   19.7660 O   0  0  0  0  0  0  0  0  0  0  0  0
  -25.0480  -30.9450   23.0250 C   0  0  0  0  0  0  0  0  0  0  0  0
  -28.4240  -26.7730   19.8310 C   0  0  0  0  0  0  0  0  0  0  0  0
  -24.1540  -29.5560   21.1980 C   0  0  0  0  0  3  0  0  0  0  0  0
  -25.8880  -28.2880   19.7660 C   0  0  0  0  0  0  0  0  0  0  0  0
  -26.6650  -30.1330   21.2420 C   0  0  0  0  0  2  0  0  0  0  0  0
  -26.9690  -28.8070   20.4920 C   0  0  0  0  0  0  0  0  0  0  0  0
  -28.2300  -28.0740   20.4970 C   0  0  0  0  0  3  0  0  0  0  0  0
  -27.2980  -26.3840   19.0740 C   0  0  0  0  0  3  0  0  0  0  0  0
  -26.0730  -27.0990   19.0410 C   0  0  0  0  0  3  0  0  0  0  0  0
  -24.5550  -29.0310   19.7920 C   0  0  0  0  0  2  0  0  0  0  0  0
  -25.3050  -30.2340   21.8810 N   0  0  0  0  0  0  0  0  0  0  0  0
  -23.9020  -31.0340   23.4950 O   0  0  0  0  0  0  0  0  0  0  0  0
  -23.5540  -28.3920   22.0290 C   0  0  0  0  0  0  0  0  0  0  0  0
  -22.2690  -28.0620   21.7990 N   0  0  0  0  0  0  0  0  0  0  0  0
  -24.2510  -27.7870   22.8470 O   0  0  0  0  0  0  0  0  0  0  0  0
  -21.7520  -28.6100   21.1250 H   0  0  0  0  0  0  0  0  0  0  0  0
  -19.0520  -26.4000   21.9980 C   0  0  0  0  0  0  0  0  0  0  0  0
  -21.5400  -26.9580   22.4320 C   0  0  0  0  0  3  0  0  0  0  0  0
  -21.8540  -25.6140   21.7340 C   0  0  0  0  0  2  0  0  0  0  0  0
  -20.8500  -25.2570   20.6330 C   0  0  0  0  0  2  0  0  0  0  0  0
  -19.4340  -25.1620   21.2050 C   0  0  0  0  0  2  0  0  0  0  0  0
  -20.0410  -27.2520   22.5570 C   0  0  0  0  0  0  0  0  0  0  0  0
  -19.6280  -28.4090   23.2560 C   0  0  0  0  0  3  0  0  0  0  0  0
  -18.2600  -28.7160   23.3970 C   0  0  0  0  0  3  0  0  0  0  0  0
  -17.2890  -27.8610   22.8520 C   0  0  0  0  0  3  0  0  0  0  0  0
  -17.6830  -26.7050   22.1570 C   0  0  0  0  0  3  0  0  0  0  0  0
  -26.1810  -31.6900   23.7950 C   0  0  0  0  0  3  0  0  0  0  0  0
  -25.6840  -33.0340   24.1410 N   0  0  0  0  0  0  0  0  0  0  0  0
  -25.9690  -34.1530   23.4650 C   0  0  0  0  0  0  0  0  0  0  0  0
  -26.7360  -34.1720   22.5000 O   0  0  0  0  0  0  0  0  0  0  0  0
  -25.0080  -33.0840   24.8880 H   0  0  0  0  0  0  0  0  0  0  0  0
  -24.0880  -35.7720   23.0280 C   0  0  0  0  0  1  0  0  0  0  0  0
  -25.2940  -35.4610   23.9290 C   0  0  0  0  0  3  0  0  0  0  0  0
  -27.2370  -36.5370   24.9800 C   0  0  0  0  0  1  0  0  0  0  0  0
  -26.2080  -36.6250   23.9460 N   0  0  0  0  0  0  0  0  0  0  0  0
  -25.6910  -37.4880   24.0900 H   0  0  0  0  0  0  0  0  0  0  0  0
  -26.6440  -30.9320   25.1010 C   0  0  1  0  0  0  0  0  0  0  0  0
  -25.4830  -30.5520   26.0500 C   0  0  0  0  0  1  0  0  0  0  0  0
  -27.3950  -29.6310   24.7400 C   0  0  0  0  0  1  0  0  0  0  0  0
  -27.6380  -31.8130   25.8920 C   0  0  0  0  0  1  0  0  0  0  0  0
  -31.5970  -18.0600   19.6140 C   0  0  0  0  0  0  0  0  0  0  0  0
  -31.8820  -15.1170   19.7840 C   0  0  0  0  0  0  0  0  0  0  0  0
  -31.5330  -12.7130   18.9050 C   0  0  0  0  0  2  0  0  0  0  0  0
  -30.5390  -12.6310   17.7190 C   0  0  0  0  0  2  0  0  0  0  0  0
  -29.0910  -12.5130   18.2280 C   0  0  0  0  0  2  0  0  0  0  0  0
  -28.7960  -13.4940   19.3890 C   0  0  0  0  0  3  0  0  0  0  0  0
  -29.9110  -13.5290   20.4610 C   0  0  0  0  0  2  0  0  0  0  0  0
  -31.1630  -13.8910   19.7740 N   0  0  0  0  0  0  0  0  0  0  0  0
  -33.0640  -14.9800   19.4460 O   0  0  0  0  0  0  0  0  0  0  0  0
  -31.2910  -16.4550   19.9680 N   0  0  0  0  0  4  0  0  0  0  0  0
  -30.3560  -16.3500   20.3320 H   0  0  0  0  0  0  0  0  0  0  0  0
  -26.5300  -14.2520   20.2860 C   0  0  0  0  0  0  0  0  0  0  0  0
  -25.4090  -13.5720   20.6740 C   0  0  0  0  0  0  0  0  0  0  0  0
  -25.7290  -12.1840   20.5600 C   0  0  0  0  0  0  0  0  0  0  0  0
  -27.4670  -13.2890   19.9570 N   0  0  0  0  0  0  0  0  0  0  0  0
  -26.9960  -12.0330   20.1820 N   0  0  0  0  0  0  0  0  0  0  0  0
  -24.8780  -10.9960   20.7280 C   0  0  0  0  0  0  0  0  0  0  0  0
  -25.2190   -9.9700   21.6360 C   0  0  0  0  0  3  0  0  0  0  0  0
  -24.3820   -8.8440   21.7970 C   0  0  0  0  0  3  0  0  0  0  0  0
  -23.1820   -8.7440   21.0530 C   0  0  0  0  0  0  0  0  0  0  0  0
  -22.8580   -9.7580   20.1320 C   0  0  0  0  0  3  0  0  0  0  0  0
  -23.6960  -10.8730   19.9700 C   0  0  0  0  0  3  0  0  0  0  0  0
  -22.3120   -7.6830   21.1300 O   0  0  0  0  0  0  0  0  0  0  0  0
  -22.1350   -6.9780   22.2930 C   0  0  0  0  0  0  0  0  0  0  0  0
  -21.6640   -7.5940   23.4750 C   0  0  0  0  0  3  0  0  0  0  0  0
  -21.4320   -6.8200   24.6290 C   0  0  0  0  0  3  0  0  0  0  0  0
  -21.6570   -5.4310   24.6020 C   0  0  0  0  0  0  0  0  0  0  0  0
  -22.1150   -4.8130   23.4240 C   0  0  0  0  0  3  0  0  0  0  0  0
  -22.3500   -5.5850   22.2740 C   0  0  0  0  0  0  0  0  0  0  0  0
  -22.7720   -4.9810   21.1380 F   0  0  0  0  0  0  0  0  0  0  0  0
  -21.4250   -4.6860   25.7070 F   0  0  0  0  0  0  0  0  0  0  0  0
  -24.0820  -14.1790   21.0330 C   0  0  0  0  0  0  0  0  0  0  0  0
  -23.3290  -13.5330   21.9170 N   0  0  0  0  0  0  0  0  0  0  0  0
  -23.7290  -15.2590   20.5640 O   0  0  0  0  0  0  0  0  0  0  0  0
  -23.6320  -12.6600   22.3210 H   0  0  0  0  0  0  0  0  0  0  0  0
  -22.4380  -13.9190   22.1960 H   0  0  0  0  0  0  0  0  0  0  0  0
  -26.8270  -15.6050   20.1510 N   0  0  0  0  0  0  0  0  0  0  0  0
  -26.1520  -16.3340   20.3520 H   0  0  0  0  0  0  0  0  0  0  0  0
  -27.6930  -15.9540   19.7600 H   0  0  0  0  0  0  0  0  0  0  0  0
  -33.0990  -18.4250   19.8310 C   0  0  0  0  0  2  0  0  0  0  0  0
  -35.2560  -19.4590   18.8390 C   0  0  0  0  0  1  0  0  0  0  0  0
  -33.7400  -19.2450   18.6810 C   0  0  0  0  0  2  0  0  0  0  0  0
  2  1  1  0
  3  1  1  0
  4  5  1  0
  4  2  1  0
  5  6  1  1
  5  3  1  0
  9  7  1  6
  8  9  1  0
  9  6  1  0
  9 10  1  0
 11 13  1  0
 11 10  1  0
 12 23  2  0
 13 18  1  0
 14 22  1  0
 14 24  1  0
 15 21  1  0
 15 17  1  0
 16 22  1  0
 17 18  2  0
 17 16  1  0
 19 13  2  0
 20 19  1  0
 20 15  2  0
 21 14  1  0
 22 12  1  0
 24 26  2  0
 25 24  1  0
 27 25  1  0
 28 37  2  0
 28 33  1  0
 29 25  1  0
 29 33  1  0
 30 29  1  0
 31 32  1  0
 31 30  1  0
 32 28  1  0
 33 34  2  0
 34 35  1  0
 36 35  2  0
 37 36  1  0
 38 12  1  0
 38 39  1  0
 38 48  1  0
 39 42  1  0
 40 44  1  0
 40 39  1  0
 41 40  2  0
 44 43  1  0
 44 46  1  0
 46 47  1  0
 46 45  1  0
 48 51  1  1
 48 49  1  0
 50 48  1  0
 52 91  1  0
 52 61  2  0
 52  5  1  0
 53 61  1  0
 54 59  1  0
 55 56  1  0
 55 54  1  0
 57 56  1  0
 57 66  1  0
 57 58  1  0
 59 53  1  0
 59 58  1  0
 60 53  2  0
 61 62  1  0
 63 64  2  0
 64 83  1  0
 65 64  1  0
 65 68  1  0
 66 67  1  0
 66 63  1  0
 67 65  2  0
 68 69  1  0
 69 70  2  0
 71 74  1  0
 71 70  1  0
 72 71  2  0
 73 72  1  0
 73 68  2  0
 74 75  1  0
 75 76  1  0
 76 77  2  0
 78 77  1  0
 78 82  1  0
 79 78  2  0
 80 75  2  0
 80 79  1  0
 81 80  1  0
 83 84  1  0
 84 87  1  0
 84 86  1  0
 85 83  2  0
 88 63  1  0
 88 89  1  0
 90 88  1  0
 93 92  1  0
 93 91  1  0
M  ISO  4  10 101  11 101  53 100  61 100
M  END
>  <TORSDO>  (57) 
F 22

>  <SCORE>  (57) 
-10.022

>  <name>  (57) 
56

>  <ligand_id>  (57) 
56

>  <original_smiles>  (57) 
[H]c1c([H])c([H])c2c(c1[H])C([H])([H])C([H])([H])C([H])([H])C2([H])N([H])C(=O)C1([H])N(C(=O)C([H])(N([H])C(=O)C([H])(N([H])C([H])([H])[H])C([H])([H])[H])C(C([H])([H])[H])(C([H])([H])[H])C([H])([H])[H])C([H])([H])c2c([H])c(OC([H])([H])C(C([H])([H])[H])(C([H])([H])[H])C([H])([H])C3(C([H])(N([H])C(=O)N4C([H])([H])C([H])([H])C([H])([H])C([H])(n5nc(-c6c([H])c([H])c(Oc7c([H])c([H])c(F)c([H])c7F)c([H])c6[H])c(C(=O)N([H])[H])c5N([H])[H])C4([H])[H])C([H])([H])C([H])([H])C([H])([H])[H])C([H])([H])C([H])([H])C([H])([H])C3([H])[H])c([H])c([H])c2C1([H])[H]

>  <smiles>  (57) 
[H]c1c([H])c([H])c2c(c1[H])C([H])([H])C([H])([H])C([H])([H])C2([H])N([H])C(=O)C1([H])N(C(=O)C([H])(N([H])C(=O)C([H])(N([H])C([H])([H])[H])C([H])([H])[H])C(C([H])([H])[H])(C([H])([H])[H])C([H])([H])[H])C([H])([H])c2c([H])c(OC([H])([H])C(C([H])([H])[H])(C([H])([H])[H])C([H])([H])C3(C([H])(N([H])C(=O)N4C([H])([H])C([H])([H])C([H])([H])C([H])(n5nc(-c6c([H])c([H])c(Oc7c([H])c([H])c(F)c([H])c7F)c([H])c6[H])c(C(=O)N([H])[H])c5N([H])[H])C4([H])[H])C([H])([H])C([H])([H])C([H])([H])[H])C([H])([H])C([H])([H])C([H])([H])C3([H])[H])c([H])c([H])c2C1([H])[H]

$$$$
57:0:0
     RDKit          3D

 88 97  0  0  1  0  0  0  0  0999 V2000
  -30.4510  -15.2500   20.3660 C   0  0  0  0  0  0  0  0  0  0  0  0
  -30.4050  -12.8310   19.4720 C   0  0  0  0  0  2  0  0  0  0  0  0
  -29.5080  -12.6390   18.2250 C   0  0  0  0  0  2  0  0  0  0  0  0
  -28.0550  -12.3660   18.6500 C   0  0  0  0  0  2  0  0  0  0  0  0
  -27.5810  -13.3220   19.7740 C   0  0  0  0  0  3  0  0  0  0  0  0
  -28.6110  -13.4810   20.9090 C   0  0  0  0  0  2  0  0  0  0  0  0
  -29.8470  -13.9720   20.2800 N   0  0  0  0  0  0  0  0  0  0  0  0
  -31.6850  -15.2090   20.2500 O   0  0  0  0  0  0  0  0  0  0  0  0
  -30.2620  -20.7850   21.4690 C   0  0  0  0  0  2  0  0  0  0  0  0
  -29.4710  -22.2260   21.4920 C   0  0  0  0  0  2  0  0  0  0  0  0
  -28.1170  -18.4950   19.3300 C   0  0  0  0  0  2  0  0  0  0  0  0
  -28.0800  -21.3380   19.7310 C   0  0  0  0  0  2  0  0  0  0  0  0
  -28.9270  -17.0800   19.2620 C   0  0  0  0  0  2  0  0  0  0  0  0
  -30.3310  -17.9130   21.0170 C   0  0  0  0  0  2  0  0  0  0  0  0
  -29.5290  -19.4170   21.0300 C   0  0  0  0  0  3  0  0  0  0  0  0
  -28.8810  -19.8480   19.6940 C   0  0  0  0  0  3  0  0  0  0  0  0
  -28.7880  -22.7940   20.1570 C   0  0  0  0  0  3  0  0  0  0  0  0
  -29.7560  -16.5620   20.4240 N   0  0  0  0  0  0  0  0  0  0  0  0
  -25.1950  -13.8700   20.4780 C   0  0  0  0  0  0  0  0  0  0  0  0
  -24.1340  -13.0840   20.8320 C   0  0  0  0  0  0  0  0  0  0  0  0
  -24.6160  -11.7390   20.8240 C   0  0  0  0  0  0  0  0  0  0  0  0
  -26.2510  -13.0010   20.2650 N   0  0  0  0  0  0  0  0  0  0  0  0
  -25.9140  -11.7150   20.5380 N   0  0  0  0  0  0  0  0  0  0  0  0
  -23.8980  -10.4710   21.0120 C   0  0  0  0  0  0  0  0  0  0  0  0
  -24.3170   -9.5190   21.9690 C   0  0  0  0  0  3  0  0  0  0  0  0
  -23.5980   -8.3160   22.1430 C   0  0  0  0  0  3  0  0  0  0  0  0
  -22.4440   -8.0620   21.3630 C   0  0  0  0  0  0  0  0  0  0  0  0
  -22.0510   -8.9990   20.3930 C   0  0  0  0  0  3  0  0  0  0  0  0
  -22.7700  -10.1920   20.2170 C   0  0  0  0  0  3  0  0  0  0  0  0
  -21.6970   -6.9120   21.4450 O   0  0  0  0  0  0  0  0  0  0  0  0
  -21.6140   -6.1910   22.6090 C   0  0  0  0  0  0  0  0  0  0  0  0
  -21.1320   -6.7620   23.8080 C   0  0  0  0  0  3  0  0  0  0  0  0
  -20.9990   -5.9630   24.9620 C   0  0  0  0  0  3  0  0  0  0  0  0
  -21.3350   -4.5950   24.9160 C   0  0  0  0  0  0  0  0  0  0  0  0
  -21.8130   -4.0280   23.7210 C   0  0  0  0  0  3  0  0  0  0  0  0
  -21.9470   -4.8220   22.5700 C   0  0  0  0  0  0  0  0  0  0  0  0
  -22.3840   -4.2640   21.4160 F   0  0  0  0  0  0  0  0  0  0  0  0
  -21.2040   -3.8280   26.0220 F   0  0  0  0  0  0  0  0  0  0  0  0
  -22.7260  -13.5500   21.0630 C   0  0  0  0  0  0  0  0  0  0  0  0
  -21.9870  -12.8590   21.9280 N   0  0  0  0  0  0  0  0  0  0  0  0
  -22.2850  -14.5580   20.5140 O   0  0  0  0  0  0  0  0  0  0  0  0
  -22.3560  -12.0480   22.3970 H   0  0  0  0  0  0  0  0  0  0  0  0
  -21.0400  -13.1500   22.1200 H   0  0  0  0  0  0  0  0  0  0  0  0
  -25.3470  -15.2420   20.2950 N   0  0  0  0  0  0  0  0  0  0  0  0
  -24.5800  -15.8950   20.4100 H   0  0  0  0  0  0  0  0  0  0  0  0
  -26.2090  -15.6930   20.0180 H   0  0  0  0  0  0  0  0  0  0  0  0
  -27.9070  -24.3590   20.0860 C   0  0  0  0  0  2  0  0  0  0  0  0
  -28.1960  -25.9540   20.2630 O   0  0  0  0  0  0  0  0  0  0  0  0
  -24.6410  -31.8780   23.2360 C   0  0  0  0  0  0  0  0  0  0  0  0
  -27.1780  -27.0320   20.2010 C   0  0  0  0  0  0  0  0  0  0  0  0
  -23.4340  -30.4860   21.6020 C   0  0  0  0  0  3  0  0  0  0  0  0
  -24.8730  -28.8870   20.1720 C   0  0  0  0  0  0  0  0  0  0  0  0
  -26.0000  -30.7000   21.4440 C   0  0  0  0  0  2  0  0  0  0  0  0
  -26.0620  -29.2970   20.7860 C   0  0  0  0  0  0  0  0  0  0  0  0
  -27.2090  -28.3880   20.7820 C   0  0  0  0  0  3  0  0  0  0  0  0
  -25.9600  -26.7650   19.5370 C   0  0  0  0  0  3  0  0  0  0  0  0
  -24.8460  -27.6430   19.5250 C   0  0  0  0  0  3  0  0  0  0  0  0
  -23.6530  -29.8060   20.2230 C   0  0  0  0  0  2  0  0  0  0  0  0
  -24.7140  -31.0470   22.1490 N   0  0  0  0  0  0  0  0  0  0  0  0
  -23.5550  -32.1710   23.7610 O   0  0  0  0  0  0  0  0  0  0  0  0
  -22.7430  -29.4910   22.5700 C   0  0  0  0  0  0  0  0  0  0  0  0
  -21.4130  -29.3270   22.4440 N   0  0  0  0  0  0  0  0  0  0  0  0
  -23.4110  -28.8680   23.3990 O   0  0  0  0  0  0  0  0  0  0  0  0
  -20.9320  -29.8770   21.7450 H   0  0  0  0  0  0  0  0  0  0  0  0
  -18.0310  -28.1160   22.9400 C   0  0  0  0  0  0  0  0  0  0  0  0
  -20.5880  -28.3950   23.2180 C   0  0  0  0  0  3  0  0  0  0  0  0
  -20.7030  -26.9590   22.6570 C   0  0  0  0  0  2  0  0  0  0  0  0
  -19.6080  -26.6190   21.6410 C   0  0  0  0  0  2  0  0  0  0  0  0
  -18.2200  -26.7620   22.2720 C   0  0  0  0  0  2  0  0  0  0  0  0
  -19.1430  -28.8880   23.3690 C   0  0  0  0  0  0  0  0  0  0  0  0
  -18.9130  -30.1510   23.9550 C   0  0  0  0  0  3  0  0  0  0  0  0
  -17.6010  -30.6400   24.1210 C   0  0  0  0  0  3  0  0  0  0  0  0
  -16.5060  -29.8650   23.7090 C   0  0  0  0  0  3  0  0  0  0  0  0
  -16.7200  -28.6040   23.1210 C   0  0  0  0  0  3  0  0  0  0  0  0
  -25.9170  -32.5130   23.8650 C   0  0  0  0  0  3  0  0  0  0  0  0
  -25.6120  -33.9180   24.1990 N   0  0  0  0  0  0  0  0  0  0  0  0
  -25.9270  -34.9720   23.4380 C   0  0  0  0  0  0  0  0  0  0  0  0
  -26.5760  -34.8730   22.3940 O   0  0  0  0  0  0  0  0  0  0  0  0
  -25.0500  -34.0730   25.0210 H   0  0  0  0  0  0  0  0  0  0  0  0
  -24.1860  -36.7640   23.1450 C   0  0  0  0  0  1  0  0  0  0  0  0
  -25.4530  -36.3610   23.9160 C   0  0  0  0  0  3  0  0  0  0  0  0
  -27.6130  -37.2500   24.6760 C   0  0  0  0  0  1  0  0  0  0  0  0
  -26.4780  -37.4190   23.7720 N   0  0  0  0  0  0  0  0  0  0  0  0
  -26.0710  -38.3350   23.9420 H   0  0  0  0  0  0  0  0  0  0  0  0
  -26.4260  -31.7490   25.1520 C   0  0  1  0  0  0  0  0  0  0  0  0
  -25.3290  -31.5270   26.2210 C   0  0  0  0  0  1  0  0  0  0  0  0
  -27.0020  -30.3640   24.7780 C   0  0  0  0  0  1  0  0  0  0  0  0
  -27.5820  -32.5440   25.8070 C   0  0  0  0  0  1  0  0  0  0  0  0
  1 18  1  0
  2  7  1  0
  3  4  1  0
  3  2  1  0
  5  4  1  0
  5 22  1  0
  5  6  1  0
  7  1  1  0
  7  6  1  0
  8  1  2  0
  9 10  1  0
 12 17  1  0
 13 11  1  0
 13 18  1  0
 15 14  1  0
 15  9  1  0
 16 11  1  0
 16 12  1  0
 16 15  1  0
 17 47  1  0
 17 10  1  0
 18 14  1  0
 19 20  2  0
 20 39  1  0
 21 20  1  0
 21 24  1  0
 22 19  1  0
 22 23  1  0
 23 21  2  0
 24 25  1  0
 25 26  2  0
 27 30  1  0
 27 26  1  0
 28 27  2  0
 29 28  1  0
 29 24  2  0
 30 31  1  0
 31 32  1  0
 32 33  2  0
 34 33  1  0
 34 38  1  0
 35 34  2  0
 36 31  2  0
 36 35  1  0
 37 36  1  0
 39 40  1  0
 40 43  1  0
 40 42  1  0
 41 39  2  0
 44 45  1  0
 44 19  1  0
 46 44  1  0
 47 48  1  0
 49 60  2  0
 50 48  1  0
 50 55  1  0
 51 59  1  0
 51 61  1  0
 52 58  1  0
 52 54  1  0
 53 59  1  0
 54 53  1  0
 55 54  2  0
 56 50  2  0
 57 56  1  0
 57 52  2  0
 58 51  1  0
 59 49  1  0
 61 63  2  0
 62 61  1  0
 64 62  1  0
 65 74  2  0
 65 70  1  0
 66 62  1  0
 66 70  1  0
 67 66  1  0
 68 69  1  0
 68 67  1  0
 69 65  1  0
 70 71  2  0
 71 72  1  0
 73 72  2  0
 74 73  1  0
 75 49  1  0
 75 76  1  0
 75 85  1  0
 76 79  1  0
 77 81  1  0
 77 76  1  0
 78 77  2  0
 81 80  1  0
 83 81  1  0
 83 84  1  0
 83 82  1  0
 85 88  1  1
 85 86  1  0
 87 85  1  0
M  ISO  4   1 100  18 100  47 101  48 101
M  END
>  <TORSDO>  (58) 
F 16

>  <SCORE>  (58) 
-16.206

>  <name>  (58) 
57

>  <ligand_id>  (58) 
57

>  <original_smiles>  (58) 
[H]c1c([H])c([H])c2c(c1[H])C([H])([H])C([H])([H])C([H])([H])C2([H])N([H])C(=O)C1([H])N(C(=O)C([H])(N([H])C(=O)C([H])(N([H])C([H])([H])[H])C([H])([H])[H])C(C([H])([H])[H])(C([H])([H])[H])C([H])([H])[H])C([H])([H])c2c([H])c(OC([H])([H])C3([H])C([H])([H])C([H])([H])C4([H])C([H])([H])N(C(=O)N5C([H])([H])C([H])([H])C([H])([H])C([H])(n6nc(-c7c([H])c([H])c(Oc8c([H])c([H])c(F)c([H])c8F)c([H])c7[H])c(C(=O)N([H])[H])c6N([H])[H])C5([H])[H])C([H])([H])C([H])([H])C4([H])C3([H])[H])c([H])c([H])c2C1([H])[H]

>  <smiles>  (58) 
[H]c1c([H])c([H])c2c(c1[H])C([H])([H])C([H])([H])C([H])([H])C2([H])N([H])C(=O)C1([H])N(C(=O)C([H])(N([H])C(=O)C([H])(N([H])C([H])([H])[H])C([H])([H])[H])C(C([H])([H])[H])(C([H])([H])[H])C([H])([H])[H])C([H])([H])c2c([H])c(OC([H])([H])C3([H])C([H])([H])C([H])([H])C4([H])C([H])([H])N(C(=O)N5C([H])([H])C([H])([H])C([H])([H])C([H])(n6nc(-c7c([H])c([H])c(Oc8c([H])c([H])c(F)c([H])c8F)c([H])c7[H])c(C(=O)N([H])[H])c6N([H])[H])C5([H])[H])C([H])([H])C([H])([H])C4([H])C3([H])[H])c([H])c([H])c2C1([H])[H]

$$$$
58:0:0
     RDKit          3D

 98105  0  0  1  0  0  0  0  0999 V2000
  -29.3480  -19.0090   20.0230 C   0  0  0  0  0  3  0  0  0  0  0  0
  -29.6460  -18.8100   21.4680 N   0  0  0  0  0  4  0  0  0  0  0  0
  -29.4120  -19.6490   21.9730 H   0  0  0  0  0  0  0  0  0  0  0  0
  -29.0980  -18.0390   21.8080 H   0  0  0  0  0  0  0  0  0  0  0  0
  -31.0860  -18.5770   21.7730 C   0  0  0  0  0  3  0  0  0  0  0  0
  -31.5440  -19.5770   22.8410 C   0  0  0  0  0  0  0  0  0  0  0  0
  -32.7630  -20.0980   22.7300 N   0  0  0  0  0  0  0  0  0  0  0  0
  -30.8060  -19.8570   23.7810 O   0  0  0  0  0  0  0  0  0  0  0  0
  -33.3950  -19.7720   22.0110 H   0  0  0  0  0  0  0  0  0  0  0  0
  -33.0880  -20.8070   23.3760 H   0  0  0  0  0  0  0  0  0  0  0  0
  -31.4010  -17.1410   22.2780 C   0  0  0  0  0  2  0  0  0  0  0  0
  -32.8910  -16.4290   20.2950 C   0  0  0  0  0  1  0  0  0  0  0  0
  -32.0030  -14.7280   21.8830 C   0  0  0  0  0  1  0  0  0  0  0  0
  -31.6940  -16.0710   21.2020 C   0  0  0  0  0  3  0  0  0  0  0  0
  -29.1090  -17.5320   19.2670 C   0  0  0  0  0  2  0  0  0  0  0  0
  -30.0990  -14.9750   19.2740 C   0  0  0  0  0  0  0  0  0  0  0  0
  -29.7760  -12.7270   18.1750 C   0  0  0  0  0  2  0  0  0  0  0  0
  -28.6200  -12.8460   17.1560 C   0  0  0  0  0  2  0  0  0  0  0  0
  -27.2690  -12.5790   17.8470 C   0  0  0  0  0  2  0  0  0  0  0  0
  -27.1340  -13.3460   19.1900 C   0  0  0  0  0  3  0  0  0  0  0  0
  -28.3960  -13.2310   20.0730 C   0  0  0  0  0  2  0  0  0  0  0  0
  -29.5300  -13.7080   19.2700 N   0  0  0  0  0  0  0  0  0  0  0  0
  -31.1470  -15.1370   18.6450 O   0  0  0  0  0  0  0  0  0  0  0  0
  -29.3840  -16.0780   19.7970 N   0  0  0  0  0  0  0  0  0  0  0  0
  -28.6320  -15.7610   20.3910 H   0  0  0  0  0  0  0  0  0  0  0  0
  -24.9410  -13.7900   20.4280 C   0  0  0  0  0  0  0  0  0  0  0  0
  -23.9850  -12.9550   20.9380 C   0  0  0  0  0  0  0  0  0  0  0  0
  -24.4450  -11.6290   20.6930 C   0  0  0  0  0  0  0  0  0  0  0  0
  -25.9240  -12.9670   19.9110 N   0  0  0  0  0  0  0  0  0  0  0  0
  -25.6460  -11.6560   20.1310 N   0  0  0  0  0  0  0  0  0  0  0  0
  -23.7850  -10.3340   20.9120 C   0  0  0  0  0  0  0  0  0  0  0  0
  -24.3030   -9.3850   21.8220 C   0  0  0  0  0  3  0  0  0  0  0  0
  -23.6410   -8.1560   22.0280 C   0  0  0  0  0  3  0  0  0  0  0  0
  -22.4460   -7.8670   21.3270 C   0  0  0  0  0  0  0  0  0  0  0  0
  -21.9450   -8.8070   20.4070 C   0  0  0  0  0  3  0  0  0  0  0  0
  -22.6080  -10.0280   20.2000 C   0  0  0  0  0  3  0  0  0  0  0  0
  -21.7420   -6.6950   21.4500 O   0  0  0  0  0  0  0  0  0  0  0  0
  -21.6380   -6.0400   22.6510 C   0  0  0  0  0  0  0  0  0  0  0  0
  -21.0610   -6.6500   23.7860 C   0  0  0  0  0  3  0  0  0  0  0  0
  -20.9160   -5.9140   24.9810 C   0  0  0  0  0  3  0  0  0  0  0  0
  -21.3300   -4.5710   25.0370 C   0  0  0  0  0  0  0  0  0  0  0  0
  -21.8940   -3.9600   23.9050 C   0  0  0  0  0  3  0  0  0  0  0  0
  -22.0450   -4.6930   22.7130 C   0  0  0  0  0  0  0  0  0  0  0  0
  -22.5720   -4.0910   21.6180 F   0  0  0  0  0  0  0  0  0  0  0  0
  -21.1800   -3.8620   26.1800 F   0  0  0  0  0  0  0  0  0  0  0  0
  -22.6680  -13.3680   21.5300 C   0  0  0  0  0  0  0  0  0  0  0  0
  -22.1510  -12.5940   22.4790 N   0  0  0  0  0  0  0  0  0  0  0  0
  -22.1110  -14.4070   21.1800 O   0  0  0  0  0  0  0  0  0  0  0  0
  -22.6150  -11.7460   22.7750 H   0  0  0  0  0  0  0  0  0  0  0  0
  -21.2770  -12.8530   22.9130 H   0  0  0  0  0  0  0  0  0  0  0  0
  -25.0560  -15.1740   20.3400 N   0  0  0  0  0  0  0  0  0  0  0  0
  -24.3220  -15.8060   20.6420 H   0  0  0  0  0  0  0  0  0  0  0  0
  -25.8100  -15.6420   19.8550 H   0  0  0  0  0  0  0  0  0  0  0  0
  -28.5000  -20.4350   19.6660 C   0  0  0  0  0  2  0  0  0  0  0  0
  -28.6960  -21.9750   20.3250 C   0  0  0  0  0  2  0  0  0  0  0  0
  -28.3570  -23.4540   19.6030 C   0  0  0  0  0  2  0  0  0  0  0  0
  -28.0440  -24.8950   20.4080 C   0  0  0  0  0  2  0  0  0  0  0  0
  -28.1580  -26.3510   19.8980 O   0  0  0  0  0  0  0  0  0  0  0  0
  -24.5720  -31.8930   23.1730 C   0  0  0  0  0  0  0  0  0  0  0  0
  -27.0770  -27.2890   19.9640 C   0  0  0  0  0  0  0  0  0  0  0  0
  -23.3240  -30.5310   21.5410 C   0  0  0  0  0  3  0  0  0  0  0  0
  -24.7330  -28.9920   20.0430 C   0  0  0  0  0  0  0  0  0  0  0  0
  -25.8640  -30.8270   21.2900 C   0  0  0  0  0  2  0  0  0  0  0  0
  -25.9270  -29.4480   20.6150 C   0  0  0  0  0  0  0  0  0  0  0  0
  -27.1050  -28.6160   20.5520 C   0  0  0  0  0  3  0  0  0  0  0  0
  -25.8540  -26.9200   19.3710 C   0  0  0  0  0  3  0  0  0  0  0  0
  -24.7050  -27.7400   19.4070 C   0  0  0  0  0  3  0  0  0  0  0  0
  -23.5010  -29.8810   20.1440 C   0  0  0  0  0  2  0  0  0  0  0  0
  -24.6100  -31.1030   22.0580 N   0  0  0  0  0  0  0  0  0  0  0  0
  -23.5050  -32.1560   23.7450 O   0  0  0  0  0  0  0  0  0  0  0  0
  -22.6810  -29.5000   22.5000 C   0  0  0  0  0  0  0  0  0  0  0  0
  -21.3570  -29.2950   22.3790 N   0  0  0  0  0  0  0  0  0  0  0  0
  -23.3750  -28.8800   23.3110 O   0  0  0  0  0  0  0  0  0  0  0  0
  -20.8530  -29.8420   21.6950 H   0  0  0  0  0  0  0  0  0  0  0  0
  -18.0090  -28.0150   22.8940 C   0  0  0  0  0  0  0  0  0  0  0  0
  -20.5650  -28.3320   23.1470 C   0  0  0  0  0  3  0  0  0  0  0  0
  -20.6940  -26.9090   22.5550 C   0  0  0  0  0  2  0  0  0  0  0  0
  -19.5920  -26.5740   21.5460 C   0  0  0  0  0  2  0  0  0  0  0  0
  -18.2120  -26.6790   22.2010 C   0  0  0  0  0  2  0  0  0  0  0  0
  -19.1130  -28.7990   23.3260 C   0  0  0  0  0  0  0  0  0  0  0  0
  -18.8690  -30.0500   23.9340 C   0  0  0  0  0  3  0  0  0  0  0  0
  -17.5530  -30.5180   24.1150 C   0  0  0  0  0  3  0  0  0  0  0  0
  -16.4650  -29.7310   23.7030 C   0  0  0  0  0  3  0  0  0  0  0  0
  -16.6930  -28.4810   23.0980 C   0  0  0  0  0  3  0  0  0  0  0  0
  -25.8670  -32.5150   23.7760 C   0  0  0  0  0  3  0  0  0  0  0  0
  -26.4020  -31.7300   25.0350 C   0  0  1  0  0  0  0  0  0  0  0  0
  -25.3200  -31.4610   26.1080 C   0  0  0  0  0  1  0  0  0  0  0  0
  -26.9930  -30.3650   24.6170 C   0  0  0  0  0  1  0  0  0  0  0  0
  -27.5490  -32.5250   25.7020 C   0  0  0  0  0  1  0  0  0  0  0  0
  -25.5700  -33.9120   24.1300 N   0  0  0  0  0  0  0  0  0  0  0  0
  -25.8980  -34.9760   23.3850 C   0  0  0  0  0  0  0  0  0  0  0  0
  -26.5520  -34.8840   22.3420 O   0  0  0  0  0  0  0  0  0  0  0  0
  -24.9800  -34.0580   24.9380 H   0  0  0  0  0  0  0  0  0  0  0  0
  -24.1810  -36.7930   23.0870 C   0  0  0  0  0  1  0  0  0  0  0  0
  -25.4290  -36.3620   23.8740 C   0  0  0  0  0  3  0  0  0  0  0  0
  -27.5810  -37.2180   24.6910 C   0  0  0  0  0  1  0  0  0  0  0  0
  -26.4690  -37.4090   23.7640 N   0  0  0  0  0  0  0  0  0  0  0  0
  -26.0710  -38.3290   23.9320 H   0  0  0  0  0  0  0  0  0  0  0  0
  1 15  1  0
  1  2  1  0
  2  5  1  0
  2  4  1  0
  2  3  1  0
  5 11  1  0
  5  6  1  0
  6  8  2  0
  7  6  1  0
  7 10  1  0
  9  7  1  0
 12 14  1  0
 14 13  1  0
 14 11  1  0
 15 24  1  0
 16 24  1  0
 17 22  1  0
 18 19  1  0
 18 17  1  0
 20 19  1  0
 20 29  1  0
 20 21  1  0
 22 16  1  0
 22 21  1  0
 23 16  2  0
 24 25  1  0
 26 27  2  0
 27 46  1  0
 28 31  1  0
 28 27  1  0
 29 30  1  0
 29 26  1  0
 30 28  2  0
 31 32  1  0
 32 33  2  0
 34 37  1  0
 34 33  1  0
 35 34  2  0
 36 35  1  0
 36 31  2  0
 37 38  1  0
 38 43  2  0
 38 39  1  0
 39 40  2  0
 40 41  1  0
 41 45  1  0
 42 41  2  0
 43 42  1  0
 44 43  1  0
 46 47  1  0
 47 49  1  0
 47 50  1  0
 48 46  2  0
 51 26  1  0
 51 52  1  0
 53 51  1  0
 54  1  1  0
 54 55  1  0
 56 55  1  0
 56 57  1  0
 58 60  1  0
 58 57  1  0
 59 70  2  0
 60 65  1  0
 61 69  1  0
 61 71  1  0
 62 68  1  0
 62 64  1  0
 63 69  1  0
 64 63  1  0
 65 64  2  0
 66 67  1  0
 66 60  2  0
 67 62  2  0
 68 61  1  0
 69 59  1  0
 71 73  2  0
 72 71  1  0
 74 72  1  0
 75 84  2  0
 75 80  1  0
 76 72  1  0
 76 80  1  0
 77 76  1  0
 78 79  1  0
 78 77  1  0
 79 75  1  0
 80 81  2  0
 81 82  1  0
 83 82  2  0
 84 83  1  0
 85 59  1  0
 85 90  1  0
 85 86  1  0
 86 89  1  1
 86 87  1  0
 88 86  1  0
 90 93  1  0
 91 95  1  0
 91 90  1  0
 92 91  2  0
 95 94  1  0
 97 95  1  0
 97 98  1  0
 97 96  1  0
M  ISO  4  16 100  24 100  57 101  58 101
M  END
>  <TORSDO>  (59) 
F 26

>  <SCORE>  (59) 
-9.520

>  <name>  (59) 
58

>  <ligand_id>  (59) 
58

>  <original_smiles>  (59) 
[H]c1c([H])c([H])c2c(c1[H])C([H])([H])C([H])([H])C([H])([H])C2([H])N([H])C(=O)C1([H])N(C(=O)C([H])(N([H])C(=O)C([H])(N([H])C([H])([H])[H])C([H])([H])[H])C(C([H])([H])[H])(C([H])([H])[H])C([H])([H])[H])C([H])([H])c2c([H])c(OC([H])([H])C([H])([H])C([H])([H])C([H])([H])C([H])(C([H])([H])N([H])C(=O)N3C([H])([H])C([H])([H])C([H])([H])C([H])(n4nc(-c5c([H])c([H])c(Oc6c([H])c([H])c(F)c([H])c6F)c([H])c5[H])c(C(=O)N([H])[H])c4N([H])[H])C3([H])[H])[N+]([H])([H])C([H])(C(=O)N([H])[H])C([H])([H])C([H])(C([H])([H])[H])C([H])([H])[H])c([H])c([H])c2C1([H])[H]

>  <smiles>  (59) 
[H]c1c([H])c([H])c2c(c1[H])C([H])([H])C([H])([H])C([H])([H])C2([H])N([H])C(=O)C1([H])N(C(=O)C([H])(N([H])C(=O)C([H])(N([H])C([H])([H])[H])C([H])([H])[H])C(C([H])([H])[H])(C([H])([H])[H])C([H])([H])[H])C([H])([H])c2c([H])c(OC([H])([H])C([H])([H])C([H])([H])C([H])([H])C([H])(C([H])([H])N([H])C(=O)N3C([H])([H])C([H])([H])C([H])([H])C([H])(n4nc(-c5c([H])c([H])c(Oc6c([H])c([H])c(F)c([H])c6F)c([H])c5[H])c(C(=O)N([H])[H])c4N([H])[H])C3([H])[H])[N+]([H])([H])C([H])(C(=O)N([H])[H])C([H])([H])C([H])(C([H])([H])[H])C([H])([H])[H])c([H])c([H])c2C1([H])[H]

$$$$
59:0:0
     RDKit          3D

 96104  0  0  1  0  0  0  0  0999 V2000
  -31.3730  -23.0460   22.1350 C   0  0  0  0  0  2  0  0  0  0  0  0
  -31.9960  -21.8900   21.3350 C   0  0  0  0  0  2  0  0  0  0  0  0
  -29.8670  -22.8340   22.3920 C   0  0  0  0  0  2  0  0  0  0  0  0
  -31.1850  -21.5620   20.0670 C   0  0  0  0  0  2  0  0  0  0  0  0
  -29.0760  -22.5760   21.0860 C   0  0  0  0  0  3  0  0  0  0  0  0
  -29.6980  -21.2760   20.3820 C   0  0  0  0  0  3  0  0  0  0  0  0
  -28.9660  -23.9180   20.2110 C   0  0  0  0  0  3  0  0  0  0  0  0
  -28.1570  -25.1570   20.8000 C   0  0  0  0  0  3  0  0  0  0  0  0
  -28.2770  -26.4650   20.1310 O   0  0  0  0  0  0  0  0  0  0  0  0
  -24.5870  -31.8510   23.1790 C   0  0  0  0  0  0  0  0  0  0  0  0
  -27.1520  -27.2910   20.1310 C   0  0  0  0  0  0  0  0  0  0  0  0
  -23.3580  -30.4530   21.5560 C   0  0  0  0  0  3  0  0  0  0  0  0
  -24.7860  -28.8850   20.1270 C   0  0  0  0  0  0  0  0  0  0  0  0
  -25.8910  -30.7670   21.3410 C   0  0  0  0  0  2  0  0  0  0  0  0
  -25.9610  -29.3850   20.7060 C   0  0  0  0  0  0  0  0  0  0  0  0
  -27.1480  -28.6000   20.6950 C   0  0  0  0  0  3  0  0  0  0  0  0
  -25.9600  -26.8320   19.5300 C   0  0  0  0  0  3  0  0  0  0  0  0
  -24.7860  -27.6130   19.5290 C   0  0  0  0  0  3  0  0  0  0  0  0
  -23.5530  -29.7630   20.1790 C   0  0  0  0  0  2  0  0  0  0  0  0
  -24.6320  -31.0410   22.0820 N   0  0  0  0  0  0  0  0  0  0  0  0
  -23.5120  -32.1390   23.7240 O   0  0  0  0  0  0  0  0  0  0  0  0
  -22.6980  -29.4480   22.5290 C   0  0  0  0  0  0  0  0  0  0  0  0
  -21.3690  -29.2800   22.4150 N   0  0  0  0  0  0  0  0  0  0  0  0
  -23.3800  -28.8190   23.3430 O   0  0  0  0  0  0  0  0  0  0  0  0
  -20.8800  -29.8400   21.7290 H   0  0  0  0  0  0  0  0  0  0  0  0
  -17.9870  -28.1120   22.9420 C   0  0  0  0  0  0  0  0  0  0  0  0
  -20.5490  -28.3540   23.1960 C   0  0  0  0  0  3  0  0  0  0  0  0
  -20.6370  -26.9180   22.6290 C   0  0  0  0  0  2  0  0  0  0  0  0
  -19.5270  -26.5970   21.6240 C   0  0  0  0  0  2  0  0  0  0  0  0
  -18.1490  -26.7580   22.2750 C   0  0  0  0  0  2  0  0  0  0  0  0
  -19.1140  -28.8690   23.3600 C   0  0  0  0  0  0  0  0  0  0  0  0
  -18.9080  -30.1380   23.9440 C   0  0  0  0  0  3  0  0  0  0  0  0
  -17.6080  -30.6500   24.1140 C   0  0  0  0  0  3  0  0  0  0  0  0
  -16.4960  -29.8910   23.7120 C   0  0  0  0  0  3  0  0  0  0  0  0
  -16.6860  -28.6240   23.1320 C   0  0  0  0  0  3  0  0  0  0  0  0
  -25.8810  -32.4760   23.7860 C   0  0  0  0  0  3  0  0  0  0  0  0
  -25.5780  -33.8690   24.1450 N   0  0  0  0  0  0  0  0  0  0  0  0
  -25.8990  -34.9340   23.4010 C   0  0  0  0  0  0  0  0  0  0  0  0
  -26.5540  -34.8480   22.3580 O   0  0  0  0  0  0  0  0  0  0  0  0
  -24.9950  -34.0090   24.9570 H   0  0  0  0  0  0  0  0  0  0  0  0
  -24.1680  -36.7340   23.1030 C   0  0  0  0  0  1  0  0  0  0  0  0
  -25.4200  -36.3140   23.8890 C   0  0  0  0  0  3  0  0  0  0  0  0
  -27.5700  -37.1810   24.7000 C   0  0  0  0  0  1  0  0  0  0  0  0
  -26.4520  -37.3700   23.7800 N   0  0  0  0  0  0  0  0  0  0  0  0
  -26.0500  -38.2860   23.9530 H   0  0  0  0  0  0  0  0  0  0  0  0
  -26.4230  -31.6860   25.0400 C   0  0  1  0  0  0  0  0  0  0  0  0
  -25.3520  -31.4320   26.1270 C   0  0  0  0  0  1  0  0  0  0  0  0
  -26.9940  -30.3130   24.6120 C   0  0  0  0  0  1  0  0  0  0  0  0
  -27.5890  -32.4670   25.6900 C   0  0  0  0  0  1  0  0  0  0  0  0
  -29.5530  -19.8790   21.1580 C   0  0  0  0  0  2  0  0  0  0  0  0
  -30.1120  -18.6550   20.4590 N   0  0  0  0  0  4  0  0  0  0  0  0
  -31.0020  -18.9190   20.0670 H   0  0  0  0  0  0  0  0  0  0  0  0
  -29.5090  -18.4450   19.6770 H   0  0  0  0  0  0  0  0  0  0  0  0
  -30.3660  -17.3700   21.2540 C   0  0  0  0  0  2  0  0  0  0  0  0
  -29.7210  -15.9920   20.7390 C   0  0  0  0  0  3  0  0  0  0  0  0
  -30.5870  -14.6400   20.7540 C   0  0  0  0  0  0  0  0  0  0  0  0
  -30.4790  -12.3330   19.8430 C   0  0  0  0  0  2  0  0  0  0  0  0
  -29.6170  -12.3670   18.5600 C   0  0  0  0  0  2  0  0  0  0  0  0
  -28.1200  -12.2030   18.8900 C   0  0  0  0  0  2  0  0  0  0  0  0
  -27.6600  -13.1200   20.0520 C   0  0  0  0  0  3  0  0  0  0  0  0
  -28.6470  -13.0750   21.2400 C   0  0  0  0  0  2  0  0  0  0  0  0
  -29.9910  -13.4010   20.7390 N   0  0  0  0  0  0  0  0  0  0  0  0
  -31.8080  -14.7280   20.5770 O   0  0  0  0  0  0  0  0  0  0  0  0
  -25.2320  -13.7430   20.5990 C   0  0  0  0  0  0  0  0  0  0  0  0
  -24.1440  -12.9820   20.9260 C   0  0  0  0  0  0  0  0  0  0  0  0
  -24.6070  -11.6320   20.9620 C   0  0  0  0  0  0  0  0  0  0  0  0
  -26.2880  -12.8550   20.4610 N   0  0  0  0  0  0  0  0  0  0  0  0
  -25.9150  -11.5830   20.7420 N   0  0  0  0  0  0  0  0  0  0  0  0
  -23.8740  -10.3730   21.1330 C   0  0  0  0  0  0  0  0  0  0  0  0
  -24.2710   -9.4150   22.0910 C   0  0  0  0  0  3  0  0  0  0  0  0
  -23.5400   -8.2190   22.2480 C   0  0  0  0  0  3  0  0  0  0  0  0
  -22.3990   -7.9740   21.4480 C   0  0  0  0  0  0  0  0  0  0  0  0
  -22.0230   -8.9210   20.4790 C   0  0  0  0  0  3  0  0  0  0  0  0
  -22.7550  -10.1090   20.3190 C   0  0  0  0  0  3  0  0  0  0  0  0
  -21.6420   -6.8300   21.5160 O   0  0  0  0  0  0  0  0  0  0  0  0
  -21.5710   -6.0830   22.6640 C   0  0  0  0  0  0  0  0  0  0  0  0
  -21.1410   -6.6370   23.8890 C   0  0  0  0  0  3  0  0  0  0  0  0
  -21.0160   -5.8180   25.0290 C   0  0  0  0  0  3  0  0  0  0  0  0
  -21.3100   -4.4440   24.9430 C   0  0  0  0  0  0  0  0  0  0  0  0
  -21.7320   -3.8890   23.7220 C   0  0  0  0  0  3  0  0  0  0  0  0
  -21.8590   -4.7060   22.5860 C   0  0  0  0  0  0  0  0  0  0  0  0
  -22.2460   -4.1610   21.4070 F   0  0  0  0  0  0  0  0  0  0  0  0
  -21.1810   -3.6550   26.0350 F   0  0  0  0  0  0  0  0  0  0  0  0
  -22.7310  -13.4640   21.0840 C   0  0  0  0  0  0  0  0  0  0  0  0
  -21.9460  -12.7940   21.9180 N   0  0  0  0  0  0  0  0  0  0  0  0
  -22.3300  -14.4710   20.5010 O   0  0  0  0  0  0  0  0  0  0  0  0
  -22.2830  -11.9810   22.4130 H   0  0  0  0  0  0  0  0  0  0  0  0
  -20.9930  -13.0950   22.0660 H   0  0  0  0  0  0  0  0  0  0  0  0
  -25.4070  -15.1040   20.3700 N   0  0  0  0  0  0  0  0  0  0  0  0
  -24.5740  -15.6730   20.2570 H   0  0  0  0  0  0  0  0  0  0  0  0
  -26.1480  -15.3750   19.7370 H   0  0  0  0  0  0  0  0  0  0  0  0
  -29.2140  -16.1780   19.2900 C   0  0  0  0  0  0  0  0  0  0  0  0
  -27.9700  -16.6330   19.1340 N   0  0  0  0  0  0  0  0  0  0  0  0
  -29.9310  -16.0040   18.3060 O   0  0  0  0  0  0  0  0  0  0  0  0
  -27.3730  -16.8400   19.9240 H   0  0  0  0  0  0  0  0  0  0  0  0
  -27.6050  -16.7830   18.2010 H   0  0  0  0  0  0  0  0  0  0  0  0
  1  3  1  0
  2  1  1  0
  4  6  1  0
  4  2  1  0
  5  7  1  0
  5  3  1  0
  6  5  1  0
  6 50  1  0
  7  8  2  0
  9  8  1  0
 10 21  2  0
 11  9  1  0
 11 16  1  0
 12 20  1  0
 12 22  1  0
 13 19  1  0
 13 15  1  0
 14 20  1  0
 15 14  1  0
 16 15  2  0
 17 11  2  0
 18 17  1  0
 18 13  2  0
 19 12  1  0
 20 10  1  0
 22 24  2  0
 23 22  1  0
 25 23  1  0
 26 35  2  0
 26 31  1  0
 27 23  1  0
 27 31  1  0
 28 27  1  0
 29 30  1  0
 29 28  1  0
 30 26  1  0
 31 32  2  0
 32 33  1  0
 34 33  2  0
 35 34  1  0
 36 10  1  0
 36 37  1  0
 36 46  1  0
 37 40  1  0
 38 42  1  0
 38 37  1  0
 39 38  2  0
 42 41  1  0
 44 42  1  0
 44 45  1  0
 44 43  1  0
 46 49  1  1
 46 47  1  0
 48 46  1  0
 51 50  1  0
 51 54  1  0
 52 51  1  0
 53 51  1  0
 55 56  1  0
 55 54  1  0
 57 62  1  0
 58 59  1  0
 58 57  1  0
 60 59  1  0
 60 67  1  0
 60 61  1  0
 62 56  1  0
 62 61  1  0
 63 56  2  0
 64 65  2  0
 65 66  1  0
 65 84  1  0
 66 69  1  0
 67 64  1  0
 67 68  1  0
 68 66  2  0
 69 70  1  0
 70 71  2  0
 72 75  1  0
 72 71  1  0
 73 72  2  0
 74 73  1  0
 74 69  2  0
 75 76  1  0
 76 77  1  0
 77 78  2  0
 79 78  1  0
 79 83  1  0
 80 79  2  0
 81 76  2  0
 81 80  1  0
 82 81  1  0
 84 85  1  0
 85 88  1  0
 85 87  1  0
 86 84  2  0
 89 64  1  0
 90 89  1  0
 91 89  1  0
 92 55  1  0
 93 92  1  0
 93 95  1  0
 94 92  2  0
 96 93  1  0
M  ISO  4   8 101   9 101  55 100  56 100
M  END
>  <TORSDO>  (60) 
F 23

>  <SCORE>  (60) 
-11.746

>  <name>  (60) 
59

>  <ligand_id>  (60) 
59

>  <original_smiles>  (60) 
[H]c1c([H])c([H])c2c(c1[H])C([H])([H])C([H])([H])C([H])([H])C2([H])N([H])C(=O)C1([H])N(C(=O)C([H])(N([H])C(=O)C([H])(N([H])C([H])([H])[H])C([H])([H])[H])C(C([H])([H])[H])(C([H])([H])[H])C([H])([H])[H])C([H])([H])c2c([H])c(OC([H])([H])C([H])([H])C3([H])C([H])([H])C([H])([H])C([H])([H])C([H])([H])C3([H])C([H])([H])[N+]([H])([H])C([H])([H])C([H])(C(=O)N([H])[H])C(=O)N3C([H])([H])C([H])([H])C([H])([H])C([H])(n4nc(-c5c([H])c([H])c(Oc6c([H])c([H])c(F)c([H])c6F)c([H])c5[H])c(C(=O)N([H])[H])c4N([H])[H])C3([H])[H])c([H])c([H])c2C1([H])[H]

>  <smiles>  (60) 
[H]c1c([H])c([H])c2c(c1[H])C([H])([H])C([H])([H])C([H])([H])C2([H])N([H])C(=O)C1([H])N(C(=O)C([H])(N([H])C(=O)C([H])(N([H])C([H])([H])[H])C([H])([H])[H])C(C([H])([H])[H])(C([H])([H])[H])C([H])([H])[H])C([H])([H])c2c([H])c(OC([H])([H])C([H])([H])C3([H])C([H])([H])C([H])([H])C([H])([H])C([H])([H])C3([H])C([H])([H])[N+]([H])([H])C([H])([H])C([H])(C(=O)N([H])[H])C(=O)N3C([H])([H])C([H])([H])C([H])([H])C([H])(n4nc(-c5c([H])c([H])c(Oc6c([H])c([H])c(F)c([H])c6F)c([H])c5[H])c(C(=O)N([H])[H])c4N([H])[H])C3([H])[H])c([H])c([H])c2C1([H])[H]

$$$$
60:0:0
     RDKit          3D

 94102  0  0  1  0  0  0  0  0999 V2000
  -30.5140  -19.0190   19.9060 C   0  0  0  0  0  3  0  0  0  0  0  0
  -30.8130  -17.5210   16.5690 C   0  0  0  0  0  2  0  0  0  0  0  0
  -32.1760  -18.2120   16.6580 C   0  0  0  0  0  2  0  0  0  0  0  0
  -29.9240  -18.2340   17.5950 C   0  0  0  0  0  2  0  0  0  0  0  0
  -32.2230  -18.7770   18.0760 C   0  0  0  0  0  2  0  0  0  0  0  0
  -30.8160  -19.0460   18.4530 N   0  0  2  0  0  4  0  0  0  0  0  0
  -30.6470  -20.0000   18.1690 H   0  0  0  0  0  0  0  0  0  0  0  0
  -29.2320  -20.0840   20.2220 C   0  0  0  0  0  2  0  0  0  0  0  0
  -29.2930  -21.7150   20.6590 C   0  0  0  0  0  2  0  0  0  0  0  0
  -28.7640  -23.0760   19.8180 C   0  0  0  0  0  2  0  0  0  0  0  0
  -28.1780  -24.4940   20.5140 C   0  0  0  0  0  2  0  0  0  0  0  0
  -28.3680  -25.9600   20.0620 O   0  0  0  0  0  0  0  0  0  0  0  0
  -24.6650  -31.6130   22.9930 C   0  0  0  0  0  0  0  0  0  0  0  0
  -27.2840  -26.8990   20.0480 C   0  0  0  0  0  0  0  0  0  0  0  0
  -23.4710  -30.1670   21.3950 C   0  0  0  0  0  3  0  0  0  0  0  0
  -24.9280  -28.5860   19.9910 C   0  0  0  0  0  0  0  0  0  0  0  0
  -26.0180  -30.4740   21.1980 C   0  0  0  0  0  2  0  0  0  0  0  0
  -26.1050  -29.0710   20.5770 C   0  0  0  0  0  0  0  0  0  0  0  0
  -27.2890  -28.2470   20.5790 C   0  0  0  0  0  3  0  0  0  0  0  0
  -26.0810  -26.4980   19.4320 C   0  0  0  0  0  3  0  0  0  0  0  0
  -24.9260  -27.3100   19.4050 C   0  0  0  0  0  3  0  0  0  0  0  0
  -23.6890  -29.4640   20.0290 C   0  0  0  0  0  2  0  0  0  0  0  0
  -24.7390  -30.7740   21.9170 N   0  0  0  0  0  0  0  0  0  0  0  0
  -23.5810  -31.8940   23.5260 O   0  0  0  0  0  0  0  0  0  0  0  0
  -22.8160  -29.1710   22.3810 C   0  0  0  0  0  0  0  0  0  0  0  0
  -21.4880  -28.9830   22.2690 N   0  0  0  0  0  0  0  0  0  0  0  0
  -23.5030  -28.5670   23.2100 O   0  0  0  0  0  0  0  0  0  0  0  0
  -20.9920  -29.5180   21.5700 H   0  0  0  0  0  0  0  0  0  0  0  0
  -18.1200  -27.7810   22.8500 C   0  0  0  0  0  0  0  0  0  0  0  0
  -20.6830  -28.0530   23.0660 C   0  0  0  0  0  3  0  0  0  0  0  0
  -20.7770  -26.6150   22.5060 C   0  0  0  0  0  2  0  0  0  0  0  0
  -19.6580  -26.2780   21.5170 C   0  0  0  0  0  2  0  0  0  0  0  0
  -18.2880  -26.4260   22.1850 C   0  0  0  0  0  2  0  0  0  0  0  0
  -19.2440  -28.5540   23.2490 C   0  0  0  0  0  0  0  0  0  0  0  0
  -19.0330  -29.8200   23.8340 C   0  0  0  0  0  3  0  0  0  0  0  0
  -17.7290  -30.3170   24.0220 C   0  0  0  0  0  3  0  0  0  0  0  0
  -16.6210  -29.5450   23.6370 C   0  0  0  0  0  3  0  0  0  0  0  0
  -16.8160  -28.2790   23.0570 C   0  0  0  0  0  3  0  0  0  0  0  0
  -25.9400  -32.2770   23.5990 C   0  0  0  0  0  3  0  0  0  0  0  0
  -25.6050  -33.6720   23.9270 N   0  0  0  0  0  0  0  0  0  0  0  0
  -25.9200  -34.7320   23.1700 C   0  0  0  0  0  0  0  0  0  0  0  0
  -26.5880  -34.6380   22.1380 O   0  0  0  0  0  0  0  0  0  0  0  0
  -25.0070  -33.8160   24.7270 H   0  0  0  0  0  0  0  0  0  0  0  0
  -24.1580  -36.4940   22.8280 C   0  0  0  0  0  1  0  0  0  0  0  0
  -25.4130  -36.1140   23.6290 C   0  0  0  0  0  3  0  0  0  0  0  0
  -27.5340  -37.0410   24.4470 C   0  0  0  0  0  1  0  0  0  0  0  0
  -26.4280  -37.1830   23.5020 N   0  0  0  0  0  0  0  0  0  0  0  0
  -26.0080  -38.0980   23.6410 H   0  0  0  0  0  0  0  0  0  0  0  0
  -26.4820  -31.5260   24.8770 C   0  0  1  0  0  0  0  0  0  0  0  0
  -25.4010  -31.2650   25.9520 C   0  0  0  0  0  1  0  0  0  0  0  0
  -27.1010  -30.1620   24.4930 C   0  0  0  0  0  1  0  0  0  0  0  0
  -27.6190  -32.3520   25.5240 C   0  0  0  0  0  1  0  0  0  0  0  0
  -30.8660  -17.4870   20.5660 C   0  0  0  0  0  0  0  0  0  0  0  0
  -31.3990  -14.8870   19.7080 C   0  0  0  0  0  0  0  0  0  0  0  0
  -31.1330  -12.6010   18.6360 C   0  0  0  0  0  2  0  0  0  0  0  0
  -30.1280  -12.6550   17.4610 C   0  0  0  0  0  2  0  0  0  0  0  0
  -28.6760  -12.5100   17.9590 C   0  0  0  0  0  2  0  0  0  0  0  0
  -28.3870  -13.4090   19.1890 C   0  0  0  0  0  3  0  0  0  0  0  0
  -29.4940  -13.2980   20.2530 C   0  0  0  0  0  2  0  0  0  0  0  0
  -30.7500  -13.6670   19.5970 N   0  0  0  0  0  0  0  0  0  0  0  0
  -32.6030  -14.9270   19.4300 O   0  0  0  0  0  0  0  0  0  0  0  0
  -30.6250  -16.0570   19.9390 N   0  0  0  0  0  4  0  0  0  0  0  0
  -29.6430  -15.8220   19.9350 H   0  0  0  0  0  0  0  0  0  0  0  0
  -26.0870  -14.1110   20.0510 C   0  0  0  0  0  0  0  0  0  0  0  0
  -25.0140  -13.3890   20.4980 C   0  0  0  0  0  0  0  0  0  0  0  0
  -25.4170  -12.0190   20.4610 C   0  0  0  0  0  0  0  0  0  0  0  0
  -27.0680  -13.1810   19.7620 N   0  0  0  0  0  0  0  0  0  0  0  0
  -26.6830  -11.9190   20.0760 N   0  0  0  0  0  0  0  0  0  0  0  0
  -24.6490  -10.7920   20.7090 C   0  0  0  0  0  0  0  0  0  0  0  0
  -24.9940   -9.8990   21.7480 C   0  0  0  0  0  3  0  0  0  0  0  0
  -24.2270   -8.7340   21.9740 C   0  0  0  0  0  3  0  0  0  0  0  0
  -23.1070   -8.4550   21.1570 C   0  0  0  0  0  0  0  0  0  0  0  0
  -22.7810   -9.3350   20.1100 C   0  0  0  0  0  3  0  0  0  0  0  0
  -23.5450  -10.4910   19.8840 C   0  0  0  0  0  3  0  0  0  0  0  0
  -22.3190   -7.3370   21.2830 O   0  0  0  0  0  0  0  0  0  0  0  0
  -22.0290   -6.7970   22.5110 C   0  0  0  0  0  0  0  0  0  0  0  0
  -21.3780   -7.5410   23.5200 C   0  0  0  0  0  3  0  0  0  0  0  0
  -21.0400   -6.9240   24.7410 C   0  0  0  0  0  3  0  0  0  0  0  0
  -21.3440   -5.5660   24.9540 C   0  0  0  0  0  0  0  0  0  0  0  0
  -21.9880   -4.8220   23.9490 C   0  0  0  0  0  3  0  0  0  0  0  0
  -22.3290   -5.4370   22.7320 C   0  0  0  0  0  0  0  0  0  0  0  0
  -22.9330   -4.7110   21.7580 F   0  0  0  0  0  0  0  0  0  0  0  0
  -21.0100   -4.9730   26.1230 F   0  0  0  0  0  0  0  0  0  0  0  0
  -23.6590  -13.9370   20.8400 C   0  0  0  0  0  0  0  0  0  0  0  0
  -22.9570  -13.3010   21.7740 N   0  0  0  0  0  0  0  0  0  0  0  0
  -23.2340  -14.9620   20.3110 O   0  0  0  0  0  0  0  0  0  0  0  0
  -23.3150  -12.4770   22.2290 H   0  0  0  0  0  0  0  0  0  0  0  0
  -22.0480  -13.6480   22.0490 H   0  0  0  0  0  0  0  0  0  0  0  0
  -26.2980  -15.4690   19.8410 N   0  0  0  0  0  0  0  0  0  0  0  0
  -25.5480  -16.1430   19.9640 H   0  0  0  0  0  0  0  0  0  0  0  0
  -27.0890  -15.8440   19.3400 H   0  0  0  0  0  0  0  0  0  0  0  0
  -29.0190  -17.5320   22.3740 C   0  0  0  0  0  1  0  0  0  0  0  0
  -31.3840  -18.3260   22.9570 C   0  0  0  0  0  1  0  0  0  0  0  0
  -30.5250  -17.3950   22.0790 C   0  0  0  0  0  3  0  0  0  0  0  0
  1  8  1  0
  1 53  1  0
  2  3  1  0
  2  4  1  0
  3  5  1  0
  4  6  1  0
  5  6  1  0
  6  1  1  0
  6  7  1  6
  8  9  1  0
 10 11  1  0
 10  9  1  0
 12 11  1  0
 13 24  2  0
 14 12  1  0
 14 19  1  0
 15 23  1  0
 15 25  1  0
 16 22  1  0
 16 18  1  0
 17 23  1  0
 18 19  2  0
 18 17  1  0
 20 14  2  0
 21 20  1  0
 21 16  2  0
 22 15  1  0
 23 13  1  0
 25 27  2  0
 26 25  1  0
 28 26  1  0
 29 38  2  0
 29 34  1  0
 30 26  1  0
 30 34  1  0
 31 30  1  0
 32 33  1  0
 32 31  1  0
 33 29  1  0
 34 35  2  0
 35 36  1  0
 37 36  2  0
 38 37  1  0
 39 13  1  0
 39 40  1  0
 39 49  1  0
 40 43  1  0
 41 45  1  0
 41 40  1  0
 42 41  2  0
 45 44  1  0
 47 45  1  0
 47 48  1  0
 47 46  1  0
 49 52  1  1
 49 50  1  0
 51 49  1  0
 53 94  1  0
 54 62  1  0
 55 60  1  0
 56 57  1  0
 56 55  1  0
 58 57  1  0
 58 67  1  0
 58 59  1  0
 60 54  1  0
 60 59  1  0
 61 54  2  0
 62 53  2  3
 63 62  1  0
 64 65  2  0
 65 84  1  0
 66 65  1  0
 66 69  1  0
 67 64  1  0
 67 68  1  0
 68 66  2  0
 69 70  1  0
 70 71  2  0
 72 75  1  0
 72 71  1  0
 73 72  2  0
 74 73  1  0
 74 69  2  0
 75 76  1  0
 76 81  2  0
 76 77  1  0
 77 78  2  0
 78 79  1  0
 79 83  1  0
 80 79  2  0
 81 80  1  0
 82 81  1  0
 84 85  1  0
 85 88  1  0
 85 87  1  0
 86 84  2  0
 89 90  1  0
 89 64  1  0
 91 89  1  0
 94 92  1  0
 94 93  1  0
M  ISO  4  11 101  12 101  54 100  62 100
M  END
>  <TORSDO>  (61) 
F 23

>  <SCORE>  (61) 
-8.999

>  <name>  (61) 
60

>  <ligand_id>  (61) 
60

>  <original_smiles>  (61) 
[H]c1c([H])c([H])c2c(c1[H])C([H])([H])C([H])([H])C([H])([H])C2([H])N([H])C(=O)C1([H])N(C(=O)C([H])(N([H])C(=O)C([H])(N([H])C([H])([H])[H])C([H])([H])[H])C(C([H])([H])[H])(C([H])([H])[H])C([H])([H])[H])C([H])([H])c2c([H])c(OC([H])([H])C([H])([H])C([H])([H])C([H])([H])C([H])(C([H])(N([H])C(=O)N3C([H])([H])C([H])([H])C([H])([H])C([H])(n4nc(-c5c([H])c([H])c(Oc6c([H])c([H])c(F)c([H])c6F)c([H])c5[H])c(C(=O)N([H])[H])c4N([H])[H])C3([H])[H])C([H])(C([H])([H])[H])C([H])([H])[H])[N+]3([H])C([H])([H])C([H])([H])C([H])([H])C3([H])[H])c([H])c([H])c2C1([H])[H]

>  <smiles>  (61) 
[H]c1c([H])c([H])c2c(c1[H])C([H])([H])C([H])([H])C([H])([H])C2([H])N([H])C(=O)C1([H])N(C(=O)C([H])(N([H])C(=O)C([H])(N([H])C([H])([H])[H])C([H])([H])[H])C(C([H])([H])[H])(C([H])([H])[H])C([H])([H])[H])C([H])([H])c2c([H])c(OC([H])([H])C([H])([H])C([H])([H])C([H])([H])C([H])(C([H])(N([H])C(=O)N3C([H])([H])C([H])([H])C([H])([H])C([H])(n4nc(-c5c([H])c([H])c(Oc6c([H])c([H])c(F)c([H])c6F)c([H])c5[H])c(C(=O)N([H])[H])c4N([H])[H])C3([H])[H])C([H])(C([H])([H])[H])C([H])([H])[H])[N+]3([H])C([H])([H])C([H])([H])C([H])([H])C3([H])[H])c([H])c([H])c2C1([H])[H]

$$$$
61:0:0
     RDKit          3D

 95102  0  0  1  0  0  0  0  0999 V2000
  -28.8160  -22.2650   19.7460 C   0  0  0  0  0  0  0  0  0  0  0  0
  -29.4620  -23.1290   17.5060 C   0  0  0  0  0  0  0  0  0  0  0  0
  -29.7890  -22.5880   18.6950 N   0  0  0  0  0  4  0  0  0  0  0  0
  -28.3030  -23.4490   17.2320 O   0  0  0  0  0  0  0  0  0  0  0  0
  -30.7600  -22.3610   18.8580 H   0  0  0  0  0  0  0  0  0  0  0  0
  -31.9100  -23.7190   17.1090 C   0  0  0  0  0  1  0  0  0  0  0  0
  -30.7400  -21.9650   15.7000 C   0  0  0  0  0  1  0  0  0  0  0  0
  -30.1800  -24.3930   15.4250 C   0  0  0  0  0  1  0  0  0  0  0  0
  -30.5770  -23.3020   16.4490 C   0  0  1  0  0  0  0  0  0  0  0  0
  -28.2030  -23.9610   20.4120 C   0  0  0  0  0  2  0  0  0  0  0  0
  -28.2940  -25.6880   20.2030 O   0  0  0  0  0  0  0  0  0  0  0  0
  -24.6330  -31.8550   23.1810 C   0  0  0  0  0  0  0  0  0  0  0  0
  -27.2800  -26.8450   20.2350 C   0  0  0  0  0  0  0  0  0  0  0  0
  -23.4950  -30.4410   21.5260 C   0  0  0  0  0  3  0  0  0  0  0  0
  -24.9860  -28.8180   20.1450 C   0  0  0  0  0  0  0  0  0  0  0  0
  -26.0710  -30.6280   21.4500 C   0  0  0  0  0  2  0  0  0  0  0  0
  -26.1670  -29.1990   20.7940 C   0  0  0  0  0  0  0  0  0  0  0  0
  -27.3050  -28.2410   20.8010 C   0  0  0  0  0  3  0  0  0  0  0  0
  -26.0590  -26.6540   19.5440 C   0  0  0  0  0  3  0  0  0  0  0  0
  -24.9680  -27.5700   19.4950 C   0  0  0  0  0  3  0  0  0  0  0  0
  -23.7690  -29.7520   20.1600 C   0  0  0  0  0  2  0  0  0  0  0  0
  -24.7550  -31.0060   22.1040 N   0  0  0  0  0  0  0  0  0  0  0  0
  -23.5280  -32.1390   23.6720 O   0  0  0  0  0  0  0  0  0  0  0  0
  -22.7780  -29.4490   22.4820 C   0  0  0  0  0  0  0  0  0  0  0  0
  -21.4450  -29.3010   22.3510 N   0  0  0  0  0  0  0  0  0  0  0  0
  -23.4300  -28.8110   23.3110 O   0  0  0  0  0  0  0  0  0  0  0  0
  -20.9690  -29.8680   21.6630 H   0  0  0  0  0  0  0  0  0  0  0  0
  -18.0440  -28.1360   22.8830 C   0  0  0  0  0  0  0  0  0  0  0  0
  -20.6120  -28.3600   23.1110 C   0  0  0  0  0  3  0  0  0  0  0  0
  -20.6830  -26.9390   22.5030 C   0  0  0  0  0  2  0  0  0  0  0  0
  -19.5620  -26.6590   21.4970 C   0  0  0  0  0  2  0  0  0  0  0  0
  -18.1920  -26.8040   22.1650 C   0  0  0  0  0  2  0  0  0  0  0  0
  -19.1800  -28.8740   23.3110 C   0  0  0  0  0  0  0  0  0  0  0  0
  -18.9860  -30.1180   23.9480 C   0  0  0  0  0  3  0  0  0  0  0  0
  -17.6880  -30.6260   24.1560 C   0  0  0  0  0  3  0  0  0  0  0  0
  -16.5680  -29.8870   23.7390 C   0  0  0  0  0  3  0  0  0  0  0  0
  -16.7470  -28.6430   23.1090 C   0  0  0  0  0  3  0  0  0  0  0  0
  -25.8770  -32.5230   23.8440 C   0  0  0  0  0  3  0  0  0  0  0  0
  -25.5350  -33.9240   24.1490 N   0  0  0  0  0  0  0  0  0  0  0  0
  -25.8910  -34.9840   23.4090 C   0  0  0  0  0  0  0  0  0  0  0  0
  -26.6010  -34.8830   22.4050 O   0  0  0  0  0  0  0  0  0  0  0  0
  -24.9060  -34.0720   24.9230 H   0  0  0  0  0  0  0  0  0  0  0  0
  -24.1750  -36.7830   23.0030 C   0  0  0  0  0  1  0  0  0  0  0  0
  -25.3890  -36.3740   23.8520 C   0  0  0  0  0  3  0  0  0  0  0  0
  -27.4890  -37.2690   24.7590 C   0  0  0  0  0  1  0  0  0  0  0  0
  -26.4220  -37.4310   23.7750 N   0  0  0  0  0  0  0  0  0  0  0  0
  -26.0100  -38.3500   23.9090 H   0  0  0  0  0  0  0  0  0  0  0  0
  -26.3390  -31.7880   25.1640 C   0  0  1  0  0  0  0  0  0  0  0  0
  -25.2020  -31.5690   26.1900 C   0  0  0  0  0  1  0  0  0  0  0  0
  -26.9500  -30.4050   24.8450 C   0  0  0  0  0  1  0  0  0  0  0  0
  -27.4570  -32.6080   25.8490 C   0  0  0  0  0  1  0  0  0  0  0  0
  -29.1030  -20.4470   20.3420 C   0  0  0  0  0  3  0  0  0  0  0  0
  -27.9460  -20.1170   21.1870 N   0  0  0  0  0  4  0  0  0  0  0  0
  -27.1460  -19.9090   20.6180 H   0  0  0  0  0  0  0  0  0  0  0  0
  -27.7220  -20.8870   21.7880 H   0  0  0  0  0  0  0  0  0  0  0  0
  -28.1500  -19.3190   21.7590 H   0  0  0  0  0  0  0  0  0  0  0  0
  -29.7240  -18.7530   19.6750 C   0  0  0  0  0  2  0  0  0  0  0  0
  -30.4390  -15.6800   19.8830 C   0  0  0  0  0  0  0  0  0  0  0  0
  -30.4530  -13.1680   19.0230 C   0  0  0  0  0  2  0  0  0  0  0  0
  -29.4870  -12.8510   17.8470 C   0  0  0  0  0  2  0  0  0  0  0  0
  -28.0810  -12.5150   18.3660 C   0  0  0  0  0  2  0  0  0  0  0  0
  -27.6550  -13.4820   19.4950 C   0  0  0  0  0  3  0  0  0  0  0  0
  -28.7510  -13.7200   20.5590 C   0  0  0  0  0  2  0  0  0  0  0  0
  -29.9060  -14.3250   19.8610 N   0  0  0  0  0  0  0  0  0  0  0  0
  -31.6420  -15.6360   19.5680 O   0  0  0  0  0  0  0  0  0  0  0  0
  -29.6950  -17.0250   20.0630 N   0  0  0  0  0  0  0  0  0  0  0  0
  -28.7630  -16.7860   20.3770 H   0  0  0  0  0  0  0  0  0  0  0  0
  -25.3390  -14.0120   20.3950 C   0  0  0  0  0  0  0  0  0  0  0  0
  -24.2970  -13.2290   20.8030 C   0  0  0  0  0  0  0  0  0  0  0  0
  -24.7600  -11.8780   20.7190 C   0  0  0  0  0  0  0  0  0  0  0  0
  -26.3640  -13.1430   20.0750 N   0  0  0  0  0  0  0  0  0  0  0  0
  -26.0330  -11.8500   20.3380 N   0  0  0  0  0  0  0  0  0  0  0  0
  -24.0370  -10.6150   20.9220 C   0  0  0  0  0  0  0  0  0  0  0  0
  -24.4880   -9.6460   21.8460 C   0  0  0  0  0  3  0  0  0  0  0  0
  -23.7620   -8.4500   22.0400 C   0  0  0  0  0  3  0  0  0  0  0  0
  -22.5730   -8.2150   21.3090 C   0  0  0  0  0  0  0  0  0  0  0  0
  -22.1410   -9.1720   20.3750 C   0  0  0  0  0  3  0  0  0  0  0  0
  -22.8660  -10.3600   20.1800 C   0  0  0  0  0  3  0  0  0  0  0  0
  -21.8190   -7.0700   21.4130 O   0  0  0  0  0  0  0  0  0  0  0  0
  -21.7690   -6.3440   22.5760 C   0  0  0  0  0  0  0  0  0  0  0  0
  -21.3150   -6.9080   23.7870 C   0  0  0  0  0  3  0  0  0  0  0  0
  -21.2120   -6.1070   24.9420 C   0  0  0  0  0  3  0  0  0  0  0  0
  -21.5540   -4.7420   24.8860 C   0  0  0  0  0  0  0  0  0  0  0  0
  -21.9990   -4.1770   23.6780 C   0  0  0  0  0  3  0  0  0  0  0  0
  -22.1040   -4.9750   22.5260 C   0  0  0  0  0  0  0  0  0  0  0  0
  -22.5140   -4.4210   21.3590 F   0  0  0  0  0  0  0  0  0  0  0  0
  -21.4470   -3.9700   25.9930 F   0  0  0  0  0  0  0  0  0  0  0  0
  -22.9180  -13.7050   21.1480 C   0  0  0  0  0  0  0  0  0  0  0  0
  -22.2270  -12.9960   22.0340 N   0  0  0  0  0  0  0  0  0  0  0  0
  -22.4640  -14.7420   20.6690 O   0  0  0  0  0  0  0  0  0  0  0  0
  -22.6130  -12.1590   22.4460 H   0  0  0  0  0  0  0  0  0  0  0  0
  -21.3030  -13.2990   22.3080 H   0  0  0  0  0  0  0  0  0  0  0  0
  -25.4940  -15.3850   20.2360 N   0  0  0  0  0  0  0  0  0  0  0  0
  -24.7220  -16.0270   20.3790 H   0  0  0  0  0  0  0  0  0  0  0  0
  -26.3050  -15.8240   19.8220 H   0  0  0  0  0  0  0  0  0  0  0  0
  1 52  1  0
  1 10  1  0
  2  3  1  0
  3  5  1  0
  3  1  2  0
  4  2  2  0
  9  7  1  6
  8  9  1  0
  9  6  1  0
  9  2  1  0
 11 13  1  0
 11 10  1  0
 12 23  2  0
 13 18  1  0
 14 22  1  0
 14 24  1  0
 15 21  1  0
 15 17  1  0
 16 22  1  0
 17 18  2  0
 17 16  1  0
 19 13  2  0
 20 19  1  0
 20 15  2  0
 21 14  1  0
 22 12  1  0
 24 26  2  0
 25 24  1  0
 27 25  1  0
 28 37  2  0
 28 33  1  0
 29 25  1  0
 29 33  1  0
 30 29  1  0
 31 32  1  0
 31 30  1  0
 32 28  1  0
 33 34  2  0
 34 35  1  0
 36 35  2  0
 37 36  1  0
 38 12  1  0
 38 39  1  0
 38 48  1  0
 39 42  1  0
 40 44  1  0
 40 39  1  0
 41 40  2  0
 44 43  1  0
 46 44  1  0
 46 47  1  0
 46 45  1  0
 48 51  1  1
 48 49  1  0
 50 48  1  0
 52 57  1  0
 52 53  1  0
 53 56  1  0
 53 55  1  0
 54 53  1  0
 57 66  1  0
 58 66  1  0
 59 64  1  0
 60 61  1  0
 60 59  1  0
 62 61  1  0
 62 71  1  0
 62 63  1  0
 64 58  1  0
 64 63  1  0
 65 58  2  0
 66 67  1  0
 68 69  2  0
 69 88  1  0
 70 69  1  0
 70 73  1  0
 71 72  1  0
 71 68  1  0
 72 70  2  0
 73 74  1  0
 74 75  2  0
 76 79  1  0
 76 75  1  0
 77 76  2  0
 78 77  1  0
 78 73  2  0
 79 80  1  0
 80 81  1  0
 81 82  2  0
 83 82  1  0
 83 87  1  0
 84 83  2  0
 85 80  2  0
 85 84  1  0
 86 85  1  0
 88 89  1  0
 89 92  1  0
 89 91  1  0
 90 88  2  0
 93 94  1  0
 93 68  1  0
 95 93  1  0
M  ISO  4  10 101  11 101  58 100  66 100
M  END
>  <TORSDO>  (62) 
F 22

>  <SCORE>  (62) 
-15.736

>  <name>  (62) 
61

>  <ligand_id>  (62) 
61

>  <original_smiles>  (62) 
[H]c1c([H])c([H])c2c(c1[H])C([H])([H])C([H])([H])C([H])([H])C2([H])N([H])C(=O)C1([H])N(C(=O)C([H])(N([H])C(=O)C([H])(N([H])C([H])([H])[H])C([H])([H])[H])C(C([H])([H])[H])(C([H])([H])[H])C([H])([H])[H])C([H])([H])c2c([H])c(OC([H])([H])C([H])(N([H])C(=O)C(C([H])([H])[H])(C([H])([H])[H])C([H])([H])[H])C([H])(C([H])([H])N([H])C(=O)N3C([H])([H])C([H])([H])C([H])([H])C([H])(n4nc(-c5c([H])c([H])c(Oc6c([H])c([H])c(F)c([H])c6F)c([H])c5[H])c(C(=O)N([H])[H])c4N([H])[H])C3([H])[H])[N+]([H])([H])[H])c([H])c([H])c2C1([H])[H]

>  <smiles>  (62) 
[H]c1c([H])c([H])c2c(c1[H])C([H])([H])C([H])([H])C([H])([H])C2([H])N([H])C(=O)C1([H])N(C(=O)C([H])(N([H])C(=O)C([H])(N([H])C([H])([H])[H])C([H])([H])[H])C(C([H])([H])[H])(C([H])([H])[H])C([H])([H])[H])C([H])([H])c2c([H])c(OC([H])([H])C([H])(N([H])C(=O)C(C([H])([H])[H])(C([H])([H])[H])C([H])([H])[H])C([H])(C([H])([H])N([H])C(=O)N3C([H])([H])C([H])([H])C([H])([H])C([H])(n4nc(-c5c([H])c([H])c(Oc6c([H])c([H])c(F)c([H])c6F)c([H])c5[H])c(C(=O)N([H])[H])c4N([H])[H])C3([H])[H])[N+]([H])([H])[H])c([H])c([H])c2C1([H])[H]

$$$$
62:0:0
     RDKit          3D

113117  0  0  1  0  0  0  0  0999 V2000
  -26.6130  -16.6200   18.7600 C   0  0  0  0  0  2  0  0  0  0  0  0
  -26.6150  -18.0210   18.2250 N   0  0  0  0  0  4  0  0  0  0  0  0
  -27.3230  -18.0850   17.5140 H   0  0  0  0  0  0  0  0  0  0  0  0
  -25.7260  -18.1930   17.7840 H   0  0  0  0  0  0  0  0  0  0  0  0
  -26.8710  -19.0930   19.2420 C   0  0  0  0  0  2  0  0  0  0  0  0
  -26.9800  -20.5510   18.6690 C   0  0  0  0  0  2  0  0  0  0  0  0
  -27.6500  -21.5870   19.6300 C   0  0  0  0  0  3  0  0  0  0  0  0
  -27.8430  -23.0430   19.0660 C   0  0  0  0  0  3  0  0  0  0  0  0
  -28.7780  -24.0320   19.8720 C   0  0  0  0  0  3  0  0  0  0  0  0
  -31.0020  -23.2060   18.8140 C   0  0  0  0  0  1  0  0  0  0  0  0
  -30.1940  -23.3960   20.1270 C   0  0  0  0  0  3  0  0  0  0  0  0
  -32.0420  -22.8640   21.7880 C   0  0  0  0  0  1  0  0  0  0  0  0
  -31.9100  -25.1900   20.9250 C   0  0  0  0  0  1  0  0  0  0  0  0
  -30.1770  -24.3030   22.5310 C   0  0  0  0  0  1  0  0  0  0  0  0
  -31.0590  -23.9590   21.3130 C   0  0  1  0  0  0  0  0  0  0  0  0
  -28.8480  -25.4750   19.2350 C   0  0  0  0  0  2  0  0  0  0  0  0
  -28.7890  -26.6180   20.1430 O   0  0  0  0  0  0  0  0  0  0  0  0
  -24.9260  -31.6480   23.5840 C   0  0  0  0  0  0  0  0  0  0  0  0
  -27.6080  -27.3350   20.2630 C   0  0  0  0  0  0  0  0  0  0  0  0
  -23.7390  -30.2910   21.9000 C   0  0  0  0  0  3  0  0  0  0  0  0
  -25.2030  -28.8310   20.4140 C   0  0  0  0  0  0  0  0  0  0  0  0
  -26.2690  -30.6760   21.7140 C   0  0  0  0  0  2  0  0  0  0  0  0
  -26.3670  -29.3330   21.0090 C   0  0  0  0  0  0  0  0  0  0  0  0
  -27.5740  -28.5900   20.9330 C   0  0  0  0  0  3  0  0  0  0  0  0
  -26.4020  -26.8390   19.7210 C   0  0  0  0  0  3  0  0  0  0  0  0
  -25.2140  -27.5800   19.7800 C   0  0  0  0  0  3  0  0  0  0  0  0
  -23.9550  -29.6780   20.4950 C   0  0  0  0  0  2  0  0  0  0  0  0
  -24.9970  -30.8880   22.4560 N   0  0  0  0  0  0  0  0  0  0  0  0
  -23.8390  -31.8820   24.1350 O   0  0  0  0  0  0  0  0  0  0  0  0
  -23.1100  -29.2190   22.8190 C   0  0  0  0  0  0  0  0  0  0  0  0
  -21.8150  -28.9340   22.6130 N   0  0  0  0  0  0  0  0  0  0  0  0
  -23.7890  -28.6460   23.6780 O   0  0  0  0  0  0  0  0  0  0  0  0
  -21.3250  -29.4570   21.8990 H   0  0  0  0  0  0  0  0  0  0  0  0
  -18.5460  -27.4040   22.8340 C   0  0  0  0  0  0  0  0  0  0  0  0
  -21.0260  -27.9340   23.3340 C   0  0  0  0  0  3  0  0  0  0  0  0
  -21.3280  -26.5070   22.8200 C   0  0  0  0  0  2  0  0  0  0  0  0
  -20.3680  -26.0460   21.7190 C   0  0  0  0  0  2  0  0  0  0  0  0
  -18.9230  -26.0640   22.2260 C   0  0  0  0  0  2  0  0  0  0  0  0
  -19.5350  -28.2900   23.3400 C   0  0  0  0  0  0  0  0  0  0  0  0
  -19.1330  -29.5380   23.8630 C   0  0  0  0  0  3  0  0  0  0  0  0
  -17.7750  -29.9050   23.8870 C   0  0  0  0  0  3  0  0  0  0  0  0
  -16.7990  -29.0180   23.3990 C   0  0  0  0  0  3  0  0  0  0  0  0
  -17.1850  -27.7700   22.8790 C   0  0  0  0  0  3  0  0  0  0  0  0
  -26.1980  -32.2840   24.2250 C   0  0  0  0  0  3  0  0  0  0  0  0
  -26.6700  -31.5440   25.5370 C   0  0  1  0  0  0  0  0  0  0  0  0
  -25.5440  -31.3390   26.5770 C   0  0  0  0  0  1  0  0  0  0  0  0
  -27.2560  -30.1540   25.1990 C   0  0  0  0  0  1  0  0  0  0  0  0
  -27.8030  -32.3520   26.2130 C   0  0  0  0  0  1  0  0  0  0  0  0
  -25.8960  -33.6940   24.5060 N   0  0  0  0  0  0  0  0  0  0  0  0
  -26.3070  -34.7240   23.7540 C   0  0  0  0  0  0  0  0  0  0  0  0
  -27.0490  -34.5870   22.7780 O   0  0  0  0  0  0  0  0  0  0  0  0
  -25.2490  -33.8760   25.2580 H   0  0  0  0  0  0  0  0  0  0  0  0
  -24.6770  -36.5620   23.2140 C   0  0  0  0  0  1  0  0  0  0  0  0
  -25.8180  -36.1310   24.1500 C   0  0  0  0  0  3  0  0  0  0  0  0
  -27.8870  -36.9610   25.1820 C   0  0  0  0  0  1  0  0  0  0  0  0
  -26.8890  -37.1520   24.1330 N   0  0  0  0  0  0  0  0  0  0  0  0
  -26.4980  -38.0860   24.2330 H   0  0  0  0  0  0  0  0  0  0  0  0
  -27.0830  -15.5190   17.7510 C   0  0  0  0  0  2  0  0  0  0  0  0
  -27.6050  -14.1910   18.4000 C   0  0  0  0  0  3  0  0  0  0  0  0
  -27.9800  -13.0510   17.3870 C   0  0  0  0  0  3  0  0  0  0  0  0
  -27.8940  -10.9190   18.8370 C   0  0  0  0  0  0  0  0  0  0  0  0
  -28.4630  -11.7460   17.9250 N   0  0  0  0  0  0  0  0  0  0  0  0
  -26.7790  -11.1740   19.2820 O   0  0  0  0  0  0  0  0  0  0  0  0
  -29.3500  -11.4430   17.5430 H   0  0  0  0  0  0  0  0  0  0  0  0
  -28.6010   -9.5780   19.2750 C   0  0  0  0  0  3  0  0  0  0  0  0
  -28.5870   -8.5760   18.0790 C   0  0  0  0  0  2  0  0  0  0  0  0
  -27.2460   -8.0810   17.7050 N   0  0  0  0  0  4  0  0  0  0  0  0
  -26.8550   -7.5400   18.4550 H   0  0  0  0  0  0  0  0  0  0  0  0
  -27.3260   -7.4850   16.9000 H   0  0  0  0  0  0  0  0  0  0  0  0
  -26.6120   -8.8280   17.4770 H   0  0  0  0  0  0  0  0  0  0  0  0
  -30.0410   -9.6390   19.9490 C   0  0  0  0  0  2  0  0  0  0  0  0
  -30.2020   -9.5080   21.5170 C   0  0  0  0  0  2  0  0  0  0  0  0
  -31.1360  -10.3960   23.7190 C   0  0  0  0  0  1  0  0  0  0  0  0
  -32.6030   -9.2300   22.0730 C   0  0  0  0  0  1  0  0  0  0  0  0
  -31.4290  -10.2160   22.2190 C   0  0  1  0  0  0  0  0  0  0  0  0
  -32.6070  -12.8930   21.4840 C   0  0  2  0  0  0  0  0  0  0  0  0
  -33.7410  -11.9480   20.8790 C   0  0  0  0  0  1  0  0  0  0  0  0
  -32.6600  -11.9820   19.3010 C   0  0  0  0  0  1  0  0  0  0  0  0
  -31.0260  -12.7040   19.4230 C   0  0  0  0  0  2  0  0  0  0  0  0
  -30.4110  -13.5950   20.8310 C   0  0  0  0  0  2  0  0  0  0  0  0
  -31.4590  -13.6060   22.3980 C   0  0  0  0  0  1  0  0  0  0  0  0
  -33.0270  -12.7370   22.3450 N   0  0  0  0  0  1  0  0  0  0  0  0
  -33.0690  -14.0490   20.8610 O   0  0  0  0  0  1  0  0  0  0  0  0
  -31.6550  -11.5410   21.5580 N   0  0  0  0  0  2  0  0  0  0  0  0
  -31.0280  -11.6000   20.7700 H   0  0  0  0  0  0  0  0  0  0  0  0
  -28.0020  -14.3260   21.3210 C   0  0  0  0  0  0  0  0  0  0  0  0
  -26.8080  -13.6850   21.5110 C   0  0  0  0  0  0  0  0  0  0  0  0
  -27.0660  -12.2930   21.3380 C   0  0  0  0  0  0  0  0  0  0  0  0
  -28.9600  -13.3610   21.0840 N   0  0  0  0  0  0  0  0  0  0  0  0
  -28.3820  -12.1200   21.1290 N   0  0  0  0  0  0  0  0  0  0  0  0
  -26.1050  -11.1520   21.3370 C   0  0  0  0  0  0  0  0  0  0  0  0
  -26.3060   -9.9910   22.1200 C   0  0  0  0  0  3  0  0  0  0  0  0
  -25.3540   -8.9440   22.1300 C   0  0  0  0  0  3  0  0  0  0  0  0
  -24.1680   -9.0520   21.3650 C   0  0  0  0  0  0  0  0  0  0  0  0
  -23.9710  -10.2040   20.5820 C   0  0  0  0  0  3  0  0  0  0  0  0
  -24.9280  -11.2350   20.5650 C   0  0  0  0  0  3  0  0  0  0  0  0
  -23.1990   -8.0770   21.2840 O   0  0  0  0  0  0  0  0  0  0  0  0
  -22.6740   -7.4890   22.4090 C   0  0  0  0  0  0  0  0  0  0  0  0
  -22.1150   -8.2500   23.4560 C   0  0  0  0  0  3  0  0  0  0  0  0
  -21.5240   -7.6040   24.5630 C   0  0  0  0  0  3  0  0  0  0  0  0
  -21.4830   -6.2000   24.6210 C   0  0  0  0  0  0  0  0  0  0  0  0
  -22.0320   -5.4380   23.5750 C   0  0  0  0  0  3  0  0  0  0  0  0
  -22.6260   -6.0780   22.4730 C   0  0  0  0  0  0  0  0  0  0  0  0
  -23.1400   -5.3360   21.4620 F   0  0  0  0  0  0  0  0  0  0  0  0
  -20.9130   -5.5810   25.6790 F   0  0  0  0  0  0  0  0  0  0  0  0
  -25.4920  -14.3580   21.7690 C   0  0  0  0  0  0  0  0  0  0  0  0
  -24.6260  -13.7300   22.5560 N   0  0  0  0  0  0  0  0  0  0  0  0
  -25.2520  -15.4780   21.3260 O   0  0  0  0  0  0  0  0  0  0  0  0
  -24.8460  -12.8380   22.9710 H   0  0  0  0  0  0  0  0  0  0  0  0
  -23.7370  -14.1610   22.7640 H   0  0  0  0  0  0  0  0  0  0  0  0
  -28.3520  -15.6670   21.3600 N   0  0  0  0  0  0  0  0  0  0  0  0
  -27.6510  -16.3430   21.6370 H   0  0  0  0  0  0  0  0  0  0  0  0
  -29.2920  -16.0280   21.4190 H   0  0  0  0  0  0  0  0  0  0  0  0
  2  1  1  0
  2  5  1  0
  3  2  1  0
  4  2  1  0
  6  5  1  0
  6  7  1  0
  8  7  2  0
  9  8  1  0
  9 11  1  0
 11 10  1  0
 11 15  1  0
 15 13  1  6
 15 12  1  0
 15 14  1  0
 16  9  1  0
 16 17  1  0
 17 19  1  0
 18 29  2  0
 19 24  1  0
 20 28  1  0
 20 30  1  0
 21 27  1  0
 21 23  1  0
 22 28  1  0
 23 22  1  0
 24 23  2  0
 25 26  1  0
 25 19  2  0
 26 21  2  0
 27 20  1  0
 28 18  1  0
 30 32  2  0
 31 30  1  0
 33 31  1  0
 34 43  2  0
 34 39  1  0
 35 31  1  0
 35 39  1  0
 36 35  1  0
 37 38  1  0
 37 36  1  0
 38 34  1  0
 39 40  2  0
 40 41  1  0
 42 41  2  0
 43 42  1  0
 44 18  1  0
 44 49  1  0
 44 45  1  0
 45 48  1  1
 45 46  1  0
 47 45  1  0
 49 52  1  0
 50 54  1  0
 50 49  1  0
 51 50  2  0
 54 53  1  0
 56 54  1  0
 56 57  1  0
 56 55  1  0
 58 59  1  0
 58  1  1  0
 60 62  1  0
 60 59  2  0
 61 65  1  0
 61 63  2  0
 62 61  1  0
 64 62  1  0
 65 66  1  0
 65 71  1  0
 67 66  1  0
 67 68  1  0
 69 67  1  0
 70 67  1  0
 71 72  1  0
 72 75  1  0
 75 74  1  1
 75 73  1  0
 76 82  1  0
 76 81  1  1
 77 76  1  0
 78 79  1  0
 79 80  1  0
 80 89  1  0
 83 76  1  0
 84 75  1  0
 85 84  1  0
 86111  1  0
 86 87  2  0
 87106  1  0
 88 87  1  0
 89 90  1  0
 89 86  1  0
 90 88  2  0
 91 88  1  0
 91 92  1  0
 92 93  2  0
 94 93  1  0
 95 94  2  0
 96 95  1  0
 96 91  2  0
 97 94  1  0
 97 98  1  0
 98103  2  0
 98 99  1  0
 99100  2  0
100101  1  0
101105  1  0
102101  2  0
103102  1  0
104103  1  0
106107  1  0
107110  1  0
107109  1  0
108106  2  0
111113  1  0
111112  1  0
M  ISO  4  16 101  17 101  76 100  84 100
M  END
>  <TORSDO>  (63) 
F 35

>  <SCORE>  (63) 
1.930

>  <name>  (63) 
62

>  <ligand_id>  (63) 
62

>  <original_smiles>  (63) 
[H]c1c([H])c([H])c2c(c1[H])C([H])([H])C([H])([H])C([H])([H])C2([H])N([H])C(=O)C1([H])N(C(=O)C([H])(N([H])C(=O)C([H])(N([H])C([H])([H])[H])C([H])([H])[H])C(C([H])([H])[H])(C([H])([H])[H])C([H])([H])[H])C([H])([H])c2c([H])c(OC([H])([H])C([H])(C([H])([H])C([H])([H])C([H])([H])C([H])([H])[N+]([H])([H])C([H])([H])C([H])([H])C([H])([H])C([H])([H])N([H])C(=O)C([H])(C([H])([H])C([H])([H])C(N([H])C(=O)N3C([H])([H])C([H])([H])C([H])([H])C([H])(n4nc(-c5c([H])c([H])c(Oc6c([H])c([H])c(F)c([H])c6F)c([H])c5[H])c(C(=O)N([H])[H])c4N([H])[H])C3([H])[H])(C([H])([H])[H])C([H])([H])[H])C([H])([H])[N+]([H])([H])[H])C([H])(C([H])([H])[H])C(C([H])([H])[H])(C([H])([H])[H])C([H])([H])[H])c([H])c([H])c2C1([H])[H]

>  <smiles>  (63) 
[H]c1c([H])c([H])c2c(c1[H])C([H])([H])C([H])([H])C([H])([H])C2([H])N([H])C(=O)C1([H])N(C(=O)C([H])(N([H])C(=O)C([H])(N([H])C([H])([H])[H])C([H])([H])[H])C(C([H])([H])[H])(C([H])([H])[H])C([H])([H])[H])C([H])([H])c2c([H])c(OC([H])([H])C([H])(C([H])([H])C([H])([H])C([H])([H])C([H])([H])[N+]([H])([H])C([H])([H])C([H])([H])C([H])([H])C([H])([H])N([H])C(=O)C([H])(C([H])([H])C([H])([H])C(N([H])C(=O)N3C([H])([H])C([H])([H])C([H])([H])C([H])(n4nc(-c5c([H])c([H])c(Oc6c([H])c([H])c(F)c([H])c6F)c([H])c5[H])c(C(=O)N([H])[H])c4N([H])[H])C3([H])[H])(C([H])([H])[H])C([H])([H])[H])C([H])([H])[N+]([H])([H])[H])C([H])(C([H])([H])[H])C(C([H])([H])[H])(C([H])([H])[H])C([H])([H])[H])c([H])c([H])c2C1([H])[H]

$$$$
63:0:0
     RDKit          3D

 90 98  0  0  1  0  0  0  0  0999 V2000
  -29.1730  -19.0190   20.1880 C   0  0  0  0  0  0  0  0  0  0  0  0
  -29.4560  -20.4210   20.2060 N   0  0  0  0  0  0  0  0  0  0  0  0
  -27.9910  -18.6800   20.2260 O   0  0  0  0  0  0  0  0  0  0  0  0
  -30.4440  -20.6360   20.1670 H   0  0  0  0  0  0  0  0  0  0  0  0
  -30.6410  -15.0620   19.8860 C   0  0  0  0  0  0  0  0  0  0  0  0
  -30.4100  -12.7680   18.7950 C   0  0  0  0  0  2  0  0  0  0  0  0
  -29.3480  -12.7700   17.6700 C   0  0  0  0  0  2  0  0  0  0  0  0
  -27.9400  -12.5180   18.2390 C   0  0  0  0  0  2  0  0  0  0  0  0
  -27.6660  -13.3630   19.5100 C   0  0  0  0  0  3  0  0  0  0  0  0
  -28.8350  -13.2830   20.5080 C   0  0  0  0  0  2  0  0  0  0  0  0
  -30.0320  -13.7970   19.8160 N   0  0  0  0  0  0  0  0  0  0  0  0
  -31.7240  -15.1660   19.2970 O   0  0  0  0  0  0  0  0  0  0  0  0
  -31.6050  -17.6550   22.2990 C   0  0  0  0  0  2  0  0  0  0  0  0
  -30.2140  -17.2010   22.7750 C   0  0  0  0  0  2  0  0  0  0  0  0
  -31.5910  -18.1470   20.8340 C   0  0  0  0  0  2  0  0  0  0  0  0
  -29.6130  -16.1030   21.8620 C   0  0  0  0  0  2  0  0  0  0  0  0
  -30.2800  -17.7680   20.0970 C   0  0  0  0  0  3  0  0  0  0  0  0
  -30.0060  -16.2310   20.4350 N   0  0  0  0  0  0  0  0  0  0  0  0
  -25.3970  -13.8760   20.5790 C   0  0  0  0  0  0  0  0  0  0  0  0
  -24.3790  -13.0720   21.0100 C   0  0  0  0  0  0  0  0  0  0  0  0
  -24.8250  -11.7290   20.8130 C   0  0  0  0  0  0  0  0  0  0  0  0
  -26.3940  -13.0230   20.1380 N   0  0  0  0  0  0  0  0  0  0  0  0
  -26.0690  -11.7210   20.3440 N   0  0  0  0  0  0  0  0  0  0  0  0
  -24.1180  -10.4550   20.9890 C   0  0  0  0  0  0  0  0  0  0  0  0
  -24.5830   -9.4650   21.8840 C   0  0  0  0  0  3  0  0  0  0  0  0
  -23.8720   -8.2570   22.0490 C   0  0  0  0  0  3  0  0  0  0  0  0
  -22.6810   -8.0290   21.3200 C   0  0  0  0  0  0  0  0  0  0  0  0
  -22.2340   -9.0080   20.4150 C   0  0  0  0  0  3  0  0  0  0  0  0
  -22.9460  -10.2070   20.2460 C   0  0  0  0  0  3  0  0  0  0  0  0
  -21.9400   -6.8740   21.3960 O   0  0  0  0  0  0  0  0  0  0  0  0
  -21.8180   -6.1720   22.5670 C   0  0  0  0  0  0  0  0  0  0  0  0
  -21.2830   -6.7570   23.7360 C   0  0  0  0  0  3  0  0  0  0  0  0
  -21.1110   -5.9800   24.8970 C   0  0  0  0  0  3  0  0  0  0  0  0
  -21.4650   -4.6180   24.8940 C   0  0  0  0  0  0  0  0  0  0  0  0
  -21.9910   -4.0300   23.7290 C   0  0  0  0  0  3  0  0  0  0  0  0
  -22.1640   -4.8050   22.5680 C   0  0  0  0  0  0  0  0  0  0  0  0
  -22.6530   -4.2290   21.4440 F   0  0  0  0  0  0  0  0  0  0  0  0
  -21.2920   -3.8680   26.0070 F   0  0  0  0  0  0  0  0  0  0  0  0
  -23.0300  -13.5250   21.4860 C   0  0  0  0  0  0  0  0  0  0  0  0
  -22.4160  -12.7770   22.3960 N   0  0  0  0  0  0  0  0  0  0  0  0
  -22.5310  -14.5770   21.0860 O   0  0  0  0  0  0  0  0  0  0  0  0
  -22.8360  -11.9290   22.7440 H   0  0  0  0  0  0  0  0  0  0  0  0
  -21.5140  -13.0630   22.7530 H   0  0  0  0  0  0  0  0  0  0  0  0
  -25.5500  -15.2580   20.5030 N   0  0  0  0  0  0  0  0  0  0  0  0
  -24.8160  -15.8970   20.7880 H   0  0  0  0  0  0  0  0  0  0  0  0
  -26.3730  -15.7320   20.1510 H   0  0  0  0  0  0  0  0  0  0  0  0
  -28.5130  -21.7010   20.2630 C   0  0  0  0  0  2  0  0  0  0  0  0
  -28.9880  -23.3330   20.2760 C   0  0  0  0  0  3  0  0  0  0  0  0
  -27.9530  -24.6730   20.1320 C   0  0  0  0  0  3  0  0  0  0  0  0
  -28.2570  -26.2090   20.2290 O   0  0  0  0  0  0  0  0  0  0  0  0
  -24.6640  -31.9270   23.2290 C   0  0  0  0  0  0  0  0  0  0  0  0
  -27.2080  -27.2050   20.1710 C   0  0  0  0  0  0  0  0  0  0  0  0
  -23.4510  -30.5390   21.5930 C   0  0  0  0  0  3  0  0  0  0  0  0
  -24.8870  -28.9680   20.1530 C   0  0  0  0  0  0  0  0  0  0  0  0
  -26.0060  -30.8000   21.4130 C   0  0  0  0  0  2  0  0  0  0  0  0
  -26.0730  -29.4090   20.7550 C   0  0  0  0  0  0  0  0  0  0  0  0
  -27.2350  -28.5430   20.7450 C   0  0  0  0  0  3  0  0  0  0  0  0
  -25.9940  -26.8740   19.5290 C   0  0  0  0  0  3  0  0  0  0  0  0
  -24.8630  -27.7170   19.5220 C   0  0  0  0  0  3  0  0  0  0  0  0
  -23.6640  -29.8680   20.2110 C   0  0  0  0  0  2  0  0  0  0  0  0
  -24.7280  -31.1100   22.1340 N   0  0  0  0  0  0  0  0  0  0  0  0
  -23.5840  -32.2090   23.7690 O   0  0  0  0  0  0  0  0  0  0  0  0
  -22.7780  -29.5290   22.5570 C   0  0  0  0  0  0  0  0  0  0  0  0
  -21.4490  -29.3510   22.4360 N   0  0  0  0  0  0  0  0  0  0  0  0
  -23.4530  -28.9060   23.3800 O   0  0  0  0  0  0  0  0  0  0  0  0
  -20.9590  -29.9060   21.7490 H   0  0  0  0  0  0  0  0  0  0  0  0
  -18.0760  -28.1370   22.9530 C   0  0  0  0  0  0  0  0  0  0  0  0
  -20.6360  -28.4120   23.2120 C   0  0  0  0  0  3  0  0  0  0  0  0
  -20.7410  -26.9790   22.6420 C   0  0  0  0  0  2  0  0  0  0  0  0
  -19.6380  -26.6470   21.6310 C   0  0  0  0  0  2  0  0  0  0  0  0
  -18.2570  -26.7870   22.2790 C   0  0  0  0  0  2  0  0  0  0  0  0
  -19.1920  -28.9050   23.3790 C   0  0  0  0  0  0  0  0  0  0  0  0
  -18.9680  -30.1660   23.9720 C   0  0  0  0  0  3  0  0  0  0  0  0
  -17.6600  -30.6610   24.1430 C   0  0  0  0  0  3  0  0  0  0  0  0
  -16.5590  -29.8900   23.7320 C   0  0  0  0  0  3  0  0  0  0  0  0
  -16.7680  -28.6300   23.1440 C   0  0  0  0  0  3  0  0  0  0  0  0
  -25.9480  -32.5630   23.8460 C   0  0  0  0  0  3  0  0  0  0  0  0
  -26.4760  -31.7830   25.1140 C   0  0  1  0  0  0  0  0  0  0  0  0
  -25.3890  -31.5270   26.1830 C   0  0  0  0  0  1  0  0  0  0  0  0
  -27.0690  -30.4140   24.7110 C   0  0  0  0  0  1  0  0  0  0  0  0
  -27.6220  -32.5810   25.7800 C   0  0  0  0  0  1  0  0  0  0  0  0
  -25.6340  -33.9550   24.1980 N   0  0  0  0  0  0  0  0  0  0  0  0
  -25.9290  -35.0200   23.4390 C   0  0  0  0  0  0  0  0  0  0  0  0
  -26.5580  -34.9340   22.3830 O   0  0  0  0  0  0  0  0  0  0  0  0
  -25.0720  -34.0950   25.0250 H   0  0  0  0  0  0  0  0  0  0  0  0
  -24.1640  -36.7970   23.1880 C   0  0  0  0  0  1  0  0  0  0  0  0
  -25.4500  -36.4020   23.9310 C   0  0  0  0  0  3  0  0  0  0  0  0
  -27.6120  -37.3130   24.6580 C   0  0  0  0  0  1  0  0  0  0  0  0
  -26.4610  -37.4690   23.7710 N   0  0  0  0  0  0  0  0  0  0  0  0
  -26.0510  -38.3830   23.9430 H   0  0  0  0  0  0  0  0  0  0  0  0
  1  2  1  0
  1  3  2  0
  2 47  1  0
  4  2  1  0
  5 18  1  0
  6 11  1  0
  7  8  1  0
  7  6  1  0
  9  8  1  0
  9 22  1  0
  9 10  1  0
 11  5  1  0
 11 10  1  0
 12  5  2  0
 13 14  1  0
 15 13  1  0
 16 14  1  0
 17  1  1  0
 17 18  1  0
 17 15  1  0
 18 16  1  0
 19 20  2  0
 20 39  1  0
 21 24  1  0
 21 20  1  0
 22 23  1  0
 22 19  1  0
 23 21  2  0
 24 25  1  0
 25 26  2  0
 27 30  1  0
 27 26  1  0
 28 27  2  0
 29 28  1  0
 29 24  2  0
 30 31  1  0
 31 36  2  0
 31 32  1  0
 32 33  2  0
 34 33  1  0
 34 38  1  0
 35 34  2  0
 36 35  1  0
 37 36  1  0
 39 40  1  0
 40 42  1  0
 40 43  1  0
 41 39  2  0
 44 19  1  0
 44 45  1  0
 46 44  1  0
 47 48  1  0
 49 50  1  0
 49 48  2  0
 51 62  2  0
 52 50  1  0
 52 57  1  0
 53 61  1  0
 53 63  1  0
 54 60  1  0
 54 56  1  0
 55 61  1  0
 56 55  1  0
 57 56  2  0
 58 52  2  0
 59 58  1  0
 59 54  2  0
 60 53  1  0
 61 51  1  0
 63 65  2  0
 64 63  1  0
 66 64  1  0
 67 76  2  0
 67 72  1  0
 68 64  1  0
 68 72  1  0
 69 68  1  0
 70 71  1  0
 70 69  1  0
 71 67  1  0
 72 73  2  0
 73 74  1  0
 75 74  2  0
 76 75  1  0
 77 51  1  0
 77 82  1  0
 77 78  1  0
 78 81  1  1
 78 79  1  0
 80 78  1  0
 82 85  1  0
 83 87  1  0
 83 82  1  0
 84 83  2  0
 87 86  1  0
 89 87  1  0
 89 90  1  0
 89 88  1  0
M  ISO  4   5 100  18 100  49 101  50 101
M  END
>  <TORSDO>  (64) 
F 19

>  <SCORE>  (64) 
-13.801

>  <name>  (64) 
63

>  <ligand_id>  (64) 
63

>  <original_smiles>  (64) 
[H]c1c([H])c([H])c2c(c1[H])C([H])([H])C([H])([H])C([H])([H])C2([H])N([H])C(=O)C1([H])N(C(=O)C([H])(N([H])C(=O)C([H])(N([H])C([H])([H])[H])C([H])([H])[H])C(C([H])([H])[H])(C([H])([H])[H])C([H])([H])[H])C([H])([H])c2c([H])c(OC([H])([H])C([H])([H])C([H])([H])N([H])C(=O)C3([H])N(C(=O)N4C([H])([H])C([H])([H])C([H])([H])C([H])(n5nc(-c6c([H])c([H])c(Oc7c([H])c([H])c(F)c([H])c7F)c([H])c6[H])c(C(=O)N([H])[H])c5N([H])[H])C4([H])[H])C([H])([H])C([H])([H])C([H])([H])C3([H])[H])c([H])c([H])c2C1([H])[H]

>  <smiles>  (64) 
[H]c1c([H])c([H])c2c(c1[H])C([H])([H])C([H])([H])C([H])([H])C2([H])N([H])C(=O)C1([H])N(C(=O)C([H])(N([H])C(=O)C([H])(N([H])C([H])([H])[H])C([H])([H])[H])C(C([H])([H])[H])(C([H])([H])[H])C([H])([H])[H])C([H])([H])c2c([H])c(OC([H])([H])C([H])([H])C([H])([H])N([H])C(=O)C3([H])N(C(=O)N4C([H])([H])C([H])([H])C([H])([H])C([H])(n5nc(-c6c([H])c([H])c(Oc7c([H])c([H])c(F)c([H])c7F)c([H])c6[H])c(C(=O)N([H])[H])c5N([H])[H])C4([H])[H])C([H])([H])C([H])([H])C([H])([H])C3([H])[H])c([H])c([H])c2C1([H])[H]

$$$$
64:0:0
     RDKit          3D

102109  0  0  1  0  0  0  0  0999 V2000
  -26.2940  -23.4310   17.3070 C   0  0  0  0  0  2  0  0  0  0  0  0
  -25.3280  -22.3370   17.8210 C   0  0  0  0  0  2  0  0  0  0  0  0
  -25.7560  -21.6960   19.0890 N   0  0  0  0  0  4  0  0  0  0  0  0
  -26.4060  -22.2700   19.6020 H   0  0  0  0  0  0  0  0  0  0  0  0
  -24.9220  -21.6530   19.6560 H   0  0  0  0  0  0  0  0  0  0  0  0
  -26.2490  -20.3020   18.9990 C   0  0  0  0  0  2  0  0  0  0  0  0
  -27.7540  -20.1940   19.3090 C   0  0  0  0  0  2  0  0  0  0  0  0
  -28.2020  -18.7370   19.5530 C   0  0  0  0  0  2  0  0  0  0  0  0
  -29.6830  -18.6440   19.9630 C   0  0  0  0  0  2  0  0  0  0  0  0
  -30.0220  -17.3350   20.5610 N   0  0  0  0  0  4  0  0  0  0  0  0
  -29.7040  -16.6030   19.9510 H   0  0  0  0  0  0  0  0  0  0  0  0
  -29.5470  -17.2300   21.4440 H   0  0  0  0  0  0  0  0  0  0  0  0
  -31.4710  -17.1470   20.7900 C   0  0  0  0  0  2  0  0  0  0  0  0
  -31.7840  -15.8090   21.4850 C   0  0  0  0  0  2  0  0  0  0  0  0
  -31.2090  -13.9950   19.8570 C   0  0  0  0  0  0  0  0  0  0  0  0
  -30.6600  -11.8810   18.7180 C   0  0  0  0  0  2  0  0  0  0  0  0
  -29.6410  -12.0610   17.5800 C   0  0  0  0  0  2  0  0  0  0  0  0
  -28.2010  -12.0090   18.1200 C   0  0  0  0  0  2  0  0  0  0  0  0
  -27.9900  -12.9520   19.3310 C   0  0  0  0  0  3  0  0  0  0  0  0
  -29.0960  -12.7360   20.3850 C   0  0  0  0  0  2  0  0  0  0  0  0
  -30.4120  -12.9070   19.7350 N   0  0  0  0  0  0  0  0  0  0  0  0
  -32.1320  -14.2740   19.0860 O   0  0  0  0  0  0  0  0  0  0  0  0
  -30.9840  -14.6990   20.9710 N   0  0  0  0  0  0  0  0  0  0  0  0
  -30.2560  -14.3400   21.5750 H   0  0  0  0  0  0  0  0  0  0  0  0
  -25.7110  -13.7510   20.2350 C   0  0  0  0  0  0  0  0  0  0  0  0
  -24.6160  -13.0650   20.6790 C   0  0  0  0  0  0  0  0  0  0  0  0
  -24.9540  -11.6790   20.5880 C   0  0  0  0  0  0  0  0  0  0  0  0
  -26.6570  -12.7900   19.9090 N   0  0  0  0  0  0  0  0  0  0  0  0
  -26.2060  -11.5380   20.1740 N   0  0  0  0  0  0  0  0  0  0  0  0
  -24.1410  -10.4780   20.8180 C   0  0  0  0  0  0  0  0  0  0  0  0
  -24.5290   -9.4850   21.7460 C   0  0  0  0  0  3  0  0  0  0  0  0
  -23.7210   -8.3500   21.9600 C   0  0  0  0  0  3  0  0  0  0  0  0
  -22.5080   -8.1960   21.2470 C   0  0  0  0  0  0  0  0  0  0  0  0
  -22.1360   -9.1760   20.3070 C   0  0  0  0  0  3  0  0  0  0  0  0
  -22.9470  -10.3040   20.0910 C   0  0  0  0  0  3  0  0  0  0  0  0
  -21.6720   -7.1130   21.3720 O   0  0  0  0  0  0  0  0  0  0  0  0
  -21.5790   -6.4060   22.5440 C   0  0  0  0  0  0  0  0  0  0  0  0
  -21.1820   -7.0180   23.7530 C   0  0  0  0  0  3  0  0  0  0  0  0
  -21.0320   -6.2410   24.9180 C   0  0  0  0  0  3  0  0  0  0  0  0
  -21.2710   -4.8530   24.8760 C   0  0  0  0  0  0  0  0  0  0  0  0
  -21.6600   -4.2430   23.6710 C   0  0  0  0  0  3  0  0  0  0  0  0
  -21.8120   -5.0180   22.5070 C   0  0  0  0  0  0  0  0  0  0  0  0
  -22.1670   -4.4200   21.3440 F   0  0  0  0  0  0  0  0  0  0  0  0
  -21.1200   -4.1050   25.9930 F   0  0  0  0  0  0  0  0  0  0  0  0
  -23.2890  -13.6490   21.0750 C   0  0  0  0  0  0  0  0  0  0  0  0
  -22.5830  -13.0050   21.9930 N   0  0  0  0  0  0  0  0  0  0  0  0
  -22.8950  -14.7170   20.6010 O   0  0  0  0  0  0  0  0  0  0  0  0
  -22.9150  -12.1390   22.3970 H   0  0  0  0  0  0  0  0  0  0  0  0
  -21.6960  -13.3800   22.3030 H   0  0  0  0  0  0  0  0  0  0  0  0
  -25.9810  -15.1070   20.0620 N   0  0  0  0  0  0  0  0  0  0  0  0
  -25.2740  -15.8150   20.2250 H   0  0  0  0  0  0  0  0  0  0  0  0
  -26.8040  -15.4660   19.6010 H   0  0  0  0  0  0  0  0  0  0  0  0
  -25.5410  -24.5090   16.4950 C   0  0  0  0  0  2  0  0  0  0  0  0
  -26.4190  -25.4080   15.5990 C   0  0  0  0  0  2  0  0  0  0  0  0
  -27.0260  -26.5550   16.3180 N   0  0  0  0  0  4  0  0  0  0  0  0
  -26.4890  -26.7780   17.1380 H   0  0  0  0  0  0  0  0  0  0  0  0
  -26.9560  -27.3550   15.7070 H   0  0  0  0  0  0  0  0  0  0  0  0
  -28.4630  -26.3940   16.6490 C   0  0  0  0  0  2  0  0  0  0  0  0
  -28.3780  -28.9530   17.0970 C   0  0  0  0  0  1  0  0  0  0  0  0
  -29.0840  -27.6110   17.3980 C   0  0  0  0  0  3  0  0  0  0  0  0
  -29.3920  -27.3650   18.9100 C   0  0  0  0  0  2  0  0  0  0  0  0
  -28.3800  -26.6880   19.6710 O   0  0  0  0  0  0  0  0  0  0  0  0
  -24.6050  -31.7490   23.0790 C   0  0  0  0  0  0  0  0  0  0  0  0
  -27.2210  -27.3910   19.8630 C   0  0  0  0  0  0  0  0  0  0  0  0
  -23.3900  -30.4120   21.3890 C   0  0  0  0  0  3  0  0  0  0  0  0
  -24.8330  -28.8770   19.9610 C   0  0  0  0  0  0  0  0  0  0  0  0
  -25.9170  -30.7400   21.2140 C   0  0  0  0  0  2  0  0  0  0  0  0
  -25.9940  -29.3780   20.5630 C   0  0  0  0  0  0  0  0  0  0  0  0
  -27.1940  -28.6370   20.5270 C   0  0  0  0  0  3  0  0  0  0  0  0
  -26.0290  -26.8600   19.3340 C   0  0  0  0  0  3  0  0  0  0  0  0
  -24.8340  -27.6020   19.3700 C   0  0  0  0  0  3  0  0  0  0  0  0
  -23.6190  -29.7790   19.9900 C   0  0  0  0  0  2  0  0  0  0  0  0
  -24.6560  -30.9720   21.9600 N   0  0  0  0  0  0  0  0  0  0  0  0
  -23.5270  -32.0130   23.6300 O   0  0  0  0  0  0  0  0  0  0  0  0
  -22.7200  -29.3680   22.3110 C   0  0  0  0  0  0  0  0  0  0  0  0
  -21.3870  -29.2560   22.2260 N   0  0  0  0  0  0  0  0  0  0  0  0
  -23.4010  -28.6660   23.0640 O   0  0  0  0  0  0  0  0  0  0  0  0
  -20.9030  -29.8790   21.5960 H   0  0  0  0  0  0  0  0  0  0  0  0
  -17.9730  -28.2530   22.8400 C   0  0  0  0  0  0  0  0  0  0  0  0
  -20.5520  -28.3200   22.9820 C   0  0  0  0  0  3  0  0  0  0  0  0
  -20.5260  -26.9280   22.3080 C   0  0  0  0  0  2  0  0  0  0  0  0
  -19.3510  -26.7540   21.3410 C   0  0  0  0  0  2  0  0  0  0  0  0
  -18.0210  -26.9440   22.0720 C   0  0  0  0  0  2  0  0  0  0  0  0
  -19.1630  -28.9060   23.2570 C   0  0  0  0  0  0  0  0  0  0  0  0
  -19.0660  -30.1380   23.9400 C   0  0  0  0  0  3  0  0  0  0  0  0
  -17.8110  -30.7090   24.2180 C   0  0  0  0  0  3  0  0  0  0  0  0
  -16.6360  -30.0540   23.8160 C   0  0  0  0  0  3  0  0  0  0  0  0
  -16.7190  -28.8310   23.1290 C   0  0  0  0  0  3  0  0  0  0  0  0
  -25.8990  -32.3510   23.7060 C   0  0  0  0  0  3  0  0  0  0  0  0
  -25.5910  -33.7290   24.1080 N   0  0  0  0  0  0  0  0  0  0  0  0
  -25.9050  -34.8180   23.3950 C   0  0  0  0  0  0  0  0  0  0  0  0
  -26.5590  -34.7670   22.3480 O   0  0  0  0  0  0  0  0  0  0  0  0
  -25.0070  -33.8330   24.9230 H   0  0  0  0  0  0  0  0  0  0  0  0
  -24.1650  -36.6230   23.1480 C   0  0  0  0  0  1  0  0  0  0  0  0
  -25.4200  -36.1820   23.9200 C   0  0  0  0  0  3  0  0  0  0  0  0
  -27.5640  -37.0400   24.7560 C   0  0  0  0  0  1  0  0  0  0  0  0
  -26.4480  -37.2440   23.8380 N   0  0  0  0  0  0  0  0  0  0  0  0
  -26.0400  -38.1520   24.0410 H   0  0  0  0  0  0  0  0  0  0  0  0
  -26.4250  -31.5140   24.9360 C   0  0  1  0  0  0  0  0  0  0  0  0
  -25.3470  -31.2150   26.0060 C   0  0  0  0  0  1  0  0  0  0  0  0
  -27.0060  -30.1640   24.4580 C   0  0  0  0  0  1  0  0  0  0  0  0
  -27.5830  -32.2640   25.6310 C   0  0  0  0  0  1  0  0  0  0  0  0
  1  2  1  0
  2  3  1  0
  3  4  1  0
  3  5  1  0
  6  3  1  0
  6  7  1  0
  7  8  1  0
  8  9  1  0
  9 10  1  0
 10 13  1  0
 10 12  1  0
 11 10  1  0
 13 14  1  0
 15 23  1  0
 16 21  1  0
 17 18  1  0
 17 16  1  0
 19 18  1  0
 19 28  1  0
 19 20  1  0
 21 15  1  0
 21 20  1  0
 22 15  2  0
 23 14  1  0
 23 24  1  0
 25 26  2  0
 26 45  1  0
 27 26  1  0
 27 30  1  0
 28 29  1  0
 28 25  1  0
 29 27  2  0
 30 31  1  0
 31 32  2  0
 33 36  1  0
 33 32  1  0
 34 33  2  0
 35 34  1  0
 35 30  2  0
 36 37  1  0
 37 38  1  0
 38 39  2  0
 40 39  1  0
 40 44  1  0
 41 40  2  0
 42 37  2  0
 42 41  1  0
 43 42  1  0
 45 46  1  0
 46 49  1  0
 46 48  1  0
 47 45  2  0
 50 51  1  0
 50 25  1  0
 52 50  1  0
 53  1  1  0
 54 55  1  0
 54 53  1  0
 55 58  1  0
 55 56  1  0
 57 55  1  0
 58 60  1  0
 60 59  1  0
 60 61  1  0
 61 62  1  0
 62 64  1  0
 63 74  2  0
 64 69  1  0
 65 73  1  0
 65 75  1  0
 66 72  1  0
 66 68  1  0
 67 73  1  0
 68 67  1  0
 69 68  2  0
 70 71  1  0
 70 64  2  0
 71 66  2  0
 72 65  1  0
 73 63  1  0
 75 77  2  0
 76 75  1  0
 78 76  1  0
 79 88  2  0
 79 84  1  0
 80 76  1  0
 80 84  1  0
 81 80  1  0
 82 83  1  0
 82 81  1  0
 83 79  1  0
 84 85  2  0
 85 86  1  0
 87 86  2  0
 88 87  1  0
 89 63  1  0
 89 90  1  0
 89 99  1  0
 90 93  1  0
 91 95  1  0
 91 90  1  0
 92 91  2  0
 95 94  1  0
 97 95  1  0
 97 98  1  0
 97 96  1  0
 99102  1  1
 99100  1  0
101 99  1  0
M  ISO  4  15 100  23 100  61 101  62 101
M  END
>  <TORSDO>  (65) 
F 31

>  <SCORE>  (65) 
-8.881

>  <name>  (65) 
64

>  <ligand_id>  (65) 
64

>  <original_smiles>  (65) 
[H]c1c([H])c([H])c2c(c1[H])C([H])([H])C([H])([H])C([H])([H])C2([H])N([H])C(=O)C1([H])N(C(=O)C([H])(N([H])C(=O)C([H])(N([H])C([H])([H])[H])C([H])([H])[H])C(C([H])([H])[H])(C([H])([H])[H])C([H])([H])[H])C([H])([H])c2c([H])c(OC([H])([H])C([H])(C([H])([H])[H])C([H])([H])[N+]([H])([H])C([H])([H])C([H])([H])C([H])([H])C([H])([H])[N+]([H])([H])C([H])([H])C([H])([H])C([H])([H])C([H])([H])[N+]([H])([H])C([H])([H])C([H])([H])N([H])C(=O)N3C([H])([H])C([H])([H])C([H])([H])C([H])(n4nc(-c5c([H])c([H])c(Oc6c([H])c([H])c(F)c([H])c6F)c([H])c5[H])c(C(=O)N([H])[H])c4N([H])[H])C3([H])[H])c([H])c([H])c2C1([H])[H]

>  <smiles>  (65) 
[H]c1c([H])c([H])c2c(c1[H])C([H])([H])C([H])([H])C([H])([H])C2([H])N([H])C(=O)C1([H])N(C(=O)C([H])(N([H])C(=O)C([H])(N([H])C([H])([H])[H])C([H])([H])[H])C(C([H])([H])[H])(C([H])([H])[H])C([H])([H])[H])C([H])([H])c2c([H])c(OC([H])([H])C([H])(C([H])([H])[H])C([H])([H])[N+]([H])([H])C([H])([H])C([H])([H])C([H])([H])C([H])([H])[N+]([H])([H])C([H])([H])C([H])([H])C([H])([H])C([H])([H])[N+]([H])([H])C([H])([H])C([H])([H])N([H])C(=O)N3C([H])([H])C([H])([H])C([H])([H])C([H])(n4nc(-c5c([H])c([H])c(Oc6c([H])c([H])c(F)c([H])c6F)c([H])c5[H])c(C(=O)N([H])[H])c4N([H])[H])C3([H])[H])c([H])c([H])c2C1([H])[H]

$$$$
65:0:0
     RDKit          3D

 95102  0  0  1  0  0  0  0  0999 V2000
  -29.7750  -18.8000   20.2350 C   0  0  0  0  0  0  0  0  0  0  0  0
  -30.2400  -15.6610   20.0800 C   0  0  0  0  0  0  0  0  0  0  0  0
  -30.2510  -13.1570   19.1890 C   0  0  0  0  0  2  0  0  0  0  0  0
  -29.3030  -12.8200   18.0070 C   0  0  0  0  0  2  0  0  0  0  0  0
  -27.8980  -12.4700   18.5180 C   0  0  0  0  0  2  0  0  0  0  0  0
  -27.4470  -13.4400   19.6370 C   0  0  0  0  0  3  0  0  0  0  0  0
  -28.5300  -13.7110   20.7050 C   0  0  0  0  0  2  0  0  0  0  0  0
  -29.6780  -14.3220   20.0010 N   0  0  0  0  0  0  0  0  0  0  0  0
  -31.4600  -15.5580   19.8700 O   0  0  0  0  0  0  0  0  0  0  0  0
  -29.5280  -17.0390   20.1780 N   0  0  0  0  0  4  0  0  0  0  0  0
  -28.5410  -16.8470   20.2800 H   0  0  0  0  0  0  0  0  0  0  0  0
  -25.1250  -13.9500   20.5260 C   0  0  0  0  0  0  0  0  0  0  0  0
  -24.0880  -13.1570   20.9260 C   0  0  0  0  0  0  0  0  0  0  0  0
  -24.5600  -11.8110   20.8410 C   0  0  0  0  0  0  0  0  0  0  0  0
  -26.1580  -13.0870   20.2110 N   0  0  0  0  0  0  0  0  0  0  0  0
  -25.8370  -11.7920   20.4700 N   0  0  0  0  0  0  0  0  0  0  0  0
  -23.8460  -10.5410   21.0360 C   0  0  0  0  0  0  0  0  0  0  0  0
  -24.3040   -9.5660   21.9490 C   0  0  0  0  0  3  0  0  0  0  0  0
  -23.5870   -8.3650   22.1340 C   0  0  0  0  0  3  0  0  0  0  0  0
  -22.3980   -8.1270   21.4040 C   0  0  0  0  0  0  0  0  0  0  0  0
  -21.9580   -9.0880   20.4790 C   0  0  0  0  0  3  0  0  0  0  0  0
  -22.6760  -10.2820   20.2920 C   0  0  0  0  0  3  0  0  0  0  0  0
  -21.6500   -6.9770   21.5000 O   0  0  0  0  0  0  0  0  0  0  0  0
  -21.6110   -6.2360   22.6540 C   0  0  0  0  0  0  0  0  0  0  0  0
  -21.1490   -6.7810   23.8720 C   0  0  0  0  0  3  0  0  0  0  0  0
  -21.0630   -5.9660   25.0190 C   0  0  0  0  0  3  0  0  0  0  0  0
  -21.4220   -4.6070   24.9470 C   0  0  0  0  0  0  0  0  0  0  0  0
  -21.8720   -4.0610   23.7320 C   0  0  0  0  0  3  0  0  0  0  0  0
  -21.9630   -4.8730   22.5890 C   0  0  0  0  0  0  0  0  0  0  0  0
  -22.3790   -4.3370   21.4170 F   0  0  0  0  0  0  0  0  0  0  0  0
  -21.3310   -3.8220   26.0460 F   0  0  0  0  0  0  0  0  0  0  0  0
  -22.7020  -13.6200   21.2630 C   0  0  0  0  0  0  0  0  0  0  0  0
  -22.0130  -12.9060   22.1460 N   0  0  0  0  0  0  0  0  0  0  0  0
  -22.2400  -14.6510   20.7750 O   0  0  0  0  0  0  0  0  0  0  0  0
  -22.4000  -12.0740   22.5670 H   0  0  0  0  0  0  0  0  0  0  0  0
  -21.0800  -13.1960   22.4070 H   0  0  0  0  0  0  0  0  0  0  0  0
  -25.2730  -15.3250   20.3710 N   0  0  0  0  0  0  0  0  0  0  0  0
  -24.5140  -15.9770   20.5340 H   0  0  0  0  0  0  0  0  0  0  0  0
  -26.0930  -15.7660   19.9740 H   0  0  0  0  0  0  0  0  0  0  0  0
  -28.7110  -20.4170   20.2920 C   0  0  0  0  0  2  0  0  0  0  0  0
  -28.9180  -22.3420   20.2050 C   0  0  0  0  0  3  0  0  0  0  0  0
  -30.5360  -23.7710   18.7750 C   0  0  0  0  0  1  0  0  0  0  0  0
  -29.5070  -22.6240   18.8020 C   0  0  0  0  0  2  0  0  0  0  0  0
  -27.9010  -23.9540   20.4240 C   0  0  0  0  0  2  0  0  0  0  0  0
  -28.1010  -25.6820   20.3820 O   0  0  0  0  0  0  0  0  0  0  0  0
  -24.5830  -31.9440   23.2160 C   0  0  0  0  0  0  0  0  0  0  0  0
  -27.1150  -26.8600   20.3210 C   0  0  0  0  0  0  0  0  0  0  0  0
  -23.3940  -30.5200   21.6030 C   0  0  0  0  0  3  0  0  0  0  0  0
  -24.8420  -28.8580   20.2190 C   0  0  0  0  0  0  0  0  0  0  0  0
  -25.9700  -30.6770   21.4730 C   0  0  0  0  0  2  0  0  0  0  0  0
  -26.0350  -29.2360   20.8440 C   0  0  0  0  0  0  0  0  0  0  0  0
  -27.1600  -28.2660   20.8590 C   0  0  0  0  0  3  0  0  0  0  0  0
  -25.8880  -26.6760   19.6360 C   0  0  0  0  0  3  0  0  0  0  0  0
  -24.8040  -27.6020   19.5910 C   0  0  0  0  0  3  0  0  0  0  0  0
  -23.6310  -29.8030   20.2440 C   0  0  0  0  0  2  0  0  0  0  0  0
  -24.6710  -31.0800   22.1490 N   0  0  0  0  0  0  0  0  0  0  0  0
  -23.4900  -32.2510   23.7230 O   0  0  0  0  0  0  0  0  0  0  0  0
  -22.6830  -29.5530   22.5880 C   0  0  0  0  0  0  0  0  0  0  0  0
  -21.3550  -29.3760   22.4500 N   0  0  0  0  0  0  0  0  0  0  0  0
  -23.3380  -28.9600   23.4480 O   0  0  0  0  0  0  0  0  0  0  0  0
  -20.8770  -29.9070   21.7350 H   0  0  0  0  0  0  0  0  0  0  0  0
  -17.9780  -28.1380   22.9480 C   0  0  0  0  0  0  0  0  0  0  0  0
  -20.5310  -28.4500   23.2340 C   0  0  0  0  0  3  0  0  0  0  0  0
  -20.6570  -27.0040   22.7000 C   0  0  0  0  0  2  0  0  0  0  0  0
  -19.5740  -26.6390   21.6800 C   0  0  0  0  0  2  0  0  0  0  0  0
  -18.1830  -26.7780   22.3030 C   0  0  0  0  0  2  0  0  0  0  0  0
  -19.0800  -28.9300   23.3690 C   0  0  0  0  0  0  0  0  0  0  0  0
  -18.8310  -30.1980   23.9370 C   0  0  0  0  0  3  0  0  0  0  0  0
  -17.5150  -30.6780   24.0790 C   0  0  0  0  0  3  0  0  0  0  0  0
  -16.4280  -29.8860   23.6700 C   0  0  0  0  0  3  0  0  0  0  0  0
  -16.6610  -28.6160   23.1110 C   0  0  0  0  0  3  0  0  0  0  0  0
  -25.8480  -32.6010   23.8460 C   0  0  0  0  0  3  0  0  0  0  0  0
  -26.3550  -31.8520   25.1410 C   0  0  1  0  0  0  0  0  0  0  0  0
  -25.2470  -31.6130   26.1940 C   0  0  0  0  0  1  0  0  0  0  0  0
  -26.9600  -30.4760   24.7830 C   0  0  0  0  0  1  0  0  0  0  0  0
  -27.4860  -32.6670   25.8110 C   0  0  0  0  0  1  0  0  0  0  0  0
  -25.5210  -34.0030   24.1720 N   0  0  0  0  0  0  0  0  0  0  0  0
  -25.8400  -35.0630   23.4190 C   0  0  0  0  0  0  0  0  0  0  0  0
  -26.4980  -34.9670   22.3820 O   0  0  0  0  0  0  0  0  0  0  0  0
  -24.9350  -34.1510   24.9800 H   0  0  0  0  0  0  0  0  0  0  0  0
  -24.0960  -36.8570   23.1030 C   0  0  0  0  0  1  0  0  0  0  0  0
  -25.3530  -36.4510   23.8900 C   0  0  0  0  0  3  0  0  0  0  0  0
  -27.4910  -37.3580   24.6950 C   0  0  0  0  0  1  0  0  0  0  0  0
  -26.3770  -37.5120   23.7620 N   0  0  0  0  0  0  0  0  0  0  0  0
  -25.9660  -38.4300   23.9090 H   0  0  0  0  0  0  0  0  0  0  0  0
  -31.0390  -19.1900   19.3970 C   0  0  0  0  0  3  0  0  0  0  0  0
  -32.9350  -17.9840   20.7190 C   0  0  0  0  0  1  0  0  0  0  0  0
  -32.3790  -19.3190   20.1950 C   0  0  0  0  0  3  0  0  0  0  0  0
  -33.6310  -20.7120   21.9960 C   0  0  0  0  0  1  0  0  0  0  0  0
  -32.2910  -20.3860   21.3190 C   0  0  0  0  0  2  0  0  0  0  0  0
  -31.1430  -18.4600   18.0320 C   0  0  0  0  0  2  0  0  0  0  0  0
  -31.9420  -19.1860   17.0260 N   0  0  0  0  0  4  0  0  0  0  0  0
  -31.5580  -20.0950   16.8360 H   0  0  0  0  0  0  0  0  0  0  0  0
  -31.9420  -18.6680   16.1650 H   0  0  0  0  0  0  0  0  0  0  0  0
  -32.8970  -19.2840   17.3210 H   0  0  0  0  0  0  0  0  0  0  0  0
  1 40  1  0
  2 10  1  0
  3  8  1  0
  4  5  1  0
  4  3  1  0
  6  5  1  0
  6 15  1  0
  6  7  1  0
  8  2  1  0
  8  7  1  0
  9  2  2  0
 10  1  2  0
 10 11  1  0
 12 13  2  0
 13 32  1  0
 14 13  1  0
 14 17  1  0
 15 16  1  0
 15 12  1  0
 16 14  2  0
 17 18  1  0
 18 19  2  0
 20 23  1  0
 20 19  1  0
 21 20  2  0
 22 21  1  0
 22 17  2  0
 23 24  1  0
 24 25  1  0
 25 26  2  0
 27 26  1  0
 27 31  1  0
 28 27  2  0
 29 24  2  0
 29 28  1  0
 30 29  1  0
 32 33  1  0
 33 36  1  0
 33 35  1  0
 34 32  2  0
 37 12  1  0
 37 38  1  0
 39 37  1  0
 41 43  1  0
 41 40  1  0
 41 44  1  0
 42 43  1  0
 45 44  1  0
 46 57  2  0
 47 45  1  0
 47 52  1  0
 48 56  1  0
 48 58  1  0
 49 55  1  0
 49 51  1  0
 50 56  1  0
 51 52  2  0
 51 50  1  0
 53 47  2  0
 54 53  1  0
 54 49  2  0
 55 48  1  0
 56 46  1  0
 58 60  2  0
 59 58  1  0
 61 59  1  0
 62 71  2  0
 62 67  1  0
 63 59  1  0
 63 67  1  0
 64 63  1  0
 65 66  1  0
 65 64  1  0
 66 62  1  0
 67 68  2  0
 68 69  1  0
 70 69  2  0
 71 70  1  0
 72 46  1  0
 72 77  1  0
 72 73  1  0
 73 76  1  1
 73 74  1  0
 75 73  1  0
 77 80  1  0
 78 82  1  0
 78 77  1  0
 79 78  2  0
 82 81  1  0
 84 82  1  0
 84 85  1  0
 84 83  1  0
 86 91  1  0
 86 88  1  0
 86  1  1  0
 88 87  1  0
 88 90  1  0
 90 89  1  0
 92 95  1  0
 92 91  1  0
 93 92  1  0
 94 92  1  0
M  ISO  4   2 100  10 100  44 101  45 101
M  END
>  <TORSDO>  (66) 
F 25

>  <SCORE>  (66) 
-14.631

>  <name>  (66) 
65

>  <ligand_id>  (66) 
65

>  <original_smiles>  (66) 
[H]c1c([H])c([H])c2c(c1[H])C([H])([H])C([H])([H])C([H])([H])C2([H])N([H])C(=O)C1([H])N(C(=O)C([H])(N([H])C(=O)C([H])(N([H])C([H])([H])[H])C([H])([H])[H])C(C([H])([H])[H])(C([H])([H])[H])C([H])([H])[H])C([H])([H])c2c([H])c(OC([H])([H])C([H])(C([H])([H])C([H])([H])[H])C([H])([H])C([H])(N([H])C(=O)N3C([H])([H])C([H])([H])C([H])([H])C([H])(n4nc(-c5c([H])c([H])c(Oc6c([H])c([H])c(F)c([H])c6F)c([H])c5[H])c(C(=O)N([H])[H])c4N([H])[H])C3([H])[H])C([H])(C([H])(C([H])([H])[H])C([H])([H])C([H])([H])[H])C([H])([H])[N+]([H])([H])[H])c([H])c([H])c2C1([H])[H]

>  <smiles>  (66) 
[H]c1c([H])c([H])c2c(c1[H])C([H])([H])C([H])([H])C([H])([H])C2([H])N([H])C(=O)C1([H])N(C(=O)C([H])(N([H])C(=O)C([H])(N([H])C([H])([H])[H])C([H])([H])[H])C(C([H])([H])[H])(C([H])([H])[H])C([H])([H])[H])C([H])([H])c2c([H])c(OC([H])([H])C([H])(C([H])([H])C([H])([H])[H])C([H])([H])C([H])(N([H])C(=O)N3C([H])([H])C([H])([H])C([H])([H])C([H])(n4nc(-c5c([H])c([H])c(Oc6c([H])c([H])c(F)c([H])c6F)c([H])c5[H])c(C(=O)N([H])[H])c4N([H])[H])C3([H])[H])C([H])(C([H])(C([H])([H])[H])C([H])([H])C([H])([H])[H])C([H])([H])[N+]([H])([H])[H])c([H])c([H])c2C1([H])[H]

$$$$
66:0:0
     RDKit          3D

 96103  0  0  1  0  0  0  0  0999 V2000
  -29.4830  -19.7790   20.4860 C   0  0  0  0  0  2  0  0  0  0  0  0
  -29.1540  -21.2080   20.0040 N   0  0  0  0  0  4  0  0  0  0  0  0
  -30.0170  -21.5390   19.6030 H   0  0  0  0  0  0  0  0  0  0  0  0
  -28.4930  -21.1280   19.2480 H   0  0  0  0  0  0  0  0  0  0  0  0
  -28.6700  -22.3450   20.9080 C   0  0  0  0  0  2  0  0  0  0  0  0
  -28.7490  -23.8390   20.2820 C   0  0  0  0  0  3  0  0  0  0  0  0
  -28.1510  -25.1050   21.0780 C   0  0  0  0  0  3  0  0  0  0  0  0
  -28.3840  -26.5020   20.5950 O   0  0  0  0  0  0  0  0  0  0  0  0
  -24.5780  -31.9830   23.3740 C   0  0  0  0  0  0  0  0  0  0  0  0
  -27.2790  -27.3640   20.5080 C   0  0  0  0  0  0  0  0  0  0  0  0
  -23.4220  -30.5510   21.7260 C   0  0  0  0  0  3  0  0  0  0  0  0
  -24.9150  -28.9750   20.3710 C   0  0  0  0  0  0  0  0  0  0  0  0
  -25.9640  -30.8740   21.6060 C   0  0  0  0  0  2  0  0  0  0  0  0
  -26.0670  -29.4830   20.9890 C   0  0  0  0  0  0  0  0  0  0  0  0
  -27.2540  -28.6930   21.0420 C   0  0  0  0  0  3  0  0  0  0  0  0
  -26.1110  -26.9080   19.8610 C   0  0  0  0  0  3  0  0  0  0  0  0
  -24.9420  -27.6940   19.7960 C   0  0  0  0  0  3  0  0  0  0  0  0
  -23.6750  -29.8490   20.3650 C   0  0  0  0  0  2  0  0  0  0  0  0
  -24.6720  -31.1560   22.2910 N   0  0  0  0  0  0  0  0  0  0  0  0
  -23.4810  -32.2690   23.8750 O   0  0  0  0  0  0  0  0  0  0  0  0
  -22.7360  -29.5510   22.6870 C   0  0  0  0  0  0  0  0  0  0  0  0
  -21.4210  -29.3400   22.5030 N   0  0  0  0  0  0  0  0  0  0  0  0
  -23.3890  -28.9660   23.5560 O   0  0  0  0  0  0  0  0  0  0  0  0
  -20.9560  -29.8690   21.7800 H   0  0  0  0  0  0  0  0  0  0  0  0
  -18.0610  -28.0390   22.8400 C   0  0  0  0  0  0  0  0  0  0  0  0
  -20.5860  -28.4080   23.2640 C   0  0  0  0  0  3  0  0  0  0  0  0
  -20.7740  -26.9560   22.7680 C   0  0  0  0  0  2  0  0  0  0  0  0
  -19.7540  -26.5450   21.7000 C   0  0  0  0  0  2  0  0  0  0  0  0
  -18.3290  -26.6660   22.2440 C   0  0  0  0  0  2  0  0  0  0  0  0
  -19.1220  -28.8630   23.3030 C   0  0  0  0  0  0  0  0  0  0  0  0
  -18.8200  -30.1440   23.8140 C   0  0  0  0  0  3  0  0  0  0  0  0
  -17.4910  -30.6020   23.8730 C   0  0  0  0  0  3  0  0  0  0  0  0
  -16.4440  -29.7760   23.4260 C   0  0  0  0  0  3  0  0  0  0  0  0
  -16.7300  -28.4980   22.9140 C   0  0  0  0  0  3  0  0  0  0  0  0
  -25.8430  -32.6260   24.0210 C   0  0  0  0  0  3  0  0  0  0  0  0
  -26.3170  -31.8880   25.3340 C   0  0  1  0  0  0  0  0  0  0  0  0
  -25.1880  -31.6650   26.3670 C   0  0  0  0  0  1  0  0  0  0  0  0
  -26.9250  -30.5060   24.9990 C   0  0  0  0  0  1  0  0  0  0  0  0
  -27.4370  -32.7080   26.0190 C   0  0  0  0  0  1  0  0  0  0  0  0
  -25.5300  -34.0340   24.3060 N   0  0  0  0  0  0  0  0  0  0  0  0
  -25.8890  -35.0670   23.5310 C   0  0  0  0  0  0  0  0  0  0  0  0
  -26.5900  -34.9330   22.5240 O   0  0  0  0  0  0  0  0  0  0  0  0
  -24.9120  -34.2130   25.0840 H   0  0  0  0  0  0  0  0  0  0  0  0
  -24.1760  -36.8550   23.0820 C   0  0  0  0  0  1  0  0  0  0  0  0
  -25.3920  -36.4680   23.9370 C   0  0  0  0  0  3  0  0  0  0  0  0
  -27.5050  -37.3690   24.8070 C   0  0  0  0  0  1  0  0  0  0  0  0
  -26.4300  -37.5150   23.8280 N   0  0  0  0  0  0  0  0  0  0  0  0
  -26.0230  -38.4400   23.9400 H   0  0  0  0  0  0  0  0  0  0  0  0
  -30.4380  -18.9460   19.4690 C   0  0  0  0  0  3  0  0  0  0  0  0
  -31.0850  -17.4260   19.7410 C   0  0  0  0  0  3  0  0  0  0  0  0
  -30.7380  -14.7780   19.8640 C   0  0  0  0  0  0  0  0  0  0  0  0
  -30.3080  -12.4950   18.9760 C   0  0  0  0  0  2  0  0  0  0  0  0
  -29.3310  -12.4780   17.7910 C   0  0  0  0  0  2  0  0  0  0  0  0
  -27.8970  -12.3120   18.3170 C   0  0  0  0  0  2  0  0  0  0  0  0
  -27.5700  -13.2820   19.4850 C   0  0  0  0  0  3  0  0  0  0  0  0
  -28.6940  -13.3610   20.5420 C   0  0  0  0  0  2  0  0  0  0  0  0
  -29.9340  -13.6590   19.8210 N   0  0  0  0  0  0  0  0  0  0  0  0
  -31.9230  -14.5680   19.6770 O   0  0  0  0  0  0  0  0  0  0  0  0
  -30.2590  -16.0990   19.8460 N   0  0  0  0  0  0  0  0  0  0  0  0
  -29.2580  -16.1970   19.9290 H   0  0  0  0  0  0  0  0  0  0  0  0
  -25.2480  -13.8600   20.3920 C   0  0  0  0  0  0  0  0  0  0  0  0
  -24.2060  -13.0800   20.8170 C   0  0  0  0  0  0  0  0  0  0  0  0
  -24.6640  -11.7290   20.7400 C   0  0  0  0  0  0  0  0  0  0  0  0
  -26.2700  -12.9830   20.0770 N   0  0  0  0  0  0  0  0  0  0  0  0
  -25.9320  -11.6950   20.3520 N   0  0  0  0  0  0  0  0  0  0  0  0
  -23.9460  -10.4650   20.9570 C   0  0  0  0  0  0  0  0  0  0  0  0
  -24.4140   -9.4940   21.8710 C   0  0  0  0  0  3  0  0  0  0  0  0
  -23.6930   -8.3000   22.0790 C   0  0  0  0  0  3  0  0  0  0  0  0
  -22.4890   -8.0640   21.3730 C   0  0  0  0  0  0  0  0  0  0  0  0
  -22.0400   -9.0220   20.4460 C   0  0  0  0  0  3  0  0  0  0  0  0
  -22.7610  -10.2090   20.2370 C   0  0  0  0  0  3  0  0  0  0  0  0
  -21.7380   -6.9200   21.4890 O   0  0  0  0  0  0  0  0  0  0  0  0
  -21.7160   -6.1890   22.6490 C   0  0  0  0  0  0  0  0  0  0  0  0
  -21.3110   -6.7520   23.8780 C   0  0  0  0  0  3  0  0  0  0  0  0
  -21.2390   -5.9460   25.0320 C   0  0  0  0  0  3  0  0  0  0  0  0
  -21.5580   -4.5780   24.9580 C   0  0  0  0  0  0  0  0  0  0  0  0
  -21.9540   -4.0120   23.7330 C   0  0  0  0  0  3  0  0  0  0  0  0
  -22.0290   -4.8150   22.5800 C   0  0  0  0  0  0  0  0  0  0  0  0
  -22.3910   -4.2600   21.3990 F   0  0  0  0  0  0  0  0  0  0  0  0
  -21.4790   -3.8030   26.0640 F   0  0  0  0  0  0  0  0  0  0  0  0
  -22.8310  -13.5560   21.1760 C   0  0  0  0  0  0  0  0  0  0  0  0
  -22.1580  -12.8560   22.0820 N   0  0  0  0  0  0  0  0  0  0  0  0
  -22.3630  -14.5850   20.6900 O   0  0  0  0  0  0  0  0  0  0  0  0
  -22.5500  -12.0220   22.4910 H   0  0  0  0  0  0  0  0  0  0  0  0
  -21.2380  -13.1550   22.3710 H   0  0  0  0  0  0  0  0  0  0  0  0
  -25.4030  -15.2320   20.2200 N   0  0  0  0  0  0  0  0  0  0  0  0
  -24.6480  -15.8880   20.3870 H   0  0  0  0  0  0  0  0  0  0  0  0
  -26.2340  -15.6750   19.8460 H   0  0  0  0  0  0  0  0  0  0  0  0
  -32.2740  -17.2110   18.7130 C   0  0  0  0  0  2  0  0  0  0  0  0
  -34.6490  -16.3290   18.3810 C   0  0  0  0  0  1  0  0  0  0  0  0
  -34.3610  -18.5020   19.5970 C   0  0  0  0  0  1  0  0  0  0  0  0
  -33.7190  -17.1370   19.3060 C   0  0  0  0  0  3  0  0  0  0  0  0
  -31.5650  -20.0240   19.1640 C   0  0  0  0  0  2  0  0  0  0  0  0
  -32.2110  -22.1430   17.8920 C   0  0  0  0  0  1  0  0  0  0  0  0
  -31.7780  -20.0340   16.5930 C   0  0  0  0  0  1  0  0  0  0  0  0
  -31.3990  -20.8370   17.8470 C   0  0  0  0  0  3  0  0  0  0  0  0
  2  1  1  0
  2  5  1  0
  3  2  1  0
  4  2  1  0
  6  5  1  0
  6  7  2  0
  8  7  1  0
  9 20  2  0
 10  8  1  0
 10 15  1  0
 11 19  1  0
 11 21  1  0
 12 14  1  0
 13 19  1  0
 14 15  2  0
 14 13  1  0
 16 10  2  0
 17 16  1  0
 17 12  2  0
 18 12  1  0
 18 11  1  0
 19  9  1  0
 21 23  2  0
 22 21  1  0
 24 22  1  0
 25 34  2  0
 25 30  1  0
 26 22  1  0
 26 30  1  0
 27 26  1  0
 28 29  1  0
 28 27  1  0
 29 25  1  0
 30 31  2  0
 31 32  1  0
 33 32  2  0
 34 33  1  0
 35  9  1  0
 35 40  1  0
 35 36  1  0
 36 39  1  1
 36 37  1  0
 38 36  1  0
 40 43  1  0
 41 45  1  0
 41 40  1  0
 42 41  2  0
 45 44  1  0
 47 45  1  0
 47 48  1  0
 47 46  1  0
 49 93  1  0
 49 50  1  0
 49  1  1  0
 50 89  1  0
 50 59  1  0
 52 57  1  0
 53 54  1  0
 53 52  1  0
 55 54  1  0
 55 64  1  0
 55 56  1  0
 57 51  1  0
 57 56  1  0
 58 51  2  0
 59 51  1  0
 59 60  1  0
 61 62  2  0
 62 81  1  0
 63 62  1  0
 63 66  1  0
 64 65  1  0
 64 61  1  0
 65 63  2  0
 66 67  1  0
 67 68  2  0
 69 72  1  0
 69 68  1  0
 70 69  2  0
 71 70  1  0
 71 66  2  0
 72 73  1  0
 73 74  1  0
 74 75  2  0
 76 75  1  0
 76 80  1  0
 77 76  2  0
 78 73  2  0
 78 77  1  0
 79 78  1  0
 81 82  1  0
 82 85  1  0
 82 84  1  0
 83 81  2  0
 86 87  1  0
 86 61  1  0
 88 86  1  0
 89 92  1  0
 90 92  1  0
 92 91  1  0
 95 96  1  0
 96 94  1  0
 96 93  1  0
M  ISO  4   7 101   8 101  51 100  59 100
M  END
>  <TORSDO>  (67) 
F 26

>  <SCORE>  (67) 
-11.721

>  <name>  (67) 
66

>  <ligand_id>  (67) 
66

>  <original_smiles>  (67) 
[H]c1c([H])c([H])c2c(c1[H])C([H])([H])C([H])([H])C([H])([H])C2([H])N([H])C(=O)C1([H])N(C(=O)C([H])(N([H])C(=O)C([H])(N([H])C([H])([H])[H])C([H])([H])[H])C(C([H])([H])[H])(C([H])([H])[H])C([H])([H])[H])C([H])([H])c2c([H])c(OC([H])([H])C([H])([H])C([H])([H])[N+]([H])([H])C([H])([H])C([H])(C([H])([H])C([H])(C([H])([H])[H])C([H])([H])[H])C([H])(N([H])C(=O)N3C([H])([H])C([H])([H])C([H])([H])C([H])(n4nc(-c5c([H])c([H])c(Oc6c([H])c([H])c(F)c([H])c6F)c([H])c5[H])c(C(=O)N([H])[H])c4N([H])[H])C3([H])[H])C([H])([H])C([H])(C([H])([H])[H])C([H])([H])[H])c([H])c([H])c2C1([H])[H]

>  <smiles>  (67) 
[H]c1c([H])c([H])c2c(c1[H])C([H])([H])C([H])([H])C([H])([H])C2([H])N([H])C(=O)C1([H])N(C(=O)C([H])(N([H])C(=O)C([H])(N([H])C([H])([H])[H])C([H])([H])[H])C(C([H])([H])[H])(C([H])([H])[H])C([H])([H])[H])C([H])([H])c2c([H])c(OC([H])([H])C([H])([H])C([H])([H])[N+]([H])([H])C([H])([H])C([H])(C([H])([H])C([H])(C([H])([H])[H])C([H])([H])[H])C([H])(N([H])C(=O)N3C([H])([H])C([H])([H])C([H])([H])C([H])(n4nc(-c5c([H])c([H])c(Oc6c([H])c([H])c(F)c([H])c6F)c([H])c5[H])c(C(=O)N([H])[H])c4N([H])[H])C3([H])[H])C([H])([H])C([H])(C([H])([H])[H])C([H])([H])[H])c([H])c([H])c2C1([H])[H]

$$$$
67:0:0
     RDKit          3D

 89 96  0  0  1  0  0  0  0  0999 V2000
  -29.2100  -21.2400   19.9340 C   0  0  0  0  0  2  0  0  0  0  0  0
  -27.9790  -22.5580   21.8890 C   0  0  0  0  0  1  0  0  0  0  0  0
  -28.8220  -22.8400   20.6350 C   0  0  0  0  0  3  0  0  0  0  0  0
  -28.2110  -24.3600   19.9040 C   0  0  0  0  0  2  0  0  0  0  0  0
  -28.2600  -25.9470   20.3030 O   0  0  0  0  0  0  0  0  0  0  0  0
  -24.6330  -31.8460   23.1760 C   0  0  0  0  0  0  0  0  0  0  0  0
  -27.2220  -27.0020   20.1860 C   0  0  0  0  0  0  0  0  0  0  0  0
  -23.4410  -30.4340   21.5450 C   0  0  0  0  0  3  0  0  0  0  0  0
  -24.8960  -28.8370   20.1240 C   0  0  0  0  0  0  0  0  0  0  0  0
  -26.0000  -30.6680   21.3910 C   0  0  0  0  0  2  0  0  0  0  0  0
  -26.0770  -29.2610   20.7440 C   0  0  0  0  0  0  0  0  0  0  0  0
  -27.2270  -28.3610   20.7590 C   0  0  0  0  0  3  0  0  0  0  0  0
  -26.0150  -26.7230   19.4980 C   0  0  0  0  0  3  0  0  0  0  0  0
  -24.8910  -27.5900   19.4790 C   0  0  0  0  0  3  0  0  0  0  0  0
  -23.6650  -29.7400   20.1720 C   0  0  0  0  0  2  0  0  0  0  0  0
  -24.7120  -31.0100   22.0920 N   0  0  0  0  0  0  0  0  0  0  0  0
  -23.5440  -32.1350   23.6980 O   0  0  0  0  0  0  0  0  0  0  0  0
  -22.7500  -29.4470   22.5200 C   0  0  0  0  0  0  0  0  0  0  0  0
  -21.4180  -29.2880   22.4040 N   0  0  0  0  0  0  0  0  0  0  0  0
  -23.4170  -28.8210   23.3490 O   0  0  0  0  0  0  0  0  0  0  0  0
  -20.9330  -29.8440   21.7130 H   0  0  0  0  0  0  0  0  0  0  0  0
  -18.0330  -28.0930   22.9290 C   0  0  0  0  0  0  0  0  0  0  0  0
  -20.5960  -28.3520   23.1780 C   0  0  0  0  0  3  0  0  0  0  0  0
  -20.6880  -26.9190   22.6030 C   0  0  0  0  0  2  0  0  0  0  0  0
  -19.5790  -26.6000   21.5970 C   0  0  0  0  0  2  0  0  0  0  0  0
  -18.2020  -26.7480   22.2470 C   0  0  0  0  0  2  0  0  0  0  0  0
  -19.1560  -28.8540   23.3510 C   0  0  0  0  0  0  0  0  0  0  0  0
  -18.9410  -30.1160   23.9490 C   0  0  0  0  0  3  0  0  0  0  0  0
  -17.6360  -30.6120   24.1340 C   0  0  0  0  0  3  0  0  0  0  0  0
  -16.5300  -29.8470   23.7270 C   0  0  0  0  0  3  0  0  0  0  0  0
  -16.7300  -28.5900   23.1300 C   0  0  0  0  0  3  0  0  0  0  0  0
  -25.9060  -32.4900   23.8110 C   0  0  0  0  0  3  0  0  0  0  0  0
  -25.5860  -33.8890   24.1470 N   0  0  0  0  0  0  0  0  0  0  0  0
  -25.9130  -34.9530   23.4030 C   0  0  0  0  0  0  0  0  0  0  0  0
  -26.5830  -34.8620   22.3710 O   0  0  0  0  0  0  0  0  0  0  0  0
  -24.9960  -34.0370   24.9540 H   0  0  0  0  0  0  0  0  0  0  0  0
  -24.1830  -36.7540   23.0780 C   0  0  0  0  0  1  0  0  0  0  0  0
  -25.4250  -36.3370   23.8790 C   0  0  0  0  0  3  0  0  0  0  0  0
  -27.5620  -37.2190   24.7140 C   0  0  0  0  0  1  0  0  0  0  0  0
  -26.4550  -37.3950   23.7770 N   0  0  0  0  0  0  0  0  0  0  0  0
  -26.0460  -38.3130   23.9330 H   0  0  0  0  0  0  0  0  0  0  0  0
  -26.4150  -31.7290   25.0980 C   0  0  1  0  0  0  0  0  0  0  0  0
  -25.3140  -31.5070   26.1610 C   0  0  0  0  0  1  0  0  0  0  0  0
  -27.0020  -30.3480   24.7280 C   0  0  0  0  0  1  0  0  0  0  0  0
  -27.5590  -32.5340   25.7590 C   0  0  0  0  0  1  0  0  0  0  0  0
  -29.3030  -19.5760   20.5890 C   0  0  0  0  0  2  0  0  0  0  0  0
  -30.1090  -18.0700   20.0580 C   0  0  0  0  0  0  0  0  0  0  0  0
  -30.4950  -15.2050   20.2680 C   0  0  0  0  0  0  0  0  0  0  0  0
  -30.3980  -12.7840   19.3850 C   0  0  0  0  0  2  0  0  0  0  0  0
  -29.4780  -12.6540   18.1460 C   0  0  0  0  0  2  0  0  0  0  0  0
  -28.0240  -12.3960   18.5800 C   0  0  0  0  0  2  0  0  0  0  0  0
  -27.5920  -13.3410   19.7330 C   0  0  0  0  0  3  0  0  0  0  0  0
  -28.6470  -13.4420   20.8610 C   0  0  0  0  0  2  0  0  0  0  0  0
  -29.8930  -13.9190   20.2370 N   0  0  0  0  0  0  0  0  0  0  0  0
  -31.6970  -15.1930   19.9730 O   0  0  0  0  0  0  0  0  0  0  0  0
  -29.7830  -16.4840   20.4120 N   0  0  0  0  0  4  0  0  0  0  0  0
  -28.8290  -16.3370   20.7110 H   0  0  0  0  0  0  0  0  0  0  0  0
  -25.2100  -13.8990   20.4620 C   0  0  0  0  0  0  0  0  0  0  0  0
  -24.1480  -13.1210   20.8290 C   0  0  0  0  0  0  0  0  0  0  0  0
  -24.6180  -11.7730   20.8080 C   0  0  0  0  0  0  0  0  0  0  0  0
  -26.2590  -13.0260   20.2300 N   0  0  0  0  0  0  0  0  0  0  0  0
  -25.9130  -11.7410   20.5060 N   0  0  0  0  0  0  0  0  0  0  0  0
  -23.8930  -10.5080   20.9980 C   0  0  0  0  0  0  0  0  0  0  0  0
  -24.3240   -9.5490   21.9410 C   0  0  0  0  0  3  0  0  0  0  0  0
  -23.5980   -8.3510   22.1250 C   0  0  0  0  0  3  0  0  0  0  0  0
  -22.4290   -8.1050   21.3680 C   0  0  0  0  0  0  0  0  0  0  0  0
  -22.0190   -9.0530   20.4130 C   0  0  0  0  0  3  0  0  0  0  0  0
  -22.7440  -10.2430   20.2280 C   0  0  0  0  0  3  0  0  0  0  0  0
  -21.6750   -6.9610   21.4610 O   0  0  0  0  0  0  0  0  0  0  0  0
  -21.6180   -6.2300   22.6190 C   0  0  0  0  0  0  0  0  0  0  0  0
  -21.1810   -6.7940   23.8390 C   0  0  0  0  0  3  0  0  0  0  0  0
  -21.0740   -5.9880   24.9890 C   0  0  0  0  0  3  0  0  0  0  0  0
  -21.3910   -4.6170   24.9210 C   0  0  0  0  0  0  0  0  0  0  0  0
  -21.8190   -4.0540   23.7070 C   0  0  0  0  0  3  0  0  0  0  0  0
  -21.9300   -4.8560   22.5600 C   0  0  0  0  0  0  0  0  0  0  0  0
  -22.3230   -4.3040   21.3870 F   0  0  0  0  0  0  0  0  0  0  0  0
  -21.2800   -3.8400   26.0240 F   0  0  0  0  0  0  0  0  0  0  0  0
  -22.7480  -13.5940   21.0860 C   0  0  0  0  0  0  0  0  0  0  0  0
  -22.0180  -12.9030   21.9510 N   0  0  0  0  0  0  0  0  0  0  0  0
  -22.3130  -14.6150   20.5560 O   0  0  0  0  0  0  0  0  0  0  0  0
  -22.3890  -12.0830   22.4050 H   0  0  0  0  0  0  0  0  0  0  0  0
  -21.0730  -13.1950   22.1570 H   0  0  0  0  0  0  0  0  0  0  0  0
  -25.3650  -15.2690   20.2740 N   0  0  0  0  0  0  0  0  0  0  0  0
  -24.5980  -15.9180   20.3970 H   0  0  0  0  0  0  0  0  0  0  0  0
  -26.1950  -15.7140   19.9020 H   0  0  0  0  0  0  0  0  0  0  0  0
  -30.3680  -18.1200   18.5260 C   0  0  0  0  0  2  0  0  0  0  0  0
  -31.8830  -18.6490   16.5450 C   0  0  0  0  0  1  0  0  0  0  0  0
  -32.8090  -19.0310   18.8430 C   0  0  0  0  0  1  0  0  0  0  0  0
  -31.5190  -19.0300   17.9950 C   0  0  0  0  0  3  0  0  0  0  0  0
  1 46  1  0
  1  3  1  0
  3  2  1  0
  4  5  1  0
  4  3  1  0
  6 17  2  0
  7  5  1  0
  7 12  1  0
  8 16  1  0
  8 18  1  0
  9 15  1  0
  9 11  1  0
 10 16  1  0
 11 12  2  0
 11 10  1  0
 13  7  2  0
 14 13  1  0
 14  9  2  0
 15  8  1  0
 16  6  1  0
 18 20  2  0
 19 18  1  0
 21 19  1  0
 22 31  2  0
 22 27  1  0
 23 19  1  0
 23 27  1  0
 24 23  1  0
 25 26  1  0
 25 24  1  0
 26 22  1  0
 27 28  2  0
 28 29  1  0
 30 29  2  0
 31 30  1  0
 32  6  1  0
 32 33  1  0
 32 42  1  0
 33 36  1  0
 34 38  1  0
 34 33  1  0
 35 34  2  0
 38 37  1  0
 40 38  1  0
 40 41  1  0
 40 39  1  0
 42 45  1  1
 42 43  1  0
 44 42  1  0
 47 56  2  0
 47 46  1  0
 48 56  1  0
 49 54  1  0
 50 51  1  0
 50 49  1  0
 52 51  1  0
 52 61  1  0
 52 53  1  0
 54 48  1  0
 54 53  1  0
 55 48  2  0
 56 57  1  0
 58 59  2  0
 59 78  1  0
 60 59  1  0
 60 63  1  0
 61 58  1  0
 61 62  1  0
 62 60  2  0
 63 64  1  0
 64 65  2  0
 66 69  1  0
 66 65  1  0
 67 66  2  0
 68 67  1  0
 68 63  2  0
 69 70  1  0
 70 71  1  0
 71 72  2  0
 73 72  1  0
 73 77  1  0
 74 73  2  0
 75 70  2  0
 75 74  1  0
 76 75  1  0
 78 79  1  0
 79 82  1  0
 79 81  1  0
 80 78  2  0
 83 84  1  0
 83 58  1  0
 85 83  1  0
 86 47  1  0
 87 89  1  0
 89 86  1  0
 89 88  1  0
M  ISO  4   4 101   5 101  48 100  56 100
M  END
>  <TORSDO>  (68) 
F 22

>  <SCORE>  (68) 
-14.640

>  <name>  (68) 
67

>  <ligand_id>  (68) 
67

>  <original_smiles>  (68) 
[H]c1c([H])c([H])c2c(c1[H])C([H])([H])C([H])([H])C([H])([H])C2([H])N([H])C(=O)C1([H])N(C(=O)C([H])(N([H])C(=O)C([H])(N([H])C([H])([H])[H])C([H])([H])[H])C(C([H])([H])[H])(C([H])([H])[H])C([H])([H])[H])C([H])([H])c2c([H])c(OC([H])([H])C([H])(C([H])([H])[H])C([H])([H])C([H])([H])C([H])(N([H])C(=O)N3C([H])([H])C([H])([H])C([H])([H])C([H])(n4nc(-c5c([H])c([H])c(Oc6c([H])c([H])c(F)c([H])c6F)c([H])c5[H])c(C(=O)N([H])[H])c4N([H])[H])C3([H])[H])C([H])([H])C([H])(C([H])([H])[H])C([H])([H])[H])c([H])c([H])c2C1([H])[H]

>  <smiles>  (68) 
[H]c1c([H])c([H])c2c(c1[H])C([H])([H])C([H])([H])C([H])([H])C2([H])N([H])C(=O)C1([H])N(C(=O)C([H])(N([H])C(=O)C([H])(N([H])C([H])([H])[H])C([H])([H])[H])C(C([H])([H])[H])(C([H])([H])[H])C([H])([H])[H])C([H])([H])c2c([H])c(OC([H])([H])C([H])(C([H])([H])[H])C([H])([H])C([H])([H])C([H])(N([H])C(=O)N3C([H])([H])C([H])([H])C([H])([H])C([H])(n4nc(-c5c([H])c([H])c(Oc6c([H])c([H])c(F)c([H])c6F)c([H])c5[H])c(C(=O)N([H])[H])c4N([H])[H])C3([H])[H])C([H])([H])C([H])(C([H])([H])[H])C([H])([H])[H])c([H])c([H])c2C1([H])[H]

$$$$
68:0:0
     RDKit          3D

103105  0  0  1  0  0  0  0  0999 V2000
  -27.4700  -25.8180   18.2750 C   0  0  0  0  0  2  0  0  0  0  0  0
  -26.2450  -27.6310   21.6070 C   0  0  0  0  0  2  0  0  0  0  0  0
  -26.8180  -27.3560   19.1660 N   0  0  0  0  0  2  0  0  0  0  0  0
  -26.1050  -28.6020   22.3460 O   0  0  0  0  0  1  0  0  0  0  0  0
  -26.8480  -28.2270   18.6500 H   0  0  0  0  0  0  0  0  0  0  0  0
  -26.1810  -26.4960   22.7840 C   0  0  0  0  0  2  0  0  0  0  0  0
  -27.5460  -25.8820   23.2800 C   0  0  0  0  0  2  0  0  0  0  0  0
  -28.4320  -25.0680   22.2500 C   0  0  0  0  0  2  0  0  0  0  0  0
  -28.9200  -25.8090   21.1100 O   0  0  0  0  0  0  0  0  0  0  0  0
  -24.5960  -31.5440   22.9090 C   0  0  0  0  0  0  0  0  0  0  0  0
  -27.8680  -26.4100   20.6970 C   0  0  0  0  0  3  0  0  0  0  0  0
  -23.4310  -30.1020   21.2510 C   0  0  0  0  0  3  0  0  0  0  0  0
  -24.7450  -28.4140   19.6890 C   0  0  0  0  0  3  0  0  0  0  0  0
  -25.9790  -30.6430   20.8960 C   0  0  0  0  0  2  0  0  0  0  0  0
  -26.2990  -29.2820   20.1230 C   0  0  0  0  0  3  0  0  0  0  0  0
  -27.8680  -28.3480   20.5950 C   0  0  0  0  0  3  0  0  0  0  0  0
  -26.1260  -25.4130   20.2370 C   0  0  0  0  0  1  0  0  0  0  0  0
  -24.5850  -26.5230   19.7170 C   0  0  0  0  0  2  0  0  0  0  0  0
  -23.5590  -29.3620   19.8580 C   0  0  0  0  0  2  0  0  0  0  0  0
  -24.7000  -30.7890   21.7460 N   0  0  0  0  0  0  0  0  0  0  0  0
  -23.5020  -31.7810   23.4470 O   0  0  0  0  0  0  0  0  0  0  0  0
  -22.6880  -29.1930   22.2960 C   0  0  0  0  0  0  0  0  0  0  0  0
  -21.3800  -28.9660   22.1220 N   0  0  0  0  0  0  0  0  0  0  0  0
  -23.2650  -28.6820   23.2540 O   0  0  0  0  0  0  0  0  0  0  0  0
  -20.9060  -29.4290   21.3610 H   0  0  0  0  0  0  0  0  0  0  0  0
  -18.0350  -27.7730   22.6960 C   0  0  0  0  0  0  0  0  0  0  0  0
  -20.5880  -28.0260   22.9250 C   0  0  0  0  0  3  0  0  0  0  0  0
  -20.6840  -26.6050   22.3310 C   0  0  0  0  0  2  0  0  0  0  0  0
  -19.5680  -26.3040   21.3230 C   0  0  0  0  0  2  0  0  0  0  0  0
  -18.1940  -26.4440   21.9860 C   0  0  0  0  0  2  0  0  0  0  0  0
  -19.1590  -28.5210   23.1290 C   0  0  0  0  0  0  0  0  0  0  0  0
  -18.9540  -29.7660   23.7620 C   0  0  0  0  0  3  0  0  0  0  0  0
  -17.6520  -30.2630   23.9700 C   0  0  0  0  0  3  0  0  0  0  0  0
  -16.5430  -29.5090   23.5450 C   0  0  0  0  0  3  0  0  0  0  0  0
  -16.7350  -28.2680   22.9140 C   0  0  0  0  0  3  0  0  0  0  0  0
  -25.8250  -32.2250   23.6060 C   0  0  0  0  0  3  0  0  0  0  0  0
  -26.3300  -31.4810   24.9120 C   0  0  1  0  0  0  0  0  0  0  0  0
  -25.2320  -31.2270   25.9800 C   0  0  0  0  0  1  0  0  0  0  0  0
  -26.9690  -30.1290   24.5500 C   0  0  0  0  0  1  0  0  0  0  0  0
  -27.4460  -32.3130   25.5880 C   0  0  0  0  0  1  0  0  0  0  0  0
  -25.4500  -33.6000   23.9680 N   0  0  0  0  0  0  0  0  0  0  0  0
  -25.7960  -34.7030   23.2840 C   0  0  0  0  0  0  0  0  0  0  0  0
  -26.5180  -34.6530   22.2810 O   0  0  0  0  0  0  0  0  0  0  0  0
  -24.8180  -33.7020   24.7530 H   0  0  0  0  0  0  0  0  0  0  0  0
  -24.0390  -36.4700   22.9390 C   0  0  0  0  0  1  0  0  0  0  0  0
  -25.2600  -36.0600   23.7810 C   0  0  0  0  0  3  0  0  0  0  0  0
  -27.3580  -36.9770   24.7090 C   0  0  0  0  0  1  0  0  0  0  0  0
  -26.2700  -37.1450   23.7490 N   0  0  0  0  0  0  0  0  0  0  0  0
  -25.8350  -38.0490   23.9100 H   0  0  0  0  0  0  0  0  0  0  0  0
  -27.4370  -23.8450   18.6070 C   0  0  0  0  0  1  0  0  0  0  0  0
  -28.4350  -22.2400   19.1600 C   0  0  0  0  0  1  0  0  0  0  0  0
  -28.3550  -20.2600   19.2130 C   0  0  0  0  0 15  0  0  0  0  0  0
  -29.4290  -18.6570   19.6470 C   0  0  0  0  0  1  0  0  0  0  0  0
  -30.1180  -15.4950   19.9000 C   0  0  0  0  0  0  0  0  0  0  0  0
  -30.2490  -12.9230   19.2070 C   0  0  0  0  0  2  0  0  0  0  0  0
  -29.3100  -12.4700   18.0540 C   0  0  0  0  0  2  0  0  0  0  0  0
  -27.9200  -12.1030   18.6000 C   0  0  0  0  0  2  0  0  0  0  0  0
  -27.4400  -13.1140   19.6660 C   0  0  0  0  0  3  0  0  0  0  0  0
  -28.5230  -13.4860   20.7020 C   0  0  0  0  0  2  0  0  0  0  0  0
  -29.6200  -14.1130   19.9260 N   0  0  0  0  0  0  0  0  0  0  0  0
  -31.3590  -15.4350   19.8210 O   0  0  0  0  0  0  0  0  0  0  0  0
  -29.3200  -16.8540   19.7640 N   0  0  0  0  0  0  0  0  0  0  0  0
  -28.3430  -16.6030   19.7750 H   0  0  0  0  0  0  0  0  0  0  0  0
  -25.1250  -13.6320   20.5640 C   0  0  0  0  0  0  0  0  0  0  0  0
  -24.0840  -12.8470   20.9730 C   0  0  0  0  0  0  0  0  0  0  0  0
  -24.5630  -11.5020   20.9170 C   0  0  0  0  0  0  0  0  0  0  0  0
  -26.1600  -12.7670   20.2690 N   0  0  0  0  0  0  0  0  0  0  0  0
  -25.8430  -11.4780   20.5530 N   0  0  0  0  0  0  0  0  0  0  0  0
  -23.8520  -10.2330   21.1250 C   0  0  0  0  0  0  0  0  0  0  0  0
  -24.3270   -9.2600   22.0310 C   0  0  0  0  0  3  0  0  0  0  0  0
  -23.6100   -8.0630   22.2340 C   0  0  0  0  0  3  0  0  0  0  0  0
  -22.4050   -7.8280   21.5310 C   0  0  0  0  0  0  0  0  0  0  0  0
  -21.9500   -8.7890   20.6110 C   0  0  0  0  0  3  0  0  0  0  0  0
  -22.6670   -9.9790   20.4050 C   0  0  0  0  0  3  0  0  0  0  0  0
  -21.6570   -6.6810   21.6440 O   0  0  0  0  0  0  0  0  0  0  0  0
  -21.6620   -5.9260   22.7900 C   0  0  0  0  0  0  0  0  0  0  0  0
  -21.2820   -6.4650   24.0370 C   0  0  0  0  0  3  0  0  0  0  0  0
  -21.2400   -5.6410   25.1790 C   0  0  0  0  0  3  0  0  0  0  0  0
  -21.5640   -4.2740   25.0730 C   0  0  0  0  0  0  0  0  0  0  0  0
  -21.9320   -3.7330   23.8290 C   0  0  0  0  0  3  0  0  0  0  0  0
  -21.9810   -4.5570   22.6900 C   0  0  0  0  0  0  0  0  0  0  0  0
  -22.3190   -4.0250   21.4920 F   0  0  0  0  0  0  0  0  0  0  0  0
  -21.5140   -3.4780   26.1660 F   0  0  0  0  0  0  0  0  0  0  0  0
  -22.6930  -13.3190   21.2800 C   0  0  0  0  0  0  0  0  0  0  0  0
  -22.0010  -12.6220   22.1730 N   0  0  0  0  0  0  0  0  0  0  0  0
  -22.2330  -14.3350   20.7640 O   0  0  0  0  0  0  0  0  0  0  0  0
  -22.3920  -11.8030   22.6100 H   0  0  0  0  0  0  0  0  0  0  0  0
  -21.0690  -12.9130   22.4240 H   0  0  0  0  0  0  0  0  0  0  0  0
  -25.2690  -15.0050   20.3900 N   0  0  0  0  0  0  0  0  0  0  0  0
  -24.4940  -15.6430   20.5370 H   0  0  0  0  0  0  0  0  0  0  0  0
  -26.0910  -15.4680   20.0220 H   0  0  0  0  0  0  0  0  0  0  0  0
  -27.7640  -26.2400   16.7910 C   0  0  0  0  0  3  0  0  0  0  0  0
  -26.7120  -25.8140   15.8520 N   0  0  0  0  0  4  0  0  0  0  0  0
  -25.8500  -26.2900   16.0410 H   0  0  0  0  0  0  0  0  0  0  0  0
  -26.5710  -24.8210   15.9030 H   0  0  0  0  0  0  0  0  0  0  0  0
  -26.9990  -26.0290   14.9140 H   0  0  0  0  0  0  0  0  0  0  0  0
  -28.0740  -27.7640   16.6610 C   0  0  0  0  0  2  0  0  0  0  0  0
  -28.8450  -28.2150   15.4050 C   0  0  0  0  0  2  0  0  0  0  0  0
  -28.4230  -29.6320   14.9890 C   0  0  0  0  0  0  0  0  0  0  0  0
  -29.0860  -30.6640   15.5090 N   0  0  0  0  0  0  0  0  0  0  0  0
  -27.4950  -29.7980   14.2040 O   0  0  0  0  0  0  0  0  0  0  0  0
  -29.8160  -30.5320   16.1960 H   0  0  0  0  0  0  0  0  0  0  0  0
  -28.8350  -31.6180   15.2610 H   0  0  0  0  0  0  0  0  0  0  0  0
  1  3  1  0
  2  4  1  0
  2  6  1  0
  5  3  1  0
  6  7  1  0
  8  7  1  0
  9  8  1  0
 10 21  2  0
 11  9  1  0
 12 20  1  0
 12 22  1  0
 13 18  1  0
 13 19  1  0
 13 15  1  0
 14 20  1  0
 15 16  1  0
 15 14  1  0
 16 11  2  0
 18 17  1  0
 19 12  1  0
 20 10  1  0
 22 24  2  0
 23 22  1  0
 25 23  1  0
 26 35  2  0
 26 31  1  0
 27 23  1  0
 27 31  1  0
 28 27  1  0
 29 30  1  0
 29 28  1  0
 30 26  1  0
 31 32  2  0
 32 33  1  0
 34 33  2  0
 35 34  1  0
 36 10  1  0
 36 41  1  0
 36 37  1  0
 37 40  1  1
 37 38  1  0
 39 37  1  0
 41 44  1  0
 42 46  1  0
 42 41  1  0
 43 42  2  0
 46 45  1  0
 48 46  1  0
 48 49  1  0
 48 47  1  0
 50 51  1  0
 53 62  1  0
 54 60  1  0
 55 60  1  0
 56 57  1  0
 56 55  1  0
 58 57  1  0
 58 67  1  0
 58 59  1  0
 60 59  1  0
 61 54  2  0
 62 63  1  0
 62 54  1  0
 64 65  2  0
 65 84  1  0
 66 65  1  0
 66 69  1  0
 67 68  1  0
 67 64  1  0
 68 66  2  0
 69 70  1  0
 70 71  2  0
 72 75  1  0
 72 71  1  0
 73 72  2  0
 74 73  1  0
 74 69  2  0
 75 76  1  0
 76 77  1  0
 77 78  2  0
 79 78  1  0
 79 83  1  0
 80 79  2  0
 81 76  2  0
 81 80  1  0
 82 81  1  0
 84 85  1  0
 85 88  1  0
 85 87  1  0
 86 84  2  0
 89 90  1  0
 89 64  1  0
 91 89  1  0
 92 97  1  0
 92  1  1  0
 93 95  1  0
 93 94  1  0
 93 92  1  0
 96 93  1  0
 98 97  1  0
 99 98  1  0
 99100  1  0
100102  1  0
101 99  2  0
103100  1  0
M  ISO  4   8 101   9 101  54 100  62 100
M  END
>  <TORSDO>  (69) 
F 29

>  <SCORE>  (69) 
-12.665

>  <name>  (69) 
68

>  <ligand_id>  (69) 
68

>  <original_smiles>  (69) 
[H]c1c([H])c([H])c2c(c1[H])C([H])([H])C([H])([H])C([H])([H])C2([H])N([H])C(=O)C1([H])N(C(=O)C([H])(N([H])C(=O)C([H])(N([H])C([H])([H])[H])C([H])([H])[H])C(C([H])([H])[H])(C([H])([H])[H])C([H])([H])[H])C([H])([H])c2c([H])c(OC([H])([H])C([H])([H])C([H])([H])C(=O)N([H])C([H])(C([H])([H])C([H])([H])C([H])([H])C([H])([H])N([H])C(=O)N3C([H])([H])C([H])([H])C([H])([H])C([H])(n4nc(-c5c([H])c([H])c(Oc6c([H])c([H])c(F)c([H])c6F)c([H])c5[H])c(C(=O)N([H])[H])c4N([H])[H])C3([H])[H])C([H])(C([H])([H])C([H])([H])C(=O)N([H])[H])[N+]([H])([H])[H])c([H])c([H])c2C1([H])[H]

>  <smiles>  (69) 
[H]c1c([H])c([H])c2c(c1[H])C([H])([H])C([H])([H])C([H])([H])C2([H])N([H])C(=O)C1([H])N(C(=O)C([H])(N([H])C(=O)C([H])(N([H])C([H])([H])[H])C([H])([H])[H])C(C([H])([H])[H])(C([H])([H])[H])C([H])([H])[H])C([H])([H])c2c([H])c(OC([H])([H])C([H])([H])C([H])([H])C(=O)N([H])C([H])(C([H])([H])C([H])([H])C([H])([H])C([H])([H])N([H])C(=O)N3C([H])([H])C([H])([H])C([H])([H])C([H])(n4nc(-c5c([H])c([H])c(Oc6c([H])c([H])c(F)c([H])c6F)c([H])c5[H])c(C(=O)N([H])[H])c4N([H])[H])C3([H])[H])C([H])(C([H])([H])C([H])([H])C(=O)N([H])[H])[N+]([H])([H])[H])c([H])c([H])c2C1([H])[H]

$$$$
69:0:0
     RDKit          3D

 85 89  0  0  1  0  0  0  0  0999 V2000
  -29.0120  -21.5490   20.4470 C   0  0  0  0  0  2  0  0  0  0  0  0
  -29.8260  -21.7440   21.3540 O   0  0  0  0  0  0  0  0  0  0  0  0
  -30.1510  -16.1430   20.2330 C   0  0  0  0  0  0  0  0  0  0  0  0
  -30.4260  -13.4850   19.4750 C   0  0  0  0  0  2  0  0  0  0  0  0
  -29.5980  -12.8560   18.3000 C   0  0  0  0  0  2  0  0  0  0  0  0
  -28.2120  -12.3880   18.7630 C   0  0  0  0  0  2  0  0  0  0  0  0
  -27.6150  -13.4130   19.7420 C   0  0  0  0  0  3  0  0  0  0  0  0
  -28.6040  -13.9120   20.8380 C   0  0  0  0  0  2  0  0  0  0  0  0
  -29.7070  -14.6870   20.1690 N   0  0  0  0  0  0  0  0  0  0  0  0
  -31.3980  -16.0340   20.1150 O   0  0  0  0  0  0  0  0  0  0  0  0
  -27.0060  -18.1710   19.5360 C   0  0  0  0  0  2  0  0  0  0  0  0
  -27.5140  -19.4670   20.0680 C   0  0  0  0  0  2  0  0  0  0  0  0
  -27.9520  -17.0920   20.0260 C   0  0  0  0  0  2  0  0  0  0  0  0
  -29.0330  -19.4950   19.8760 C   0  0  0  0  0  1  0  0  0  0  0  0
  -29.3210  -17.5930   20.2220 N   0  0  0  0  0  2  0  0  0  0  0  0
  -25.2330  -13.8940   20.4630 C   0  0  0  0  0  0  0  0  0  0  0  0
  -24.1810  -13.1050   20.8180 C   0  0  0  0  0  0  0  0  0  0  0  0
  -24.6740  -11.7640   20.8080 C   0  0  0  0  0  0  0  0  0  0  0  0
  -26.3010  -13.0440   20.2520 N   0  0  0  0  0  0  0  0  0  0  0  0
  -25.9770  -11.7510   20.5220 N   0  0  0  0  0  0  0  0  0  0  0  0
  -23.9580  -10.4970   20.9940 C   0  0  0  0  0  0  0  0  0  0  0  0
  -24.3730   -9.5460   21.9520 C   0  0  0  0  0  3  0  0  0  0  0  0
  -23.6490   -8.3480   22.1310 C   0  0  0  0  0  3  0  0  0  0  0  0
  -22.4970   -8.0910   21.3510 C   0  0  0  0  0  0  0  0  0  0  0  0
  -22.1000   -9.0300   20.3830 C   0  0  0  0  0  3  0  0  0  0  0  0
  -22.8240  -10.2200   20.2030 C   0  0  0  0  0  3  0  0  0  0  0  0
  -21.7480   -6.9420   21.4370 O   0  0  0  0  0  0  0  0  0  0  0  0
  -21.6680   -6.2210   22.6020 C   0  0  0  0  0  0  0  0  0  0  0  0
  -21.1710   -6.7870   23.7960 C   0  0  0  0  0  3  0  0  0  0  0  0
  -21.0420   -5.9910   24.9520 C   0  0  0  0  0  3  0  0  0  0  0  0
  -21.3980   -4.6300   24.9140 C   0  0  0  0  0  0  0  0  0  0  0  0
  -21.8880   -4.0630   23.7240 C   0  0  0  0  0  3  0  0  0  0  0  0
  -22.0200   -4.8560   22.5700 C   0  0  0  0  0  0  0  0  0  0  0  0
  -22.4730   -4.3000   21.4210 F   0  0  0  0  0  0  0  0  0  0  0  0
  -21.2670   -3.8630   26.0210 F   0  0  0  0  0  0  0  0  0  0  0  0
  -22.7730  -13.5690   21.0450 C   0  0  0  0  0  0  0  0  0  0  0  0
  -22.0360  -12.8870   21.9140 N   0  0  0  0  0  0  0  0  0  0  0  0
  -22.3350  -14.5760   20.4900 O   0  0  0  0  0  0  0  0  0  0  0  0
  -22.4050  -12.0740   22.3860 H   0  0  0  0  0  0  0  0  0  0  0  0
  -21.0910  -13.1830   22.1110 H   0  0  0  0  0  0  0  0  0  0  0  0
  -25.3530  -15.2620   20.2630 N   0  0  0  0  0  0  0  0  0  0  0  0
  -24.5520  -15.8790   20.3360 H   0  0  0  0  0  0  0  0  0  0  0  0
  -26.1760  -15.7180   19.8960 H   0  0  0  0  0  0  0  0  0  0  0  0
  -28.1110  -23.2970   20.0130 C   0  0  0  0  0 15  0  0  0  0  0  0
  -28.1780  -25.1680   20.3430 O   0  0  0  0  0  1  0  0  0  0  0  0
  -24.6820  -31.8150   23.1690 C   0  0  0  0  0  0  0  0  0  0  0  0
  -27.2380  -26.5020   20.2520 C   0  0  0  0  0  0  0  0  0  0  0  0
  -23.5180  -30.3960   21.5380 C   0  0  0  0  0  3  0  0  0  0  0  0
  -24.9840  -28.6920   20.1600 C   0  0  0  0  0  0  0  0  0  0  0  0
  -26.1080  -30.4700   21.4630 C   0  0  0  0  0  2  0  0  0  0  0  0
  -26.1780  -29.0050   20.8160 C   0  0  0  0  0  0  0  0  0  0  0  0
  -27.2740  -27.9470   20.8250 C   0  0  0  0  0  3  0  0  0  0  0  0
  -26.0050  -26.4690   19.5290 C   0  0  0  0  0  3  0  0  0  0  0  0
  -24.9520  -27.4520   19.4920 C   0  0  0  0  0  3  0  0  0  0  0  0
  -23.7830  -29.6690   20.1830 C   0  0  0  0  0  2  0  0  0  0  0  0
  -24.7970  -30.9330   22.1080 N   0  0  0  0  0  0  0  0  0  0  0  0
  -23.5800  -32.1270   23.6570 O   0  0  0  0  0  0  0  0  0  0  0  0
  -22.7740  -29.4480   22.5190 C   0  0  0  0  0  0  0  0  0  0  0  0
  -21.4380  -29.3110   22.3950 N   0  0  0  0  0  0  0  0  0  0  0  0
  -23.4150  -28.8290   23.3710 O   0  0  0  0  0  0  0  0  0  0  0  0
  -20.9660  -29.8590   21.6890 H   0  0  0  0  0  0  0  0  0  0  0  0
  -18.0380  -28.1210   22.9260 C   0  0  0  0  0  0  0  0  0  0  0  0
  -20.6020  -28.3830   23.1710 C   0  0  0  0  0  3  0  0  0  0  0  0
  -20.6920  -26.9470   22.6020 C   0  0  0  0  0  2  0  0  0  0  0  0
  -19.5860  -26.6290   21.5910 C   0  0  0  0  0  2  0  0  0  0  0  0
  -18.2070  -26.7750   22.2410 C   0  0  0  0  0  2  0  0  0  0  0  0
  -19.1610  -28.8830   23.3470 C   0  0  0  0  0  0  0  0  0  0  0  0
  -18.9430  -30.1380   23.9560 C   0  0  0  0  0  3  0  0  0  0  0  0
  -17.6390  -30.6330   24.1420 C   0  0  0  0  0  3  0  0  0  0  0  0
  -16.5320  -29.8710   23.7310 C   0  0  0  0  0  3  0  0  0  0  0  0
  -16.7330  -28.6150   23.1290 C   0  0  0  0  0  3  0  0  0  0  0  0
  -25.9280  -32.4860   23.8240 C   0  0  0  0  0  3  0  0  0  0  0  0
  -25.5920  -33.8910   24.1450 N   0  0  0  0  0  0  0  0  0  0  0  0
  -25.9290  -34.9600   23.4100 C   0  0  0  0  0  0  0  0  0  0  0  0
  -26.6070  -34.8670   22.3830 O   0  0  0  0  0  0  0  0  0  0  0  0
  -24.9880  -34.0340   24.9410 H   0  0  0  0  0  0  0  0  0  0  0  0
  -24.2010  -36.7670   23.0810 C   0  0  0  0  0  1  0  0  0  0  0  0
  -25.4450  -36.3490   23.8810 C   0  0  0  0  0  3  0  0  0  0  0  0
  -27.5780  -37.2440   24.7160 C   0  0  0  0  0  1  0  0  0  0  0  0
  -26.4760  -37.4060   23.7710 N   0  0  0  0  0  0  0  0  0  0  0  0
  -26.0680  -38.3260   23.9160 H   0  0  0  0  0  0  0  0  0  0  0  0
  -26.4070  -31.7490   25.1360 C   0  0  1  0  0  0  0  0  0  0  0  0
  -25.2840  -31.5370   26.1800 C   0  0  0  0  0  1  0  0  0  0  0  0
  -27.0010  -30.3610   24.8130 C   0  0  0  0  0  1  0  0  0  0  0  0
  -27.5400  -32.5590   25.8100 C   0  0  0  0  0  1  0  0  0  0  0  0
  1  2  2  0
  4  9  1  0
  5  6  1  0
  5  4  1  0
  7  6  1  0
  7 19  1  0
  7  8  1  0
  9  3  1  0
  9  8  1  0
 10  3  2  0
 11 13  1  0
 11 12  1  0
 13 15  1  0
 14 12  1  0
 15  3  1  0
 16 17  2  0
 17 36  1  0
 18 17  1  0
 18 21  1  0
 19 16  1  0
 19 20  1  0
 20 18  2  0
 21 22  1  0
 22 23  2  0
 24 27  1  0
 24 23  1  0
 25 24  2  0
 26 25  1  0
 26 21  2  0
 27 28  1  0
 28 29  1  0
 29 30  2  0
 31 30  1  0
 31 35  1  0
 32 31  2  0
 33 28  2  0
 33 32  1  0
 34 33  1  0
 36 37  1  0
 37 40  1  0
 37 39  1  0
 38 36  2  0
 41 42  1  0
 41 16  1  0
 43 41  1  0
 46 57  2  0
 47 45  1  0
 47 52  1  0
 48 56  1  0
 48 58  1  0
 49 55  1  0
 49 51  1  0
 50 56  1  0
 51 52  2  0
 51 50  1  0
 53 47  2  0
 54 53  1  0
 54 49  2  0
 55 48  1  0
 56 46  1  0
 58 60  2  0
 59 58  1  0
 61 59  1  0
 62 71  2  0
 62 67  1  0
 63 59  1  0
 63 67  1  0
 64 63  1  0
 65 66  1  0
 65 64  1  0
 66 62  1  0
 67 68  2  0
 68 69  1  0
 70 69  2  0
 71 70  1  0
 72 46  1  0
 72 73  1  0
 72 82  1  0
 73 76  1  0
 74 78  1  0
 74 73  1  0
 75 74  2  0
 78 77  1  0
 80 78  1  0
 80 81  1  0
 80 79  1  0
 82 85  1  1
 82 83  1  0
 84 82  1  0
M  ISO  4   3 100  15 100  44 101  45 101
M  END
>  <TORSDO>  (70) 
F 17

>  <SCORE>  (70) 
-16.299

>  <name>  (70) 
69

>  <ligand_id>  (70) 
69

>  <original_smiles>  (70) 
[H]c1c([H])c([H])c2c(c1[H])C([H])([H])C([H])([H])C([H])([H])C2([H])N([H])C(=O)C1([H])N(C(=O)C([H])(N([H])C(=O)C([H])(N([H])C([H])([H])[H])C([H])([H])[H])C(C([H])([H])[H])(C([H])([H])[H])C([H])([H])[H])C([H])([H])c2c([H])c(OC([H])([H])C(=O)C3([H])N(C(=O)N4C([H])([H])C([H])([H])C([H])([H])C([H])(n5nc(-c6c([H])c([H])c(Oc7c([H])c([H])c(F)c([H])c7F)c([H])c6[H])c(C(=O)N([H])[H])c5N([H])[H])C4([H])[H])C([H])([H])C([H])([H])C3([H])[H])c([H])c([H])c2C1([H])[H]

>  <smiles>  (70) 
[H]c1c([H])c([H])c2c(c1[H])C([H])([H])C([H])([H])C([H])([H])C2([H])N([H])C(=O)C1([H])N(C(=O)C([H])(N([H])C(=O)C([H])(N([H])C([H])([H])[H])C([H])([H])[H])C(C([H])([H])[H])(C([H])([H])[H])C([H])([H])[H])C([H])([H])c2c([H])c(OC([H])([H])C(=O)C3([H])N(C(=O)N4C([H])([H])C([H])([H])C([H])([H])C([H])(n5nc(-c6c([H])c([H])c(Oc7c([H])c([H])c(F)c([H])c7F)c([H])c6[H])c(C(=O)N([H])[H])c5N([H])[H])C4([H])[H])C([H])([H])C([H])([H])C3([H])[H])c([H])c([H])c2C1([H])[H]

$$$$
70:0:0
     RDKit          3D

 90 98  0  0  1  0  0  0  0  0999 V2000
  -27.5780  -21.8560   20.4560 C   0  0  0  0  0  2  0  0  0  0  0  0
  -29.5130  -22.2950   19.1870 C   0  0  0  0  0  2  0  0  0  0  0  0
  -28.1480  -20.3620   20.8570 C   0  0  0  0  0  2  0  0  0  0  0  0
  -30.0920  -20.8060   19.5950 C   0  0  0  0  0  2  0  0  0  0  0  0
  -28.5420  -23.1200   20.1660 C   0  0  0  0  0  3  0  0  0  0  0  0
  -29.1440  -19.5290   19.8970 C   0  0  0  0  0  3  0  0  0  0  0  0
  -27.8030  -24.6450   19.7280 C   0  0  0  0  0  2  0  0  0  0  0  0
  -28.0770  -26.1880   20.0290 O   0  0  0  0  0  0  0  0  0  0  0  0
  -24.5420  -31.9350   23.1630 C   0  0  0  0  0  0  0  0  0  0  0  0
  -27.0440  -27.2240   19.9860 C   0  0  0  0  0  0  0  0  0  0  0  0
  -23.3020  -30.5580   21.5400 C   0  0  0  0  0  3  0  0  0  0  0  0
  -24.7160  -29.0090   20.0440 C   0  0  0  0  0  0  0  0  0  0  0  0
  -25.8550  -30.8210   21.3110 C   0  0  0  0  0  2  0  0  0  0  0  0
  -25.9150  -29.4350   20.6300 C   0  0  0  0  0  0  0  0  0  0  0  0
  -27.0750  -28.5600   20.5830 C   0  0  0  0  0  3  0  0  0  0  0  0
  -25.8190  -26.9270   19.3480 C   0  0  0  0  0  3  0  0  0  0  0  0
  -24.6860  -27.7700   19.3850 C   0  0  0  0  0  3  0  0  0  0  0  0
  -23.4890  -29.9050   20.1450 C   0  0  0  0  0  2  0  0  0  0  0  0
  -24.5870  -31.1280   22.0590 N   0  0  0  0  0  0  0  0  0  0  0  0
  -23.4700  -32.2060   23.7270 O   0  0  0  0  0  0  0  0  0  0  0  0
  -22.6560  -29.5320   22.5070 C   0  0  0  0  0  0  0  0  0  0  0  0
  -21.3300  -29.3360   22.4030 N   0  0  0  0  0  0  0  0  0  0  0  0
  -23.3530  -28.9150   23.3160 O   0  0  0  0  0  0  0  0  0  0  0  0
  -20.8220  -29.8880   21.7250 H   0  0  0  0  0  0  0  0  0  0  0  0
  -17.9860  -28.0450   22.9390 C   0  0  0  0  0  0  0  0  0  0  0  0
  -20.5400  -28.3770   23.1810 C   0  0  0  0  0  3  0  0  0  0  0  0
  -20.6740  -26.9470   22.6050 C   0  0  0  0  0  2  0  0  0  0  0  0
  -19.5720  -26.5950   21.6010 C   0  0  0  0  0  2  0  0  0  0  0  0
  -18.1930  -26.7010   22.2580 C   0  0  0  0  0  2  0  0  0  0  0  0
  -19.0880  -28.8380   23.3570 C   0  0  0  0  0  0  0  0  0  0  0  0
  -18.8390  -30.0910   23.9560 C   0  0  0  0  0  3  0  0  0  0  0  0
  -17.5230  -30.5550   24.1390 C   0  0  0  0  0  3  0  0  0  0  0  0
  -16.4360  -29.7580   23.7360 C   0  0  0  0  0  3  0  0  0  0  0  0
  -16.6690  -28.5050   23.1420 C   0  0  0  0  0  3  0  0  0  0  0  0
  -25.8320  -32.5730   23.7610 C   0  0  0  0  0  3  0  0  0  0  0  0
  -26.3700  -31.8050   25.0310 C   0  0  1  0  0  0  0  0  0  0  0  0
  -25.2940  -31.5690   26.1170 C   0  0  0  0  0  1  0  0  0  0  0  0
  -26.9530  -30.4270   24.6400 C   0  0  0  0  0  1  0  0  0  0  0  0
  -27.5310  -32.6030   25.6720 C   0  0  0  0  0  1  0  0  0  0  0  0
  -25.5260  -33.9720   24.1020 N   0  0  0  0  0  0  0  0  0  0  0  0
  -25.8240  -35.0300   23.3380 C   0  0  0  0  0  0  0  0  0  0  0  0
  -26.4490  -34.9320   22.2780 O   0  0  0  0  0  0  0  0  0  0  0  0
  -24.9660  -34.1210   24.9290 H   0  0  0  0  0  0  0  0  0  0  0  0
  -24.0660  -36.8140   23.0840 C   0  0  0  0  0  1  0  0  0  0  0  0
  -25.3550  -36.4170   23.8220 C   0  0  0  0  0  3  0  0  0  0  0  0
  -27.5230  -37.3260   24.5310 C   0  0  0  0  0  1  0  0  0  0  0  0
  -26.3720  -37.4770   23.6470 N   0  0  0  0  0  0  0  0  0  0  0  0
  -25.9660  -38.3960   23.8080 H   0  0  0  0  0  0  0  0  0  0  0  0
  -29.9170  -18.0290   20.3880 C   0  0  0  0  0  3  0  0  0  0  0  0
  -30.3100  -15.2630   19.8700 C   0  0  0  0  0  0  0  0  0  0  0  0
  -30.1930  -12.8940   18.9010 C   0  0  0  0  0  2  0  0  0  0  0  0
  -29.1750  -12.7810   17.7410 C   0  0  0  0  0  2  0  0  0  0  0  0
  -27.7600  -12.5140   18.2840 C   0  0  0  0  0  2  0  0  0  0  0  0
  -27.4090  -13.4310   19.4830 C   0  0  0  0  0  3  0  0  0  0  0  0
  -28.5410  -13.5010   20.5270 C   0  0  0  0  0  2  0  0  0  0  0  0
  -29.7320  -13.9840   19.8170 N   0  0  0  0  0  0  0  0  0  0  0  0
  -31.5070  -15.3080   19.5590 O   0  0  0  0  0  0  0  0  0  0  0  0
  -29.5470  -16.4770   20.0950 N   0  0  0  0  0  0  0  0  0  0  0  0
  -28.5620  -16.2860   20.1970 H   0  0  0  0  0  0  0  0  0  0  0  0
  -25.0990  -13.9510   20.4380 C   0  0  0  0  0  0  0  0  0  0  0  0
  -24.0730  -13.1520   20.8600 C   0  0  0  0  0  0  0  0  0  0  0  0
  -24.5430  -11.8080   20.7390 C   0  0  0  0  0  0  0  0  0  0  0  0
  -26.1230  -13.0940   20.0800 N   0  0  0  0  0  0  0  0  0  0  0  0
  -25.8060  -11.7960   20.3270 N   0  0  0  0  0  0  0  0  0  0  0  0
  -23.8400  -10.5330   20.9320 C   0  0  0  0  0  0  0  0  0  0  0  0
  -24.2930   -9.5720   21.8630 C   0  0  0  0  0  3  0  0  0  0  0  0
  -23.5870   -8.3640   22.0470 C   0  0  0  0  0  3  0  0  0  0  0  0
  -22.4130   -8.1080   21.2980 C   0  0  0  0  0  0  0  0  0  0  0  0
  -21.9790   -9.0570   20.3570 C   0  0  0  0  0  3  0  0  0  0  0  0
  -22.6860  -10.2570   20.1720 C   0  0  0  0  0  3  0  0  0  0  0  0
  -21.6770   -6.9510   21.3910 O   0  0  0  0  0  0  0  0  0  0  0  0
  -21.5840   -6.2490   22.5660 C   0  0  0  0  0  0  0  0  0  0  0  0
  -21.0680   -6.8320   23.7440 C   0  0  0  0  0  3  0  0  0  0  0  0
  -20.9270   -6.0550   24.9100 C   0  0  0  0  0  3  0  0  0  0  0  0
  -21.2910   -4.6950   24.9000 C   0  0  0  0  0  0  0  0  0  0  0  0
  -21.8010   -4.1120   23.7260 C   0  0  0  0  0  3  0  0  0  0  0  0
  -21.9440   -4.8860   22.5630 C   0  0  0  0  0  0  0  0  0  0  0  0
  -22.4150   -4.3140   21.4290 F   0  0  0  0  0  0  0  0  0  0  0  0
  -21.1470   -3.9460   26.0170 F   0  0  0  0  0  0  0  0  0  0  0  0
  -22.6980  -13.6070   21.2540 C   0  0  0  0  0  0  0  0  0  0  0  0
  -22.0400  -12.8690   22.1410 N   0  0  0  0  0  0  0  0  0  0  0  0
  -22.2200  -14.6510   20.8110 O   0  0  0  0  0  0  0  0  0  0  0  0
  -22.4430  -12.0240   22.5180 H   0  0  0  0  0  0  0  0  0  0  0  0
  -21.1220  -13.1540   22.4490 H   0  0  0  0  0  0  0  0  0  0  0  0
  -25.2360  -15.3300   20.3010 N   0  0  0  0  0  0  0  0  0  0  0  0
  -24.4670  -15.9640   20.4850 H   0  0  0  0  0  0  0  0  0  0  0  0
  -26.0350  -15.7900   19.8840 H   0  0  0  0  0  0  0  0  0  0  0  0
  -30.1570  -18.1630   21.9160 C   0  0  0  0  0  2  0  0  0  0  0  0
  -31.1730  -17.2890   24.1000 C   0  0  0  0  0  1  0  0  0  0  0  0
  -30.9820  -17.0510   22.5970 C   0  0  0  0  0  2  0  0  0  0  0  0
  1  3  1  0
  2  4  1  0
  2  5  1  0
  4  6  1  0
  5  7  1  0
  5  1  1  0
  6 49  1  0
  6  3  1  0
  7  8  1  0
  9 20  2  0
 10  8  1  0
 10 15  1  0
 11 19  1  0
 11 21  1  0
 12 18  1  0
 12 14  1  0
 13 19  1  0
 14 13  1  0
 15 14  2  0
 16 17  1  0
 16 10  2  0
 17 12  2  0
 18 11  1  0
 19  9  1  0
 21 23  2  0
 22 21  1  0
 24 22  1  0
 25 34  2  0
 25 30  1  0
 26 22  1  0
 26 30  1  0
 27 26  1  0
 28 29  1  0
 28 27  1  0
 29 25  1  0
 30 31  2  0
 31 32  1  0
 33 32  2  0
 34 33  1  0
 35  9  1  0
 35 40  1  0
 35 36  1  0
 36 39  1  1
 36 37  1  0
 38 36  1  0
 40 43  1  0
 41 45  1  0
 41 40  1  0
 42 41  2  0
 45 44  1  0
 47 48  1  0
 47 45  1  0
 47 46  1  0
 49 88  1  0
 50 58  1  0
 51 56  1  0
 52 53  1  0
 52 51  1  0
 54 53  1  0
 54 63  1  0
 54 55  1  0
 56 50  1  0
 56 55  1  0
 57 50  2  0
 58 59  1  0
 58 49  1  0
 60 61  2  0
 61 80  1  0
 62 61  1  0
 62 65  1  0
 63 64  1  0
 63 60  1  0
 64 62  2  0
 65 66  1  0
 66 67  2  0
 68 71  1  0
 68 67  1  0
 69 68  2  0
 70 69  1  0
 70 65  2  0
 71 72  1  0
 72 73  1  0
 73 74  2  0
 75 74  1  0
 75 79  1  0
 76 75  2  0
 77 72  2  0
 77 76  1  0
 78 77  1  0
 80 81  1  0
 81 84  1  0
 81 83  1  0
 82 80  2  0
 85 60  1  0
 85 86  1  0
 87 85  1  0
 88 90  1  0
 90 89  1  0
M  ISO  4   7 101   8 101  50 100  58 100
M  END
>  <TORSDO>  (71) 
F 20

>  <SCORE>  (71) 
-12.300

>  <name>  (71) 
70

>  <ligand_id>  (71) 
70

>  <original_smiles>  (71) 
[H]c1c([H])c([H])c2c(c1[H])C([H])([H])C([H])([H])C([H])([H])C2([H])N([H])C(=O)C1([H])N(C(=O)C([H])(N([H])C(=O)C([H])(N([H])C([H])([H])[H])C([H])([H])[H])C(C([H])([H])[H])(C([H])([H])[H])C([H])([H])[H])C([H])([H])c2c([H])c(OC([H])([H])C3([H])C([H])([H])C([H])([H])C([H])(C([H])(N([H])C(=O)N4C([H])([H])C([H])([H])C([H])([H])C([H])(n5nc(-c6c([H])c([H])c(Oc7c([H])c([H])c(F)c([H])c7F)c([H])c6[H])c(C(=O)N([H])[H])c5N([H])[H])C4([H])[H])C([H])([H])C([H])([H])C([H])([H])[H])C([H])([H])C3([H])[H])c([H])c([H])c2C1([H])[H]

>  <smiles>  (71) 
[H]c1c([H])c([H])c2c(c1[H])C([H])([H])C([H])([H])C([H])([H])C2([H])N([H])C(=O)C1([H])N(C(=O)C([H])(N([H])C(=O)C([H])(N([H])C([H])([H])[H])C([H])([H])[H])C(C([H])([H])[H])(C([H])([H])[H])C([H])([H])[H])C([H])([H])c2c([H])c(OC([H])([H])C3([H])C([H])([H])C([H])([H])C([H])(C([H])(N([H])C(=O)N4C([H])([H])C([H])([H])C([H])([H])C([H])(n5nc(-c6c([H])c([H])c(Oc7c([H])c([H])c(F)c([H])c7F)c([H])c6[H])c(C(=O)N([H])[H])c5N([H])[H])C4([H])[H])C([H])([H])C([H])([H])C([H])([H])[H])C([H])([H])C3([H])[H])c([H])c([H])c2C1([H])[H]

$$$$
71:0:0
     RDKit          3D

 84 88  0  0  1  0  0  0  0  0999 V2000
  -28.9170  -21.4610   19.5990 C   0  0  0  0  0 15  0  0  0  0  0  0
  -29.4910  -19.5500   21.5430 C   0  0  0  0  0  1  0  0  0  0  0  0
  -31.2320  -19.8790   19.7960 C   0  0  0  0  0  1  0  0  0  0  0  0
  -29.7450  -19.5740   20.0290 C   0  0  0  0  0  3  0  0  0  0  0  0
  -30.4530  -16.2160   19.6660 C   0  0  0  0  0  0  0  0  0  0  0  0
  -30.6050  -13.5860   18.8560 C   0  0  0  0  0  2  0  0  0  0  0  0
  -29.6800  -12.9640   17.7570 C   0  0  0  0  0  2  0  0  0  0  0  0
  -28.3270  -12.5320   18.3350 C   0  0  0  0  0  2  0  0  0  0  0  0
  -27.8220  -13.5740   19.3520 C   0  0  0  0  0  3  0  0  0  0  0  0
  -28.9000  -14.0630   20.3590 C   0  0  0  0  0  2  0  0  0  0  0  0
  -29.9460  -14.7990   19.5780 N   0  0  0  0  0  0  0  0  0  0  0  0
  -31.6940  -16.0660   19.5620 O   0  0  0  0  0  0  0  0  0  0  0  0
  -29.7180  -17.6950   19.6770 N   0  0  0  0  0  0  0  0  0  0  0  0
  -28.7460  -17.4630   19.5220 H   0  0  0  0  0  0  0  0  0  0  0  0
  -25.5350  -14.0830   20.3070 C   0  0  0  0  0  0  0  0  0  0  0  0
  -24.4990  -13.3010   20.7260 C   0  0  0  0  0  0  0  0  0  0  0  0
  -24.9560  -11.9500   20.6310 C   0  0  0  0  0  0  0  0  0  0  0  0
  -26.5550  -13.2150   19.9720 N   0  0  0  0  0  0  0  0  0  0  0  0
  -26.2260  -11.9200   20.2300 N   0  0  0  0  0  0  0  0  0  0  0  0
  -24.2290  -10.6900   20.8400 C   0  0  0  0  0  0  0  0  0  0  0  0
  -24.6520   -9.7380   21.7940 C   0  0  0  0  0  3  0  0  0  0  0  0
  -23.9180   -8.5490   21.9940 C   0  0  0  0  0  3  0  0  0  0  0  0
  -22.7460   -8.3020   21.2420 C   0  0  0  0  0  0  0  0  0  0  0  0
  -22.3390   -9.2410   20.2790 C   0  0  0  0  0  3  0  0  0  0  0  0
  -23.0740  -10.4220   20.0760 C   0  0  0  0  0  3  0  0  0  0  0  0
  -21.9850   -7.1630   21.3520 O   0  0  0  0  0  0  0  0  0  0  0  0
  -21.8690   -6.4840   22.5390 C   0  0  0  0  0  0  0  0  0  0  0  0
  -21.3100   -7.0860   23.6880 C   0  0  0  0  0  3  0  0  0  0  0  0
  -21.1440   -6.3310   24.8660 C   0  0  0  0  0  3  0  0  0  0  0  0
  -21.5280   -4.9770   24.8970 C   0  0  0  0  0  0  0  0  0  0  0  0
  -22.0830   -4.3760   23.7530 C   0  0  0  0  0  3  0  0  0  0  0  0
  -22.2490   -5.1270   22.5760 C   0  0  0  0  0  0  0  0  0  0  0  0
  -22.7630   -4.5370   21.4700 F   0  0  0  0  0  0  0  0  0  0  0  0
  -21.3630   -4.2500   26.0270 F   0  0  0  0  0  0  0  0  0  0  0  0
  -23.1260  -13.7830   21.0910 C   0  0  0  0  0  0  0  0  0  0  0  0
  -22.4560  -13.0910   22.0050 N   0  0  0  0  0  0  0  0  0  0  0  0
  -22.6610  -14.8120   20.6010 O   0  0  0  0  0  0  0  0  0  0  0  0
  -22.8480  -12.2600   22.4210 H   0  0  0  0  0  0  0  0  0  0  0  0
  -21.5380  -13.4000   22.2940 H   0  0  0  0  0  0  0  0  0  0  0  0
  -25.6860  -15.4570   20.1480 N   0  0  0  0  0  0  0  0  0  0  0  0
  -24.9250  -16.1030   20.3260 H   0  0  0  0  0  0  0  0  0  0  0  0
  -26.5080  -15.9070   19.7650 H   0  0  0  0  0  0  0  0  0  0  0  0
  -28.4070  -23.3990   20.2720 C   0  0  0  0  0 15  0  0  0  0  0  0
  -28.3200  -25.2880   20.0760 O   0  0  0  0  0  1  0  0  0  0  0  0
  -24.5610  -31.7740   23.0230 C   0  0  0  0  0  0  0  0  0  0  0  0
  -27.3040  -26.5620   20.1160 C   0  0  0  0  0  0  0  0  0  0  0  0
  -23.4570  -30.3210   21.3820 C   0  0  0  0  0  3  0  0  0  0  0  0
  -24.9810  -28.6720   20.0170 C   0  0  0  0  0  0  0  0  0  0  0  0
  -26.0430  -30.4870   21.3190 C   0  0  0  0  0  2  0  0  0  0  0  0
  -26.1640  -29.0270   20.6730 C   0  0  0  0  0  0  0  0  0  0  0  0
  -27.2990  -28.0110   20.6750 C   0  0  0  0  0  3  0  0  0  0  0  0
  -26.0670  -26.4800   19.4040 C   0  0  0  0  0  3  0  0  0  0  0  0
  -24.9860  -27.4290   19.3560 C   0  0  0  0  0  3  0  0  0  0  0  0
  -23.7520  -29.6120   20.0270 C   0  0  0  0  0  2  0  0  0  0  0  0
  -24.7120  -30.9020   21.9600 N   0  0  0  0  0  0  0  0  0  0  0  0
  -23.4460  -32.0450   23.5060 O   0  0  0  0  0  0  0  0  0  0  0  0
  -22.7400  -29.3430   22.3550 C   0  0  0  0  0  0  0  0  0  0  0  0
  -21.4090  -29.1730   22.2360 N   0  0  0  0  0  0  0  0  0  0  0  0
  -23.4030  -28.7270   23.1940 O   0  0  0  0  0  0  0  0  0  0  0  0
  -20.9200  -29.7200   21.5400 H   0  0  0  0  0  0  0  0  0  0  0  0
  -18.0380  -27.9110   22.7850 C   0  0  0  0  0  0  0  0  0  0  0  0
  -20.6000  -28.2160   23.0050 C   0  0  0  0  0  3  0  0  0  0  0  0
  -20.7100  -26.7930   22.4070 C   0  0  0  0  0  2  0  0  0  0  0  0
  -19.5970  -26.4720   21.4050 C   0  0  0  0  0  2  0  0  0  0  0  0
  -18.2240  -26.5800   22.0740 C   0  0  0  0  0  2  0  0  0  0  0  0
  -19.1520  -28.6870   23.2070 C   0  0  0  0  0  0  0  0  0  0  0  0
  -18.9190  -29.9260   23.8400 C   0  0  0  0  0  3  0  0  0  0  0  0
  -17.6090  -30.3950   24.0480 C   0  0  0  0  0  3  0  0  0  0  0  0
  -16.5100  -29.6180   23.6370 C   0  0  0  0  0  3  0  0  0  0  0  0
  -16.7260  -28.3780   23.0120 C   0  0  0  0  0  3  0  0  0  0  0  0
  -25.7780  -32.4880   23.6860 C   0  0  0  0  0  3  0  0  0  0  0  0
  -25.3960  -33.8840   23.9940 N   0  0  0  0  0  0  0  0  0  0  0  0
  -25.7140  -34.9580   23.2580 C   0  0  0  0  0  0  0  0  0  0  0  0
  -26.4120  -34.8800   22.2450 O   0  0  0  0  0  0  0  0  0  0  0  0
  -24.7720  -34.0120   24.7780 H   0  0  0  0  0  0  0  0  0  0  0  0
  -23.9490  -36.7210   22.8780 C   0  0  0  0  0  1  0  0  0  0  0  0
  -25.1810  -36.3350   23.7140 C   0  0  0  0  0  3  0  0  0  0  0  0
  -27.2580  -37.2920   24.6150 C   0  0  0  0  0  1  0  0  0  0  0  0
  -26.1870  -37.4180   23.6300 N   0  0  0  0  0  0  0  0  0  0  0  0
  -25.7500  -38.3270   23.7510 H   0  0  0  0  0  0  0  0  0  0  0  0
  -26.2630  -31.7730   25.0100 C   0  0  1  0  0  0  0  0  0  0  0  0
  -25.1320  -31.5180   26.0340 C   0  0  0  0  0  1  0  0  0  0  0  0
  -26.9210  -30.4110   24.6990 C   0  0  0  0  0  1  0  0  0  0  0  0
  -27.3470  -32.6330   25.7030 C   0  0  0  0  0  1  0  0  0  0  0  0
  3  4  1  0
  4  2  1  0
  5 13  1  0
  6 11  1  0
  7  8  1  0
  7  6  1  0
  9  8  1  0
  9 18  1  0
  9 10  1  0
 11  5  1  0
 11 10  1  0
 12  5  2  0
 13  4  1  0
 14 13  1  0
 15 16  2  0
 16 35  1  0
 17 16  1  0
 17 20  1  0
 18 19  1  0
 18 15  1  0
 19 17  2  0
 20 21  1  0
 21 22  2  0
 23 26  1  0
 23 22  1  0
 24 23  2  0
 25 24  1  0
 25 20  2  0
 26 27  1  0
 27 32  2  0
 27 28  1  0
 28 29  2  0
 29 30  1  0
 30 34  1  0
 31 30  2  0
 32 31  1  0
 33 32  1  0
 35 36  1  0
 36 39  1  0
 36 38  1  0
 37 35  2  0
 40 15  1  0
 40 41  1  0
 42 40  1  0
 44 46  1  0
 45 56  2  0
 46 51  1  0
 47 55  1  0
 47 57  1  0
 48 54  1  0
 48 50  1  0
 49 55  1  0
 50 51  2  0
 50 49  1  0
 52 46  2  0
 53 52  1  0
 53 48  2  0
 54 47  1  0
 55 45  1  0
 57 59  2  0
 58 57  1  0
 60 58  1  0
 61 70  2  0
 61 66  1  0
 62 58  1  0
 62 66  1  0
 63 62  1  0
 64 65  1  0
 64 63  1  0
 65 61  1  0
 66 67  2  0
 67 68  1  0
 69 68  2  0
 70 69  1  0
 71 45  1  0
 71 72  1  0
 71 81  1  0
 72 75  1  0
 73 77  1  0
 73 72  1  0
 74 73  2  0
 77 76  1  0
 79 77  1  0
 79 80  1  0
 79 78  1  0
 81 84  1  1
 81 82  1  0
 83 81  1  0
M  ISO  4   5 100  13 100  43 101  44 101
M  END
>  <TORSDO>  (72) 
F 18

>  <SCORE>  (72) 
-15.259

>  <name>  (72) 
71

>  <ligand_id>  (72) 
71

>  <original_smiles>  (72) 
[H]c1c([H])c([H])c2c(c1[H])C([H])([H])C([H])([H])C([H])([H])C2([H])N([H])C(=O)C1([H])N(C(=O)C([H])(N([H])C(=O)C([H])(N([H])C([H])([H])[H])C([H])([H])[H])C(C([H])([H])[H])(C([H])([H])[H])C([H])([H])[H])C([H])([H])c2c([H])c(OC([H])([H])C([H])([H])C(N([H])C(=O)N3C([H])([H])C([H])([H])C([H])([H])C([H])(n4nc(-c5c([H])c([H])c(Oc6c([H])c([H])c(F)c([H])c6F)c([H])c5[H])c(C(=O)N([H])[H])c4N([H])[H])C3([H])[H])(C([H])([H])[H])C([H])([H])[H])c([H])c([H])c2C1([H])[H]

>  <smiles>  (72) 
[H]c1c([H])c([H])c2c(c1[H])C([H])([H])C([H])([H])C([H])([H])C2([H])N([H])C(=O)C1([H])N(C(=O)C([H])(N([H])C(=O)C([H])(N([H])C([H])([H])[H])C([H])([H])[H])C(C([H])([H])[H])(C([H])([H])[H])C([H])([H])[H])C([H])([H])c2c([H])c(OC([H])([H])C([H])([H])C(N([H])C(=O)N3C([H])([H])C([H])([H])C([H])([H])C([H])(n4nc(-c5c([H])c([H])c(Oc6c([H])c([H])c(F)c([H])c6F)c([H])c5[H])c(C(=O)N([H])[H])c4N([H])[H])C3([H])[H])(C([H])([H])[H])C([H])([H])[H])c([H])c([H])c2C1([H])[H]

$$$$
72:0:0
     RDKit          3D

 92100  0  0  1  0  0  0  0  0999 V2000
  -29.0600  -23.5660   20.2300 C   0  0  0  0  0  3  0  0  0  0  0  0
  -28.7090  -21.9830   20.6650 C   0  0  0  0  0  3  0  0  0  0  0  0
  -29.7490  -20.6830   20.5320 C   0  0  0  0  0  3  0  0  0  0  0  0
  -29.3750  -19.0850   20.8600 C   0  0  0  0  0  2  0  0  0  0  0  0
  -30.6260  -15.0750   20.6700 C   0  0  0  0  0  0  0  0  0  0  0  0
  -30.5070  -12.7220   19.7630 C   0  0  0  0  0  2  0  0  0  0  0  0
  -29.6350  -12.6350   18.4910 C   0  0  0  0  0  2  0  0  0  0  0  0
  -28.1410  -12.4900   18.8440 C   0  0  0  0  0  2  0  0  0  0  0  0
  -27.6820  -13.4130   20.0060 C   0  0  0  0  0  3  0  0  0  0  0  0
  -28.6910  -13.4540   21.1690 C   0  0  0  0  0  2  0  0  0  0  0  0
  -29.9890  -13.8380   20.5970 N   0  0  0  0  0  0  0  0  0  0  0  0
  -31.8610  -15.0740   20.6590 O   0  0  0  0  0  0  0  0  0  0  0  0
  -30.0150  -17.4010   18.2800 C   0  0  0  0  0  2  0  0  0  0  0  0
  -31.0510  -17.9960   19.2170 C   0  0  0  0  0  2  0  0  0  0  0  0
  -29.2480  -16.3830   19.1410 C   0  0  0  0  0  2  0  0  0  0  0  0
  -30.4050  -17.7870   20.5870 C   0  0  0  0  0  3  0  0  0  0  0  0
  -29.9080  -16.2990   20.4610 N   0  0  0  0  0  0  0  0  0  0  0  0
  -25.2680  -13.9970   20.6140 C   0  0  0  0  0  0  0  0  0  0  0  0
  -24.1870  -13.2190   20.9250 C   0  0  0  0  0  0  0  0  0  0  0  0
  -24.6610  -11.8720   20.9400 C   0  0  0  0  0  0  0  0  0  0  0  0
  -26.3260  -13.1190   20.4470 N   0  0  0  0  0  0  0  0  0  0  0  0
  -25.9680  -11.8390   20.7120 N   0  0  0  0  0  0  0  0  0  0  0  0
  -23.9350  -10.6070   21.0970 C   0  0  0  0  0  0  0  0  0  0  0  0
  -24.3230   -9.6480   22.0580 C   0  0  0  0  0  3  0  0  0  0  0  0
  -23.5960   -8.4480   22.2040 C   0  0  0  0  0  3  0  0  0  0  0  0
  -22.4670   -8.1990   21.3890 C   0  0  0  0  0  0  0  0  0  0  0  0
  -22.0990   -9.1460   20.4170 C   0  0  0  0  0  3  0  0  0  0  0  0
  -22.8270  -10.3380   20.2690 C   0  0  0  0  0  3  0  0  0  0  0  0
  -21.7140   -7.0510   21.4450 O   0  0  0  0  0  0  0  0  0  0  0  0
  -21.6030   -6.3180   22.5990 C   0  0  0  0  0  0  0  0  0  0  0  0
  -21.0800   -6.8740   23.7870 C   0  0  0  0  0  3  0  0  0  0  0  0
  -20.9210   -6.0650   24.9300 C   0  0  0  0  0  3  0  0  0  0  0  0
  -21.2750   -4.7030   24.8850 C   0  0  0  0  0  0  0  0  0  0  0  0
  -21.7920   -4.1480   23.7020 C   0  0  0  0  0  3  0  0  0  0  0  0
  -21.9530   -4.9540   22.5610 C   0  0  0  0  0  0  0  0  0  0  0  0
  -22.4320   -4.4090   21.4170 F   0  0  0  0  0  0  0  0  0  0  0  0
  -21.1140   -3.9250   25.9800 F   0  0  0  0  0  0  0  0  0  0  0  0
  -22.7740  -13.6910   21.1020 C   0  0  0  0  0  0  0  0  0  0  0  0
  -22.0020  -13.0080   21.9400 N   0  0  0  0  0  0  0  0  0  0  0  0
  -22.3620  -14.7010   20.5340 O   0  0  0  0  0  0  0  0  0  0  0  0
  -22.3490  -12.1920   22.4230 H   0  0  0  0  0  0  0  0  0  0  0  0
  -21.0500  -13.3050   22.1010 H   0  0  0  0  0  0  0  0  0  0  0  0
  -25.4330  -15.3670   20.4350 N   0  0  0  0  0  0  0  0  0  0  0  0
  -24.6570  -16.0160   20.5110 H   0  0  0  0  0  0  0  0  0  0  0  0
  -26.3080  -15.8200   20.2040 H   0  0  0  0  0  0  0  0  0  0  0  0
  -29.6160  -23.6020   18.7880 C   0  0  0  0  0  2  0  0  0  0  0  0
  -28.6470  -23.1380   17.7750 N   0  0  0  0  0  4  0  0  0  0  0  0
  -28.3550  -22.1940   17.9550 H   0  0  0  0  0  0  0  0  0  0  0  0
  -29.0740  -23.1600   16.8660 H   0  0  0  0  0  0  0  0  0  0  0  0
  -27.8370  -23.7310   17.7440 H   0  0  0  0  0  0  0  0  0  0  0  0
  -27.9800  -24.8250   20.4270 C   0  0  0  0  0  2  0  0  0  0  0  0
  -28.2340  -26.3300   20.1740 O   0  0  0  0  0  0  0  0  0  0  0  0
  -24.6150  -31.9490   23.2420 C   0  0  0  0  0  0  0  0  0  0  0  0
  -27.1540  -27.2770   20.1550 C   0  0  0  0  0  0  0  0  0  0  0  0
  -23.3850  -30.5500   21.6270 C   0  0  0  0  0  3  0  0  0  0  0  0
  -24.8110  -28.9870   20.1720 C   0  0  0  0  0  0  0  0  0  0  0  0
  -25.9320  -30.8340   21.4070 C   0  0  0  0  0  2  0  0  0  0  0  0
  -25.9990  -29.4450   20.7570 C   0  0  0  0  0  0  0  0  0  0  0  0
  -27.1720  -28.6070   20.7310 C   0  0  0  0  0  3  0  0  0  0  0  0
  -25.9410  -26.9180   19.5260 C   0  0  0  0  0  3  0  0  0  0  0  0
  -24.7920  -27.7360   19.5410 C   0  0  0  0  0  3  0  0  0  0  0  0
  -23.5780  -29.8730   20.2450 C   0  0  0  0  0  2  0  0  0  0  0  0
  -24.6650  -31.1320   22.1470 N   0  0  0  0  0  0  0  0  0  0  0  0
  -23.5400  -32.2300   23.7930 O   0  0  0  0  0  0  0  0  0  0  0  0
  -22.7320  -29.5380   22.6020 C   0  0  0  0  0  0  0  0  0  0  0  0
  -21.4110  -29.3310   22.4730 N   0  0  0  0  0  0  0  0  0  0  0  0
  -23.4190  -28.9410   23.4340 O   0  0  0  0  0  0  0  0  0  0  0  0
  -20.9140  -29.8660   21.7740 H   0  0  0  0  0  0  0  0  0  0  0  0
  -18.0610  -28.0450   22.9700 C   0  0  0  0  0  0  0  0  0  0  0  0
  -20.6090  -28.3860   23.2550 C   0  0  0  0  0  3  0  0  0  0  0  0
  -20.7570  -26.9460   22.7100 C   0  0  0  0  0  2  0  0  0  0  0  0
  -19.6740  -26.5700   21.6930 C   0  0  0  0  0  2  0  0  0  0  0  0
  -18.2820  -26.6890   22.3220 C   0  0  0  0  0  2  0  0  0  0  0  0
  -19.1540  -28.8490   23.3930 C   0  0  0  0  0  0  0  0  0  0  0  0
  -18.8920  -30.1140   23.9590 C   0  0  0  0  0  3  0  0  0  0  0  0
  -17.5720  -30.5800   24.1060 C   0  0  0  0  0  3  0  0  0  0  0  0
  -16.4950  -29.7750   23.7000 C   0  0  0  0  0  3  0  0  0  0  0  0
  -16.7400  -28.5100   23.1370 C   0  0  0  0  0  3  0  0  0  0  0  0
  -25.9050  -32.5880   23.8410 C   0  0  0  0  0  3  0  0  0  0  0  0
  -26.4390  -31.8230   25.1150 C   0  0  1  0  0  0  0  0  0  0  0  0
  -25.3620  -31.5890   26.1990 C   0  0  0  0  0  1  0  0  0  0  0  0
  -27.0190  -30.4440   24.7240 C   0  0  0  0  0  1  0  0  0  0  0  0
  -27.6000  -32.6210   25.7550 C   0  0  0  0  0  1  0  0  0  0  0  0
  -25.5970  -33.9870   24.1760 N   0  0  0  0  0  0  0  0  0  0  0  0
  -25.9070  -35.0410   23.4090 C   0  0  0  0  0  0  0  0  0  0  0  0
  -26.5490  -34.9380   22.3610 O   0  0  0  0  0  0  0  0  0  0  0  0
  -25.0220  -34.1410   24.9910 H   0  0  0  0  0  0  0  0  0  0  0  0
  -24.1710  -36.8360   23.0950 C   0  0  0  0  0  1  0  0  0  0  0  0
  -25.4300  -36.4300   23.8780 C   0  0  0  0  0  3  0  0  0  0  0  0
  -27.5790  -37.3190   24.6660 C   0  0  0  0  0  1  0  0  0  0  0  0
  -26.4600  -37.4840   23.7430 N   0  0  0  0  0  0  0  0  0  0  0  0
  -26.0550  -38.4040   23.8950 H   0  0  0  0  0  0  0  0  0  0  0  0
  1 46  1  0
  1 51  1  0
  1  2  1  0
  3  2  2  0
  3  4  1  0
  6 11  1  0
  7  8  1  0
  7  6  1  0
  9  8  1  0
  9 21  1  0
  9 10  1  0
 11  5  1  0
 11 10  1  0
 12  5  2  0
 13 15  1  0
 13 14  1  0
 14 16  1  0
 15 17  1  0
 16  4  1  0
 17 16  1  0
 17  5  1  0
 18 19  2  0
 19 20  1  0
 19 38  1  0
 20 23  1  0
 21 18  1  0
 21 22  1  0
 22 20  2  0
 23 24  1  0
 24 25  2  0
 26 29  1  0
 26 25  1  0
 27 26  2  0
 28 27  1  0
 28 23  2  0
 29 30  1  0
 30 31  1  0
 31 32  2  0
 33 32  1  0
 33 37  1  0
 34 33  2  0
 35 30  2  0
 35 34  1  0
 36 35  1  0
 38 39  1  0
 39 42  1  0
 39 41  1  0
 40 38  2  0
 43 44  1  0
 43 18  1  0
 45 43  1  0
 47 48  1  0
 47 46  1  0
 49 47  1  0
 50 47  1  0
 52 51  1  0
 53 64  2  0
 54 52  1  0
 54 59  1  0
 55 63  1  0
 55 65  1  0
 56 62  1  0
 56 58  1  0
 57 63  1  0
 58 57  1  0
 59 58  2  0
 60 61  1  0
 60 54  2  0
 61 56  2  0
 62 55  1  0
 63 53  1  0
 65 67  2  0
 66 65  1  0
 68 66  1  0
 69 78  2  0
 69 74  1  0
 70 66  1  0
 70 74  1  0
 71 70  1  0
 72 73  1  0
 72 71  1  0
 73 69  1  0
 74 75  2  0
 75 76  1  0
 77 76  2  0
 78 77  1  0
 79 53  1  0
 79 84  1  0
 79 80  1  0
 80 83  1  1
 80 81  1  0
 82 80  1  0
 84 87  1  0
 85 89  1  0
 85 84  1  0
 86 85  2  0
 89 88  1  0
 91 89  1  0
 91 92  1  0
 91 90  1  0
M  ISO  4   5 100  17 100  51 101  52 101
M  END
>  <TORSDO>  (73) 
F 22

>  <SCORE>  (73) 
-12.913

>  <name>  (73) 
72

>  <ligand_id>  (73) 
72

>  <original_smiles>  (73) 
[H]c1c([H])c([H])c2c(c1[H])C([H])([H])C([H])([H])C([H])([H])C2([H])N([H])C(=O)C1([H])N(C(=O)C([H])(N([H])C(=O)C([H])(N([H])C([H])([H])[H])C([H])([H])[H])C(C([H])([H])[H])(C([H])([H])[H])C([H])([H])[H])C([H])([H])c2c([H])c(OC([H])([H])C([H])(C([H])([H])C([H])([H])C([H])([H])C3([H])N(C(=O)N4C([H])([H])C([H])([H])C([H])([H])C([H])(n5nc(-c6c([H])c([H])c(Oc7c([H])c([H])c(F)c([H])c7F)c([H])c6[H])c(C(=O)N([H])[H])c5N([H])[H])C4([H])[H])C([H])([H])C([H])([H])C3([H])[H])C([H])([H])[N+]([H])([H])[H])c([H])c([H])c2C1([H])[H]

>  <smiles>  (73) 
[H]c1c([H])c([H])c2c(c1[H])C([H])([H])C([H])([H])C([H])([H])C2([H])N([H])C(=O)C1([H])N(C(=O)C([H])(N([H])C(=O)C([H])(N([H])C([H])([H])[H])C([H])([H])[H])C(C([H])([H])[H])(C([H])([H])[H])C([H])([H])[H])C([H])([H])c2c([H])c(OC([H])([H])C([H])(C([H])([H])C([H])([H])C([H])([H])C3([H])N(C(=O)N4C([H])([H])C([H])([H])C([H])([H])C([H])(n5nc(-c6c([H])c([H])c(Oc7c([H])c([H])c(F)c([H])c7F)c([H])c6[H])c(C(=O)N([H])[H])c5N([H])[H])C4([H])[H])C([H])([H])C([H])([H])C3([H])[H])C([H])([H])[N+]([H])([H])[H])c([H])c([H])c2C1([H])[H]

$$$$
73:0:0
     RDKit          3D

 91 98  0  0  1  0  0  0  0  0999 V2000
  -28.6470  -21.8660   20.0410 C   0  0  0  0  0  3  0  0  0  0  0  0
  -29.6560  -20.5400   20.2390 C   0  0  0  0  0  3  0  0  0  0  0  0
  -29.2580  -18.9400   19.9230 C   0  0  0  0  0  3  0  0  0  0  0  0
  -27.9720  -18.6370   20.5740 N   0  0  0  0  0  4  0  0  0  0  0  0
  -28.0760  -18.5790   21.5720 H   0  0  0  0  0  0  0  0  0  0  0  0
  -27.5920  -17.7690   20.2410 H   0  0  0  0  0  0  0  0  0  0  0  0
  -27.3010  -19.3550   20.3650 H   0  0  0  0  0  0  0  0  0  0  0  0
  -30.3100  -17.6610   20.1720 C   0  0  0  0  0  2  0  0  0  0  0  0
  -30.6510  -14.9670   20.0720 C   0  0  0  0  0  0  0  0  0  0  0  0
  -30.4640  -12.6250   19.1550 C   0  0  0  0  0  2  0  0  0  0  0  0
  -29.5000  -12.6030   17.9460 C   0  0  0  0  0  2  0  0  0  0  0  0
  -28.0450  -12.4220   18.4170 C   0  0  0  0  0  2  0  0  0  0  0  0
  -27.6820  -13.3590   19.6000 C   0  0  0  0  0  3  0  0  0  0  0  0
  -28.7640  -13.3540   20.7000 C   0  0  0  0  0  2  0  0  0  0  0  0
  -30.0300  -13.7260   20.0570 N   0  0  0  0  0  0  0  0  0  0  0  0
  -31.8390  -15.0260   19.7410 O   0  0  0  0  0  0  0  0  0  0  0  0
  -29.8970  -16.1470   20.2540 N   0  0  0  0  0  0  0  0  0  0  0  0
  -28.9290  -15.9680   20.4630 H   0  0  0  0  0  0  0  0  0  0  0  0
  -25.3370  -13.9770   20.4230 C   0  0  0  0  0  0  0  0  0  0  0  0
  -24.2710  -13.2190   20.8250 C   0  0  0  0  0  0  0  0  0  0  0  0
  -24.7070  -11.8600   20.7580 C   0  0  0  0  0  0  0  0  0  0  0  0
  -26.3540  -13.0820   20.1350 N   0  0  0  0  0  0  0  0  0  0  0  0
  -25.9850  -11.8030   20.4000 N   0  0  0  0  0  0  0  0  0  0  0  0
  -23.9610  -10.6090   20.9510 C   0  0  0  0  0  0  0  0  0  0  0  0
  -24.3790   -9.6380   21.8870 C   0  0  0  0  0  3  0  0  0  0  0  0
  -23.6340   -8.4540   22.0720 C   0  0  0  0  0  3  0  0  0  0  0  0
  -22.4560   -8.2320   21.3200 C   0  0  0  0  0  0  0  0  0  0  0  0
  -22.0580   -9.1900   20.3710 C   0  0  0  0  0  3  0  0  0  0  0  0
  -22.8040  -10.3660   20.1850 C   0  0  0  0  0  3  0  0  0  0  0  0
  -21.6840   -7.0990   21.4110 O   0  0  0  0  0  0  0  0  0  0  0  0
  -21.6020   -6.3770   22.5750 C   0  0  0  0  0  0  0  0  0  0  0  0
  -21.1320   -6.9490   23.7770 C   0  0  0  0  0  3  0  0  0  0  0  0
  -20.9980   -6.1530   24.9310 C   0  0  0  0  0  3  0  0  0  0  0  0
  -21.3240   -4.7850   24.8850 C   0  0  0  0  0  0  0  0  0  0  0  0
  -21.7880   -4.2120   23.6880 C   0  0  0  0  0  3  0  0  0  0  0  0
  -21.9240   -5.0060   22.5360 C   0  0  0  0  0  0  0  0  0  0  0  0
  -22.3500   -4.4440   21.3800 F   0  0  0  0  0  0  0  0  0  0  0  0
  -21.1900   -4.0180   25.9920 F   0  0  0  0  0  0  0  0  0  0  0  0
  -22.8930  -13.7210   21.1460 C   0  0  0  0  0  0  0  0  0  0  0  0
  -22.1780  -13.0350   22.0290 N   0  0  0  0  0  0  0  0  0  0  0  0
  -22.4610  -14.7590   20.6440 O   0  0  0  0  0  0  0  0  0  0  0  0
  -22.5380  -12.1970   22.4590 H   0  0  0  0  0  0  0  0  0  0  0  0
  -21.2530  -13.3550   22.2820 H   0  0  0  0  0  0  0  0  0  0  0  0
  -25.5210  -15.3450   20.2450 N   0  0  0  0  0  0  0  0  0  0  0  0
  -24.7120  -15.9570   20.2750 H   0  0  0  0  0  0  0  0  0  0  0  0
  -26.2490  -15.6910   19.6350 H   0  0  0  0  0  0  0  0  0  0  0  0
  -29.0770  -23.4770   20.2460 C   0  0  0  0  0  3  0  0  0  0  0  0
  -28.9930  -23.2770   22.8280 C   0  0  0  0  0  1  0  0  0  0  0  0
  -29.8270  -23.6270   21.5850 C   0  0  0  0  0  2  0  0  0  0  0  0
  -27.9990  -24.7470   20.0730 C   0  0  0  0  0  2  0  0  0  0  0  0
  -28.2820  -26.2600   20.2320 O   0  0  0  0  0  0  0  0  0  0  0  0
  -24.6290  -31.8780   23.2380 C   0  0  0  0  0  0  0  0  0  0  0  0
  -27.2180  -27.2240   20.1650 C   0  0  0  0  0  0  0  0  0  0  0  0
  -23.4320  -30.4990   21.5810 C   0  0  0  0  0  3  0  0  0  0  0  0
  -24.8840  -28.9470   20.1420 C   0  0  0  0  0  0  0  0  0  0  0  0
  -25.9840  -30.7790   21.4200 C   0  0  0  0  0  2  0  0  0  0  0  0
  -26.0600  -29.3950   20.7560 C   0  0  0  0  0  0  0  0  0  0  0  0
  -27.2290  -28.5500   20.7490 C   0  0  0  0  0  3  0  0  0  0  0  0
  -26.0140  -26.8690   19.5170 C   0  0  0  0  0  3  0  0  0  0  0  0
  -24.8720  -27.6980   19.5060 C   0  0  0  0  0  3  0  0  0  0  0  0
  -23.6540  -29.8380   20.1950 C   0  0  0  0  0  2  0  0  0  0  0  0
  -24.7020  -31.0720   22.1350 N   0  0  0  0  0  0  0  0  0  0  0  0
  -23.5420  -32.1540   23.7690 O   0  0  0  0  0  0  0  0  0  0  0  0
  -22.7550  -29.4780   22.5310 C   0  0  0  0  0  0  0  0  0  0  0  0
  -21.4330  -29.2850   22.3810 N   0  0  0  0  0  0  0  0  0  0  0  0
  -23.4230  -28.8630   23.3670 O   0  0  0  0  0  0  0  0  0  0  0  0
  -20.9520  -29.8340   21.6820 H   0  0  0  0  0  0  0  0  0  0  0  0
  -18.0670  -28.0130   22.8020 C   0  0  0  0  0  0  0  0  0  0  0  0
  -20.6110  -28.3360   23.1370 C   0  0  0  0  0  3  0  0  0  0  0  0
  -20.7610  -26.9010   22.5800 C   0  0  0  0  0  2  0  0  0  0  0  0
  -19.6940  -26.5450   21.5390 C   0  0  0  0  0  2  0  0  0  0  0  0
  -18.2920  -26.6630   22.1420 C   0  0  0  0  0  2  0  0  0  0  0  0
  -19.1560  -28.8060   23.2550 C   0  0  0  0  0  0  0  0  0  0  0  0
  -18.8900  -30.0670   23.8320 C   0  0  0  0  0  3  0  0  0  0  0  0
  -17.5690  -30.5360   23.9610 C   0  0  0  0  0  3  0  0  0  0  0  0
  -16.4960  -29.7410   23.5230 C   0  0  0  0  0  3  0  0  0  0  0  0
  -16.7450  -28.4830   22.9490 C   0  0  0  0  0  3  0  0  0  0  0  0
  -25.9050  -32.5080   23.8730 C   0  0  0  0  0  3  0  0  0  0  0  0
  -26.4050  -31.7360   25.1570 C   0  0  1  0  0  0  0  0  0  0  0  0
  -25.2990  -31.5050   26.2150 C   0  0  0  0  0  1  0  0  0  0  0  0
  -26.9860  -30.3530   24.7780 C   0  0  0  0  0  1  0  0  0  0  0  0
  -27.5510  -32.5250   25.8310 C   0  0  0  0  0  1  0  0  0  0  0  0
  -25.5960  -33.9080   24.2050 N   0  0  0  0  0  0  0  0  0  0  0  0
  -25.9100  -34.9610   23.4390 C   0  0  0  0  0  0  0  0  0  0  0  0
  -26.5580  -34.8580   22.3950 O   0  0  0  0  0  0  0  0  0  0  0  0
  -25.0190  -34.0590   25.0190 H   0  0  0  0  0  0  0  0  0  0  0  0
  -24.1590  -36.7440   23.1380 C   0  0  0  0  0  1  0  0  0  0  0  0
  -25.4310  -36.3500   23.9060 C   0  0  0  0  0  3  0  0  0  0  0  0
  -27.5860  -37.2610   24.6570 C   0  0  0  0  0  1  0  0  0  0  0  0
  -26.4510  -37.4100   23.7480 N   0  0  0  0  0  0  0  0  0  0  0  0
  -26.0430  -38.3290   23.9010 H   0  0  0  0  0  0  0  0  0  0  0  0
  1  2  2  0
  3  8  1  0
  3  2  1  0
  3  4  1  0
  4  5  1  0
  6  4  1  0
  7  4  1  0
  8 17  1  0
  9 17  1  0
 10 15  1  0
 11 12  1  0
 11 10  1  0
 13 12  1  0
 13 22  1  0
 13 14  1  0
 15  9  1  0
 15 14  1  0
 16  9  2  0
 17 18  1  0
 19 20  2  0
 20 39  1  0
 21 20  1  0
 21 24  1  0
 22 23  1  0
 22 19  1  0
 23 21  2  0
 24 25  1  0
 25 26  2  0
 27 30  1  0
 27 26  1  0
 28 27  2  0
 29 28  1  0
 29 24  2  0
 30 31  1  0
 31 32  1  0
 32 33  2  0
 34 33  1  0
 34 38  1  0
 35 34  2  0
 36 31  2  0
 36 35  1  0
 37 36  1  0
 39 40  1  0
 40 43  1  0
 40 42  1  0
 41 39  2  0
 44 45  1  0
 44 19  1  0
 46 44  1  0
 47  1  1  0
 47 49  1  0
 49 48  1  0
 50 51  1  0
 50 47  1  0
 52 63  2  0
 53 51  1  0
 53 58  1  0
 54 62  1  0
 54 64  1  0
 55 61  1  0
 55 57  1  0
 56 62  1  0
 57 56  1  0
 58 57  2  0
 59 53  2  0
 60 59  1  0
 60 55  2  0
 61 54  1  0
 62 52  1  0
 64 66  2  0
 65 64  1  0
 67 65  1  0
 68 77  2  0
 68 73  1  0
 69 65  1  0
 69 73  1  0
 70 69  1  0
 71 72  1  0
 71 70  1  0
 72 68  1  0
 73 74  2  0
 74 75  1  0
 76 75  2  0
 77 76  1  0
 78 52  1  0
 78 83  1  0
 78 79  1  0
 79 82  1  1
 79 80  1  0
 81 79  1  0
 83 86  1  0
 84 88  1  0
 84 83  1  0
 85 84  2  0
 88 87  1  0
 90 91  1  0
 90 88  1  0
 90 89  1  0
M  ISO  4   9 100  17 100  50 101  51 101
M  END
>  <TORSDO>  (74) 
F 23

>  <SCORE>  (74) 
-12.774

>  <name>  (74) 
73

>  <ligand_id>  (74) 
73

>  <original_smiles>  (74) 
[H]c1c([H])c([H])c2c(c1[H])C([H])([H])C([H])([H])C([H])([H])C2([H])N([H])C(=O)C1([H])N(C(=O)C([H])(N([H])C(=O)C([H])(N([H])C([H])([H])[H])C([H])([H])[H])C(C([H])([H])[H])(C([H])([H])[H])C([H])([H])[H])C([H])([H])c2c([H])c(OC([H])([H])C([H])(C([H])([H])C([H])([H])[H])C([H])([H])C([H])([H])C([H])(C([H])([H])N([H])C(=O)N3C([H])([H])C([H])([H])C([H])([H])C([H])(n4nc(-c5c([H])c([H])c(Oc6c([H])c([H])c(F)c([H])c6F)c([H])c5[H])c(C(=O)N([H])[H])c4N([H])[H])C3([H])[H])[N+]([H])([H])[H])c([H])c([H])c2C1([H])[H]

>  <smiles>  (74) 
[H]c1c([H])c([H])c2c(c1[H])C([H])([H])C([H])([H])C([H])([H])C2([H])N([H])C(=O)C1([H])N(C(=O)C([H])(N([H])C(=O)C([H])(N([H])C([H])([H])[H])C([H])([H])[H])C(C([H])([H])[H])(C([H])([H])[H])C([H])([H])[H])C([H])([H])c2c([H])c(OC([H])([H])C([H])(C([H])([H])C([H])([H])[H])C([H])([H])C([H])([H])C([H])(C([H])([H])N([H])C(=O)N3C([H])([H])C([H])([H])C([H])([H])C([H])(n4nc(-c5c([H])c([H])c(Oc6c([H])c([H])c(F)c([H])c6F)c([H])c5[H])c(C(=O)N([H])[H])c4N([H])[H])C3([H])[H])[N+]([H])([H])[H])c([H])c([H])c2C1([H])[H]

$$$$
74:0:0
     RDKit          3D

104111  0  0  1  0  0  0  0  0999 V2000
  -28.6880  -20.9050   20.3990 C   0  0  0  0  0  2  0  0  0  0  0  0
  -28.6430  -22.3930   20.8520 C   0  0  0  0  0  2  0  0  0  0  0  0
  -27.7380  -23.2190   20.0080 N   0  0  0  0  0  4  0  0  0  0  0  0
  -27.9680  -23.0980   19.0340 H   0  0  0  0  0  0  0  0  0  0  0  0
  -26.8100  -22.8400   20.1440 H   0  0  0  0  0  0  0  0  0  0  0  0
  -27.6200  -24.6750   20.3240 C   0  0  0  0  0  3  0  0  0  0  0  0
  -26.1070  -25.0500   20.4200 C   0  0  0  0  0  2  0  0  0  0  0  0
  -25.0640  -23.1880   21.8680 C   0  0  0  0  0  1  0  0  0  0  0  0
  -25.9560  -25.2810   22.9680 C   0  0  0  0  0  1  0  0  0  0  0  0
  -23.8990  -25.3620   21.5910 C   0  0  0  0  0  1  0  0  0  0  0  0
  -25.2900  -24.7070   21.7070 C   0  0  1  0  0  0  0  0  0  0  0  0
  -28.4130  -25.5250   19.2540 C   0  0  0  0  0  2  0  0  0  0  0  0
  -28.4220  -26.9690   19.3870 O   0  0  0  0  0  0  0  0  0  0  0  0
  -24.4930  -31.6940   22.9460 C   0  0  0  0  0  0  0  0  0  0  0  0
  -27.2320  -27.6800   19.3920 C   0  0  0  0  0  0  0  0  0  0  0  0
  -23.3100  -30.4100   21.1960 C   0  0  0  0  0  3  0  0  0  0  0  0
  -24.7860  -29.0990   19.5940 C   0  0  0  0  0  0  0  0  0  0  0  0
  -25.8100  -30.9040   20.9820 C   0  0  0  0  0  2  0  0  0  0  0  0
  -25.9380  -29.6120   20.1960 C   0  0  0  0  0  0  0  0  0  0  0  0
  -27.1660  -28.9120   20.0900 C   0  0  0  0  0  3  0  0  0  0  0  0
  -26.0570  -27.2080   18.7560 C   0  0  0  0  0  3  0  0  0  0  0  0
  -24.8400  -27.8960   18.8760 C   0  0  0  0  0  3  0  0  0  0  0  0
  -23.5150  -29.8990   19.7500 C   0  0  0  0  0  2  0  0  0  0  0  0
  -24.5560  -31.0130   21.7680 N   0  0  0  0  0  0  0  0  0  0  0  0
  -23.4150  -31.8580   23.5370 O   0  0  0  0  0  0  0  0  0  0  0  0
  -22.7340  -29.2650   22.0620 C   0  0  0  0  0  0  0  0  0  0  0  0
  -21.4090  -29.0680   21.9810 N   0  0  0  0  0  0  0  0  0  0  0  0
  -23.4690  -28.5680   22.7630 O   0  0  0  0  0  0  0  0  0  0  0  0
  -20.8750  -29.6910   21.3930 H   0  0  0  0  0  0  0  0  0  0  0  0
  -18.0790  -27.7920   22.5760 C   0  0  0  0  0  0  0  0  0  0  0  0
  -20.6520  -28.0280   22.6800 C   0  0  0  0  0  3  0  0  0  0  0  0
  -20.7040  -26.6870   21.9140 C   0  0  0  0  0  2  0  0  0  0  0  0
  -19.5250  -26.4940   20.9560 C   0  0  0  0  0  2  0  0  0  0  0  0
  -18.1970  -26.5450   21.7160 C   0  0  0  0  0  2  0  0  0  0  0  0
  -19.2310  -28.4970   23.0130 C   0  0  0  0  0  0  0  0  0  0  0  0
  -19.0700  -29.6700   23.7820 C   0  0  0  0  0  3  0  0  0  0  0  0
  -17.7850  -30.1330   24.1250 C   0  0  0  0  0  3  0  0  0  0  0  0
  -16.6480  -29.4260   23.7020 C   0  0  0  0  0  3  0  0  0  0  0  0
  -16.7950  -28.2580   22.9290 C   0  0  0  0  0  3  0  0  0  0  0  0
  -25.7650  -32.3220   23.5930 C   0  0  0  0  0  3  0  0  0  0  0  0
  -25.4150  -33.6820   24.0210 N   0  0  0  0  0  0  0  0  0  0  0  0
  -25.7090  -34.7970   23.3350 C   0  0  0  0  0  0  0  0  0  0  0  0
  -26.3760  -34.7880   22.2970 O   0  0  0  0  0  0  0  0  0  0  0  0
  -24.8250  -33.7550   24.8360 H   0  0  0  0  0  0  0  0  0  0  0  0
  -23.9260  -36.5600   23.1080 C   0  0  0  0  0  1  0  0  0  0  0  0
  -25.1780  -36.1320   23.8900 C   0  0  0  0  0  3  0  0  0  0  0  0
  -27.2840  -37.0230   24.7860 C   0  0  0  0  0  1  0  0  0  0  0  0
  -26.1750  -37.2220   23.8550 N   0  0  0  0  0  0  0  0  0  0  0  0
  -25.7400  -38.1130   24.0760 H   0  0  0  0  0  0  0  0  0  0  0  0
  -26.3310  -31.4780   24.8000 C   0  0  1  0  0  0  0  0  0  0  0  0
  -25.2710  -31.1290   25.8690 C   0  0  0  0  0  1  0  0  0  0  0  0
  -26.9520  -30.1510   24.3000 C   0  0  0  0  0  1  0  0  0  0  0  0
  -27.4630  -32.2650   25.5020 C   0  0  0  0  0  1  0  0  0  0  0  0
  -29.6950  -20.0510   21.2190 C   0  0  0  0  0  2  0  0  0  0  0  0
  -30.6300  -19.0690   20.4510 C   0  0  0  0  0  3  0  0  0  0  0  0
  -32.2480  -19.1260   22.4610 C   0  0  0  0  0  1  0  0  0  0  0  0
  -31.5350  -18.2320   21.4190 C   0  0  0  0  0  3  0  0  0  0  0  0
  -30.8820  -17.0310   22.1720 C   0  0  0  0  0  2  0  0  0  0  0  0
  -30.8690  -15.0470   20.6090 C   0  0  0  0  0  0  0  0  0  0  0  0
  -30.5900  -12.9170   19.3690 C   0  0  0  0  0  2  0  0  0  0  0  0
  -29.6630  -13.0910   18.1490 C   0  0  0  0  0  2  0  0  0  0  0  0
  -28.1910  -12.9060   18.5650 C   0  0  0  0  0  2  0  0  0  0  0  0
  -27.8110  -13.7480   19.8120 C   0  0  0  0  0  3  0  0  0  0  0  0
  -28.8520  -13.5580   20.9370 C   0  0  0  0  0  2  0  0  0  0  0  0
  -30.1780  -13.8940   20.3900 N   0  0  0  0  0  0  0  0  0  0  0  0
  -31.9750  -15.2670   20.1120 O   0  0  0  0  0  0  0  0  0  0  0  0
  -30.2580  -15.9540   21.3880 N   0  0  0  0  0  0  0  0  0  0  0  0
  -29.3200  -15.6980   21.6640 H   0  0  0  0  0  0  0  0  0  0  0  0
  -25.3900  -14.3040   20.4960 C   0  0  0  0  0  0  0  0  0  0  0  0
  -24.3270  -13.5050   20.8290 C   0  0  0  0  0  0  0  0  0  0  0  0
  -24.8110  -12.1630   20.7760 C   0  0  0  0  0  0  0  0  0  0  0  0
  -26.4550  -13.4440   20.2650 N   0  0  0  0  0  0  0  0  0  0  0  0
  -26.1070  -12.1510   20.4910 N   0  0  0  0  0  0  0  0  0  0  0  0
  -24.1020  -10.8860   20.9250 C   0  0  0  0  0  0  0  0  0  0  0  0
  -24.5310   -9.9070   21.8490 C   0  0  0  0  0  3  0  0  0  0  0  0
  -23.8220   -8.6940   21.9880 C   0  0  0  0  0  3  0  0  0  0  0  0
  -22.6700   -8.4510   21.2020 C   0  0  0  0  0  0  0  0  0  0  0  0
  -22.2610   -9.4190   20.2690 C   0  0  0  0  0  3  0  0  0  0  0  0
  -22.9700  -10.6230   20.1280 C   0  0  0  0  0  3  0  0  0  0  0  0
  -21.9340   -7.2900   21.2500 O   0  0  0  0  0  0  0  0  0  0  0  0
  -21.8530   -6.5360   22.3930 C   0  0  0  0  0  0  0  0  0  0  0  0
  -21.3700   -7.0730   23.6070 C   0  0  0  0  0  3  0  0  0  0  0  0
  -21.2380   -6.2450   24.7400 C   0  0  0  0  0  3  0  0  0  0  0  0
  -21.5780   -4.8820   24.6590 C   0  0  0  0  0  0  0  0  0  0  0  0
  -22.0520   -4.3440   23.4500 C   0  0  0  0  0  3  0  0  0  0  0  0
  -22.1880   -5.1690   22.3190 C   0  0  0  0  0  0  0  0  0  0  0  0
  -22.6270   -4.6420   21.1510 F   0  0  0  0  0  0  0  0  0  0  0  0
  -21.4440   -4.0830   25.7450 F   0  0  0  0  0  0  0  0  0  0  0  0
  -22.9200  -13.9560   21.0870 C   0  0  0  0  0  0  0  0  0  0  0  0
  -22.1930  -13.2340   21.9360 N   0  0  0  0  0  0  0  0  0  0  0  0
  -22.4710  -14.9800   20.5760 O   0  0  0  0  0  0  0  0  0  0  0  0
  -22.5690  -12.4050   22.3720 H   0  0  0  0  0  0  0  0  0  0  0  0
  -21.2480  -13.5180   22.1520 H   0  0  0  0  0  0  0  0  0  0  0  0
  -25.5360  -15.6770   20.3500 N   0  0  0  0  0  0  0  0  0  0  0  0
  -24.7560  -16.3170   20.4580 H   0  0  0  0  0  0  0  0  0  0  0  0
  -26.3830  -16.1380   20.0420 H   0  0  0  0  0  0  0  0  0  0  0  0
  -31.5150  -19.8620   19.4420 C   0  0  0  0  0  2  0  0  0  0  0  0
  -31.1590  -19.6890   17.9530 C   0  0  0  0  0  2  0  0  0  0  0  0
  -31.3450  -21.0010   17.1610 C   0  0  0  0  0  2  0  0  0  0  0  0
  -31.1170  -20.8390   15.6440 C   0  0  0  0  0  2  0  0  0  0  0  0
  -31.0410  -22.1300   14.9380 N   0  0  0  0  0  4  0  0  0  0  0  0
  -30.2520  -22.6640   15.2570 H   0  0  0  0  0  0  0  0  0  0  0  0
  -30.9260  -21.9770   13.9510 H   0  0  0  0  0  0  0  0  0  0  0  0
  -31.8780  -22.6670   15.0800 H   0  0  0  0  0  0  0  0  0  0  0  0
  1  2  1  0
  1 54  1  0
  3  5  1  0
  3  6  1  0
  3  2  1  0
  4  3  1  0
  6 12  1  0
  6  7  1  0
  7 11  1  0
 11 10  1  6
 11  8  1  0
 11  9  1  0
 12 13  1  0
 13 15  1  0
 14 25  2  0
 15 20  1  0
 16 24  1  0
 16 26  1  0
 17 23  1  0
 17 19  1  0
 18 24  1  0
 19 18  1  0
 20 19  2  0
 21 22  1  0
 21 15  2  0
 22 17  2  0
 23 16  1  0
 24 14  1  0
 26 28  2  0
 27 26  1  0
 29 27  1  0
 30 39  2  0
 30 35  1  0
 31 27  1  0
 31 35  1  0
 32 31  1  0
 33 34  1  0
 33 32  1  0
 34 30  1  0
 35 36  2  0
 36 37  1  0
 38 37  2  0
 39 38  1  0
 40 14  1  0
 40 41  1  0
 40 50  1  0
 41 44  1  0
 42 46  1  0
 42 41  1  0
 43 42  2  0
 46 45  1  0
 48 46  1  0
 48 49  1  0
 48 47  1  0
 50 53  1  1
 50 51  1  0
 52 50  1  0
 55 97  1  0
 55 54  1  0
 55 57  1  0
 57 58  1  0
 57 56  1  0
 59 67  1  0
 60 65  1  0
 61 62  1  0
 61 60  1  0
 63 62  1  0
 63 72  1  0
 63 64  1  0
 65 59  1  0
 65 64  1  0
 66 59  2  0
 67 68  1  0
 67 58  1  0
 69 70  2  0
 70 89  1  0
 71 70  1  0
 71 74  1  0
 72 73  1  0
 72 69  1  0
 73 71  2  0
 74 75  1  0
 75 76  2  0
 77 80  1  0
 77 76  1  0
 78 77  2  0
 79 78  1  0
 79 74  2  0
 80 81  1  0
 81 82  1  0
 82 83  2  0
 84 83  1  0
 84 88  1  0
 85 84  2  0
 86 81  2  0
 86 85  1  0
 87 86  1  0
 89 90  1  0
 90 93  1  0
 90 92  1  0
 91 89  2  0
 94 95  1  0
 94 69  1  0
 96 94  1  0
 98 97  1  0
 99 98  1  0
100 99  1  0
101104  1  0
101102  1  0
101100  1  0
103101  1  0
M  ISO  4  12 101  13 101  59 100  67 100
M  END
>  <TORSDO>  (75) 
F 31

>  <SCORE>  (75) 
-9.996

>  <name>  (75) 
74

>  <ligand_id>  (75) 
74

>  <original_smiles>  (75) 
[H]c1c([H])c([H])c2c(c1[H])C([H])([H])C([H])([H])C([H])([H])C2([H])N([H])C(=O)C1([H])N(C(=O)C([H])(N([H])C(=O)C([H])(N([H])C([H])([H])[H])C([H])([H])[H])C(C([H])([H])[H])(C([H])([H])[H])C([H])([H])[H])C([H])([H])c2c([H])c(OC([H])([H])C([H])(C([H])([H])C(C([H])([H])[H])(C([H])([H])[H])C([H])([H])[H])[N+]([H])([H])C([H])([H])C([H])([H])C([H])([H])C([H])(C([H])([H])C([H])([H])C([H])([H])C([H])([H])[N+]([H])([H])[H])C([H])(C([H])([H])[H])C([H])([H])N([H])C(=O)N3C([H])([H])C([H])([H])C([H])([H])C([H])(n4nc(-c5c([H])c([H])c(Oc6c([H])c([H])c(F)c([H])c6F)c([H])c5[H])c(C(=O)N([H])[H])c4N([H])[H])C3([H])[H])c([H])c([H])c2C1([H])[H]

>  <smiles>  (75) 
[H]c1c([H])c([H])c2c(c1[H])C([H])([H])C([H])([H])C([H])([H])C2([H])N([H])C(=O)C1([H])N(C(=O)C([H])(N([H])C(=O)C([H])(N([H])C([H])([H])[H])C([H])([H])[H])C(C([H])([H])[H])(C([H])([H])[H])C([H])([H])[H])C([H])([H])c2c([H])c(OC([H])([H])C([H])(C([H])([H])C(C([H])([H])[H])(C([H])([H])[H])C([H])([H])[H])[N+]([H])([H])C([H])([H])C([H])([H])C([H])([H])C([H])(C([H])([H])C([H])([H])C([H])([H])C([H])([H])[N+]([H])([H])[H])C([H])(C([H])([H])[H])C([H])([H])N([H])C(=O)N3C([H])([H])C([H])([H])C([H])([H])C([H])(n4nc(-c5c([H])c([H])c(Oc6c([H])c([H])c(F)c([H])c6F)c([H])c5[H])c(C(=O)N([H])[H])c4N([H])[H])C3([H])[H])c([H])c([H])c2C1([H])[H]

$$$$
75:0:0
     RDKit          3D

 89 96  0  0  1  0  0  0  0  0999 V2000
  -29.2160  -22.5480   19.9440 C   0  0  0  0  0  2  0  0  0  0  0  0
  -27.8010  -21.0280   21.4050 C   0  0  0  0  0  1  0  0  0  0  0  0
  -30.2150  -21.3460   21.9980 C   0  0  0  0  0  1  0  0  0  0  0  0
  -29.2200  -21.2050   20.8290 C   0  0  2  0  0  0  0  0  0  0  0  0
  -29.6130  -19.8790   20.0130 C   0  0  0  0  0  2  0  0  0  0  0  0
  -29.4600  -18.4270   20.6750 C   0  0  0  0  0  3  0  0  0  0  0  0
  -30.2390  -17.2150   19.9970 C   0  0  0  0  0  3  0  0  0  0  0  0
  -30.6740  -14.6890   20.1680 C   0  0  0  0  0  0  0  0  0  0  0  0
  -30.3810  -12.4650   19.1050 C   0  0  0  0  0  2  0  0  0  0  0  0
  -29.4160  -12.6350   17.9120 C   0  0  0  0  0  2  0  0  0  0  0  0
  -27.9530  -12.4890   18.3750 C   0  0  0  0  0  2  0  0  0  0  0  0
  -27.6390  -13.3350   19.6390 C   0  0  0  0  0  3  0  0  0  0  0  0
  -28.7250  -13.1690   20.7260 C   0  0  0  0  0  2  0  0  0  0  0  0
  -30.0210  -13.4860   20.1120 N   0  0  0  0  0  0  0  0  0  0  0  0
  -31.8340  -14.8010   19.7630 O   0  0  0  0  0  0  0  0  0  0  0  0
  -29.9240  -15.8050   20.4360 N   0  0  0  0  0  0  0  0  0  0  0  0
  -28.9820  -15.6330   20.7530 H   0  0  0  0  0  0  0  0  0  0  0  0
  -25.2620  -13.9390   20.4050 C   0  0  0  0  0  0  0  0  0  0  0  0
  -24.2020  -13.1690   20.7970 C   0  0  0  0  0  0  0  0  0  0  0  0
  -24.6600  -11.8160   20.7590 C   0  0  0  0  0  0  0  0  0  0  0  0
  -26.3010  -13.0570   20.1530 N   0  0  0  0  0  0  0  0  0  0  0  0
  -25.9450  -11.7750   20.4270 N   0  0  0  0  0  0  0  0  0  0  0  0
  -23.9340  -10.5570   20.9660 C   0  0  0  0  0  0  0  0  0  0  0  0
  -24.3820   -9.5900   21.8930 C   0  0  0  0  0  3  0  0  0  0  0  0
  -23.6570   -8.3940   22.0870 C   0  0  0  0  0  3  0  0  0  0  0  0
  -22.4690   -8.1570   21.3550 C   0  0  0  0  0  0  0  0  0  0  0  0
  -22.0410   -9.1120   20.4150 C   0  0  0  0  0  3  0  0  0  0  0  0
  -22.7670  -10.2990   20.2200 C   0  0  0  0  0  3  0  0  0  0  0  0
  -21.7130   -7.0150   21.4580 O   0  0  0  0  0  0  0  0  0  0  0  0
  -21.6870   -6.2720   22.6110 C   0  0  0  0  0  0  0  0  0  0  0  0
  -21.2890   -6.8290   23.8470 C   0  0  0  0  0  3  0  0  0  0  0  0
  -21.2100   -6.0120   24.9930 C   0  0  0  0  0  3  0  0  0  0  0  0
  -21.5190   -4.6420   24.9040 C   0  0  0  0  0  0  0  0  0  0  0  0
  -21.9100   -4.0850   23.6750 C   0  0  0  0  0  3  0  0  0  0  0  0
  -21.9900   -4.8980   22.5300 C   0  0  0  0  0  0  0  0  0  0  0  0
  -22.3480   -4.3540   21.3430 F   0  0  0  0  0  0  0  0  0  0  0  0
  -21.4360   -3.8560   26.0040 F   0  0  0  0  0  0  0  0  0  0  0  0
  -22.8110  -13.6490   21.0980 C   0  0  0  0  0  0  0  0  0  0  0  0
  -22.1040  -12.9520   21.9800 N   0  0  0  0  0  0  0  0  0  0  0  0
  -22.3640  -14.6770   20.5880 O   0  0  0  0  0  0  0  0  0  0  0  0
  -22.4860  -12.1250   22.4130 H   0  0  0  0  0  0  0  0  0  0  0  0
  -21.1710  -13.2490   22.2290 H   0  0  0  0  0  0  0  0  0  0  0  0
  -25.4240  -15.3070   20.2190 N   0  0  0  0  0  0  0  0  0  0  0  0
  -24.6540  -15.9580   20.3350 H   0  0  0  0  0  0  0  0  0  0  0  0
  -26.2590  -15.7430   19.8490 H   0  0  0  0  0  0  0  0  0  0  0  0
  -30.5460  -24.5640   20.8750 C   0  0  0  0  0  1  0  0  0  0  0  0
  -29.1340  -24.0200   20.5950 C   0  0  0  0  0  3  0  0  0  0  0  0
  -28.3270  -25.1140   19.7630 C   0  0  0  0  0  2  0  0  0  0  0  0
  -28.3690  -26.5340   20.2020 O   0  0  0  0  0  0  0  0  0  0  0  0
  -24.6220  -31.8940   23.2280 C   0  0  0  0  0  0  0  0  0  0  0  0
  -27.2330  -27.3610   20.1320 C   0  0  0  0  0  0  0  0  0  0  0  0
  -23.4150  -30.5030   21.5870 C   0  0  0  0  0  3  0  0  0  0  0  0
  -24.8630  -28.9690   20.1410 C   0  0  0  0  0  0  0  0  0  0  0  0
  -25.9520  -30.8280   21.3940 C   0  0  0  0  0  2  0  0  0  0  0  0
  -26.0290  -29.4530   20.7430 C   0  0  0  0  0  0  0  0  0  0  0  0
  -27.2140  -28.6580   20.7340 C   0  0  0  0  0  3  0  0  0  0  0  0
  -26.0460  -26.9440   19.4850 C   0  0  0  0  0  3  0  0  0  0  0  0
  -24.8720  -27.7200   19.5040 C   0  0  0  0  0  3  0  0  0  0  0  0
  -23.6230  -29.8370   20.2010 C   0  0  0  0  0  2  0  0  0  0  0  0
  -24.6830  -31.0920   22.1260 N   0  0  0  0  0  0  0  0  0  0  0  0
  -23.5420  -32.1670   23.7700 O   0  0  0  0  0  0  0  0  0  0  0  0
  -22.7620  -29.4770   22.5430 C   0  0  0  0  0  0  0  0  0  0  0  0
  -21.4360  -29.2930   22.4160 N   0  0  0  0  0  0  0  0  0  0  0  0
  -23.4440  -28.8510   23.3580 O   0  0  0  0  0  0  0  0  0  0  0  0
  -20.9450  -29.8450   21.7270 H   0  0  0  0  0  0  0  0  0  0  0  0
  -18.0650  -28.0770   22.9100 C   0  0  0  0  0  0  0  0  0  0  0  0
  -20.6220  -28.3510   23.1850 C   0  0  0  0  0  3  0  0  0  0  0  0
  -20.7340  -26.9210   22.6080 C   0  0  0  0  0  2  0  0  0  0  0  0
  -19.6340  -26.5930   21.5920 C   0  0  0  0  0  2  0  0  0  0  0  0
  -18.2510  -26.7300   22.2340 C   0  0  0  0  0  2  0  0  0  0  0  0
  -19.1790  -28.8450   23.3430 C   0  0  0  0  0  0  0  0  0  0  0  0
  -18.9520  -30.1070   23.9360 C   0  0  0  0  0  3  0  0  0  0  0  0
  -17.6440  -30.6000   24.1000 C   0  0  0  0  0  3  0  0  0  0  0  0
  -16.5450  -29.8290   23.6840 C   0  0  0  0  0  3  0  0  0  0  0  0
  -16.7570  -28.5690   23.0950 C   0  0  0  0  0  3  0  0  0  0  0  0
  -25.9070  -32.5270   23.8480 C   0  0  0  0  0  3  0  0  0  0  0  0
  -25.5970  -33.9240   24.1850 N   0  0  0  0  0  0  0  0  0  0  0  0
  -25.9180  -34.9800   23.4260 C   0  0  0  0  0  0  0  0  0  0  0  0
  -26.5810  -34.8810   22.3890 O   0  0  0  0  0  0  0  0  0  0  0  0
  -25.0120  -34.0740   24.9950 H   0  0  0  0  0  0  0  0  0  0  0  0
  -24.1820  -36.7680   23.0890 C   0  0  0  0  0  1  0  0  0  0  0  0
  -25.4300  -36.3650   23.8910 C   0  0  0  0  0  3  0  0  0  0  0  0
  -27.5700  -37.2550   24.7060 C   0  0  0  0  0  1  0  0  0  0  0  0
  -26.4590  -37.4220   23.7720 N   0  0  0  0  0  0  0  0  0  0  0  0
  -26.0510  -38.3400   23.9250 H   0  0  0  0  0  0  0  0  0  0  0  0
  -26.4260  -31.7520   25.1210 C   0  0  1  0  0  0  0  0  0  0  0  0
  -25.3350  -31.5090   26.1900 C   0  0  0  0  0  1  0  0  0  0  0  0
  -27.0100  -30.3770   24.7230 C   0  0  0  0  0  1  0  0  0  0  0  0
  -27.5790  -32.5430   25.7830 C   0  0  0  0  0  1  0  0  0  0  0  0
  1 47  1  0
  1  4  1  0
  4  2  1  1
  4  3  1  0
  5  6  1  0
  5  4  1  0
  7 16  1  0
  7  6  2  0
  8 16  1  0
  9 14  1  0
 10 11  1  0
 10  9  1  0
 12 11  1  0
 12 21  1  0
 12 13  1  0
 14  8  1  0
 14 13  1  0
 15  8  2  0
 16 17  1  0
 18 19  2  0
 19 38  1  0
 20 19  1  0
 20 23  1  0
 21 18  1  0
 21 22  1  0
 22 20  2  0
 23 24  1  0
 24 25  2  0
 26 29  1  0
 26 25  1  0
 27 26  2  0
 28 27  1  0
 28 23  2  0
 29 30  1  0
 30 31  1  0
 31 32  2  0
 33 32  1  0
 33 37  1  0
 34 33  2  0
 35 30  2  0
 35 34  1  0
 36 35  1  0
 38 39  1  0
 39 42  1  0
 39 41  1  0
 40 38  2  0
 43 44  1  0
 43 18  1  0
 45 43  1  0
 47 46  1  0
 48 49  1  0
 48 47  1  0
 50 61  2  0
 51 49  1  0
 51 56  1  0
 52 60  1  0
 52 62  1  0
 53 59  1  0
 53 55  1  0
 54 60  1  0
 55 54  1  0
 56 55  2  0
 57 58  1  0
 57 51  2  0
 58 53  2  0
 59 52  1  0
 60 50  1  0
 62 64  2  0
 63 62  1  0
 65 63  1  0
 66 75  2  0
 66 71  1  0
 67 63  1  0
 67 71  1  0
 68 67  1  0
 69 70  1  0
 69 68  1  0
 70 66  1  0
 71 72  2  0
 72 73  1  0
 74 73  2  0
 75 74  1  0
 76 50  1  0
 76 77  1  0
 76 86  1  0
 77 80  1  0
 78 82  1  0
 78 77  1  0
 79 78  2  0
 82 81  1  0
 84 82  1  0
 84 85  1  0
 84 83  1  0
 86 89  1  1
 86 87  1  0
 88 86  1  0
M  ISO  4   8 100  16 100  48 101  49 101
M  END
>  <TORSDO>  (76) 
F 22

>  <SCORE>  (76) 
-12.596

>  <name>  (76) 
75

>  <ligand_id>  (76) 
75

>  <original_smiles>  (76) 
[H]c1c([H])c([H])c2c(c1[H])C([H])([H])C([H])([H])C([H])([H])C2([H])N([H])C(=O)C1([H])N(C(=O)C([H])(N([H])C(=O)C([H])(N([H])C([H])([H])[H])C([H])([H])[H])C(C([H])([H])[H])(C([H])([H])[H])C([H])([H])[H])C([H])([H])c2c([H])c(OC([H])([H])C([H])(C([H])([H])[H])C([H])([H])C(C([H])([H])[H])(C([H])([H])[H])C([H])([H])C([H])([H])C([H])([H])N([H])C(=O)N3C([H])([H])C([H])([H])C([H])([H])C([H])(n4nc(-c5c([H])c([H])c(Oc6c([H])c([H])c(F)c([H])c6F)c([H])c5[H])c(C(=O)N([H])[H])c4N([H])[H])C3([H])[H])c([H])c([H])c2C1([H])[H]

>  <smiles>  (76) 
[H]c1c([H])c([H])c2c(c1[H])C([H])([H])C([H])([H])C([H])([H])C2([H])N([H])C(=O)C1([H])N(C(=O)C([H])(N([H])C(=O)C([H])(N([H])C([H])([H])[H])C([H])([H])[H])C(C([H])([H])[H])(C([H])([H])[H])C([H])([H])[H])C([H])([H])c2c([H])c(OC([H])([H])C([H])(C([H])([H])[H])C([H])([H])C(C([H])([H])[H])(C([H])([H])[H])C([H])([H])C([H])([H])C([H])([H])N([H])C(=O)N3C([H])([H])C([H])([H])C([H])([H])C([H])(n4nc(-c5c([H])c([H])c(Oc6c([H])c([H])c(F)c([H])c6F)c([H])c5[H])c(C(=O)N([H])[H])c4N([H])[H])C3([H])[H])c([H])c([H])c2C1([H])[H]

$$$$
76:0:0
     RDKit          3D

 95103  0  0  1  0  0  0  0  0999 V2000
  -29.5350  -21.0930   20.4280 N   0  0  0  0  0  4  0  0  0  0  0  0
  -29.6770  -21.0110   19.4340 H   0  0  0  0  0  0  0  0  0  0  0  0
  -30.4290  -21.3080   20.8370 H   0  0  0  0  0  0  0  0  0  0  0  0
  -29.0860  -19.7190   20.9560 C   0  0  0  0  0  2  0  0  0  0  0  0
  -30.0630  -18.4140   20.8550 C   0  0  0  0  0  3  0  0  0  0  0  0
  -30.6840  -14.6480   20.5790 C   0  0  0  0  0  0  0  0  0  0  0  0
  -30.4370  -12.4220   19.4660 C   0  0  0  0  0  2  0  0  0  0  0  0
  -29.5110  -12.5270   18.2340 C   0  0  0  0  0  2  0  0  0  0  0  0
  -28.0380  -12.3340   18.6470 C   0  0  0  0  0  2  0  0  0  0  0  0
  -27.6540  -13.2160   19.8600 C   0  0  0  0  0  3  0  0  0  0  0  0
  -28.6910  -13.0850   20.9910 C   0  0  0  0  0  2  0  0  0  0  0  0
  -30.0190  -13.4430   20.4530 N   0  0  0  0  0  0  0  0  0  0  0  0
  -31.7570  -14.8360   19.9990 O   0  0  0  0  0  0  0  0  0  0  0  0
  -28.8730  -16.2740   23.2890 C   0  0  0  0  0  2  0  0  0  0  0  0
  -28.2470  -16.8700   22.0330 C   0  0  0  0  0  2  0  0  0  0  0  0
  -30.0540  -15.4370   22.7950 C   0  0  0  0  0  2  0  0  0  0  0  0
  -29.3630  -16.9280   20.9750 C   0  0  0  0  0  3  0  0  0  0  0  0
  -30.1250  -15.6510   21.3450 N   0  0  0  0  0  0  0  0  0  0  0  0
  -25.2560  -13.8110   20.5660 C   0  0  0  0  0  0  0  0  0  0  0  0
  -24.1850  -13.0420   20.9190 C   0  0  0  0  0  0  0  0  0  0  0  0
  -24.6420  -11.6870   20.8770 C   0  0  0  0  0  0  0  0  0  0  0  0
  -26.3010  -12.9320   20.3320 N   0  0  0  0  0  0  0  0  0  0  0  0
  -25.9360  -11.6460   20.5790 N   0  0  0  0  0  0  0  0  0  0  0  0
  -23.9060  -10.4280   21.0440 C   0  0  0  0  0  0  0  0  0  0  0  0
  -24.3600   -9.4200   21.9230 C   0  0  0  0  0  3  0  0  0  0  0  0
  -23.6290   -8.2220   22.0760 C   0  0  0  0  0  3  0  0  0  0  0  0
  -22.4280   -8.0270   21.3530 C   0  0  0  0  0  0  0  0  0  0  0  0
  -21.9910   -9.0240   20.4640 C   0  0  0  0  0  3  0  0  0  0  0  0
  -22.7220  -10.2140   20.3080 C   0  0  0  0  0  3  0  0  0  0  0  0
  -21.6640   -6.8880   21.4220 O   0  0  0  0  0  0  0  0  0  0  0  0
  -21.6860   -6.0740   22.5250 C   0  0  0  0  0  0  0  0  0  0  0  0
  -21.4010   -6.5650   23.8180 C   0  0  0  0  0  3  0  0  0  0  0  0
  -21.3670   -5.6810   24.9150 C   0  0  0  0  0  3  0  0  0  0  0  0
  -21.6040   -4.3060   24.7190 C   0  0  0  0  0  0  0  0  0  0  0  0
  -21.8820   -3.8160   23.4310 C   0  0  0  0  0  3  0  0  0  0  0  0
  -21.9200   -4.6970   22.3380 C   0  0  0  0  0  0  0  0  0  0  0  0
  -22.1680   -4.2170   21.0960 F   0  0  0  0  0  0  0  0  0  0  0  0
  -21.5620   -3.4540   25.7710 F   0  0  0  0  0  0  0  0  0  0  0  0
  -22.7860  -13.5220   21.1790 C   0  0  0  0  0  0  0  0  0  0  0  0
  -22.0450  -12.8270   22.0350 N   0  0  0  0  0  0  0  0  0  0  0  0
  -22.3580  -14.5500   20.6590 O   0  0  0  0  0  0  0  0  0  0  0  0
  -22.4070  -12.0000   22.4870 H   0  0  0  0  0  0  0  0  0  0  0  0
  -21.1030  -13.1290   22.2400 H   0  0  0  0  0  0  0  0  0  0  0  0
  -25.4160  -15.1810   20.3960 N   0  0  0  0  0  0  0  0  0  0  0  0
  -24.6380  -15.8240   20.5020 H   0  0  0  0  0  0  0  0  0  0  0  0
  -26.2680  -15.6270   20.0880 H   0  0  0  0  0  0  0  0  0  0  0  0
  -31.3780  -18.4870   21.6940 C   0  0  0  0  0  2  0  0  0  0  0  0
  -32.6350  -20.7400   21.8750 C   0  0  0  0  0  1  0  0  0  0  0  0
  -32.4020  -19.2260   23.8640 C   0  0  0  0  0  1  0  0  0  0  0  0
  -31.7220  -19.7160   22.5760 C   0  0  0  0  0  3  0  0  0  0  0  0
  -28.6190  -22.3000   20.6660 C   0  0  0  0  0  2  0  0  0  0  0  0
  -29.0330  -23.7340   18.5320 C   0  0  0  0  0  1  0  0  0  0  0  0
  -29.0190  -23.7570   20.0720 C   0  0  0  0  0  3  0  0  0  0  0  0
  -28.1160  -24.9970   20.5830 C   0  0  0  0  0  2  0  0  0  0  0  0
  -28.3390  -26.4120   20.1470 O   0  0  0  0  0  0  0  0  0  0  0  0
  -24.6310  -31.8550   23.1960 C   0  0  0  0  0  0  0  0  0  0  0  0
  -27.2300  -27.2840   20.1270 C   0  0  0  0  0  0  0  0  0  0  0  0
  -23.4270  -30.4740   21.5420 C   0  0  0  0  0  3  0  0  0  0  0  0
  -24.8740  -28.9200   20.1130 C   0  0  0  0  0  0  0  0  0  0  0  0
  -25.9740  -30.7720   21.3750 C   0  0  0  0  0  2  0  0  0  0  0  0
  -26.0470  -29.3980   20.7160 C   0  0  0  0  0  0  0  0  0  0  0  0
  -27.2280  -28.5930   20.7080 C   0  0  0  0  0  3  0  0  0  0  0  0
  -26.0370  -26.8670   19.4960 C   0  0  0  0  0  3  0  0  0  0  0  0
  -24.8700  -27.6570   19.4980 C   0  0  0  0  0  3  0  0  0  0  0  0
  -23.6440  -29.8050   20.1590 C   0  0  0  0  0  2  0  0  0  0  0  0
  -24.6970  -31.0540   22.0920 N   0  0  0  0  0  0  0  0  0  0  0  0
  -23.5460  -32.1380   23.7250 O   0  0  0  0  0  0  0  0  0  0  0  0
  -22.7510  -29.4580   22.4940 C   0  0  0  0  0  0  0  0  0  0  0  0
  -21.4210  -29.3010   22.3690 N   0  0  0  0  0  0  0  0  0  0  0  0
  -23.4210  -28.8130   23.3050 O   0  0  0  0  0  0  0  0  0  0  0  0
  -20.9400  -29.8700   21.6880 H   0  0  0  0  0  0  0  0  0  0  0  0
  -18.0280  -28.1370   22.8470 C   0  0  0  0  0  0  0  0  0  0  0  0
  -20.5890  -28.3660   23.1280 C   0  0  0  0  0  3  0  0  0  0  0  0
  -20.6780  -26.9370   22.5410 C   0  0  0  0  0  2  0  0  0  0  0  0
  -19.5750  -26.6350   21.5200 C   0  0  0  0  0  2  0  0  0  0  0  0
  -18.1920  -26.7910   22.1610 C   0  0  0  0  0  2  0  0  0  0  0  0
  -19.1540  -28.8830   23.2860 C   0  0  0  0  0  0  0  0  0  0  0  0
  -18.9470  -30.1440   23.8850 C   0  0  0  0  0  3  0  0  0  0  0  0
  -17.6470  -30.6570   24.0530 C   0  0  0  0  0  3  0  0  0  0  0  0
  -16.5350  -29.9060   23.6350 C   0  0  0  0  0  3  0  0  0  0  0  0
  -16.7270  -28.6480   23.0370 C   0  0  0  0  0  3  0  0  0  0  0  0
  -25.9150  -32.4730   23.8330 C   0  0  0  0  0  3  0  0  0  0  0  0
  -25.5920  -33.8530   24.2250 N   0  0  0  0  0  0  0  0  0  0  0  0
  -25.9050  -34.9420   23.5110 C   0  0  0  0  0  0  0  0  0  0  0  0
  -26.5630  -34.8910   22.4680 O   0  0  0  0  0  0  0  0  0  0  0  0
  -25.0120  -33.9690   25.0420 H   0  0  0  0  0  0  0  0  0  0  0  0
  -24.1490  -36.7270   23.2640 C   0  0  0  0  0  1  0  0  0  0  0  0
  -25.4120  -36.3050   24.0340 C   0  0  0  0  0  3  0  0  0  0  0  0
  -27.5580  -37.1790   24.8480 C   0  0  0  0  0  1  0  0  0  0  0  0
  -26.4280  -37.3780   23.9430 N   0  0  0  0  0  0  0  0  0  0  0  0
  -26.0140  -38.2840   24.1430 H   0  0  0  0  0  0  0  0  0  0  0  0
  -26.4510  -31.6560   25.0730 C   0  0  1  0  0  0  0  0  0  0  0  0
  -25.3750  -31.3700   26.1450 C   0  0  0  0  0  1  0  0  0  0  0  0
  -27.0370  -30.2990   24.6220 C   0  0  0  0  0  1  0  0  0  0  0  0
  -27.6040  -32.4330   25.7500 C   0  0  0  0  0  1  0  0  0  0  0  0
  1 51  1  0
  1  3  1  0
  1  4  1  0
  2  1  1  0
  5  4  1  0
  5 47  1  0
  6 18  1  0
  7 12  1  0
  8  9  1  0
  8  7  1  0
 10  9  1  0
 10 22  1  0
 10 11  1  0
 12  6  1  0
 12 11  1  0
 13  6  2  0
 15 14  1  0
 16 14  1  0
 17  5  1  0
 17 18  1  0
 17 15  1  0
 18 16  1  0
 19 20  2  0
 20 39  1  0
 21 20  1  0
 21 24  1  0
 22 19  1  0
 22 23  1  0
 23 21  2  0
 24 25  1  0
 25 26  2  0
 27 30  1  0
 27 26  1  0
 28 27  2  0
 29 28  1  0
 29 24  2  0
 30 31  1  0
 31 32  1  0
 32 33  2  0
 34 33  1  0
 34 38  1  0
 35 34  2  0
 36 31  2  0
 36 35  1  0
 37 36  1  0
 39 40  1  0
 40 43  1  0
 40 42  1  0
 41 39  2  0
 44 45  1  0
 44 19  1  0
 46 44  1  0
 47 50  1  0
 48 50  1  0
 50 49  1  0
 53 52  1  0
 53 54  1  0
 53 51  1  0
 55 54  1  0
 56 67  2  0
 57 55  1  0
 57 62  1  0
 58 66  1  0
 58 68  1  0
 59 65  1  0
 59 61  1  0
 60 66  1  0
 61 60  1  0
 62 61  2  0
 63 64  1  0
 63 57  2  0
 64 59  2  0
 65 58  1  0
 66 56  1  0
 68 70  2  0
 69 68  1  0
 71 69  1  0
 72 81  2  0
 72 77  1  0
 73 69  1  0
 73 77  1  0
 74 73  1  0
 75 76  1  0
 75 74  1  0
 76 72  1  0
 77 78  2  0
 78 79  1  0
 80 79  2  0
 81 80  1  0
 82 56  1  0
 82 83  1  0
 82 92  1  0
 83 86  1  0
 84 88  1  0
 84 83  1  0
 85 84  2  0
 88 87  1  0
 90 88  1  0
 90 91  1  0
 90 89  1  0
 92 95  1  1
 92 93  1  0
 94 92  1  0
M  ISO  4   6 100  18 100  54 101  55 101
M  END
>  <TORSDO>  (77) 
F 23

>  <SCORE>  (77) 
-1.848

>  <name>  (77) 
76

>  <ligand_id>  (77) 
76

>  <original_smiles>  (77) 
[H]c1c([H])c([H])c2c(c1[H])C([H])([H])C([H])([H])C([H])([H])C2([H])N([H])C(=O)C1([H])N(C(=O)C([H])(N([H])C(=O)C([H])(N([H])C([H])([H])[H])C([H])([H])[H])C(C([H])([H])[H])(C([H])([H])[H])C([H])([H])[H])C([H])([H])c2c([H])c(OC([H])([H])C([H])(C([H])([H])[H])C([H])([H])[N+]([H])([H])C([H])([H])C([H])(C([H])([H])C([H])(C([H])([H])[H])C([H])([H])[H])C3([H])N(C(=O)N4C([H])([H])C([H])([H])C([H])([H])C([H])(n5nc(-c6c([H])c([H])c(Oc7c([H])c([H])c(F)c([H])c7F)c([H])c6[H])c(C(=O)N([H])[H])c5N([H])[H])C4([H])[H])C([H])([H])C([H])([H])C3([H])[H])c([H])c([H])c2C1([H])[H]

>  <smiles>  (77) 
[H]c1c([H])c([H])c2c(c1[H])C([H])([H])C([H])([H])C([H])([H])C2([H])N([H])C(=O)C1([H])N(C(=O)C([H])(N([H])C(=O)C([H])(N([H])C([H])([H])[H])C([H])([H])[H])C(C([H])([H])[H])(C([H])([H])[H])C([H])([H])[H])C([H])([H])c2c([H])c(OC([H])([H])C([H])(C([H])([H])[H])C([H])([H])[N+]([H])([H])C([H])([H])C([H])(C([H])([H])C([H])(C([H])([H])[H])C([H])([H])[H])C3([H])N(C(=O)N4C([H])([H])C([H])([H])C([H])([H])C([H])(n5nc(-c6c([H])c([H])c(Oc7c([H])c([H])c(F)c([H])c7F)c([H])c6[H])c(C(=O)N([H])[H])c5N([H])[H])C4([H])[H])C([H])([H])C([H])([H])C3([H])[H])c([H])c([H])c2C1([H])[H]

$$$$
77:0:0
     RDKit          3D

 96104  0  0  1  0  0  0  0  0999 V2000
  -28.7300  -21.9810   20.1810 C   0  0  0  0  0  3  0  0  0  0  0  0
  -30.3740  -23.6460   19.5990 C   0  0  0  0  0  3  0  0  0  0  0  0
  -29.6620  -20.8060   20.1020 C   0  0  0  0  0  0  0  0  0  0  0  0
  -29.0320  -23.4170   19.9100 C   0  0  0  0  0  0  0  0  0  0  0  0
  -31.3250  -22.6010   19.4710 C   0  0  0  0  0  0  0  0  0  0  0  0
  -30.9490  -21.2140   19.6160 C   0  0  0  0  0  0  0  0  0  0  0  0
  -31.8950  -20.1280   19.1370 C   0  0  0  0  0  1  0  0  0  0  0  0
  -33.2480  -24.1210   20.1730 C   0  0  0  0  0  1  0  0  0  0  0  0
  -32.8750  -23.6200   17.7200 C   0  0  0  0  0  1  0  0  0  0  0  0
  -32.7570  -23.0680   19.1540 C   0  0  0  0  0  3  0  0  0  0  0  0
  -28.0720  -18.9020   19.8760 C   0  0  0  0  0  3  0  0  0  0  0  0
  -29.3100  -19.2100   20.3270 C   0  0  0  0  0  0  0  0  0  0  0  0
  -27.2890  -17.5980   19.9590 C   0  0  0  0  0  2  0  0  0  0  0  0
  -28.8260  -16.0510   18.5190 C   0  0  0  0  0  1  0  0  0  0  0  0
  -27.4240  -16.6400   18.7530 C   0  0  0  0  0  2  0  0  0  0  0  0
  -30.2640  -17.9880   20.9940 C   0  0  0  0  0  2  0  0  0  0  0  0
  -30.7180  -15.2290   21.1990 C   0  0  0  0  0  0  0  0  0  0  0  0
  -30.7860  -12.8010   20.4600 C   0  0  0  0  0  2  0  0  0  0  0  0
  -30.0200  -12.5510   19.1380 C   0  0  0  0  0  2  0  0  0  0  0  0
  -28.5320  -12.2680   19.4180 C   0  0  0  0  0  2  0  0  0  0  0  0
  -27.9170  -13.2850   20.4130 C   0  0  0  0  0  3  0  0  0  0  0  0
  -28.8170  -13.5270   21.6460 C   0  0  0  0  0  2  0  0  0  0  0  0
  -30.1430  -13.9520   21.1640 N   0  0  0  0  0  0  0  0  0  0  0  0
  -31.9410  -15.2930   21.0810 O   0  0  0  0  0  0  0  0  0  0  0  0
  -29.9330  -16.4270   21.1440 N   0  0  0  0  0  0  0  0  0  0  0  0
  -28.9490  -16.2360   21.2230 H   0  0  0  0  0  0  0  0  0  0  0  0
  -25.4610  -13.7900   20.9460 C   0  0  0  0  0  0  0  0  0  0  0  0
  -24.3850  -12.9870   21.1960 C   0  0  0  0  0  0  0  0  0  0  0  0
  -24.8820  -11.6490   21.1780 C   0  0  0  0  0  0  0  0  0  0  0  0
  -26.5440  -12.9420   20.7790 N   0  0  0  0  0  0  0  0  0  0  0  0
  -26.1980  -11.6450   20.9920 N   0  0  0  0  0  0  0  0  0  0  0  0
  -24.1650  -10.3700   21.2720 C   0  0  0  0  0  0  0  0  0  0  0  0
  -24.5370   -9.3830   22.2100 C   0  0  0  0  0  3  0  0  0  0  0  0
  -23.8210   -8.1690   22.2920 C   0  0  0  0  0  3  0  0  0  0  0  0
  -22.7160   -7.9350   21.4370 C   0  0  0  0  0  0  0  0  0  0  0  0
  -22.3660   -8.9120   20.4880 C   0  0  0  0  0  3  0  0  0  0  0  0
  -23.0840  -10.1180   20.4030 C   0  0  0  0  0  3  0  0  0  0  0  0
  -21.9790   -6.7770   21.4280 O   0  0  0  0  0  0  0  0  0  0  0  0
  -21.8520   -5.9980   22.5480 C   0  0  0  0  0  0  0  0  0  0  0  0
  -21.3270   -6.5070   23.7570 C   0  0  0  0  0  3  0  0  0  0  0  0
  -21.1410   -5.6510   24.8590 C   0  0  0  0  0  3  0  0  0  0  0  0
  -21.4790   -4.2890   24.7610 C   0  0  0  0  0  0  0  0  0  0  0  0
  -22.0020   -3.7800   23.5610 C   0  0  0  0  0  3  0  0  0  0  0  0
  -22.1850   -4.6310   22.4560 C   0  0  0  0  0  0  0  0  0  0  0  0
  -22.6680   -4.1300   21.2930 F   0  0  0  0  0  0  0  0  0  0  0  0
  -21.2980   -3.4630   25.8220 F   0  0  0  0  0  0  0  0  0  0  0  0
  -22.9580  -13.4310   21.3380 C   0  0  0  0  0  0  0  0  0  0  0  0
  -22.1650  -12.7110   22.1230 N   0  0  0  0  0  0  0  0  0  0  0  0
  -22.5490  -14.4490   20.7820 O   0  0  0  0  0  0  0  0  0  0  0  0
  -22.5030  -11.8970   22.6140 H   0  0  0  0  0  0  0  0  0  0  0  0
  -21.1990  -12.9860   22.2340 H   0  0  0  0  0  0  0  0  0  0  0  0
  -25.6040  -15.1670   20.8130 N   0  0  0  0  0  0  0  0  0  0  0  0
  -24.8020  -15.7840   20.8330 H   0  0  0  0  0  0  0  0  0  0  0  0
  -26.4430  -15.6290   20.4930 H   0  0  0  0  0  0  0  0  0  0  0  0
  -28.0000  -24.7130   19.8340 C   0  0  0  0  0  2  0  0  0  0  0  0
  -28.3360  -26.2390   19.9310 O   0  0  0  0  0  0  0  0  0  0  0  0
  -24.7530  -31.8310   23.2500 C   0  0  0  0  0  0  0  0  0  0  0  0
  -27.2820  -27.2420   19.9570 C   0  0  0  0  0  0  0  0  0  0  0  0
  -23.5300  -30.5290   21.5570 C   0  0  0  0  0  3  0  0  0  0  0  0
  -24.9600  -29.0130   20.0480 C   0  0  0  0  0  0  0  0  0  0  0  0
  -26.0860  -30.7790   21.3840 C   0  0  0  0  0  2  0  0  0  0  0  0
  -26.1500  -29.4150   20.6680 C   0  0  0  0  0  0  0  0  0  0  0  0
  -27.3110  -28.5470   20.6070 C   0  0  0  0  0  3  0  0  0  0  0  0
  -26.0590  -26.9510   19.3140 C   0  0  0  0  0  3  0  0  0  0  0  0
  -24.9280  -27.7950   19.3570 C   0  0  0  0  0  3  0  0  0  0  0  0
  -23.7410  -29.9180   20.1460 C   0  0  0  0  0  2  0  0  0  0  0  0
  -24.8100  -31.0630   22.1210 N   0  0  0  0  0  0  0  0  0  0  0  0
  -23.6730  -32.1030   23.7970 O   0  0  0  0  0  0  0  0  0  0  0  0
  -22.8460  -29.4830   22.4740 C   0  0  0  0  0  0  0  0  0  0  0  0
  -21.5160  -29.3360   22.3490 N   0  0  0  0  0  0  0  0  0  0  0  0
  -23.5120  -28.8090   23.2630 O   0  0  0  0  0  0  0  0  0  0  0  0
  -21.0340  -29.9300   21.6880 H   0  0  0  0  0  0  0  0  0  0  0  0
  -18.1210  -28.1470   22.8150 C   0  0  0  0  0  0  0  0  0  0  0  0
  -20.6860  -28.3740   23.0810 C   0  0  0  0  0  3  0  0  0  0  0  0
  -20.7700  -26.9720   22.4370 C   0  0  0  0  0  2  0  0  0  0  0  0
  -19.6570  -26.7070   21.4160 C   0  0  0  0  0  2  0  0  0  0  0  0
  -18.2810  -26.8340   22.0750 C   0  0  0  0  0  2  0  0  0  0  0  0
  -19.2500  -28.8780   23.2760 C   0  0  0  0  0  0  0  0  0  0  0  0
  -19.0450  -30.1090   23.9360 C   0  0  0  0  0  3  0  0  0  0  0  0
  -17.7440  -30.6110   24.1330 C   0  0  0  0  0  3  0  0  0  0  0  0
  -16.6320  -29.8780   23.6850 C   0  0  0  0  0  3  0  0  0  0  0  0
  -16.8200  -28.6470   23.0340 C   0  0  0  0  0  3  0  0  0  0  0  0
  -26.0390  -32.4270   23.9040 C   0  0  0  0  0  3  0  0  0  0  0  0
  -25.7240  -33.7870   24.3600 N   0  0  0  0  0  0  0  0  0  0  0  0
  -26.0460  -34.9080   23.6980 C   0  0  0  0  0  0  0  0  0  0  0  0
  -26.7040  -34.8970   22.6550 O   0  0  0  0  0  0  0  0  0  0  0  0
  -25.1360  -33.8630   25.1770 H   0  0  0  0  0  0  0  0  0  0  0  0
  -24.3140  -36.7230   23.5150 C   0  0  0  0  0  1  0  0  0  0  0  0
  -25.5590  -36.2490   24.2800 C   0  0  0  0  0  3  0  0  0  0  0  0
  -27.7020  -37.0550   25.1740 C   0  0  0  0  0  1  0  0  0  0  0  0
  -26.5920  -37.3080   24.2560 N   0  0  0  0  0  0  0  0  0  0  0  0
  -26.1910  -38.2110   24.4900 H   0  0  0  0  0  0  0  0  0  0  0  0
  -26.5770  -31.5570   25.1050 C   0  0  1  0  0  0  0  0  0  0  0  0
  -25.5010  -31.2390   26.1720 C   0  0  0  0  0  1  0  0  0  0  0  0
  -27.1490  -30.2150   24.5960 C   0  0  0  0  0  1  0  0  0  0  0  0
  -27.7490  -32.2900   25.8000 C   0  0  0  0  0  1  0  0  0  0  0  0
  2  4  1  0
  3  1  1  0
  3 12  1  0
  4  1  2  0
  5  2  2  0
  5  6  1  0
  6  3  2  0
  7  6  1  0
  9 10  1  0
 10  5  1  0
 10  8  1  0
 11 13  1  0
 11 12  2  0
 12 16  1  0
 14 15  1  0
 15 13  1  0
 16 25  1  0
 18 23  1  0
 19 20  1  0
 19 18  1  0
 21 20  1  0
 21 30  1  0
 21 22  1  0
 23 17  1  0
 23 22  1  0
 24 17  2  0
 25 17  1  0
 25 26  1  0
 27 28  2  0
 28 47  1  0
 29 28  1  0
 29 32  1  0
 30 27  1  0
 30 31  1  0
 31 29  2  0
 32 33  1  0
 33 34  2  0
 35 34  1  0
 36 35  2  0
 37 36  1  0
 37 32  2  0
 38 35  1  0
 38 39  1  0
 39 40  1  0
 40 41  2  0
 42 41  1  0
 42 46  1  0
 43 42  2  0
 44 39  2  0
 44 43  1  0
 45 44  1  0
 47 48  1  0
 48 51  1  0
 48 50  1  0
 49 47  2  0
 52 53  1  0
 52 27  1  0
 54 52  1  0
 55  4  1  0
 55 56  1  0
 56 58  1  0
 57 68  2  0
 58 63  1  0
 59 67  1  0
 59 69  1  0
 60 66  1  0
 60 62  1  0
 61 67  1  0
 62 61  1  0
 63 62  2  0
 64 65  1  0
 64 58  2  0
 65 60  2  0
 66 59  1  0
 67 57  1  0
 69 71  2  0
 70 69  1  0
 72 70  1  0
 73 82  2  0
 73 78  1  0
 74 70  1  0
 74 78  1  0
 75 74  1  0
 76 77  1  0
 76 75  1  0
 77 73  1  0
 78 79  2  0
 79 80  1  0
 81 80  2  0
 82 81  1  0
 83 57  1  0
 83 84  1  0
 83 93  1  0
 84 87  1  0
 85 89  1  0
 85 84  1  0
 86 85  2  0
 89 88  1  0
 91 89  1  0
 91 92  1  0
 91 90  1  0
 93 96  1  1
 93 94  1  0
 95 93  1  0
M  ISO  4  17 100  25 100  55 101  56 101
M  END
>  <TORSDO>  (78) 
F 22

>  <SCORE>  (78) 
-11.822

>  <name>  (78) 
77

>  <ligand_id>  (78) 
77

>  <original_smiles>  (78) 
[H]C(=C(c1c([H])c(C([H])([H])Oc2c([H])c([H])c3c(c2[H])C([H])([H])N(C(=O)C([H])(N([H])C(=O)C([H])(N([H])C([H])([H])[H])C([H])([H])[H])C(C([H])([H])[H])(C([H])([H])[H])C([H])([H])[H])C([H])(C(=O)N([H])C2([H])c4c([H])c([H])c([H])c([H])c4C([H])([H])C([H])([H])C2([H])[H])C3([H])[H])c([H])c(C([H])(C([H])([H])[H])C([H])([H])[H])c1C([H])([H])[H])C([H])([H])N([H])C(=O)N1C([H])([H])C([H])([H])C([H])([H])C([H])(n2nc(-c3c([H])c([H])c(Oc4c([H])c([H])c(F)c([H])c4F)c([H])c3[H])c(C(=O)N([H])[H])c2N([H])[H])C1([H])[H])C([H])([H])C([H])([H])C([H])([H])[H]

>  <smiles>  (78) 
[H]C(=C(c1c([H])c(C([H])([H])Oc2c([H])c([H])c3c(c2[H])C([H])([H])N(C(=O)C([H])(N([H])C(=O)C([H])(N([H])C([H])([H])[H])C([H])([H])[H])C(C([H])([H])[H])(C([H])([H])[H])C([H])([H])[H])C([H])(C(=O)N([H])C2([H])c4c([H])c([H])c([H])c([H])c4C([H])([H])C([H])([H])C2([H])[H])C3([H])[H])c([H])c(C([H])(C([H])([H])[H])C([H])([H])[H])c1C([H])([H])[H])C([H])([H])N([H])C(=O)N1C([H])([H])C([H])([H])C([H])([H])C([H])(n2nc(-c3c([H])c([H])c(Oc4c([H])c([H])c(F)c([H])c4F)c([H])c3[H])c(C(=O)N([H])[H])c2N([H])[H])C1([H])[H])C([H])([H])C([H])([H])C([H])([H])[H]

$$$$
78:0:0
     RDKit          3D

 96104  0  0  1  0  0  0  0  0999 V2000
  -29.6230  -17.8770   19.7070 C   0  0  0  0  0  0  0  0  0  0  0  0
  -29.6240  -17.8280   18.4760 O   0  0  0  0  0  0  0  0  0  0  0  0
  -29.5910  -19.3140   20.3940 C   0  0  0  0  0  2  0  0  0  0  0  0
  -29.5880  -20.5510   19.5000 N   0  0  0  0  0  4  0  0  0  0  0  0
  -30.5440  -20.7430   19.2560 H   0  0  0  0  0  0  0  0  0  0  0  0
  -29.1160  -20.3080   18.6420 H   0  0  0  0  0  0  0  0  0  0  0  0
  -28.9210  -21.8030   20.0770 C   0  0  0  0  0  2  0  0  0  0  0  0
  -29.2760  -23.2690   19.4990 C   0  0  0  0  0  3  0  0  0  0  0  0
  -28.3720  -24.5000   20.0120 C   0  0  0  0  0  3  0  0  0  0  0  0
  -28.6650  -25.9340   19.6940 O   0  0  0  0  0  0  0  0  0  0  0  0
  -25.0900  -31.2290   23.1400 C   0  0  0  0  0  0  0  0  0  0  0  0
  -27.5910  -26.8490   19.7350 C   0  0  0  0  0  0  0  0  0  0  0  0
  -23.8640  -30.0360   21.3540 C   0  0  0  0  0  3  0  0  0  0  0  0
  -25.2890  -28.5610   19.8180 C   0  0  0  0  0  0  0  0  0  0  0  0
  -26.4170  -30.2600   21.2500 C   0  0  0  0  0  2  0  0  0  0  0  0
  -26.4610  -28.9400   20.4900 C   0  0  0  0  0  0  0  0  0  0  0  0
  -27.6120  -28.0920   20.4490 C   0  0  0  0  0  3  0  0  0  0  0  0
  -26.4080  -26.5480   19.0250 C   0  0  0  0  0  3  0  0  0  0  0  0
  -25.2680  -27.3710   19.0760 C   0  0  0  0  0  3  0  0  0  0  0  0
  -24.0790  -29.4680   19.9250 C   0  0  0  0  0  2  0  0  0  0  0  0
  -25.1410  -30.5230   21.9720 N   0  0  0  0  0  0  0  0  0  0  0  0
  -24.0080  -31.5010   23.6800 O   0  0  0  0  0  0  0  0  0  0  0  0
  -23.1430  -28.9660   22.2080 C   0  0  0  0  0  0  0  0  0  0  0  0
  -21.8080  -28.8860   22.0730 N   0  0  0  0  0  0  0  0  0  0  0  0
  -23.7830  -28.2150   22.9470 O   0  0  0  0  0  0  0  0  0  0  0  0
  -21.3540  -29.5400   21.4500 H   0  0  0  0  0  0  0  0  0  0  0  0
  -18.3600  -27.9050   22.5320 C   0  0  0  0  0  0  0  0  0  0  0  0
  -20.9350  -27.9220   22.7440 C   0  0  0  0  0  3  0  0  0  0  0  0
  -20.9050  -26.5750   21.9880 C   0  0  0  0  0  2  0  0  0  0  0  0
  -19.7560  -26.4710   20.9810 C   0  0  0  0  0  2  0  0  0  0  0  0
  -18.4060  -26.6470   21.6820 C   0  0  0  0  0  2  0  0  0  0  0  0
  -19.5470  -28.5140   23.0170 C   0  0  0  0  0  0  0  0  0  0  0  0
  -19.4520  -29.7060   23.7660 C   0  0  0  0  0  3  0  0  0  0  0  0
  -18.1980  -30.2860   24.0370 C   0  0  0  0  0  3  0  0  0  0  0  0
  -17.0230  -29.6690   23.5730 C   0  0  0  0  0  3  0  0  0  0  0  0
  -17.1060  -28.4800   22.8270 C   0  0  0  0  0  3  0  0  0  0  0  0
  -26.3860  -31.7440   23.8390 C   0  0  0  0  0  3  0  0  0  0  0  0
  -26.0950  -33.0810   24.3760 N   0  0  0  0  0  0  0  0  0  0  0  0
  -26.4520  -34.2320   23.7910 C   0  0  0  0  0  0  0  0  0  0  0  0
  -27.1340  -34.2760   22.7620 O   0  0  0  0  0  0  0  0  0  0  0  0
  -25.5000  -33.1210   25.1900 H   0  0  0  0  0  0  0  0  0  0  0  0
  -24.7590  -36.0940   23.7030 C   0  0  0  0  0  1  0  0  0  0  0  0
  -25.9800  -35.5410   24.4540 C   0  0  0  0  0  3  0  0  0  0  0  0
  -28.1140  -36.2510   25.4400 C   0  0  0  0  0  1  0  0  0  0  0  0
  -27.0290  -36.5800   24.5200 N   0  0  0  0  0  0  0  0  0  0  0  0
  -26.6320  -37.4720   24.8030 H   0  0  0  0  0  0  0  0  0  0  0  0
  -26.9010  -30.7860   24.9850 C   0  0  1  0  0  0  0  0  0  0  0  0
  -25.8100  -30.4210   26.0170 C   0  0  0  0  0  1  0  0  0  0  0  0
  -27.4630  -29.4700   24.3950 C   0  0  0  0  0  1  0  0  0  0  0  0
  -28.0620  -31.4590   25.7510 C   0  0  0  0  0  1  0  0  0  0  0  0
  -29.6570  -16.5140   20.5780 C   0  0  0  0  0  3  0  0  0  0  0  0
  -29.9200  -14.2520   19.2380 C   0  0  0  0  0  0  0  0  0  0  0  0
  -29.4950  -12.2710   17.7750 C   0  0  0  0  0  2  0  0  0  0  0  0
  -28.3330  -12.5730   16.8080 C   0  0  0  0  0  2  0  0  0  0  0  0
  -26.9630  -12.2990   17.4620 C   0  0  0  0  0  2  0  0  0  0  0  0
  -26.8490  -12.8850   18.8920 C   0  0  0  0  0  3  0  0  0  0  0  0
  -28.1000  -12.5580   19.7320 C   0  0  0  0  0  2  0  0  0  0  0  0
  -29.2700  -13.0670   19.0000 N   0  0  0  0  0  0  0  0  0  0  0  0
  -31.0180  -14.4890   18.7290 O   0  0  0  0  0  0  0  0  0  0  0  0
  -29.2130  -15.2260   19.8980 N   0  0  0  0  0  0  0  0  0  0  0  0
  -28.2610  -14.9650   20.0990 H   0  0  0  0  0  0  0  0  0  0  0  0
  -24.5200  -13.2370   19.9120 C   0  0  0  0  0  0  0  0  0  0  0  0
  -23.6080  -12.3610   20.4430 C   0  0  0  0  0  0  0  0  0  0  0  0
  -24.2170  -11.0700   20.3790 C   0  0  0  0  0  0  0  0  0  0  0  0
  -25.6180  -12.4690   19.5580 N   0  0  0  0  0  0  0  0  0  0  0  0
  -25.4490  -11.1640   19.8940 N   0  0  0  0  0  0  0  0  0  0  0  0
  -23.6720   -9.7410   20.6860 C   0  0  0  0  0  0  0  0  0  0  0  0
  -24.2620   -8.9080   21.6630 C   0  0  0  0  0  3  0  0  0  0  0  0
  -23.7080   -7.6430   21.9530 C   0  0  0  0  0  3  0  0  0  0  0  0
  -22.5530   -7.2010   21.2660 C   0  0  0  0  0  0  0  0  0  0  0  0
  -21.9830   -8.0230   20.2780 C   0  0  0  0  0  3  0  0  0  0  0  0
  -22.5380   -9.2790   19.9870 C   0  0  0  0  0  3  0  0  0  0  0  0
  -21.9590   -5.9770   21.4650 O   0  0  0  0  0  0  0  0  0  0  0  0
  -21.8850   -5.4030   22.7080 C   0  0  0  0  0  0  0  0  0  0  0  0
  -21.2900   -6.0710   23.8020 C   0  0  0  0  0  3  0  0  0  0  0  0
  -21.1740   -5.4180   25.0460 C   0  0  0  0  0  3  0  0  0  0  0  0
  -21.6410   -4.0990   25.1970 C   0  0  0  0  0  0  0  0  0  0  0  0
  -22.2250   -3.4300   24.1080 C   0  0  0  0  0  3  0  0  0  0  0  0
  -22.3450   -4.0800   22.8670 C   0  0  0  0  0  0  0  0  0  0  0  0
  -22.8900   -3.4230   21.8140 F   0  0  0  0  0  0  0  0  0  0  0  0
  -21.5220   -3.4700   26.3900 F   0  0  0  0  0  0  0  0  0  0  0  0
  -22.2130  -12.6890   20.8910 C   0  0  0  0  0  0  0  0  0  0  0  0
  -21.6940  -11.9510   21.8690 N   0  0  0  0  0  0  0  0  0  0  0  0
  -21.5910  -13.6340   20.4110 O   0  0  0  0  0  0  0  0  0  0  0  0
  -22.2030  -11.1790   22.2710 H   0  0  0  0  0  0  0  0  0  0  0  0
  -20.7710  -12.1640   22.2190 H   0  0  0  0  0  0  0  0  0  0  0  0
  -24.4970  -14.6070   19.6700 N   0  0  0  0  0  0  0  0  0  0  0  0
  -23.7250  -15.2070   19.9350 H   0  0  0  0  0  0  0  0  0  0  0  0
  -25.2250  -15.1110   19.1810 H   0  0  0  0  0  0  0  0  0  0  0  0
  -28.9140  -16.6290   21.9480 C   0  0  0  0  0  2  0  0  0  0  0  0
  -25.9040  -13.5520   22.6780 C   0  0  0  0  0  3  0  0  0  0  0  0
  -27.2460  -13.3450   23.0450 C   0  0  0  0  0  3  0  0  0  0  0  0
  -25.5130  -14.8020   22.1690 C   0  0  0  0  0  3  0  0  0  0  0  0
  -28.2010  -14.3630   22.8540 C   0  0  0  0  0  3  0  0  0  0  0  0
  -26.4710  -15.8130   21.9810 C   0  0  0  0  0  3  0  0  0  0  0  0
  -27.8410  -15.5790   22.2480 C   0  0  0  0  0  0  0  0  0  0  0  0
  1  3  1  0
  1 51  1  0
  2  1  2  0
  4  7  1  0
  4  3  1  0
  5  4  1  0
  6  4  1  0
  8  9  2  0
  8  7  1  0
 10 12  1  0
 10  9  1  0
 11 22  2  0
 12 17  1  0
 13 21  1  0
 13 23  1  0
 14 20  1  0
 14 16  1  0
 15 21  1  0
 16 15  1  0
 17 16  2  0
 18 19  1  0
 18 12  2  0
 19 14  2  0
 20 13  1  0
 21 11  1  0
 23 25  2  0
 24 23  1  0
 26 24  1  0
 27 36  2  0
 27 32  1  0
 28 24  1  0
 28 32  1  0
 29 28  1  0
 30 31  1  0
 30 29  1  0
 31 27  1  0
 32 33  2  0
 33 34  1  0
 35 34  2  0
 36 35  1  0
 37 11  1  0
 37 38  1  0
 37 47  1  0
 38 41  1  0
 39 38  1  0
 39 43  1  0
 40 39  2  0
 43 42  1  0
 43 45  1  0
 45 46  1  0
 45 44  1  0
 47 50  1  1
 47 48  1  0
 49 47  1  0
 51 90  1  0
 52 60  1  0
 53 58  1  0
 54 55  1  0
 54 53  1  0
 56 55  1  0
 56 65  1  0
 56 57  1  0
 58 52  1  0
 58 57  1  0
 59 52  2  0
 60 61  1  0
 60 51  1  0
 62 63  2  0
 63 82  1  0
 64 63  1  0
 64 67  1  0
 65 66  1  0
 65 62  1  0
 66 64  2  0
 67 68  1  0
 68 69  2  0
 70 73  1  0
 70 69  1  0
 71 70  2  0
 72 71  1  0
 72 67  2  0
 73 74  1  0
 74 79  2  0
 74 75  1  0
 75 76  2  0
 76 77  1  0
 77 81  1  0
 78 77  2  0
 79 78  1  0
 80 79  1  0
 82 83  1  0
 83 86  1  0
 83 85  1  0
 84 82  2  0
 87 62  1  0
 87 88  1  0
 89 87  1  0
 90 96  1  0
 91 92  1  0
 93 91  2  0
 94 92  2  0
 95 93  1  0
 95 96  2  0
 96 94  1  0
M  ISO  4   9 101  10 101  52 100  60 100
M  END
>  <TORSDO>  (79) 
F 24

>  <SCORE>  (79) 
7.182

>  <name>  (79) 
78

>  <ligand_id>  (79) 
78

>  <original_smiles>  (79) 
[H]c1c([H])c([H])c(C([H])([H])C([H])(C(=O)C([H])([H])[N+]([H])([H])C([H])([H])C([H])([H])C([H])([H])Oc2c([H])c([H])c3c(c2[H])C([H])([H])N(C(=O)C([H])(N([H])C(=O)C([H])(N([H])C([H])([H])[H])C([H])([H])[H])C(C([H])([H])[H])(C([H])([H])[H])C([H])([H])[H])C([H])(C(=O)N([H])C2([H])c4c([H])c([H])c([H])c([H])c4C([H])([H])C([H])([H])C2([H])[H])C3([H])[H])N([H])C(=O)N2C([H])([H])C([H])([H])C([H])([H])C([H])(n3nc(-c4c([H])c([H])c(Oc5c([H])c([H])c(F)c([H])c5F)c([H])c4[H])c(C(=O)N([H])[H])c3N([H])[H])C2([H])[H])c([H])c1[H]

>  <smiles>  (79) 
[H]c1c([H])c([H])c(C([H])([H])C([H])(C(=O)C([H])([H])[N+]([H])([H])C([H])([H])C([H])([H])C([H])([H])Oc2c([H])c([H])c3c(c2[H])C([H])([H])N(C(=O)C([H])(N([H])C(=O)C([H])(N([H])C([H])([H])[H])C([H])([H])[H])C(C([H])([H])[H])(C([H])([H])[H])C([H])([H])[H])C([H])(C(=O)N([H])C2([H])c4c([H])c([H])c([H])c([H])c4C([H])([H])C([H])([H])C2([H])[H])C3([H])[H])N([H])C(=O)N2C([H])([H])C([H])([H])C([H])([H])C([H])(n3nc(-c4c([H])c([H])c(Oc5c([H])c([H])c(F)c([H])c5F)c([H])c4[H])c(C(=O)N([H])[H])c3N([H])[H])C2([H])[H])c([H])c1[H]

$$$$
79:0:0
     RDKit          3D

 92100  0  0  1  0  0  0  0  0999 V2000
  -28.8950  -20.9950   19.9320 C   0  0  0  0  0  3  0  0  0  0  0  0
  -28.5930  -19.9480   16.2010 C   0  0  0  0  0  2  0  0  0  0  0  0
  -29.5690  -21.1250   16.0960 C   0  0  0  0  0  2  0  0  0  0  0  0
  -28.2070  -19.8510   17.6840 C   0  0  0  0  0  2  0  0  0  0  0  0
  -29.5040  -21.8150   17.4590 C   0  0  0  0  0  2  0  0  0  0  0  0
  -29.2670  -20.6670   18.4470 C   0  0  0  0  0  3  0  0  0  0  0  0
  -29.5300  -19.8440   20.8710 C   0  0  0  0  0  2  0  0  0  0  0  0
  -29.2130  -18.2850   20.6420 C   0  0  0  0  0  3  0  0  0  0  0  0
  -30.1260  -17.2010   21.3820 C   0  0  0  0  0  3  0  0  0  0  0  0
  -30.5880  -14.6620   21.0140 C   0  0  0  0  0  0  0  0  0  0  0  0
  -30.4870  -12.4230   19.9350 C   0  0  0  0  0  2  0  0  0  0  0  0
  -29.6060  -12.5150   18.6690 C   0  0  0  0  0  2  0  0  0  0  0  0
  -28.1180  -12.3240   19.0200 C   0  0  0  0  0  2  0  0  0  0  0  0
  -27.6710  -13.1800   20.2340 C   0  0  0  0  0  3  0  0  0  0  0  0
  -28.6690  -13.0590   21.4060 C   0  0  0  0  0  2  0  0  0  0  0  0
  -29.9930  -13.4330   20.8930 N   0  0  0  0  0  0  0  0  0  0  0  0
  -31.7800  -14.8200   20.7400 O   0  0  0  0  0  0  0  0  0  0  0  0
  -29.7670  -15.7380   21.2540 N   0  0  0  0  0  0  0  0  0  0  0  0
  -28.8000  -15.5040   21.4200 H   0  0  0  0  0  0  0  0  0  0  0  0
  -25.2320  -13.7240   20.8210 C   0  0  0  0  0  0  0  0  0  0  0  0
  -24.1630  -12.9250   21.1240 C   0  0  0  0  0  0  0  0  0  0  0  0
  -24.6550  -11.5850   21.1150 C   0  0  0  0  0  0  0  0  0  0  0  0
  -26.3060  -12.8670   20.6430 N   0  0  0  0  0  0  0  0  0  0  0  0
  -25.9620  -11.5750   20.8820 N   0  0  0  0  0  0  0  0  0  0  0  0
  -23.9480  -10.3050   21.2550 C   0  0  0  0  0  0  0  0  0  0  0  0
  -24.3630   -9.3300   22.1880 C   0  0  0  0  0  3  0  0  0  0  0  0
  -23.6550   -8.1160   22.3170 C   0  0  0  0  0  3  0  0  0  0  0  0
  -22.5180   -7.8670   21.5120 C   0  0  0  0  0  0  0  0  0  0  0  0
  -22.1230   -8.8320   20.5680 C   0  0  0  0  0  3  0  0  0  0  0  0
  -22.8330  -10.0380   20.4370 C   0  0  0  0  0  3  0  0  0  0  0  0
  -21.7840   -6.7070   21.5520 O   0  0  0  0  0  0  0  0  0  0  0  0
  -21.7170   -5.9360   22.6830 C   0  0  0  0  0  0  0  0  0  0  0  0
  -21.2300   -6.4480   23.9050 C   0  0  0  0  0  3  0  0  0  0  0  0
  -21.1130   -5.6020   25.0270 C   0  0  0  0  0  3  0  0  0  0  0  0
  -21.4710   -4.2460   24.9270 C   0  0  0  0  0  0  0  0  0  0  0  0
  -21.9510   -3.7320   23.7090 C   0  0  0  0  0  3  0  0  0  0  0  0
  -22.0700   -4.5740   22.5900 C   0  0  0  0  0  0  0  0  0  0  0  0
  -22.5130   -4.0700   21.4130 F   0  0  0  0  0  0  0  0  0  0  0  0
  -21.3510   -3.4300   26.0000 F   0  0  0  0  0  0  0  0  0  0  0  0
  -22.7420  -13.3700   21.3160 C   0  0  0  0  0  0  0  0  0  0  0  0
  -21.9820  -12.6570   22.1390 N   0  0  0  0  0  0  0  0  0  0  0  0
  -22.3120  -14.3850   20.7700 O   0  0  0  0  0  0  0  0  0  0  0  0
  -22.3430  -11.8350   22.6020 H   0  0  0  0  0  0  0  0  0  0  0  0
  -21.0270  -12.9350   22.3110 H   0  0  0  0  0  0  0  0  0  0  0  0
  -25.3790  -15.0990   20.6590 N   0  0  0  0  0  0  0  0  0  0  0  0
  -24.5980  -15.7410   20.7340 H   0  0  0  0  0  0  0  0  0  0  0  0
  -26.2320  -15.5500   20.3520 H   0  0  0  0  0  0  0  0  0  0  0  0
  -29.2340  -22.5010   20.4130 C   0  0  0  0  0  3  0  0  0  0  0  0
  -28.4530  -23.8110   19.8810 C   0  0  0  0  0  3  0  0  0  0  0  0
  -27.6610  -25.0750   22.0080 C   0  0  0  0  0  1  0  0  0  0  0  0
  -28.5300  -25.1530   20.7430 C   0  0  0  0  0  3  0  0  0  0  0  0
  -28.4310  -26.4920   20.1060 O   0  0  0  0  0  0  0  0  0  0  0  0
  -24.6340  -31.7630   23.2710 C   0  0  0  0  0  0  0  0  0  0  0  0
  -27.2770  -27.2810   20.1450 C   0  0  0  0  0  0  0  0  0  0  0  0
  -23.4520  -30.4270   21.5600 C   0  0  0  0  0  3  0  0  0  0  0  0
  -24.9170  -28.8900   20.1300 C   0  0  0  0  0  0  0  0  0  0  0  0
  -25.9930  -30.7250   21.4420 C   0  0  0  0  0  2  0  0  0  0  0  0
  -26.0740  -29.3620   20.7650 C   0  0  0  0  0  0  0  0  0  0  0  0
  -27.2570  -28.5690   20.7590 C   0  0  0  0  0  3  0  0  0  0  0  0
  -26.1020  -26.8460   19.5010 C   0  0  0  0  0  3  0  0  0  0  0  0
  -24.9320  -27.6360   19.4920 C   0  0  0  0  0  3  0  0  0  0  0  0
  -23.6880  -29.7760   20.1700 C   0  0  0  0  0  2  0  0  0  0  0  0
  -24.7100  -30.9880   22.1490 N   0  0  0  0  0  0  0  0  0  0  0  0
  -23.5430  -32.0390   23.7900 O   0  0  0  0  0  0  0  0  0  0  0  0
  -22.7540  -29.3950   22.4790 C   0  0  0  0  0  0  0  0  0  0  0  0
  -21.4240  -29.2670   22.3420 N   0  0  0  0  0  0  0  0  0  0  0  0
  -23.4100  -28.7130   23.2710 O   0  0  0  0  0  0  0  0  0  0  0  0
  -20.9570  -29.8700   21.6780 H   0  0  0  0  0  0  0  0  0  0  0  0
  -18.0030  -28.1930   22.8120 C   0  0  0  0  0  0  0  0  0  0  0  0
  -20.5730  -28.3240   23.0670 C   0  0  0  0  0  3  0  0  0  0  0  0
  -20.6060  -26.9250   22.4090 C   0  0  0  0  0  2  0  0  0  0  0  0
  -19.4810  -26.7090   21.3910 C   0  0  0  0  0  2  0  0  0  0  0  0
  -18.1130  -26.8780   22.0580 C   0  0  0  0  0  2  0  0  0  0  0  0
  -19.1580  -28.8800   23.2710 C   0  0  0  0  0  0  0  0  0  0  0  0
  -19.0020  -30.1150   23.9370 C   0  0  0  0  0  3  0  0  0  0  0  0
  -17.7230  -30.6630   24.1450 C   0  0  0  0  0  3  0  0  0  0  0  0
  -16.5820  -29.9730   23.7020 C   0  0  0  0  0  3  0  0  0  0  0  0
  -16.7230  -28.7390   23.0420 C   0  0  0  0  0  3  0  0  0  0  0  0
  -25.9100  -32.3590   23.9430 C   0  0  0  0  0  3  0  0  0  0  0  0
  -25.6070  -33.7440   24.3280 N   0  0  0  0  0  0  0  0  0  0  0  0
  -25.9830  -34.8260   23.6360 C   0  0  0  0  0  0  0  0  0  0  0  0
  -26.6930  -34.7620   22.6280 O   0  0  0  0  0  0  0  0  0  0  0  0
  -24.9840  -33.8690   25.1120 H   0  0  0  0  0  0  0  0  0  0  0  0
  -24.3060  -36.6690   23.2890 C   0  0  0  0  0  1  0  0  0  0  0  0
  -25.4970  -36.2000   24.1400 C   0  0  0  0  0  3  0  0  0  0  0  0
  -27.5990  -37.0010   25.1240 C   0  0  0  0  0  1  0  0  0  0  0  0
  -26.5520  -37.2370   24.1350 N   0  0  0  0  0  0  0  0  0  0  0  0
  -26.1540  -38.1560   24.3060 H   0  0  0  0  0  0  0  0  0  0  0  0
  -26.3980  -31.5300   25.1960 C   0  0  1  0  0  0  0  0  0  0  0  0
  -25.2830  -31.2570   26.2330 C   0  0  0  0  0  1  0  0  0  0  0  0
  -26.9780  -30.1650   24.7560 C   0  0  0  0  0  1  0  0  0  0  0  0
  -27.5430  -32.2860   25.9110 C   0  0  0  0  0  1  0  0  0  0  0  0
  1 48  1  0
  1  7  1  0
  2  4  1  0
  3  2  1  0
  3  5  1  0
  4  6  1  0
  5  6  1  0
  6  1  1  0
  8  7  1  0
  8  9  2  0
 10 18  1  0
 11 16  1  0
 12 13  1  0
 12 11  1  0
 14 13  1  0
 14 23  1  0
 14 15  1  0
 16 10  1  0
 16 15  1  0
 17 10  2  0
 18  9  1  0
 18 19  1  0
 20 21  2  0
 21 40  1  0
 22 21  1  0
 22 25  1  0
 23 20  1  0
 23 24  1  0
 24 22  2  0
 25 26  1  0
 26 27  2  0
 28 31  1  0
 28 27  1  0
 29 28  2  0
 30 29  1  0
 30 25  2  0
 31 32  1  0
 32 33  1  0
 33 34  2  0
 35 34  1  0
 35 39  1  0
 36 35  2  0
 37 32  2  0
 37 36  1  0
 38 37  1  0
 40 41  1  0
 41 44  1  0
 41 43  1  0
 42 40  2  0
 45 46  1  0
 45 20  1  0
 47 45  1  0
 49 48  2  0
 49 51  1  0
 51 50  1  0
 52 54  1  0
 52 51  1  0
 53 64  2  0
 54 59  1  0
 55 63  1  0
 55 65  1  0
 56 62  1  0
 56 58  1  0
 57 63  1  0
 58 57  1  0
 59 58  2  0
 60 54  2  0
 61 60  1  0
 61 56  2  0
 62 55  1  0
 63 53  1  0
 65 67  2  0
 66 65  1  0
 68 66  1  0
 69 78  2  0
 69 74  1  0
 70 66  1  0
 70 74  1  0
 71 70  1  0
 72 73  1  0
 72 71  1  0
 73 69  1  0
 74 75  2  0
 75 76  1  0
 77 76  2  0
 78 77  1  0
 79 53  1  0
 79 80  1  0
 79 89  1  0
 80 83  1  0
 81 85  1  0
 81 80  1  0
 82 81  2  0
 85 84  1  0
 87 85  1  0
 87 88  1  0
 87 86  1  0
 89 92  1  1
 89 90  1  0
 91 89  1  0
M  ISO  4  10 100  18 100  51 101  52 101
M  END
>  <TORSDO>  (80) 
F 23

>  <SCORE>  (80) 
-12.380

>  <name>  (80) 
79

>  <ligand_id>  (80) 
79

>  <original_smiles>  (80) 
[H]c1c([H])c([H])c2c(c1[H])C([H])([H])C([H])([H])C([H])([H])C2([H])N([H])C(=O)C1([H])N(C(=O)C([H])(N([H])C(=O)C([H])(N([H])C([H])([H])[H])C([H])([H])[H])C(C([H])([H])[H])(C([H])([H])[H])C([H])([H])[H])C([H])([H])c2c([H])c(OC([H])(C([H])([H])[H])C([H])([H])C([H])([H])C([H])(C([H])([H])C([H])([H])C([H])([H])N([H])C(=O)N3C([H])([H])C([H])([H])C([H])([H])C([H])(n4nc(-c5c([H])c([H])c(Oc6c([H])c([H])c(F)c([H])c6F)c([H])c5[H])c(C(=O)N([H])[H])c4N([H])[H])C3([H])[H])C3([H])C([H])([H])C([H])([H])C([H])([H])C3([H])[H])c([H])c([H])c2C1([H])[H]

>  <smiles>  (80) 
[H]c1c([H])c([H])c2c(c1[H])C([H])([H])C([H])([H])C([H])([H])C2([H])N([H])C(=O)C1([H])N(C(=O)C([H])(N([H])C(=O)C([H])(N([H])C([H])([H])[H])C([H])([H])[H])C(C([H])([H])[H])(C([H])([H])[H])C([H])([H])[H])C([H])([H])c2c([H])c(OC([H])(C([H])([H])[H])C([H])([H])C([H])([H])C([H])(C([H])([H])C([H])([H])C([H])([H])N([H])C(=O)N3C([H])([H])C([H])([H])C([H])([H])C([H])(n4nc(-c5c([H])c([H])c(Oc6c([H])c([H])c(F)c([H])c6F)c([H])c5[H])c(C(=O)N([H])[H])c4N([H])[H])C3([H])[H])C3([H])C([H])([H])C([H])([H])C([H])([H])C3([H])[H])c([H])c([H])c2C1([H])[H]

$$$$
80:0:0
     RDKit          3D

 93101  0  0  1  0  0  0  0  0999 V2000
  -26.6730  -19.5460   19.0580 C   0  0  0  0  0  2  0  0  0  0  0  0
  -27.8320  -18.5510   18.8230 C   0  0  0  0  0  2  0  0  0  0  0  0
  -27.0940  -21.0220   18.9080 C   0  0  0  0  0  2  0  0  0  0  0  0
  -29.3700  -20.3900   19.7050 C   0  0  0  0  0  2  0  0  0  0  0  0
  -29.0210  -18.8060   19.7750 C   0  0  0  0  0  3  0  0  0  0  0  0
  -28.2020  -21.3820   19.8270 N   0  0  1  0  0  4  0  0  0  0  0  0
  -27.8260  -21.2350   20.7550 H   0  0  0  0  0  0  0  0  0  0  0  0
  -28.5800  -22.8710   19.8110 C   0  0  0  0  0  2  0  0  0  0  0  0
  -27.4810  -24.0230   19.5780 C   0  0  0  0  0  2  0  0  0  0  0  0
  -27.7250  -25.4770   20.2090 C   0  0  0  0  0  2  0  0  0  0  0  0
  -27.6660  -26.7190   19.4060 O   0  0  0  0  0  0  0  0  0  0  0  0
  -24.6030  -31.9890   23.2790 C   0  0  0  0  0  0  0  0  0  0  0  0
  -26.6120  -27.6100   19.6000 C   0  0  0  0  0  0  0  0  0  0  0  0
  -23.1680  -30.8350   21.6280 C   0  0  0  0  0  3  0  0  0  0  0  0
  -24.3720  -29.3370   19.9390 C   0  0  0  0  0  0  0  0  0  0  0  0
  -25.6930  -31.0200   21.2290 C   0  0  0  0  0  2  0  0  0  0  0  0
  -25.6190  -29.7060   20.4620 C   0  0  0  0  0  0  0  0  0  0  0  0
  -26.7490  -28.8630   20.2770 C   0  0  0  0  0  3  0  0  0  0  0  0
  -25.3510  -27.2760   19.0810 C   0  0  0  0  0  3  0  0  0  0  0  0
  -24.2400  -28.1300   19.2310 C   0  0  0  0  0  3  0  0  0  0  0  0
  -23.2130  -30.2880   20.1780 C   0  0  0  0  0  2  0  0  0  0  0  0
  -24.5130  -31.2970   22.1010 N   0  0  0  0  0  0  0  0  0  0  0  0
  -23.5920  -32.2740   23.9360 O   0  0  0  0  0  0  0  0  0  0  0  0
  -22.5200  -29.7730   22.5440 C   0  0  0  0  0  0  0  0  0  0  0  0
  -21.1870  -29.6210   22.4490 N   0  0  0  0  0  0  0  0  0  0  0  0
  -23.2120  -29.0850   23.2990 O   0  0  0  0  0  0  0  0  0  0  0  0
  -20.6860  -30.2350   21.8190 H   0  0  0  0  0  0  0  0  0  0  0  0
  -17.8250  -28.3650   22.9240 C   0  0  0  0  0  0  0  0  0  0  0  0
  -20.3820  -28.6450   23.1940 C   0  0  0  0  0  3  0  0  0  0  0  0
  -20.4940  -27.2330   22.5680 C   0  0  0  0  0  2  0  0  0  0  0  0
  -19.3900  -26.9350   21.5440 C   0  0  0  0  0  2  0  0  0  0  0  0
  -18.0100  -27.0420   22.1970 C   0  0  0  0  0  2  0  0  0  0  0  0
  -18.9370  -29.1220   23.3800 C   0  0  0  0  0  0  0  0  0  0  0  0
  -18.7040  -30.3590   24.0160 C   0  0  0  0  0  3  0  0  0  0  0  0
  -17.3940  -30.8390   24.2040 C   0  0  0  0  0  3  0  0  0  0  0  0
  -16.2970  -30.0800   23.7650 C   0  0  0  0  0  3  0  0  0  0  0  0
  -16.5140  -28.8430   23.1300 C   0  0  0  0  0  3  0  0  0  0  0  0
  -25.9740  -32.4760   23.8430 C   0  0  0  0  0  3  0  0  0  0  0  0
  -25.7960  -33.8520   24.3220 N   0  0  0  0  0  0  0  0  0  0  0  0
  -26.1570  -34.9510   23.6400 C   0  0  0  0  0  0  0  0  0  0  0  0
  -26.7480  -34.9000   22.5580 O   0  0  0  0  0  0  0  0  0  0  0  0
  -25.2810  -33.9660   25.1820 H   0  0  0  0  0  0  0  0  0  0  0  0
  -24.5630  -36.8960   23.5620 C   0  0  0  0  0  1  0  0  0  0  0  0
  -25.8100  -36.3180   24.2540 C   0  0  0  0  0  3  0  0  0  0  0  0
  -28.0480  -36.9590   25.0440 C   0  0  0  0  0  1  0  0  0  0  0  0
  -26.9180  -37.2980   24.1820 N   0  0  0  0  0  0  0  0  0  0  0  0
  -26.5940  -38.2310   24.4260 H   0  0  0  0  0  0  0  0  0  0  0  0
  -26.5370  -31.5560   24.9930 C   0  0  1  0  0  0  0  0  0  0  0  0
  -25.5230  -31.2800   26.1290 C   0  0  0  0  0  1  0  0  0  0  0  0
  -26.9900  -30.1920   24.4210 C   0  0  0  0  0  1  0  0  0  0  0  0
  -27.7870  -32.2150   25.6150 C   0  0  0  0  0  1  0  0  0  0  0  0
  -30.2240  -17.7250   19.5610 C   0  0  0  0  0  3  0  0  0  0  0  0
  -30.6660  -15.1060   19.5510 C   0  0  0  0  0  0  0  0  0  0  0  0
  -30.5850  -12.6720   18.9750 C   0  0  0  0  0  2  0  0  0  0  0  0
  -29.5990  -12.4090   17.8150 C   0  0  0  0  0  2  0  0  0  0  0  0
  -28.1790  -12.1950   18.3620 C   0  0  0  0  0  2  0  0  0  0  0  0
  -27.7660  -13.2890   19.3820 C   0  0  0  0  0  3  0  0  0  0  0  0
  -28.8620  -13.5450   20.4410 C   0  0  0  0  0  2  0  0  0  0  0  0
  -30.1060  -13.8600   19.7260 N   0  0  0  0  0  0  0  0  0  0  0  0
  -31.7920  -15.2040   19.0640 O   0  0  0  0  0  0  0  0  0  0  0  0
  -29.8960  -16.2390   19.7750 N   0  0  0  0  0  0  0  0  0  0  0  0
  -28.9630  -16.0490   20.1010 H   0  0  0  0  0  0  0  0  0  0  0  0
  -25.4710  -13.8730   20.3660 C   0  0  0  0  0  0  0  0  0  0  0  0
  -24.4400  -13.0990   20.8140 C   0  0  0  0  0  0  0  0  0  0  0  0
  -24.8720  -11.7460   20.6790 C   0  0  0  0  0  0  0  0  0  0  0  0
  -26.4750  -12.9950   19.9930 N   0  0  0  0  0  0  0  0  0  0  0  0
  -26.1250  -11.7060   20.2440 N   0  0  0  0  0  0  0  0  0  0  0  0
  -24.1510  -10.4860   20.8920 C   0  0  0  0  0  0  0  0  0  0  0  0
  -24.5550   -9.5570   21.8760 C   0  0  0  0  0  3  0  0  0  0  0  0
  -23.8320   -8.3580   22.0730 C   0  0  0  0  0  3  0  0  0  0  0  0
  -22.6900   -8.0810   21.2820 C   0  0  0  0  0  0  0  0  0  0  0  0
  -22.3060   -9.0000   20.2890 C   0  0  0  0  0  3  0  0  0  0  0  0
  -23.0300  -10.1870   20.0920 C   0  0  0  0  0  3  0  0  0  0  0  0
  -21.9400   -6.9350   21.3860 O   0  0  0  0  0  0  0  0  0  0  0  0
  -21.7490   -6.3080   22.5920 C   0  0  0  0  0  0  0  0  0  0  0  0
  -21.1020   -6.9490   23.6710 C   0  0  0  0  0  3  0  0  0  0  0  0
  -20.8630   -6.2450   24.8660 C   0  0  0  0  0  3  0  0  0  0  0  0
  -21.2540   -4.8970   24.9840 C   0  0  0  0  0  0  0  0  0  0  0  0
  -21.8910   -4.2540   23.9070 C   0  0  0  0  0  3  0  0  0  0  0  0
  -22.1320   -4.9570   22.7120 C   0  0  0  0  0  0  0  0  0  0  0  0
  -22.7260   -4.3260   21.6720 F   0  0  0  0  0  0  0  0  0  0  0  0
  -21.0180   -4.2180   26.1300 F   0  0  0  0  0  0  0  0  0  0  0  0
  -23.0810  -13.5770   21.2420 C   0  0  0  0  0  0  0  0  0  0  0  0
  -22.4510  -12.8770   22.1740 N   0  0  0  0  0  0  0  0  0  0  0  0
  -22.5970  -14.6170   20.7910 O   0  0  0  0  0  0  0  0  0  0  0  0
  -22.8620  -12.0360   22.5610 H   0  0  0  0  0  0  0  0  0  0  0  0
  -21.5430  -13.1750   22.5080 H   0  0  0  0  0  0  0  0  0  0  0  0
  -25.6350  -15.2510   20.2250 N   0  0  0  0  0  0  0  0  0  0  0  0
  -24.8750  -15.8990   20.4020 H   0  0  0  0  0  0  0  0  0  0  0  0
  -26.4470  -15.6920   19.8140 H   0  0  0  0  0  0  0  0  0  0  0  0
  -31.4310  -18.1540   20.4490 C   0  0  0  0  0  2  0  0  0  0  0  0
  -33.9230  -18.4730   20.8180 C   0  0  0  0  0  1  0  0  0  0  0  0
  -32.8460  -17.6920   20.0500 C   0  0  0  0  0  2  0  0  0  0  0  0
  2  1  1  0
  2  5  1  0
  3  1  1  0
  3  6  1  0
  4  5  1  0
  4  6  1  0
  5 52  1  0
  6  7  1  1
  8  6  1  0
  9  8  1  0
  9 10  1  0
 11 13  1  0
 11 10  1  0
 12 23  2  0
 13 18  1  0
 14 22  1  0
 14 24  1  0
 15 21  1  0
 15 17  1  0
 16 22  1  0
 17 16  1  0
 18 17  2  0
 19 20  1  0
 19 13  2  0
 20 15  2  0
 21 14  1  0
 22 12  1  0
 24 26  2  0
 25 24  1  0
 27 25  1  0
 28 37  2  0
 28 33  1  0
 29 25  1  0
 29 33  1  0
 30 29  1  0
 31 32  1  0
 31 30  1  0
 32 28  1  0
 33 34  2  0
 34 35  1  0
 36 35  2  0
 37 36  1  0
 38 12  1  0
 38 39  1  0
 38 48  1  0
 39 42  1  0
 40 44  1  0
 40 39  1  0
 41 40  2  0
 44 43  1  0
 46 44  1  0
 46 47  1  0
 46 45  1  0
 48 51  1  1
 48 49  1  0
 50 48  1  0
 52 61  1  0
 52 91  1  0
 53 59  1  0
 53 61  1  0
 54 59  1  0
 55 56  1  0
 55 54  1  0
 57 56  1  0
 57 66  1  0
 57 58  1  0
 59 58  1  0
 60 53  2  0
 61 62  1  0
 63 64  2  0
 64 83  1  0
 65 64  1  0
 65 68  1  0
 66 67  1  0
 66 63  1  0
 67 65  2  0
 68 69  1  0
 69 70  2  0
 71 74  1  0
 71 70  1  0
 72 71  2  0
 73 72  1  0
 73 68  2  0
 74 75  1  0
 75 80  2  0
 75 76  1  0
 76 77  2  0
 77 78  1  0
 78 82  1  0
 79 78  2  0
 80 79  1  0
 81 80  1  0
 83 84  1  0
 84 87  1  0
 84 86  1  0
 85 83  2  0
 88 63  1  0
 88 89  1  0
 90 88  1  0
 93 91  1  0
 93 92  1  0
M  ISO  4  10 101  11 101  53 100  61 100
M  END
>  <TORSDO>  (81) 
F 22

>  <SCORE>  (81) 
-11.784

>  <name>  (81) 
80

>  <ligand_id>  (81) 
80

>  <original_smiles>  (81) 
[H]c1c([H])c([H])c2c(c1[H])C([H])([H])C([H])([H])C([H])([H])C2([H])N([H])C(=O)C1([H])N(C(=O)C([H])(N([H])C(=O)C([H])(N([H])C([H])([H])[H])C([H])([H])[H])C(C([H])([H])[H])(C([H])([H])[H])C([H])([H])[H])C([H])([H])c2c([H])c(OC([H])([H])C([H])([H])C([H])([H])[N+]3([H])C([H])([H])C([H])([H])C([H])([H])C([H])(C([H])(N([H])C(=O)N4C([H])([H])C([H])([H])C([H])([H])C([H])(n5nc(-c6c([H])c([H])c(Oc7c([H])c([H])c(F)c([H])c7F)c([H])c6[H])c(C(=O)N([H])[H])c5N([H])[H])C4([H])[H])C([H])([H])C([H])([H])C([H])([H])[H])C3([H])[H])c([H])c([H])c2C1([H])[H]

>  <smiles>  (81) 
[H]c1c([H])c([H])c2c(c1[H])C([H])([H])C([H])([H])C([H])([H])C2([H])N([H])C(=O)C1([H])N(C(=O)C([H])(N([H])C(=O)C([H])(N([H])C([H])([H])[H])C([H])([H])[H])C(C([H])([H])[H])(C([H])([H])[H])C([H])([H])[H])C([H])([H])c2c([H])c(OC([H])([H])C([H])([H])C([H])([H])[N+]3([H])C([H])([H])C([H])([H])C([H])([H])C([H])(C([H])(N([H])C(=O)N4C([H])([H])C([H])([H])C([H])([H])C([H])(n5nc(-c6c([H])c([H])c(Oc7c([H])c([H])c(F)c([H])c7F)c([H])c6[H])c(C(=O)N([H])[H])c5N([H])[H])C4([H])[H])C([H])([H])C([H])([H])C([H])([H])[H])C3([H])[H])c([H])c([H])c2C1([H])[H]

$$$$
81:0:0
     RDKit          3D

 93100  0  0  1  0  0  0  0  0999 V2000
  -29.2940  -19.8720   20.5820 N   0  0  0  0  0  4  0  0  0  0  0  0
  -28.3420  -19.5620   20.6880 H   0  0  0  0  0  0  0  0  0  0  0  0
  -29.6580  -19.9710   21.5260 H   0  0  0  0  0  0  0  0  0  0  0  0
  -29.2710  -21.4010   19.9720 C   0  0  0  0  0  2  0  0  0  0  0  0
  -27.3120  -22.5870   21.3030 C   0  0  0  0  0  1  0  0  0  0  0  0
  -29.6590  -23.1470   21.9040 C   0  0  0  0  0  1  0  0  0  0  0  0
  -28.7010  -22.9150   20.7250 C   0  0  1  0  0  0  0  0  0  0  0  0
  -28.4740  -24.5110   19.9660 C   0  0  0  0  0  2  0  0  0  0  0  0
  -28.3420  -26.0500   20.4920 O   0  0  0  0  0  0  0  0  0  0  0  0
  -24.6650  -31.9290   23.2670 C   0  0  0  0  0  0  0  0  0  0  0  0
  -27.3000  -27.0860   20.3250 C   0  0  0  0  0  0  0  0  0  0  0  0
  -23.4970  -30.5060   21.6300 C   0  0  0  0  0  3  0  0  0  0  0  0
  -24.9700  -28.9070   20.2270 C   0  0  0  0  0  0  0  0  0  0  0  0
  -26.0560  -30.7550   21.4950 C   0  0  0  0  0  2  0  0  0  0  0  0
  -26.1410  -29.3430   20.8560 C   0  0  0  0  0  0  0  0  0  0  0  0
  -27.2950  -28.4490   20.8850 C   0  0  0  0  0  3  0  0  0  0  0  0
  -26.1030  -26.7900   19.6320 C   0  0  0  0  0  3  0  0  0  0  0  0
  -24.9750  -27.6520   19.5920 C   0  0  0  0  0  3  0  0  0  0  0  0
  -23.7360  -29.8080   20.2620 C   0  0  0  0  0  2  0  0  0  0  0  0
  -24.7610  -31.0890   22.1860 N   0  0  0  0  0  0  0  0  0  0  0  0
  -23.5710  -32.2130   23.7770 O   0  0  0  0  0  0  0  0  0  0  0  0
  -22.8090  -29.5130   22.6020 C   0  0  0  0  0  0  0  0  0  0  0  0
  -21.4820  -29.3340   22.4700 N   0  0  0  0  0  0  0  0  0  0  0  0
  -23.4740  -28.9010   23.4420 O   0  0  0  0  0  0  0  0  0  0  0  0
  -20.9980  -29.8790   21.7700 H   0  0  0  0  0  0  0  0  0  0  0  0
  -18.1030  -28.1070   22.9650 C   0  0  0  0  0  0  0  0  0  0  0  0
  -20.6610  -28.3950   23.2410 C   0  0  0  0  0  3  0  0  0  0  0  0
  -20.7740  -26.9590   22.6780 C   0  0  0  0  0  2  0  0  0  0  0  0
  -19.6800  -26.6200   21.6610 C   0  0  0  0  0  2  0  0  0  0  0  0
  -18.2930  -26.7560   22.2970 C   0  0  0  0  0  2  0  0  0  0  0  0
  -19.2130  -28.8840   23.3940 C   0  0  0  0  0  0  0  0  0  0  0  0
  -18.9780  -30.1440   23.9820 C   0  0  0  0  0  3  0  0  0  0  0  0
  -17.6670  -30.6290   24.1470 C   0  0  0  0  0  3  0  0  0  0  0  0
  -16.5730  -29.8510   23.7330 C   0  0  0  0  0  3  0  0  0  0  0  0
  -16.7920  -28.5920   23.1480 C   0  0  0  0  0  3  0  0  0  0  0  0
  -25.9280  -32.5860   23.9050 C   0  0  0  0  0  3  0  0  0  0  0  0
  -25.6020  -33.9910   24.2160 N   0  0  0  0  0  0  0  0  0  0  0  0
  -25.9260  -35.0410   23.4500 C   0  0  0  0  0  0  0  0  0  0  0  0
  -26.5950  -34.9330   22.4200 O   0  0  0  0  0  0  0  0  0  0  0  0
  -25.0140  -34.1480   25.0200 H   0  0  0  0  0  0  0  0  0  0  0  0
  -24.1870  -36.8250   23.0850 C   0  0  0  0  0  1  0  0  0  0  0  0
  -25.4320  -36.4330   23.8970 C   0  0  0  0  0  3  0  0  0  0  0  0
  -27.5560  -37.3470   24.7240 C   0  0  0  0  0  1  0  0  0  0  0  0
  -26.4570  -37.4940   23.7730 N   0  0  0  0  0  0  0  0  0  0  0  0
  -26.0430  -38.4120   23.9060 H   0  0  0  0  0  0  0  0  0  0  0  0
  -26.4220  -31.8460   25.2090 C   0  0  1  0  0  0  0  0  0  0  0  0
  -25.3080  -31.6170   26.2600 C   0  0  0  0  0  1  0  0  0  0  0  0
  -27.0260  -30.4660   24.8600 C   0  0  0  0  0  1  0  0  0  0  0  0
  -27.5520  -32.6630   25.8810 C   0  0  0  0  0  1  0  0  0  0  0  0
  -30.2090  -18.5630   20.1710 C   0  0  0  0  0  3  0  0  0  0  0  0
  -28.6800  -16.6730   21.1470 C   0  0  0  0  0  1  0  0  0  0  0  0
  -29.6770  -16.8750   19.9830 C   0  0  2  0  0  0  0  0  0  0  0  0
  -30.5720  -15.3560   19.8690 C   0  0  0  0  0  0  0  0  0  0  0  0
  -30.5240  -12.9330   18.9520 C   0  0  0  0  0  2  0  0  0  0  0  0
  -29.5060  -12.8040   17.7870 C   0  0  0  0  0  2  0  0  0  0  0  0
  -28.0770  -12.5400   18.3030 C   0  0  0  0  0  2  0  0  0  0  0  0
  -27.7280  -13.4330   19.5200 C   0  0  0  0  0  3  0  0  0  0  0  0
  -28.8710  -13.4670   20.5560 C   0  0  0  0  0  2  0  0  0  0  0  0
  -30.0590  -14.0240   19.8790 N   0  0  0  0  0  0  0  0  0  0  0  0
  -31.7700  -15.3880   19.5560 O   0  0  0  0  0  0  0  0  0  0  0  0
  -25.4100  -13.9900   20.4300 C   0  0  0  0  0  0  0  0  0  0  0  0
  -24.3640  -13.2210   20.8390 C   0  0  0  0  0  0  0  0  0  0  0  0
  -24.8160  -11.8740   20.7290 C   0  0  0  0  0  0  0  0  0  0  0  0
  -26.4310  -13.1180   20.0960 N   0  0  0  0  0  0  0  0  0  0  0  0
  -26.0820  -11.8310   20.3340 N   0  0  0  0  0  0  0  0  0  0  0  0
  -24.0880  -10.6180   20.9170 C   0  0  0  0  0  0  0  0  0  0  0  0
  -24.5350   -9.6460   21.8370 C   0  0  0  0  0  3  0  0  0  0  0  0
  -23.8050   -8.4530   22.0190 C   0  0  0  0  0  3  0  0  0  0  0  0
  -22.6170   -8.2270   21.2820 C   0  0  0  0  0  0  0  0  0  0  0  0
  -22.1910   -9.1930   20.3540 C   0  0  0  0  0  3  0  0  0  0  0  0
  -22.9190  -10.3780   20.1690 C   0  0  0  0  0  3  0  0  0  0  0  0
  -21.8570   -7.0860   21.3770 O   0  0  0  0  0  0  0  0  0  0  0  0
  -21.7860   -6.3690   22.5430 C   0  0  0  0  0  0  0  0  0  0  0  0
  -21.3010   -6.9370   23.7420 C   0  0  0  0  0  3  0  0  0  0  0  0
  -21.1800   -6.1420   24.9000 C   0  0  0  0  0  3  0  0  0  0  0  0
  -21.5330   -4.7800   24.8570 C   0  0  0  0  0  0  0  0  0  0  0  0
  -22.0140   -4.2110   23.6650 C   0  0  0  0  0  3  0  0  0  0  0  0
  -22.1360   -5.0040   22.5100 C   0  0  0  0  0  0  0  0  0  0  0  0
  -22.5770   -4.4470   21.3550 F   0  0  0  0  0  0  0  0  0  0  0  0
  -21.4080   -4.0150   25.9660 F   0  0  0  0  0  0  0  0  0  0  0  0
  -22.9970  -13.7160   21.2100 C   0  0  0  0  0  0  0  0  0  0  0  0
  -22.3090  -13.0050   22.0970 N   0  0  0  0  0  0  0  0  0  0  0  0
  -22.5510  -14.7650   20.7510 O   0  0  0  0  0  0  0  0  0  0  0  0
  -22.6890  -12.1610   22.4970 H   0  0  0  0  0  0  0  0  0  0  0  0
  -21.3940  -13.3200   22.3880 H   0  0  0  0  0  0  0  0  0  0  0  0
  -25.5500  -15.3540   20.2820 N   0  0  0  0  0  0  0  0  0  0  0  0
  -24.7560  -15.9780   20.3700 H   0  0  0  0  0  0  0  0  0  0  0  0
  -26.3250  -15.7460   19.7640 H   0  0  0  0  0  0  0  0  0  0  0  0
  -27.6330  -17.6660   18.5080 C   0  0  0  0  0  1  0  0  0  0  0  0
  -29.0020  -16.9710   18.5780 C   0  0  0  0  0  2  0  0  0  0  0  0
  -31.3690  -18.5800   21.1690 C   0  0  0  0  0  2  0  0  0  0  0  0
  -30.8700  -18.9500   22.4490 O   0  0  0  0  0  0  0  0  0  0  0  0
  -31.5910  -18.8790   23.0690 H   0  0  0  0  0  0  0  0  0  0  0  0
  1  2  1  0
  1  3  1  0
  4  1  1  0
  4  7  1  0
  7  5  1  1
  7  6  1  0
  8  9  1  0
  8  7  1  0
 10 21  2  0
 11  9  1  0
 11 16  1  0
 12 20  1  0
 12 22  1  0
 13 19  1  0
 13 15  1  0
 14 20  1  0
 15 16  2  0
 15 14  1  0
 17 11  2  0
 18 17  1  0
 18 13  2  0
 19 12  1  0
 20 10  1  0
 22 24  2  0
 23 22  1  0
 25 23  1  0
 26 35  2  0
 26 31  1  0
 27 23  1  0
 27 31  1  0
 28 27  1  0
 29 30  1  0
 29 28  1  0
 30 26  1  0
 31 32  2  0
 32 33  1  0
 34 33  2  0
 35 34  1  0
 36 10  1  0
 36 37  1  0
 36 46  1  0
 37 40  1  0
 38 42  1  0
 38 37  1  0
 39 38  2  0
 42 41  1  0
 44 42  1  0
 44 45  1  0
 44 43  1  0
 46 49  1  1
 46 47  1  0
 48 46  1  0
 50  1  1  0
 50 91  1  0
 52 50  1  0
 52 51  1  1
 53 59  1  0
 53 52  1  0
 54 59  1  0
 55 56  1  0
 55 54  1  0
 57 56  1  0
 57 64  1  0
 57 58  1  0
 59 58  1  0
 60 53  2  0
 61 62  2  0
 62 81  1  0
 63 62  1  0
 63 66  1  0
 64 65  1  0
 64 61  1  0
 65 63  2  0
 66 67  1  0
 67 68  2  0
 69 72  1  0
 69 68  1  0
 70 69  2  0
 71 70  1  0
 71 66  2  0
 72 73  1  0
 73 74  1  0
 74 75  2  0
 76 75  1  0
 76 80  1  0
 77 76  2  0
 78 73  2  0
 78 77  1  0
 79 78  1  0
 81 82  1  0
 82 85  1  0
 82 84  1  0
 83 81  2  0
 86 87  1  0
 86 61  1  0
 88 86  1  0
 89 90  1  0
 90 52  1  0
 91 92  1  0
 92 93  1  0
M  ISO  4   8 101   9 101  52 100  53 100
M  END
>  <TORSDO>  (82) 
F 24

>  <SCORE>  (82) 
-14.311

>  <name>  (82) 
81

>  <ligand_id>  (82) 
81

>  <original_smiles>  (82) 
[H]OC([H])([H])C([H])(C(C(=O)N1C([H])([H])C([H])([H])C([H])([H])C([H])(n2nc(-c3c([H])c([H])c(Oc4c([H])c([H])c(F)c([H])c4F)c([H])c3[H])c(C(=O)N([H])[H])c2N([H])[H])C1([H])[H])(C([H])([H])[H])C([H])([H])C([H])([H])[H])[N+]([H])([H])C([H])([H])C(C([H])([H])[H])(C([H])([H])[H])C([H])([H])Oc1c([H])c([H])c2c(c1[H])C([H])([H])N(C(=O)C([H])(N([H])C(=O)C([H])(N([H])C([H])([H])[H])C([H])([H])[H])C(C([H])([H])[H])(C([H])([H])[H])C([H])([H])[H])C([H])(C(=O)N([H])C1([H])c3c([H])c([H])c([H])c([H])c3C([H])([H])C([H])([H])C1([H])[H])C2([H])[H]

>  <smiles>  (82) 
[H]OC([H])([H])C([H])(C(C(=O)N1C([H])([H])C([H])([H])C([H])([H])C([H])(n2nc(-c3c([H])c([H])c(Oc4c([H])c([H])c(F)c([H])c4F)c([H])c3[H])c(C(=O)N([H])[H])c2N([H])[H])C1([H])[H])(C([H])([H])[H])C([H])([H])C([H])([H])[H])[N+]([H])([H])C([H])([H])C(C([H])([H])[H])(C([H])([H])[H])C([H])([H])Oc1c([H])c([H])c2c(c1[H])C([H])([H])N(C(=O)C([H])(N([H])C(=O)C([H])(N([H])C([H])([H])[H])C([H])([H])[H])C(C([H])([H])[H])(C([H])([H])[H])C([H])([H])[H])C([H])(C(=O)N([H])C1([H])c3c([H])c([H])c([H])c([H])c3C([H])([H])C([H])([H])C1([H])[H])C2([H])[H]

$$$$
82:0:0
     RDKit          3D

 96104  0  0  1  0  0  0  0  0999 V2000
  -31.1700  -23.4210   18.2740 C   0  0  0  0  0  3  0  0  0  0  0  0
  -31.2260  -22.1200   18.8140 C   0  0  0  0  0  3  0  0  0  0  0  0
  -30.2850  -24.3860   18.7990 C   0  0  0  0  0  3  0  0  0  0  0  0
  -29.4970  -22.7330   20.4090 C   0  0  0  0  0  3  0  0  0  0  0  0
  -30.4000  -21.7440   19.8970 C   0  0  0  0  0  0  0  0  0  0  0  0
  -29.4260  -24.0610   19.8670 C   0  0  0  0  0  0  0  0  0  0  0  0
  -30.5450  -20.3100   20.4990 C   0  0  0  0  0  2  0  0  0  0  0  0
  -31.0590  -17.9510   19.4500 C   0  0  0  0  0  0  0  0  0  0  0  0
  -31.1580  -19.3020   19.5890 N   0  0  0  0  0  0  0  0  0  0  0  0
  -31.7120  -17.4050   18.5610 O   0  0  0  0  0  0  0  0  0  0  0  0
  -31.8020  -19.7120   18.9310 H   0  0  0  0  0  0  0  0  0  0  0  0
  -30.1450  -17.0600   20.3400 C   0  0  0  0  0  3  0  0  0  0  0  0
  -31.0610  -14.6300   19.6780 C   0  0  0  0  0  0  0  0  0  0  0  0
  -30.6760  -12.4820   18.4810 C   0  0  0  0  0  2  0  0  0  0  0  0
  -29.5890  -12.7200   17.4040 C   0  0  0  0  0  2  0  0  0  0  0  0
  -28.1640  -12.5980   17.9850 C   0  0  0  0  0  2  0  0  0  0  0  0
  -27.9930  -13.3660   19.3210 C   0  0  0  0  0  3  0  0  0  0  0  0
  -29.1700  -13.0620   20.2790 C   0  0  0  0  0  2  0  0  0  0  0  0
  -30.4240  -13.4200   19.5870 N   0  0  0  0  0  0  0  0  0  0  0  0
  -32.1460  -14.8620   19.1420 O   0  0  0  0  0  0  0  0  0  0  0  0
  -30.2940  -15.5690   20.2810 N   0  0  0  0  0  0  0  0  0  0  0  0
  -29.5050  -15.1190   20.7130 H   0  0  0  0  0  0  0  0  0  0  0  0
  -25.7030  -13.9650   20.3340 C   0  0  0  0  0  0  0  0  0  0  0  0
  -24.6680  -13.1980   20.7840 C   0  0  0  0  0  0  0  0  0  0  0  0
  -25.0890  -11.8430   20.6230 C   0  0  0  0  0  0  0  0  0  0  0  0
  -26.6980  -13.0850   19.9400 N   0  0  0  0  0  0  0  0  0  0  0  0
  -26.3390  -11.7970   20.1750 N   0  0  0  0  0  0  0  0  0  0  0  0
  -24.3520  -10.5930   20.8230 C   0  0  0  0  0  0  0  0  0  0  0  0
  -24.7820   -9.6260   21.7550 C   0  0  0  0  0  3  0  0  0  0  0  0
  -24.0460   -8.4370   21.9410 C   0  0  0  0  0  3  0  0  0  0  0  0
  -22.8630   -8.2080   21.1980 C   0  0  0  0  0  0  0  0  0  0  0  0
  -22.4520   -9.1670   20.2530 C   0  0  0  0  0  3  0  0  0  0  0  0
  -23.1900  -10.3480   20.0640 C   0  0  0  0  0  3  0  0  0  0  0  0
  -22.0970   -7.0730   21.2960 O   0  0  0  0  0  0  0  0  0  0  0  0
  -21.9580   -6.3980   22.4840 C   0  0  0  0  0  0  0  0  0  0  0  0
  -21.4250   -7.0190   23.6340 C   0  0  0  0  0  3  0  0  0  0  0  0
  -21.2320   -6.2720   24.8150 C   0  0  0  0  0  3  0  0  0  0  0  0
  -21.5650   -4.9040   24.8440 C   0  0  0  0  0  0  0  0  0  0  0  0
  -22.0920   -4.2820   23.6990 C   0  0  0  0  0  3  0  0  0  0  0  0
  -22.2860   -5.0290   22.5210 C   0  0  0  0  0  0  0  0  0  0  0  0
  -22.7730   -4.4180   21.4150 F   0  0  0  0  0  0  0  0  0  0  0  0
  -21.3750   -4.1850   25.9760 F   0  0  0  0  0  0  0  0  0  0  0  0
  -23.3260  -13.6890   21.2420 C   0  0  0  0  0  0  0  0  0  0  0  0
  -22.6990  -12.9740   22.1660 N   0  0  0  0  0  0  0  0  0  0  0  0
  -22.8490  -14.7410   20.8150 O   0  0  0  0  0  0  0  0  0  0  0  0
  -23.1030  -12.1240   22.5290 H   0  0  0  0  0  0  0  0  0  0  0  0
  -21.8050  -13.2830   22.5210 H   0  0  0  0  0  0  0  0  0  0  0  0
  -25.8470  -15.3380   20.2090 N   0  0  0  0  0  0  0  0  0  0  0  0
  -25.0860  -15.9680   20.4400 H   0  0  0  0  0  0  0  0  0  0  0  0
  -26.6250  -15.8020   19.7630 H   0  0  0  0  0  0  0  0  0  0  0  0
  -27.9260  -17.1670   21.5710 C   0  0  0  0  0  1  0  0  0  0  0  0
  -28.5920  -17.2620   20.1890 C   0  0  0  0  0  3  0  0  0  0  0  0
  -28.2900  -18.3890   17.8310 C   0  0  0  0  0  1  0  0  0  0  0  0
  -27.9740  -18.4100   19.3380 C   0  0  0  0  0  2  0  0  0  0  0  0
  -28.3890  -25.1010   20.3780 C   0  0  0  0  0  2  0  0  0  0  0  0
  -28.6050  -26.5160   20.0480 O   0  0  0  0  0  0  0  0  0  0  0  0
  -24.7510  -31.6930   23.2250 C   0  0  0  0  0  0  0  0  0  0  0  0
  -27.4700  -27.3260   20.0390 C   0  0  0  0  0  0  0  0  0  0  0  0
  -23.5960  -30.3750   21.4820 C   0  0  0  0  0  3  0  0  0  0  0  0
  -25.0920  -28.8960   20.0330 C   0  0  0  0  0  0  0  0  0  0  0  0
  -26.1350  -30.7110   21.3900 C   0  0  0  0  0  2  0  0  0  0  0  0
  -26.2380  -29.3680   20.6870 C   0  0  0  0  0  0  0  0  0  0  0  0
  -27.4310  -28.5950   20.6840 C   0  0  0  0  0  3  0  0  0  0  0  0
  -26.3080  -26.8970   19.3600 C   0  0  0  0  0  3  0  0  0  0  0  0
  -25.1270  -27.6630   19.3620 C   0  0  0  0  0  3  0  0  0  0  0  0
  -23.8520  -29.7610   20.0790 C   0  0  0  0  0  2  0  0  0  0  0  0
  -24.8440  -30.9410   22.0900 N   0  0  0  0  0  0  0  0  0  0  0  0
  -23.6530  -31.9470   23.7380 O   0  0  0  0  0  0  0  0  0  0  0  0
  -22.9050  -29.3170   22.3720 C   0  0  0  0  0  0  0  0  0  0  0  0
  -21.5720  -29.2070   22.2520 N   0  0  0  0  0  0  0  0  0  0  0  0
  -23.5670  -28.6010   23.1290 O   0  0  0  0  0  0  0  0  0  0  0  0
  -21.1010  -29.8370   21.6180 H   0  0  0  0  0  0  0  0  0  0  0  0
  -18.1430  -28.1650   22.7500 C   0  0  0  0  0  0  0  0  0  0  0  0
  -20.7200  -28.2490   22.9580 C   0  0  0  0  0  3  0  0  0  0  0  0
  -20.7170  -26.8750   22.2490 C   0  0  0  0  0  2  0  0  0  0  0  0
  -19.5710  -26.7130   21.2470 C   0  0  0  0  0  2  0  0  0  0  0  0
  -18.2180  -26.8770   21.9470 C   0  0  0  0  0  2  0  0  0  0  0  0
  -19.3190  -28.8180   23.2100 C   0  0  0  0  0  0  0  0  0  0  0  0
  -19.1930  -30.0300   23.9230 C   0  0  0  0  0  3  0  0  0  0  0  0
  -17.9270  -30.5880   24.1780 C   0  0  0  0  0  3  0  0  0  0  0  0
  -16.7670  -29.9310   23.7340 C   0  0  0  0  0  3  0  0  0  0  0  0
  -16.8760  -28.7210   23.0270 C   0  0  0  0  0  3  0  0  0  0  0  0
  -26.0160  -32.2890   23.9170 C   0  0  0  0  0  3  0  0  0  0  0  0
  -25.6890  -33.6580   24.3390 N   0  0  0  0  0  0  0  0  0  0  0  0
  -26.0450  -34.7650   23.6740 C   0  0  0  0  0  0  0  0  0  0  0  0
  -26.7530  -34.7390   22.6630 O   0  0  0  0  0  0  0  0  0  0  0  0
  -25.0660  -33.7520   25.1290 H   0  0  0  0  0  0  0  0  0  0  0  0
  -24.3340  -36.5840   23.3730 C   0  0  0  0  0  1  0  0  0  0  0  0
  -25.5340  -36.1160   24.2110 C   0  0  0  0  0  3  0  0  0  0  0  0
  -27.6210  -36.9300   25.2160 C   0  0  0  0  0  1  0  0  0  0  0  0
  -26.5710  -37.1710   24.2300 N   0  0  0  0  0  0  0  0  0  0  0  0
  -26.1570  -38.0790   24.4240 H   0  0  0  0  0  0  0  0  0  0  0  0
  -26.5140  -31.4320   25.1460 C   0  0  1  0  0  0  0  0  0  0  0  0
  -25.4020  -31.1150   26.1740 C   0  0  0  0  0  1  0  0  0  0  0  0
  -27.1120  -30.0890   24.6690 C   0  0  0  0  0  1  0  0  0  0  0  0
  -27.6470  -32.1820   25.8840 C   0  0  0  0  0  1  0  0  0  0  0  0
  1  3  2  0
  1  2  1  0
  2  5  2  0
  3  6  1  0
  5  4  1  0
  5  7  1  0
  6 55  1  0
  6  4  2  0
  8  9  1  0
  9  7  1  0
 10  8  2  0
 11  9  1  0
 12  8  1  0
 13 21  1  0
 14 19  1  0
 15 16  1  0
 15 14  1  0
 17 16  1  0
 17 26  1  0
 17 18  1  0
 19 13  1  0
 19 18  1  0
 20 13  2  0
 21 12  1  0
 21 22  1  0
 23 24  2  0
 24 43  1  0
 25 24  1  0
 25 28  1  0
 26 27  1  0
 26 23  1  0
 27 25  2  0
 28 29  1  0
 29 30  2  0
 31 34  1  0
 31 30  1  0
 32 31  2  0
 33 32  1  0
 33 28  2  0
 34 35  1  0
 35 40  2  0
 35 36  1  0
 36 37  2  0
 37 38  1  0
 38 42  1  0
 39 38  2  0
 40 39  1  0
 41 40  1  0
 43 44  1  0
 44 47  1  0
 44 46  1  0
 45 43  2  0
 48 23  1  0
 48 49  1  0
 50 48  1  0
 52 12  1  0
 52 51  1  0
 53 54  1  0
 54 52  1  0
 56 55  1  0
 57 68  2  0
 58 56  1  0
 58 63  1  0
 59 67  1  0
 59 69  1  0
 60 66  1  0
 60 62  1  0
 61 67  1  0
 62 61  1  0
 63 62  2  0
 64 65  1  0
 64 58  2  0
 65 60  2  0
 66 59  1  0
 67 57  1  0
 69 71  2  0
 70 69  1  0
 72 70  1  0
 73 82  2  0
 73 78  1  0
 74 70  1  0
 74 78  1  0
 75 74  1  0
 76 77  1  0
 76 75  1  0
 77 73  1  0
 78 79  2  0
 79 80  1  0
 81 80  2  0
 82 81  1  0
 83 57  1  0
 83 84  1  0
 83 93  1  0
 84 87  1  0
 85 89  1  0
 85 84  1  0
 86 85  2  0
 89 88  1  0
 89 91  1  0
 91 92  1  0
 91 90  1  0
 93 96  1  1
 93 94  1  0
 95 93  1  0
M  ISO  4  13 100  21 100  55 101  56 101
M  END
>  <TORSDO>  (83) 
F 22

>  <SCORE>  (83) 
-10.500

>  <name>  (83) 
82

>  <ligand_id>  (83) 
82

>  <original_smiles>  (83) 
[H]c1c([H])c(C([H])([H])Oc2c([H])c([H])c3c(c2[H])C([H])([H])N(C(=O)C([H])(N([H])C(=O)C([H])(N([H])C([H])([H])[H])C([H])([H])[H])C(C([H])([H])[H])(C([H])([H])[H])C([H])([H])[H])C([H])(C(=O)N([H])C2([H])c4c([H])c([H])c([H])c([H])c4C([H])([H])C([H])([H])C2([H])[H])C3([H])[H])c([H])c(C([H])([H])N([H])C(=O)C([H])(N([H])C(=O)N2C([H])([H])C([H])([H])C([H])([H])C([H])(n3nc(-c4c([H])c([H])c(Oc5c([H])c([H])c(F)c([H])c5F)c([H])c4[H])c(C(=O)N([H])[H])c3N([H])[H])C2([H])[H])C([H])(C([H])([H])[H])C([H])([H])C([H])([H])[H])c1[H]

>  <smiles>  (83) 
[H]c1c([H])c(C([H])([H])Oc2c([H])c([H])c3c(c2[H])C([H])([H])N(C(=O)C([H])(N([H])C(=O)C([H])(N([H])C([H])([H])[H])C([H])([H])[H])C(C([H])([H])[H])(C([H])([H])[H])C([H])([H])[H])C([H])(C(=O)N([H])C2([H])c4c([H])c([H])c([H])c([H])c4C([H])([H])C([H])([H])C2([H])[H])C3([H])[H])c([H])c(C([H])([H])N([H])C(=O)C([H])(N([H])C(=O)N2C([H])([H])C([H])([H])C([H])([H])C([H])(n3nc(-c4c([H])c([H])c(Oc5c([H])c([H])c(F)c([H])c5F)c([H])c4[H])c(C(=O)N([H])[H])c3N([H])[H])C2([H])[H])C([H])(C([H])([H])[H])C([H])([H])C([H])([H])[H])c1[H]

$$$$
83:0:0
     RDKit          3D

 96104  0  0  1  0  0  0  0  0999 V2000
  -30.8030  -21.6620   17.9730 C   0  0  0  0  0  2  0  0  0  0  0  0
  -31.1060  -20.2930   18.6730 C   0  0  0  0  0  2  0  0  0  0  0  0
  -30.1740  -22.8170   18.8270 C   0  0  0  0  0  2  0  0  0  0  0  0
  -29.1270  -20.9190   20.1220 C   0  0  0  0  0  2  0  0  0  0  0  0
  -29.9170  -19.5430   19.3370 C   0  0  0  0  0  3  0  0  0  0  0  0
  -28.7900  -22.5300   19.4720 C   0  0  2  0  0  0  0  0  0  0  0  0
  -27.6680  -22.4120   18.3960 C   0  0  0  0  0  2  0  0  0  0  0  0
  -27.7230  -21.2250   17.5260 N   0  0  0  0  0  4  0  0  0  0  0  0
  -27.5470  -20.3900   18.0550 H   0  0  0  0  0  0  0  0  0  0  0  0
  -28.6170  -21.1560   17.0750 H   0  0  0  0  0  0  0  0  0  0  0  0
  -27.0170  -21.2970   16.8140 H   0  0  0  0  0  0  0  0  0  0  0  0
  -28.2040  -24.0000   20.3310 C   0  0  0  0  0  2  0  0  0  0  0  0
  -28.3580  -25.6260   20.1890 O   0  0  0  0  0  0  0  0  0  0  0  0
  -24.5670  -31.5240   23.0160 C   0  0  0  0  0  0  0  0  0  0  0  0
  -27.3040  -26.6710   20.1650 C   0  0  0  0  0  0  0  0  0  0  0  0
  -23.4650  -30.1120   21.3280 C   0  0  0  0  0  3  0  0  0  0  0  0
  -24.9910  -28.5080   19.9940 C   0  0  0  0  0  0  0  0  0  0  0  0
  -26.0320  -30.3490   21.3020 C   0  0  0  0  0  2  0  0  0  0  0  0
  -26.1440  -28.9360   20.6660 C   0  0  0  0  0  0  0  0  0  0  0  0
  -27.3010  -28.0390   20.7190 C   0  0  0  0  0  3  0  0  0  0  0  0
  -26.1180  -26.3790   19.4590 C   0  0  0  0  0  3  0  0  0  0  0  0
  -25.0010  -27.2480   19.3730 C   0  0  0  0  0  3  0  0  0  0  0  0
  -23.7670  -29.4200   19.9690 C   0  0  0  0  0  2  0  0  0  0  0  0
  -24.7080  -30.6890   21.9370 N   0  0  0  0  0  0  0  0  0  0  0  0
  -23.4500  -31.8080   23.4810 O   0  0  0  0  0  0  0  0  0  0  0  0
  -22.7310  -29.1150   22.2630 C   0  0  0  0  0  0  0  0  0  0  0  0
  -21.3950  -29.0170   22.1400 N   0  0  0  0  0  0  0  0  0  0  0  0
  -23.3710  -28.4320   23.0650 O   0  0  0  0  0  0  0  0  0  0  0  0
  -20.9340  -29.6180   21.4720 H   0  0  0  0  0  0  0  0  0  0  0  0
  -17.9500  -28.0320   22.7130 C   0  0  0  0  0  0  0  0  0  0  0  0
  -20.5320  -28.0920   22.8820 C   0  0  0  0  0  3  0  0  0  0  0  0
  -20.5020  -26.7000   22.2090 C   0  0  0  0  0  2  0  0  0  0  0  0
  -19.3400  -26.5290   21.2250 C   0  0  0  0  0  2  0  0  0  0  0  0
  -17.9990  -26.7270   21.9380 C   0  0  0  0  0  2  0  0  0  0  0  0
  -19.1390  -28.6810   23.1430 C   0  0  0  0  0  0  0  0  0  0  0  0
  -19.0360  -29.9070   23.8340 C   0  0  0  0  0  3  0  0  0  0  0  0
  -17.7790  -30.4840   24.0960 C   0  0  0  0  0  3  0  0  0  0  0  0
  -16.6060  -29.8310   23.6810 C   0  0  0  0  0  3  0  0  0  0  0  0
  -16.6930  -28.6060   22.9960 C   0  0  0  0  0  3  0  0  0  0  0  0
  -25.8010  -32.1770   23.7110 C   0  0  0  0  0  3  0  0  0  0  0  0
  -26.2670  -31.4000   25.0040 C   0  0  1  0  0  0  0  0  0  0  0  0
  -25.1250  -31.1200   26.0100 C   0  0  0  0  0  1  0  0  0  0  0  0
  -26.9050  -30.0430   24.6310 C   0  0  0  0  0  1  0  0  0  0  0  0
  -27.3620  -32.2100   25.7360 C   0  0  0  0  0  1  0  0  0  0  0  0
  -25.4450  -33.5650   24.0560 N   0  0  0  0  0  0  0  0  0  0  0  0
  -25.7770  -34.6450   23.3350 C   0  0  0  0  0  0  0  0  0  0  0  0
  -26.4750  -34.5780   22.3200 O   0  0  0  0  0  0  0  0  0  0  0  0
  -24.8300  -33.6890   24.8470 H   0  0  0  0  0  0  0  0  0  0  0  0
  -24.0120  -36.4080   22.9930 C   0  0  0  0  0  1  0  0  0  0  0  0
  -25.2520  -36.0140   23.8120 C   0  0  0  0  0  3  0  0  0  0  0  0
  -27.3500  -36.9410   24.6920 C   0  0  0  0  0  1  0  0  0  0  0  0
  -26.2610  -37.0940   23.7310 N   0  0  0  0  0  0  0  0  0  0  0  0
  -25.8300  -38.0020   23.8810 H   0  0  0  0  0  0  0  0  0  0  0  0
  -30.5460  -17.9760   19.9670 C   0  0  0  0  0  3  0  0  0  0  0  0
  -31.0060  -15.1010   19.4930 C   0  0  0  0  0  0  0  0  0  0  0  0
  -30.7690  -12.6550   18.6710 C   0  0  0  0  0  2  0  0  0  0  0  0
  -29.7230  -12.4630   17.5450 C   0  0  0  0  0  2  0  0  0  0  0  0
  -28.3100  -12.2900   18.1320 C   0  0  0  0  0  2  0  0  0  0  0  0
  -28.0180  -13.3100   19.2610 C   0  0  0  0  0  3  0  0  0  0  0  0
  -29.1760  -13.4300   20.2710 C   0  0  0  0  0  2  0  0  0  0  0  0
  -30.3580  -13.8410   19.4970 N   0  0  0  0  0  0  0  0  0  0  0  0
  -32.2210  -15.0350   19.2620 O   0  0  0  0  0  0  0  0  0  0  0  0
  -30.2940  -16.3930   19.5310 N   0  0  0  0  0  0  0  0  0  0  0  0
  -29.3060  -16.2090   19.4540 H   0  0  0  0  0  0  0  0  0  0  0  0
  -25.7820  -14.0240   20.2560 C   0  0  0  0  0  0  0  0  0  0  0  0
  -24.7110  -13.3170   20.7270 C   0  0  0  0  0  0  0  0  0  0  0  0
  -25.0800  -11.9390   20.6460 C   0  0  0  0  0  0  0  0  0  0  0  0
  -26.7330  -13.0820   19.9060 N   0  0  0  0  0  0  0  0  0  0  0  0
  -26.3300  -11.8210   20.2090 N   0  0  0  0  0  0  0  0  0  0  0  0
  -24.2910  -10.7270   20.9020 C   0  0  0  0  0  0  0  0  0  0  0  0
  -24.7050   -9.7590   21.8430 C   0  0  0  0  0  3  0  0  0  0  0  0
  -23.9160   -8.6130   22.0860 C   0  0  0  0  0  3  0  0  0  0  0  0
  -22.6990   -8.4290   21.3890 C   0  0  0  0  0  0  0  0  0  0  0  0
  -22.3030   -9.3830   20.4340 C   0  0  0  0  0  3  0  0  0  0  0  0
  -23.0920  -10.5190   20.1900 C   0  0  0  0  0  3  0  0  0  0  0  0
  -21.8810   -7.3360   21.5420 O   0  0  0  0  0  0  0  0  0  0  0  0
  -21.7820   -6.6720   22.7380 C   0  0  0  0  0  0  0  0  0  0  0  0
  -21.3460   -7.3190   23.9150 C   0  0  0  0  0  3  0  0  0  0  0  0
  -21.1920   -6.5830   25.1070 C   0  0  0  0  0  3  0  0  0  0  0  0
  -21.4640   -5.2020   25.1240 C   0  0  0  0  0  0  0  0  0  0  0  0
  -21.8950   -4.5550   23.9510 C   0  0  0  0  0  3  0  0  0  0  0  0
  -22.0500   -5.2880   22.7620 C   0  0  0  0  0  0  0  0  0  0  0  0
  -22.4430   -4.6560   21.6300 F   0  0  0  0  0  0  0  0  0  0  0  0
  -21.3100   -4.4930   26.2670 F   0  0  0  0  0  0  0  0  0  0  0  0
  -23.3820  -13.8850   21.1300 C   0  0  0  0  0  0  0  0  0  0  0  0
  -22.7130  -13.2560   22.0900 N   0  0  0  0  0  0  0  0  0  0  0  0
  -22.9520  -14.9220   20.6260 O   0  0  0  0  0  0  0  0  0  0  0  0
  -23.0770  -12.4180   22.5160 H   0  0  0  0  0  0  0  0  0  0  0  0
  -21.8230  -13.6200   22.4020 H   0  0  0  0  0  0  0  0  0  0  0  0
  -26.0160  -15.3820   20.0670 N   0  0  0  0  0  0  0  0  0  0  0  0
  -25.3090  -16.0840   20.2590 H   0  0  0  0  0  0  0  0  0  0  0  0
  -26.8420  -15.7660   19.6270 H   0  0  0  0  0  0  0  0  0  0  0  0
  -30.3610  -17.9590   21.5080 C   0  0  0  0  0  2  0  0  0  0  0  0
  -30.8220  -19.2290   22.2480 C   0  0  0  0  0  2  0  0  0  0  0  0
  -30.9870  -20.3680   24.5250 C   0  0  0  0  0  1  0  0  0  0  0  0
  -30.9100  -19.0340   23.7720 C   0  0  0  0  0  2  0  0  0  0  0  0
  1  2  1  0
  1  3  1  0
  2  5  1  0
  3  6  1  0
  5 54  1  0
  5  4  1  0
  6  7  1  6
  6  4  1  0
  6 12  1  0
  8  9  1  0
  8  7  1  0
 10  8  1  0
 11  8  1  0
 13 12  1  0
 14 25  2  0
 15 13  1  0
 15 20  1  0
 16 24  1  0
 16 26  1  0
 17 19  1  0
 18 24  1  0
 19 20  2  0
 19 18  1  0
 21 15  2  0
 22 21  1  0
 22 17  2  0
 23 17  1  0
 23 16  1  0
 24 14  1  0
 26 28  2  0
 27 26  1  0
 29 27  1  0
 30 39  2  0
 30 35  1  0
 31 27  1  0
 31 35  1  0
 32 31  1  0
 33 34  1  0
 33 32  1  0
 34 30  1  0
 35 36  2  0
 36 37  1  0
 38 37  2  0
 39 38  1  0
 40 14  1  0
 40 45  1  0
 40 41  1  0
 41 44  1  1
 41 42  1  0
 43 41  1  0
 45 48  1  0
 46 50  1  0
 46 45  1  0
 47 46  2  0
 50 49  1  0
 52 50  1  0
 52 53  1  0
 52 51  1  0
 54 93  1  0
 55 61  1  0
 55 63  1  0
 56 61  1  0
 57 58  1  0
 57 56  1  0
 59 58  1  0
 59 68  1  0
 59 60  1  0
 61 60  1  0
 62 55  2  0
 63 54  1  0
 64 63  1  0
 65 66  2  0
 66 85  1  0
 67 66  1  0
 67 70  1  0
 68 69  1  0
 68 65  1  0
 69 67  2  0
 70 71  1  0
 71 72  2  0
 73 76  1  0
 73 72  1  0
 74 73  2  0
 75 74  1  0
 75 70  2  0
 76 77  1  0
 77 82  2  0
 77 78  1  0
 78 79  2  0
 79 80  1  0
 80 84  1  0
 81 80  2  0
 82 81  1  0
 83 82  1  0
 85 86  1  0
 86 89  1  0
 86 88  1  0
 87 85  2  0
 90 65  1  0
 90 91  1  0
 92 90  1  0
 93 94  1  0
 94 96  1  0
 96 95  1  0
M  ISO  4  12 101  13 101  55 100  63 100
M  END
>  <TORSDO>  (84) 
F 23

>  <SCORE>  (84) 
-12.321

>  <name>  (84) 
83

>  <ligand_id>  (84) 
83

>  <original_smiles>  (84) 
[H]c1c([H])c([H])c2c(c1[H])C([H])([H])C([H])([H])C([H])([H])C2([H])N([H])C(=O)C1([H])N(C(=O)C([H])(N([H])C(=O)C([H])(N([H])C([H])([H])[H])C([H])([H])[H])C(C([H])([H])[H])(C([H])([H])[H])C([H])([H])[H])C([H])([H])c2c([H])c(OC([H])([H])C3(C([H])([H])[N+]([H])([H])[H])C([H])([H])C([H])([H])C([H])([H])C([H])(C([H])(N([H])C(=O)N4C([H])([H])C([H])([H])C([H])([H])C([H])(n5nc(-c6c([H])c([H])c(Oc7c([H])c([H])c(F)c([H])c7F)c([H])c6[H])c(C(=O)N([H])[H])c5N([H])[H])C4([H])[H])C([H])([H])C([H])([H])C([H])([H])C([H])([H])[H])C3([H])[H])c([H])c([H])c2C1([H])[H]

>  <smiles>  (84) 
[H]c1c([H])c([H])c2c(c1[H])C([H])([H])C([H])([H])C([H])([H])C2([H])N([H])C(=O)C1([H])N(C(=O)C([H])(N([H])C(=O)C([H])(N([H])C([H])([H])[H])C([H])([H])[H])C(C([H])([H])[H])(C([H])([H])[H])C([H])([H])[H])C([H])([H])c2c([H])c(OC([H])([H])C3(C([H])([H])[N+]([H])([H])[H])C([H])([H])C([H])([H])C([H])([H])C([H])(C([H])(N([H])C(=O)N4C([H])([H])C([H])([H])C([H])([H])C([H])(n5nc(-c6c([H])c([H])c(Oc7c([H])c([H])c(F)c([H])c7F)c([H])c6[H])c(C(=O)N([H])[H])c5N([H])[H])C4([H])[H])C([H])([H])C([H])([H])C([H])([H])C([H])([H])[H])C3([H])[H])c([H])c([H])c2C1([H])[H]

$$$$
84:0:0
     RDKit          3D

 98105  0  0  1  0  0  0  0  0999 V2000
  -30.4750  -21.1160   21.6680 C   0  0  0  0  0  0  0  0  0  0  0  0
  -31.2490  -20.0310   21.4780 N   0  0  0  0  0  0  0  0  0  0  0  0
  -29.7480  -21.2050   22.6560 O   0  0  0  0  0  0  0  0  0  0  0  0
  -31.8690  -20.0310   20.6800 H   0  0  0  0  0  0  0  0  0  0  0  0
  -31.1420  -18.8240   22.3090 C   0  0  0  0  0  2  0  0  0  0  0  0
  -31.6630  -17.5100   21.6600 C   0  0  0  0  0  2  0  0  0  0  0  0
  -31.1160  -15.4170   22.9280 C   0  0  0  0  0  1  0  0  0  0  0  0
  -30.6770  -16.4250   21.9330 N   0  0  2  0  0  4  0  0  0  0  0  0
  -29.9690  -16.9310   22.4410 H   0  0  0  0  0  0  0  0  0  0  0  0
  -29.9070  -15.8760   20.7610 C   0  0  0  0  0  3  0  0  0  0  0  0
  -30.6000  -14.6500   20.0720 C   0  0  0  0  0  0  0  0  0  0  0  0
  -30.2920  -12.4850   18.9050 C   0  0  0  0  0  2  0  0  0  0  0  0
  -29.2790  -12.6760   17.7530 C   0  0  0  0  0  2  0  0  0  0  0  0
  -27.8180  -12.5620   18.2430 C   0  0  0  0  0  2  0  0  0  0  0  0
  -27.5570  -13.3560   19.5510 C   0  0  0  0  0  3  0  0  0  0  0  0
  -28.6650  -13.0750   20.5810 C   0  0  0  0  0  2  0  0  0  0  0  0
  -29.9530  -13.4500   19.9660 N   0  0  0  0  0  0  0  0  0  0  0  0
  -31.7070  -14.8350   19.5550 O   0  0  0  0  0  0  0  0  0  0  0  0
  -25.2010  -13.9780   20.3690 C   0  0  0  0  0  0  0  0  0  0  0  0
  -24.1500  -13.2130   20.7940 C   0  0  0  0  0  0  0  0  0  0  0  0
  -24.6040  -11.8600   20.7400 C   0  0  0  0  0  0  0  0  0  0  0  0
  -26.2310  -13.0900   20.0910 N   0  0  0  0  0  0  0  0  0  0  0  0
  -25.8750  -11.8130   20.3640 N   0  0  0  0  0  0  0  0  0  0  0  0
  -23.8830  -10.6000   20.9570 C   0  0  0  0  0  0  0  0  0  0  0  0
  -24.3560   -9.6270   21.8640 C   0  0  0  0  0  3  0  0  0  0  0  0
  -23.6390   -8.4280   22.0650 C   0  0  0  0  0  3  0  0  0  0  0  0
  -22.4380   -8.1940   21.3580 C   0  0  0  0  0  0  0  0  0  0  0  0
  -21.9870   -9.1540   20.4360 C   0  0  0  0  0  3  0  0  0  0  0  0
  -22.7030  -10.3450   20.2340 C   0  0  0  0  0  3  0  0  0  0  0  0
  -21.6920   -7.0460   21.4700 O   0  0  0  0  0  0  0  0  0  0  0  0
  -21.6870   -6.3000   22.6200 C   0  0  0  0  0  0  0  0  0  0  0  0
  -21.3360   -6.8590   23.8670 C   0  0  0  0  0  3  0  0  0  0  0  0
  -21.2830   -6.0430   25.0140 C   0  0  0  0  0  3  0  0  0  0  0  0
  -21.5620   -4.6690   24.9140 C   0  0  0  0  0  0  0  0  0  0  0  0
  -21.9080   -4.1080   23.6720 C   0  0  0  0  0  3  0  0  0  0  0  0
  -21.9670   -4.9210   22.5260 C   0  0  0  0  0  0  0  0  0  0  0  0
  -22.2790   -4.3740   21.3280 F   0  0  0  0  0  0  0  0  0  0  0  0
  -21.5040   -3.8820   26.0150 F   0  0  0  0  0  0  0  0  0  0  0  0
  -22.7700  -13.6940   21.1410 C   0  0  0  0  0  0  0  0  0  0  0  0
  -22.0880  -12.9890   22.0400 N   0  0  0  0  0  0  0  0  0  0  0  0
  -22.3050  -14.7240   20.6540 O   0  0  0  0  0  0  0  0  0  0  0  0
  -22.4830  -12.1540   22.4510 H   0  0  0  0  0  0  0  0  0  0  0  0
  -21.1610  -13.2800   22.3150 H   0  0  0  0  0  0  0  0  0  0  0  0
  -25.3650  -15.3430   20.1650 N   0  0  0  0  0  0  0  0  0  0  0  0
  -24.6020  -16.0020   20.2490 H   0  0  0  0  0  0  0  0  0  0  0  0
  -26.1650  -15.7450   19.6940 H   0  0  0  0  0  0  0  0  0  0  0  0
  -28.1030  -17.7020   20.3950 C   0  0  0  0  0  1  0  0  0  0  0  0
  -29.3670  -17.0320   19.8110 C   0  0  0  0  0  3  0  0  0  0  0  0
  -29.4280  -17.9910   17.4320 C   0  0  0  0  0  1  0  0  0  0  0  0
  -29.1640  -16.7480   18.2990 C   0  0  0  0  0  2  0  0  0  0  0  0
  -30.5180  -22.2480   20.6040 C   0  0  0  0  0  3  0  0  0  0  0  0
  -32.0250  -21.4790   18.6200 C   0  0  0  0  0  1  0  0  0  0  0  0
  -30.5980  -21.6640   19.1640 C   0  0  0  0  0  2  0  0  0  0  0  0
  -29.3080  -23.2350   20.7030 C   0  0  0  0  0  2  0  0  0  0  0  0
  -30.4790  -25.0290   19.2360 C   0  0  0  0  0  1  0  0  0  0  0  0
  -29.5950  -24.7430   20.4660 C   0  0  0  0  0  3  0  0  0  0  0  0
  -28.2400  -25.4590   20.3410 C   0  0  0  0  0  2  0  0  0  0  0  0
  -28.3670  -26.8720   20.2140 O   0  0  0  0  0  0  0  0  0  0  0  0
  -24.5250  -32.0020   23.2450 C   0  0  0  0  0  0  0  0  0  0  0  0
  -27.1790  -27.5700   20.1960 C   0  0  0  0  0  0  0  0  0  0  0  0
  -23.3180  -30.5820   21.6170 C   0  0  0  0  0  3  0  0  0  0  0  0
  -24.7710  -29.0470   20.2040 C   0  0  0  0  0  0  0  0  0  0  0  0
  -25.8380  -30.9590   21.4070 C   0  0  0  0  0  2  0  0  0  0  0  0
  -25.9280  -29.5860   20.7790 C   0  0  0  0  0  0  0  0  0  0  0  0
  -27.1340  -28.8560   20.7710 C   0  0  0  0  0  3  0  0  0  0  0  0
  -26.0010  -27.0430   19.6110 C   0  0  0  0  0  3  0  0  0  0  0  0
  -24.8000  -27.7730   19.6190 C   0  0  0  0  0  3  0  0  0  0  0  0
  -23.5250  -29.8970   20.2400 C   0  0  0  0  0  2  0  0  0  0  0  0
  -24.5790  -31.1950   22.1480 N   0  0  0  0  0  0  0  0  0  0  0  0
  -23.4440  -32.2710   23.7890 O   0  0  0  0  0  0  0  0  0  0  0  0
  -22.6780  -29.5620   22.5870 C   0  0  0  0  0  0  0  0  0  0  0  0
  -21.3550  -29.3640   22.4600 N   0  0  0  0  0  0  0  0  0  0  0  0
  -23.3680  -28.9500   23.4080 O   0  0  0  0  0  0  0  0  0  0  0  0
  -20.8600  -29.9150   21.7710 H   0  0  0  0  0  0  0  0  0  0  0  0
  -17.9940  -28.1400   22.9550 C   0  0  0  0  0  0  0  0  0  0  0  0
  -20.5450  -28.4280   23.2400 C   0  0  0  0  0  3  0  0  0  0  0  0
  -20.6680  -26.9900   22.6870 C   0  0  0  0  0  2  0  0  0  0  0  0
  -19.5760  -26.6410   21.6720 C   0  0  0  0  0  2  0  0  0  0  0  0
  -18.1880  -26.7810   22.3040 C   0  0  0  0  0  2  0  0  0  0  0  0
  -19.1010  -28.9200   23.3800 C   0  0  0  0  0  0  0  0  0  0  0  0
  -18.8640  -30.1910   23.9480 C   0  0  0  0  0  3  0  0  0  0  0  0
  -17.5530  -30.6820   24.0970 C   0  0  0  0  0  3  0  0  0  0  0  0
  -16.4610  -29.8970   23.6870 C   0  0  0  0  0  3  0  0  0  0  0  0
  -16.6820  -28.6290   23.1210 C   0  0  0  0  0  3  0  0  0  0  0  0
  -25.8120  -32.6410   23.8540 C   0  0  0  0  0  3  0  0  0  0  0  0
  -25.4950  -34.0360   24.1790 N   0  0  0  0  0  0  0  0  0  0  0  0
  -25.8250  -35.0890   23.4170 C   0  0  0  0  0  0  0  0  0  0  0  0
  -26.5010  -34.9870   22.3890 O   0  0  0  0  0  0  0  0  0  0  0  0
  -24.8980  -34.1880   24.9760 H   0  0  0  0  0  0  0  0  0  0  0  0
  -24.0940  -36.8780   23.0440 C   0  0  0  0  0  1  0  0  0  0  0  0
  -25.3280  -36.4750   23.8680 C   0  0  0  0  0  3  0  0  0  0  0  0
  -27.4530  -37.3660   24.7170 C   0  0  0  0  0  1  0  0  0  0  0  0
  -26.3570  -37.5330   23.7670 N   0  0  0  0  0  0  0  0  0  0  0  0
  -25.9450  -38.4490   23.9170 H   0  0  0  0  0  0  0  0  0  0  0  0
  -26.3460  -31.8770   25.1270 C   0  0  1  0  0  0  0  0  0  0  0  0
  -25.2660  -31.6290   26.2050 C   0  0  0  0  0  1  0  0  0  0  0  0
  -26.9420  -30.5050   24.7310 C   0  0  0  0  0  1  0  0  0  0  0  0
  -27.4870  -32.6870   25.7850 C   0  0  0  0  0  1  0  0  0  0  0  0
  1  3  2  0
  2  1  1  0
  2  5  1  0
  4  2  1  0
  6  8  1  0
  6  5  1  0
  8  9  1  1
  8  7  1  0
 10 11  1  0
 10  8  1  0
 12 17  1  0
 13 14  1  0
 13 12  1  0
 15 14  1  0
 15 22  1  0
 15 16  1  0
 17 11  1  0
 17 16  1  0
 18 11  2  0
 19 20  2  0
 20 39  1  0
 21 20  1  0
 21 24  1  0
 22 23  1  0
 22 19  1  0
 23 21  2  0
 24 25  1  0
 25 26  2  0
 27 30  1  0
 27 26  1  0
 28 27  2  0
 29 28  1  0
 29 24  2  0
 30 31  1  0
 31 32  1  0
 32 33  2  0
 34 33  1  0
 34 38  1  0
 35 34  2  0
 36 31  2  0
 36 35  1  0
 37 36  1  0
 39 40  1  0
 40 43  1  0
 40 42  1  0
 41 39  2  0
 44 45  1  0
 44 19  1  0
 46 44  1  0
 48 47  1  0
 48 10  1  0
 49 50  1  0
 50 48  1  0
 51 53  1  0
 51 54  1  0
 51  1  1  0
 52 53  1  0
 56 55  1  0
 56 54  1  0
 57 56  1  0
 58 57  1  0
 59 70  2  0
 60 58  1  0
 60 65  1  0
 61 69  1  0
 61 71  1  0
 62 68  1  0
 62 64  1  0
 63 69  1  0
 64 63  1  0
 65 64  2  0
 66 67  1  0
 66 60  2  0
 67 62  2  0
 68 61  1  0
 69 59  1  0
 71 73  2  0
 72 71  1  0
 74 72  1  0
 75 84  2  0
 75 80  1  0
 76 72  1  0
 76 80  1  0
 77 76  1  0
 78 79  1  0
 78 77  1  0
 79 75  1  0
 80 81  2  0
 81 82  1  0
 83 82  2  0
 84 83  1  0
 85 59  1  0
 85 86  1  0
 85 95  1  0
 86 89  1  0
 87 91  1  0
 87 86  1  0
 88 87  2  0
 91 90  1  0
 93 91  1  0
 93 94  1  0
 93 92  1  0
 95 98  1  1
 95 96  1  0
 97 95  1  0
M  ISO  4  10 100  11 100  57 101  58 101
M  END
>  <TORSDO>  (85) 
F 27

>  <SCORE>  (85) 
-9.974

>  <name>  (85) 
84

>  <ligand_id>  (85) 
84

>  <original_smiles>  (85) 
[H]c1c([H])c([H])c2c(c1[H])C([H])([H])C([H])([H])C([H])([H])C2([H])N([H])C(=O)C1([H])N(C(=O)C([H])(N([H])C(=O)C([H])(N([H])C([H])([H])[H])C([H])([H])[H])C(C([H])([H])[H])(C([H])([H])[H])C([H])([H])[H])C([H])([H])c2c([H])c(OC([H])([H])C([H])(C([H])([H])[H])C([H])([H])C([H])(C(=O)N([H])C([H])([H])C([H])([H])[N+]([H])(C([H])([H])[H])C([H])(C(=O)N3C([H])([H])C([H])([H])C([H])([H])C([H])(n4nc(-c5c([H])c([H])c(Oc6c([H])c([H])c(F)c([H])c6F)c([H])c5[H])c(C(=O)N([H])[H])c4N([H])[H])C3([H])[H])C([H])(C([H])([H])[H])C([H])([H])C([H])([H])[H])C([H])([H])C([H])([H])[H])c([H])c([H])c2C1([H])[H]

>  <smiles>  (85) 
[H]c1c([H])c([H])c2c(c1[H])C([H])([H])C([H])([H])C([H])([H])C2([H])N([H])C(=O)C1([H])N(C(=O)C([H])(N([H])C(=O)C([H])(N([H])C([H])([H])[H])C([H])([H])[H])C(C([H])([H])[H])(C([H])([H])[H])C([H])([H])[H])C([H])([H])c2c([H])c(OC([H])([H])C([H])(C([H])([H])[H])C([H])([H])C([H])(C(=O)N([H])C([H])([H])C([H])([H])[N+]([H])(C([H])([H])[H])C([H])(C(=O)N3C([H])([H])C([H])([H])C([H])([H])C([H])(n4nc(-c5c([H])c([H])c(Oc6c([H])c([H])c(F)c([H])c6F)c([H])c5[H])c(C(=O)N([H])[H])c4N([H])[H])C3([H])[H])C([H])(C([H])([H])[H])C([H])([H])C([H])([H])[H])C([H])([H])C([H])([H])[H])c([H])c([H])c2C1([H])[H]

$$$$
85:0:0
     RDKit          3D

 97104  0  0  1  0  0  0  0  0999 V2000
  -29.8720  -21.4340   17.8450 C   0  0  0  0  0  0  0  0  0  0  0  0
  -30.8840  -21.1580   17.1350 N   0  0  0  0  0  0  0  0  0  0  0  0
  -31.6670  -21.7680   17.3380 H   0  0  0  0  0  0  0  0  0  0  0  0
  -28.5650  -20.6460   17.7210 C   0  0  0  0  0  3  0  0  0  0  0  0
  -28.5480  -19.9700   16.4140 N   0  0  0  0  0  4  0  0  0  0  0  0
  -29.3540  -19.3750   16.3580 H   0  0  0  0  0  0  0  0  0  0  0  0
  -28.6480  -20.6620   15.6940 H   0  0  0  0  0  0  0  0  0  0  0  0
  -27.7020  -19.4500   16.2650 H   0  0  0  0  0  0  0  0  0  0  0  0
  -28.3240  -19.6330   18.8740 C   0  0  0  0  0  2  0  0  0  0  0  0
  -29.5430  -18.7950   19.3350 C   0  0  0  0  0  2  0  0  0  0  0  0
  -29.1250  -17.5010   20.0510 C   0  0  0  0  0  2  0  0  0  0  0  0
  -30.2270  -16.9080   20.9490 C   0  0  0  0  0  2  0  0  0  0  0  0
  -30.6840  -14.4830   20.6660 C   0  0  0  0  0  0  0  0  0  0  0  0
  -30.3880  -12.3430   19.5020 C   0  0  0  0  0  2  0  0  0  0  0  0
  -29.4700  -12.5830   18.2820 C   0  0  0  0  0  2  0  0  0  0  0  0
  -27.9880  -12.4460   18.6850 C   0  0  0  0  0  2  0  0  0  0  0  0
  -27.6330  -13.2650   19.9560 C   0  0  0  0  0  3  0  0  0  0  0  0
  -28.6700  -13.0160   21.0800 C   0  0  0  0  0  2  0  0  0  0  0  0
  -30.0110  -13.3100   20.5400 N   0  0  0  0  0  0  0  0  0  0  0  0
  -31.7990  -14.6860   20.1740 O   0  0  0  0  0  0  0  0  0  0  0  0
  -29.9730  -15.4860   21.1940 N   0  0  0  0  0  0  0  0  0  0  0  0
  -29.0800  -15.2420   21.5980 H   0  0  0  0  0  0  0  0  0  0  0  0
  -25.2130  -13.8570   20.6100 C   0  0  0  0  0  0  0  0  0  0  0  0
  -24.1470  -13.0740   20.9590 C   0  0  0  0  0  0  0  0  0  0  0  0
  -24.6210  -11.7270   20.9370 C   0  0  0  0  0  0  0  0  0  0  0  0
  -26.2710  -12.9850   20.4030 N   0  0  0  0  0  0  0  0  0  0  0  0
  -25.9170  -11.7000   20.6560 N   0  0  0  0  0  0  0  0  0  0  0  0
  -23.9050  -10.4570   21.1080 C   0  0  0  0  0  0  0  0  0  0  0  0
  -24.3330   -9.4870   22.0400 C   0  0  0  0  0  3  0  0  0  0  0  0
  -23.6160   -8.2830   22.1980 C   0  0  0  0  0  3  0  0  0  0  0  0
  -22.4540   -8.0390   21.4270 C   0  0  0  0  0  0  0  0  0  0  0  0
  -22.0500   -8.9960   20.4760 C   0  0  0  0  0  3  0  0  0  0  0  0
  -22.7710  -10.1920   20.3160 C   0  0  0  0  0  3  0  0  0  0  0  0
  -21.7060   -6.8900   21.4990 O   0  0  0  0  0  0  0  0  0  0  0  0
  -21.6420   -6.1430   22.6480 C   0  0  0  0  0  0  0  0  0  0  0  0
  -21.1770   -6.6850   23.8670 C   0  0  0  0  0  3  0  0  0  0  0  0
  -21.0650   -5.8620   25.0040 C   0  0  0  0  0  3  0  0  0  0  0  0
  -21.4040   -4.4980   24.9230 C   0  0  0  0  0  0  0  0  0  0  0  0
  -21.8590   -3.9550   23.7090 C   0  0  0  0  0  3  0  0  0  0  0  0
  -21.9760   -4.7760   22.5740 C   0  0  0  0  0  0  0  0  0  0  0  0
  -22.3960   -4.2440   21.4000 F   0  0  0  0  0  0  0  0  0  0  0  0
  -21.2880   -3.7040   26.0120 F   0  0  0  0  0  0  0  0  0  0  0  0
  -22.7400  -13.5360   21.2070 C   0  0  0  0  0  0  0  0  0  0  0  0
  -22.0050  -12.8210   22.0490 N   0  0  0  0  0  0  0  0  0  0  0  0
  -22.2980  -14.5640   20.6940 O   0  0  0  0  0  0  0  0  0  0  0  0
  -22.3720  -11.9890   22.4860 H   0  0  0  0  0  0  0  0  0  0  0  0
  -21.0610  -13.1030   22.2630 H   0  0  0  0  0  0  0  0  0  0  0  0
  -25.3670  -15.2280   20.4360 N   0  0  0  0  0  0  0  0  0  0  0  0
  -24.5850  -15.8700   20.5060 H   0  0  0  0  0  0  0  0  0  0  0  0
  -26.2240  -15.6830   20.1480 H   0  0  0  0  0  0  0  0  0  0  0  0
  -29.9050  -22.5650   18.8570 C   0  0  0  0  0  2  0  0  0  0  0  0
  -30.1410  -23.9380   18.1870 C   0  0  0  0  0  2  0  0  0  0  0  0
  -29.9600  -25.1000   19.1470 C   0  0  0  0  0  0  0  0  0  0  0  0
  -30.9420  -25.6480   19.7290 N   0  0  0  0  0  0  0  0  0  0  0  0
  -31.8230  -25.2230   19.4610 H   0  0  0  0  0  0  0  0  0  0  0  0
  -28.5200  -25.5560   19.3430 C   0  0  0  0  0  2  0  0  0  0  0  0
  -28.4300  -26.7560   20.1180 O   0  0  0  0  0  0  0  0  0  0  0  0
  -24.6100  -31.8610   23.2750 C   0  0  0  0  0  0  0  0  0  0  0  0
  -27.2260  -27.4290   20.1510 C   0  0  0  0  0  0  0  0  0  0  0  0
  -23.3910  -30.4710   21.6340 C   0  0  0  0  0  3  0  0  0  0  0  0
  -24.8290  -28.9300   20.2060 C   0  0  0  0  0  0  0  0  0  0  0  0
  -25.9170  -30.8160   21.4310 C   0  0  0  0  0  2  0  0  0  0  0  0
  -25.9920  -29.4480   20.7860 C   0  0  0  0  0  0  0  0  0  0  0  0
  -27.1900  -28.7020   20.7600 C   0  0  0  0  0  3  0  0  0  0  0  0
  -26.0330  -26.9070   19.5950 C   0  0  0  0  0  3  0  0  0  0  0  0
  -24.8410  -27.6560   19.6140 C   0  0  0  0  0  3  0  0  0  0  0  0
  -23.5940  -29.7990   20.2510 C   0  0  0  0  0  2  0  0  0  0  0  0
  -24.6570  -31.0640   22.1720 N   0  0  0  0  0  0  0  0  0  0  0  0
  -23.5320  -32.1370   23.8200 O   0  0  0  0  0  0  0  0  0  0  0  0
  -22.7380  -29.4470   22.5910 C   0  0  0  0  0  0  0  0  0  0  0  0
  -21.4140  -29.2690   22.4670 N   0  0  0  0  0  0  0  0  0  0  0  0
  -23.4210  -28.8190   23.4040 O   0  0  0  0  0  0  0  0  0  0  0  0
  -20.9210  -29.8320   21.7880 H   0  0  0  0  0  0  0  0  0  0  0  0
  -18.0380  -28.0830   22.9630 C   0  0  0  0  0  0  0  0  0  0  0  0
  -20.5960  -28.3320   23.2370 C   0  0  0  0  0  3  0  0  0  0  0  0
  -20.6930  -26.8990   22.6610 C   0  0  0  0  0  2  0  0  0  0  0  0
  -19.5910  -26.5800   21.6450 C   0  0  0  0  0  2  0  0  0  0  0  0
  -18.2100  -26.7320   22.2890 C   0  0  0  0  0  2  0  0  0  0  0  0
  -19.1590  -28.8410   23.3950 C   0  0  0  0  0  0  0  0  0  0  0  0
  -18.9440  -30.1060   23.9850 C   0  0  0  0  0  3  0  0  0  0  0  0
  -17.6430  -30.6140   24.1470 C   0  0  0  0  0  3  0  0  0  0  0  0
  -16.5350  -29.8530   23.7320 C   0  0  0  0  0  3  0  0  0  0  0  0
  -16.7340  -28.5900   23.1460 C   0  0  0  0  0  3  0  0  0  0  0  0
  -25.9020  -32.4850   23.8900 C   0  0  0  0  0  3  0  0  0  0  0  0
  -26.4110  -31.7210   25.1740 C   0  0  1  0  0  0  0  0  0  0  0  0
  -25.3150  -31.5040   26.2410 C   0  0  0  0  0  1  0  0  0  0  0  0
  -26.9810  -30.3350   24.7940 C   0  0  0  0  0  1  0  0  0  0  0  0
  -27.5700  -32.5100   25.8280 C   0  0  0  0  0  1  0  0  0  0  0  0
  -25.6070  -33.8880   24.2020 N   0  0  0  0  0  0  0  0  0  0  0  0
  -25.9590  -34.9270   23.4320 C   0  0  0  0  0  0  0  0  0  0  0  0
  -26.6350  -34.8050   22.4080 O   0  0  0  0  0  0  0  0  0  0  0  0
  -25.0040  -34.0590   24.9920 H   0  0  0  0  0  0  0  0  0  0  0  0
  -24.2580  -36.7380   23.0380 C   0  0  0  0  0  1  0  0  0  0  0  0
  -25.4830  -36.3250   23.8710 C   0  0  0  0  0  3  0  0  0  0  0  0
  -27.6170  -37.1890   24.7250 C   0  0  0  0  0  1  0  0  0  0  0  0
  -26.5310  -37.3640   23.7640 N   0  0  0  0  0  0  0  0  0  0  0  0
  -26.1340  -38.2900   23.9020 H   0  0  0  0  0  0  0  0  0  0  0  0
  1 51  1  0
  2  3  1  0
  2  1  2  0
  4  1  1  0
  4  9  1  0
  5  4  1  0
  6  5  1  0
  7  5  1  0
  8  5  1  0
  9 10  1  0
 10 11  1  0
 11 12  1  0
 12 21  1  0
 13 21  1  0
 14 19  1  0
 15 16  1  0
 15 14  1  0
 17 16  1  0
 17 26  1  0
 17 18  1  0
 19 13  1  0
 19 18  1  0
 20 13  2  0
 21 22  1  0
 23 24  2  0
 24 43  1  0
 25 24  1  0
 25 28  1  0
 26 23  1  0
 26 27  1  0
 27 25  2  0
 28 29  1  0
 29 30  2  0
 31 34  1  0
 31 30  1  0
 32 31  2  0
 33 32  1  0
 33 28  2  0
 34 35  1  0
 35 36  1  0
 36 37  2  0
 38 37  1  0
 38 42  1  0
 39 38  2  0
 40 35  2  0
 40 39  1  0
 41 40  1  0
 43 44  1  0
 44 47  1  0
 44 46  1  0
 45 43  2  0
 48 49  1  0
 48 23  1  0
 50 48  1  0
 52 51  1  0
 52 53  1  0
 53 56  1  0
 53 54  2  0
 55 54  1  0
 56 57  1  0
 57 59  1  0
 58 69  2  0
 59 64  1  0
 60 68  1  0
 60 70  1  0
 61 67  1  0
 61 63  1  0
 62 68  1  0
 63 62  1  0
 64 63  2  0
 65 66  1  0
 65 59  2  0
 66 61  2  0
 67 60  1  0
 68 58  1  0
 70 72  2  0
 71 70  1  0
 73 71  1  0
 74 83  2  0
 74 79  1  0
 75 71  1  0
 75 79  1  0
 76 75  1  0
 77 78  1  0
 77 76  1  0
 78 74  1  0
 79 80  2  0
 80 81  1  0
 82 81  2  0
 83 82  1  0
 84 58  1  0
 84 89  1  0
 84 85  1  0
 85 88  1  1
 85 86  1  0
 87 85  1  0
 89 92  1  0
 90 94  1  0
 90 89  1  0
 91 90  2  0
 94 93  1  0
 96 94  1  0
 96 97  1  0
 96 95  1  0
M  ISO  4  13 100  21 100  56 101  57 101
M  END
>  <TORSDO>  (86) 
F 26

>  <SCORE>  (86) 
-11.959

>  <name>  (86) 
85

>  <ligand_id>  (86) 
85

>  <original_smiles>  (86) 
[H]N=C(C([H])([H])Oc1c([H])c([H])c2c(c1[H])C([H])([H])N(C(=O)C([H])(N([H])C(=O)C([H])(N([H])C([H])([H])[H])C([H])([H])[H])C(C([H])([H])[H])(C([H])([H])[H])C([H])([H])[H])C([H])(C(=O)N([H])C1([H])c3c([H])c([H])c([H])c([H])c3C([H])([H])C([H])([H])C1([H])[H])C2([H])[H])C([H])([H])C([H])([H])C(=N[H])C([H])(C([H])([H])C([H])([H])C([H])([H])C([H])([H])N([H])C(=O)N1C([H])([H])C([H])([H])C([H])([H])C([H])(n2nc(-c3c([H])c([H])c(Oc4c([H])c([H])c(F)c([H])c4F)c([H])c3[H])c(C(=O)N([H])[H])c2N([H])[H])C1([H])[H])[N+]([H])([H])[H]

>  <smiles>  (86) 
[H]N=C(C([H])([H])Oc1c([H])c([H])c2c(c1[H])C([H])([H])N(C(=O)C([H])(N([H])C(=O)C([H])(N([H])C([H])([H])[H])C([H])([H])[H])C(C([H])([H])[H])(C([H])([H])[H])C([H])([H])[H])C([H])(C(=O)N([H])C1([H])c3c([H])c([H])c([H])c([H])c3C([H])([H])C([H])([H])C1([H])[H])C2([H])[H])C([H])([H])C([H])([H])C(=N[H])C([H])(C([H])([H])C([H])([H])C([H])([H])C([H])([H])N([H])C(=O)N1C([H])([H])C([H])([H])C([H])([H])C([H])(n2nc(-c3c([H])c([H])c(Oc4c([H])c([H])c(F)c([H])c4F)c([H])c3[H])c(C(=O)N([H])[H])c2N([H])[H])C1([H])[H])[N+]([H])([H])[H]

$$$$
86:0:0
     RDKit          3D

107110  0  0  1  0  0  0  0  0999 V2000
  -26.9040  -24.2370   21.1590 C   0  0  0  0  0  2  0  0  0  0  0  0
  -27.0670  -22.3430   21.0910 N   0  0  0  0  0  4  0  0  0  0  0  0
  -26.7810  -22.0980   22.0280 H   0  0  0  0  0  0  0  0  0  0  0  0
  -26.2650  -22.1000   20.5260 H   0  0  0  0  0  0  0  0  0  0  0  0
  -28.1950  -20.8570   20.7280 C   0  0  0  0  0  2  0  0  0  0  0  0
  -28.1850  -18.7790   20.6540 C   0  0  0  0  0  1  0  0  0  0  0  0
  -29.8860  -15.7480   20.0250 C   0  0  0  0  0  0  0  0  0  0  0  0
  -30.2320  -13.1830   19.0260 C   0  0  0  0  0  2  0  0  0  0  0  0
  -29.3450  -12.6250   17.8580 C   0  0  0  0  0  2  0  0  0  0  0  0
  -27.9700  -12.1620   18.3610 C   0  0  0  0  0  2  0  0  0  0  0  0
  -27.4600  -13.1280   19.4490 C   0  0  0  0  0  3  0  0  0  0  0  0
  -28.4940  -13.5150   20.5240 C   0  0  0  0  0  2  0  0  0  0  0  0
  -29.5290  -14.3120   19.8430 N   0  0  0  0  0  0  0  0  0  0  0  0
  -31.1260  -15.7620   19.8110 O   0  0  0  0  0  0  0  0  0  0  0  0
  -28.9150  -17.0440   20.2860 N   0  0  0  0  0  0  0  0  0  0  0  0
  -28.0510  -16.5370   20.1620 H   0  0  0  0  0  0  0  0  0  0  0  0
  -25.1870  -13.6060   20.4110 C   0  0  0  0  0  0  0  0  0  0  0  0
  -24.1770  -12.8050   20.8470 C   0  0  0  0  0  0  0  0  0  0  0  0
  -24.6560  -11.4620   20.7370 C   0  0  0  0  0  0  0  0  0  0  0  0
  -26.2050  -12.7470   20.0450 N   0  0  0  0  0  0  0  0  0  0  0  0
  -25.9150  -11.4500   20.3110 N   0  0  0  0  0  0  0  0  0  0  0  0
  -23.9550  -10.1900   20.9460 C   0  0  0  0  0  0  0  0  0  0  0  0
  -24.4190   -9.2340   21.8760 C   0  0  0  0  0  3  0  0  0  0  0  0
  -23.7110   -8.0280   22.0710 C   0  0  0  0  0  3  0  0  0  0  0  0
  -22.5270   -7.7740   21.3380 C   0  0  0  0  0  0  0  0  0  0  0  0
  -22.0860   -8.7200   20.3950 C   0  0  0  0  0  3  0  0  0  0  0  0
  -22.7940   -9.9150   20.1980 C   0  0  0  0  0  3  0  0  0  0  0  0
  -21.7870   -6.6200   21.4430 O   0  0  0  0  0  0  0  0  0  0  0  0
  -21.7110   -5.9210   22.6210 C   0  0  0  0  0  0  0  0  0  0  0  0
  -21.2170   -6.5100   23.8060 C   0  0  0  0  0  3  0  0  0  0  0  0
  -21.0890   -5.7360   24.9760 C   0  0  0  0  0  3  0  0  0  0  0  0
  -21.4450   -4.3730   24.9630 C   0  0  0  0  0  0  0  0  0  0  0  0
  -21.9330   -3.7840   23.7830 C   0  0  0  0  0  3  0  0  0  0  0  0
  -22.0630   -4.5560   22.6150 C   0  0  0  0  0  0  0  0  0  0  0  0
  -22.5120   -3.9790   21.4750 F   0  0  0  0  0  0  0  0  0  0  0  0
  -21.3160   -3.6270   26.0840 F   0  0  0  0  0  0  0  0  0  0  0  0
  -22.8070  -13.2650   21.2430 C   0  0  0  0  0  0  0  0  0  0  0  0
  -22.1580  -12.5410   22.1470 N   0  0  0  0  0  0  0  0  0  0  0  0
  -22.3250  -14.3020   20.7840 O   0  0  0  0  0  0  0  0  0  0  0  0
  -22.5700  -11.7070   22.5350 H   0  0  0  0  0  0  0  0  0  0  0  0
  -21.2400  -12.8250   22.4560 H   0  0  0  0  0  0  0  0  0  0  0  0
  -25.3180  -14.9840   20.2580 N   0  0  0  0  0  0  0  0  0  0  0  0
  -24.5160  -15.5930   20.3880 H   0  0  0  0  0  0  0  0  0  0  0  0
  -26.0620  -15.4240   19.7350 H   0  0  0  0  0  0  0  0  0  0  0  0
  -29.4230  -21.0440   19.7960 C   0  0  0  0  0  2  0  0  0  0  0  0
  -30.0430  -22.3950   19.4430 C   0  0  0  0  0  2  0  0  0  0  0  0
  -31.4630  -22.2750   18.8640 C   0  0  0  0  0  2  0  0  0  0  0  0
  -32.0770  -23.5800   18.2840 C   0  0  0  0  0  2  0  0  0  0  0  0
  -33.4850  -23.3790   17.8880 N   0  0  0  0  0  4  0  0  0  0  0  0
  -34.0370  -23.1250   18.6870 H   0  0  0  0  0  0  0  0  0  0  0  0
  -33.8710  -24.2240   17.5060 H   0  0  0  0  0  0  0  0  0  0  0  0
  -33.5770  -22.6550   17.1970 H   0  0  0  0  0  0  0  0  0  0  0  0
  -25.5750  -25.7470   21.6950 C   0  0  0  0  0 15  0  0  0  0  0  0
  -25.1460  -27.7690   22.2530 C   0  0  0  0  0  1  0  0  0  0  0  0
  -25.8000  -27.3090   23.6260 C   0  0  0  0  0  0  0  0  0  0  0  0
  -27.0260  -27.2540   23.7470 O   0  0  0  0  0  0  0  0  0  0  0  0
  -24.9590  -26.5860   24.7080 C   0  0  0  0  0  2  0  0  0  0  0  0
  -25.8320  -25.5860   25.3550 N   0  0  0  0  0  4  0  0  0  0  0  0
  -26.4700  -25.2380   24.6630 H   0  0  0  0  0  0  0  0  0  0  0  0
  -25.3080  -24.8240   25.7500 H   0  0  0  0  0  0  0  0  0  0  0  0
  -26.3880  -26.0270   26.0670 H   0  0  0  0  0  0  0  0  0  0  0  0
  -24.9960  -30.5820   20.8740 C   0  0  0  0  0  1  0  0  0  0  0  0
  -23.4310  -32.1870   19.4860 C   0  0  0  0  0  1  0  0  0  0  0  0
  -24.7980  -33.1650   21.3480 C   0  0  0  0  0  1  0  0  0  0  0  0
  -24.0520  -31.8990   20.8740 C   0  0  0  0  0  3  0  0  0  0  0  0
  -28.3260  -24.8880   21.1840 C   0  0  0  0  0  2  0  0  0  0  0  0
  -28.7180  -26.1210   20.5250 O   0  0  0  0  0  0  0  0  0  0  0  0
  -24.9020  -31.2900   23.9950 C   0  0  0  0  0  0  0  0  0  0  0  0
  -27.7800  -27.0340   20.1960 C   0  0  0  0  0  0  0  0  0  0  0  0
  -23.6230  -29.7850   22.2170 C   0  0  0  0  0  3  0  0  0  0  0  0
  -25.4870  -28.5020   19.9390 C   0  0  0  0  0  0  0  0  0  0  0  0
  -26.6250  -30.0040   22.3660 C   0  0  0  0  0  3  0  0  0  0  0  0
  -26.7970  -29.0230   20.8290 C   0  0  0  0  0  0  0  0  0  0  0  0
  -27.8920  -28.2390   20.8680 C   0  0  0  0  0  3  0  0  0  0  0  0
  -26.7560  -26.7170   19.2670 C   0  0  0  0  0  3  0  0  0  0  0  0
  -25.5910  -27.4590   19.1130 C   0  0  0  0  0  3  0  0  0  0  0  0
  -23.7550  -28.8240   20.5630 C   0  0  0  0  0  3  0  0  0  0  0  0
  -25.0590  -30.2970   23.0380 N   0  0  0  0  0  0  0  0  0  0  0  0
  -23.7800  -31.7020   24.3380 O   0  0  0  0  0  0  0  0  0  0  0  0
  -22.6870  -29.1540   23.1210 C   0  0  0  0  0  0  0  0  0  0  0  0
  -21.4350  -29.1390   22.7220 N   0  0  0  0  0  0  0  0  0  0  0  0
  -23.1390  -28.5620   24.0850 O   0  0  0  0  0  0  0  0  0  0  0  0
  -21.1420  -29.6660   21.9110 H   0  0  0  0  0  0  0  0  0  0  0  0
  -18.0550  -28.1800   22.6630 C   0  0  0  0  0  0  0  0  0  0  0  0
  -20.5160  -28.2090   23.2930 C   0  0  0  0  0  3  0  0  0  0  0  0
  -20.6600  -26.8520   22.5730 C   0  0  0  0  0  2  0  0  0  0  0  0
  -19.6960  -26.7140   21.3970 C   0  0  0  0  0  2  0  0  0  0  0  0
  -18.2530  -26.8910   21.8830 C   0  0  0  0  0  2  0  0  0  0  0  0
  -19.1390  -28.8230   23.2990 C   0  0  0  0  0  0  0  0  0  0  0  0
  -18.9440  -30.0550   23.9630 C   0  0  0  0  0  3  0  0  0  0  0  0
  -17.6630  -30.6290   24.0250 C   0  0  0  0  0  3  0  0  0  0  0  0
  -16.5750  -29.9680   23.4260 C   0  0  0  0  0  3  0  0  0  0  0  0
  -16.7730  -28.7500   22.7490 C   0  0  0  0  0  3  0  0  0  0  0  0
  -26.1240  -31.9550   24.7100 C   0  0  0  0  0  3  0  0  0  0  0  0
  -25.8770  -33.4040   24.9140 N   0  0  0  0  0  0  0  0  0  0  0  0
  -26.5130  -34.4210   24.3120 C   0  0  0  0  0  0  0  0  0  0  0  0
  -27.3910  -34.2440   23.4650 O   0  0  0  0  0  0  0  0  0  0  0  0
  -25.1010  -33.6350   25.5190 H   0  0  0  0  0  0  0  0  0  0  0  0
  -25.0900  -36.4240   23.7030 C   0  0  0  0  0  1  0  0  0  0  0  0
  -26.1140  -35.8630   24.7050 C   0  0  0  0  0  3  0  0  0  0  0  0
  -28.1530  -36.4990   25.9240 C   0  0  0  0  0  1  0  0  0  0  0  0
  -27.2640  -36.7940   24.8030 N   0  0  0  0  0  0  0  0  0  0  0  0
  -26.9510  -37.7550   24.8940 H   0  0  0  0  0  0  0  0  0  0  0  0
  -26.4060  -31.2710   26.0980 C   0  0  1  0  0  0  0  0  0  0  0  0
  -25.1200  -31.0470   26.9310 C   0  0  0  0  0  1  0  0  0  0  0  0
  -27.0560  -29.9080   25.9270 C   0  0  0  0  0  1  0  0  0  0  0  0
  -27.4310  -32.0760   26.9170 C   0  0  0  0  0  1  0  0  0  0  0  0
  1 66  1  0
  2  1  1  0
  2  3  1  0
  4  2  1  0
  5  2  1  0
  7 15  1  0
  8 13  1  0
  9 10  1  0
  9  8  1  0
 11 10  1  0
 11 20  1  0
 11 12  1  0
 13  7  1  0
 13 12  1  0
 14  7  2  0
 15  6  1  0
 16 15  1  0
 17 18  2  0
 18 37  1  0
 19 18  1  0
 19 22  1  0
 20 21  1  0
 20 17  1  0
 21 19  2  0
 22 23  1  0
 23 24  2  0
 25 28  1  0
 25 24  1  0
 26 25  2  0
 27 26  1  0
 27 22  2  0
 28 29  1  0
 29 30  1  0
 30 31  2  0
 32 31  1  0
 32 36  1  0
 33 32  2  0
 34 29  2  0
 34 33  1  0
 35 34  1  0
 37 38  1  0
 38 41  1  0
 38 40  1  0
 39 37  2  0
 42 43  1  0
 42 17  1  0
 44 42  1  0
 45  5  1  0
 46 45  1  0
 47 46  1  0
 48 47  1  0
 49 48  1  0
 49 50  1  0
 51 49  1  0
 52 49  1  0
 54 55  1  0
 55 56  2  0
 55 57  1  0
 57 58  1  0
 58 60  1  0
 58 61  1  0
 59 58  1  0
 63 65  1  0
 65 62  1  0
 65 64  1  0
 67 66  1  0
 68 79  2  0
 69 67  1  0
 69 74  2  0
 70 78  1  0
 70 80  1  0
 71 77  2  0
 71 73  1  0
 72 78  1  0
 73 74  1  0
 73 72  2  0
 75 69  1  0
 76 75  2  0
 76 71  1  0
 77 70  1  0
 78 68  1  0
 80 82  2  0
 81 80  1  0
 83 81  1  0
 84 93  2  0
 84 89  1  0
 85 81  1  0
 85 89  1  0
 86 85  1  0
 87 88  1  0
 87 86  1  0
 88 84  1  0
 89 90  2  0
 90 91  1  0
 92 91  2  0
 93 92  1  0
 94 68  1  0
 94 95  1  0
 94104  1  0
 95 98  1  0
 96100  1  0
 96 95  1  0
 97 96  2  0
100 99  1  0
100102  1  0
102103  1  0
102101  1  0
104107  1  1
104105  1  0
106104  1  0
M  ISO  4   7 100  15 100  66 101  67 101
M  END
>  <TORSDO>  (87) 
F 32

>  <SCORE>  (87) 
-9.442

>  <name>  (87) 
86

>  <ligand_id>  (87) 
86

>  <original_smiles>  (87) 
[H]c1c([H])c([H])c2c(c1[H])C([H])([H])C([H])([H])C([H])([H])C2([H])N([H])C(=O)C1([H])N(C(=O)C([H])(N([H])C(=O)C([H])(N([H])C([H])([H])[H])C([H])([H])[H])C(C([H])([H])[H])(C([H])([H])[H])C([H])([H])[H])C([H])([H])c2c([H])c(OC([H])([H])C([H])(C([H])([H])C([H])(C(=O)C([H])([H])[N+]([H])([H])[H])C([H])([H])C([H])(C([H])([H])[H])C([H])([H])[H])[N+]([H])([H])C([H])(C([H])([H])N([H])C(=O)N3C([H])([H])C([H])([H])C([H])([H])C([H])(n4nc(-c5c([H])c([H])c(Oc6c([H])c([H])c(F)c([H])c6F)c([H])c5[H])c(C(=O)N([H])[H])c4N([H])[H])C3([H])[H])C([H])([H])C([H])([H])C([H])([H])C([H])([H])[N+]([H])([H])[H])c([H])c([H])c2C1([H])[H]

>  <smiles>  (87) 
[H]c1c([H])c([H])c2c(c1[H])C([H])([H])C([H])([H])C([H])([H])C2([H])N([H])C(=O)C1([H])N(C(=O)C([H])(N([H])C(=O)C([H])(N([H])C([H])([H])[H])C([H])([H])[H])C(C([H])([H])[H])(C([H])([H])[H])C([H])([H])[H])C([H])([H])c2c([H])c(OC([H])([H])C([H])(C([H])([H])C([H])(C(=O)C([H])([H])[N+]([H])([H])[H])C([H])([H])C([H])(C([H])([H])[H])C([H])([H])[H])[N+]([H])([H])C([H])(C([H])([H])N([H])C(=O)N3C([H])([H])C([H])([H])C([H])([H])C([H])(n4nc(-c5c([H])c([H])c(Oc6c([H])c([H])c(F)c([H])c6F)c([H])c5[H])c(C(=O)N([H])[H])c4N([H])[H])C3([H])[H])C([H])([H])C([H])([H])C([H])([H])C([H])([H])[N+]([H])([H])[H])c([H])c([H])c2C1([H])[H]

$$$$
87:0:0
     RDKit          3D

 96104  0  0  1  0  0  0  0  0999 V2000
  -28.4420  -21.3060   19.0700 C   0  0  0  0  0  3  0  0  0  0  0  0
  -29.0220  -24.6250   20.7960 C   0  0  0  0  0  2  0  0  0  0  0  0
  -28.0030  -25.0630   18.5480 C   0  0  0  0  0  2  0  0  0  0  0  0
  -29.5470  -23.3520   20.0560 C   0  0  0  0  0  2  0  0  0  0  0  0
  -27.6580  -23.5620   18.4040 C   0  0  0  0  0  2  0  0  0  0  0  0
  -27.9560  -25.4520   20.0340 C   0  0  0  0  0  3  0  0  0  0  0  0
  -28.5280  -22.6690   19.2150 N   0  0  0  0  0  0  0  0  0  0  0  0
  -27.4790  -20.7700   18.2900 N   0  0  0  0  0  0  0  0  0  0  0  0
  -27.4170  -19.7690   18.1690 H   0  0  0  0  0  0  0  0  0  0  0  0
  -26.7900  -21.3330   17.8100 H   0  0  0  0  0  0  0  0  0  0  0  0
  -28.1090  -26.8750   20.2710 O   0  0  0  0  0  0  0  0  0  0  0  0
  -24.6230  -32.2150   23.4980 C   0  0  0  0  0  0  0  0  0  0  0  0
  -26.9710  -27.6700   20.2960 C   0  0  0  0  0  0  0  0  0  0  0  0
  -23.3110  -30.8910   21.8770 C   0  0  0  0  0  3  0  0  0  0  0  0
  -24.6530  -29.3100   20.3960 C   0  0  0  0  0  0  0  0  0  0  0  0
  -25.8490  -31.1310   21.6130 C   0  0  0  0  0  2  0  0  0  0  0  0
  -25.8540  -29.7660   20.9520 C   0  0  0  0  0  0  0  0  0  0  0  0
  -27.0170  -28.9580   20.8910 C   0  0  0  0  0  3  0  0  0  0  0  0
  -25.7410  -27.2390   19.7430 C   0  0  0  0  0  3  0  0  0  0  0  0
  -24.5930  -28.0470   19.7890 C   0  0  0  0  0  3  0  0  0  0  0  0
  -23.4530  -30.2240   20.4850 C   0  0  0  0  0  2  0  0  0  0  0  0
  -24.6150  -31.4250   22.3880 N   0  0  0  0  0  0  0  0  0  0  0  0
  -23.5680  -32.5290   24.0690 O   0  0  0  0  0  0  0  0  0  0  0  0
  -22.6390  -29.8860   22.8410 C   0  0  0  0  0  0  0  0  0  0  0  0
  -21.3270  -29.6630   22.6570 N   0  0  0  0  0  0  0  0  0  0  0  0
  -23.2960  -29.3090   23.7110 O   0  0  0  0  0  0  0  0  0  0  0  0
  -20.8570  -30.1830   21.9290 H   0  0  0  0  0  0  0  0  0  0  0  0
  -17.9780  -28.3460   22.9890 C   0  0  0  0  0  0  0  0  0  0  0  0
  -20.4970  -28.7330   23.4210 C   0  0  0  0  0  3  0  0  0  0  0  0
  -20.6990  -27.2780   22.9340 C   0  0  0  0  0  2  0  0  0  0  0  0
  -19.6860  -26.8530   21.8670 C   0  0  0  0  0  2  0  0  0  0  0  0
  -18.2560  -26.9710   22.4050 C   0  0  0  0  0  2  0  0  0  0  0  0
  -19.0310  -29.1800   23.4510 C   0  0  0  0  0  0  0  0  0  0  0  0
  -18.7200  -30.4630   23.9510 C   0  0  0  0  0  3  0  0  0  0  0  0
  -17.3880  -30.9140   23.9970 C   0  0  0  0  0  3  0  0  0  0  0  0
  -16.3480  -30.0790   23.5530 C   0  0  0  0  0  3  0  0  0  0  0  0
  -16.6430  -28.7980   23.0550 C   0  0  0  0  0  3  0  0  0  0  0  0
  -25.9500  -32.7810   24.0910 C   0  0  0  0  0  3  0  0  0  0  0  0
  -25.7360  -34.2060   24.3750 N   0  0  0  0  0  0  0  0  0  0  0  0
  -26.0880  -35.2050   23.5560 C   0  0  0  0  0  0  0  0  0  0  0  0
  -26.6990  -35.0220   22.4990 O   0  0  0  0  0  0  0  0  0  0  0  0
  -25.1920  -34.4270   25.1970 H   0  0  0  0  0  0  0  0  0  0  0  0
  -24.4300  -37.0690   23.2240 C   0  0  0  0  0  1  0  0  0  0  0  0
  -25.7000  -36.6370   23.9750 C   0  0  0  0  0  3  0  0  0  0  0  0
  -27.9190  -37.4550   24.6370 C   0  0  0  0  0  1  0  0  0  0  0  0
  -26.7750  -37.6280   23.7460 N   0  0  0  0  0  0  0  0  0  0  0  0
  -26.4220  -38.5740   23.8630 H   0  0  0  0  0  0  0  0  0  0  0  0
  -26.4270  -32.0180   25.3870 C   0  0  1  0  0  0  0  0  0  0  0  0
  -25.3160  -31.8420   26.4490 C   0  0  0  0  0  1  0  0  0  0  0  0
  -26.9630  -30.6130   25.0270 C   0  0  0  0  0  1  0  0  0  0  0  0
  -27.6000  -32.7830   26.0440 C   0  0  0  0  0  1  0  0  0  0  0  0
  -29.4200  -20.3520   19.7500 C   0  0  0  0  0  2  0  0  0  0  0  0
  -29.1180  -18.8290   19.5320 C   0  0  0  0  0  2  0  0  0  0  0  0
  -30.2950  -17.8930   19.9350 C   0  0  0  0  0  2  0  0  0  0  0  0
  -30.0150  -16.8150   21.0360 C   0  0  0  0  0  3  0  0  0  0  0  0
  -30.1410  -14.6180   19.7320 C   0  0  0  0  0  0  0  0  0  0  0  0
  -29.8690  -12.4140   18.6400 C   0  0  0  0  0  2  0  0  0  0  0  0
  -28.7640  -12.4870   17.5690 C   0  0  0  0  0  2  0  0  0  0  0  0
  -27.3740  -12.2480   18.1940 C   0  0  0  0  0  2  0  0  0  0  0  0
  -27.1340  -13.1060   19.4640 C   0  0  0  0  0  3  0  0  0  0  0  0
  -28.3340  -12.9980   20.4290 C   0  0  0  0  0  2  0  0  0  0  0  0
  -29.5430  -13.3960   19.6850 N   0  0  0  0  0  0  0  0  0  0  0  0
  -31.1540  -14.8930   19.0830 O   0  0  0  0  0  0  0  0  0  0  0  0
  -29.5180  -15.5280   20.5090 N   0  0  0  0  0  0  0  0  0  0  0  0
  -28.6590  -15.1990   20.9250 H   0  0  0  0  0  0  0  0  0  0  0  0
  -24.8520  -13.5760   20.5600 C   0  0  0  0  0  0  0  0  0  0  0  0
  -23.8760  -12.7410   21.0320 C   0  0  0  0  0  0  0  0  0  0  0  0
  -24.3680  -11.4120   20.8470 C   0  0  0  0  0  0  0  0  0  0  0  0
  -25.8770  -12.7510   20.1210 N   0  0  0  0  0  0  0  0  0  0  0  0
  -25.5970  -11.4430   20.3490 N   0  0  0  0  0  0  0  0  0  0  0  0
  -23.7180  -10.1130   21.0610 C   0  0  0  0  0  0  0  0  0  0  0  0
  -24.2320   -9.1730   21.9810 C   0  0  0  0  0  3  0  0  0  0  0  0
  -23.5790   -7.9370   22.1820 C   0  0  0  0  0  3  0  0  0  0  0  0
  -22.3970   -7.6350   21.4630 C   0  0  0  0  0  0  0  0  0  0  0  0
  -21.9030   -8.5660   20.5330 C   0  0  0  0  0  3  0  0  0  0  0  0
  -22.5580   -9.7920   20.3300 C   0  0  0  0  0  3  0  0  0  0  0  0
  -21.7100   -6.4500   21.5740 O   0  0  0  0  0  0  0  0  0  0  0  0
  -21.6440   -5.7660   22.7610 C   0  0  0  0  0  0  0  0  0  0  0  0
  -21.0690   -6.3330   23.9180 C   0  0  0  0  0  3  0  0  0  0  0  0
  -20.9590   -5.5690   25.0980 C   0  0  0  0  0  3  0  0  0  0  0  0
  -21.4130   -4.2380   25.1200 C   0  0  0  0  0  0  0  0  0  0  0  0
  -21.9820   -3.6690   23.9670 C   0  0  0  0  0  3  0  0  0  0  0  0
  -22.0940   -4.4290   22.7890 C   0  0  0  0  0  0  0  0  0  0  0  0
  -22.6230   -3.8700   21.6750 F   0  0  0  0  0  0  0  0  0  0  0  0
  -21.3010   -3.5010   26.2490 F   0  0  0  0  0  0  0  0  0  0  0  0
  -22.5220  -13.1450   21.5400 C   0  0  0  0  0  0  0  0  0  0  0  0
  -21.9500  -12.3630   22.4490 N   0  0  0  0  0  0  0  0  0  0  0  0
  -21.9840  -14.1870   21.1670 O   0  0  0  0  0  0  0  0  0  0  0  0
  -22.3990  -11.5190   22.7700 H   0  0  0  0  0  0  0  0  0  0  0  0
  -21.0480  -12.6140   22.8300 H   0  0  0  0  0  0  0  0  0  0  0  0
  -24.9490  -14.9600   20.4480 N   0  0  0  0  0  0  0  0  0  0  0  0
  -24.1890  -15.5790   20.7080 H   0  0  0  0  0  0  0  0  0  0  0  0
  -25.7290  -15.4480   20.0280 H   0  0  0  0  0  0  0  0  0  0  0  0
  -31.2260  -17.6230   23.1770 C   0  0  0  0  0  1  0  0  0  0  0  0
  -31.1940  -15.1780   22.6540 C   0  0  0  0  0  1  0  0  0  0  0  0
  -31.2000  -16.5910   22.0300 C   0  0  0  0  0  3  0  0  0  0  0  0
  1  7  1  0
  1 52  1  0
  3  6  1  0
  4  2  1  0
  5  3  1  0
  5  7  1  0
  6 11  1  0
  6  2  1  0
  7  4  1  0
  8  1  1  0
  9  8  1  0
 10  8  1  0
 11 13  1  0
 12 23  2  0
 13 18  1  0
 14 22  1  0
 14 24  1  0
 15 21  1  0
 15 17  1  0
 16 22  1  0
 17 16  1  0
 18 17  2  0
 19 20  1  0
 19 13  2  0
 20 15  2  0
 21 14  1  0
 22 12  1  0
 24 26  2  0
 25 24  1  0
 27 25  1  0
 28 37  2  0
 28 33  1  0
 29 25  1  0
 29 33  1  0
 30 29  1  0
 31 32  1  0
 31 30  1  0
 32 28  1  0
 33 34  2  0
 34 35  1  0
 36 35  2  0
 37 36  1  0
 38 12  1  0
 38 39  1  0
 38 48  1  0
 39 42  1  0
 40 44  1  0
 40 39  1  0
 41 40  2  0
 44 43  1  0
 46 47  1  0
 46 44  1  0
 46 45  1  0
 48 51  1  1
 48 49  1  0
 50 48  1  0
 53 52  1  0
 53 54  1  0
 55 54  1  0
 55 96  1  0
 56 64  1  0
 57 62  1  0
 58 59  1  0
 58 57  1  0
 60 59  1  0
 60 69  1  0
 60 61  1  0
 62 56  1  0
 62 61  1  0
 63 56  2  0
 64 65  1  0
 64 55  1  0
 66 67  2  0
 67 86  1  0
 68 67  1  0
 68 71  1  0
 69 70  1  0
 69 66  1  0
 70 68  2  0
 71 72  1  0
 72 73  2  0
 74 77  1  0
 74 73  1  0
 75 74  2  0
 76 75  1  0
 76 71  2  0
 77 78  1  0
 78 83  2  0
 78 79  1  0
 79 80  2  0
 80 81  1  0
 81 85  1  0
 82 81  2  0
 83 82  1  0
 84 83  1  0
 86 87  1  0
 87 89  1  0
 87 90  1  0
 88 86  2  0
 91 66  1  0
 91 92  1  0
 93 91  1  0
 96 95  1  0
 96 94  1  0
M  ISO  4   6 101  11 101  56 100  64 100
M  END
>  <TORSDO>  (88) 
F 21

>  <SCORE>  (88) 
-10.648

>  <name>  (88) 
87

>  <ligand_id>  (88) 
87

>  <original_smiles>  (88) 
[H]c1c([H])c([H])c2c(c1[H])C([H])([H])C([H])([H])C([H])([H])C2([H])N([H])C(=O)C1([H])N(C(=O)C([H])(N([H])C(=O)C([H])(N([H])C([H])([H])[H])C([H])([H])[H])C(C([H])([H])[H])(C([H])([H])[H])C([H])([H])[H])C([H])([H])c2c([H])c(OC3([H])C([H])([H])C([H])([H])N(C(=[N+]([H])[H])C([H])([H])C([H])([H])C([H])([H])C([H])(N([H])C(=O)N4C([H])([H])C([H])([H])C([H])([H])C([H])(n5nc(-c6c([H])c([H])c(Oc7c([H])c([H])c(F)c([H])c7F)c([H])c6[H])c(C(=O)N([H])[H])c5N([H])[H])C4([H])[H])C([H])(C([H])([H])[H])C([H])([H])[H])C([H])([H])C3([H])[H])c([H])c([H])c2C1([H])[H]

>  <smiles>  (88) 
[H]c1c([H])c([H])c2c(c1[H])C([H])([H])C([H])([H])C([H])([H])C2([H])N([H])C(=O)C1([H])N(C(=O)C([H])(N([H])C(=O)C([H])(N([H])C([H])([H])[H])C([H])([H])[H])C(C([H])([H])[H])(C([H])([H])[H])C([H])([H])[H])C([H])([H])c2c([H])c(OC3([H])C([H])([H])C([H])([H])N(C(=[N+]([H])[H])C([H])([H])C([H])([H])C([H])([H])C([H])(N([H])C(=O)N4C([H])([H])C([H])([H])C([H])([H])C([H])(n5nc(-c6c([H])c([H])c(Oc7c([H])c([H])c(F)c([H])c7F)c([H])c6[H])c(C(=O)N([H])[H])c5N([H])[H])C4([H])[H])C([H])(C([H])([H])[H])C([H])([H])[H])C([H])([H])C3([H])[H])c([H])c([H])c2C1([H])[H]

$$$$
88:0:0
     RDKit          3D

 91 99  0  0  1  0  0  0  0  0999 V2000
  -28.2440  -22.9270   19.9290 C   0  0  2  0  0  0  0  0  0  0  0  0
  -25.7480  -23.1270   18.9810 C   0  0  0  0  0  1  0  0  0  0  0  0
  -26.8080  -22.3290   19.7550 C   0  0  0  0  0  2  0  0  0  0  0  0
  -28.8770  -22.2840   17.4390 C   0  0  0  0  0  1  0  0  0  0  0  0
  -28.9090  -23.3090   18.5810 C   0  0  0  0  0  2  0  0  0  0  0  0
  -29.0880  -21.5460   20.6190 C   0  0  0  0  0  2  0  0  0  0  0  0
  -30.6240  -15.2460   20.1440 C   0  0  0  0  0  0  0  0  0  0  0  0
  -30.4640  -12.8480   19.2440 C   0  0  0  0  0  2  0  0  0  0  0  0
  -29.5120  -12.6670   18.0410 C   0  0  0  0  0  2  0  0  0  0  0  0
  -28.0750  -12.4190   18.5260 C   0  0  0  0  0  2  0  0  0  0  0  0
  -27.6660  -13.3830   19.6690 C   0  0  0  0  0  3  0  0  0  0  0  0
  -28.7490  -13.5290   20.7600 C   0  0  0  0  0  2  0  0  0  0  0  0
  -29.9590  -14.0010   20.0720 N   0  0  0  0  0  0  0  0  0  0  0  0
  -31.8390  -15.1450   19.9300 O   0  0  0  0  0  0  0  0  0  0  0  0
  -28.6650  -17.2180   20.3590 C   0  0  0  0  0  2  0  0  0  0  0  0
  -30.8170  -17.8200   19.6230 C   0  0  0  0  0  2  0  0  0  0  0  0
  -28.4080  -18.8310   20.7510 C   0  0  0  0  0  2  0  0  0  0  0  0
  -30.5960  -19.3430   20.1820 C   0  0  0  0  0  2  0  0  0  0  0  0
  -30.0460  -16.6050   20.1410 N   0  0  0  0  0  0  0  0  0  0  0  0
  -29.2140  -19.9810   20.1110 N   0  0  2  0  0  4  0  0  0  0  0  0
  -28.9730  -19.9990   19.1320 H   0  0  0  0  0  0  0  0  0  0  0  0
  -25.3160  -13.9260   20.4900 C   0  0  0  0  0  0  0  0  0  0  0  0
  -24.2630  -13.1380   20.8710 C   0  0  0  0  0  0  0  0  0  0  0  0
  -24.7320  -11.7930   20.8080 C   0  0  0  0  0  0  0  0  0  0  0  0
  -26.3540  -13.0570   20.2110 N   0  0  0  0  0  0  0  0  0  0  0  0
  -26.0170  -11.7670   20.4690 N   0  0  0  0  0  0  0  0  0  0  0  0
  -24.0110  -10.5240   20.9910 C   0  0  0  0  0  0  0  0  0  0  0  0
  -24.4410   -9.5610   21.9290 C   0  0  0  0  0  3  0  0  0  0  0  0
  -23.7220   -8.3590   22.1020 C   0  0  0  0  0  3  0  0  0  0  0  0
  -22.5590   -8.1090   21.3370 C   0  0  0  0  0  0  0  0  0  0  0  0
  -22.1520   -9.0580   20.3830 C   0  0  0  0  0  3  0  0  0  0  0  0
  -22.8710  -10.2520   20.2080 C   0  0  0  0  0  3  0  0  0  0  0  0
  -21.8100   -6.9600   21.4260 O   0  0  0  0  0  0  0  0  0  0  0  0
  -21.7170   -6.2450   22.5940 C   0  0  0  0  0  0  0  0  0  0  0  0
  -21.2050   -6.8170   23.7790 C   0  0  0  0  0  3  0  0  0  0  0  0
  -21.0630   -6.0270   24.9370 C   0  0  0  0  0  3  0  0  0  0  0  0
  -21.4200   -4.6650   24.9090 C   0  0  0  0  0  0  0  0  0  0  0  0
  -21.9270   -4.0920   23.7300 C   0  0  0  0  0  3  0  0  0  0  0  0
  -22.0710   -4.8800   22.5750 C   0  0  0  0  0  0  0  0  0  0  0  0
  -22.5380   -4.3190   21.4330 F   0  0  0  0  0  0  0  0  0  0  0  0
  -21.2770   -3.9040   26.0190 F   0  0  0  0  0  0  0  0  0  0  0  0
  -22.8710  -13.6090   21.1750 C   0  0  0  0  0  0  0  0  0  0  0  0
  -22.1590  -12.8960   22.0400 N   0  0  0  0  0  0  0  0  0  0  0  0
  -22.4240  -14.6400   20.6760 O   0  0  0  0  0  0  0  0  0  0  0  0
  -22.5330  -12.0590   22.4620 H   0  0  0  0  0  0  0  0  0  0  0  0
  -21.2230  -13.1920   22.2830 H   0  0  0  0  0  0  0  0  0  0  0  0
  -25.4800  -15.2990   20.3250 N   0  0  0  0  0  0  0  0  0  0  0  0
  -24.7330  -15.9740   20.4440 H   0  0  0  0  0  0  0  0  0  0  0  0
  -26.3280  -15.7090   19.9590 H   0  0  0  0  0  0  0  0  0  0  0  0
  -28.0620  -24.5120   20.6850 C   0  0  0  0  0  2  0  0  0  0  0  0
  -28.2220  -26.0460   20.2140 O   0  0  0  0  0  0  0  0  0  0  0  0
  -24.6170  -31.8870   23.1840 C   0  0  0  0  0  0  0  0  0  0  0  0
  -27.1930  -27.0880   20.2070 C   0  0  0  0  0  0  0  0  0  0  0  0
  -23.4330  -30.4890   21.5410 C   0  0  0  0  0  3  0  0  0  0  0  0
  -24.8920  -28.9030   20.1330 C   0  0  0  0  0  0  0  0  0  0  0  0
  -25.9960  -30.7340   21.3970 C   0  0  0  0  0  2  0  0  0  0  0  0
  -26.0720  -29.3330   20.7500 C   0  0  0  0  0  0  0  0  0  0  0  0
  -27.2320  -28.4490   20.7530 C   0  0  0  0  0  3  0  0  0  0  0  0
  -25.9870  -26.7850   19.5440 C   0  0  0  0  0  3  0  0  0  0  0  0
  -24.8670  -27.6470   19.5090 C   0  0  0  0  0  3  0  0  0  0  0  0
  -23.6690  -29.8130   20.1670 C   0  0  0  0  0  2  0  0  0  0  0  0
  -24.7030  -31.0600   22.0950 N   0  0  0  0  0  0  0  0  0  0  0  0
  -23.5230  -32.1630   23.7050 O   0  0  0  0  0  0  0  0  0  0  0  0
  -22.7500  -29.4760   22.4940 C   0  0  0  0  0  0  0  0  0  0  0  0
  -21.4200  -29.3160   22.3800 N   0  0  0  0  0  0  0  0  0  0  0  0
  -23.4230  -28.8360   23.3060 O   0  0  0  0  0  0  0  0  0  0  0  0
  -20.9240  -29.8990   21.7180 H   0  0  0  0  0  0  0  0  0  0  0  0
  -18.0340  -28.1380   22.9040 C   0  0  0  0  0  0  0  0  0  0  0  0
  -20.5990  -28.3720   23.1460 C   0  0  0  0  0  3  0  0  0  0  0  0
  -20.6800  -26.9480   22.5460 C   0  0  0  0  0  2  0  0  0  0  0  0
  -19.5710  -26.6730   21.5260 C   0  0  0  0  0  2  0  0  0  0  0  0
  -18.1970  -26.8060   22.1900 C   0  0  0  0  0  2  0  0  0  0  0  0
  -19.1640  -28.8830   23.3350 C   0  0  0  0  0  0  0  0  0  0  0  0
  -18.9610  -30.1370   23.9530 C   0  0  0  0  0  3  0  0  0  0  0  0
  -17.6620  -30.6410   24.1440 C   0  0  0  0  0  3  0  0  0  0  0  0
  -16.5470  -29.8930   23.7320 C   0  0  0  0  0  3  0  0  0  0  0  0
  -16.7340  -28.6420   23.1170 C   0  0  0  0  0  3  0  0  0  0  0  0
  -25.8810  -32.5360   23.8190 C   0  0  0  0  0  3  0  0  0  0  0  0
  -26.3790  -31.7780   25.1110 C   0  0  1  0  0  0  0  0  0  0  0  0
  -25.2670  -31.5340   26.1600 C   0  0  0  0  0  1  0  0  0  0  0  0
  -26.9780  -30.4010   24.7430 C   0  0  0  0  0  1  0  0  0  0  0  0
  -27.5150  -32.5820   25.7840 C   0  0  0  0  0  1  0  0  0  0  0  0
  -25.5550  -33.9330   24.1510 N   0  0  0  0  0  0  0  0  0  0  0  0
  -25.8760  -34.9940   23.4010 C   0  0  0  0  0  0  0  0  0  0  0  0
  -26.5480  -34.9020   22.3710 O   0  0  0  0  0  0  0  0  0  0  0  0
  -24.9610  -34.0740   24.9550 H   0  0  0  0  0  0  0  0  0  0  0  0
  -24.1420  -36.7870   23.0460 C   0  0  0  0  0  1  0  0  0  0  0  0
  -25.3760  -36.3810   23.8670 C   0  0  0  0  0  3  0  0  0  0  0  0
  -27.4920  -37.2780   24.7340 C   0  0  0  0  0  1  0  0  0  0  0  0
  -26.4040  -37.4410   23.7730 N   0  0  0  0  0  0  0  0  0  0  0  0
  -25.9900  -38.3590   23.9180 H   0  0  0  0  0  0  0  0  0  0  0  0
  1  6  1  1
  1 50  1  0
  2  3  1  0
  3  1  1  0
  4  5  1  0
  5  1  1  0
  8 13  1  0
  9 10  1  0
  9  8  1  0
 11 10  1  0
 11 25  1  0
 11 12  1  0
 13  7  1  0
 13 12  1  0
 14  7  2  0
 15 17  1  0
 16 19  1  0
 16 18  1  0
 19  7  1  0
 19 15  1  0
 20 18  1  0
 20  6  1  0
 20 17  1  0
 20 21  1  6
 22 23  2  0
 23 42  1  0
 24 23  1  0
 24 27  1  0
 25 26  1  0
 25 22  1  0
 26 24  2  0
 27 28  1  0
 28 29  2  0
 30 33  1  0
 30 29  1  0
 31 30  2  0
 32 31  1  0
 32 27  2  0
 33 34  1  0
 34 35  1  0
 35 36  2  0
 37 36  1  0
 37 41  1  0
 38 37  2  0
 39 34  2  0
 39 38  1  0
 40 39  1  0
 42 43  1  0
 43 46  1  0
 43 45  1  0
 44 42  2  0
 47 48  1  0
 47 22  1  0
 49 47  1  0
 51 50  1  0
 52 63  2  0
 53 51  1  0
 53 58  1  0
 54 62  1  0
 54 64  1  0
 55 61  1  0
 55 57  1  0
 56 62  1  0
 57 58  2  0
 57 56  1  0
 59 53  2  0
 60 59  1  0
 60 55  2  0
 61 54  1  0
 62 52  1  0
 64 66  2  0
 65 64  1  0
 67 65  1  0
 68 77  2  0
 68 73  1  0
 69 65  1  0
 69 73  1  0
 70 69  1  0
 71 72  1  0
 71 70  1  0
 72 68  1  0
 73 74  2  0
 74 75  1  0
 76 75  2  0
 77 76  1  0
 78 52  1  0
 78 83  1  0
 78 79  1  0
 79 82  1  1
 79 80  1  0
 81 79  1  0
 83 86  1  0
 84 88  1  0
 84 83  1  0
 85 84  2  0
 88 87  1  0
 90 88  1  0
 90 91  1  0
 90 89  1  0
M  ISO  4   7 100  19 100  50 101  51 101
M  END
>  <TORSDO>  (89) 
F 20

>  <SCORE>  (89) 
-14.976

>  <name>  (89) 
88

>  <ligand_id>  (89) 
88

>  <original_smiles>  (89) 
[H]c1c([H])c([H])c2c(c1[H])C([H])([H])C([H])([H])C([H])([H])C2([H])N([H])C(=O)C1([H])N(C(=O)C([H])(N([H])C(=O)C([H])(N([H])C([H])([H])[H])C([H])([H])[H])C(C([H])([H])[H])(C([H])([H])[H])C([H])([H])[H])C([H])([H])c2c([H])c(OC([H])([H])C(C([H])([H])C([H])([H])[H])(C([H])([H])C([H])([H])[H])C([H])([H])[N+]3([H])C([H])([H])C([H])([H])N(C(=O)N4C([H])([H])C([H])([H])C([H])([H])C([H])(n5nc(-c6c([H])c([H])c(Oc7c([H])c([H])c(F)c([H])c7F)c([H])c6[H])c(C(=O)N([H])[H])c5N([H])[H])C4([H])[H])C([H])([H])C3([H])[H])c([H])c([H])c2C1([H])[H]

>  <smiles>  (89) 
[H]c1c([H])c([H])c2c(c1[H])C([H])([H])C([H])([H])C([H])([H])C2([H])N([H])C(=O)C1([H])N(C(=O)C([H])(N([H])C(=O)C([H])(N([H])C([H])([H])[H])C([H])([H])[H])C(C([H])([H])[H])(C([H])([H])[H])C([H])([H])[H])C([H])([H])c2c([H])c(OC([H])([H])C(C([H])([H])C([H])([H])[H])(C([H])([H])C([H])([H])[H])C([H])([H])[N+]3([H])C([H])([H])C([H])([H])N(C(=O)N4C([H])([H])C([H])([H])C([H])([H])C([H])(n5nc(-c6c([H])c([H])c(Oc7c([H])c([H])c(F)c([H])c7F)c([H])c6[H])c(C(=O)N([H])[H])c5N([H])[H])C4([H])[H])C([H])([H])C3([H])[H])c([H])c([H])c2C1([H])[H]

$$$$
89:0:0
     RDKit          3D

 95103  0  0  1  0  0  0  0  0999 V2000
  -28.5560  -21.3050   19.2510 C   0  0  0  0  0  3  0  0  0  0  0  0
  -26.9280  -20.5570   17.3770 C   0  0  0  0  0  1  0  0  0  0  0  0
  -27.1020  -20.9370   18.8560 C   0  0  0  0  0  2  0  0  0  0  0  0
  -29.2980  -20.0340   19.8980 C   0  0  0  0  0  3  0  0  0  0  0  0
  -29.2860  -18.5930   19.1860 C   0  0  0  0  0  3  0  0  0  0  0  0
  -30.3370  -17.4620   19.6270 C   0  0  0  0  0  3  0  0  0  0  0  0
  -30.5590  -14.9550   18.9190 C   0  0  0  0  0  0  0  0  0  0  0  0
  -30.1120  -12.7430   17.8720 C   0  0  0  0  0  2  0  0  0  0  0  0
  -28.9520  -12.8890   16.8640 C   0  0  0  0  0  2  0  0  0  0  0  0
  -27.5920  -12.7310   17.5720 C   0  0  0  0  0  2  0  0  0  0  0  0
  -27.4860  -13.5790   18.8670 C   0  0  0  0  0  3  0  0  0  0  0  0
  -28.7390  -13.4090   19.7540 C   0  0  0  0  0  2  0  0  0  0  0  0
  -29.9070  -13.7520   18.9310 N   0  0  0  0  0  0  0  0  0  0  0  0
  -31.6300  -15.0950   18.3240 O   0  0  0  0  0  0  0  0  0  0  0  0
  -29.8900  -16.0300   19.4490 N   0  0  0  0  0  0  0  0  0  0  0  0
  -29.0000  -15.8020   19.8650 H   0  0  0  0  0  0  0  0  0  0  0  0
  -25.3380  -14.1840   20.1380 C   0  0  0  0  0  0  0  0  0  0  0  0
  -24.3250  -13.4160   20.6450 C   0  0  0  0  0  0  0  0  0  0  0  0
  -24.6860  -12.0610   20.3780 C   0  0  0  0  0  0  0  0  0  0  0  0
  -26.2540  -13.2960   19.5970 N   0  0  0  0  0  0  0  0  0  0  0  0
  -25.8800  -12.0060   19.7990 N   0  0  0  0  0  0  0  0  0  0  0  0
  -23.9370  -10.8150   20.5870 C   0  0  0  0  0  0  0  0  0  0  0  0
  -24.4860   -9.7350   21.3140 C   0  0  0  0  0  3  0  0  0  0  0  0
  -23.7380   -8.5550   21.5180 C   0  0  0  0  0  3  0  0  0  0  0  0
  -22.4280   -8.4450   20.9950 C   0  0  0  0  0  0  0  0  0  0  0  0
  -21.8950   -9.5140   20.2530 C   0  0  0  0  0  3  0  0  0  0  0  0
  -22.6410  -10.6860   20.0470 C   0  0  0  0  0  3  0  0  0  0  0  0
  -21.6390   -7.3280   21.1210 O   0  0  0  0  0  0  0  0  0  0  0  0
  -21.7650   -6.4730   22.1860 C   0  0  0  0  0  0  0  0  0  0  0  0
  -21.6180   -6.9160   23.5190 C   0  0  0  0  0  3  0  0  0  0  0  0
  -21.6870   -5.9930   24.5800 C   0  0  0  0  0  3  0  0  0  0  0  0
  -21.8950   -4.6260   24.3130 C   0  0  0  0  0  0  0  0  0  0  0  0
  -22.0380   -4.1820   22.9860 C   0  0  0  0  0  3  0  0  0  0  0  0
  -21.9700   -5.1030   21.9260 C   0  0  0  0  0  0  0  0  0  0  0  0
  -22.0870   -4.6660   20.6480 F   0  0  0  0  0  0  0  0  0  0  0  0
  -21.9550   -3.7360   25.3310 F   0  0  0  0  0  0  0  0  0  0  0  0
  -23.0470  -13.9150   21.2560 C   0  0  0  0  0  0  0  0  0  0  0  0
  -22.4820  -13.1620   22.1930 N   0  0  0  0  0  0  0  0  0  0  0  0
  -22.5700  -15.0030   20.9390 O   0  0  0  0  0  0  0  0  0  0  0  0
  -22.8830  -12.2780   22.4640 H   0  0  0  0  0  0  0  0  0  0  0  0
  -21.6340  -13.4770   22.6440 H   0  0  0  0  0  0  0  0  0  0  0  0
  -25.5480  -15.5590   20.0710 N   0  0  0  0  0  0  0  0  0  0  0  0
  -24.8630  -16.2260   20.4070 H   0  0  0  0  0  0  0  0  0  0  0  0
  -26.3240  -15.9970   19.5910 H   0  0  0  0  0  0  0  0  0  0  0  0
  -31.2370  -17.1000   23.9850 C   0  0  0  0  0  2  0  0  0  0  0  0
  -30.3760  -18.2750   23.4920 C   0  0  0  0  0  2  0  0  0  0  0  0
  -32.3150  -16.7320   22.9550 C   0  0  0  0  0  2  0  0  0  0  0  0
  -29.7600  -17.9780   22.1130 C   0  0  0  0  0  2  0  0  0  0  0  0
  -31.6940  -16.4590   21.5760 C   0  0  0  0  0  2  0  0  0  0  0  0
  -30.8620  -17.6620   21.0770 C   0  0  0  0  0  3  0  0  0  0  0  0
  -28.5570  -22.6430   20.1430 C   0  0  0  0  0  2  0  0  0  0  0  0
  -27.7960  -24.2600   18.2030 C   0  0  0  0  0  1  0  0  0  0  0  0
  -28.5780  -24.1320   19.5220 C   0  0  0  0  0  3  0  0  0  0  0  0
  -28.1140  -25.2940   20.5190 C   0  0  0  0  0  2  0  0  0  0  0  0
  -28.3190  -26.7250   20.1890 O   0  0  0  0  0  0  0  0  0  0  0  0
  -24.5720  -32.0500   23.3400 C   0  0  0  0  0  0  0  0  0  0  0  0
  -27.1970  -27.5620   20.2010 C   0  0  0  0  0  0  0  0  0  0  0  0
  -23.3690  -30.6670   21.6850 C   0  0  0  0  0  3  0  0  0  0  0  0
  -24.8230  -29.1470   20.2290 C   0  0  0  0  0  0  0  0  0  0  0  0
  -25.9050  -31.0050   21.4950 C   0  0  0  0  0  2  0  0  0  0  0  0
  -25.9920  -29.6400   20.8250 C   0  0  0  0  0  0  0  0  0  0  0  0
  -27.1850  -28.8610   20.7960 C   0  0  0  0  0  3  0  0  0  0  0  0
  -26.0070  -27.1190   19.5860 C   0  0  0  0  0  3  0  0  0  0  0  0
  -24.8320  -27.8920   19.6010 C   0  0  0  0  0  3  0  0  0  0  0  0
  -23.5810  -30.0120   20.2940 C   0  0  0  0  0  2  0  0  0  0  0  0
  -24.6340  -31.2590   22.2300 N   0  0  0  0  0  0  0  0  0  0  0  0
  -23.4880  -32.3160   23.8840 O   0  0  0  0  0  0  0  0  0  0  0  0
  -22.7190  -29.6320   22.6320 C   0  0  0  0  0  0  0  0  0  0  0  0
  -21.3990  -29.4250   22.4870 N   0  0  0  0  0  0  0  0  0  0  0  0
  -23.4000  -29.0170   23.4560 O   0  0  0  0  0  0  0  0  0  0  0  0
  -20.9090  -29.9760   21.7960 H   0  0  0  0  0  0  0  0  0  0  0  0
  -18.0430  -28.1460   22.9230 C   0  0  0  0  0  0  0  0  0  0  0  0
  -20.5900  -28.4660   23.2400 C   0  0  0  0  0  3  0  0  0  0  0  0
  -20.7350  -27.0360   22.6650 C   0  0  0  0  0  2  0  0  0  0  0  0
  -19.6600  -26.6910   21.6300 C   0  0  0  0  0  2  0  0  0  0  0  0
  -18.2640  -26.8020   22.2480 C   0  0  0  0  0  2  0  0  0  0  0  0
  -19.1360  -28.9340   23.3720 C   0  0  0  0  0  0  0  0  0  0  0  0
  -18.8760  -30.1920   23.9580 C   0  0  0  0  0  3  0  0  0  0  0  0
  -17.5560  -30.6610   24.1010 C   0  0  0  0  0  3  0  0  0  0  0  0
  -16.4770  -29.8700   23.6670 C   0  0  0  0  0  3  0  0  0  0  0  0
  -16.7230  -28.6140   23.0840 C   0  0  0  0  0  3  0  0  0  0  0  0
  -25.8530  -32.6790   23.9670 C   0  0  0  0  0  3  0  0  0  0  0  0
  -25.5580  -34.0870   24.2690 N   0  0  0  0  0  0  0  0  0  0  0  0
  -25.8950  -35.1200   23.4860 C   0  0  0  0  0  0  0  0  0  0  0  0
  -26.5600  -34.9880   22.4540 O   0  0  0  0  0  0  0  0  0  0  0  0
  -24.9710  -34.2650   25.0700 H   0  0  0  0  0  0  0  0  0  0  0  0
  -24.1730  -36.9140   23.1060 C   0  0  0  0  0  1  0  0  0  0  0  0
  -25.4210  -36.5220   23.9140 C   0  0  0  0  0  3  0  0  0  0  0  0
  -27.5670  -37.4170   24.7020 C   0  0  0  0  0  1  0  0  0  0  0  0
  -26.4570  -37.5650   23.7640 N   0  0  0  0  0  0  0  0  0  0  0  0
  -26.0570  -38.4920   23.8900 H   0  0  0  0  0  0  0  0  0  0  0  0
  -26.3450  -31.9260   25.2640 C   0  0  1  0  0  0  0  0  0  0  0  0
  -25.2310  -31.6990   26.3140 C   0  0  0  0  0  1  0  0  0  0  0  0
  -26.9360  -30.5440   24.9020 C   0  0  0  0  0  1  0  0  0  0  0  0
  -27.4810  -32.7300   25.9360 C   0  0  0  0  0  1  0  0  0  0  0  0
  1  3  1  0
  1  4  1  0
  1 51  1  0
  2  3  1  0
  5  4  2  0
  6  5  1  0
  6 50  1  0
  7 13  1  0
  7 15  1  0
  8 13  1  0
  9 10  1  0
  9  8  1  0
 11 10  1  0
 11 20  1  0
 11 12  1  0
 13 12  1  0
 14  7  2  0
 15  6  1  0
 15 16  1  0
 17 18  2  0
 18 37  1  0
 19 22  1  0
 19 18  1  0
 20 21  1  0
 20 17  1  0
 21 19  2  0
 22 23  1  0
 23 24  2  0
 25 28  1  0
 25 24  1  0
 26 25  2  0
 27 26  1  0
 27 22  2  0
 28 29  1  0
 29 30  1  0
 30 31  2  0
 32 31  1  0
 32 36  1  0
 33 32  2  0
 34 29  2  0
 34 33  1  0
 35 34  1  0
 37 38  1  0
 38 40  1  0
 38 41  1  0
 39 37  2  0
 42 17  1  0
 42 43  1  0
 44 42  1  0
 46 45  1  0
 47 45  1  0
 48 46  1  0
 49 47  1  0
 50 49  1  0
 50 48  1  0
 53 52  1  0
 53 51  1  0
 53 54  1  0
 55 57  1  0
 55 54  1  0
 56 67  2  0
 57 62  1  0
 58 66  1  0
 58 68  1  0
 59 65  1  0
 59 61  1  0
 60 66  1  0
 61 60  1  0
 62 61  2  0
 63 64  1  0
 63 57  2  0
 64 59  2  0
 65 58  1  0
 66 56  1  0
 68 70  2  0
 69 68  1  0
 71 69  1  0
 72 81  2  0
 72 77  1  0
 73 69  1  0
 73 77  1  0
 74 73  1  0
 75 76  1  0
 75 74  1  0
 76 72  1  0
 77 78  2  0
 78 79  1  0
 80 79  2  0
 81 80  1  0
 82 56  1  0
 82 83  1  0
 82 92  1  0
 83 86  1  0
 84 88  1  0
 84 83  1  0
 85 84  2  0
 88 87  1  0
 90 91  1  0
 90 88  1  0
 90 89  1  0
 92 95  1  1
 92 93  1  0
 94 92  1  0
M  ISO  4   7 100  15 100  54 101  55 101
M  END
>  <TORSDO>  (90) 
F 24

>  <SCORE>  (90) 
-3.413

>  <name>  (90) 
89

>  <ligand_id>  (90) 
89

>  <original_smiles>  (90) 
[H]c1c([H])c([H])c2c(c1[H])C([H])([H])C([H])([H])C([H])([H])C2([H])N([H])C(=O)C1([H])N(C(=O)C([H])(N([H])C(=O)C([H])(N([H])C([H])([H])[H])C([H])([H])[H])C(C([H])([H])[H])(C([H])([H])[H])C([H])([H])[H])C([H])([H])c2c([H])c(OC([H])([H])C([H])(C([H])([H])[H])C([H])([H])C([H])(C([H])([H])C([H])([H])[H])C([H])([H])C([H])([H])C([H])(N([H])C(=O)N3C([H])([H])C([H])([H])C([H])([H])C([H])(n4nc(-c5c([H])c([H])c(Oc6c([H])c([H])c(F)c([H])c6F)c([H])c5[H])c(C(=O)N([H])[H])c4N([H])[H])C3([H])[H])C3([H])C([H])([H])C([H])([H])C([H])([H])C([H])([H])C3([H])[H])c([H])c([H])c2C1([H])[H]

>  <smiles>  (90) 
[H]c1c([H])c([H])c2c(c1[H])C([H])([H])C([H])([H])C([H])([H])C2([H])N([H])C(=O)C1([H])N(C(=O)C([H])(N([H])C(=O)C([H])(N([H])C([H])([H])[H])C([H])([H])[H])C(C([H])([H])[H])(C([H])([H])[H])C([H])([H])[H])C([H])([H])c2c([H])c(OC([H])([H])C([H])(C([H])([H])[H])C([H])([H])C([H])(C([H])([H])C([H])([H])[H])C([H])([H])C([H])([H])C([H])(N([H])C(=O)N3C([H])([H])C([H])([H])C([H])([H])C([H])(n4nc(-c5c([H])c([H])c(Oc6c([H])c([H])c(F)c([H])c6F)c([H])c5[H])c(C(=O)N([H])[H])c4N([H])[H])C3([H])[H])C3([H])C([H])([H])C([H])([H])C([H])([H])C([H])([H])C3([H])[H])c([H])c([H])c2C1([H])[H]

$$$$
90:0:0
     RDKit          3D

 92 99  0  0  1  0  0  0  0  0999 V2000
  -30.0650  -21.2250   19.9700 C   0  0  0  0  0  2  0  0  0  0  0  0
  -29.3320  -22.4530   19.4100 N   0  0  0  0  0  4  0  0  0  0  0  0
  -28.3570  -22.2040   19.3680 H   0  0  0  0  0  0  0  0  0  0  0  0
  -29.6310  -22.5800   18.4550 H   0  0  0  0  0  0  0  0  0  0  0  0
  -29.4580  -23.8190   20.1130 C   0  0  0  0  0  3  0  0  0  0  0  0
  -28.3020  -24.9120   19.8530 C   0  0  0  0  0  3  0  0  0  0  0  0
  -28.4800  -26.3560   20.2070 O   0  0  0  0  0  0  0  0  0  0  0  0
  -24.6490  -31.6960   23.2890 C   0  0  0  0  0  0  0  0  0  0  0  0
  -27.3570  -27.2150   20.1650 C   0  0  0  0  0  0  0  0  0  0  0  0
  -23.4910  -30.3400   21.5830 C   0  0  0  0  0  3  0  0  0  0  0  0
  -24.9810  -28.8320   20.1520 C   0  0  0  0  0  0  0  0  0  0  0  0
  -26.0360  -30.6650   21.4700 C   0  0  0  0  0  2  0  0  0  0  0  0
  -26.1370  -29.3050   20.7870 C   0  0  0  0  0  0  0  0  0  0  0  0
  -27.3260  -28.5070   20.7860 C   0  0  0  0  0  3  0  0  0  0  0  0
  -26.1710  -26.8030   19.5110 C   0  0  0  0  0  3  0  0  0  0  0  0
  -25.0020  -27.5880   19.5070 C   0  0  0  0  0  3  0  0  0  0  0  0
  -23.7420  -29.7050   20.1900 C   0  0  0  0  0  2  0  0  0  0  0  0
  -24.7440  -30.9180   22.1700 N   0  0  0  0  0  0  0  0  0  0  0  0
  -23.5510  -31.9530   23.8060 O   0  0  0  0  0  0  0  0  0  0  0  0
  -22.8090  -29.2970   22.5010 C   0  0  0  0  0  0  0  0  0  0  0  0
  -21.4950  -29.0900   22.3150 N   0  0  0  0  0  0  0  0  0  0  0  0
  -23.4670  -28.6710   23.3360 O   0  0  0  0  0  0  0  0  0  0  0  0
  -21.0260  -29.6490   21.6170 H   0  0  0  0  0  0  0  0  0  0  0  0
  -18.1250  -27.8150   22.6520 C   0  0  0  0  0  0  0  0  0  0  0  0
  -20.6630  -28.1230   23.0350 C   0  0  0  0  0  3  0  0  0  0  0  0
  -20.8210  -26.7040   22.4400 C   0  0  0  0  0  2  0  0  0  0  0  0
  -19.7700  -26.3750   21.3760 C   0  0  0  0  0  2  0  0  0  0  0  0
  -18.3590  -26.4820   21.9620 C   0  0  0  0  0  2  0  0  0  0  0  0
  -19.2080  -28.5930   23.1400 C   0  0  0  0  0  0  0  0  0  0  0  0
  -18.9380  -29.8420   23.7400 C   0  0  0  0  0  3  0  0  0  0  0  0
  -17.6160  -30.3120   23.8600 C   0  0  0  0  0  3  0  0  0  0  0  0
  -16.5490  -29.5330   23.3850 C   0  0  0  0  0  3  0  0  0  0  0  0
  -16.8030  -28.2850   22.7870 C   0  0  0  0  0  3  0  0  0  0  0  0
  -25.9120  -32.3150   23.9630 C   0  0  0  0  0  3  0  0  0  0  0  0
  -26.3590  -31.5480   25.2690 C   0  0  1  0  0  0  0  0  0  0  0  0
  -25.2150  -31.3380   26.2870 C   0  0  0  0  0  1  0  0  0  0  0  0
  -26.9410  -30.1610   24.9180 C   0  0  0  0  0  1  0  0  0  0  0  0
  -27.4870  -32.3360   25.9780 C   0  0  0  0  0  1  0  0  0  0  0  0
  -25.6090  -33.7200   24.2670 N   0  0  0  0  0  0  0  0  0  0  0  0
  -25.9770  -34.7630   23.5100 C   0  0  0  0  0  0  0  0  0  0  0  0
  -26.6820  -34.6400   22.5020 O   0  0  0  0  0  0  0  0  0  0  0  0
  -24.9910  -33.8900   25.0490 H   0  0  0  0  0  0  0  0  0  0  0  0
  -24.2840  -36.5710   23.0830 C   0  0  0  0  0  1  0  0  0  0  0  0
  -25.4940  -36.1610   23.9370 C   0  0  0  0  0  3  0  0  0  0  0  0
  -27.6110  -37.0310   24.8280 C   0  0  0  0  0  1  0  0  0  0  0  0
  -26.5430  -37.2020   23.8460 N   0  0  0  0  0  0  0  0  0  0  0  0
  -26.1420  -38.1270   23.9700 H   0  0  0  0  0  0  0  0  0  0  0  0
  -30.2550  -19.9450   19.0030 C   0  0  0  0  0  2  0  0  0  0  0  0
  -30.4520  -18.4460   19.6010 C   0  0  0  0  0  2  0  0  0  0  0  0
  -29.3380  -17.2810   19.7990 C   0  0  0  0  0  3  0  0  0  0  0  0
  -30.4310  -14.8840   19.9440 C   0  0  0  0  0  0  0  0  0  0  0  0
  -30.4820  -12.4230   19.5910 C   0  0  0  0  0  2  0  0  0  0  0  0
  -29.6120  -12.0830   18.3640 C   0  0  0  0  0  2  0  0  0  0  0  0
  -28.1340  -11.8960   18.7680 C   0  0  0  0  0  2  0  0  0  0  0  0
  -27.6050  -13.0280   19.6900 C   0  0  0  0  0  3  0  0  0  0  0  0
  -28.6080  -13.3610   20.8170 C   0  0  0  0  0  2  0  0  0  0  0  0
  -29.9040  -13.6430   20.1780 N   0  0  0  0  0  0  0  0  0  0  0  0
  -31.6420  -15.0700   19.9000 O   0  0  0  0  0  0  0  0  0  0  0  0
  -29.5690  -15.8260   19.4270 N   0  0  0  0  0  0  0  0  0  0  0  0
  -28.7250  -15.3930   19.0910 H   0  0  0  0  0  0  0  0  0  0  0  0
  -25.2080  -13.6210   20.4050 C   0  0  0  0  0  0  0  0  0  0  0  0
  -24.1410  -12.8620   20.7820 C   0  0  0  0  0  0  0  0  0  0  0  0
  -24.6110  -11.5120   20.7890 C   0  0  0  0  0  0  0  0  0  0  0  0
  -26.2630  -12.7450   20.1940 N   0  0  0  0  0  0  0  0  0  0  0  0
  -25.9050  -11.4700   20.4910 N   0  0  0  0  0  0  0  0  0  0  0  0
  -23.8830  -10.2570   21.0010 C   0  0  0  0  0  0  0  0  0  0  0  0
  -24.3220   -9.3040   21.9460 C   0  0  0  0  0  3  0  0  0  0  0  0
  -23.5960   -8.1080   22.1470 C   0  0  0  0  0  3  0  0  0  0  0  0
  -22.4180   -7.8630   21.4030 C   0  0  0  0  0  0  0  0  0  0  0  0
  -21.9970   -8.8040   20.4470 C   0  0  0  0  0  3  0  0  0  0  0  0
  -22.7240   -9.9890   20.2440 C   0  0  0  0  0  3  0  0  0  0  0  0
  -21.6590   -6.7230   21.5130 O   0  0  0  0  0  0  0  0  0  0  0  0
  -21.5970   -6.0160   22.6850 C   0  0  0  0  0  0  0  0  0  0  0  0
  -21.1710   -6.6110   23.8930 C   0  0  0  0  0  3  0  0  0  0  0  0
  -21.0500   -5.8300   25.0590 C   0  0  0  0  0  3  0  0  0  0  0  0
  -21.3500   -4.4540   25.0190 C   0  0  0  0  0  0  0  0  0  0  0  0
  -21.7720   -3.8590   23.8180 C   0  0  0  0  0  3  0  0  0  0  0  0
  -21.8940   -4.6390   22.6540 C   0  0  0  0  0  0  0  0  0  0  0  0
  -22.2790   -4.0580   21.4930 F   0  0  0  0  0  0  0  0  0  0  0  0
  -21.2290   -3.6990   26.1380 F   0  0  0  0  0  0  0  0  0  0  0  0
  -22.7430  -13.3490   21.0260 C   0  0  0  0  0  0  0  0  0  0  0  0
  -22.0070  -12.6840   21.9130 N   0  0  0  0  0  0  0  0  0  0  0  0
  -22.3090  -14.3560   20.4670 O   0  0  0  0  0  0  0  0  0  0  0  0
  -22.3780  -11.8740   22.3880 H   0  0  0  0  0  0  0  0  0  0  0  0
  -21.0660  -12.9890   22.1140 H   0  0  0  0  0  0  0  0  0  0  0  0
  -25.3590  -14.9810   20.2070 N   0  0  0  0  0  0  0  0  0  0  0  0
  -24.6010  -15.6320   20.3710 H   0  0  0  0  0  0  0  0  0  0  0  0
  -26.2270  -15.4400   19.9760 H   0  0  0  0  0  0  0  0  0  0  0  0
  -27.7380  -17.5380   17.7590 C   0  0  0  0  0  1  0  0  0  0  0  0
  -27.9080  -17.6120   19.2880 C   0  0  0  0  0  3  0  0  0  0  0  0
  -25.9580  -19.2690   19.3020 C   0  0  0  0  0  1  0  0  0  0  0  0
  -27.3490  -18.9240   19.8630 C   0  0  0  0  0  2  0  0  0  0  0  0
  2  1  1  0
  2  5  1  0
  3  2  1  0
  4  2  1  0
  6  5  2  0
  6  7  1  0
  8 19  2  0
  9  7  1  0
  9 14  1  0
 10 18  1  0
 10 20  1  0
 11 17  1  0
 11 13  1  0
 12 18  1  0
 13 12  1  0
 14 13  2  0
 15  9  2  0
 16 15  1  0
 16 11  2  0
 17 10  1  0
 18  8  1  0
 20 22  2  0
 21 20  1  0
 23 21  1  0
 24 33  2  0
 24 29  1  0
 25 21  1  0
 25 29  1  0
 26 25  1  0
 27 28  1  0
 27 26  1  0
 28 24  1  0
 29 30  2  0
 30 31  1  0
 32 31  2  0
 33 32  1  0
 34  8  1  0
 34 39  1  0
 34 35  1  0
 35 38  1  1
 35 36  1  0
 37 35  1  0
 39 42  1  0
 40 44  1  0
 40 39  1  0
 41 40  2  0
 44 43  1  0
 46 44  1  0
 46 47  1  0
 46 45  1  0
 48 49  1  0
 48  1  1  0
 50 49  1  0
 51 57  1  0
 52 57  1  0
 53 54  1  0
 53 52  1  0
 55 54  1  0
 55 64  1  0
 55 56  1  0
 57 56  1  0
 58 51  2  0
 59 50  1  0
 59 51  1  0
 60 59  1  0
 61 62  2  0
 62 63  1  0
 62 81  1  0
 63 66  1  0
 64 61  1  0
 64 65  1  0
 65 63  2  0
 66 67  1  0
 67 68  2  0
 69 72  1  0
 69 68  1  0
 70 69  2  0
 71 70  1  0
 71 66  2  0
 72 73  1  0
 73 74  1  0
 74 75  2  0
 76 75  1  0
 76 80  1  0
 77 76  2  0
 78 73  2  0
 78 77  1  0
 79 78  1  0
 81 82  1  0
 82 85  1  0
 82 84  1  0
 83 81  2  0
 86 87  1  0
 86 61  1  0
 88 86  1  0
 90 89  1  0
 90 50  1  0
 90 92  1  0
 91 92  1  0
M  ISO  4   6 101   7 101  51 100  59 100
M  END
>  <TORSDO>  (91) 
F 24

>  <SCORE>  (91) 
-10.948

>  <name>  (91) 
90

>  <ligand_id>  (91) 
90

>  <original_smiles>  (91) 
[H]c1c([H])c([H])c2c(c1[H])C([H])([H])C([H])([H])C([H])([H])C2([H])N([H])C(=O)C1([H])N(C(=O)C([H])(N([H])C(=O)C([H])(N([H])C([H])([H])[H])C([H])([H])[H])C(C([H])([H])[H])(C([H])([H])[H])C([H])([H])[H])C([H])([H])c2c([H])c(OC([H])([H])C([H])([H])[N+]([H])([H])C([H])([H])C([H])([H])C([H])([H])C([H])(N([H])C(=O)N3C([H])([H])C([H])([H])C([H])([H])C([H])(n4nc(-c5c([H])c([H])c(Oc6c([H])c([H])c(F)c([H])c6F)c([H])c5[H])c(C(=O)N([H])[H])c4N([H])[H])C3([H])[H])C([H])(C([H])([H])[H])C([H])([H])C([H])([H])[H])c([H])c([H])c2C1([H])[H]

>  <smiles>  (91) 
[H]c1c([H])c([H])c2c(c1[H])C([H])([H])C([H])([H])C([H])([H])C2([H])N([H])C(=O)C1([H])N(C(=O)C([H])(N([H])C(=O)C([H])(N([H])C([H])([H])[H])C([H])([H])[H])C(C([H])([H])[H])(C([H])([H])[H])C([H])([H])[H])C([H])([H])c2c([H])c(OC([H])([H])C([H])([H])[N+]([H])([H])C([H])([H])C([H])([H])C([H])([H])C([H])(N([H])C(=O)N3C([H])([H])C([H])([H])C([H])([H])C([H])(n4nc(-c5c([H])c([H])c(Oc6c([H])c([H])c(F)c([H])c6F)c([H])c5[H])c(C(=O)N([H])[H])c4N([H])[H])C3([H])[H])C([H])(C([H])([H])[H])C([H])([H])C([H])([H])[H])c([H])c([H])c2C1([H])[H]

$$$$
91:0:0
     RDKit          3D

 94102  0  0  1  0  0  0  0  0999 V2000
  -30.3100  -20.0880   21.2050 C   0  0  0  0  0  3  0  0  0  0  0  0
  -30.9160  -18.8620   20.4820 N   0  0  0  0  0  4  0  0  0  0  0  0
  -31.5330  -18.4380   21.1550 H   0  0  0  0  0  0  0  0  0  0  0  0
  -31.5050  -19.1930   19.7340 H   0  0  0  0  0  0  0  0  0  0  0  0
  -29.9820  -17.7480   19.9860 C   0  0  0  0  0  3  0  0  0  0  0  0
  -27.2520  -19.1420   16.6530 C   0  0  0  0  0  2  0  0  0  0  0  0
  -28.7740  -19.3330   16.5210 C   0  0  0  0  0  2  0  0  0  0  0  0
  -26.7730  -19.0480   18.1130 C   0  0  0  0  0  2  0  0  0  0  0  0
  -29.6080  -18.4010   17.4200 C   0  0  0  0  0  2  0  0  0  0  0  0
  -27.5970  -18.0620   18.9580 C   0  0  0  0  0  2  0  0  0  0  0  0
  -29.0860  -18.4270   18.8780 C   0  0  0  0  0  3  0  0  0  0  0  0
  -30.5490  -16.3170   19.3960 C   0  0  0  0  0  2  0  0  0  0  0  0
  -31.4050  -15.0870   20.0020 C   0  0  0  0  0  0  0  0  0  0  0  0
  -31.2640  -12.6190   19.6130 C   0  0  0  0  0  2  0  0  0  0  0  0
  -30.3830  -12.3770   18.3630 C   0  0  0  0  0  2  0  0  0  0  0  0
  -28.8920  -12.2780   18.7430 C   0  0  0  0  0  2  0  0  0  0  0  0
  -28.4500  -13.4420   19.6610 C   0  0  0  0  0  3  0  0  0  0  0  0
  -29.4530  -13.6760   20.8130 C   0  0  0  0  0  2  0  0  0  0  0  0
  -30.7940  -13.8720   20.2460 N   0  0  0  0  0  0  0  0  0  0  0  0
  -32.6260  -15.1240   19.8420 O   0  0  0  0  0  0  0  0  0  0  0  0
  -26.1450  -14.2710   20.4170 C   0  0  0  0  0  0  0  0  0  0  0  0
  -24.9930  -13.6170   20.7530 C   0  0  0  0  0  0  0  0  0  0  0  0
  -25.3050  -12.2290   20.6850 C   0  0  0  0  0  0  0  0  0  0  0  0
  -27.0830  -13.2900   20.1500 N   0  0  0  0  0  0  0  0  0  0  0  0
  -26.5840  -12.0510   20.3780 N   0  0  0  0  0  0  0  0  0  0  0  0
  -24.4450  -11.0510   20.8450 C   0  0  0  0  0  0  0  0  0  0  0  0
  -24.8040   -9.9870   21.6980 C   0  0  0  0  0  3  0  0  0  0  0  0
  -23.9500   -8.8720   21.8450 C   0  0  0  0  0  3  0  0  0  0  0  0
  -22.7250   -8.8180   21.1380 C   0  0  0  0  0  0  0  0  0  0  0  0
  -22.3840   -9.8760   20.2760 C   0  0  0  0  0  3  0  0  0  0  0  0
  -23.2370  -10.9810   20.1270 C   0  0  0  0  0  3  0  0  0  0  0  0
  -21.8420   -7.7660   21.2010 O   0  0  0  0  0  0  0  0  0  0  0  0
  -21.7900   -6.9360   22.2900 C   0  0  0  0  0  0  0  0  0  0  0  0
  -21.5330   -7.4270   23.5880 C   0  0  0  0  0  3  0  0  0  0  0  0
  -21.4120   -6.5320   24.6670 C   0  0  0  0  0  3  0  0  0  0  0  0
  -21.5460   -5.1460   24.4530 C   0  0  0  0  0  0  0  0  0  0  0  0
  -21.8000   -4.6550   23.1600 C   0  0  0  0  0  3  0  0  0  0  0  0
  -21.9170   -5.5480   22.0800 C   0  0  0  0  0  0  0  0  0  0  0  0
  -22.1400   -5.0690   20.8330 F   0  0  0  0  0  0  0  0  0  0  0  0
  -21.4250   -4.2830   25.4900 F   0  0  0  0  0  0  0  0  0  0  0  0
  -23.6600  -14.2510   21.0270 C   0  0  0  0  0  0  0  0  0  0  0  0
  -22.8620  -13.6350   21.8940 N   0  0  0  0  0  0  0  0  0  0  0  0
  -23.3360  -15.3170   20.5090 O   0  0  0  0  0  0  0  0  0  0  0  0
  -23.1340  -12.7640   22.3260 H   0  0  0  0  0  0  0  0  0  0  0  0
  -21.9660  -14.0440   22.1180 H   0  0  0  0  0  0  0  0  0  0  0  0
  -26.4720  -15.6050   20.2950 N   0  0  0  0  0  0  0  0  0  0  0  0
  -25.8240  -16.3520   20.5100 H   0  0  0  0  0  0  0  0  0  0  0  0
  -27.4130  -15.9320   20.1220 H   0  0  0  0  0  0  0  0  0  0  0  0
  -30.0590  -21.4630   20.3820 C   0  0  0  0  0  3  0  0  0  0  0  0
  -29.4280  -22.6440   21.0860 N   0  0  0  0  0  0  0  0  0  0  0  0
  -28.5130  -22.3840   21.4530 H   0  0  0  0  0  0  0  0  0  0  0  0
  -29.3100  -23.9420   20.3210 C   0  0  0  0  0  3  0  0  0  0  0  0
  -28.4500  -25.1600   20.9220 C   0  0  0  0  0  3  0  0  0  0  0  0
  -28.5470  -26.5080   20.3060 O   0  0  0  0  0  0  0  0  0  0  0  0
  -24.6170  -31.8270   23.1910 C   0  0  0  0  0  0  0  0  0  0  0  0
  -27.4020  -27.3150   20.2550 C   0  0  0  0  0  0  0  0  0  0  0  0
  -23.4830  -30.4180   21.5010 C   0  0  0  0  0  3  0  0  0  0  0  0
  -25.0120  -28.8830   20.1350 C   0  0  0  0  0  0  0  0  0  0  0  0
  -26.0200  -30.7750   21.4040 C   0  0  0  0  0  2  0  0  0  0  0  0
  -26.1470  -29.3940   20.7710 C   0  0  0  0  0  0  0  0  0  0  0  0
  -27.3470  -28.6260   20.8130 C   0  0  0  0  0  3  0  0  0  0  0  0
  -26.2460  -26.8420   19.5980 C   0  0  0  0  0  3  0  0  0  0  0  0
  -25.0640  -27.6120   19.5280 C   0  0  0  0  0  3  0  0  0  0  0  0
  -23.7610  -29.7390   20.1310 C   0  0  0  0  0  2  0  0  0  0  0  0
  -24.7230  -31.0230   22.0920 N   0  0  0  0  0  0  0  0  0  0  0  0
  -23.5140  -32.0890   23.6910 O   0  0  0  0  0  0  0  0  0  0  0  0
  -22.7930  -29.4000   22.4370 C   0  0  0  0  0  0  0  0  0  0  0  0
  -21.4750  -29.2080   22.2620 N   0  0  0  0  0  0  0  0  0  0  0  0
  -23.4500  -28.7810   23.2820 O   0  0  0  0  0  0  0  0  0  0  0  0
  -21.0180  -29.7400   21.5330 H   0  0  0  0  0  0  0  0  0  0  0  0
  -18.0900  -27.9830   22.6570 C   0  0  0  0  0  0  0  0  0  0  0  0
  -20.6390  -28.2660   23.0110 C   0  0  0  0  0  3  0  0  0  0  0  0
  -20.7780  -26.8400   22.4380 C   0  0  0  0  0  2  0  0  0  0  0  0
  -19.7190  -26.5190   21.3830 C   0  0  0  0  0  2  0  0  0  0  0  0
  -18.3140  -26.6430   21.9720 C   0  0  0  0  0  2  0  0  0  0  0  0
  -19.1870  -28.7520   23.1340 C   0  0  0  0  0  0  0  0  0  0  0  0
  -18.9370  -30.0000   23.7420 C   0  0  0  0  0  3  0  0  0  0  0  0
  -17.6190  -30.4780   23.8860 C   0  0  0  0  0  3  0  0  0  0  0  0
  -16.5380  -29.7150   23.4080 C   0  0  0  0  0  3  0  0  0  0  0  0
  -16.7700  -28.4680   22.8040 C   0  0  0  0  0  3  0  0  0  0  0  0
  -25.8730  -32.4700   23.8580 C   0  0  0  0  0  3  0  0  0  0  0  0
  -25.5470  -33.8680   24.1690 N   0  0  0  0  0  0  0  0  0  0  0  0
  -25.9030  -34.9180   23.4190 C   0  0  0  0  0  0  0  0  0  0  0  0
  -26.6130  -34.8150   22.4170 O   0  0  0  0  0  0  0  0  0  0  0  0
  -24.9150  -34.0210   24.9390 H   0  0  0  0  0  0  0  0  0  0  0  0
  -24.1830  -36.7000   22.9950 C   0  0  0  0  0  1  0  0  0  0  0  0
  -25.3960  -36.3060   23.8500 C   0  0  0  0  0  3  0  0  0  0  0  0
  -27.4960  -37.2060   24.7530 C   0  0  0  0  0  1  0  0  0  0  0  0
  -26.4280  -37.3620   23.7680 N   0  0  0  0  0  0  0  0  0  0  0  0
  -26.0110  -38.2810   23.8990 H   0  0  0  0  0  0  0  0  0  0  0  0
  -26.3480  -31.7070   25.1560 C   0  0  1  0  0  0  0  0  0  0  0  0
  -25.2170  -31.4770   26.1830 C   0  0  0  0  0  1  0  0  0  0  0  0
  -26.9470  -30.3300   24.7910 C   0  0  0  0  0  1  0  0  0  0  0  0
  -27.4720  -32.5090   25.8530 C   0  0  0  0  0  1  0  0  0  0  0  0
  2  3  1  0
  2  1  1  0
  4  2  1  0
  5 12  1  0
  5  2  1  0
  6  8  1  0
  7  6  1  0
  7  9  1  0
  8 10  1  0
  9 11  1  0
 11 10  1  0
 11  5  1  0
 12 13  1  0
 13 19  1  0
 14 19  1  0
 15 16  1  0
 15 14  1  0
 17 16  1  0
 17 24  1  0
 17 18  1  0
 19 18  1  0
 20 13  2  0
 21 22  2  0
 22 41  1  0
 23 22  1  0
 23 26  1  0
 24 25  1  0
 24 21  1  0
 25 23  2  0
 26 27  1  0
 27 28  2  0
 29 32  1  0
 29 28  1  0
 30 29  2  0
 31 30  1  0
 31 26  2  0
 32 33  1  0
 33 34  1  0
 34 35  2  0
 36 35  1  0
 36 40  1  0
 37 36  2  0
 38 33  2  0
 38 37  1  0
 39 38  1  0
 41 42  1  0
 42 45  1  0
 42 44  1  0
 43 41  2  0
 46 21  1  0
 46 47  1  0
 48 46  1  0
 49 50  1  0
 49  1  2  0
 50 51  1  0
 52 53  2  0
 52 50  1  0
 54 53  1  0
 55 66  2  0
 56 54  1  0
 56 61  1  0
 57 65  1  0
 57 67  1  0
 58 60  1  0
 59 65  1  0
 60 61  2  0
 60 59  1  0
 62 56  2  0
 63 62  1  0
 63 58  2  0
 64 58  1  0
 64 57  1  0
 65 55  1  0
 67 69  2  0
 68 67  1  0
 70 68  1  0
 71 80  2  0
 71 76  1  0
 72 68  1  0
 72 76  1  0
 73 72  1  0
 74 75  1  0
 74 73  1  0
 75 71  1  0
 76 77  2  0
 77 78  1  0
 79 78  2  0
 80 79  1  0
 81 55  1  0
 81 82  1  0
 81 91  1  0
 82 85  1  0
 83 87  1  0
 83 82  1  0
 84 83  2  0
 87 86  1  0
 89 87  1  0
 89 90  1  0
 89 88  1  0
 91 94  1  1
 91 92  1  0
 93 91  1  0
M  ISO  4  12 100  13 100  53 101  54 101
M  END
>  <TORSDO>  (92) 
F 24

>  <SCORE>  (92) 
-11.378

>  <name>  (92) 
91

>  <ligand_id>  (92) 
91

>  <original_smiles>  (92) 
[H]c1c([H])c([H])c2c(c1[H])C([H])([H])C([H])([H])C([H])([H])C2([H])N([H])C(=O)C1([H])N(C(=O)C([H])(N([H])C(=O)C([H])(N([H])C([H])([H])[H])C([H])([H])[H])C(C([H])([H])[H])(C([H])([H])[H])C([H])([H])[H])C([H])([H])c2c([H])c(OC([H])([H])C([H])([H])N([H])C([H])([H])C([H])([H])[N+]([H])([H])C([H])(C([H])([H])C(=O)N3C([H])([H])C([H])([H])C([H])([H])C([H])(n4nc(-c5c([H])c([H])c(Oc6c([H])c([H])c(F)c([H])c6F)c([H])c5[H])c(C(=O)N([H])[H])c4N([H])[H])C3([H])[H])C3([H])C([H])([H])C([H])([H])C([H])([H])C([H])([H])C3([H])[H])c([H])c([H])c2C1([H])[H]

>  <smiles>  (92) 
[H]c1c([H])c([H])c2c(c1[H])C([H])([H])C([H])([H])C([H])([H])C2([H])N([H])C(=O)C1([H])N(C(=O)C([H])(N([H])C(=O)C([H])(N([H])C([H])([H])[H])C([H])([H])[H])C(C([H])([H])[H])(C([H])([H])[H])C([H])([H])[H])C([H])([H])c2c([H])c(OC([H])([H])C([H])([H])N([H])C([H])([H])C([H])([H])[N+]([H])([H])C([H])(C([H])([H])C(=O)N3C([H])([H])C([H])([H])C([H])([H])C([H])(n4nc(-c5c([H])c([H])c(Oc6c([H])c([H])c(F)c([H])c6F)c([H])c5[H])c(C(=O)N([H])[H])c4N([H])[H])C3([H])[H])C3([H])C([H])([H])C([H])([H])C([H])([H])C([H])([H])C3([H])[H])c([H])c([H])c2C1([H])[H]

$$$$
92:0:0
     RDKit          3D

100108  0  0  1  0  0  0  0  0999 V2000
  -28.7680  -21.2120   20.0840 C   0  0  0  0  0  0  0  0  0  0  0  0
  -27.5940  -20.9620   19.8010 O   0  0  0  0  0  0  0  0  0  0  0  0
  -29.1200  -22.9240   20.2310 C   0  0  0  0  0  3  0  0  0  0  0  0
  -30.4080  -23.1990   19.4150 C   0  0  0  0  0  2  0  0  0  0  0  0
  -30.8680  -20.4070   16.1160 C   0  0  0  0  0  3  0  0  0  0  0  0
  -31.7470  -20.3540   17.2160 C   0  0  0  0  0  3  0  0  0  0  0  0
  -29.8720  -21.4010   16.0600 C   0  0  0  0  0  3  0  0  0  0  0  0
  -31.6200  -21.2860   18.2640 C   0  0  0  0  0  3  0  0  0  0  0  0
  -29.7420  -22.3330   17.1070 C   0  0  0  0  0  3  0  0  0  0  0  0
  -30.6060  -22.2680   18.2230 C   0  0  0  0  0  0  0  0  0  0  0  0
  -28.0890  -24.3740   20.0090 C   0  0  0  0  0  2  0  0  0  0  0  0
  -28.3540  -25.9950   20.0830 O   0  0  0  0  0  0  0  0  0  0  0  0
  -24.7730  -31.8130   23.2460 C   0  0  0  0  0  0  0  0  0  0  0  0
  -27.3350  -27.0770   20.0630 C   0  0  0  0  0  0  0  0  0  0  0  0
  -23.5830  -30.4830   21.5550 C   0  0  0  0  0  3  0  0  0  0  0  0
  -25.0360  -28.9410   20.0760 C   0  0  0  0  0  0  0  0  0  0  0  0
  -26.1490  -30.7090   21.4210 C   0  0  0  0  0  2  0  0  0  0  0  0
  -26.2230  -29.3290   20.7110 C   0  0  0  0  0  0  0  0  0  0  0  0
  -27.3680  -28.4210   20.6770 C   0  0  0  0  0  3  0  0  0  0  0  0
  -26.1170  -26.8340   19.3900 C   0  0  0  0  0  3  0  0  0  0  0  0
  -25.0060  -27.7140   19.3980 C   0  0  0  0  0  3  0  0  0  0  0  0
  -23.8170  -29.8570   20.1540 C   0  0  0  0  0  2  0  0  0  0  0  0
  -24.8560  -31.0250   22.1280 N   0  0  0  0  0  0  0  0  0  0  0  0
  -23.6830  -32.0800   23.7750 O   0  0  0  0  0  0  0  0  0  0  0  0
  -22.8940  -29.4450   22.4790 C   0  0  0  0  0  0  0  0  0  0  0  0
  -21.5610  -29.3000   22.3600 N   0  0  0  0  0  0  0  0  0  0  0  0
  -23.5630  -28.7720   23.2670 O   0  0  0  0  0  0  0  0  0  0  0  0
  -21.0760  -29.8900   21.6970 H   0  0  0  0  0  0  0  0  0  0  0  0
  -18.1640  -28.1240   22.8640 C   0  0  0  0  0  0  0  0  0  0  0  0
  -20.7340  -28.3370   23.0950 C   0  0  0  0  0  3  0  0  0  0  0  0
  -20.8030  -26.9370   22.4430 C   0  0  0  0  0  2  0  0  0  0  0  0
  -19.6780  -26.6850   21.4350 C   0  0  0  0  0  2  0  0  0  0  0  0
  -18.3110  -26.8140   22.1100 C   0  0  0  0  0  2  0  0  0  0  0  0
  -19.3040  -28.8480   23.3120 C   0  0  0  0  0  0  0  0  0  0  0  0
  -19.1110  -30.0770   23.9800 C   0  0  0  0  0  3  0  0  0  0  0  0
  -17.8160  -30.5820   24.2060 C   0  0  0  0  0  3  0  0  0  0  0  0
  -16.6940  -29.8540   23.7740 C   0  0  0  0  0  3  0  0  0  0  0  0
  -16.8680  -28.6280   23.1070 C   0  0  0  0  0  3  0  0  0  0  0  0
  -26.0410  -32.4350   23.9050 C   0  0  0  0  0  3  0  0  0  0  0  0
  -26.5490  -31.6220   25.1600 C   0  0  1  0  0  0  0  0  0  0  0  0
  -25.4470  -31.3470   26.2130 C   0  0  0  0  0  1  0  0  0  0  0  0
  -27.1380  -30.2570   24.7340 C   0  0  0  0  0  1  0  0  0  0  0  0
  -27.6940  -32.3940   25.8560 C   0  0  0  0  0  1  0  0  0  0  0  0
  -25.7150  -33.8180   24.2990 N   0  0  0  0  0  0  0  0  0  0  0  0
  -26.0850  -34.9150   23.6240 C   0  0  0  0  0  0  0  0  0  0  0  0
  -26.7960  -34.8690   22.6170 O   0  0  0  0  0  0  0  0  0  0  0  0
  -25.0890  -33.9290   25.0810 H   0  0  0  0  0  0  0  0  0  0  0  0
  -24.3790  -36.7420   23.3130 C   0  0  0  0  0  1  0  0  0  0  0  0
  -25.5850  -36.2770   24.1460 C   0  0  0  0  0  3  0  0  0  0  0  0
  -27.6890  -37.0940   25.1130 C   0  0  0  0  0  1  0  0  0  0  0  0
  -26.6260  -37.3300   24.1420 N   0  0  0  0  0  0  0  0  0  0  0  0
  -26.2140  -38.2390   24.3390 H   0  0  0  0  0  0  0  0  0  0  0  0
  -29.7620  -19.7890   20.3040 C   0  0  0  0  0  3  0  0  0  0  0  0
  -30.1410  -19.6420   21.7940 C   0  0  0  0  0  2  0  0  0  0  0  0
  -30.5340  -20.9340   22.5420 C   0  0  0  0  0  2  0  0  0  0  0  0
  -31.2500  -20.6210   23.8680 C   0  0  0  0  0  2  0  0  0  0  0  0
  -31.6810  -21.8790   24.6490 C   0  0  0  0  0  2  0  0  0  0  0  0
  -32.4300  -21.5440   25.8720 N   0  0  0  0  0  4  0  0  0  0  0  0
  -31.8630  -21.0020   26.4980 H   0  0  0  0  0  0  0  0  0  0  0  0
  -32.7050  -22.3870   26.3420 H   0  0  0  0  0  0  0  0  0  0  0  0
  -33.2620  -21.0240   25.6590 H   0  0  0  0  0  0  0  0  0  0  0  0
  -29.5910  -18.1050   19.7130 C   0  0  0  0  0  2  0  0  0  0  0  0
  -30.4120  -15.3360   20.3260 C   0  0  0  0  0  0  0  0  0  0  0  0
  -30.4260  -12.8350   19.6650 C   0  0  0  0  0  2  0  0  0  0  0  0
  -29.5640  -12.5690   18.4060 C   0  0  0  0  0  2  0  0  0  0  0  0
  -28.0910  -12.3440   18.7860 C   0  0  0  0  0  2  0  0  0  0  0  0
  -27.5960  -13.3760   19.8320 C   0  0  0  0  0  3  0  0  0  0  0  0
  -28.5960  -13.5850   20.9950 C   0  0  0  0  0  2  0  0  0  0  0  0
  -29.8640  -14.0280   20.3980 N   0  0  0  0  0  0  0  0  0  0  0  0
  -31.6170  -15.3490   20.0370 O   0  0  0  0  0  0  0  0  0  0  0  0
  -29.6260  -16.5840   20.3950 N   0  0  0  0  0  0  0  0  0  0  0  0
  -28.7200  -16.3610   20.7830 H   0  0  0  0  0  0  0  0  0  0  0  0
  -25.2050  -13.9890   20.4890 C   0  0  0  0  0  0  0  0  0  0  0  0
  -24.1220  -13.2340   20.8440 C   0  0  0  0  0  0  0  0  0  0  0  0
  -24.5700  -11.8780   20.8610 C   0  0  0  0  0  0  0  0  0  0  0  0
  -26.2440  -13.0920   20.2990 N   0  0  0  0  0  0  0  0  0  0  0  0
  -25.8700  -11.8190   20.5920 N   0  0  0  0  0  0  0  0  0  0  0  0
  -23.8170  -10.6290   21.0540 C   0  0  0  0  0  0  0  0  0  0  0  0
  -24.2200   -9.6610   22.0000 C   0  0  0  0  0  3  0  0  0  0  0  0
  -23.4640   -8.4830   22.1870 C   0  0  0  0  0  3  0  0  0  0  0  0
  -22.2910   -8.2630   21.4230 C   0  0  0  0  0  0  0  0  0  0  0  0
  -21.9070   -9.2200   20.4660 C   0  0  0  0  0  3  0  0  0  0  0  0
  -22.6640  -10.3880   20.2780 C   0  0  0  0  0  3  0  0  0  0  0  0
  -21.5080   -7.1370   21.5180 O   0  0  0  0  0  0  0  0  0  0  0  0
  -21.4560   -6.3900   22.6670 C   0  0  0  0  0  0  0  0  0  0  0  0
  -21.0640   -6.9500   23.9040 C   0  0  0  0  0  3  0  0  0  0  0  0
  -20.9590   -6.1290   25.0460 C   0  0  0  0  0  3  0  0  0  0  0  0
  -21.2360   -4.7520   24.9520 C   0  0  0  0  0  0  0  0  0  0  0  0
  -21.6220   -4.1940   23.7210 C   0  0  0  0  0  3  0  0  0  0  0  0
  -21.7280   -5.0100   22.5810 C   0  0  0  0  0  0  0  0  0  0  0  0
  -22.0790   -4.4620   21.3920 F   0  0  0  0  0  0  0  0  0  0  0  0
  -21.1280   -3.9620   26.0450 F   0  0  0  0  0  0  0  0  0  0  0  0
  -22.7230  -13.7360   21.0510 C   0  0  0  0  0  0  0  0  0  0  0  0
  -21.9580  -13.0820   21.9170 N   0  0  0  0  0  0  0  0  0  0  0  0
  -22.3180  -14.7460   20.4770 O   0  0  0  0  0  0  0  0  0  0  0  0
  -22.3000  -12.2690   22.4060 H   0  0  0  0  0  0  0  0  0  0  0  0
  -21.0160  -13.3990   22.0930 H   0  0  0  0  0  0  0  0  0  0  0  0
  -25.3880  -15.3530   20.2850 N   0  0  0  0  0  0  0  0  0  0  0  0
  -24.6240  -16.0130   20.3770 H   0  0  0  0  0  0  0  0  0  0  0  0
  -26.2260  -15.7720   19.9040 H   0  0  0  0  0  0  0  0  0  0  0  0
  1  3  1  0
  1 53  1  0
  2  1  2  0
  3  4  1  0
  5  6  1  0
  6  8  2  0
  7  5  2  0
  7  9  1  0
  9 10  2  0
 10  8  1  0
 10  4  1  0
 11 12  1  0
 11  3  1  0
 13 24  2  0
 14 12  1  0
 14 19  1  0
 15 23  1  0
 15 25  1  0
 16 22  1  0
 16 18  1  0
 17 23  1  0
 18 17  1  0
 19 18  2  0
 20 21  1  0
 20 14  2  0
 21 16  2  0
 22 15  1  0
 23 13  1  0
 25 27  2  0
 26 25  1  0
 28 26  1  0
 29 38  2  0
 29 34  1  0
 30 26  1  0
 30 34  1  0
 31 30  1  0
 32 33  1  0
 32 31  1  0
 33 29  1  0
 34 35  2  0
 35 36  1  0
 37 36  2  0
 38 37  1  0
 39 13  1  0
 39 44  1  0
 39 40  1  0
 40 43  1  1
 40 41  1  0
 42 40  1  0
 44 47  1  0
 45 49  1  0
 45 44  1  0
 46 45  2  0
 49 48  1  0
 51 49  1  0
 51 52  1  0
 51 50  1  0
 53 62  1  0
 53 54  1  0
 54 55  1  0
 55 56  1  0
 56 57  1  0
 57 58  1  0
 58 60  1  0
 58 59  1  0
 61 58  1  0
 62 71  1  0
 63 71  1  0
 63 69  1  0
 64 69  1  0
 65 66  1  0
 65 64  1  0
 67 66  1  0
 67 76  1  0
 67 68  1  0
 69 68  1  0
 70 63  2  0
 71 72  1  0
 73 74  2  0
 74 75  1  0
 74 93  1  0
 75 78  1  0
 76 73  1  0
 76 77  1  0
 77 75  2  0
 78 79  1  0
 79 80  2  0
 81 84  1  0
 81 80  1  0
 82 81  2  0
 83 82  1  0
 83 78  2  0
 84 85  1  0
 85 86  1  0
 86 87  2  0
 88 87  1  0
 88 92  1  0
 89 88  2  0
 90 85  2  0
 90 89  1  0
 91 90  1  0
 93 94  1  0
 94 97  1  0
 94 96  1  0
 95 93  2  0
 98 99  1  0
 98 73  1  0
100 98  1  0
M  ISO  4  11 101  12 101  63 100  71 100
M  END
>  <TORSDO>  (93) 
F 27

>  <SCORE>  (93) 
-12.246

>  <name>  (93) 
92

>  <ligand_id>  (93) 
92

>  <original_smiles>  (93) 
[H]c1c([H])c([H])c(C([H])([H])C([H])(C(=O)C([H])(C([H])([H])N([H])C(=O)N2C([H])([H])C([H])([H])C([H])([H])C([H])(n3nc(-c4c([H])c([H])c(Oc5c([H])c([H])c(F)c([H])c5F)c([H])c4[H])c(C(=O)N([H])[H])c3N([H])[H])C2([H])[H])C([H])([H])C([H])([H])C([H])([H])C([H])([H])[N+]([H])([H])[H])C([H])([H])Oc2c([H])c([H])c3c(c2[H])C([H])([H])N(C(=O)C([H])(N([H])C(=O)C([H])(N([H])C([H])([H])[H])C([H])([H])[H])C(C([H])([H])[H])(C([H])([H])[H])C([H])([H])[H])C([H])(C(=O)N([H])C2([H])c4c([H])c([H])c([H])c([H])c4C([H])([H])C([H])([H])C2([H])[H])C3([H])[H])c([H])c1[H]

>  <smiles>  (93) 
[H]c1c([H])c([H])c(C([H])([H])C([H])(C(=O)C([H])(C([H])([H])N([H])C(=O)N2C([H])([H])C([H])([H])C([H])([H])C([H])(n3nc(-c4c([H])c([H])c(Oc5c([H])c([H])c(F)c([H])c5F)c([H])c4[H])c(C(=O)N([H])[H])c3N([H])[H])C2([H])[H])C([H])([H])C([H])([H])C([H])([H])C([H])([H])[N+]([H])([H])[H])C([H])([H])Oc2c([H])c([H])c3c(c2[H])C([H])([H])N(C(=O)C([H])(N([H])C(=O)C([H])(N([H])C([H])([H])[H])C([H])([H])[H])C(C([H])([H])[H])(C([H])([H])[H])C([H])([H])[H])C([H])(C(=O)N([H])C2([H])c4c([H])c([H])c([H])c([H])c4C([H])([H])C([H])([H])C2([H])[H])C3([H])[H])c([H])c1[H]

$$$$
93:0:0
     RDKit          3D

100107  0  0  1  0  0  0  0  0999 V2000
  -30.5840  -17.5080   22.4610 C   0  0  0  0  0  0  0  0  0  0  0  0
  -31.3080  -18.5620   22.8520 N   0  0  0  0  0  0  0  0  0  0  0  0
  -29.6520  -17.0420   23.1180 O   0  0  0  0  0  0  0  0  0  0  0  0
  -32.0650  -18.8470   22.2460 H   0  0  0  0  0  0  0  0  0  0  0  0
  -31.0900  -19.3640   24.0520 C   0  0  0  0  0  2  0  0  0  0  0  0
  -31.3160  -20.8610   23.7630 C   0  0  0  0  0  2  0  0  0  0  0  0
  -30.3800  -21.4260   22.6800 C   0  0  0  0  0  2  0  0  0  0  0  0
  -30.5630  -22.9340   22.4520 C   0  0  0  0  0  2  0  0  0  0  0  0
  -29.6090  -23.4810   21.3790 C   0  0  0  0  0  2  0  0  0  0  0  0
  -29.6920  -25.0060   21.2040 C   0  0  0  0  0  2  0  0  0  0  0  0
  -28.6890  -25.5210   20.1620 C   0  0  0  0  0  2  0  0  0  0  0  0
  -28.7220  -26.9470   20.1430 O   0  0  0  0  0  0  0  0  0  0  0  0
  -24.6440  -31.8510   23.2380 C   0  0  0  0  0  0  0  0  0  0  0  0
  -27.5110  -27.6010   20.1100 C   0  0  0  0  0  0  0  0  0  0  0  0
  -23.5210  -30.4420   21.5420 C   0  0  0  0  0  3  0  0  0  0  0  0
  -25.0560  -28.9980   20.1090 C   0  0  0  0  0  0  0  0  0  0  0  0
  -26.0300  -30.9090   21.3970 C   0  0  0  0  0  2  0  0  0  0  0  0
  -26.1800  -29.5590   20.7270 C   0  0  0  0  0  0  0  0  0  0  0  0
  -27.4110  -28.8690   20.7230 C   0  0  0  0  0  3  0  0  0  0  0  0
  -26.3710  -27.0530   19.4760 C   0  0  0  0  0  3  0  0  0  0  0  0
  -25.1440  -27.7440   19.4810 C   0  0  0  0  0  3  0  0  0  0  0  0
  -23.7790  -29.8040   20.1520 C   0  0  0  0  0  2  0  0  0  0  0  0
  -24.7490  -31.0810   22.1190 N   0  0  0  0  0  0  0  0  0  0  0  0
  -23.5440  -32.0720   23.7630 O   0  0  0  0  0  0  0  0  0  0  0  0
  -22.8940  -29.3740   22.4680 C   0  0  0  0  0  0  0  0  0  0  0  0
  -21.5830  -29.1350   22.3000 N   0  0  0  0  0  0  0  0  0  0  0  0
  -23.5850  -28.7670   23.2910 O   0  0  0  0  0  0  0  0  0  0  0  0
  -21.0900  -29.6820   21.6090 H   0  0  0  0  0  0  0  0  0  0  0  0
  -18.2560  -27.7780   22.6690 C   0  0  0  0  0  0  0  0  0  0  0  0
  -20.7880  -28.1470   23.0280 C   0  0  0  0  0  3  0  0  0  0  0  0
  -20.9760  -26.7330   22.4330 C   0  0  0  0  0  2  0  0  0  0  0  0
  -19.9230  -26.3780   21.3780 C   0  0  0  0  0  2  0  0  0  0  0  0
  -18.5150  -26.4490   21.9800 C   0  0  0  0  0  2  0  0  0  0  0  0
  -19.3240  -28.5820   23.1460 C   0  0  0  0  0  0  0  0  0  0  0  0
  -19.0310  -29.8260   23.7470 C   0  0  0  0  0  3  0  0  0  0  0  0
  -17.7010  -30.2680   23.8770 C   0  0  0  0  0  3  0  0  0  0  0  0
  -16.6470  -29.4590   23.4180 C   0  0  0  0  0  3  0  0  0  0  0  0
  -16.9230  -28.2170   22.8200 C   0  0  0  0  0  3  0  0  0  0  0  0
  -25.8960  -32.5130   23.8960 C   0  0  0  0  0  3  0  0  0  0  0  0
  -25.5500  -33.9080   24.2000 N   0  0  0  0  0  0  0  0  0  0  0  0
  -25.8840  -34.9570   23.4370 C   0  0  0  0  0  0  0  0  0  0  0  0
  -26.5870  -34.8560   22.4280 O   0  0  0  0  0  0  0  0  0  0  0  0
  -24.9280  -34.0610   24.9800 H   0  0  0  0  0  0  0  0  0  0  0  0
  -24.1250  -36.7020   23.0080 C   0  0  0  0  0  1  0  0  0  0  0  0
  -25.3530  -36.3400   23.8600 C   0  0  0  0  0  3  0  0  0  0  0  0
  -27.4380  -37.2860   24.7440 C   0  0  0  0  0  1  0  0  0  0  0  0
  -26.3640  -37.4140   23.7620 N   0  0  0  0  0  0  0  0  0  0  0  0
  -25.9330  -38.3270   23.8790 H   0  0  0  0  0  0  0  0  0  0  0  0
  -26.3880  -31.7630   25.1940 C   0  0  1  0  0  0  0  0  0  0  0  0
  -25.2640  -31.5070   26.2250 C   0  0  0  0  0  1  0  0  0  0  0  0
  -27.0150  -30.3970   24.8270 C   0  0  0  0  0  1  0  0  0  0  0  0
  -27.4950  -32.5900   25.8900 C   0  0  0  0  0  1  0  0  0  0  0  0
  -30.9470  -16.9130   21.0980 C   0  0  0  0  0  3  0  0  0  0  0  0
  -31.0210  -14.5870   20.2300 C   0  0  0  0  0  0  0  0  0  0  0  0
  -30.6190  -12.4990   18.9970 C   0  0  0  0  0  2  0  0  0  0  0  0
  -29.6560  -12.7760   17.8260 C   0  0  0  0  0  2  0  0  0  0  0  0
  -28.1910  -12.6560   18.2870 C   0  0  0  0  0  2  0  0  0  0  0  0
  -27.9030  -13.4580   19.5850 C   0  0  0  0  0  3  0  0  0  0  0  0
  -28.9770  -13.1690   20.6600 C   0  0  0  0  0  2  0  0  0  0  0  0
  -30.3010  -13.4470   20.0740 N   0  0  0  0  0  0  0  0  0  0  0  0
  -32.0970  -14.7910   19.6610 O   0  0  0  0  0  0  0  0  0  0  0  0
  -30.4350  -15.5480   20.9530 N   0  0  0  0  0  0  0  0  0  0  0  0
  -29.5850  -15.3270   21.4510 H   0  0  0  0  0  0  0  0  0  0  0  0
  -25.5180  -14.0850   20.3300 C   0  0  0  0  0  0  0  0  0  0  0  0
  -24.4510  -13.3210   20.7190 C   0  0  0  0  0  0  0  0  0  0  0  0
  -24.9030  -11.9660   20.6830 C   0  0  0  0  0  0  0  0  0  0  0  0
  -26.5550  -13.1970   20.0850 N   0  0  0  0  0  0  0  0  0  0  0  0
  -26.1860  -11.9180   20.3520 N   0  0  0  0  0  0  0  0  0  0  0  0
  -24.1730  -10.7090   20.8860 C   0  0  0  0  0  0  0  0  0  0  0  0
  -24.5890   -9.7610   21.8470 C   0  0  0  0  0  3  0  0  0  0  0  0
  -23.8610   -8.5670   22.0380 C   0  0  0  0  0  3  0  0  0  0  0  0
  -22.7010   -8.3130   21.2680 C   0  0  0  0  0  0  0  0  0  0  0  0
  -22.3030   -9.2500   20.2970 C   0  0  0  0  0  3  0  0  0  0  0  0
  -23.0320  -10.4350   20.1050 C   0  0  0  0  0  3  0  0  0  0  0  0
  -21.9450   -7.1700   21.3670 O   0  0  0  0  0  0  0  0  0  0  0  0
  -21.8450   -6.4720   22.5430 C   0  0  0  0  0  0  0  0  0  0  0  0
  -21.3420   -7.0660   23.7210 C   0  0  0  0  0  3  0  0  0  0  0  0
  -21.1930   -6.2920   24.8910 C   0  0  0  0  0  3  0  0  0  0  0  0
  -21.5350   -4.9270   24.8810 C   0  0  0  0  0  0  0  0  0  0  0  0
  -22.0320   -4.3330   23.7070 C   0  0  0  0  0  3  0  0  0  0  0  0
  -22.1830   -5.1040   22.5410 C   0  0  0  0  0  0  0  0  0  0  0  0
  -22.6410   -4.5230   21.4070 F   0  0  0  0  0  0  0  0  0  0  0  0
  -21.3850   -4.1820   26.0010 F   0  0  0  0  0  0  0  0  0  0  0  0
  -23.0620  -13.8070   21.0170 C   0  0  0  0  0  0  0  0  0  0  0  0
  -22.3450  -13.1160   21.8960 N   0  0  0  0  0  0  0  0  0  0  0  0
  -22.6210  -14.8340   20.5030 O   0  0  0  0  0  0  0  0  0  0  0  0
  -22.7140  -12.2850   22.3350 H   0  0  0  0  0  0  0  0  0  0  0  0
  -21.4120  -13.4220   22.1350 H   0  0  0  0  0  0  0  0  0  0  0  0
  -25.6900  -15.4540   20.1460 N   0  0  0  0  0  0  0  0  0  0  0  0
  -24.9300  -16.1150   20.2620 H   0  0  0  0  0  0  0  0  0  0  0  0
  -26.5370  -15.8780   19.7970 H   0  0  0  0  0  0  0  0  0  0  0  0
  -30.5670  -17.8050   19.8870 C   0  0  0  0  0  2  0  0  0  0  0  0
  -29.0630  -18.0760   19.7060 C   0  0  0  0  0  2  0  0  0  0  0  0
  -28.8810  -18.9960   18.5350 C   0  0  0  0  0  0  0  0  0  0  0  0
  -28.5560  -18.4980   17.3350 N   0  0  0  0  0  4  0  0  0  0  0  0
  -29.0930  -20.3110   18.6910 N   0  0  0  0  0  0  0  0  0  0  0  0
  -28.4050  -17.5050   17.2100 H   0  0  0  0  0  0  0  0  0  0  0  0
  -28.4310  -19.0670   16.5100 H   0  0  0  0  0  0  0  0  0  0  0  0
  -29.3310  -20.6840   19.5980 H   0  0  0  0  0  0  0  0  0  0  0  0
  -29.0200  -20.9760   17.9330 H   0  0  0  0  0  0  0  0  0  0  0  0
  1  2  1  0
  1  3  2  0
  2  5  1  0
  4  2  1  0
  6  5  1  0
  7  6  1  0
  8  7  1  0
  9  8  1  0
 10  9  1  0
 11 10  1  0
 12 11  1  0
 13 24  2  0
 14 12  1  0
 14 19  1  0
 15 23  1  0
 15 25  1  0
 16 22  1  0
 16 18  1  0
 17 23  1  0
 18 17  1  0
 19 18  2  0
 20 21  1  0
 20 14  2  0
 21 16  2  0
 22 15  1  0
 23 13  1  0
 25 27  2  0
 26 25  1  0
 28 26  1  0
 29 38  2  0
 29 34  1  0
 30 26  1  0
 30 34  1  0
 31 30  1  0
 32 33  1  0
 32 31  1  0
 33 29  1  0
 34 35  2  0
 35 36  1  0
 37 36  2  0
 38 37  1  0
 39 13  1  0
 39 40  1  0
 39 49  1  0
 40 43  1  0
 41 45  1  0
 41 40  1  0
 42 41  2  0
 45 44  1  0
 47 45  1  0
 47 48  1  0
 47 46  1  0
 49 52  1  1
 49 50  1  0
 51 49  1  0
 53 92  1  0
 53  1  1  0
 54 62  1  0
 55 60  1  0
 56 57  1  0
 56 55  1  0
 58 57  1  0
 58 67  1  0
 58 59  1  0
 60 54  1  0
 60 59  1  0
 61 54  2  0
 62 53  1  0
 62 63  1  0
 64 65  2  0
 65 84  1  0
 66 65  1  0
 66 69  1  0
 67 64  1  0
 67 68  1  0
 68 66  2  0
 69 70  1  0
 70 71  2  0
 72 75  1  0
 72 71  1  0
 73 72  2  0
 74 73  1  0
 74 69  2  0
 75 76  1  0
 76 77  1  0
 77 78  2  0
 79 78  1  0
 79 83  1  0
 80 79  2  0
 81 76  2  0
 81 80  1  0
 82 81  1  0
 84 85  1  0
 85 88  1  0
 85 87  1  0
 86 84  2  0
 89 90  1  0
 89 64  1  0
 91 89  1  0
 93 92  1  0
 94 96  1  0
 94 93  1  0
 95 94  2  0
 96 99  1  0
 97 95  1  0
 98 95  1  0
100 96  1  0
M  ISO  4  11 101  12 101  54 100  62 100
M  END
>  <TORSDO>  (94) 
F 27

>  <SCORE>  (94) 
-10.863

>  <name>  (94) 
93

>  <ligand_id>  (94) 
93

>  <original_smiles>  (94) 
[H]c1c([H])c([H])c2c(c1[H])C([H])([H])C([H])([H])C([H])([H])C2([H])N([H])C(=O)C1([H])N(C(=O)C([H])(N([H])C(=O)C([H])(N([H])C([H])([H])[H])C([H])([H])[H])C(C([H])([H])[H])(C([H])([H])[H])C([H])([H])[H])C([H])([H])c2c([H])c(OC([H])([H])C([H])([H])C([H])([H])C([H])([H])C([H])([H])C([H])([H])C([H])([H])N([H])C(=O)C([H])(N([H])C(=O)N3C([H])([H])C([H])([H])C([H])([H])C([H])(n4nc(-c5c([H])c([H])c(Oc6c([H])c([H])c(F)c([H])c6F)c([H])c5[H])c(C(=O)N([H])[H])c4N([H])[H])C3([H])[H])C([H])([H])C([H])([H])C(N([H])[H])=[N+]([H])[H])c([H])c([H])c2C1([H])[H]

>  <smiles>  (94) 
[H]c1c([H])c([H])c2c(c1[H])C([H])([H])C([H])([H])C([H])([H])C2([H])N([H])C(=O)C1([H])N(C(=O)C([H])(N([H])C(=O)C([H])(N([H])C([H])([H])[H])C([H])([H])[H])C(C([H])([H])[H])(C([H])([H])[H])C([H])([H])[H])C([H])([H])c2c([H])c(OC([H])([H])C([H])([H])C([H])([H])C([H])([H])C([H])([H])C([H])([H])C([H])([H])N([H])C(=O)C([H])(N([H])C(=O)N3C([H])([H])C([H])([H])C([H])([H])C([H])(n4nc(-c5c([H])c([H])c(Oc6c([H])c([H])c(F)c([H])c6F)c([H])c5[H])c(C(=O)N([H])[H])c4N([H])[H])C3([H])[H])C([H])([H])C([H])([H])C(N([H])[H])=[N+]([H])[H])c([H])c([H])c2C1([H])[H]

$$$$
94:0:0
     RDKit          3D

 99106  0  0  1  0  0  0  0  0999 V2000
  -29.2440  -22.1340   22.8780 C   0  0  0  0  0  0  0  0  0  0  0  0
  -29.1050  -22.8700   23.9960 N   0  0  0  0  0  4  0  0  0  0  0  0
  -28.2250  -21.8710   22.0400 N   0  0  0  0  0  0  0  0  0  0  0  0
  -29.8960  -23.0430   24.5990 H   0  0  0  0  0  0  0  0  0  0  0  0
  -28.2190  -23.2170   24.3290 H   0  0  0  0  0  0  0  0  0  0  0  0
  -28.4100  -21.2750   21.2410 H   0  0  0  0  0  0  0  0  0  0  0  0
  -26.8870  -22.4750   22.0780 C   0  0  0  0  0  2  0  0  0  0  0  0
  -26.1330  -22.1650   20.7720 C   0  0  0  0  0  2  0  0  0  0  0  0
  -26.9940  -22.1880   19.4860 C   0  0  0  0  0  2  0  0  0  0  0  0
  -26.7190  -23.3430   18.5080 C   0  0  0  0  0  2  0  0  0  0  0  0
  -27.9120  -23.8940   17.6860 C   0  0  0  0  0  2  0  0  0  0  0  0
  -27.3470  -24.8600   16.6250 C   0  0  0  0  0  2  0  0  0  0  0  0
  -28.2840  -25.5360   15.5860 C   0  0  0  0  0  2  0  0  0  0  0  0
  -27.8850  -26.8870   15.2230 O   0  0  0  0  0  0  0  0  0  0  0  0
  -25.0280  -27.8080   21.6300 C   0  0  0  0  0  0  0  0  0  0  0  0
  -26.7960  -27.3400   15.9260 C   0  0  0  0  0  0  0  0  0  0  0  0
  -23.4430  -27.7330   19.7330 C   0  0  0  0  0  3  0  0  0  0  0  0
  -24.4830  -27.9520   17.4140 C   0  0  0  0  0  0  0  0  0  0  0  0
  -25.8260  -28.6080   19.4150 C   0  0  0  0  0  2  0  0  0  0  0  0
  -25.7500  -28.1120   17.9880 C   0  0  0  0  0  0  0  0  0  0  0  0
  -26.9150  -27.8000   17.2540 C   0  0  0  0  0  3  0  0  0  0  0  0
  -25.5190  -27.2670   15.3330 C   0  0  0  0  0  3  0  0  0  0  0  0
  -24.3600  -27.5300   16.0800 C   0  0  0  0  0  3  0  0  0  0  0  0
  -23.2860  -28.2650   18.2820 C   0  0  0  0  0  2  0  0  0  0  0  0
  -24.7980  -28.0230   20.3050 N   0  0  0  0  0  0  0  0  0  0  0  0
  -24.1270  -27.4120   22.3800 O   0  0  0  0  0  0  0  0  0  0  0  0
  -23.0800  -26.2300   19.7560 C   0  0  0  0  0  0  0  0  0  0  0  0
  -21.7920  -25.9220   19.5350 N   0  0  0  0  0  0  0  0  0  0  0  0
  -23.9470  -25.3750   19.9490 O   0  0  0  0  0  0  0  0  0  0  0  0
  -21.1420  -26.6830   19.3940 H   0  0  0  0  0  0  0  0  0  0  0  0
  -18.7400  -24.0670   19.0150 C   0  0  0  0  0  0  0  0  0  0  0  0
  -21.2290  -24.5710   19.4910 C   0  0  0  0  0  3  0  0  0  0  0  0
  -21.5130  -23.8830   18.1360 C   0  0  0  0  0  2  0  0  0  0  0  0
  -20.3990  -24.1000   17.1060 C   0  0  0  0  0  2  0  0  0  0  0  0
  -19.0790  -23.5310   17.6340 C   0  0  0  0  0  2  0  0  0  0  0  0
  -19.7470  -24.5690   19.8810 C   0  0  0  0  0  0  0  0  0  0  0  0
  -19.3760  -25.0840   21.1410 C   0  0  0  0  0  3  0  0  0  0  0  0
  -18.0260  -25.1010   21.5400 C   0  0  0  0  0  3  0  0  0  0  0  0
  -17.0340  -24.5890   20.6880 C   0  0  0  0  0  3  0  0  0  0  0  0
  -17.3910  -24.0690   19.4320 C   0  0  0  0  0  3  0  0  0  0  0  0
  -26.4260  -28.0750   22.2700 C   0  0  0  0  0  3  0  0  0  0  0  0
  -27.0450  -26.7970   22.9630 C   0  0  1  0  0  0  0  0  0  0  0  0
  -26.0410  -26.0260   23.8480 C   0  0  0  0  0  1  0  0  0  0  0  0
  -27.5880  -25.8080   21.9010 C   0  0  0  0  0  1  0  0  0  0  0  0
  -28.2480  -27.2140   23.8440 C   0  0  0  0  0  1  0  0  0  0  0  0
  -26.2660  -29.1690   23.2380 N   0  0  0  0  0  0  0  0  0  0  0  0
  -26.6170  -30.4430   23.0080 C   0  0  0  0  0  0  0  0  0  0  0  0
  -27.1810  -30.8060   21.9720 O   0  0  0  0  0  0  0  0  0  0  0  0
  -25.7570  -28.9580   24.0830 H   0  0  0  0  0  0  0  0  0  0  0  0
  -25.0340  -32.2670   23.7010 C   0  0  0  0  0  1  0  0  0  0  0  0
  -26.2880  -31.4760   24.1010 C   0  0  0  0  0  3  0  0  0  0  0  0
  -28.5380  -31.7730   25.0370 C   0  0  0  0  0  1  0  0  0  0  0  0
  -27.3990  -32.4110   24.3820 N   0  0  0  0  0  0  0  0  0  0  0  0
  -27.0840  -33.1800   24.9680 H   0  0  0  0  0  0  0  0  0  0  0  0
  -30.6040  -21.6390   22.5230 C   0  0  0  0  0  2  0  0  0  0  0  0
  -31.5450  -22.8570   22.4860 C   0  0  0  0  0  2  0  0  0  0  0  0
  -32.8790  -22.5060   21.8480 C   0  0  0  0  0  0  0  0  0  0  0  0
  -33.9400  -22.9370   22.3090 O   0  0  0  0  0  0  0  0  0  0  0  0
  -32.8320  -21.6020   20.6190 C   0  0  0  0  0  2  0  0  0  0  0  0
  -35.3290  -21.3100   21.1670 C   0  0  0  0  0  1  0  0  0  0  0  0
  -34.1720  -20.9440   20.2270 C   0  0  0  0  0  3  0  0  0  0  0  0
  -34.4850  -18.6340   19.3690 C   0  0  0  0  0  0  0  0  0  0  0  0
  -34.2400  -16.3700   18.4370 C   0  0  0  0  0  2  0  0  0  0  0  0
  -33.3600  -16.3950   17.1740 C   0  0  0  0  0  2  0  0  0  0  0  0
  -31.8690  -16.2860   17.5440 C   0  0  0  0  0  2  0  0  0  0  0  0
  -31.4600  -17.2960   18.6430 C   0  0  0  0  0  3  0  0  0  0  0  0
  -32.4460  -17.2360   19.8290 C   0  0  0  0  0  2  0  0  0  0  0  0
  -33.8170  -17.4580   19.3230 N   0  0  0  0  0  0  0  0  0  0  0  0
  -35.4910  -18.8900   18.7000 O   0  0  0  0  0  0  0  0  0  0  0  0
  -33.9620  -19.5060   20.2250 N   0  0  0  0  0  0  0  0  0  0  0  0
  -33.2070  -19.1470   20.7920 H   0  0  0  0  0  0  0  0  0  0  0  0
  -29.0650  -17.9910   19.3060 C   0  0  0  0  0  0  0  0  0  0  0  0
  -27.9630  -17.2520   19.6410 C   0  0  0  0  0  0  0  0  0  0  0  0
  -28.3740  -15.8860   19.6040 C   0  0  0  0  0  0  0  0  0  0  0  0
  -30.0840  -17.0740   19.0860 N   0  0  0  0  0  0  0  0  0  0  0  0
  -29.6670  -15.8020   19.3200 N   0  0  0  0  0  0  0  0  0  0  0  0
  -27.6030  -14.6480   19.7620 C   0  0  0  0  0  0  0  0  0  0  0  0
  -27.6540  -13.8880   20.9530 C   0  0  0  0  0  3  0  0  0  0  0  0
  -26.8840  -12.7130   21.0840 C   0  0  0  0  0  3  0  0  0  0  0  0
  -26.0530  -12.2850   20.0220 C   0  0  0  0  0  0  0  0  0  0  0  0
  -26.0270  -13.0310   18.8290 C   0  0  0  0  0  3  0  0  0  0  0  0
  -26.7990  -14.1980   18.6960 C   0  0  0  0  0  3  0  0  0  0  0  0
  -25.2920  -11.1430   20.0520 O   0  0  0  0  0  0  0  0  0  0  0  0
  -24.4690  -10.8520   21.1120 C   0  0  0  0  0  0  0  0  0  0  0  0
  -23.3730  -11.6740   21.4490 C   0  0  0  0  0  3  0  0  0  0  0  0
  -22.5100  -11.3010   22.4990 C   0  0  0  0  0  3  0  0  0  0  0  0
  -22.7390  -10.1060   23.2060 C   0  0  0  0  0  0  0  0  0  0  0  0
  -23.8270   -9.2840   22.8680 C   0  0  0  0  0  3  0  0  0  0  0  0
  -24.6880   -9.6540   21.8210 C   0  0  0  0  0  0  0  0  0  0  0  0
  -25.7230   -8.8460   21.4850 F   0  0  0  0  0  0  0  0  0  0  0  0
  -21.9070   -9.7420   24.2110 F   0  0  0  0  0  0  0  0  0  0  0  0
  -26.5790  -17.7740   19.8970 C   0  0  0  0  0  0  0  0  0  0  0  0
  -25.8280  -17.1210   20.7800 N   0  0  0  0  0  0  0  0  0  0  0  0
  -26.1720  -18.8000   19.3540 O   0  0  0  0  0  0  0  0  0  0  0  0
  -26.1660  -16.2890   21.2410 H   0  0  0  0  0  0  0  0  0  0  0  0
  -24.9010  -17.4600   20.9960 H   0  0  0  0  0  0  0  0  0  0  0  0
  -29.2770  -19.3600   19.1540 N   0  0  0  0  0  0  0  0  0  0  0  0
  -28.5250  -20.0300   19.2550 H   0  0  0  0  0  0  0  0  0  0  0  0
  -30.1430  -19.7820   18.8410 H   0  0  0  0  0  0  0  0  0  0  0  0
  1  2  2  0
  2  5  1  0
  2  4  1  0
  3  7  1  0
  3  1  1  0
  6  3  1  0
  8  7  1  0
  9  8  1  0
 10  9  1  0
 11 10  1  0
 12 11  1  0
 13 12  1  0
 14 13  1  0
 14 16  1  0
 15 26  2  0
 16 21  1  0
 17 27  1  0
 17 25  1  0
 18 20  1  0
 18 24  1  0
 19 25  1  0
 20 19  1  0
 21 20  2  0
 22 16  2  0
 22 23  1  0
 23 18  2  0
 24 17  1  0
 25 15  1  0
 27 29  2  0
 28 27  1  0
 30 28  1  0
 31 40  2  0
 31 36  1  0
 32 28  1  0
 32 36  1  0
 33 32  1  0
 34 35  1  0
 34 33  1  0
 35 31  1  0
 36 37  2  0
 37 38  1  0
 39 38  2  0
 40 39  1  0
 41 15  1  0
 41 42  1  0
 41 46  1  0
 42 45  1  1
 42 43  1  0
 44 42  1  0
 46 49  1  0
 47 46  1  0
 47 51  1  0
 48 47  2  0
 51 50  1  0
 51 53  1  0
 53 54  1  0
 53 52  1  0
 55  1  1  0
 56 55  1  0
 57 58  2  0
 57 56  1  0
 59 57  1  0
 61 59  1  0
 61 60  1  0
 62 70  1  0
 63 68  1  0
 64 65  1  0
 64 63  1  0
 66 65  1  0
 66 75  1  0
 66 67  1  0
 68 62  1  0
 68 67  1  0
 69 62  2  0
 70 61  1  0
 70 71  1  0
 72 73  2  0
 73 92  1  0
 74 73  1  0
 74 77  1  0
 75 72  1  0
 75 76  1  0
 76 74  2  0
 77 78  1  0
 78 79  2  0
 80 83  1  0
 80 79  1  0
 81 80  2  0
 82 81  1  0
 82 77  2  0
 83 84  1  0
 84 85  2  0
 84 89  1  0
 85 86  1  0
 86 87  2  0
 87 91  1  0
 88 87  1  0
 89 88  2  0
 90 89  1  0
 92 93  1  0
 93 96  1  0
 93 95  1  0
 94 92  2  0
 97 98  1  0
 97 72  1  0
 99 97  1  0
M  ISO  4  13 101  14 101  62 100  70 100
M  END
>  <TORSDO>  (95) 
F 28

>  <SCORE>  (95) 
1.749

>  <name>  (95) 
94

>  <ligand_id>  (95) 
94

>  <original_smiles>  (95) 
[H]c1c([H])c([H])c2c(c1[H])C([H])([H])C([H])([H])C([H])([H])C2([H])N([H])C(=O)C1([H])N(C(=O)C([H])(N([H])C(=O)C([H])(N([H])C([H])([H])[H])C([H])([H])[H])C(C([H])([H])[H])(C([H])([H])[H])C([H])([H])[H])C([H])([H])c2c([H])c(OC([H])([H])C([H])([H])C([H])([H])C([H])([H])C([H])([H])C([H])([H])C([H])([H])[N+]([H])=C(N([H])[H])C([H])([H])C([H])([H])C(=O)C([H])([H])C([H])(N([H])C(=O)N3C([H])([H])C([H])([H])C([H])([H])C([H])(n4nc(-c5c([H])c([H])c(Oc6c([H])c([H])c(F)c([H])c6F)c([H])c5[H])c(C(=O)N([H])[H])c4N([H])[H])C3([H])[H])C([H])([H])[H])c([H])c([H])c2C1([H])[H]

>  <smiles>  (95) 
[H]c1c([H])c([H])c2c(c1[H])C([H])([H])C([H])([H])C([H])([H])C2([H])N([H])C(=O)C1([H])N(C(=O)C([H])(N([H])C(=O)C([H])(N([H])C([H])([H])[H])C([H])([H])[H])C(C([H])([H])[H])(C([H])([H])[H])C([H])([H])[H])C([H])([H])c2c([H])c(OC([H])([H])C([H])([H])C([H])([H])C([H])([H])C([H])([H])C([H])([H])C([H])([H])[N+]([H])=C(N([H])[H])C([H])([H])C([H])([H])C(=O)C([H])([H])C([H])(N([H])C(=O)N3C([H])([H])C([H])([H])C([H])([H])C([H])(n4nc(-c5c([H])c([H])c(Oc6c([H])c([H])c(F)c([H])c6F)c([H])c5[H])c(C(=O)N([H])[H])c4N([H])[H])C3([H])[H])C([H])([H])[H])c([H])c([H])c2C1([H])[H]

$$$$
95:0:0
     RDKit          3D

 90 97  0  0  1  0  0  0  0  0999 V2000
  -28.8950  -20.5290   20.7720 C   0  0  0  0  0  2  0  0  0  0  0  0
  -29.0430  -21.9740   19.9320 C   0  0  0  0  0  2  0  0  0  0  0  0
  -28.1190  -23.3970   19.9820 C   0  0  0  0  0  2  0  0  0  0  0  0
  -27.8600  -24.8880   22.1260 C   0  0  0  0  0  1  0  0  0  0  0  0
  -28.4440  -24.8730   20.7070 C   0  0  0  0  0  3  0  0  0  0  0  0
  -28.3400  -26.3250   20.1610 O   0  0  0  0  0  0  0  0  0  0  0  0
  -24.6110  -31.9110   23.2130 C   0  0  0  0  0  0  0  0  0  0  0  0
  -27.2230  -27.2230   20.2130 C   0  0  0  0  0  0  0  0  0  0  0  0
  -23.4200  -30.5070   21.5700 C   0  0  0  0  0  3  0  0  0  0  0  0
  -24.8780  -28.9270   20.1630 C   0  0  0  0  0  0  0  0  0  0  0  0
  -25.9690  -30.7930   21.4070 C   0  0  0  0  0  2  0  0  0  0  0  0
  -26.0510  -29.3980   20.7680 C   0  0  0  0  0  0  0  0  0  0  0  0
  -27.2270  -28.5630   20.7670 C   0  0  0  0  0  3  0  0  0  0  0  0
  -26.0220  -26.8340   19.5870 C   0  0  0  0  0  3  0  0  0  0  0  0
  -24.8740  -27.6580   19.5590 C   0  0  0  0  0  3  0  0  0  0  0  0
  -23.6470  -29.8190   20.1970 C   0  0  0  0  0  2  0  0  0  0  0  0
  -24.6860  -31.0930   22.1190 N   0  0  0  0  0  0  0  0  0  0  0  0
  -23.5230  -32.1890   23.7410 O   0  0  0  0  0  0  0  0  0  0  0  0
  -22.7440  -29.5010   22.5340 C   0  0  0  0  0  0  0  0  0  0  0  0
  -21.4160  -29.3280   22.4080 N   0  0  0  0  0  0  0  0  0  0  0  0
  -23.4160  -28.8750   23.3580 O   0  0  0  0  0  0  0  0  0  0  0  0
  -20.9260  -29.8830   21.7190 H   0  0  0  0  0  0  0  0  0  0  0  0
  -18.0350  -28.1350   22.9160 C   0  0  0  0  0  0  0  0  0  0  0  0
  -20.5950  -28.3890   23.1790 C   0  0  0  0  0  3  0  0  0  0  0  0
  -20.6920  -26.9590   22.5990 C   0  0  0  0  0  2  0  0  0  0  0  0
  -19.5870  -26.6430   21.5860 C   0  0  0  0  0  2  0  0  0  0  0  0
  -18.2070  -26.7890   22.2340 C   0  0  0  0  0  2  0  0  0  0  0  0
  -19.1560  -28.8940   23.3450 C   0  0  0  0  0  0  0  0  0  0  0  0
  -18.9400  -30.1550   23.9440 C   0  0  0  0  0  3  0  0  0  0  0  0
  -17.6350  -30.6550   24.1180 C   0  0  0  0  0  3  0  0  0  0  0  0
  -16.5300  -29.8920   23.7050 C   0  0  0  0  0  3  0  0  0  0  0  0
  -16.7300  -28.6350   23.1090 C   0  0  0  0  0  3  0  0  0  0  0  0
  -25.8840  -32.5540   23.8430 C   0  0  0  0  0  3  0  0  0  0  0  0
  -25.5700  -33.9570   24.1630 N   0  0  0  0  0  0  0  0  0  0  0  0
  -25.9100  -35.0090   23.4060 C   0  0  0  0  0  0  0  0  0  0  0  0
  -26.5890  -34.9020   22.3820 O   0  0  0  0  0  0  0  0  0  0  0  0
  -24.9700  -34.1150   24.9590 H   0  0  0  0  0  0  0  0  0  0  0  0
  -24.1970  -36.8130   23.0270 C   0  0  0  0  0  1  0  0  0  0  0  0
  -25.4230  -36.4010   23.8560 C   0  0  0  0  0  3  0  0  0  0  0  0
  -27.5460  -37.2800   24.7240 C   0  0  0  0  0  1  0  0  0  0  0  0
  -26.4620  -37.4500   23.7590 N   0  0  0  0  0  0  0  0  0  0  0  0
  -26.0560  -38.3710   23.8970 H   0  0  0  0  0  0  0  0  0  0  0  0
  -26.3880  -31.7970   25.1340 C   0  0  1  0  0  0  0  0  0  0  0  0
  -25.2850  -31.5710   26.1940 C   0  0  0  0  0  1  0  0  0  0  0  0
  -26.9740  -30.4150   24.7670 C   0  0  0  0  0  1  0  0  0  0  0  0
  -27.5320  -32.5980   25.7990 C   0  0  0  0  0  1  0  0  0  0  0  0
  -28.9200  -18.9320   20.2060 C   0  0  0  0  0  2  0  0  0  0  0  0
  -30.0900  -17.7340   20.3890 C   0  0  0  0  0  3  0  0  0  0  0  0
  -30.5230  -15.0000   20.2940 C   0  0  0  0  0  0  0  0  0  0  0  0
  -30.3950  -12.6610   19.3380 C   0  0  0  0  0  2  0  0  0  0  0  0
  -29.4570  -12.6300   18.1100 C   0  0  0  0  0  2  0  0  0  0  0  0
  -27.9950  -12.4150   18.5480 C   0  0  0  0  0  2  0  0  0  0  0  0
  -27.5920  -13.3310   19.7340 C   0  0  0  0  0  3  0  0  0  0  0  0
  -28.6530  -13.3370   20.8540 C   0  0  0  0  0  2  0  0  0  0  0  0
  -29.9190  -13.7480   20.2370 N   0  0  0  0  0  0  0  0  0  0  0  0
  -31.7350  -15.0470   20.0600 O   0  0  0  0  0  0  0  0  0  0  0  0
  -29.7430  -16.1840   20.4170 N   0  0  0  0  0  0  0  0  0  0  0  0
  -28.7620  -15.9920   20.5400 H   0  0  0  0  0  0  0  0  0  0  0  0
  -25.2110  -13.8970   20.4860 C   0  0  0  0  0  0  0  0  0  0  0  0
  -24.1540  -13.1140   20.8570 C   0  0  0  0  0  0  0  0  0  0  0  0
  -24.6250  -11.7660   20.8200 C   0  0  0  0  0  0  0  0  0  0  0  0
  -26.2590  -13.0250   20.2390 N   0  0  0  0  0  0  0  0  0  0  0  0
  -25.9170  -11.7380   20.5090 N   0  0  0  0  0  0  0  0  0  0  0  0
  -23.9070  -10.4980   21.0080 C   0  0  0  0  0  0  0  0  0  0  0  0
  -24.3350   -9.5410   21.9530 C   0  0  0  0  0  3  0  0  0  0  0  0
  -23.6150   -8.3400   22.1300 C   0  0  0  0  0  3  0  0  0  0  0  0
  -22.4540   -8.0870   21.3600 C   0  0  0  0  0  0  0  0  0  0  0  0
  -22.0450   -9.0340   20.4050 C   0  0  0  0  0  3  0  0  0  0  0  0
  -22.7650  -10.2260   20.2260 C   0  0  0  0  0  3  0  0  0  0  0  0
  -21.7080   -6.9360   21.4430 O   0  0  0  0  0  0  0  0  0  0  0  0
  -21.6350   -6.2090   22.6030 C   0  0  0  0  0  0  0  0  0  0  0  0
  -21.1530   -6.7700   23.8060 C   0  0  0  0  0  3  0  0  0  0  0  0
  -21.0320   -5.9670   24.9580 C   0  0  0  0  0  3  0  0  0  0  0  0
  -21.3810   -4.6040   24.9070 C   0  0  0  0  0  0  0  0  0  0  0  0
  -21.8550   -4.0420   23.7090 C   0  0  0  0  0  3  0  0  0  0  0  0
  -21.9790   -4.8430   22.5590 C   0  0  0  0  0  0  0  0  0  0  0  0
  -22.4160   -4.2910   21.4010 F   0  0  0  0  0  0  0  0  0  0  0  0
  -21.2560   -3.8310   26.0110 F   0  0  0  0  0  0  0  0  0  0  0  0
  -22.7540  -13.5820   21.1290 C   0  0  0  0  0  0  0  0  0  0  0  0
  -22.0270  -12.8750   21.9880 N   0  0  0  0  0  0  0  0  0  0  0  0
  -22.3130  -14.6090   20.6160 O   0  0  0  0  0  0  0  0  0  0  0  0
  -22.3970  -12.0440   22.4270 H   0  0  0  0  0  0  0  0  0  0  0  0
  -21.0900  -13.1720   22.2140 H   0  0  0  0  0  0  0  0  0  0  0  0
  -25.3650  -15.2690   20.3080 N   0  0  0  0  0  0  0  0  0  0  0  0
  -24.5920  -15.9170   20.4160 H   0  0  0  0  0  0  0  0  0  0  0  0
  -26.1950  -15.7090   19.9310 H   0  0  0  0  0  0  0  0  0  0  0  0
  -31.2300  -18.0180   19.3970 C   0  0  0  0  0  0  0  0  0  0  0  0
  -31.2210  -17.5770   18.2440 O   0  0  0  0  0  0  0  0  0  0  0  0
  -33.5310  -19.0440   18.8780 C   0  0  0  0  0  1  0  0  0  0  0  0
  -32.3570  -18.9410   19.8680 C   0  0  0  0  0  2  0  0  0  0  0  0
  2  3  1  0
  2  1  1  0
  3  5  1  0
  5  4  1  0
  6  8  1  0
  6  5  1  0
  7 18  2  0
  8 13  1  0
  9 17  1  0
  9 19  1  0
 10 16  1  0
 10 12  1  0
 11 17  1  0
 12 11  1  0
 13 12  2  0
 14  8  2  0
 15 14  1  0
 15 10  2  0
 16  9  1  0
 17  7  1  0
 19 21  2  0
 20 19  1  0
 22 20  1  0
 23 32  2  0
 23 28  1  0
 24 20  1  0
 24 28  1  0
 25 24  1  0
 26 27  1  0
 26 25  1  0
 27 23  1  0
 28 29  2  0
 29 30  1  0
 31 30  2  0
 32 31  1  0
 33  7  1  0
 33 34  1  0
 33 43  1  0
 34 37  1  0
 35 39  1  0
 35 34  1  0
 36 35  2  0
 39 38  1  0
 41 39  1  0
 41 42  1  0
 41 40  1  0
 43 46  1  1
 43 44  1  0
 45 43  1  0
 47  1  1  0
 48 47  1  0
 48 57  1  0
 49 57  1  0
 50 55  1  0
 51 52  1  0
 51 50  1  0
 53 52  1  0
 53 62  1  0
 53 54  1  0
 55 49  1  0
 55 54  1  0
 56 49  2  0
 57 58  1  0
 59 60  2  0
 60 79  1  0
 61 60  1  0
 61 64  1  0
 62 59  1  0
 62 63  1  0
 63 61  2  0
 64 65  1  0
 65 66  2  0
 67 70  1  0
 67 66  1  0
 68 67  2  0
 69 68  1  0
 69 64  2  0
 70 71  1  0
 71 72  1  0
 72 73  2  0
 74 73  1  0
 74 78  1  0
 75 74  2  0
 76 71  2  0
 76 75  1  0
 77 76  1  0
 79 80  1  0
 80 83  1  0
 80 82  1  0
 81 79  2  0
 84 85  1  0
 84 59  1  0
 86 84  1  0
 87 90  1  0
 87 48  1  0
 88 87  2  0
 89 90  1  0
M  ISO  4   5 101   6 101  49 100  57 100
M  END
>  <TORSDO>  (96) 
F 23

>  <SCORE>  (96) 
-14.278

>  <name>  (96) 
95

>  <ligand_id>  (96) 
95

>  <original_smiles>  (96) 
[H]c1c([H])c([H])c2c(c1[H])C([H])([H])C([H])([H])C([H])([H])C2([H])N([H])C(=O)C1([H])N(C(=O)C([H])(N([H])C(=O)C([H])(N([H])C([H])([H])[H])C([H])([H])[H])C(C([H])([H])[H])(C([H])([H])[H])C([H])([H])[H])C([H])([H])c2c([H])c(OC([H])(C([H])([H])[H])C([H])([H])C([H])([H])C([H])([H])C([H])([H])C([H])(C(=O)C([H])([H])C([H])([H])[H])N([H])C(=O)N3C([H])([H])C([H])([H])C([H])([H])C([H])(n4nc(-c5c([H])c([H])c(Oc6c([H])c([H])c(F)c([H])c6F)c([H])c5[H])c(C(=O)N([H])[H])c4N([H])[H])C3([H])[H])c([H])c([H])c2C1([H])[H]

>  <smiles>  (96) 
[H]c1c([H])c([H])c2c(c1[H])C([H])([H])C([H])([H])C([H])([H])C2([H])N([H])C(=O)C1([H])N(C(=O)C([H])(N([H])C(=O)C([H])(N([H])C([H])([H])[H])C([H])([H])[H])C(C([H])([H])[H])(C([H])([H])[H])C([H])([H])[H])C([H])([H])c2c([H])c(OC([H])(C([H])([H])[H])C([H])([H])C([H])([H])C([H])([H])C([H])([H])C([H])(C(=O)C([H])([H])C([H])([H])[H])N([H])C(=O)N3C([H])([H])C([H])([H])C([H])([H])C([H])(n4nc(-c5c([H])c([H])c(Oc6c([H])c([H])c(F)c([H])c6F)c([H])c5[H])c(C(=O)N([H])[H])c4N([H])[H])C3([H])[H])c([H])c([H])c2C1([H])[H]

$$$$
96:0:0
     RDKit          3D

 97105  0  0  1  0  0  0  0  0999 V2000
  -26.1570  -19.2170   19.5030 C   0  0  0  0  0  2  0  0  0  0  0  0
  -26.8660  -18.3890   20.5680 C   0  0  0  0  0  2  0  0  0  0  0  0
  -26.8970  -20.5510   19.3290 C   0  0  0  0  0  2  0  0  0  0  0  0
  -28.3020  -18.0290   20.1380 C   0  0  0  0  0  2  0  0  0  0  0  0
  -28.4560  -20.4580   19.4080 C   0  0  0  0  0  3  0  0  0  0  0  0
  -28.9240  -18.9650   19.0600 C   0  0  0  0  0  3  0  0  0  0  0  0
  -28.9900  -21.7310   18.6740 C   0  0  0  0  0  0  0  0  0  0  0  0
  -28.5880  -22.9220   19.1940 N   0  0  0  0  0  0  0  0  0  0  0  0
  -29.6620  -21.6460   17.6460 O   0  0  0  0  0  0  0  0  0  0  0  0
  -28.0580  -22.8540   20.0530 H   0  0  0  0  0  0  0  0  0  0  0  0
  -28.6570  -24.2890   18.6110 C   0  0  0  0  0  2  0  0  0  0  0  0
  -27.9160  -25.3640   19.4850 C   0  0  0  0  0  2  0  0  0  0  0  0
  -28.0720  -26.7720   19.1150 O   0  0  0  0  0  0  0  0  0  0  0  0
  -24.5470  -31.6070   23.0740 C   0  0  0  0  0  0  0  0  0  0  0  0
  -26.9450  -27.5690   19.2740 C   0  0  0  0  0  0  0  0  0  0  0  0
  -23.2320  -30.4370   21.3390 C   0  0  0  0  0  3  0  0  0  0  0  0
  -24.5790  -29.1030   19.6280 C   0  0  0  0  0  0  0  0  0  0  0  0
  -25.7450  -30.8090   21.0300 C   0  0  0  0  0  2  0  0  0  0  0  0
  -25.7790  -29.5310   20.2070 C   0  0  0  0  0  0  0  0  0  0  0  0
  -26.9680  -28.7750   20.0250 C   0  0  0  0  0  3  0  0  0  0  0  0
  -25.7280  -27.1850   18.6690 C   0  0  0  0  0  3  0  0  0  0  0  0
  -24.5520  -27.9340   18.8490 C   0  0  0  0  0  3  0  0  0  0  0  0
  -23.3470  -29.9480   19.8700 C   0  0  0  0  0  2  0  0  0  0  0  0
  -24.5310  -30.9590   21.8730 N   0  0  0  0  0  0  0  0  0  0  0  0
  -23.5050  -31.8050   23.7130 O   0  0  0  0  0  0  0  0  0  0  0  0
  -22.6320  -29.2980   22.1970 C   0  0  0  0  0  0  0  0  0  0  0  0
  -21.2990  -29.1290   22.1260 N   0  0  0  0  0  0  0  0  0  0  0  0
  -23.3570  -28.5760   22.8850 O   0  0  0  0  0  0  0  0  0  0  0  0
  -20.7700  -29.7710   21.5510 H   0  0  0  0  0  0  0  0  0  0  0  0
  -17.9710  -27.7930   22.5750 C   0  0  0  0  0  0  0  0  0  0  0  0
  -20.5290  -28.0920   22.8130 C   0  0  0  0  0  3  0  0  0  0  0  0
  -20.6530  -26.7330   22.0870 C   0  0  0  0  0  2  0  0  0  0  0  0
  -19.5340  -26.4810   21.0720 C   0  0  0  0  0  2  0  0  0  0  0  0
  -18.1650  -26.5260   21.7580 C   0  0  0  0  0  2  0  0  0  0  0  0
  -19.0820  -28.5350   23.0580 C   0  0  0  0  0  0  0  0  0  0  0  0
  -18.8490  -29.7210   23.7870 C   0  0  0  0  0  3  0  0  0  0  0  0
  -17.5380  -30.1670   24.0390 C   0  0  0  0  0  3  0  0  0  0  0  0
  -16.4430  -29.4210   23.5720 C   0  0  0  0  0  3  0  0  0  0  0  0
  -16.6590  -28.2350   22.8460 C   0  0  0  0  0  3  0  0  0  0  0  0
  -25.8740  -32.1510   23.6890 C   0  0  0  0  0  3  0  0  0  0  0  0
  -25.6210  -33.5240   24.1480 N   0  0  0  0  0  0  0  0  0  0  0  0
  -25.9870  -34.6280   23.4840 C   0  0  0  0  0  0  0  0  0  0  0  0
  -26.6440  -34.5930   22.4400 O   0  0  0  0  0  0  0  0  0  0  0  0
  -25.0410  -33.6270   24.9680 H   0  0  0  0  0  0  0  0  0  0  0  0
  -24.3300  -36.5120   23.3030 C   0  0  0  0  0  1  0  0  0  0  0  0
  -25.5550  -35.9860   24.0690 C   0  0  0  0  0  3  0  0  0  0  0  0
  -27.7230  -36.7060   24.9680 C   0  0  0  0  0  1  0  0  0  0  0  0
  -26.6290  -37.0040   24.0480 N   0  0  0  0  0  0  0  0  0  0  0  0
  -26.2600  -37.9230   24.2810 H   0  0  0  0  0  0  0  0  0  0  0  0
  -26.4230  -31.2620   24.8710 C   0  0  1  0  0  0  0  0  0  0  0  0
  -25.3770  -30.9760   25.9730 C   0  0  0  0  0  1  0  0  0  0  0  0
  -26.9320  -29.9020   24.3380 C   0  0  0  0  0  1  0  0  0  0  0  0
  -27.6360  -31.9570   25.5320 C   0  0  0  0  0  1  0  0  0  0  0  0
  -30.4470  -18.6440   18.7910 C   0  0  0  0  0  2  0  0  0  0  0  0
  -31.2980  -17.4930   19.5120 C   0  0  0  0  0  3  0  0  0  0  0  0
  -31.6220  -14.9710   19.2320 C   0  0  0  0  0  0  0  0  0  0  0  0
  -31.4560  -12.5130   18.9310 C   0  0  0  0  0  2  0  0  0  0  0  0
  -30.4790  -12.2030   17.7760 C   0  0  0  0  0  2  0  0  0  0  0  0
  -29.0280  -12.1420   18.2960 C   0  0  0  0  0  2  0  0  0  0  0  0
  -28.6600  -13.3610   19.1860 C   0  0  0  0  0  3  0  0  0  0  0  0
  -29.7510  -13.6180   20.2500 C   0  0  0  0  0  2  0  0  0  0  0  0
  -31.0270  -13.7820   19.5410 N   0  0  0  0  0  0  0  0  0  0  0  0
  -32.7620  -15.0300   18.7630 O   0  0  0  0  0  0  0  0  0  0  0  0
  -30.8450  -16.0800   19.3450 N   0  0  0  0  0  0  0  0  0  0  0  0
  -29.9150  -15.9050   19.6950 H   0  0  0  0  0  0  0  0  0  0  0  0
  -26.4300  -14.1900   20.1510 C   0  0  0  0  0  0  0  0  0  0  0  0
  -25.3190  -13.5280   20.5960 C   0  0  0  0  0  0  0  0  0  0  0  0
  -25.6130  -12.1370   20.4600 C   0  0  0  0  0  0  0  0  0  0  0  0
  -27.3380  -13.2120   19.7850 N   0  0  0  0  0  0  0  0  0  0  0  0
  -26.8550  -11.9660   20.0250 N   0  0  0  0  0  0  0  0  0  0  0  0
  -24.7610  -10.9590   20.6610 C   0  0  0  0  0  0  0  0  0  0  0  0
  -25.0910   -9.9580   21.6020 C   0  0  0  0  0  3  0  0  0  0  0  0
  -24.2440   -8.8440   21.7870 C   0  0  0  0  0  3  0  0  0  0  0  0
  -23.0550   -8.7240   21.0310 C   0  0  0  0  0  0  0  0  0  0  0  0
  -22.7440   -9.7090   20.0800 C   0  0  0  0  0  3  0  0  0  0  0  0
  -23.5900  -10.8140   19.8920 C   0  0  0  0  0  3  0  0  0  0  0  0
  -22.1850   -7.6660   21.1280 O   0  0  0  0  0  0  0  0  0  0  0  0
  -21.9700   -7.0180   22.3180 C   0  0  0  0  0  0  0  0  0  0  0  0
  -21.4730   -7.6930   23.4560 C   0  0  0  0  0  3  0  0  0  0  0  0
  -21.2030   -6.9740   24.6360 C   0  0  0  0  0  3  0  0  0  0  0  0
  -21.4180   -5.5840   24.6800 C   0  0  0  0  0  0  0  0  0  0  0  0
  -21.9090   -4.9100   23.5490 C   0  0  0  0  0  3  0  0  0  0  0  0
  -22.1810   -5.6260   22.3700 C   0  0  0  0  0  0  0  0  0  0  0  0
  -22.6330   -4.9690   21.2740 F   0  0  0  0  0  0  0  0  0  0  0  0
  -21.1530   -4.8910   25.8130 F   0  0  0  0  0  0  0  0  0  0  0  0
  -24.0230  -14.1480   21.0260 C   0  0  0  0  0  0  0  0  0  0  0  0
  -23.3200  -13.5120   21.9590 N   0  0  0  0  0  0  0  0  0  0  0  0
  -23.6480  -15.2290   20.5730 O   0  0  0  0  0  0  0  0  0  0  0  0
  -23.6430  -12.6370   22.3420 H   0  0  0  0  0  0  0  0  0  0  0  0
  -22.4520  -13.9060   22.2930 H   0  0  0  0  0  0  0  0  0  0  0  0
  -26.7300  -15.5360   20.0010 N   0  0  0  0  0  0  0  0  0  0  0  0
  -26.0420  -16.2560   20.1920 H   0  0  0  0  0  0  0  0  0  0  0  0
  -27.5680  -15.9000   19.5670 H   0  0  0  0  0  0  0  0  0  0  0  0
  -31.4730  -17.7530   21.0260 C   0  0  0  0  0  0  0  0  0  0  0  0
  -31.1090  -16.9380   21.8810 O   0  0  0  0  0  0  0  0  0  0  0  0
  -31.2290  -19.9020   22.3870 C   0  0  0  0  0  1  0  0  0  0  0  0
  -32.1410  -19.0570   21.4770 C   0  0  0  0  0  2  0  0  0  0  0  0
  1  2  1  0
  3  5  1  0
  3  1  1  0
  4  2  1  0
  5  7  1  0
  6 54  1  0
  6  5  1  0
  6  4  1  0
  7  8  1  0
  8 10  1  0
  9  7  2  0
 11  8  1  0
 11 12  1  0
 13 15  1  0
 13 12  1  0
 14 25  2  0
 15 20  1  0
 16 24  1  0
 16 26  1  0
 17 23  1  0
 17 19  1  0
 18 24  1  0
 19 18  1  0
 20 19  2  0
 21 22  1  0
 21 15  2  0
 22 17  2  0
 23 16  1  0
 24 14  1  0
 26 28  2  0
 27 26  1  0
 29 27  1  0
 30 39  2  0
 30 35  1  0
 31 27  1  0
 31 35  1  0
 32 31  1  0
 33 34  1  0
 33 32  1  0
 34 30  1  0
 35 36  2  0
 36 37  1  0
 38 37  2  0
 39 38  1  0
 40 14  1  0
 40 41  1  0
 40 50  1  0
 41 44  1  0
 42 46  1  0
 42 41  1  0
 43 42  2  0
 46 45  1  0
 48 46  1  0
 48 49  1  0
 48 47  1  0
 50 53  1  1
 50 51  1  0
 52 50  1  0
 55 54  1  0
 55 94  1  0
 56 64  1  0
 56 62  1  0
 57 62  1  0
 58 59  1  0
 58 57  1  0
 60 59  1  0
 60 69  1  0
 60 61  1  0
 62 61  1  0
 63 56  2  0
 64 55  1  0
 64 65  1  0
 66 67  2  0
 67 86  1  0
 68 67  1  0
 68 71  1  0
 69 70  1  0
 69 66  1  0
 70 68  2  0
 71 72  1  0
 72 73  2  0
 74 77  1  0
 74 73  1  0
 75 74  2  0
 76 75  1  0
 76 71  2  0
 77 78  1  0
 78 83  2  0
 78 79  1  0
 79 80  2  0
 80 81  1  0
 81 85  1  0
 82 81  2  0
 83 82  1  0
 84 83  1  0
 86 87  1  0
 87 90  1  0
 87 89  1  0
 88 86  2  0
 91 66  1  0
 91 92  1  0
 93 91  1  0
 94 97  1  0
 94 95  2  0
 97 96  1  0
M  ISO  4  12 101  13 101  56 100  64 100
M  END
>  <TORSDO>  (97) 
F 23

>  <SCORE>  (97) 
-10.174

>  <name>  (97) 
96

>  <ligand_id>  (97) 
96

>  <original_smiles>  (97) 
[H]c1c([H])c([H])c2c(c1[H])C([H])([H])C([H])([H])C([H])([H])C2([H])N([H])C(=O)C1([H])N(C(=O)C([H])(N([H])C(=O)C([H])(N([H])C([H])([H])[H])C([H])([H])[H])C(C([H])([H])[H])(C([H])([H])[H])C([H])([H])[H])C([H])([H])c2c([H])c(OC([H])([H])C([H])([H])N([H])C(=O)C3([H])C([H])([H])C([H])([H])C([H])([H])C([H])([H])C3([H])C([H])([H])C([H])(C(=O)C([H])([H])C([H])([H])[H])N([H])C(=O)N3C([H])([H])C([H])([H])C([H])([H])C([H])(n4nc(-c5c([H])c([H])c(Oc6c([H])c([H])c(F)c([H])c6F)c([H])c5[H])c(C(=O)N([H])[H])c4N([H])[H])C3([H])[H])c([H])c([H])c2C1([H])[H]

>  <smiles>  (97) 
[H]c1c([H])c([H])c2c(c1[H])C([H])([H])C([H])([H])C([H])([H])C2([H])N([H])C(=O)C1([H])N(C(=O)C([H])(N([H])C(=O)C([H])(N([H])C([H])([H])[H])C([H])([H])[H])C(C([H])([H])[H])(C([H])([H])[H])C([H])([H])[H])C([H])([H])c2c([H])c(OC([H])([H])C([H])([H])N([H])C(=O)C3([H])C([H])([H])C([H])([H])C([H])([H])C([H])([H])C3([H])C([H])([H])C([H])(C(=O)C([H])([H])C([H])([H])[H])N([H])C(=O)N3C([H])([H])C([H])([H])C([H])([H])C([H])(n4nc(-c5c([H])c([H])c(Oc6c([H])c([H])c(F)c([H])c6F)c([H])c5[H])c(C(=O)N([H])[H])c4N([H])[H])C3([H])[H])c([H])c([H])c2C1([H])[H]

$$$$
97:0:0
     RDKit          3D

 92100  0  0  1  0  0  0  0  0999 V2000
  -28.6200  -19.6220   19.5530 C   0  0  0  0  0  0  0  0  0  0  0  0
  -28.8870  -23.7820   20.5960 C   0  0  0  0  0  2  0  0  0  0  0  0
  -27.6940  -23.6050   18.6260 C   0  0  0  0  0  2  0  0  0  0  0  0
  -28.9710  -22.1150   20.7620 C   0  0  0  0  0  2  0  0  0  0  0  0
  -27.5930  -21.9620   18.8310 C   0  0  0  0  0  2  0  0  0  0  0  0
  -27.7170  -24.6320   19.8550 C   0  0  0  0  0  3  0  0  0  0  0  0
  -28.5280  -21.1020   19.7030 N   0  0  0  0  0  0  0  0  0  0  0  0
  -27.8570  -19.1480   18.7090 O   0  0  0  0  0  0  0  0  0  0  0  0
  -27.8380  -26.2490   19.7080 O   0  0  0  0  0  0  0  0  0  0  0  0
  -24.5100  -32.0030   23.1830 C   0  0  0  0  0  0  0  0  0  0  0  0
  -26.7910  -27.2850   19.7970 C   0  0  0  0  0  0  0  0  0  0  0  0
  -23.1780  -30.6820   21.5850 C   0  0  0  0  0  3  0  0  0  0  0  0
  -24.4970  -29.1270   19.9990 C   0  0  0  0  0  0  0  0  0  0  0  0
  -25.7220  -30.9010   21.2430 C   0  0  0  0  0  2  0  0  0  0  0  0
  -25.7280  -29.5210   20.5370 C   0  0  0  0  0  0  0  0  0  0  0  0
  -26.8710  -28.6220   20.4090 C   0  0  0  0  0  3  0  0  0  0  0  0
  -25.5250  -27.0190   19.2340 C   0  0  0  0  0  3  0  0  0  0  0  0
  -24.4130  -27.8950   19.3300 C   0  0  0  0  0  3  0  0  0  0  0  0
  -23.2940  -30.0490   20.1690 C   0  0  0  0  0  2  0  0  0  0  0  0
  -24.4950  -31.2210   22.0560 N   0  0  0  0  0  0  0  0  0  0  0  0
  -23.4670  -32.2740   23.8010 O   0  0  0  0  0  0  0  0  0  0  0  0
  -22.5550  -29.6520   22.5620 C   0  0  0  0  0  0  0  0  0  0  0  0
  -21.2370  -29.4060   22.4480 N   0  0  0  0  0  0  0  0  0  0  0  0
  -23.2640  -29.0730   23.3890 O   0  0  0  0  0  0  0  0  0  0  0  0
  -20.7160  -29.9250   21.7540 H   0  0  0  0  0  0  0  0  0  0  0  0
  -17.9530  -27.9380   22.9160 C   0  0  0  0  0  0  0  0  0  0  0  0
  -20.4770  -28.4250   23.2280 C   0  0  0  0  0  3  0  0  0  0  0  0
  -20.7110  -26.9900   22.6980 C   0  0  0  0  0  2  0  0  0  0  0  0
  -19.6630  -26.5480   21.6720 C   0  0  0  0  0  2  0  0  0  0  0  0
  -18.2580  -26.5930   22.2800 C   0  0  0  0  0  2  0  0  0  0  0  0
  -18.9940  -28.8050   23.3470 C   0  0  0  0  0  0  0  0  0  0  0  0
  -18.6540  -30.0590   23.9010 C   0  0  0  0  0  3  0  0  0  0  0  0
  -17.3080  -30.4480   24.0300 C   0  0  0  0  0  3  0  0  0  0  0  0
  -16.2820  -29.5820   23.6130 C   0  0  0  0  0  3  0  0  0  0  0  0
  -16.6070  -28.3290   23.0640 C   0  0  0  0  0  3  0  0  0  0  0  0
  -25.8330  -32.6070   23.7420 C   0  0  0  0  0  3  0  0  0  0  0  0
  -26.4040  -31.8100   24.9810 C   0  0  1  0  0  0  0  0  0  0  0  0
  -25.3670  -31.5720   26.1020 C   0  0  0  0  0  1  0  0  0  0  0  0
  -26.9450  -30.4300   24.5420 C   0  0  0  0  0  1  0  0  0  0  0  0
  -27.6030  -32.5750   25.5900 C   0  0  0  0  0  1  0  0  0  0  0  0
  -25.5680  -34.0060   24.1200 N   0  0  0  0  0  0  0  0  0  0  0  0
  -25.9010  -35.0760   23.3850 C   0  0  0  0  0  0  0  0  0  0  0  0
  -26.5260  -34.9870   22.3260 O   0  0  0  0  0  0  0  0  0  0  0  0
  -25.0130  -34.1500   24.9500 H   0  0  0  0  0  0  0  0  0  0  0  0
  -24.2180  -36.9340   23.1520 C   0  0  0  0  0  1  0  0  0  0  0  0
  -25.4750  -36.4640   23.9040 C   0  0  0  0  0  3  0  0  0  0  0  0
  -27.6590  -37.2670   24.6900 C   0  0  0  0  0  1  0  0  0  0  0  0
  -26.5350  -37.4910   23.7850 N   0  0  0  0  0  0  0  0  0  0  0  0
  -26.1580  -38.4190   23.9650 H   0  0  0  0  0  0  0  0  0  0  0  0
  -29.5580  -18.3520   20.2380 C   0  0  0  0  0  0  0  0  0  0  0  0
  -30.1800  -15.5100   19.9150 C   0  0  0  0  0  0  0  0  0  0  0  0
  -30.1740  -13.0930   19.0030 C   0  0  0  0  0  2  0  0  0  0  0  0
  -29.1840  -12.8930   17.8300 C   0  0  0  0  0  2  0  0  0  0  0  0
  -27.7700  -12.5790   18.3560 C   0  0  0  0  0  2  0  0  0  0  0  0
  -27.3620  -13.5140   19.5220 C   0  0  0  0  0  3  0  0  0  0  0  0
  -28.4740  -13.6680   20.5800 C   0  0  0  0  0  2  0  0  0  0  0  0
  -29.6510  -14.1980   19.8780 N   0  0  0  0  0  0  0  0  0  0  0  0
  -31.3830  -15.5720   19.6300 O   0  0  0  0  0  0  0  0  0  0  0  0
  -29.3650  -16.7160   20.0860 N   0  0  0  0  0  4  0  0  0  0  0  0
  -28.3910  -16.4710   20.1750 H   0  0  0  0  0  0  0  0  0  0  0  0
  -25.0270  -13.9770   20.4410 C   0  0  0  0  0  0  0  0  0  0  0  0
  -24.0180  -13.1530   20.8580 C   0  0  0  0  0  0  0  0  0  0  0  0
  -24.5300  -11.8220   20.7670 C   0  0  0  0  0  0  0  0  0  0  0  0
  -26.0810  -13.1440   20.1110 N   0  0  0  0  0  0  0  0  0  0  0  0
  -25.7980  -11.8420   20.3740 N   0  0  0  0  0  0  0  0  0  0  0  0
  -23.8610  -10.5300   20.9700 C   0  0  0  0  0  0  0  0  0  0  0  0
  -24.3500   -9.5830   21.8960 C   0  0  0  0  0  3  0  0  0  0  0  0
  -23.6780   -8.3570   22.0900 C   0  0  0  0  0  3  0  0  0  0  0  0
  -22.5020   -8.0690   21.3560 C   0  0  0  0  0  0  0  0  0  0  0  0
  -22.0330   -9.0050   20.4190 C   0  0  0  0  0  3  0  0  0  0  0  0
  -22.7060  -10.2220   20.2230 C   0  0  0  0  0  3  0  0  0  0  0  0
  -21.7980   -6.8940   21.4590 O   0  0  0  0  0  0  0  0  0  0  0  0
  -21.7580   -6.1790   22.6290 C   0  0  0  0  0  0  0  0  0  0  0  0
  -21.2390   -6.7300   23.8220 C   0  0  0  0  0  3  0  0  0  0  0  0
  -21.1530   -5.9370   24.9840 C   0  0  0  0  0  3  0  0  0  0  0  0
  -21.5750   -4.5950   24.9540 C   0  0  0  0  0  0  0  0  0  0  0  0
  -22.0870   -4.0430   23.7670 C   0  0  0  0  0  3  0  0  0  0  0  0
  -22.1750   -4.8320   22.6070 C   0  0  0  0  0  0  0  0  0  0  0  0
  -22.6490   -4.2910   21.4590 F   0  0  0  0  0  0  0  0  0  0  0  0
  -21.4860   -3.8310   26.0680 F   0  0  0  0  0  0  0  0  0  0  0  0
  -22.6240  -13.5730   21.2210 C   0  0  0  0  0  0  0  0  0  0  0  0
  -21.9850  -12.8480   22.1310 N   0  0  0  0  0  0  0  0  0  0  0  0
  -22.1120  -14.5800   20.7340 O   0  0  0  0  0  0  0  0  0  0  0  0
  -22.4130  -12.0330   22.5460 H   0  0  0  0  0  0  0  0  0  0  0  0
  -21.0530  -13.1110   22.4190 H   0  0  0  0  0  0  0  0  0  0  0  0
  -25.1260  -15.3560   20.2850 N   0  0  0  0  0  0  0  0  0  0  0  0
  -24.3380  -15.9720   20.4530 H   0  0  0  0  0  0  0  0  0  0  0  0
  -25.9150  -15.8330   19.8670 H   0  0  0  0  0  0  0  0  0  0  0  0
  -29.8790  -18.6780   21.7180 C   0  0  0  0  0  2  0  0  0  0  0  0
  -31.5000  -18.9640   23.6370 C   0  0  0  0  0  1  0  0  0  0  0  0
  -32.2700  -19.5290   21.3040 C   0  0  0  0  0  1  0  0  0  0  0  0
  -31.3630  -18.6120   22.1460 C   0  0  0  0  0  3  0  0  0  0  0  0
  1  7  1  0
  1 50  1  0
  2  4  1  0
  3  5  1  0
  3  6  1  0
  5  7  1  0
  6  9  1  0
  6  2  1  0
  7  4  1  0
  8  1  2  0
  9 11  1  0
 10 21  2  0
 11 16  1  0
 12 20  1  0
 12 22  1  0
 13 19  1  0
 13 15  1  0
 14 20  1  0
 15 14  1  0
 16 15  2  0
 17 18  1  0
 17 11  2  0
 18 13  2  0
 19 12  1  0
 20 10  1  0
 22 24  2  0
 23 22  1  0
 25 23  1  0
 26 35  2  0
 26 31  1  0
 27 23  1  0
 27 31  1  0
 28 27  1  0
 29 30  1  0
 29 28  1  0
 30 26  1  0
 31 32  2  0
 32 33  1  0
 34 33  2  0
 35 34  1  0
 36 10  1  0
 36 41  1  0
 36 37  1  0
 37 40  1  1
 37 38  1  0
 39 37  1  0
 41 44  1  0
 42 46  1  0
 42 41  1  0
 43 42  2  0
 46 45  1  0
 48 46  1  0
 48 49  1  0
 48 47  1  0
 50 89  1  0
 51 59  1  0
 52 57  1  0
 53 54  1  0
 53 52  1  0
 55 54  1  0
 55 64  1  0
 55 56  1  0
 57 51  1  0
 57 56  1  0
 58 51  2  0
 59 60  1  0
 59 50  2  0
 61 62  2  0
 62 81  1  0
 63 62  1  0
 63 66  1  0
 64 65  1  0
 64 61  1  0
 65 63  2  0
 66 67  1  0
 67 68  2  0
 69 72  1  0
 69 68  1  0
 70 69  2  0
 71 70  1  0
 71 66  2  0
 72 73  1  0
 73 74  1  0
 74 75  2  0
 76 75  1  0
 76 80  1  0
 77 76  2  0
 78 73  2  0
 78 77  1  0
 79 78  1  0
 81 82  1  0
 82 85  1  0
 82 84  1  0
 83 81  2  0
 86 61  1  0
 86 87  1  0
 88 86  1  0
 89 92  1  0
 91 92  1  0
 92 90  1  0
M  ISO  4   6 101   9 101  51 100  59 100
M  END
>  <TORSDO>  (98) 
F 19

>  <SCORE>  (98) 
-13.685

>  <name>  (98) 
97

>  <ligand_id>  (98) 
97

>  <original_smiles>  (98) 
[H]c1c([H])c([H])c2c(c1[H])C([H])([H])C([H])([H])C([H])([H])C2([H])N([H])C(=O)C1([H])N(C(=O)C([H])(N([H])C(=O)C([H])(N([H])C([H])([H])[H])C([H])([H])[H])C(C([H])([H])[H])(C([H])([H])[H])C([H])([H])[H])C([H])([H])c2c([H])c(OC3([H])C([H])([H])C([H])([H])N(C(=O)C([H])(N([H])C(=O)N4C([H])([H])C([H])([H])C([H])([H])C([H])(n5nc(-c6c([H])c([H])c(Oc7c([H])c([H])c(F)c([H])c7F)c([H])c6[H])c(C(=O)N([H])[H])c5N([H])[H])C4([H])[H])C([H])([H])C([H])(C([H])([H])[H])C([H])([H])[H])C([H])([H])C3([H])[H])c([H])c([H])c2C1([H])[H]

>  <smiles>  (98) 
[H]c1c([H])c([H])c2c(c1[H])C([H])([H])C([H])([H])C([H])([H])C2([H])N([H])C(=O)C1([H])N(C(=O)C([H])(N([H])C(=O)C([H])(N([H])C([H])([H])[H])C([H])([H])[H])C(C([H])([H])[H])(C([H])([H])[H])C([H])([H])[H])C([H])([H])c2c([H])c(OC3([H])C([H])([H])C([H])([H])N(C(=O)C([H])(N([H])C(=O)N4C([H])([H])C([H])([H])C([H])([H])C([H])(n5nc(-c6c([H])c([H])c(Oc7c([H])c([H])c(F)c([H])c7F)c([H])c6[H])c(C(=O)N([H])[H])c5N([H])[H])C4([H])[H])C([H])([H])C([H])(C([H])([H])[H])C([H])([H])[H])C([H])([H])C3([H])[H])c([H])c([H])c2C1([H])[H]

$$$$
