0:0:0
     RDKit          3D

 94102  0  0  1  0  0  0  0  0999 V2000
  -30.5780  -20.1870   20.9770 C   0  0  0  0  0  2  0  0  0  0  0  0
  -28.3730  -19.5990   20.2580 C   0  0  0  0  0  2  0  0  0  0  0  0
  -30.3890  -21.6620   20.4160 C   0  0  0  0  0  2  0  0  0  0  0  0
  -28.1700  -21.1210   19.7400 C   0  0  0  0  0  2  0  0  0  0  0  0
  -29.8320  -18.9770   20.2750 C   0  0  0  0  0  3  0  0  0  0  0  0
  -28.9880  -22.2110   20.4100 N   0  0  2  0  0  4  0  0  0  0  0  0
  -28.6930  -22.2540   21.3750 H   0  0  0  0  0  0  0  0  0  0  0  0
  -28.8970  -23.6780   19.8340 C   0  0  0  0  0  3  0  0  0  0  0  0
  -28.0770  -24.9040   20.5630 C   0  0  0  0  0  3  0  0  0  0  0  0
  -28.2810  -26.3850   20.2200 O   0  0  0  0  0  0  0  0  0  0  0  0
  -24.6130  -31.9530   23.2410 C   0  0  0  0  0  0  0  0  0  0  0  0
  -27.1890  -27.2980   20.2070 C   0  0  0  0  0  0  0  0  0  0  0  0
  -23.4030  -30.5490   21.6140 C   0  0  0  0  0  3  0  0  0  0  0  0
  -24.8440  -28.9790   20.1870 C   0  0  0  0  0  0  0  0  0  0  0  0
  -25.9480  -30.8410   21.4230 C   0  0  0  0  0  2  0  0  0  0  0  0
  -26.0220  -29.4510   20.7810 C   0  0  0  0  0  0  0  0  0  0  0  0
  -27.1990  -28.6270   20.7720 C   0  0  0  0  0  3  0  0  0  0  0  0
  -25.9900  -26.9070   19.5780 C   0  0  0  0  0  3  0  0  0  0  0  0
  -24.8360  -27.7180   19.5720 C   0  0  0  0  0  3  0  0  0  0  0  0
  -23.6130  -29.8660   20.2370 C   0  0  0  0  0  2  0  0  0  0  0  0
  -24.6750  -31.1340   22.1490 N   0  0  0  0  0  0  0  0  0  0  0  0
  -23.5320  -32.2350   23.7780 O   0  0  0  0  0  0  0  0  0  0  0  0
  -22.7390  -29.5390   22.5830 C   0  0  0  0  0  0  0  0  0  0  0  0
  -21.4130  -29.3530   22.4560 N   0  0  0  0  0  0  0  0  0  0  0  0
  -23.4180  -28.9270   23.4120 O   0  0  0  0  0  0  0  0  0  0  0  0
  -20.9240  -29.9000   21.7610 H   0  0  0  0  0  0  0  0  0  0  0  0
  -18.0420  -28.1390   22.9700 C   0  0  0  0  0  0  0  0  0  0  0  0
  -20.6000  -28.4160   23.2340 C   0  0  0  0  0  3  0  0  0  0  0  0
  -20.7080  -26.9810   22.6670 C   0  0  0  0  0  2  0  0  0  0  0  0
  -19.6070  -26.6460   21.6570 C   0  0  0  0  0  2  0  0  0  0  0  0
  -18.2250  -26.7870   22.3020 C   0  0  0  0  0  2  0  0  0  0  0  0
  -19.1560  -28.9110   23.3930 C   0  0  0  0  0  0  0  0  0  0  0  0
  -18.9300  -30.1750   23.9790 C   0  0  0  0  0  3  0  0  0  0  0  0
  -17.6230  -30.6680   24.1460 C   0  0  0  0  0  3  0  0  0  0  0  0
  -16.5220  -29.8940   23.7380 C   0  0  0  0  0  3  0  0  0  0  0  0
  -16.7330  -28.6320   23.1560 C   0  0  0  0  0  3  0  0  0  0  0  0
  -25.8960  -32.5900   23.8570 C   0  0  0  0  0  3  0  0  0  0  0  0
  -25.5840  -33.9890   24.1910 N   0  0  0  0  0  0  0  0  0  0  0  0
  -25.9180  -35.0460   23.4400 C   0  0  0  0  0  0  0  0  0  0  0  0
  -26.5900  -34.9470   22.4100 O   0  0  0  0  0  0  0  0  0  0  0  0
  -24.9880  -34.1390   24.9920 H   0  0  0  0  0  0  0  0  0  0  0  0
  -24.2050  -36.8530   23.0810 C   0  0  0  0  0  1  0  0  0  0  0  0
  -25.4320  -36.4340   23.9050 C   0  0  0  0  0  3  0  0  0  0  0  0
  -27.5570  -37.3020   24.7770 C   0  0  0  0  0  1  0  0  0  0  0  0
  -26.4720  -37.4820   23.8170 N   0  0  0  0  0  0  0  0  0  0  0  0
  -26.0680  -38.4030   23.9640 H   0  0  0  0  0  0  0  0  0  0  0  0
  -26.4210  -31.8210   25.1320 C   0  0  1  0  0  0  0  0  0  0  0  0
  -25.3300  -31.5650   26.1980 C   0  0  0  0  0  1  0  0  0  0  0  0
  -27.0240  -30.4540   24.7380 C   0  0  0  0  0  1  0  0  0  0  0  0
  -27.5600  -32.6300   25.7980 C   0  0  0  0  0  1  0  0  0  0  0  0
  -30.1130  -17.4750   20.9760 C   0  0  0  0  0  0  0  0  0  0  0  0
  -30.4770  -14.9240   20.0570 C   0  0  0  0  0  0  0  0  0  0  0  0
  -30.2590  -12.6680   18.9630 C   0  0  0  0  0  2  0  0  0  0  0  0
  -29.2450  -12.7180   17.7990 C   0  0  0  0  0  2  0  0  0  0  0  0
  -27.8110  -12.4920   18.3180 C   0  0  0  0  0  2  0  0  0  0  0  0
  -27.4880  -13.3450   19.5740 C   0  0  0  0  0  3  0  0  0  0  0  0
  -28.6160  -13.2760   20.6240 C   0  0  0  0  0  2  0  0  0  0  0  0
  -29.8500  -13.6970   19.9520 N   0  0  0  0  0  0  0  0  0  0  0  0
  -31.6570  -15.0180   19.7040 O   0  0  0  0  0  0  0  0  0  0  0  0
  -29.7390  -16.0750   20.3890 N   0  0  0  0  0  4  0  0  0  0  0  0
  -28.7530  -15.8750   20.4730 H   0  0  0  0  0  0  0  0  0  0  0  0
  -25.1440  -13.8670   20.4650 C   0  0  0  0  0  0  0  0  0  0  0  0
  -24.1170  -13.0640   20.8780 C   0  0  0  0  0  0  0  0  0  0  0  0
  -24.6020  -11.7230   20.7860 C   0  0  0  0  0  0  0  0  0  0  0  0
  -26.1860  -13.0140   20.1420 N   0  0  0  0  0  0  0  0  0  0  0  0
  -25.8730  -11.7190   20.4000 N   0  0  0  0  0  0  0  0  0  0  0  0
  -23.9100  -10.4430   20.9860 C   0  0  0  0  0  0  0  0  0  0  0  0
  -24.3650   -9.4960   21.9290 C   0  0  0  0  0  3  0  0  0  0  0  0
  -23.6710   -8.2810   22.1160 C   0  0  0  0  0  3  0  0  0  0  0  0
  -22.5060   -8.0050   21.3600 C   0  0  0  0  0  0  0  0  0  0  0  0
  -22.0700   -8.9430   20.4080 C   0  0  0  0  0  3  0  0  0  0  0  0
  -22.7650  -10.1480   20.2190 C   0  0  0  0  0  3  0  0  0  0  0  0
  -21.7810   -6.8420   21.4570 O   0  0  0  0  0  0  0  0  0  0  0  0
  -21.7020   -6.1390   22.6330 C   0  0  0  0  0  0  0  0  0  0  0  0
  -21.1730   -6.7120   23.8090 C   0  0  0  0  0  3  0  0  0  0  0  0
  -21.0450   -5.9320   24.9760 C   0  0  0  0  0  3  0  0  0  0  0  0
  -21.4370   -4.5810   24.9660 C   0  0  0  0  0  0  0  0  0  0  0  0
  -21.9570   -4.0060   23.7940 C   0  0  0  0  0  3  0  0  0  0  0  0
  -22.0870   -4.7840   22.6300 C   0  0  0  0  0  0  0  0  0  0  0  0
  -22.5700   -4.2200   21.4970 F   0  0  0  0  0  0  0  0  0  0  0  0
  -21.3070   -3.8290   26.0850 F   0  0  0  0  0  0  0  0  0  0  0  0
  -22.7300  -13.5090   21.2400 C   0  0  0  0  0  0  0  0  0  0  0  0
  -22.0570  -12.7710   22.1170 N   0  0  0  0  0  0  0  0  0  0  0  0
  -22.2510  -14.5460   20.7810 O   0  0  0  0  0  0  0  0  0  0  0  0
  -22.4580  -11.9340   22.5110 H   0  0  0  0  0  0  0  0  0  0  0  0
  -21.1280  -13.0510   22.3970 H   0  0  0  0  0  0  0  0  0  0  0  0
  -25.2690  -15.2450   20.3110 N   0  0  0  0  0  0  0  0  0  0  0  0
  -24.4900  -15.8730   20.4760 H   0  0  0  0  0  0  0  0  0  0  0  0
  -26.0710  -15.7070   19.9020 H   0  0  0  0  0  0  0  0  0  0  0  0
  -31.5040  -17.3990   21.6700 C   0  0  0  0  0  2  0  0  0  0  0  0
  -32.6230  -17.4950   20.7190 N   0  0  0  0  0  4  0  0  0  0  0  0
  -32.5500  -16.7000   20.0910 H   0  0  0  0  0  0  0  0  0  0  0  0
  -33.5010  -17.4390   21.2040 H   0  0  0  0  0  0  0  0  0  0  0  0
  -32.5980  -18.3430   20.1840 H   0  0  0  0  0  0  0  0  0  0  0  0
  2  5  1  0
  3  1  1  0
  4  2  1  0
  4  6  1  0
  5 51  1  0
  5  1  1  0
  6  3  1  0
  6  7  1  1
  8  6  1  0
  8  9  2  0
 10  9  1  0
 11 22  2  0
 12 10  1  0
 12 17  1  0
 13 21  1  0
 13 23  1  0
 14 20  1  0
 14 16  1  0
 15 21  1  0
 16 15  1  0
 17 16  2  0
 18 12  2  0
 19 18  1  0
 19 14  2  0
 20 13  1  0
 21 11  1  0
 23 25  2  0
 24 23  1  0
 26 24  1  0
 27 36  2  0
 27 32  1  0
 28 24  1  0
 28 32  1  0
 29 28  1  0
 30 31  1  0
 30 29  1  0
 31 27  1  0
 32 33  2  0
 33 34  1  0
 35 34  2  0
 36 35  1  0
 37 11  1  0
 37 38  1  0
 37 47  1  0
 38 41  1  0
 39 43  1  0
 39 38  1  0
 40 39  2  0
 43 42  1  0
 45 43  1  0
 45 46  1  0
 45 44  1  0
 47 50  1  1
 47 48  1  0
 49 47  1  0
 51 90  1  0
 52 60  1  0
 53 58  1  0
 54 55  1  0
 54 53  1  0
 56 55  1  0
 56 65  1  0
 56 57  1  0
 58 52  1  0
 58 57  1  0
 59 52  2  0
 60 61  1  0
 60 51  2  0
 62 63  2  0
 63 82  1  0
 64 63  1  0
 64 67  1  0
 65 66  1  0
 65 62  1  0
 66 64  2  0
 67 68  1  0
 68 69  2  0
 70 73  1  0
 70 69  1  0
 71 70  2  0
 72 71  1  0
 72 67  2  0
 73 74  1  0
 74 75  1  0
 75 76  2  0
 77 76  1  0
 77 81  1  0
 78 77  2  0
 79 74  2  0
 79 78  1  0
 80 79  1  0
 82 83  1  0
 83 86  1  0
 83 85  1  0
 84 82  2  0
 87 62  1  0
 87 88  1  0
 89 87  1  0
 91 93  1  0
 91 90  1  0
 92 91  1  0
 94 91  1  0
M  ISO  4   9 101  10 101  52 100  60 100
M  END
>  <TORSDO>  (1) 
F 21

>  <SCORE>  (1) 
-13.438

>  <name>  (1) 
0

>  <ligand_id>  (1) 
0

>  <original_smiles>  (1) 
[H]c1c([H])c([H])c2c(c1[H])C([H])([H])C([H])([H])C([H])([H])C2([H])N([H])C(=O)C1([H])N(C(=O)C([H])(N([H])C(=O)C([H])(N([H])C([H])([H])[H])C([H])([H])[H])C(C([H])([H])[H])(C([H])([H])[H])C([H])([H])[H])C([H])([H])c2c([H])c(OC([H])([H])C([H])([H])[N+]3([H])C([H])([H])C([H])([H])C([H])(C([H])(N([H])C(=O)N4C([H])([H])C([H])([H])C([H])([H])C([H])(n5nc(-c6c([H])c([H])c(Oc7c([H])c([H])c(F)c([H])c7F)c([H])c6[H])c(C(=O)N([H])[H])c5N([H])[H])C4([H])[H])C([H])([H])[N+]([H])([H])[H])C([H])([H])C3([H])[H])c([H])c([H])c2C1([H])[H]

>  <smiles>  (1) 
[H]c1c([H])c([H])c2c(c1[H])C([H])([H])C([H])([H])C([H])([H])C2([H])N([H])C(=O)C1([H])N(C(=O)C([H])(N([H])C(=O)C([H])(N([H])C([H])([H])[H])C([H])([H])[H])C(C([H])([H])[H])(C([H])([H])[H])C([H])([H])[H])C([H])([H])c2c([H])c(OC([H])([H])C([H])([H])[N+]3([H])C([H])([H])C([H])([H])C([H])(C([H])(N([H])C(=O)N4C([H])([H])C([H])([H])C([H])([H])C([H])(n5nc(-c6c([H])c([H])c(Oc7c([H])c([H])c(F)c([H])c7F)c([H])c6[H])c(C(=O)N([H])[H])c5N([H])[H])C4([H])[H])C([H])([H])[N+]([H])([H])[H])C([H])([H])C3([H])[H])c([H])c([H])c2C1([H])[H]

$$$$
1:0:0
     RDKit          3D

 90 98  0  0  1  0  0  0  0  0999 V2000
  -30.1490  -21.8900   19.4440 C   0  0  0  0  0  2  0  0  0  0  0  0
  -27.9230  -21.9090   20.1520 C   0  0  0  0  0  2  0  0  0  0  0  0
  -30.3800  -20.4390   20.0190 C   0  0  0  0  0  2  0  0  0  0  0  0
  -28.0760  -20.4630   20.7440 C   0  0  0  0  0  2  0  0  0  0  0  0
  -29.1730  -22.6880   20.2220 N   0  0  0  0  0  0  0  0  0  0  0  0
  -29.1190  -19.6320   20.0590 N   0  0  2  0  0  4  0  0  0  0  0  0
  -28.8140  -19.5410   19.1020 H   0  0  0  0  0  0  0  0  0  0  0  0
  -29.0370  -24.0860   19.6860 C   0  0  0  0  0  3  0  0  0  0  0  0
  -28.2740  -25.1550   20.5720 C   0  0  0  0  0  3  0  0  0  0  0  0
  -28.4140  -26.5660   20.1770 O   0  0  0  0  0  0  0  0  0  0  0  0
  -24.6070  -31.8660   23.2070 C   0  0  0  0  0  0  0  0  0  0  0  0
  -27.2720  -27.3620   20.1620 C   0  0  0  0  0  0  0  0  0  0  0  0
  -23.4200  -30.4640   21.5540 C   0  0  0  0  0  3  0  0  0  0  0  0
  -24.8870  -28.9210   20.1370 C   0  0  0  0  0  0  0  0  0  0  0  0
  -25.9540  -30.8090   21.3790 C   0  0  0  0  0  2  0  0  0  0  0  0
  -26.0450  -29.4320   20.7370 C   0  0  0  0  0  0  0  0  0  0  0  0
  -27.2420  -28.6660   20.7350 C   0  0  0  0  0  3  0  0  0  0  0  0
  -26.0930  -26.8880   19.5410 C   0  0  0  0  0  3  0  0  0  0  0  0
  -24.9100  -27.6540   19.5310 C   0  0  0  0  0  3  0  0  0  0  0  0
  -23.6430  -29.7860   20.1760 C   0  0  0  0  0  2  0  0  0  0  0  0
  -24.6790  -31.0640   22.1050 N   0  0  0  0  0  0  0  0  0  0  0  0
  -23.5190  -32.1350   23.7380 O   0  0  0  0  0  0  0  0  0  0  0  0
  -22.7560  -29.4450   22.5120 C   0  0  0  0  0  0  0  0  0  0  0  0
  -21.4290  -29.2760   22.3890 N   0  0  0  0  0  0  0  0  0  0  0  0
  -23.4330  -28.8050   23.3180 O   0  0  0  0  0  0  0  0  0  0  0  0
  -20.9430  -29.8410   21.7070 H   0  0  0  0  0  0  0  0  0  0  0  0
  -18.0420  -28.1180   22.8990 C   0  0  0  0  0  0  0  0  0  0  0  0
  -20.6060  -28.3350   23.1500 C   0  0  0  0  0  3  0  0  0  0  0  0
  -20.6850  -26.9110   22.5510 C   0  0  0  0  0  2  0  0  0  0  0  0
  -19.5660  -26.6210   21.5430 C   0  0  0  0  0  2  0  0  0  0  0  0
  -18.1930  -26.7780   22.1990 C   0  0  0  0  0  2  0  0  0  0  0  0
  -19.1770  -28.8560   23.3300 C   0  0  0  0  0  0  0  0  0  0  0  0
  -18.9790  -30.1160   23.9380 C   0  0  0  0  0  3  0  0  0  0  0  0
  -17.6830  -30.6330   24.1200 C   0  0  0  0  0  3  0  0  0  0  0  0
  -16.5650  -29.8900   23.7050 C   0  0  0  0  0  3  0  0  0  0  0  0
  -16.7450  -28.6330   23.1000 C   0  0  0  0  0  3  0  0  0  0  0  0
  -25.8820  -32.4990   23.8430 C   0  0  0  0  0  3  0  0  0  0  0  0
  -26.3800  -31.7350   25.1320 C   0  0  1  0  0  0  0  0  0  0  0  0
  -25.2730  -31.5050   26.1880 C   0  0  0  0  0  1  0  0  0  0  0  0
  -26.9650  -30.3570   24.7520 C   0  0  0  0  0  1  0  0  0  0  0  0
  -27.5210  -32.5340   25.8060 C   0  0  0  0  0  1  0  0  0  0  0  0
  -25.5680  -33.8990   24.1630 N   0  0  0  0  0  0  0  0  0  0  0  0
  -25.9160  -34.9480   23.4060 C   0  0  0  0  0  0  0  0  0  0  0  0
  -26.6030  -34.8410   22.3880 O   0  0  0  0  0  0  0  0  0  0  0  0
  -24.9630  -34.0580   24.9550 H   0  0  0  0  0  0  0  0  0  0  0  0
  -24.1960  -36.7420   23.0200 C   0  0  0  0  0  1  0  0  0  0  0  0
  -25.4240  -36.3390   23.8530 C   0  0  0  0  0  3  0  0  0  0  0  0
  -27.5460  -37.2210   24.7180 C   0  0  0  0  0  1  0  0  0  0  0  0
  -26.4600  -37.3910   23.7550 N   0  0  0  0  0  0  0  0  0  0  0  0
  -26.0520  -38.3120   23.8930 H   0  0  0  0  0  0  0  0  0  0  0  0
  -29.1960  -18.2190   20.6360 C   0  0  0  0  0  3  0  0  0  0  0  0
  -30.0590  -17.1090   19.9030 C   0  0  0  0  0  3  0  0  0  0  0  0
  -30.6610  -14.6140   20.1080 C   0  0  0  0  0  0  0  0  0  0  0  0
  -30.3900  -12.3930   19.0530 C   0  0  0  0  0  2  0  0  0  0  0  0
  -29.4080  -12.5690   17.8720 C   0  0  0  0  0  2  0  0  0  0  0  0
  -27.9550  -12.3950   18.3540 C   0  0  0  0  0  2  0  0  0  0  0  0
  -27.6410  -13.2460   19.6160 C   0  0  0  0  0  3  0  0  0  0  0  0
  -28.7380  -13.0740   20.6930 C   0  0  0  0  0  2  0  0  0  0  0  0
  -30.0310  -13.4000   20.0720 N   0  0  0  0  0  0  0  0  0  0  0  0
  -31.8030  -14.7660   19.6710 O   0  0  0  0  0  0  0  0  0  0  0  0
  -29.8820  -15.6970   20.4020 N   0  0  0  0  0  0  0  0  0  0  0  0
  -28.9830  -15.4740   20.8040 H   0  0  0  0  0  0  0  0  0  0  0  0
  -25.2760  -13.8430   20.4220 C   0  0  0  0  0  0  0  0  0  0  0  0
  -24.2220  -13.0680   20.8300 C   0  0  0  0  0  0  0  0  0  0  0  0
  -24.6820  -11.7170   20.7740 C   0  0  0  0  0  0  0  0  0  0  0  0
  -26.3100  -12.9630   20.1450 N   0  0  0  0  0  0  0  0  0  0  0  0
  -25.9600  -11.6790   20.4170 N   0  0  0  0  0  0  0  0  0  0  0  0
  -23.9640  -10.4520   20.9810 C   0  0  0  0  0  0  0  0  0  0  0  0
  -24.4200   -9.4880   21.9080 C   0  0  0  0  0  3  0  0  0  0  0  0
  -23.7020   -8.2890   22.1050 C   0  0  0  0  0  3  0  0  0  0  0  0
  -22.5130   -8.0460   21.3750 C   0  0  0  0  0  0  0  0  0  0  0  0
  -22.0760   -8.9980   20.4370 C   0  0  0  0  0  3  0  0  0  0  0  0
  -22.7950  -10.1890   20.2380 C   0  0  0  0  0  3  0  0  0  0  0  0
  -21.7670   -6.8970   21.4800 O   0  0  0  0  0  0  0  0  0  0  0  0
  -21.7380   -6.1610   22.6370 C   0  0  0  0  0  0  0  0  0  0  0  0
  -21.3130   -6.7170   23.8630 C   0  0  0  0  0  3  0  0  0  0  0  0
  -21.2330   -5.9080   25.0150 C   0  0  0  0  0  3  0  0  0  0  0  0
  -21.5650   -4.5420   24.9380 C   0  0  0  0  0  0  0  0  0  0  0  0
  -21.9810   -3.9830   23.7170 C   0  0  0  0  0  3  0  0  0  0  0  0
  -22.0640   -4.7900   22.5680 C   0  0  0  0  0  0  0  0  0  0  0  0
  -22.4450   -4.2440   21.3890 F   0  0  0  0  0  0  0  0  0  0  0  0
  -21.4800   -3.7590   26.0410 F   0  0  0  0  0  0  0  0  0  0  0  0
  -22.8350  -13.5420   21.1540 C   0  0  0  0  0  0  0  0  0  0  0  0
  -22.1350  -12.8370   22.0350 N   0  0  0  0  0  0  0  0  0  0  0  0
  -22.3810  -14.5720   20.6590 O   0  0  0  0  0  0  0  0  0  0  0  0
  -22.5140  -12.0020   22.4570 H   0  0  0  0  0  0  0  0  0  0  0  0
  -21.2030  -13.1330   22.2880 H   0  0  0  0  0  0  0  0  0  0  0  0
  -25.4360  -15.2150   20.2370 N   0  0  0  0  0  0  0  0  0  0  0  0
  -24.6670  -15.8660   20.3440 H   0  0  0  0  0  0  0  0  0  0  0  0
  -26.2460  -15.6260   19.7910 H   0  0  0  0  0  0  0  0  0  0  0  0
  1  3  1  0
  1  5  1  0
  2  5  1  0
  2  4  1  0
  3  6  1  0
  6 51  1  0
  6  4  1  0
  6  7  1  6
  8  5  1  0
  8  9  2  0
 10  9  1  0
 11 22  2  0
 12 10  1  0
 12 17  1  0
 13 21  1  0
 13 23  1  0
 14 20  1  0
 14 16  1  0
 15 21  1  0
 16 15  1  0
 17 16  2  0
 18 12  2  0
 19 18  1  0
 19 14  2  0
 20 13  1  0
 21 11  1  0
 23 25  2  0
 24 23  1  0
 26 24  1  0
 27 36  2  0
 27 32  1  0
 28 24  1  0
 28 32  1  0
 29 28  1  0
 30 31  1  0
 30 29  1  0
 31 27  1  0
 32 33  2  0
 33 34  1  0
 35 34  2  0
 36 35  1  0
 37 11  1  0
 37 42  1  0
 37 38  1  0
 38 41  1  1
 38 39  1  0
 40 38  1  0
 42 45  1  0
 43 47  1  0
 43 42  1  0
 44 43  2  0
 47 46  1  0
 49 47  1  0
 49 50  1  0
 49 48  1  0
 52 61  1  0
 52 51  2  0
 53 61  1  0
 54 59  1  0
 55 56  1  0
 55 54  1  0
 57 56  1  0
 57 66  1  0
 57 58  1  0
 59 53  1  0
 59 58  1  0
 60 53  2  0
 61 62  1  0
 63 64  2  0
 64 83  1  0
 65 64  1  0
 65 68  1  0
 66 67  1  0
 66 63  1  0
 67 65  2  0
 68 69  1  0
 69 70  2  0
 71 74  1  0
 71 70  1  0
 72 71  2  0
 73 72  1  0
 73 68  2  0
 74 75  1  0
 75 76  1  0
 76 77  2  0
 78 77  1  0
 78 82  1  0
 79 78  2  0
 80 75  2  0
 80 79  1  0
 81 80  1  0
 83 84  1  0
 84 87  1  0
 84 86  1  0
 85 83  2  0
 88 89  1  0
 88 63  1  0
 90 88  1  0
M  ISO  4   9 101  10 101  53 100  61 100
M  END
>  <TORSDO>  (2) 
F 20

>  <SCORE>  (2) 
-13.596

>  <name>  (2) 
1

>  <ligand_id>  (2) 
1

>  <original_smiles>  (2) 
[H]c1c([H])c([H])c2c(c1[H])C([H])([H])C([H])([H])C([H])([H])C2([H])N([H])C(=O)C1([H])N(C(=O)C([H])(N([H])C(=O)C([H])(N([H])C([H])([H])[H])C([H])([H])[H])C(C([H])([H])[H])(C([H])([H])[H])C([H])([H])[H])C([H])([H])c2c([H])c(OC([H])([H])C([H])([H])N3C([H])([H])C([H])([H])[N+]([H])(C([H])([H])C([H])([H])N([H])C(=O)N4C([H])([H])C([H])([H])C([H])([H])C([H])(n5nc(-c6c([H])c([H])c(Oc7c([H])c([H])c(F)c([H])c7F)c([H])c6[H])c(C(=O)N([H])[H])c5N([H])[H])C4([H])[H])C([H])([H])C3([H])[H])c([H])c([H])c2C1([H])[H]

>  <smiles>  (2) 
[H]c1c([H])c([H])c2c(c1[H])C([H])([H])C([H])([H])C([H])([H])C2([H])N([H])C(=O)C1([H])N(C(=O)C([H])(N([H])C(=O)C([H])(N([H])C([H])([H])[H])C([H])([H])[H])C(C([H])([H])[H])(C([H])([H])[H])C([H])([H])[H])C([H])([H])c2c([H])c(OC([H])([H])C([H])([H])N3C([H])([H])C([H])([H])[N+]([H])(C([H])([H])C([H])([H])N([H])C(=O)N4C([H])([H])C([H])([H])C([H])([H])C([H])(n5nc(-c6c([H])c([H])c(Oc7c([H])c([H])c(F)c([H])c7F)c([H])c6[H])c(C(=O)N([H])[H])c5N([H])[H])C4([H])[H])C([H])([H])C3([H])[H])c([H])c([H])c2C1([H])[H]

$$$$
2:0:0
     RDKit          3D

102109  0  0  1  0  0  0  0  0999 V2000
  -29.0540  -22.0540   20.1290 N   0  0  0  0  0  0  0  0  0  0  0  0
  -29.9600  -20.8570   20.5960 C   0  0  0  0  0  3  0  0  0  0  0  0
  -29.5540  -19.2100   20.5080 C   0  0  0  0  0  3  0  0  0  0  0  0
  -30.5800  -17.8980   20.7650 C   0  0  0  0  0  2  0  0  0  0  0  0
  -30.8780  -15.1790   20.7100 C   0  0  0  0  0  0  0  0  0  0  0  0
  -30.7630  -12.8370   19.7580 C   0  0  0  0  0  2  0  0  0  0  0  0
  -29.9110  -12.8100   18.4690 C   0  0  0  0  0  2  0  0  0  0  0  0
  -28.4210  -12.6130   18.8080 C   0  0  0  0  0  2  0  0  0  0  0  0
  -27.9500  -13.5470   19.9550 C   0  0  0  0  0  3  0  0  0  0  0  0
  -28.9340  -13.5560   21.1440 C   0  0  0  0  0  2  0  0  0  0  0  0
  -30.2490  -13.9390   20.6180 N   0  0  0  0  0  0  0  0  0  0  0  0
  -32.0950  -15.2180   20.5030 O   0  0  0  0  0  0  0  0  0  0  0  0
  -30.1350  -16.3830   20.8230 N   0  0  0  0  0  0  0  0  0  0  0  0
  -29.1460  -16.2330   20.9480 H   0  0  0  0  0  0  0  0  0  0  0  0
  -25.5230  -14.1310   20.5130 C   0  0  0  0  0  0  0  0  0  0  0  0
  -24.4370  -13.3610   20.8280 C   0  0  0  0  0  0  0  0  0  0  0  0
  -24.9060  -12.0120   20.8710 C   0  0  0  0  0  0  0  0  0  0  0  0
  -26.5820  -13.2530   20.3690 N   0  0  0  0  0  0  0  0  0  0  0  0
  -26.2160  -11.9750   20.6510 N   0  0  0  0  0  0  0  0  0  0  0  0
  -24.1740  -10.7520   21.0480 C   0  0  0  0  0  0  0  0  0  0  0  0
  -24.5540   -9.8060   22.0250 C   0  0  0  0  0  3  0  0  0  0  0  0
  -23.8180   -8.6120   22.1900 C   0  0  0  0  0  3  0  0  0  0  0  0
  -22.6900   -8.3540   21.3740 C   0  0  0  0  0  0  0  0  0  0  0  0
  -22.3320   -9.2880   20.3860 C   0  0  0  0  0  3  0  0  0  0  0  0
  -23.0670  -10.4750   20.2220 C   0  0  0  0  0  3  0  0  0  0  0  0
  -21.9320   -7.2090   21.4450 O   0  0  0  0  0  0  0  0  0  0  0  0
  -21.8200   -6.4890   22.6080 C   0  0  0  0  0  0  0  0  0  0  0  0
  -21.3430   -7.0740   23.8020 C   0  0  0  0  0  3  0  0  0  0  0  0
  -21.1800   -6.2830   24.9560 C   0  0  0  0  0  3  0  0  0  0  0  0
  -21.4820   -4.9090   24.9190 C   0  0  0  0  0  0  0  0  0  0  0  0
  -21.9510   -4.3230   23.7300 C   0  0  0  0  0  3  0  0  0  0  0  0
  -22.1190   -5.1120   22.5780 C   0  0  0  0  0  0  0  0  0  0  0  0
  -22.5530   -4.5390   21.4290 F   0  0  0  0  0  0  0  0  0  0  0  0
  -21.3180   -4.1470   26.0260 F   0  0  0  0  0  0  0  0  0  0  0  0
  -23.0220  -13.8390   20.9840 C   0  0  0  0  0  0  0  0  0  0  0  0
  -22.2400  -13.1760   21.8290 N   0  0  0  0  0  0  0  0  0  0  0  0
  -22.6190  -14.8400   20.3910 O   0  0  0  0  0  0  0  0  0  0  0  0
  -21.2920  -13.4870   21.9850 H   0  0  0  0  0  0  0  0  0  0  0  0
  -22.5770  -12.3600   22.3170 H   0  0  0  0  0  0  0  0  0  0  0  0
  -25.6950  -15.4990   20.3140 N   0  0  0  0  0  0  0  0  0  0  0  0
  -26.5540  -15.9260   19.9980 H   0  0  0  0  0  0  0  0  0  0  0  0
  -24.9250  -16.1480   20.4070 H   0  0  0  0  0  0  0  0  0  0  0  0
  -29.3740  -23.5720   20.3960 C   0  0  0  0  0  3  0  0  0  0  0  0
  -28.3570  -24.8820   20.0420 C   0  0  0  0  0  3  0  0  0  0  0  0
  -28.5820  -26.4070   20.2690 O   0  0  0  0  0  0  0  0  0  0  0  0
  -24.7020  -31.9200   23.2530 C   0  0  0  0  0  0  0  0  0  0  0  0
  -27.4930  -27.3520   20.1970 C   0  0  0  0  0  0  0  0  0  0  0  0
  -23.5850  -30.5220   21.5610 C   0  0  0  0  0  3  0  0  0  0  0  0
  -25.1100  -29.0210   20.1430 C   0  0  0  0  0  0  0  0  0  0  0  0
  -26.1320  -30.8690   21.4600 C   0  0  0  0  0  2  0  0  0  0  0  0
  -26.2630  -29.4940   20.7840 C   0  0  0  0  0  0  0  0  0  0  0  0
  -27.4550  -28.6760   20.7930 C   0  0  0  0  0  3  0  0  0  0  0  0
  -26.3100  -26.9810   19.5190 C   0  0  0  0  0  3  0  0  0  0  0  0
  -25.1480  -27.7790   19.4970 C   0  0  0  0  0  3  0  0  0  0  0  0
  -23.8560  -29.8790   20.1750 C   0  0  0  0  0  2  0  0  0  0  0  0
  -24.8250  -31.1240   22.1480 N   0  0  0  0  0  0  0  0  0  0  0  0
  -23.5940  -32.1620   23.7560 O   0  0  0  0  0  0  0  0  0  0  0  0
  -22.9120  -29.4740   22.4840 C   0  0  0  0  0  0  0  0  0  0  0  0
  -21.5870  -29.2900   22.3420 N   0  0  0  0  0  0  0  0  0  0  0  0
  -23.5850  -28.8340   23.2960 O   0  0  0  0  0  0  0  0  0  0  0  0
  -21.0990  -29.8620   21.6660 H   0  0  0  0  0  0  0  0  0  0  0  0
  -18.2150  -28.0500   22.8070 C   0  0  0  0  0  0  0  0  0  0  0  0
  -20.7730  -28.3180   23.0780 C   0  0  0  0  0  3  0  0  0  0  0  0
  -20.8820  -26.9090   22.4500 C   0  0  0  0  0  2  0  0  0  0  0  0
  -19.7800  -26.6180   21.4260 C   0  0  0  0  0  2  0  0  0  0  0  0
  -18.3990  -26.7290   22.0790 C   0  0  0  0  0  2  0  0  0  0  0  0
  -19.3300  -28.8040   23.2640 C   0  0  0  0  0  0  0  0  0  0  0  0
  -19.1040  -30.0380   23.9080 C   0  0  0  0  0  3  0  0  0  0  0  0
  -17.7950  -30.5230   24.0960 C   0  0  0  0  0  3  0  0  0  0  0  0
  -16.6960  -29.7680   23.6560 C   0  0  0  0  0  3  0  0  0  0  0  0
  -16.9070  -28.5320   23.0180 C   0  0  0  0  0  3  0  0  0  0  0  0
  -25.9430  -32.5820   23.9230 C   0  0  0  0  0  3  0  0  0  0  0  0
  -26.4130  -31.8320   25.2310 C   0  0  1  0  0  0  0  0  0  0  0  0
  -25.2740  -31.5820   26.2470 C   0  0  0  0  0  1  0  0  0  0  0  0
  -27.0430  -30.4640   24.8830 C   0  0  0  0  0  1  0  0  0  0  0  0
  -27.5140  -32.6580   25.9390 C   0  0  0  0  0  1  0  0  0  0  0  0
  -25.5960  -33.9790   24.2290 N   0  0  0  0  0  0  0  0  0  0  0  0
  -25.9450  -35.0340   23.4810 C   0  0  0  0  0  0  0  0  0  0  0  0
  -26.6590  -34.9350   22.4800 O   0  0  0  0  0  0  0  0  0  0  0  0
  -24.9660  -34.1290   25.0030 H   0  0  0  0  0  0  0  0  0  0  0  0
  -24.2080  -36.8040   23.0530 C   0  0  0  0  0  1  0  0  0  0  0  0
  -25.4230  -36.4200   23.9130 C   0  0  0  0  0  3  0  0  0  0  0  0
  -27.5140  -37.3380   24.8170 C   0  0  0  0  0  1  0  0  0  0  0  0
  -26.4460  -37.4850   23.8320 N   0  0  0  0  0  0  0  0  0  0  0  0
  -26.0230  -38.4010   23.9590 H   0  0  0  0  0  0  0  0  0  0  0  0
  -28.6930  -21.8530   18.7170 C   0  0  0  0  0  2  0  0  0  0  0  0
  -27.1620  -22.0420   18.5210 C   0  0  0  0  0  3  0  0  0  0  0  0
  -25.6980  -23.0150   20.3310 C   0  0  0  0  0  1  0  0  0  0  0  0
  -26.5210  -21.8860   19.8490 N   0  0  0  0  0  4  0  0  0  0  0  0
  -26.0680  -21.0000   19.9940 H   0  0  0  0  0  0  0  0  0  0  0  0
  -27.3540  -21.8960   20.4330 H   0  0  0  0  0  0  0  0  0  0  0  0
  -26.5710  -21.1400   17.3760 C   0  0  0  0  0  3  0  0  0  0  0  0
  -25.1400  -21.5480   16.8790 C   0  0  0  0  0  2  0  0  0  0  0  0
  -23.9760  -20.9980   17.6210 N   0  0  0  0  0  4  0  0  0  0  0  0
  -23.9020  -19.9970   17.5570 H   0  0  0  0  0  0  0  0  0  0  0  0
  -23.1380  -21.3590   17.1960 H   0  0  0  0  0  0  0  0  0  0  0  0
  -23.9300  -21.2710   18.5840 H   0  0  0  0  0  0  0  0  0  0  0  0
  -26.8050  -19.5950   17.5140 C   0  0  0  0  0  2  0  0  0  0  0  0
  -27.0410  -18.8980   16.2290 N   0  0  0  0  0  4  0  0  0  0  0  0
  -26.2770  -18.9880   15.5830 H   0  0  0  0  0  0  0  0  0  0  0  0
  -27.1740  -17.9150   16.3940 H   0  0  0  0  0  0  0  0  0  0  0  0
  -27.8760  -19.2350   15.7820 H   0  0  0  0  0  0  0  0  0  0  0  0
  1 43  1  0
  1  2  1  0
  3  2  2  0
  3  4  1  0
  4 13  1  0
  5 13  1  0
  6 11  1  0
  7  8  1  0
  7  6  1  0
  9  8  1  0
  9 18  1  0
  9 10  1  0
 11  5  1  0
 11 10  1  0
 12  5  2  0
 13 14  1  0
 15 16  2  0
 16 17  1  0
 16 35  1  0
 17 20  1  0
 18 15  1  0
 18 19  1  0
 19 17  2  0
 20 21  1  0
 21 22  2  0
 23 26  1  0
 23 22  1  0
 24 23  2  0
 25 24  1  0
 25 20  2  0
 26 27  1  0
 27 28  1  0
 28 29  2  0
 30 29  1  0
 30 34  1  0
 31 30  2  0
 32 27  2  0
 32 31  1  0
 33 32  1  0
 35 36  1  0
 36 38  1  0
 36 39  1  0
 37 35  2  0
 40 42  1  0
 40 15  1  0
 41 40  1  0
 44 45  1  0
 44 43  2  0
 46 57  2  0
 47 45  1  0
 47 52  1  0
 48 56  1  0
 48 58  1  0
 49 55  1  0
 49 51  1  0
 50 56  1  0
 51 52  2  0
 51 50  1  0
 53 47  2  0
 54 53  1  0
 54 49  2  0
 55 48  1  0
 56 46  1  0
 58 60  2  0
 59 58  1  0
 61 59  1  0
 62 71  2  0
 62 67  1  0
 63 59  1  0
 63 67  1  0
 64 63  1  0
 65 66  1  0
 65 64  1  0
 66 62  1  0
 67 68  2  0
 68 69  1  0
 70 69  2  0
 71 70  1  0
 72 46  1  0
 72 77  1  0
 72 73  1  0
 73 76  1  1
 73 74  1  0
 75 73  1  0
 77 80  1  0
 78 82  1  0
 78 77  1  0
 79 78  2  0
 82 81  1  0
 84 82  1  0
 84 85  1  0
 84 83  1  0
 86  1  1  0
 87 86  1  0
 87 89  1  0
 89 90  1  0
 89 88  1  0
 89 91  1  0
 92 98  1  0
 92 87  1  0
 93 92  1  0
 93 94  1  0
 94 97  1  0
 95 94  1  0
 96 94  1  0
 99101  1  0
 99 98  1  0
100 99  1  0
102 99  1  0
M  ISO  4   5 100  13 100  44 101  45 101
M  END
>  <TORSDO>  (3) 
F 29

>  <SCORE>  (3) 
-11.299

>  <name>  (3) 
2

>  <ligand_id>  (3) 
2

>  <original_smiles>  (3) 
[H]c1c([H])c([H])c2c(c1[H])C([H])([H])C([H])([H])C([H])([H])C2([H])N([H])C(=O)C1([H])N(C(=O)C([H])(N([H])C(=O)C([H])(N([H])C([H])([H])[H])C([H])([H])[H])C(C([H])([H])[H])(C([H])([H])[H])C([H])([H])[H])C([H])([H])c2c([H])c(OC([H])([H])C([H])([H])N(C([H])([H])C([H])([H])C([H])([H])N([H])C(=O)N3C([H])([H])C([H])([H])C([H])([H])C([H])(n4nc(-c5c([H])c([H])c(Oc6c([H])c([H])c(F)c([H])c6F)c([H])c5[H])c(C(=O)N([H])[H])c4N([H])[H])C3([H])[H])C([H])([H])C([H])(C([H])(C([H])([H])[N+]([H])([H])[H])C([H])([H])[N+]([H])([H])[H])[N+]([H])([H])C([H])([H])[H])c([H])c([H])c2C1([H])[H]

>  <smiles>  (3) 
[H]c1c([H])c([H])c2c(c1[H])C([H])([H])C([H])([H])C([H])([H])C2([H])N([H])C(=O)C1([H])N(C(=O)C([H])(N([H])C(=O)C([H])(N([H])C([H])([H])[H])C([H])([H])[H])C(C([H])([H])[H])(C([H])([H])[H])C([H])([H])[H])C([H])([H])c2c([H])c(OC([H])([H])C([H])([H])N(C([H])([H])C([H])([H])C([H])([H])N([H])C(=O)N3C([H])([H])C([H])([H])C([H])([H])C([H])(n4nc(-c5c([H])c([H])c(Oc6c([H])c([H])c(F)c([H])c6F)c([H])c5[H])c(C(=O)N([H])[H])c4N([H])[H])C3([H])[H])C([H])([H])C([H])(C([H])(C([H])([H])[N+]([H])([H])[H])C([H])([H])[N+]([H])([H])[H])[N+]([H])([H])C([H])([H])[H])c([H])c([H])c2C1([H])[H]

$$$$
3:0:0
     RDKit          3D

 98107  0  0  1  0  0  0  0  0999 V2000
  -30.4600  -22.1030   20.2890 C   0  0  0  0  0  0  0  0  0  0  0  0
  -29.8640  -22.1340   19.2050 O   0  0  0  0  0  0  0  0  0  0  0  0
  -30.7220  -14.5300   20.0150 C   0  0  0  0  0  0  0  0  0  0  0  0
  -30.3240  -12.4010   18.8040 C   0  0  0  0  0  2  0  0  0  0  0  0
  -29.2770  -12.5890   17.6890 C   0  0  0  0  0  2  0  0  0  0  0  0
  -27.8540  -12.3830   18.2430 C   0  0  0  0  0  2  0  0  0  0  0  0
  -27.6140  -13.1950   19.5380 C   0  0  0  0  0  3  0  0  0  0  0  0
  -28.7680  -12.9720   20.5520 C   0  0  0  0  0  2  0  0  0  0  0  0
  -30.0220  -13.3590   19.8890 N   0  0  0  0  0  0  0  0  0  0  0  0
  -31.7610  -14.7050   19.3700 O   0  0  0  0  0  0  0  0  0  0  0  0
  -32.1450  -20.2010   20.8830 C   0  0  0  0  0  2  0  0  0  0  0  0
  -32.2900  -18.7950   21.5040 C   0  0  0  0  0  2  0  0  0  0  0  0
  -28.8140  -17.4300   20.5010 C   0  0  0  0  0  2  0  0  0  0  0  0
  -28.9810  -16.0380   21.1440 C   0  0  0  0  0  2  0  0  0  0  0  0
  -31.3350  -16.3970   21.5250 C   0  0  0  0  0  2  0  0  0  0  0  0
  -30.7010  -20.7520   21.0320 C   0  0  0  0  0  3  0  0  0  0  0  0
  -31.2640  -17.8200   20.8990 C   0  0  0  0  0  3  0  0  0  0  0  0
  -29.8470  -18.4130   21.0690 C   0  0  0  0  0  3  0  0  0  0  0  0
  -30.3360  -15.4780   20.9310 N   0  0  0  0  0  0  0  0  0  0  0  0
  -29.7400  -19.7670   20.4680 N   0  0  0  0  0  4  0  0  0  0  0  0
  -29.8810  -19.7340   19.4700 H   0  0  0  0  0  0  0  0  0  0  0  0
  -28.8110  -20.1290   20.6150 H   0  0  0  0  0  0  0  0  0  0  0  0
  -25.3010  -13.7800   20.5050 C   0  0  0  0  0  0  0  0  0  0  0  0
  -24.2680  -12.9910   20.9340 C   0  0  0  0  0  0  0  0  0  0  0  0
  -24.7150  -11.6420   20.7870 C   0  0  0  0  0  0  0  0  0  0  0  0
  -26.3120  -12.9080   20.1290 N   0  0  0  0  0  0  0  0  0  0  0  0
  -25.9690  -11.6160   20.3570 N   0  0  0  0  0  0  0  0  0  0  0  0
  -24.0030  -10.3740   20.9740 C   0  0  0  0  0  0  0  0  0  0  0  0
  -24.4480   -9.4100   21.9060 C   0  0  0  0  0  3  0  0  0  0  0  0
  -23.7390   -8.2030   22.0820 C   0  0  0  0  0  3  0  0  0  0  0  0
  -22.5720   -7.9500   21.3220 C   0  0  0  0  0  0  0  0  0  0  0  0
  -22.1450   -8.9020   20.3790 C   0  0  0  0  0  3  0  0  0  0  0  0
  -22.8550  -10.1010   20.2020 C   0  0  0  0  0  3  0  0  0  0  0  0
  -21.8320   -6.7950   21.4070 O   0  0  0  0  0  0  0  0  0  0  0  0
  -21.7070   -6.1060   22.5860 C   0  0  0  0  0  0  0  0  0  0  0  0
  -21.1400   -6.6960   23.7360 C   0  0  0  0  0  3  0  0  0  0  0  0
  -20.9670   -5.9310   24.9070 C   0  0  0  0  0  3  0  0  0  0  0  0
  -21.3500   -4.5760   24.9260 C   0  0  0  0  0  0  0  0  0  0  0  0
  -21.9100   -3.9860   23.7800 C   0  0  0  0  0  3  0  0  0  0  0  0
  -22.0860   -4.7490   22.6130 C   0  0  0  0  0  0  0  0  0  0  0  0
  -22.6070   -4.1710   21.5040 F   0  0  0  0  0  0  0  0  0  0  0  0
  -21.1760   -3.8390   26.0480 F   0  0  0  0  0  0  0  0  0  0  0  0
  -22.9070  -13.4540   21.3650 C   0  0  0  0  0  0  0  0  0  0  0  0
  -22.2570  -12.7060   22.2500 N   0  0  0  0  0  0  0  0  0  0  0  0
  -22.4300  -14.5110   20.9510 O   0  0  0  0  0  0  0  0  0  0  0  0
  -22.6570  -11.8490   22.6010 H   0  0  0  0  0  0  0  0  0  0  0  0
  -21.3470  -12.9950   22.5800 H   0  0  0  0  0  0  0  0  0  0  0  0
  -25.4470  -15.1580   20.3830 N   0  0  0  0  0  0  0  0  0  0  0  0
  -24.6840  -15.7920   20.5910 H   0  0  0  0  0  0  0  0  0  0  0  0
  -26.2350  -15.6200   19.9480 H   0  0  0  0  0  0  0  0  0  0  0  0
  -32.4810  -23.6530   20.6540 C   0  0  0  0  0  1  0  0  0  0  0  0
  -30.9830  -23.4130   20.9470 C   0  0  0  0  0  3  0  0  0  0  0  0
  -30.1750  -24.5470   20.4200 N   0  0  0  0  0  4  0  0  0  0  0  0
  -30.5470  -24.8230   19.5250 H   0  0  0  0  0  0  0  0  0  0  0  0
  -29.2440  -24.1990   20.2380 H   0  0  0  0  0  0  0  0  0  0  0  0
  -30.0800  -25.7140   21.3420 C   0  0  0  0  0  2  0  0  0  0  0  0
  -29.5410  -26.9920   20.6690 C   0  0  0  0  0  2  0  0  0  0  0  0
  -28.3190  -26.6840   19.9960 O   0  0  0  0  0  0  0  0  0  0  0  0
  -24.6070  -31.8980   23.2470 C   0  0  0  0  0  0  0  0  0  0  0  0
  -27.2080  -27.5000   20.0920 C   0  0  0  0  0  0  0  0  0  0  0  0
  -23.3680  -30.5190   21.6070 C   0  0  0  0  0  3  0  0  0  0  0  0
  -24.7960  -28.9860   20.1540 C   0  0  0  0  0  0  0  0  0  0  0  0
  -25.8850  -30.8820   21.3670 C   0  0  0  0  0  2  0  0  0  0  0  0
  -25.9600  -29.5140   20.7200 C   0  0  0  0  0  0  0  0  0  0  0  0
  -27.1680  -28.7870   20.6880 C   0  0  0  0  0  3  0  0  0  0  0  0
  -26.0220  -26.9840   19.5290 C   0  0  0  0  0  3  0  0  0  0  0  0
  -24.8180  -27.7140   19.5560 C   0  0  0  0  0  3  0  0  0  0  0  0
  -23.5530  -29.8440   20.2210 C   0  0  0  0  0  2  0  0  0  0  0  0
  -24.6390  -31.1120   22.1340 N   0  0  0  0  0  0  0  0  0  0  0  0
  -23.5360  -32.1710   23.8070 O   0  0  0  0  0  0  0  0  0  0  0  0
  -22.7230  -29.4950   22.5680 C   0  0  0  0  0  0  0  0  0  0  0  0
  -21.4030  -29.2930   22.4270 N   0  0  0  0  0  0  0  0  0  0  0  0
  -23.4080  -28.8830   23.3910 O   0  0  0  0  0  0  0  0  0  0  0  0
  -20.9120  -29.8400   21.7320 H   0  0  0  0  0  0  0  0  0  0  0  0
  -18.0470  -28.0340   22.8720 C   0  0  0  0  0  0  0  0  0  0  0  0
  -20.5920  -28.3470   23.1910 C   0  0  0  0  0  3  0  0  0  0  0  0
  -20.7360  -26.9130   22.6330 C   0  0  0  0  0  2  0  0  0  0  0  0
  -19.6610  -26.5560   21.6000 C   0  0  0  0  0  2  0  0  0  0  0  0
  -18.2640  -26.6820   22.2150 C   0  0  0  0  0  2  0  0  0  0  0  0
  -19.1410  -28.8230   23.3140 C   0  0  0  0  0  0  0  0  0  0  0  0
  -18.8870  -30.0900   23.8860 C   0  0  0  0  0  3  0  0  0  0  0  0
  -17.5710  -30.5690   24.0180 C   0  0  0  0  0  3  0  0  0  0  0  0
  -16.4900  -29.7770   23.5910 C   0  0  0  0  0  3  0  0  0  0  0  0
  -16.7290  -28.5120   23.0260 C   0  0  0  0  0  3  0  0  0  0  0  0
  -25.9080  -32.5100   23.8570 C   0  0  0  0  0  3  0  0  0  0  0  0
  -26.4420  -31.7180   25.1120 C   0  0  1  0  0  0  0  0  0  0  0  0
  -25.3630  -31.4550   26.1880 C   0  0  0  0  0  1  0  0  0  0  0  0
  -27.0230  -30.3500   24.6820 C   0  0  0  0  0  1  0  0  0  0  0  0
  -27.6000  -32.5010   25.7740 C   0  0  0  0  0  1  0  0  0  0  0  0
  -25.6160  -33.9070   24.2090 N   0  0  0  0  0  0  0  0  0  0  0  0
  -25.9480  -34.9640   23.4550 C   0  0  0  0  0  0  0  0  0  0  0  0
  -26.6030  -34.8650   22.4140 O   0  0  0  0  0  0  0  0  0  0  0  0
  -25.0370  -34.0570   25.0210 H   0  0  0  0  0  0  0  0  0  0  0  0
  -24.2350  -36.7750   23.1310 C   0  0  0  0  0  1  0  0  0  0  0  0
  -25.4760  -36.3510   23.9330 C   0  0  0  0  0  3  0  0  0  0  0  0
  -27.6180  -37.2060   24.7720 C   0  0  0  0  0  1  0  0  0  0  0  0
  -26.5190  -37.3960   23.8300 N   0  0  0  0  0  0  0  0  0  0  0  0
  -26.1220  -38.3170   23.9880 H   0  0  0  0  0  0  0  0  0  0  0  0
  1 52  1  0
  2  1  2  0
  3 19  1  0
  4  9  1  0
  5  6  1  0
  5  4  1  0
  7  6  1  0
  7 26  1  0
  7  8  1  0
  9  3  1  0
  9  8  1  0
 10  3  2  0
 11 16  1  0
 11 12  1  0
 13 14  1  0
 16  1  1  0
 17 18  1  0
 17 12  1  0
 17 15  1  0
 18 13  1  0
 19 14  1  0
 19 15  1  0
 20 22  1  0
 20 16  1  0
 20 18  1  0
 21 20  1  0
 23 24  2  0
 24 43  1  0
 25 24  1  0
 25 28  1  0
 26 27  1  0
 26 23  1  0
 27 25  2  0
 28 29  1  0
 29 30  2  0
 31 34  1  0
 31 30  1  0
 32 31  2  0
 33 32  1  0
 33 28  2  0
 34 35  1  0
 35 40  2  0
 35 36  1  0
 36 37  2  0
 37 38  1  0
 38 42  1  0
 39 38  2  0
 40 39  1  0
 41 40  1  0
 43 44  1  0
 44 47  1  0
 44 46  1  0
 45 43  2  0
 48 23  1  0
 48 49  1  0
 50 48  1  0
 52 51  1  0
 53 52  1  0
 53 56  1  0
 54 53  1  0
 55 53  1  0
 57 56  1  0
 58 60  1  0
 58 57  1  0
 59 70  2  0
 60 65  1  0
 61 69  1  0
 61 71  1  0
 62 68  1  0
 62 64  1  0
 63 69  1  0
 64 63  1  0
 65 64  2  0
 66 67  1  0
 66 60  2  0
 67 62  2  0
 68 61  1  0
 69 59  1  0
 71 73  2  0
 72 71  1  0
 74 72  1  0
 75 84  2  0
 75 80  1  0
 76 72  1  0
 76 80  1  0
 77 76  1  0
 78 79  1  0
 78 77  1  0
 79 75  1  0
 80 81  2  0
 81 82  1  0
 83 82  2  0
 84 83  1  0
 85 59  1  0
 85 90  1  0
 85 86  1  0
 86 89  1  1
 86 87  1  0
 88 86  1  0
 90 93  1  0
 91 95  1  0
 91 90  1  0
 92 91  2  0
 95 94  1  0
 97 95  1  0
 97 98  1  0
 97 96  1  0
M  ISO  4   3 100  19 100  57 101  58 101
M  END
>  <TORSDO>  (4) 
F 20

>  <SCORE>  (4) 
-13.293

>  <name>  (4) 
3

>  <ligand_id>  (4) 
3

>  <original_smiles>  (4) 
[H]c1c([H])c([H])c2c(c1[H])C([H])([H])C([H])([H])C([H])([H])C2([H])N([H])C(=O)C1([H])N(C(=O)C([H])(N([H])C(=O)C([H])(N([H])C([H])([H])[H])C([H])([H])[H])C(C([H])([H])[H])(C([H])([H])[H])C([H])([H])[H])C([H])([H])c2c([H])c(OC([H])([H])C([H])([H])[N+]([H])([H])C([H])(C(=O)C3([H])C([H])([H])C([H])([H])C4([H])C([H])([H])N(C(=O)N5C([H])([H])C([H])([H])C([H])([H])C([H])(n6nc(-c7c([H])c([H])c(Oc8c([H])c([H])c(F)c([H])c8F)c([H])c7[H])c(C(=O)N([H])[H])c6N([H])[H])C5([H])[H])C([H])([H])C([H])([H])C4([H])[N+]3([H])[H])C([H])([H])[H])c([H])c([H])c2C1([H])[H]

>  <smiles>  (4) 
[H]c1c([H])c([H])c2c(c1[H])C([H])([H])C([H])([H])C([H])([H])C2([H])N([H])C(=O)C1([H])N(C(=O)C([H])(N([H])C(=O)C([H])(N([H])C([H])([H])[H])C([H])([H])[H])C(C([H])([H])[H])(C([H])([H])[H])C([H])([H])[H])C([H])([H])c2c([H])c(OC([H])([H])C([H])([H])[N+]([H])([H])C([H])(C(=O)C3([H])C([H])([H])C([H])([H])C4([H])C([H])([H])N(C(=O)N5C([H])([H])C([H])([H])C([H])([H])C([H])(n6nc(-c7c([H])c([H])c(Oc8c([H])c([H])c(F)c([H])c8F)c([H])c7[H])c(C(=O)N([H])[H])c6N([H])[H])C5([H])[H])C([H])([H])C([H])([H])C4([H])[N+]3([H])[H])C([H])([H])[H])c([H])c([H])c2C1([H])[H]

$$$$
4:0:0
     RDKit          3D

 93101  0  0  1  0  0  0  0  0999 V2000
  -29.9300  -20.6840   19.9200 C   0  0  0  0  0  2  0  0  0  0  0  0
  -29.1380  -21.9200   20.5150 N   0  0  0  0  0  4  0  0  0  0  0  0
  -28.1620  -21.6790   20.4520 H   0  0  0  0  0  0  0  0  0  0  0  0
  -29.3590  -21.9260   21.4970 H   0  0  0  0  0  0  0  0  0  0  0  0
  -29.2960  -23.4160   19.9970 C   0  0  0  0  0  3  0  0  0  0  0  0
  -28.3330  -24.6910   20.5370 C   0  0  0  0  0  3  0  0  0  0  0  0
  -28.5510  -26.2260   20.3370 O   0  0  0  0  0  0  0  0  0  0  0  0
  -24.6760  -31.7800   23.2660 C   0  0  0  0  0  0  0  0  0  0  0  0
  -27.4550  -27.1600   20.2880 C   0  0  0  0  0  0  0  0  0  0  0  0
  -23.5500  -30.3490   21.6050 C   0  0  0  0  0  3  0  0  0  0  0  0
  -25.0740  -28.8240   20.2070 C   0  0  0  0  0  0  0  0  0  0  0  0
  -26.0950  -30.6990   21.4840 C   0  0  0  0  0  2  0  0  0  0  0  0
  -26.2260  -29.3100   20.8370 C   0  0  0  0  0  0  0  0  0  0  0  0
  -27.4190  -28.4960   20.8560 C   0  0  0  0  0  3  0  0  0  0  0  0
  -26.2760  -26.7770   19.6090 C   0  0  0  0  0  3  0  0  0  0  0  0
  -25.1110  -27.5740   19.5740 C   0  0  0  0  0  3  0  0  0  0  0  0
  -23.8160  -29.6810   20.2310 C   0  0  0  0  0  2  0  0  0  0  0  0
  -24.7920  -30.9650   22.1740 N   0  0  0  0  0  0  0  0  0  0  0  0
  -23.5720  -32.0290   23.7750 O   0  0  0  0  0  0  0  0  0  0  0  0
  -22.8890  -29.3180   22.5550 C   0  0  0  0  0  0  0  0  0  0  0  0
  -21.5740  -29.0870   22.3890 N   0  0  0  0  0  0  0  0  0  0  0  0
  -23.5630  -28.7300   23.4040 O   0  0  0  0  0  0  0  0  0  0  0  0
  -21.0850  -29.6160   21.6820 H   0  0  0  0  0  0  0  0  0  0  0  0
  -18.2490  -27.6950   22.7560 C   0  0  0  0  0  0  0  0  0  0  0  0
  -20.7720  -28.1180   23.1410 C   0  0  0  0  0  3  0  0  0  0  0  0
  -20.9870  -26.6820   22.6100 C   0  0  0  0  0  2  0  0  0  0  0  0
  -19.9580  -26.2700   21.5520 C   0  0  0  0  0  2  0  0  0  0  0  0
  -18.5400  -26.3450   22.1230 C   0  0  0  0  0  2  0  0  0  0  0  0
  -19.2980  -28.5350   23.2200 C   0  0  0  0  0  0  0  0  0  0  0  0
  -18.9730  -29.7960   23.7690 C   0  0  0  0  0  3  0  0  0  0  0  0
  -17.6330  -30.2160   23.8620 C   0  0  0  0  0  3  0  0  0  0  0  0
  -16.6000  -29.3760   23.4130 C   0  0  0  0  0  3  0  0  0  0  0  0
  -16.9070  -28.1180   22.8640 C   0  0  0  0  0  3  0  0  0  0  0  0
  -25.9230  -32.4550   23.9160 C   0  0  0  0  0  3  0  0  0  0  0  0
  -25.5730  -33.8550   24.2070 N   0  0  0  0  0  0  0  0  0  0  0  0
  -25.9250  -34.9030   23.4490 C   0  0  0  0  0  0  0  0  0  0  0  0
  -26.6420  -34.7970   22.4530 O   0  0  0  0  0  0  0  0  0  0  0  0
  -24.9430  -34.0120   24.9790 H   0  0  0  0  0  0  0  0  0  0  0  0
  -24.1840  -36.6680   23.0000 C   0  0  0  0  0  1  0  0  0  0  0  0
  -25.3980  -36.2910   23.8670 C   0  0  0  0  0  3  0  0  0  0  0  0
  -27.4840  -37.2260   24.7640 C   0  0  0  0  0  1  0  0  0  0  0  0
  -26.4160  -37.3590   23.7790 N   0  0  0  0  0  0  0  0  0  0  0  0
  -25.9900  -38.2750   23.8970 H   0  0  0  0  0  0  0  0  0  0  0  0
  -26.4080  -31.7270   25.2310 C   0  0  1  0  0  0  0  0  0  0  0  0
  -25.2840  -31.4980   26.2670 C   0  0  0  0  0  1  0  0  0  0  0  0
  -27.0300  -30.3500   24.9000 C   0  0  0  0  0  1  0  0  0  0  0  0
  -27.5200  -32.5610   25.9090 C   0  0  0  0  0  1  0  0  0  0  0  0
  -30.0270  -19.1690   20.6710 C   0  0  0  0  0  3  0  0  0  0  0  0
  -32.8570  -21.0770   23.0810 C   0  0  0  0  0  2  0  0  0  0  0  0
  -31.3410  -21.2380   23.2610 C   0  0  0  0  0  2  0  0  0  0  0  0
  -33.1600  -20.4730   21.7050 C   0  0  0  0  0  2  0  0  0  0  0  0
  -30.5960  -19.9050   23.0400 C   0  0  0  0  0  2  0  0  0  0  0  0
  -32.4250  -19.1300   21.5200 C   0  0  0  0  0  2  0  0  0  0  0  0
  -30.9880  -19.2660   21.7790 N   0  0  0  0  0  0  0  0  0  0  0  0
  -30.4240  -17.7320   19.8660 C   0  0  0  0  0  2  0  0  0  0  0  0
  -30.8170  -15.0430   20.2340 C   0  0  0  0  0  0  0  0  0  0  0  0
  -30.6620  -12.6370   19.4570 C   0  0  0  0  0  2  0  0  0  0  0  0
  -29.7630  -12.5400   18.2010 C   0  0  0  0  0  2  0  0  0  0  0  0
  -28.2900  -12.3680   18.6110 C   0  0  0  0  0  2  0  0  0  0  0  0
  -27.8690  -13.3800   19.7110 C   0  0  0  0  0  3  0  0  0  0  0  0
  -28.8930  -13.4570   20.8640 C   0  0  0  0  0  2  0  0  0  0  0  0
  -30.1910  -13.7980   20.2680 N   0  0  0  0  0  0  0  0  0  0  0  0
  -32.0120  -15.0640   19.9250 O   0  0  0  0  0  0  0  0  0  0  0  0
  -30.0780  -16.2570   20.3270 N   0  0  0  0  0  0  0  0  0  0  0  0
  -29.1170  -16.1270   20.6050 H   0  0  0  0  0  0  0  0  0  0  0  0
  -25.5010  -14.0480   20.4140 C   0  0  0  0  0  0  0  0  0  0  0  0
  -24.4060  -13.3140   20.7750 C   0  0  0  0  0  0  0  0  0  0  0  0
  -24.8230  -11.9480   20.7610 C   0  0  0  0  0  0  0  0  0  0  0  0
  -26.5150  -13.1320   20.1930 N   0  0  0  0  0  0  0  0  0  0  0  0
  -26.1150  -11.8630   20.4680 N   0  0  0  0  0  0  0  0  0  0  0  0
  -24.0490  -10.7120   20.9500 C   0  0  0  0  0  0  0  0  0  0  0  0
  -24.4380   -9.7340   21.8920 C   0  0  0  0  0  3  0  0  0  0  0  0
  -23.6670   -8.5660   22.0710 C   0  0  0  0  0  3  0  0  0  0  0  0
  -22.4930   -8.3670   21.3060 C   0  0  0  0  0  0  0  0  0  0  0  0
  -22.1220   -9.3320   20.3540 C   0  0  0  0  0  3  0  0  0  0  0  0
  -22.8930  -10.4920   20.1740 C   0  0  0  0  0  3  0  0  0  0  0  0
  -21.6960   -7.2510   21.3930 O   0  0  0  0  0  0  0  0  0  0  0  0
  -21.6170   -6.5100   22.5440 C   0  0  0  0  0  0  0  0  0  0  0  0
  -21.2220   -7.0820   23.7730 C   0  0  0  0  0  3  0  0  0  0  0  0
  -21.0880   -6.2710   24.9170 C   0  0  0  0  0  3  0  0  0  0  0  0
  -21.3400   -4.8890   24.8340 C   0  0  0  0  0  0  0  0  0  0  0  0
  -21.7280   -4.3160   23.6100 C   0  0  0  0  0  3  0  0  0  0  0  0
  -21.8630   -5.1250   22.4670 C   0  0  0  0  0  0  0  0  0  0  0  0
  -22.2170   -4.5640   21.2860 F   0  0  0  0  0  0  0  0  0  0  0  0
  -21.2050   -4.1060   25.9310 F   0  0  0  0  0  0  0  0  0  0  0  0
  -23.0230  -13.8430   21.0260 C   0  0  0  0  0  0  0  0  0  0  0  0
  -22.2690  -13.1880   21.9000 N   0  0  0  0  0  0  0  0  0  0  0  0
  -22.6240  -14.8710   20.4810 O   0  0  0  0  0  0  0  0  0  0  0  0
  -22.6070  -12.3560   22.3610 H   0  0  0  0  0  0  0  0  0  0  0  0
  -21.3410  -13.5240   22.1160 H   0  0  0  0  0  0  0  0  0  0  0  0
  -25.7150  -15.4110   20.2270 N   0  0  0  0  0  0  0  0  0  0  0  0
  -24.9630  -16.0880   20.3050 H   0  0  0  0  0  0  0  0  0  0  0  0
  -26.5760  -15.8150   19.8840 H   0  0  0  0  0  0  0  0  0  0  0  0
  1  2  1  0
  1 48  1  0
  2  4  1  0
  3  2  1  0
  5  2  1  0
  5  6  2  0
  7  6  1  0
  8 19  2  0
  9  7  1  0
  9 14  1  0
 10 18  1  0
 10 20  1  0
 11 17  1  0
 11 13  1  0
 12 18  1  0
 13 14  2  0
 13 12  1  0
 15  9  2  0
 16 15  1  0
 16 11  2  0
 17 10  1  0
 18  8  1  0
 20 22  2  0
 21 20  1  0
 23 21  1  0
 24 33  2  0
 24 29  1  0
 25 21  1  0
 25 29  1  0
 26 25  1  0
 27 28  1  0
 27 26  1  0
 28 24  1  0
 29 30  2  0
 30 31  1  0
 32 31  2  0
 33 32  1  0
 34  8  1  0
 34 35  1  0
 34 44  1  0
 35 38  1  0
 36 40  1  0
 36 35  1  0
 37 36  2  0
 40 39  1  0
 42 40  1  0
 42 43  1  0
 42 41  1  0
 44 47  1  1
 44 45  1  0
 46 44  1  0
 48 55  1  0
 48 54  1  0
 49 50  1  0
 51 49  1  0
 52 50  1  0
 53 51  1  0
 53 54  1  0
 54 52  1  0
 55 64  1  0
 56 62  1  0
 56 64  1  0
 57 62  1  0
 58 59  1  0
 58 57  1  0
 60 59  1  0
 60 69  1  0
 60 61  1  0
 62 61  1  0
 63 56  2  0
 64 65  1  0
 66 67  2  0
 67 86  1  0
 68 67  1  0
 68 71  1  0
 69 66  1  0
 69 70  1  0
 70 68  2  0
 71 72  1  0
 72 73  2  0
 74 77  1  0
 74 73  1  0
 75 74  2  0
 76 75  1  0
 76 71  2  0
 77 78  1  0
 78 79  1  0
 79 80  2  0
 81 80  1  0
 81 85  1  0
 82 81  2  0
 83 78  2  0
 83 82  1  0
 84 83  1  0
 86 87  1  0
 87 90  1  0
 87 89  1  0
 88 86  2  0
 91 92  1  0
 91 66  1  0
 93 91  1  0
M  ISO  4   6 101   7 101  56 100  64 100
M  END
>  <TORSDO>  (5) 
F 22

>  <SCORE>  (5) 
-13.993

>  <name>  (5) 
4

>  <ligand_id>  (5) 
4

>  <original_smiles>  (5) 
[H]c1c([H])c([H])c2c(c1[H])C([H])([H])C([H])([H])C([H])([H])C2([H])N([H])C(=O)C1([H])N(C(=O)C([H])(N([H])C(=O)C([H])(N([H])C([H])([H])[H])C([H])([H])[H])C(C([H])([H])[H])(C([H])([H])[H])C([H])([H])[H])C([H])([H])c2c([H])c(OC([H])([H])C([H])([H])[N+]([H])([H])C([H])([H])C([H])(N3C([H])([H])C([H])([H])C([H])([H])C([H])([H])C3([H])[H])C([H])([H])N([H])C(=O)N3C([H])([H])C([H])([H])C([H])([H])C([H])(n4nc(-c5c([H])c([H])c(Oc6c([H])c([H])c(F)c([H])c6F)c([H])c5[H])c(C(=O)N([H])[H])c4N([H])[H])C3([H])[H])c([H])c([H])c2C1([H])[H]

>  <smiles>  (5) 
[H]c1c([H])c([H])c2c(c1[H])C([H])([H])C([H])([H])C([H])([H])C2([H])N([H])C(=O)C1([H])N(C(=O)C([H])(N([H])C(=O)C([H])(N([H])C([H])([H])[H])C([H])([H])[H])C(C([H])([H])[H])(C([H])([H])[H])C([H])([H])[H])C([H])([H])c2c([H])c(OC([H])([H])C([H])([H])[N+]([H])([H])C([H])([H])C([H])(N3C([H])([H])C([H])([H])C([H])([H])C([H])([H])C3([H])[H])C([H])([H])N([H])C(=O)N3C([H])([H])C([H])([H])C([H])([H])C([H])(n4nc(-c5c([H])c([H])c(Oc6c([H])c([H])c(F)c([H])c6F)c([H])c5[H])c(C(=O)N([H])[H])c4N([H])[H])C3([H])[H])c([H])c([H])c2C1([H])[H]

$$$$
5:0:0
     RDKit          3D

 94102  0  0  1  0  0  0  0  0999 V2000
  -28.8960  -22.2780   20.5090 C   0  0  0  0  0  3  0  0  0  0  0  0
  -31.3010  -18.9550   19.8980 C   0  0  0  0  0  2  0  0  0  0  0  0
  -31.6410  -20.3600   19.3530 C   0  0  0  0  0  2  0  0  0  0  0  0
  -29.2890  -20.5170   18.4650 C   0  0  0  0  0  2  0  0  0  0  0  0
  -28.9350  -20.4180   19.9600 C   0  0  0  0  0  3  0  0  0  0  0  0
  -29.8420  -18.7620   20.3980 C   0  0  0  0  0  3  0  0  0  0  0  0
  -30.7340  -20.7950   18.2540 N   0  0  0  0  0  4  0  0  0  0  0  0
  -31.0220  -20.3580   17.3900 H   0  0  0  0  0  0  0  0  0  0  0  0
  -30.8580  -21.7850   18.1110 H   0  0  0  0  0  0  0  0  0  0  0  0
  -30.3300  -15.6420   20.2110 C   0  0  0  0  0  0  0  0  0  0  0  0
  -30.3770  -13.1190   19.3720 C   0  0  0  0  0  2  0  0  0  0  0  0
  -29.4670  -12.7540   18.1670 C   0  0  0  0  0  2  0  0  0  0  0  0
  -28.0390  -12.4270   18.6260 C   0  0  0  0  0  2  0  0  0  0  0  0
  -27.5600  -13.4100   19.7170 C   0  0  0  0  0  3  0  0  0  0  0  0
  -28.6080  -13.6830   20.8220 C   0  0  0  0  0  2  0  0  0  0  0  0
  -29.7800  -14.2920   20.1490 N   0  0  0  0  0  0  0  0  0  0  0  0
  -31.5610  -15.5710   20.0460 O   0  0  0  0  0  0  0  0  0  0  0  0
  -29.5960  -17.0090   20.2710 N   0  0  0  0  0  0  0  0  0  0  0  0
  -28.6100  -16.8010   20.3640 H   0  0  0  0  0  0  0  0  0  0  0  0
  -25.2060  -13.9360   20.5060 C   0  0  0  0  0  0  0  0  0  0  0  0
  -24.1500  -13.1560   20.8810 C   0  0  0  0  0  0  0  0  0  0  0  0
  -24.6220  -11.8050   20.8370 C   0  0  0  0  0  0  0  0  0  0  0  0
  -26.2470  -13.0680   20.2490 N   0  0  0  0  0  0  0  0  0  0  0  0
  -25.9110  -11.7780   20.5130 N   0  0  0  0  0  0  0  0  0  0  0  0
  -23.9000  -10.5390   21.0240 C   0  0  0  0  0  0  0  0  0  0  0  0
  -24.3330   -9.5660   21.9520 C   0  0  0  0  0  3  0  0  0  0  0  0
  -23.6050   -8.3700   22.1290 C   0  0  0  0  0  3  0  0  0  0  0  0
  -22.4300   -8.1360   21.3770 C   0  0  0  0  0  0  0  0  0  0  0  0
  -22.0170   -9.0960   20.4350 C   0  0  0  0  0  3  0  0  0  0  0  0
  -22.7460  -10.2830   20.2570 C   0  0  0  0  0  3  0  0  0  0  0  0
  -21.6750   -6.9910   21.4580 O   0  0  0  0  0  0  0  0  0  0  0  0
  -21.6170   -6.2520   22.6110 C   0  0  0  0  0  0  0  0  0  0  0  0
  -21.1470   -6.7980   23.8250 C   0  0  0  0  0  3  0  0  0  0  0  0
  -21.0400   -5.9830   24.9710 C   0  0  0  0  0  3  0  0  0  0  0  0
  -21.3910   -4.6220   24.9020 C   0  0  0  0  0  0  0  0  0  0  0  0
  -21.8530   -4.0750   23.6920 C   0  0  0  0  0  3  0  0  0  0  0  0
  -21.9630   -4.8860   22.5500 C   0  0  0  0  0  0  0  0  0  0  0  0
  -22.3880   -4.3490   21.3800 F   0  0  0  0  0  0  0  0  0  0  0  0
  -21.2820   -3.8360   25.9990 F   0  0  0  0  0  0  0  0  0  0  0  0
  -22.7530  -13.6280   21.1580 C   0  0  0  0  0  0  0  0  0  0  0  0
  -22.0330  -12.9270   22.0210 N   0  0  0  0  0  0  0  0  0  0  0  0
  -22.3140  -14.6570   20.6440 O   0  0  0  0  0  0  0  0  0  0  0  0
  -22.4030  -12.0940   22.4550 H   0  0  0  0  0  0  0  0  0  0  0  0
  -21.0970  -13.2310   22.2570 H   0  0  0  0  0  0  0  0  0  0  0  0
  -25.3740  -15.3100   20.3290 N   0  0  0  0  0  0  0  0  0  0  0  0
  -24.6180  -15.9820   20.3960 H   0  0  0  0  0  0  0  0  0  0  0  0
  -26.2210  -15.7090   19.9500 H   0  0  0  0  0  0  0  0  0  0  0  0
  -28.5100  -22.2110   22.0050 C   0  0  0  0  0  2  0  0  0  0  0  0
  -29.5420  -21.6260   22.8800 N   0  0  0  0  0  4  0  0  0  0  0  0
  -29.9160  -20.7700   22.5160 H   0  0  0  0  0  0  0  0  0  0  0  0
  -29.1220  -21.4220   23.7700 H   0  0  0  0  0  0  0  0  0  0  0  0
  -30.2860  -22.2830   23.0410 H   0  0  0  0  0  0  0  0  0  0  0  0
  -28.0590  -23.9420   20.0260 C   0  0  0  0  0  2  0  0  0  0  0  0
  -28.1690  -25.6540   20.3280 O   0  0  0  0  0  0  0  0  0  0  0  0
  -24.6420  -31.8660   23.2510 C   0  0  0  0  0  0  0  0  0  0  0  0
  -27.1810  -26.8360   20.2510 C   0  0  0  0  0  0  0  0  0  0  0  0
  -23.4490  -30.4650   21.6170 C   0  0  0  0  0  3  0  0  0  0  0  0
  -24.8990  -28.8240   20.2040 C   0  0  0  0  0  0  0  0  0  0  0  0
  -26.0250  -30.6240   21.4930 C   0  0  0  0  0  2  0  0  0  0  0  0
  -26.0910  -29.2000   20.8320 C   0  0  0  0  0  0  0  0  0  0  0  0
  -27.2190  -28.2300   20.8230 C   0  0  0  0  0  3  0  0  0  0  0  0
  -25.9530  -26.6590   19.5690 C   0  0  0  0  0  3  0  0  0  0  0  0
  -24.8600  -27.5790   19.5550 C   0  0  0  0  0  3  0  0  0  0  0  0
  -23.6820  -29.7620   20.2500 C   0  0  0  0  0  2  0  0  0  0  0  0
  -24.7270  -31.0170   22.1710 N   0  0  0  0  0  0  0  0  0  0  0  0
  -23.5520  -32.1660   23.7660 O   0  0  0  0  0  0  0  0  0  0  0  0
  -22.7400  -29.4900   22.5960 C   0  0  0  0  0  0  0  0  0  0  0  0
  -21.4130  -29.3180   22.4600 N   0  0  0  0  0  0  0  0  0  0  0  0
  -23.3980  -28.8870   23.4470 O   0  0  0  0  0  0  0  0  0  0  0  0
  -20.9350  -29.8520   21.7470 H   0  0  0  0  0  0  0  0  0  0  0  0
  -18.0390  -28.0710   22.9690 C   0  0  0  0  0  0  0  0  0  0  0  0
  -20.5940  -28.3810   23.2380 C   0  0  0  0  0  3  0  0  0  0  0  0
  -20.7190  -26.9440   22.6820 C   0  0  0  0  0  2  0  0  0  0  0  0
  -19.6280  -26.5940   21.6660 C   0  0  0  0  0  2  0  0  0  0  0  0
  -18.2400  -26.7220   22.3000 C   0  0  0  0  0  2  0  0  0  0  0  0
  -19.1440  -28.8560   23.3930 C   0  0  0  0  0  0  0  0  0  0  0  0
  -18.8990  -30.1160   23.9850 C   0  0  0  0  0  3  0  0  0  0  0  0
  -17.5850  -30.5920   24.1500 C   0  0  0  0  0  3  0  0  0  0  0  0
  -16.4950  -29.8060   23.7390 C   0  0  0  0  0  3  0  0  0  0  0  0
  -16.7230  -28.5480   23.1500 C   0  0  0  0  0  3  0  0  0  0  0  0
  -25.9070  -32.5170   23.8860 C   0  0  0  0  0  3  0  0  0  0  0  0
  -26.3980  -31.7720   25.1890 C   0  0  1  0  0  0  0  0  0  0  0  0
  -25.2830  -31.5670   26.2400 C   0  0  0  0  0  1  0  0  0  0  0  0
  -26.9790  -30.3810   24.8570 C   0  0  0  0  0  1  0  0  0  0  0  0
  -27.5480  -32.5730   25.8430 C   0  0  0  0  0  1  0  0  0  0  0  0
  -25.5920  -33.9240   24.2010 N   0  0  0  0  0  0  0  0  0  0  0  0
  -25.9190  -34.9800   23.4420 C   0  0  0  0  0  0  0  0  0  0  0  0
  -26.5810  -34.8710   22.4080 O   0  0  0  0  0  0  0  0  0  0  0  0
  -25.0010  -34.0790   25.0030 H   0  0  0  0  0  0  0  0  0  0  0  0
  -24.1930  -36.7830   23.1160 C   0  0  0  0  0  1  0  0  0  0  0  0
  -25.4450  -36.3720   23.9060 C   0  0  0  0  0  3  0  0  0  0  0  0
  -27.5880  -37.2670   24.7040 C   0  0  0  0  0  1  0  0  0  0  0  0
  -26.4780  -37.4240   23.7680 N   0  0  0  0  0  0  0  0  0  0  0  0
  -26.0730  -38.3440   23.9110 H   0  0  0  0  0  0  0  0  0  0  0  0
  1 53  1  0
  1 48  1  0
  2  6  1  0
  3  2  1  0
  4  5  1  0
  5  6  1  0
  5  1  1  0
  6 18  1  0
  7  4  1  0
  7  3  1  0
  8  7  1  0
  9  7  1  0
 10 18  1  0
 11 16  1  0
 12 13  1  0
 12 11  1  0
 14 13  1  0
 14 23  1  0
 14 15  1  0
 16 10  1  0
 16 15  1  0
 17 10  2  0
 18 19  1  0
 20 21  2  0
 21 40  1  0
 22 21  1  0
 22 25  1  0
 23 20  1  0
 23 24  1  0
 24 22  2  0
 25 26  1  0
 26 27  2  0
 28 31  1  0
 28 27  1  0
 29 28  2  0
 30 29  1  0
 30 25  2  0
 31 32  1  0
 32 33  1  0
 33 34  2  0
 35 34  1  0
 35 39  1  0
 36 35  2  0
 37 32  2  0
 37 36  1  0
 38 37  1  0
 40 41  1  0
 41 44  1  0
 41 43  1  0
 42 40  2  0
 45 46  1  0
 45 20  1  0
 47 45  1  0
 48 49  1  0
 49 52  1  0
 49 51  1  0
 50 49  1  0
 53 54  1  0
 55 66  2  0
 56 54  1  0
 56 61  1  0
 57 65  1  0
 57 67  1  0
 58 64  1  0
 58 60  1  0
 59 65  1  0
 60 59  1  0
 61 60  2  0
 62 56  2  0
 63 62  1  0
 63 58  2  0
 64 57  1  0
 65 55  1  0
 67 69  2  0
 68 67  1  0
 70 68  1  0
 71 80  2  0
 71 76  1  0
 72 68  1  0
 72 76  1  0
 73 72  1  0
 74 75  1  0
 74 73  1  0
 75 71  1  0
 76 77  2  0
 77 78  1  0
 79 78  2  0
 80 79  1  0
 81 55  1  0
 81 86  1  0
 81 82  1  0
 82 85  1  1
 82 83  1  0
 84 82  1  0
 86 89  1  0
 87 91  1  0
 87 86  1  0
 88 87  2  0
 91 90  1  0
 93 91  1  0
 93 94  1  0
 93 92  1  0
M  ISO  4  10 100  18 100  53 101  54 101
M  END
>  <TORSDO>  (6) 
F 20

>  <SCORE>  (6) 
-16.413

>  <name>  (6) 
5

>  <ligand_id>  (6) 
5

>  <original_smiles>  (6) 
[H]c1c([H])c([H])c2c(c1[H])C([H])([H])C([H])([H])C([H])([H])C2([H])N([H])C(=O)C1([H])N(C(=O)C([H])(N([H])C(=O)C([H])(N([H])C([H])([H])[H])C([H])([H])[H])C(C([H])([H])[H])(C([H])([H])[H])C([H])([H])[H])C([H])([H])c2c([H])c(OC([H])([H])C([H])(C3([H])C([H])(N([H])C(=O)N4C([H])([H])C([H])([H])C([H])([H])C([H])(n5nc(-c6c([H])c([H])c(Oc7c([H])c([H])c(F)c([H])c7F)c([H])c6[H])c(C(=O)N([H])[H])c5N([H])[H])C4([H])[H])C([H])([H])C([H])([H])[N+]([H])([H])C3([H])[H])C([H])([H])[N+]([H])([H])[H])c([H])c([H])c2C1([H])[H]

>  <smiles>  (6) 
[H]c1c([H])c([H])c2c(c1[H])C([H])([H])C([H])([H])C([H])([H])C2([H])N([H])C(=O)C1([H])N(C(=O)C([H])(N([H])C(=O)C([H])(N([H])C([H])([H])[H])C([H])([H])[H])C(C([H])([H])[H])(C([H])([H])[H])C([H])([H])[H])C([H])([H])c2c([H])c(OC([H])([H])C([H])(C3([H])C([H])(N([H])C(=O)N4C([H])([H])C([H])([H])C([H])([H])C([H])(n5nc(-c6c([H])c([H])c(Oc7c([H])c([H])c(F)c([H])c7F)c([H])c6[H])c(C(=O)N([H])[H])c5N([H])[H])C4([H])[H])C([H])([H])C([H])([H])[N+]([H])([H])C3([H])[H])C([H])([H])[N+]([H])([H])[H])c([H])c([H])c2C1([H])[H]

$$$$
6:0:0
     RDKit          3D

 99106  0  0  1  0  0  0  0  0999 V2000
  -30.7150  -20.1350   20.6280 C   0  0  0  0  0  3  0  0  0  0  0  0
  -31.9910  -20.4690   19.9530 N   0  0  0  0  0  4  0  0  0  0  0  0
  -31.8860  -21.1160   19.1950 H   0  0  0  0  0  0  0  0  0  0  0  0
  -32.4290  -19.6420   19.5840 H   0  0  0  0  0  0  0  0  0  0  0  0
  -32.6360  -20.8730   20.6120 H   0  0  0  0  0  0  0  0  0  0  0  0
  -30.1160  -21.4070   21.3080 C   0  0  0  0  0  2  0  0  0  0  0  0
  -29.7000  -22.5760   20.3630 C   0  0  0  0  0  2  0  0  0  0  0  0
  -30.1890  -23.9100   20.8120 N   0  0  0  0  0  4  0  0  0  0  0  0
  -31.1790  -23.8340   20.9890 H   0  0  0  0  0  0  0  0  0  0  0  0
  -29.7600  -24.1760   21.6850 H   0  0  0  0  0  0  0  0  0  0  0  0
  -30.0370  -25.0110   19.8210 C   0  0  0  0  0  2  0  0  0  0  0  0
  -28.5920  -25.5260   19.6480 C   0  0  0  0  0  2  0  0  0  0  0  0
  -28.4860  -26.8120   20.2600 O   0  0  0  0  0  0  0  0  0  0  0  0
  -24.5490  -31.8940   23.2620 C   0  0  0  0  0  0  0  0  0  0  0  0
  -27.2770  -27.4760   20.2230 C   0  0  0  0  0  0  0  0  0  0  0  0
  -23.3790  -30.4800   21.6060 C   0  0  0  0  0  3  0  0  0  0  0  0
  -24.8610  -28.9500   20.2050 C   0  0  0  0  0  0  0  0  0  0  0  0
  -25.9030  -30.8550   21.4440 C   0  0  0  0  0  2  0  0  0  0  0  0
  -26.0030  -29.4850   20.8110 C   0  0  0  0  0  0  0  0  0  0  0  0
  -27.2070  -28.7490   20.8270 C   0  0  0  0  0  3  0  0  0  0  0  0
  -26.1110  -26.9460   19.6170 C   0  0  0  0  0  3  0  0  0  0  0  0
  -24.9080  -27.6770   19.6100 C   0  0  0  0  0  3  0  0  0  0  0  0
  -23.6130  -29.8040   20.2290 C   0  0  0  0  0  2  0  0  0  0  0  0
  -24.6290  -31.0920   22.1630 N   0  0  0  0  0  0  0  0  0  0  0  0
  -23.4590  -32.1620   23.7840 O   0  0  0  0  0  0  0  0  0  0  0  0
  -22.7230  -29.4550   22.5560 C   0  0  0  0  0  0  0  0  0  0  0  0
  -21.4000  -29.2690   22.4100 N   0  0  0  0  0  0  0  0  0  0  0  0
  -23.3980  -28.8310   23.3790 O   0  0  0  0  0  0  0  0  0  0  0  0
  -20.9180  -29.8220   21.7170 H   0  0  0  0  0  0  0  0  0  0  0  0
  -18.0180  -28.1030   22.8930 C   0  0  0  0  0  0  0  0  0  0  0  0
  -20.5780  -28.3280   23.1680 C   0  0  0  0  0  3  0  0  0  0  0  0
  -20.6650  -26.9060   22.5710 C   0  0  0  0  0  2  0  0  0  0  0  0
  -19.5600  -26.6090   21.5510 C   0  0  0  0  0  2  0  0  0  0  0  0
  -18.1800  -26.7620   22.1960 C   0  0  0  0  0  2  0  0  0  0  0  0
  -19.1450  -28.8450   23.3350 C   0  0  0  0  0  0  0  0  0  0  0  0
  -18.9410  -30.1030   23.9440 C   0  0  0  0  0  3  0  0  0  0  0  0
  -17.6430  -30.6160   24.1200 C   0  0  0  0  0  3  0  0  0  0  0  0
  -16.5290  -29.8690   23.6960 C   0  0  0  0  0  3  0  0  0  0  0  0
  -16.7180  -28.6140   23.0880 C   0  0  0  0  0  3  0  0  0  0  0  0
  -25.8210  -32.5370   23.8990 C   0  0  0  0  0  3  0  0  0  0  0  0
  -25.5060  -33.9400   24.1970 N   0  0  0  0  0  0  0  0  0  0  0  0
  -25.8750  -34.9810   23.4380 C   0  0  0  0  0  0  0  0  0  0  0  0
  -26.5880  -34.8600   22.4370 O   0  0  0  0  0  0  0  0  0  0  0  0
  -24.8810  -34.1090   24.9720 H   0  0  0  0  0  0  0  0  0  0  0  0
  -24.1960  -36.7870   22.9570 C   0  0  0  0  0  1  0  0  0  0  0  0
  -25.3730  -36.3760   23.8540 C   0  0  0  0  0  3  0  0  0  0  0  0
  -27.4520  -37.2440   24.8310 C   0  0  0  0  0  1  0  0  0  0  0  0
  -26.4240  -37.4160   23.8080 N   0  0  0  0  0  0  0  0  0  0  0  0
  -26.0200  -38.3410   23.9200 H   0  0  0  0  0  0  0  0  0  0  0  0
  -26.3140  -31.7880   25.1990 C   0  0  1  0  0  0  0  0  0  0  0  0
  -25.1990  -31.5560   26.2460 C   0  0  0  0  0  1  0  0  0  0  0  0
  -26.9120  -30.4080   24.8330 C   0  0  0  0  0  1  0  0  0  0  0  0
  -27.4430  -32.6010   25.8740 C   0  0  0  0  0  1  0  0  0  0  0  0
  -29.7550  -19.3140   19.6890 C   0  0  0  0  0  2  0  0  0  0  0  0
  -29.1500  -17.9620   20.2190 C   0  0  0  0  0  3  0  0  0  0  0  0
  -30.2570  -17.0100   20.7970 C   0  0  0  0  0  2  0  0  0  0  0  0
  -30.6960  -14.5500   20.5320 C   0  0  0  0  0  0  0  0  0  0  0  0
  -30.4460  -12.4210   19.3360 C   0  0  0  0  0  2  0  0  0  0  0  0
  -29.4960  -12.6580   18.1470 C   0  0  0  0  0  2  0  0  0  0  0  0
  -28.0270  -12.4770   18.5730 C   0  0  0  0  0  2  0  0  0  0  0  0
  -27.6750  -13.2700   19.8570 C   0  0  0  0  0  3  0  0  0  0  0  0
  -28.7330  -13.0440   20.9590 C   0  0  0  0  0  2  0  0  0  0  0  0
  -30.0550  -13.3610   20.3970 N   0  0  0  0  0  0  0  0  0  0  0  0
  -31.8420  -14.7420   20.1140 O   0  0  0  0  0  0  0  0  0  0  0  0
  -29.9180  -15.5770   20.9290 N   0  0  0  0  0  0  0  0  0  0  0  0
  -29.0200  -15.3310   21.3160 H   0  0  0  0  0  0  0  0  0  0  0  0
  -25.2650  -13.8580   20.5470 C   0  0  0  0  0  0  0  0  0  0  0  0
  -24.1960  -13.0770   20.8870 C   0  0  0  0  0  0  0  0  0  0  0  0
  -24.6710  -11.7310   20.8570 C   0  0  0  0  0  0  0  0  0  0  0  0
  -26.3210  -12.9870   20.3220 N   0  0  0  0  0  0  0  0  0  0  0  0
  -25.9660  -11.7010   20.5710 N   0  0  0  0  0  0  0  0  0  0  0  0
  -23.9590  -10.4660   21.0400 C   0  0  0  0  0  0  0  0  0  0  0  0
  -24.3710   -9.5220   22.0030 C   0  0  0  0  0  3  0  0  0  0  0  0
  -23.6610   -8.3140   22.1660 C   0  0  0  0  0  3  0  0  0  0  0  0
  -22.5230   -8.0430   21.3690 C   0  0  0  0  0  0  0  0  0  0  0  0
  -22.1330   -8.9800   20.3960 C   0  0  0  0  0  3  0  0  0  0  0  0
  -22.8430  -10.1790   20.2300 C   0  0  0  0  0  3  0  0  0  0  0  0
  -21.7850   -6.8860   21.4410 O   0  0  0  0  0  0  0  0  0  0  0  0
  -21.6740   -6.1770   22.6100 C   0  0  0  0  0  0  0  0  0  0  0  0
  -21.1210   -6.7460   23.7780 C   0  0  0  0  0  3  0  0  0  0  0  0
  -20.9600   -5.9600   24.9360 C   0  0  0  0  0  3  0  0  0  0  0  0
  -21.3430   -4.6040   24.9280 C   0  0  0  0  0  0  0  0  0  0  0  0
  -21.8870   -4.0350   23.7620 C   0  0  0  0  0  3  0  0  0  0  0  0
  -22.0480   -4.8180   22.6060 C   0  0  0  0  0  0  0  0  0  0  0  0
  -22.5530   -4.2580   21.4790 F   0  0  0  0  0  0  0  0  0  0  0  0
  -21.1830   -3.8440   26.0360 F   0  0  0  0  0  0  0  0  0  0  0  0
  -22.7940  -13.5400   21.1460 C   0  0  0  0  0  0  0  0  0  0  0  0
  -22.0580  -12.8320   21.9950 N   0  0  0  0  0  0  0  0  0  0  0  0
  -22.3630  -14.5730   20.6380 O   0  0  0  0  0  0  0  0  0  0  0  0
  -22.4290  -11.9990   22.4310 H   0  0  0  0  0  0  0  0  0  0  0  0
  -21.1160  -13.1290   22.2100 H   0  0  0  0  0  0  0  0  0  0  0  0
  -25.4270  -15.2350   20.4080 N   0  0  0  0  0  0  0  0  0  0  0  0
  -24.6810  -15.8460   20.7110 H   0  0  0  0  0  0  0  0  0  0  0  0
  -26.3400  -15.6490   20.4990 H   0  0  0  0  0  0  0  0  0  0  0  0
  -28.3240  -17.2290   19.1180 C   0  0  0  0  0  2  0  0  0  0  0  0
  -27.2820  -18.0220   18.4350 N   0  0  0  0  0  4  0  0  0  0  0  0
  -26.5720  -18.3400   19.0730 H   0  0  0  0  0  0  0  0  0  0  0  0
  -26.8220  -17.4280   17.7580 H   0  0  0  0  0  0  0  0  0  0  0  0
  -27.6690  -18.8020   17.9340 H   0  0  0  0  0  0  0  0  0  0  0  0
  1 54  1  0
  1  6  1  0
  2  5  1  0
  2  1  1  0
  3  2  1  0
  4  2  1  0
  7  8  1  0
  7  6  1  0
  8  9  1  0
  8 10  1  0
 11  8  1  0
 12 11  1  0
 12 13  1  0
 14 25  2  0
 15 13  1  0
 15 20  1  0
 16 24  1  0
 16 26  1  0
 17 23  1  0
 17 19  1  0
 18 24  1  0
 19 20  2  0
 19 18  1  0
 21 15  2  0
 22 21  1  0
 22 17  2  0
 23 16  1  0
 24 14  1  0
 26 28  2  0
 27 26  1  0
 29 27  1  0
 30 39  2  0
 30 35  1  0
 31 27  1  0
 31 35  1  0
 32 31  1  0
 33 34  1  0
 33 32  1  0
 34 30  1  0
 35 36  2  0
 36 37  1  0
 38 37  2  0
 39 38  1  0
 40 14  1  0
 40 41  1  0
 40 50  1  0
 41 44  1  0
 42 46  1  0
 42 41  1  0
 43 42  2  0
 46 45  1  0
 48 46  1  0
 48 49  1  0
 48 47  1  0
 50 53  1  1
 50 51  1  0
 52 50  1  0
 54 55  1  0
 55 95  1  0
 55 56  1  0
 56 65  1  0
 57 65  1  0
 58 63  1  0
 59 60  1  0
 59 58  1  0
 61 60  1  0
 61 70  1  0
 61 62  1  0
 63 57  1  0
 63 62  1  0
 64 57  2  0
 65 66  1  0
 67 68  2  0
 68 87  1  0
 69 68  1  0
 69 72  1  0
 70 67  1  0
 70 71  1  0
 71 69  2  0
 72 73  1  0
 73 74  2  0
 75 78  1  0
 75 74  1  0
 76 75  2  0
 77 76  1  0
 77 72  2  0
 78 79  1  0
 79 80  1  0
 80 81  2  0
 82 81  1  0
 82 86  1  0
 83 82  2  0
 84 79  2  0
 84 83  1  0
 85 84  1  0
 87 88  1  0
 88 91  1  0
 88 90  1  0
 89 87  2  0
 92 94  1  0
 92 67  1  0
 92 93  1  0
 96 97  1  0
 96 95  1  0
 98 96  1  0
 99 96  1  0
M  ISO  4  12 101  13 101  57 100  65 100
M  END
>  <TORSDO>  (7) 
F 27

>  <SCORE>  (7) 
-11.869

>  <name>  (7) 
6

>  <ligand_id>  (7) 
6

>  <original_smiles>  (7) 
[H]c1c([H])c([H])c2c(c1[H])C([H])([H])C([H])([H])C([H])([H])C2([H])N([H])C(=O)C1([H])N(C(=O)C([H])(N([H])C(=O)C([H])(N([H])C([H])([H])[H])C([H])([H])[H])C(C([H])([H])[H])(C([H])([H])[H])C([H])([H])[H])C([H])([H])c2c([H])c(OC([H])([H])C([H])([H])[N+]([H])([H])C([H])([H])C([H])([H])C([H])(C([H])([H])C([H])(C([H])([H])N([H])C(=O)N3C([H])([H])C([H])([H])C([H])([H])C([H])(n4nc(-c5c([H])c([H])c(Oc6c([H])c([H])c(F)c([H])c6F)c([H])c5[H])c(C(=O)N([H])[H])c4N([H])[H])C3([H])[H])C([H])([H])[N+]([H])([H])[H])[N+]([H])([H])[H])c([H])c([H])c2C1([H])[H]

>  <smiles>  (7) 
[H]c1c([H])c([H])c2c(c1[H])C([H])([H])C([H])([H])C([H])([H])C2([H])N([H])C(=O)C1([H])N(C(=O)C([H])(N([H])C(=O)C([H])(N([H])C([H])([H])[H])C([H])([H])[H])C(C([H])([H])[H])(C([H])([H])[H])C([H])([H])[H])C([H])([H])c2c([H])c(OC([H])([H])C([H])([H])[N+]([H])([H])C([H])([H])C([H])([H])C([H])(C([H])([H])C([H])(C([H])([H])N([H])C(=O)N3C([H])([H])C([H])([H])C([H])([H])C([H])(n4nc(-c5c([H])c([H])c(Oc6c([H])c([H])c(F)c([H])c6F)c([H])c5[H])c(C(=O)N([H])[H])c4N([H])[H])C3([H])[H])C([H])([H])[N+]([H])([H])[H])[N+]([H])([H])[H])c([H])c([H])c2C1([H])[H]

$$$$
7:0:0
     RDKit          3D

 94101  0  0  1  0  0  0  0  0999 V2000
  -29.2400  -20.5730   20.8540 C   0  0  0  0  0  2  0  0  0  0  0  0
  -29.8070  -21.9410   20.9310 N   0  0  0  0  0  4  0  0  0  0  0  0
  -30.6280  -21.9990   20.3480 H   0  0  0  0  0  0  0  0  0  0  0  0
  -30.0810  -22.1390   21.8800 H   0  0  0  0  0  0  0  0  0  0  0  0
  -28.8320  -22.9550   20.4710 C   0  0  0  0  0  2  0  0  0  0  0  0
  -29.2820  -24.4270   20.5950 C   0  0  0  0  0  2  0  0  0  0  0  0
  -28.1420  -25.3110   20.0680 C   0  0  0  0  0  2  0  0  0  0  0  0
  -28.3380  -26.7240   20.1910 O   0  0  0  0  0  0  0  0  0  0  0  0
  -24.5330  -31.8970   23.2320 C   0  0  0  0  0  0  0  0  0  0  0  0
  -27.1750  -27.4680   20.1420 C   0  0  0  0  0  0  0  0  0  0  0  0
  -23.3230  -30.4900   21.5970 C   0  0  0  0  0  3  0  0  0  0  0  0
  -24.7770  -28.9710   20.1610 C   0  0  0  0  0  0  0  0  0  0  0  0
  -25.8480  -30.8620   21.3890 C   0  0  0  0  0  2  0  0  0  0  0  0
  -25.9370  -29.4940   20.7440 C   0  0  0  0  0  0  0  0  0  0  0  0
  -27.1390  -28.7530   20.7320 C   0  0  0  0  0  3  0  0  0  0  0  0
  -25.9920  -26.9700   19.5380 C   0  0  0  0  0  3  0  0  0  0  0  0
  -24.8000  -27.7080   19.5530 C   0  0  0  0  0  3  0  0  0  0  0  0
  -23.5290  -29.8190   20.2140 C   0  0  0  0  0  2  0  0  0  0  0  0
  -24.5860  -31.0960   22.1310 N   0  0  0  0  0  0  0  0  0  0  0  0
  -23.4530  -32.1670   23.7760 O   0  0  0  0  0  0  0  0  0  0  0  0
  -22.6820  -29.4630   22.5590 C   0  0  0  0  0  0  0  0  0  0  0  0
  -21.3580  -29.2750   22.4380 N   0  0  0  0  0  0  0  0  0  0  0  0
  -23.3730  -28.8400   23.3700 O   0  0  0  0  0  0  0  0  0  0  0  0
  -20.8620  -29.8300   21.7540 H   0  0  0  0  0  0  0  0  0  0  0  0
  -17.9890  -28.0740   22.9500 C   0  0  0  0  0  0  0  0  0  0  0  0
  -20.5470  -28.3360   23.2140 C   0  0  0  0  0  3  0  0  0  0  0  0
  -20.6500  -26.9050   22.6390 C   0  0  0  0  0  2  0  0  0  0  0  0
  -19.5440  -26.5780   21.6300 C   0  0  0  0  0  2  0  0  0  0  0  0
  -18.1650  -26.7230   22.2770 C   0  0  0  0  0  2  0  0  0  0  0  0
  -19.1080  -28.8390   23.3750 C   0  0  0  0  0  0  0  0  0  0  0  0
  -18.8880  -30.1040   23.9630 C   0  0  0  0  0  3  0  0  0  0  0  0
  -17.5830  -30.6040   24.1310 C   0  0  0  0  0  3  0  0  0  0  0  0
  -16.4800  -29.8350   23.7230 C   0  0  0  0  0  3  0  0  0  0  0  0
  -16.6830  -28.5730   23.1380 C   0  0  0  0  0  3  0  0  0  0  0  0
  -25.8200  -32.5330   23.8430 C   0  0  0  0  0  3  0  0  0  0  0  0
  -26.3490  -31.7640   25.1140 C   0  0  1  0  0  0  0  0  0  0  0  0
  -25.2660  -31.5180   26.1890 C   0  0  0  0  0  1  0  0  0  0  0  0
  -26.9360  -30.3900   24.7170 C   0  0  0  0  0  1  0  0  0  0  0  0
  -27.5020  -32.5630   25.7670 C   0  0  0  0  0  1  0  0  0  0  0  0
  -25.5110  -33.9310   24.1690 N   0  0  0  0  0  0  0  0  0  0  0  0
  -25.8360  -34.9790   23.4020 C   0  0  0  0  0  0  0  0  0  0  0  0
  -26.5010  -34.8730   22.3680 O   0  0  0  0  0  0  0  0  0  0  0  0
  -24.9190  -34.0890   24.9720 H   0  0  0  0  0  0  0  0  0  0  0  0
  -24.1050  -36.7670   23.0380 C   0  0  0  0  0  1  0  0  0  0  0  0
  -25.3440  -36.3680   23.8540 C   0  0  0  0  0  3  0  0  0  0  0  0
  -27.4750  -37.2580   24.6890 C   0  0  0  0  0  1  0  0  0  0  0  0
  -26.3760  -37.4220   23.7410 N   0  0  0  0  0  0  0  0  0  0  0  0
  -25.9680  -38.3410   23.8850 H   0  0  0  0  0  0  0  0  0  0  0  0
  -30.2250  -19.4550   21.2450 C   0  0  0  0  0  2  0  0  0  0  0  0
  -29.6260  -18.0370   21.0320 C   0  0  0  0  0  2  0  0  0  0  0  0
  -30.6520  -16.9660   20.5890 C   0  0  0  0  0  3  0  0  0  0  0  0
  -30.7570  -14.4760   20.4520 C   0  0  0  0  0  0  0  0  0  0  0  0
  -30.3740  -12.3450   19.3130 C   0  0  0  0  0  2  0  0  0  0  0  0
  -29.4510  -12.5910   18.1030 C   0  0  0  0  0  2  0  0  0  0  0  0
  -27.9720  -12.4810   18.5220 C   0  0  0  0  0  2  0  0  0  0  0  0
  -27.6390  -13.3070   19.7960 C   0  0  0  0  0  3  0  0  0  0  0  0
  -28.6920  -13.0880   20.9070 C   0  0  0  0  0  2  0  0  0  0  0  0
  -30.0210  -13.3420   20.3310 N   0  0  0  0  0  0  0  0  0  0  0  0
  -31.9300  -14.5530   20.0960 O   0  0  0  0  0  0  0  0  0  0  0  0
  -30.0690  -15.6080   20.6870 N   0  0  0  0  0  0  0  0  0  0  0  0
  -29.0980  -15.5190   20.9430 H   0  0  0  0  0  0  0  0  0  0  0  0
  -25.2340  -13.9170   20.4830 C   0  0  0  0  0  0  0  0  0  0  0  0
  -24.1620  -13.1450   20.8420 C   0  0  0  0  0  0  0  0  0  0  0  0
  -24.6220  -11.7940   20.8230 C   0  0  0  0  0  0  0  0  0  0  0  0
  -26.2830  -13.0340   20.2690 N   0  0  0  0  0  0  0  0  0  0  0  0
  -25.9170  -11.7530   20.5320 N   0  0  0  0  0  0  0  0  0  0  0  0
  -23.8930  -10.5330   21.0080 C   0  0  0  0  0  0  0  0  0  0  0  0
  -24.3210   -9.5580   21.9370 C   0  0  0  0  0  3  0  0  0  0  0  0
  -23.5880   -8.3630   22.1100 C   0  0  0  0  0  3  0  0  0  0  0  0
  -22.4140   -8.1340   21.3540 C   0  0  0  0  0  0  0  0  0  0  0  0
  -22.0050   -9.0970   20.4140 C   0  0  0  0  0  3  0  0  0  0  0  0
  -22.7370  -10.2830   20.2390 C   0  0  0  0  0  3  0  0  0  0  0  0
  -21.6540   -6.9910   21.4370 O   0  0  0  0  0  0  0  0  0  0  0  0
  -21.6100   -6.2380   22.5820 C   0  0  0  0  0  0  0  0  0  0  0  0
  -21.1930   -6.7810   23.8180 C   0  0  0  0  0  3  0  0  0  0  0  0
  -21.0990   -5.9540   24.9550 C   0  0  0  0  0  3  0  0  0  0  0  0
  -21.4080   -4.5850   24.8580 C   0  0  0  0  0  0  0  0  0  0  0  0
  -21.8180   -4.0400   23.6290 C   0  0  0  0  0  3  0  0  0  0  0  0
  -21.9150   -4.8650   22.4940 C   0  0  0  0  0  0  0  0  0  0  0  0
  -22.2890   -4.3300   21.3060 F   0  0  0  0  0  0  0  0  0  0  0  0
  -21.3100   -3.7890   25.9490 F   0  0  0  0  0  0  0  0  0  0  0  0
  -22.7610  -13.6270   21.0940 C   0  0  0  0  0  0  0  0  0  0  0  0
  -22.0220  -12.9350   21.9550 N   0  0  0  0  0  0  0  0  0  0  0  0
  -22.3300  -14.6500   20.5640 O   0  0  0  0  0  0  0  0  0  0  0  0
  -22.3800  -12.1060   22.4060 H   0  0  0  0  0  0  0  0  0  0  0  0
  -21.0820  -13.2380   22.1680 H   0  0  0  0  0  0  0  0  0  0  0  0
  -25.4040  -15.2850   20.2980 N   0  0  0  0  0  0  0  0  0  0  0  0
  -24.6390  -15.9440   20.3930 H   0  0  0  0  0  0  0  0  0  0  0  0
  -26.2580  -15.7190   19.9720 H   0  0  0  0  0  0  0  0  0  0  0  0
  -31.2320  -17.2810   19.1710 C   0  0  0  0  0  2  0  0  0  0  0  0
  -30.3100  -16.9630   18.0670 N   0  0  0  0  0  4  0  0  0  0  0  0
  -30.1020  -15.9830   18.0430 H   0  0  0  0  0  0  0  0  0  0  0  0
  -30.7440  -17.2040   17.1930 H   0  0  0  0  0  0  0  0  0  0  0  0
  -29.4550  -17.4840   18.1430 H   0  0  0  0  0  0  0  0  0  0  0  0
  1  2  1  0
  1 49  1  0
  2  4  1  0
  3  2  1  0
  5  6  1  0
  5  2  1  0
  7  8  1  0
  7  6  1  0
  9 20  2  0
 10  8  1  0
 10 15  1  0
 11 19  1  0
 11 21  1  0
 12 18  1  0
 12 14  1  0
 13 19  1  0
 14 13  1  0
 15 14  2  0
 16 17  1  0
 16 10  2  0
 17 12  2  0
 18 11  1  0
 19  9  1  0
 21 23  2  0
 22 21  1  0
 24 22  1  0
 25 34  2  0
 25 30  1  0
 26 22  1  0
 26 30  1  0
 27 26  1  0
 28 29  1  0
 28 27  1  0
 29 25  1  0
 30 31  2  0
 31 32  1  0
 33 32  2  0
 34 33  1  0
 35  9  1  0
 35 40  1  0
 35 36  1  0
 36 39  1  1
 36 37  1  0
 38 36  1  0
 40 43  1  0
 41 45  1  0
 41 40  1  0
 42 41  2  0
 45 44  1  0
 47 45  1  0
 47 48  1  0
 47 46  1  0
 50 49  1  0
 51 90  1  0
 51 60  1  0
 51 50  1  0
 52 60  1  0
 53 58  1  0
 54 55  1  0
 54 53  1  0
 56 55  1  0
 56 65  1  0
 56 57  1  0
 58 52  1  0
 58 57  1  0
 59 52  2  0
 60 61  1  0
 62 63  2  0
 63 82  1  0
 64 63  1  0
 64 67  1  0
 65 62  1  0
 65 66  1  0
 66 64  2  0
 67 68  1  0
 68 69  2  0
 70 73  1  0
 70 69  1  0
 71 70  2  0
 72 71  1  0
 72 67  2  0
 73 74  1  0
 74 75  1  0
 75 76  2  0
 77 76  1  0
 77 81  1  0
 78 77  2  0
 79 74  2  0
 79 78  1  0
 80 79  1  0
 82 83  1  0
 83 86  1  0
 83 85  1  0
 84 82  2  0
 87 88  1  0
 87 62  1  0
 89 87  1  0
 91 94  1  0
 91 90  1  0
 92 91  1  0
 93 91  1  0
M  ISO  4   7 101   8 101  52 100  60 100
M  END
>  <TORSDO>  (8) 
F 25

>  <SCORE>  (8) 
-12.241

>  <name>  (8) 
7

>  <ligand_id>  (8) 
7

>  <original_smiles>  (8) 
[H]c1c([H])c([H])c2c(c1[H])C([H])([H])C([H])([H])C([H])([H])C2([H])N([H])C(=O)C1([H])N(C(=O)C([H])(N([H])C(=O)C([H])(N([H])C([H])([H])[H])C([H])([H])[H])C(C([H])([H])[H])(C([H])([H])[H])C([H])([H])[H])C([H])([H])c2c([H])c(OC([H])([H])C([H])([H])C([H])([H])[N+]([H])([H])C([H])([H])C([H])([H])C([H])([H])C([H])(N([H])C(=O)N3C([H])([H])C([H])([H])C([H])([H])C([H])(n4nc(-c5c([H])c([H])c(Oc6c([H])c([H])c(F)c([H])c6F)c([H])c5[H])c(C(=O)N([H])[H])c4N([H])[H])C3([H])[H])C([H])([H])[N+]([H])([H])[H])c([H])c([H])c2C1([H])[H]

>  <smiles>  (8) 
[H]c1c([H])c([H])c2c(c1[H])C([H])([H])C([H])([H])C([H])([H])C2([H])N([H])C(=O)C1([H])N(C(=O)C([H])(N([H])C(=O)C([H])(N([H])C([H])([H])[H])C([H])([H])[H])C(C([H])([H])[H])(C([H])([H])[H])C([H])([H])[H])C([H])([H])c2c([H])c(OC([H])([H])C([H])([H])C([H])([H])[N+]([H])([H])C([H])([H])C([H])([H])C([H])([H])C([H])(N([H])C(=O)N3C([H])([H])C([H])([H])C([H])([H])C([H])(n4nc(-c5c([H])c([H])c(Oc6c([H])c([H])c(F)c([H])c6F)c([H])c5[H])c(C(=O)N([H])[H])c4N([H])[H])C3([H])[H])C([H])([H])[N+]([H])([H])[H])c([H])c([H])c2C1([H])[H]

$$$$
8:0:0
     RDKit          3D

 95103  0  0  1  0  0  0  0  0999 V2000
  -30.0780  -20.0370   20.8440 N   0  0  0  0  0  4  0  0  0  0  0  0
  -30.8640  -19.9880   21.4730 H   0  0  0  0  0  0  0  0  0  0  0  0
  -30.4610  -20.1910   19.9250 H   0  0  0  0  0  0  0  0  0  0  0  0
  -29.4320  -18.6440   20.8490 C   0  0  0  0  0  3  0  0  0  0  0  0
  -30.8240  -14.8490   20.5980 C   0  0  0  0  0  0  0  0  0  0  0  0
  -30.6230  -12.6300   19.5030 C   0  0  0  0  0  2  0  0  0  0  0  0
  -29.6810  -12.6600   18.2790 C   0  0  0  0  0  2  0  0  0  0  0  0
  -28.2020  -12.5370   18.6890 C   0  0  0  0  0  2  0  0  0  0  0  0
  -27.8120  -13.3960   19.9220 C   0  0  0  0  0  3  0  0  0  0  0  0
  -28.8640  -13.2910   21.0430 C   0  0  0  0  0  2  0  0  0  0  0  0
  -30.1530  -13.6590   20.4510 N   0  0  0  0  0  0  0  0  0  0  0  0
  -32.0560  -14.8420   20.6360 O   0  0  0  0  0  0  0  0  0  0  0  0
  -31.3590  -17.3240   18.4530 C   0  0  0  0  0  2  0  0  0  0  0  0
  -31.7080  -17.8730   19.8220 C   0  0  0  0  0  2  0  0  0  0  0  0
  -30.3530  -16.2020   18.7230 C   0  0  0  0  0  2  0  0  0  0  0  0
  -30.5370  -17.4340   20.7190 C   0  0  0  0  0  3  0  0  0  0  0  0
  -30.1850  -16.0290   20.1950 N   0  0  0  0  0  0  0  0  0  0  0  0
  -25.3930  -13.9300   20.5870 C   0  0  0  0  0  0  0  0  0  0  0  0
  -24.3310  -13.1290   20.9120 C   0  0  0  0  0  0  0  0  0  0  0  0
  -24.8290  -11.7920   20.9060 C   0  0  0  0  0  0  0  0  0  0  0  0
  -26.4640  -13.0770   20.3880 N   0  0  0  0  0  0  0  0  0  0  0  0
  -26.1320  -11.7870   20.6540 N   0  0  0  0  0  0  0  0  0  0  0  0
  -24.1290  -10.5110   21.0660 C   0  0  0  0  0  0  0  0  0  0  0  0
  -24.5140   -9.5760   22.0510 C   0  0  0  0  0  3  0  0  0  0  0  0
  -23.8110   -8.3610   22.1980 C   0  0  0  0  0  3  0  0  0  0  0  0
  -22.7110   -8.0710   21.3570 C   0  0  0  0  0  0  0  0  0  0  0  0
  -22.3490   -8.9940   20.3590 C   0  0  0  0  0  3  0  0  0  0  0  0
  -23.0530  -10.2010   20.2120 C   0  0  0  0  0  3  0  0  0  0  0  0
  -21.9830   -6.9060   21.4120 O   0  0  0  0  0  0  0  0  0  0  0  0
  -21.8230   -6.2110   22.5840 C   0  0  0  0  0  0  0  0  0  0  0  0
  -21.2500   -6.8040   23.7300 C   0  0  0  0  0  3  0  0  0  0  0  0
  -21.0430   -6.0370   24.8920 C   0  0  0  0  0  3  0  0  0  0  0  0
  -21.3920   -4.6730   24.9080 C   0  0  0  0  0  0  0  0  0  0  0  0
  -21.9550   -4.0780   23.7670 C   0  0  0  0  0  3  0  0  0  0  0  0
  -22.1670   -4.8440   22.6070 C   0  0  0  0  0  0  0  0  0  0  0  0
  -22.6880   -4.2590   21.5030 F   0  0  0  0  0  0  0  0  0  0  0  0
  -21.1840   -3.9320   26.0220 F   0  0  0  0  0  0  0  0  0  0  0  0
  -22.9120  -13.5710   21.1210 C   0  0  0  0  0  0  0  0  0  0  0  0
  -22.1760  -12.8720   21.9780 N   0  0  0  0  0  0  0  0  0  0  0  0
  -22.4620  -14.5710   20.5630 O   0  0  0  0  0  0  0  0  0  0  0  0
  -22.5540  -12.0630   22.4480 H   0  0  0  0  0  0  0  0  0  0  0  0
  -21.2230  -13.1490   22.1630 H   0  0  0  0  0  0  0  0  0  0  0  0
  -25.5340  -15.3010   20.4180 N   0  0  0  0  0  0  0  0  0  0  0  0
  -24.7450  -15.9330   20.4650 H   0  0  0  0  0  0  0  0  0  0  0  0
  -26.3640  -15.7350   20.0380 H   0  0  0  0  0  0  0  0  0  0  0  0
  -28.3160  -18.6560   19.7610 C   0  0  0  0  0  2  0  0  0  0  0  0
  -26.9580  -18.0020   20.0900 C   0  0  0  0  0  2  0  0  0  0  0  0
  -25.9970  -18.1090   18.8840 C   0  0  0  0  0  2  0  0  0  0  0  0
  -23.6980  -18.4350   20.0150 C   0  0  0  0  0  1  0  0  0  0  0  0
  -24.5820  -17.5560   19.1230 C   0  0  0  0  0  2  0  0  0  0  0  0
  -29.3380  -21.3130   21.2420 C   0  0  0  0  0  2  0  0  0  0  0  0
  -29.4010  -22.5620   20.2340 C   0  0  0  0  0  2  0  0  0  0  0  0
  -29.1260  -24.0530   20.7640 C   0  0  0  0  0  3  0  0  0  0  0  0
  -28.4800  -25.1090   19.7590 C   0  0  0  0  0  3  0  0  0  0  0  0
  -28.4830  -26.5550   20.1000 O   0  0  0  0  0  0  0  0  0  0  0  0
  -24.5920  -31.8220   23.1140 C   0  0  0  0  0  0  0  0  0  0  0  0
  -27.3260  -27.3530   20.0190 C   0  0  0  0  0  0  0  0  0  0  0  0
  -23.4260  -30.4060   21.4640 C   0  0  0  0  0  3  0  0  0  0  0  0
  -24.9180  -28.9090   20.0220 C   0  0  0  0  0  0  0  0  0  0  0  0
  -25.9590  -30.7820   21.2930 C   0  0  0  0  0  2  0  0  0  0  0  0
  -26.0710  -29.4150   20.6320 C   0  0  0  0  0  0  0  0  0  0  0  0
  -27.2720  -28.6430   20.6310 C   0  0  0  0  0  3  0  0  0  0  0  0
  -26.1520  -26.9190   19.3560 C   0  0  0  0  0  3  0  0  0  0  0  0
  -24.9620  -27.6670   19.3760 C   0  0  0  0  0  3  0  0  0  0  0  0
  -23.6580  -29.7520   20.0760 C   0  0  0  0  0  2  0  0  0  0  0  0
  -24.6780  -31.0200   22.0130 N   0  0  0  0  0  0  0  0  0  0  0  0
  -23.5010  -32.0680   23.6490 O   0  0  0  0  0  0  0  0  0  0  0  0
  -22.7910  -29.3600   22.4130 C   0  0  0  0  0  0  0  0  0  0  0  0
  -21.4740  -29.1400   22.2760 N   0  0  0  0  0  0  0  0  0  0  0  0
  -23.4850  -28.7530   23.2330 O   0  0  0  0  0  0  0  0  0  0  0  0
  -20.9710  -29.6820   21.5860 H   0  0  0  0  0  0  0  0  0  0  0  0
  -18.1350  -27.8310   22.7480 C   0  0  0  0  0  0  0  0  0  0  0  0
  -20.6800  -28.1770   23.0410 C   0  0  0  0  0  3  0  0  0  0  0  0
  -20.8380  -26.7490   22.4680 C   0  0  0  0  0  2  0  0  0  0  0  0
  -19.7550  -26.3890   21.4450 C   0  0  0  0  0  2  0  0  0  0  0  0
  -18.3620  -26.4890   22.0740 C   0  0  0  0  0  2  0  0  0  0  0  0
  -19.2220  -28.6310   23.1870 C   0  0  0  0  0  0  0  0  0  0  0  0
  -18.9550  -29.8860   23.7740 C   0  0  0  0  0  3  0  0  0  0  0  0
  -17.6300  -30.3410   23.9300 C   0  0  0  0  0  3  0  0  0  0  0  0
  -16.5580  -29.5380   23.5040 C   0  0  0  0  0  3  0  0  0  0  0  0
  -16.8100  -28.2850   22.9180 C   0  0  0  0  0  3  0  0  0  0  0  0
  -25.8580  -32.4830   23.7400 C   0  0  0  0  0  3  0  0  0  0  0  0
  -26.4150  -31.6990   24.9930 C   0  0  1  0  0  0  0  0  0  0  0  0
  -25.3390  -31.3820   26.0590 C   0  0  0  0  0  1  0  0  0  0  0  0
  -27.0520  -30.3590   24.5590 C   0  0  0  0  0  1  0  0  0  0  0  0
  -27.5430  -32.5190   25.6620 C   0  0  0  0  0  1  0  0  0  0  0  0
  -25.5020  -33.8610   24.1110 N   0  0  0  0  0  0  0  0  0  0  0  0
  -25.7950  -34.9450   23.3790 C   0  0  0  0  0  0  0  0  0  0  0  0
  -26.4600  -34.8900   22.3410 O   0  0  0  0  0  0  0  0  0  0  0  0
  -24.9140  -33.9760   24.9230 H   0  0  0  0  0  0  0  0  0  0  0  0
  -23.9980  -36.6800   23.0860 C   0  0  0  0  0  1  0  0  0  0  0  0
  -25.2640  -36.3030   23.8740 C   0  0  0  0  0  3  0  0  0  0  0  0
  -27.3760  -37.2410   24.7000 C   0  0  0  0  0  1  0  0  0  0  0  0
  -26.2580  -37.3960   23.7750 N   0  0  0  0  0  0  0  0  0  0  0  0
  -25.8230  -38.2970   23.9530 H   0  0  0  0  0  0  0  0  0  0  0  0
  1  4  1  0
  1 51  1  0
  1  2  1  0
  3  1  1  0
  4 46  1  0
  5 12  2  0
  6 11  1  0
  7  8  1  0
  7  6  1  0
  9  8  1  0
  9 21  1  0
  9 10  1  0
 11  5  1  0
 11 10  1  0
 13 15  1  0
 13 14  1  0
 14 16  1  0
 15 17  1  0
 16  4  1  0
 17  5  1  0
 17 16  1  0
 18 19  2  0
 19 38  1  0
 20 19  1  0
 20 23  1  0
 21 18  1  0
 21 22  1  0
 22 20  2  0
 23 24  1  0
 24 25  2  0
 26 29  1  0
 26 25  1  0
 27 26  2  0
 28 27  1  0
 28 23  2  0
 29 30  1  0
 30 35  2  0
 30 31  1  0
 31 32  2  0
 32 33  1  0
 33 37  1  0
 34 33  2  0
 35 34  1  0
 36 35  1  0
 38 39  1  0
 39 42  1  0
 39 41  1  0
 40 38  2  0
 43 44  1  0
 43 18  1  0
 45 43  1  0
 46 47  1  0
 48 50  1  0
 48 47  1  0
 50 49  1  0
 52 53  1  0
 52 51  1  0
 54 55  1  0
 54 53  2  0
 56 67  2  0
 57 55  1  0
 57 62  1  0
 58 66  1  0
 58 68  1  0
 59 65  1  0
 59 61  1  0
 60 66  1  0
 61 60  1  0
 62 61  2  0
 63 64  1  0
 63 57  2  0
 64 59  2  0
 65 58  1  0
 66 56  1  0
 68 70  2  0
 69 68  1  0
 71 69  1  0
 72 81  2  0
 72 77  1  0
 73 69  1  0
 73 77  1  0
 74 73  1  0
 75 76  1  0
 75 74  1  0
 76 72  1  0
 77 78  2  0
 78 79  1  0
 80 79  2  0
 81 80  1  0
 82 56  1  0
 82 87  1  0
 82 83  1  0
 83 86  1  1
 83 84  1  0
 85 83  1  0
 87 90  1  0
 88 92  1  0
 88 87  1  0
 89 88  2  0
 92 91  1  0
 94 92  1  0
 94 95  1  0
 94 93  1  0
M  ISO  4   5 100  17 100  54 101  55 101
M  END
>  <TORSDO>  (9) 
F 25

>  <SCORE>  (9) 
-8.775

>  <name>  (9) 
8

>  <ligand_id>  (9) 
8

>  <original_smiles>  (9) 
[H]c1c([H])c([H])c2c(c1[H])C([H])([H])C([H])([H])C([H])([H])C2([H])N([H])C(=O)C1([H])N(C(=O)C([H])(N([H])C(=O)C([H])(N([H])C([H])([H])[H])C([H])([H])[H])C(C([H])([H])[H])(C([H])([H])[H])C([H])([H])[H])C([H])([H])c2c([H])c(OC([H])([H])C([H])([H])C([H])([H])C([H])([H])[N+]([H])([H])C([H])(C([H])([H])C([H])([H])C([H])([H])C([H])([H])C([H])([H])[H])C3([H])N(C(=O)N4C([H])([H])C([H])([H])C([H])([H])C([H])(n5nc(-c6c([H])c([H])c(Oc7c([H])c([H])c(F)c([H])c7F)c([H])c6[H])c(C(=O)N([H])[H])c5N([H])[H])C4([H])[H])C([H])([H])C([H])([H])C3([H])[H])c([H])c([H])c2C1([H])[H]

>  <smiles>  (9) 
[H]c1c([H])c([H])c2c(c1[H])C([H])([H])C([H])([H])C([H])([H])C2([H])N([H])C(=O)C1([H])N(C(=O)C([H])(N([H])C(=O)C([H])(N([H])C([H])([H])[H])C([H])([H])[H])C(C([H])([H])[H])(C([H])([H])[H])C([H])([H])[H])C([H])([H])c2c([H])c(OC([H])([H])C([H])([H])C([H])([H])C([H])([H])[N+]([H])([H])C([H])(C([H])([H])C([H])([H])C([H])([H])C([H])([H])C([H])([H])[H])C3([H])N(C(=O)N4C([H])([H])C([H])([H])C([H])([H])C([H])(n5nc(-c6c([H])c([H])c(Oc7c([H])c([H])c(F)c([H])c7F)c([H])c6[H])c(C(=O)N([H])[H])c5N([H])[H])C4([H])[H])C([H])([H])C([H])([H])C3([H])[H])c([H])c([H])c2C1([H])[H]

$$$$
9:0:0
     RDKit          3D

 90 98  0  0  1  0  0  0  0  0999 V2000
  -28.6350  -22.6320   20.8410 N   0  0  0  0  0  4  0  0  0  0  0  0
  -28.8820  -22.6910   21.8180 H   0  0  0  0  0  0  0  0  0  0  0  0
  -27.6370  -22.4880   20.8020 H   0  0  0  0  0  0  0  0  0  0  0  0
  -29.2850  -21.3810   20.2900 C   0  0  0  0  0  2  0  0  0  0  0  0
  -29.0550  -20.0700   21.1590 C   0  0  0  0  0  2  0  0  0  0  0  0
  -30.8110  -14.6590   20.0150 C   0  0  0  0  0  0  0  0  0  0  0  0
  -30.4830  -12.4640   18.9100 C   0  0  0  0  0  2  0  0  0  0  0  0
  -29.4870  -12.6280   17.7440 C   0  0  0  0  0  2  0  0  0  0  0  0
  -28.0390  -12.4670   18.2470 C   0  0  0  0  0  2  0  0  0  0  0  0
  -27.7470  -13.3000   19.5250 C   0  0  0  0  0  3  0  0  0  0  0  0
  -28.8630  -13.1460   20.5810 C   0  0  0  0  0  2  0  0  0  0  0  0
  -30.1340  -13.4730   19.9290 N   0  0  0  0  0  0  0  0  0  0  0  0
  -31.9560  -14.7690   19.5630 O   0  0  0  0  0  0  0  0  0  0  0  0
  -30.4570  -16.4880   21.5950 C   0  0  0  0  0  2  0  0  0  0  0  0
  -29.9440  -16.8000   19.2610 C   0  0  0  0  0  2  0  0  0  0  0  0
  -29.6700  -17.8100   21.8760 C   0  0  0  0  0  2  0  0  0  0  0  0
  -29.1490  -18.0950   19.6350 C   0  0  0  0  0  2  0  0  0  0  0  0
  -30.0970  -15.7910   20.3410 N   0  0  0  0  0  0  0  0  0  0  0  0
  -29.7480  -18.7940   20.7790 N   0  0  0  0  0  0  0  0  0  0  0  0
  -25.3980  -13.8630   20.3930 C   0  0  0  0  0  0  0  0  0  0  0  0
  -24.3580  -13.0730   20.8040 C   0  0  0  0  0  0  0  0  0  0  0  0
  -24.8260  -11.7270   20.7130 C   0  0  0  0  0  0  0  0  0  0  0  0
  -26.4310  -12.9960   20.0800 N   0  0  0  0  0  0  0  0  0  0  0  0
  -26.0960  -11.7050   20.3320 N   0  0  0  0  0  0  0  0  0  0  0  0
  -24.1190  -10.4550   20.9160 C   0  0  0  0  0  0  0  0  0  0  0  0
  -24.5440   -9.5180   21.8830 C   0  0  0  0  0  3  0  0  0  0  0  0
  -23.8350   -8.3110   22.0720 C   0  0  0  0  0  3  0  0  0  0  0  0
  -22.6860   -8.0340   21.2930 C   0  0  0  0  0  0  0  0  0  0  0  0
  -22.2810   -8.9590   20.3150 C   0  0  0  0  0  3  0  0  0  0  0  0
  -22.9900  -10.1570   20.1240 C   0  0  0  0  0  3  0  0  0  0  0  0
  -21.9500   -6.8770   21.3890 O   0  0  0  0  0  0  0  0  0  0  0  0
  -21.7960   -6.2180   22.5810 C   0  0  0  0  0  0  0  0  0  0  0  0
  -21.2250   -6.8460   23.7110 C   0  0  0  0  0  3  0  0  0  0  0  0
  -21.0210   -6.1110   24.8960 C   0  0  0  0  0  3  0  0  0  0  0  0
  -21.3770   -4.7510   24.9520 C   0  0  0  0  0  0  0  0  0  0  0  0
  -21.9390   -4.1240   23.8260 C   0  0  0  0  0  3  0  0  0  0  0  0
  -22.1460   -4.8550   22.6440 C   0  0  0  0  0  0  0  0  0  0  0  0
  -22.6680   -4.2400   21.5550 F   0  0  0  0  0  0  0  0  0  0  0  0
  -21.1750   -4.0420   26.0890 F   0  0  0  0  0  0  0  0  0  0  0  0
  -22.9760  -13.5330   21.1660 C   0  0  0  0  0  0  0  0  0  0  0  0
  -22.3060  -12.8160   22.0610 N   0  0  0  0  0  0  0  0  0  0  0  0
  -22.5000  -14.5650   20.6900 O   0  0  0  0  0  0  0  0  0  0  0  0
  -22.7030  -11.9820   22.4660 H   0  0  0  0  0  0  0  0  0  0  0  0
  -21.3800  -13.1050   22.3430 H   0  0  0  0  0  0  0  0  0  0  0  0
  -25.5460  -15.2380   20.2430 N   0  0  0  0  0  0  0  0  0  0  0  0
  -24.7890  -15.8880   20.4220 H   0  0  0  0  0  0  0  0  0  0  0  0
  -26.3870  -15.6900   19.9060 H   0  0  0  0  0  0  0  0  0  0  0  0
  -28.9550  -23.9680   20.1910 C   0  0  0  0  0  2  0  0  0  0  0  0
  -28.1510  -25.2040   20.7710 C   0  0  0  0  0  2  0  0  0  0  0  0
  -28.4010  -26.5490   20.2150 O   0  0  0  0  0  0  0  0  0  0  0  0
  -24.6680  -31.9040   23.2130 C   0  0  0  0  0  0  0  0  0  0  0  0
  -27.2910  -27.3900   20.1660 C   0  0  0  0  0  0  0  0  0  0  0  0
  -23.4600  -30.4910   21.5850 C   0  0  0  0  0  3  0  0  0  0  0  0
  -24.9140  -28.9560   20.1490 C   0  0  0  0  0  0  0  0  0  0  0  0
  -25.9880  -30.8470   21.3730 C   0  0  0  0  0  2  0  0  0  0  0  0
  -26.0790  -29.4670   20.7370 C   0  0  0  0  0  0  0  0  0  0  0  0
  -27.2740  -28.6960   20.7380 C   0  0  0  0  0  3  0  0  0  0  0  0
  -26.1130  -26.9300   19.5400 C   0  0  0  0  0  3  0  0  0  0  0  0
  -24.9310  -27.6920   19.5390 C   0  0  0  0  0  3  0  0  0  0  0  0
  -23.6660  -29.8130   20.2050 C   0  0  0  0  0  2  0  0  0  0  0  0
  -24.7250  -31.0970   22.1150 N   0  0  0  0  0  0  0  0  0  0  0  0
  -23.5880  -32.1720   23.7580 O   0  0  0  0  0  0  0  0  0  0  0  0
  -22.8170  -29.4680   22.5530 C   0  0  0  0  0  0  0  0  0  0  0  0
  -21.4930  -29.2820   22.4390 N   0  0  0  0  0  0  0  0  0  0  0  0
  -23.5100  -28.8470   23.3630 O   0  0  0  0  0  0  0  0  0  0  0  0
  -20.9940  -29.8350   21.7560 H   0  0  0  0  0  0  0  0  0  0  0  0
  -18.1310  -28.0530   22.9490 C   0  0  0  0  0  0  0  0  0  0  0  0
  -20.6860  -28.3420   23.2190 C   0  0  0  0  0  3  0  0  0  0  0  0
  -20.8030  -26.9060   22.6590 C   0  0  0  0  0  2  0  0  0  0  0  0
  -19.7080  -26.5640   21.6440 C   0  0  0  0  0  2  0  0  0  0  0  0
  -18.3230  -26.7000   22.2830 C   0  0  0  0  0  2  0  0  0  0  0  0
  -19.2410  -28.8310   23.3740 C   0  0  0  0  0  0  0  0  0  0  0  0
  -19.0080  -30.0960   23.9540 C   0  0  0  0  0  3  0  0  0  0  0  0
  -17.6970  -30.5850   24.1150 C   0  0  0  0  0  3  0  0  0  0  0  0
  -16.6020  -29.8040   23.7050 C   0  0  0  0  0  3  0  0  0  0  0  0
  -16.8200  -28.5400   23.1290 C   0  0  0  0  0  3  0  0  0  0  0  0
  -25.9520  -32.5470   23.8220 C   0  0  0  0  0  3  0  0  0  0  0  0
  -26.4950  -31.7700   25.0840 C   0  0  1  0  0  0  0  0  0  0  0  0
  -25.4180  -31.5100   26.1620 C   0  0  0  0  0  1  0  0  0  0  0  0
  -27.0860  -30.4010   24.6690 C   0  0  0  0  0  1  0  0  0  0  0  0
  -27.6450  -32.5690   25.7390 C   0  0  0  0  0  1  0  0  0  0  0  0
  -25.6310  -33.9380   24.1680 N   0  0  0  0  0  0  0  0  0  0  0  0
  -25.9370  -35.0000   23.4090 C   0  0  0  0  0  0  0  0  0  0  0  0
  -26.5900  -34.9100   22.3670 O   0  0  0  0  0  0  0  0  0  0  0  0
  -25.0480  -34.0800   24.9800 H   0  0  0  0  0  0  0  0  0  0  0  0
  -24.1780  -36.7700   23.0960 C   0  0  0  0  0  1  0  0  0  0  0  0
  -25.4390  -36.3790   23.8830 C   0  0  0  0  0  3  0  0  0  0  0  0
  -27.5780  -37.2890   24.6770 C   0  0  0  0  0  1  0  0  0  0  0  0
  -26.4560  -37.4460   23.7560 N   0  0  0  0  0  0  0  0  0  0  0  0
  -26.0400  -38.3590   23.9160 H   0  0  0  0  0  0  0  0  0  0  0  0
  1  2  1  0
  3  1  1  0
  4  1  1  0
  4  5  1  0
  6 18  1  0
  7 12  1  0
  8  9  1  0
  8  7  1  0
 10  9  1  0
 10 23  1  0
 10 11  1  0
 12  6  1  0
 12 11  1  0
 13  6  2  0
 14 16  1  0
 15 17  1  0
 15 18  1  0
 17 19  1  0
 18 14  1  0
 19  5  1  0
 19 16  1  0
 20 21  2  0
 21 40  1  0
 22 21  1  0
 22 25  1  0
 23 24  1  0
 23 20  1  0
 24 22  2  0
 25 26  1  0
 26 27  2  0
 28 31  1  0
 28 27  1  0
 29 28  2  0
 30 29  1  0
 30 25  2  0
 31 32  1  0
 32 37  2  0
 32 33  1  0
 33 34  2  0
 34 35  1  0
 35 39  1  0
 36 35  2  0
 37 36  1  0
 38 37  1  0
 40 41  1  0
 41 44  1  0
 41 43  1  0
 42 40  2  0
 45 20  1  0
 45 46  1  0
 47 45  1  0
 48 49  1  0
 48  1  1  0
 50 49  1  0
 51 62  2  0
 52 50  1  0
 52 57  1  0
 53 61  1  0
 53 63  1  0
 54 60  1  0
 54 56  1  0
 55 61  1  0
 56 57  2  0
 56 55  1  0
 58 52  2  0
 59 58  1  0
 59 54  2  0
 60 53  1  0
 61 51  1  0
 63 65  2  0
 64 63  1  0
 66 64  1  0
 67 76  2  0
 67 72  1  0
 68 64  1  0
 68 72  1  0
 69 68  1  0
 70 71  1  0
 70 69  1  0
 71 67  1  0
 72 73  2  0
 73 74  1  0
 75 74  2  0
 76 75  1  0
 77 51  1  0
 77 82  1  0
 77 78  1  0
 78 81  1  1
 78 79  1  0
 80 78  1  0
 82 85  1  0
 83 87  1  0
 83 82  1  0
 84 83  2  0
 87 86  1  0
 89 87  1  0
 89 90  1  0
 89 88  1  0
M  ISO  4   6 100  18 100  49 101  50 101
M  END
>  <TORSDO>  (10) 
F 20

>  <SCORE>  (10) 
-12.986

>  <name>  (10) 
9

>  <ligand_id>  (10) 
9

>  <original_smiles>  (10) 
[H]c1c([H])c([H])c2c(c1[H])C([H])([H])C([H])([H])C([H])([H])C2([H])N([H])C(=O)C1([H])N(C(=O)C([H])(N([H])C(=O)C([H])(N([H])C([H])([H])[H])C([H])([H])[H])C(C([H])([H])[H])(C([H])([H])[H])C([H])([H])[H])C([H])([H])c2c([H])c(OC([H])([H])C([H])([H])[N+]([H])([H])C([H])([H])C([H])([H])N3C([H])([H])C([H])([H])N(C(=O)N4C([H])([H])C([H])([H])C([H])([H])C([H])(n5nc(-c6c([H])c([H])c(Oc7c([H])c([H])c(F)c([H])c7F)c([H])c6[H])c(C(=O)N([H])[H])c5N([H])[H])C4([H])[H])C([H])([H])C3([H])[H])c([H])c([H])c2C1([H])[H]

>  <smiles>  (10) 
[H]c1c([H])c([H])c2c(c1[H])C([H])([H])C([H])([H])C([H])([H])C2([H])N([H])C(=O)C1([H])N(C(=O)C([H])(N([H])C(=O)C([H])(N([H])C([H])([H])[H])C([H])([H])[H])C(C([H])([H])[H])(C([H])([H])[H])C([H])([H])[H])C([H])([H])c2c([H])c(OC([H])([H])C([H])([H])[N+]([H])([H])C([H])([H])C([H])([H])N3C([H])([H])C([H])([H])N(C(=O)N4C([H])([H])C([H])([H])C([H])([H])C([H])(n5nc(-c6c([H])c([H])c(Oc7c([H])c([H])c(F)c([H])c7F)c([H])c6[H])c(C(=O)N([H])[H])c5N([H])[H])C4([H])[H])C([H])([H])C3([H])[H])c([H])c([H])c2C1([H])[H]

$$$$
10:0:0
     RDKit          3D

 93101  0  0  1  0  0  0  0  0999 V2000
  -28.5500  -21.9070   19.4240 C   0  0  0  0  0  3  0  0  0  0  0  0
  -29.7850  -21.7330   21.4800 C   0  0  0  0  0  3  0  0  0  0  0  0
  -28.7300  -20.5050   19.2200 C   0  0  0  0  0  3  0  0  0  0  0  0
  -29.9690  -20.3300   21.2730 C   0  0  0  0  0  3  0  0  0  0  0  0
  -29.0640  -22.5620   20.5720 C   0  0  0  0  0  0  0  0  0  0  0  0
  -29.4390  -19.6700   20.1330 C   0  0  0  0  0  0  0  0  0  0  0  0
  -28.8110  -24.0790   20.9170 C   0  0  0  0  0  3  0  0  0  0  0  0
  -28.4900  -25.1460   19.7900 C   0  0  0  0  0  3  0  0  0  0  0  0
  -28.4030  -26.5570   20.2230 O   0  0  0  0  0  0  0  0  0  0  0  0
  -24.6010  -31.8600   23.2360 C   0  0  0  0  0  0  0  0  0  0  0  0
  -27.2310  -27.3270   20.1730 C   0  0  0  0  0  0  0  0  0  0  0  0
  -23.3970  -30.4590   21.5970 C   0  0  0  0  0  3  0  0  0  0  0  0
  -24.8500  -28.9160   20.1680 C   0  0  0  0  0  0  0  0  0  0  0  0
  -25.9320  -30.7870   21.4090 C   0  0  0  0  0  2  0  0  0  0  0  0
  -26.0140  -29.4100   20.7680 C   0  0  0  0  0  0  0  0  0  0  0  0
  -27.2020  -28.6240   20.7660 C   0  0  0  0  0  3  0  0  0  0  0  0
  -26.0390  -26.8780   19.5560 C   0  0  0  0  0  3  0  0  0  0  0  0
  -24.8620  -27.6520   19.5570 C   0  0  0  0  0  3  0  0  0  0  0  0
  -23.6080  -29.7820   20.2160 C   0  0  0  0  0  2  0  0  0  0  0  0
  -24.6630  -31.0540   22.1380 N   0  0  0  0  0  0  0  0  0  0  0  0
  -23.5190  -32.1380   23.7740 O   0  0  0  0  0  0  0  0  0  0  0  0
  -22.7390  -29.4430   22.5580 C   0  0  0  0  0  0  0  0  0  0  0  0
  -21.4130  -29.2690   22.4370 N   0  0  0  0  0  0  0  0  0  0  0  0
  -23.4200  -28.8110   23.3710 O   0  0  0  0  0  0  0  0  0  0  0  0
  -20.9230  -29.8290   21.7530 H   0  0  0  0  0  0  0  0  0  0  0  0
  -18.0360  -28.0830   22.9500 C   0  0  0  0  0  0  0  0  0  0  0  0
  -20.5960  -28.3340   23.2110 C   0  0  0  0  0  3  0  0  0  0  0  0
  -20.6920  -26.9040   22.6320 C   0  0  0  0  0  2  0  0  0  0  0  0
  -19.5850  -26.5870   21.6210 C   0  0  0  0  0  2  0  0  0  0  0  0
  -18.2050  -26.7350   22.2710 C   0  0  0  0  0  2  0  0  0  0  0  0
  -19.1590  -28.8420   23.3770 C   0  0  0  0  0  0  0  0  0  0  0  0
  -18.9460  -30.1050   23.9740 C   0  0  0  0  0  3  0  0  0  0  0  0
  -17.6420  -30.6100   24.1450 C   0  0  0  0  0  3  0  0  0  0  0  0
  -16.5350  -29.8490   23.7330 C   0  0  0  0  0  3  0  0  0  0  0  0
  -16.7320  -28.5880   23.1430 C   0  0  0  0  0  3  0  0  0  0  0  0
  -25.8850  -32.4920   23.8560 C   0  0  0  0  0  3  0  0  0  0  0  0
  -25.5720  -33.8880   24.1890 N   0  0  0  0  0  0  0  0  0  0  0  0
  -25.9040  -34.9440   23.4340 C   0  0  0  0  0  0  0  0  0  0  0  0
  -26.5750  -34.8430   22.4020 O   0  0  0  0  0  0  0  0  0  0  0  0
  -24.9650  -34.0340   24.9830 H   0  0  0  0  0  0  0  0  0  0  0  0
  -24.1720  -36.7380   23.0910 C   0  0  0  0  0  1  0  0  0  0  0  0
  -25.4180  -36.3320   23.8930 C   0  0  0  0  0  3  0  0  0  0  0  0
  -27.5610  -37.2180   24.7070 C   0  0  0  0  0  1  0  0  0  0  0  0
  -26.4500  -37.3850   23.7720 N   0  0  0  0  0  0  0  0  0  0  0  0
  -26.0470  -38.3050   23.9260 H   0  0  0  0  0  0  0  0  0  0  0  0
  -26.4040  -31.7190   25.1310 C   0  0  1  0  0  0  0  0  0  0  0  0
  -25.3110  -31.4810   26.2010 C   0  0  0  0  0  1  0  0  0  0  0  0
  -26.9840  -30.3390   24.7380 C   0  0  0  0  0  1  0  0  0  0  0  0
  -27.5600  -32.5090   25.7880 C   0  0  0  0  0  1  0  0  0  0  0  0
  -29.5710  -18.1180   19.8500 C   0  0  0  0  0  3  0  0  0  0  0  0
  -30.3620  -17.8960   18.6300 N   0  0  0  0  0  4  0  0  0  0  0  0
  -31.3320  -18.0860   18.8020 H   0  0  0  0  0  0  0  0  0  0  0  0
  -30.0460  -18.4970   17.8910 H   0  0  0  0  0  0  0  0  0  0  0  0
  -30.2720  -16.9430   18.3270 H   0  0  0  0  0  0  0  0  0  0  0  0
  -30.0980  -17.1290   20.9720 C   0  0  0  0  0  2  0  0  0  0  0  0
  -30.5840  -14.6140   20.4310 C   0  0  0  0  0  0  0  0  0  0  0  0
  -30.3630  -12.3980   19.3320 C   0  0  0  0  0  2  0  0  0  0  0  0
  -29.4050  -12.5220   18.1260 C   0  0  0  0  0  2  0  0  0  0  0  0
  -27.9330  -12.3750   18.5630 C   0  0  0  0  0  2  0  0  0  0  0  0
  -27.5850  -13.2320   19.8070 C   0  0  0  0  0  3  0  0  0  0  0  0
  -28.6500  -13.0620   20.9130 C   0  0  0  0  0  2  0  0  0  0  0  0
  -29.9560  -13.4020   20.3300 N   0  0  0  0  0  0  0  0  0  0  0  0
  -31.7440  -14.7860   20.0520 O   0  0  0  0  0  0  0  0  0  0  0  0
  -29.7890  -15.6700   20.7720 N   0  0  0  0  0  0  0  0  0  0  0  0
  -28.8430  -15.4050   21.0030 H   0  0  0  0  0  0  0  0  0  0  0  0
  -25.1960  -13.8390   20.5320 C   0  0  0  0  0  0  0  0  0  0  0  0
  -24.1300  -13.0690   20.9080 C   0  0  0  0  0  0  0  0  0  0  0  0
  -24.5910  -11.7170   20.8780 C   0  0  0  0  0  0  0  0  0  0  0  0
  -26.2390  -12.9560   20.2960 N   0  0  0  0  0  0  0  0  0  0  0  0
  -25.8800  -11.6760   20.5670 N   0  0  0  0  0  0  0  0  0  0  0  0
  -23.8660  -10.4570   21.0730 C   0  0  0  0  0  0  0  0  0  0  0  0
  -24.3120   -9.4800   21.9900 C   0  0  0  0  0  3  0  0  0  0  0  0
  -23.5870   -8.2820   22.1720 C   0  0  0  0  0  3  0  0  0  0  0  0
  -22.4000   -8.0530   21.4350 C   0  0  0  0  0  0  0  0  0  0  0  0
  -21.9720   -9.0190   20.5050 C   0  0  0  0  0  3  0  0  0  0  0  0
  -22.6990  -10.2080   20.3230 C   0  0  0  0  0  3  0  0  0  0  0  0
  -21.6440   -6.9100   21.5290 O   0  0  0  0  0  0  0  0  0  0  0  0
  -21.6270   -6.1490   22.6710 C   0  0  0  0  0  0  0  0  0  0  0  0
  -21.2520   -6.6880   23.9210 C   0  0  0  0  0  3  0  0  0  0  0  0
  -21.1830   -5.8540   25.0550 C   0  0  0  0  0  3  0  0  0  0  0  0
  -21.4770   -4.4820   24.9400 C   0  0  0  0  0  0  0  0  0  0  0  0
  -21.8450   -3.9430   23.6940 C   0  0  0  0  0  3  0  0  0  0  0  0
  -21.9160   -4.7750   22.5620 C   0  0  0  0  0  0  0  0  0  0  0  0
  -22.2500   -4.2450   21.3610 F   0  0  0  0  0  0  0  0  0  0  0  0
  -21.4030   -3.6780   26.0250 F   0  0  0  0  0  0  0  0  0  0  0  0
  -22.7330  -13.5470   21.1820 C   0  0  0  0  0  0  0  0  0  0  0  0
  -22.0060  -12.8530   22.0500 N   0  0  0  0  0  0  0  0  0  0  0  0
  -22.2960  -14.5720   20.6600 O   0  0  0  0  0  0  0  0  0  0  0  0
  -22.3750  -12.0250   22.4960 H   0  0  0  0  0  0  0  0  0  0  0  0
  -21.0680  -13.1510   22.2730 H   0  0  0  0  0  0  0  0  0  0  0  0
  -25.3640  -15.2100   20.3480 N   0  0  0  0  0  0  0  0  0  0  0  0
  -24.5940  -15.8640   20.4460 H   0  0  0  0  0  0  0  0  0  0  0  0
  -26.1980  -15.6370   19.9680 H   0  0  0  0  0  0  0  0  0  0  0  0
  1  5  1  0
  3  1  2  0
  3  6  1  0
  4  2  1  0
  5  7  1  0
  5  2  2  0
  6  4  2  0
  8  9  1  0
  8  7  2  0
 10 21  2  0
 11  9  1  0
 11 16  1  0
 12 20  1  0
 12 22  1  0
 13 19  1  0
 13 15  1  0
 14 20  1  0
 15 14  1  0
 16 15  2  0
 17 18  1  0
 17 11  2  0
 18 13  2  0
 19 12  1  0
 20 10  1  0
 22 24  2  0
 23 22  1  0
 25 23  1  0
 26 35  2  0
 26 31  1  0
 27 23  1  0
 27 31  1  0
 28 27  1  0
 29 30  1  0
 29 28  1  0
 30 26  1  0
 31 32  2  0
 32 33  1  0
 34 33  2  0
 35 34  1  0
 36 10  1  0
 36 37  1  0
 36 46  1  0
 37 40  1  0
 38 42  1  0
 38 37  1  0
 39 38  2  0
 42 41  1  0
 44 42  1  0
 44 45  1  0
 44 43  1  0
 46 49  1  1
 46 47  1  0
 48 46  1  0
 50  6  1  0
 50 55  1  0
 51 52  1  0
 51 50  1  0
 53 51  1  0
 54 51  1  0
 56 64  1  0
 57 62  1  0
 58 59  1  0
 58 57  1  0
 60 59  1  0
 60 69  1  0
 60 61  1  0
 62 56  1  0
 62 61  1  0
 63 56  2  0
 64 55  1  0
 64 65  1  0
 66 67  2  0
 67 86  1  0
 68 67  1  0
 68 71  1  0
 69 66  1  0
 69 70  1  0
 70 68  2  0
 71 72  1  0
 72 73  2  0
 74 77  1  0
 74 73  1  0
 75 74  2  0
 76 75  1  0
 76 71  2  0
 77 78  1  0
 78 79  1  0
 79 80  2  0
 81 80  1  0
 81 85  1  0
 82 81  2  0
 83 78  2  0
 83 82  1  0
 84 83  1  0
 86 87  1  0
 87 90  1  0
 87 89  1  0
 88 86  2  0
 91 92  1  0
 91 66  1  0
 93 91  1  0
M  ISO  4   8 101   9 101  56 100  64 100
M  END
>  <TORSDO>  (11) 
F 21

>  <SCORE>  (11) 
-13.729

>  <name>  (11) 
10

>  <ligand_id>  (11) 
10

>  <original_smiles>  (11) 
[H]c1c([H])c([H])c2c(c1[H])C([H])([H])C([H])([H])C([H])([H])C2([H])N([H])C(=O)C1([H])N(C(=O)C([H])(N([H])C(=O)C([H])(N([H])C([H])([H])[H])C([H])([H])[H])C(C([H])([H])[H])(C([H])([H])[H])C([H])([H])[H])C([H])([H])c2c([H])c(OC([H])([H])C([H])([H])c3c([H])c([H])c(C([H])(C([H])([H])N([H])C(=O)N4C([H])([H])C([H])([H])C([H])([H])C([H])(n5nc(-c6c([H])c([H])c(Oc7c([H])c([H])c(F)c([H])c7F)c([H])c6[H])c(C(=O)N([H])[H])c5N([H])[H])C4([H])[H])[N+]([H])([H])[H])c([H])c3[H])c([H])c([H])c2C1([H])[H]

>  <smiles>  (11) 
[H]c1c([H])c([H])c2c(c1[H])C([H])([H])C([H])([H])C([H])([H])C2([H])N([H])C(=O)C1([H])N(C(=O)C([H])(N([H])C(=O)C([H])(N([H])C([H])([H])[H])C([H])([H])[H])C(C([H])([H])[H])(C([H])([H])[H])C([H])([H])[H])C([H])([H])c2c([H])c(OC([H])([H])C([H])([H])c3c([H])c([H])c(C([H])(C([H])([H])N([H])C(=O)N4C([H])([H])C([H])([H])C([H])([H])C([H])(n5nc(-c6c([H])c([H])c(Oc7c([H])c([H])c(F)c([H])c7F)c([H])c6[H])c(C(=O)N([H])[H])c5N([H])[H])C4([H])[H])[N+]([H])([H])[H])c([H])c3[H])c([H])c([H])c2C1([H])[H]

$$$$
11:0:0
     RDKit          3D

 98106  0  0  1  0  0  0  0  0999 V2000
  -28.8550  -20.6280   21.6970 C   0  0  0  0  0  2  0  0  0  0  0  0
  -30.2250  -20.5930   19.6510 C   0  0  0  0  0  2  0  0  0  0  0  0
  -29.1240  -22.1580   21.8480 C   0  0  0  0  0  2  0  0  0  0  0  0
  -30.4850  -22.1260   19.8320 C   0  0  0  0  0  2  0  0  0  0  0  0
  -29.9830  -19.8340   20.9810 C   0  0  0  0  0  3  0  0  0  0  0  0
  -29.3830  -22.8420   20.5460 N   0  0  2  0  0  4  0  0  0  0  0  0
  -28.5560  -22.7110   19.9820 H   0  0  0  0  0  0  0  0  0  0  0  0
  -29.6330  -18.2800   20.9200 C   0  0  0  0  0  2  0  0  0  0  0  0
  -30.6720  -17.2160   20.3830 C   0  0  0  0  0  3  0  0  0  0  0  0
  -31.1390  -14.7110   20.6630 C   0  0  0  0  0  0  0  0  0  0  0  0
  -30.8430  -12.5440   19.5230 C   0  0  0  0  0  2  0  0  0  0  0  0
  -29.9630  -12.7770   18.2750 C   0  0  0  0  0  2  0  0  0  0  0  0
  -28.4670  -12.6840   18.6300 C   0  0  0  0  0  2  0  0  0  0  0  0
  -28.0960  -13.5180   19.8870 C   0  0  0  0  0  3  0  0  0  0  0  0
  -29.0950  -13.2750   21.0420 C   0  0  0  0  0  2  0  0  0  0  0  0
  -30.4480  -13.5420   20.5330 N   0  0  0  0  0  0  0  0  0  0  0  0
  -32.3290  -14.8060   20.3580 O   0  0  0  0  0  0  0  0  0  0  0  0
  -30.3780  -15.8240   20.8520 N   0  0  0  0  0  0  0  0  0  0  0  0
  -29.4260  -15.6400   21.1320 H   0  0  0  0  0  0  0  0  0  0  0  0
  -25.6860  -14.1930   20.4790 C   0  0  0  0  0  0  0  0  0  0  0  0
  -24.5780  -13.4540   20.7920 C   0  0  0  0  0  0  0  0  0  0  0  0
  -24.9980  -12.0890   20.7830 C   0  0  0  0  0  0  0  0  0  0  0  0
  -26.7140  -13.2800   20.3000 N   0  0  0  0  0  0  0  0  0  0  0  0
  -26.3010  -12.0090   20.5410 N   0  0  0  0  0  0  0  0  0  0  0  0
  -24.2240  -10.8500   20.9320 C   0  0  0  0  0  0  0  0  0  0  0  0
  -24.5980   -9.8530   21.8610 C   0  0  0  0  0  3  0  0  0  0  0  0
  -23.8280   -8.6790   22.0000 C   0  0  0  0  0  3  0  0  0  0  0  0
  -22.6700   -8.4910   21.2090 C   0  0  0  0  0  0  0  0  0  0  0  0
  -22.3150   -9.4750   20.2700 C   0  0  0  0  0  3  0  0  0  0  0  0
  -23.0850  -10.6420   20.1290 C   0  0  0  0  0  3  0  0  0  0  0  0
  -21.8760   -7.3700   21.2550 O   0  0  0  0  0  0  0  0  0  0  0  0
  -21.7640   -6.6160   22.3950 C   0  0  0  0  0  0  0  0  0  0  0  0
  -21.3450   -7.1740   23.6210 C   0  0  0  0  0  3  0  0  0  0  0  0
  -21.1760   -6.3480   24.7510 C   0  0  0  0  0  3  0  0  0  0  0  0
  -21.4170   -4.9650   24.6550 C   0  0  0  0  0  0  0  0  0  0  0  0
  -21.8310   -4.4060   23.4330 C   0  0  0  0  0  3  0  0  0  0  0  0
  -22.0000   -5.2290   22.3060 C   0  0  0  0  0  0  0  0  0  0  0  0
  -22.3770   -4.6810   21.1250 F   0  0  0  0  0  0  0  0  0  0  0  0
  -21.2480   -4.1700   25.7380 F   0  0  0  0  0  0  0  0  0  0  0  0
  -23.1830  -13.9740   20.9940 C   0  0  0  0  0  0  0  0  0  0  0  0
  -22.3990  -13.3150   21.8400 N   0  0  0  0  0  0  0  0  0  0  0  0
  -22.7960  -15.0000   20.4380 O   0  0  0  0  0  0  0  0  0  0  0  0
  -22.7220  -12.4850   22.3150 H   0  0  0  0  0  0  0  0  0  0  0  0
  -21.4620  -13.6490   22.0190 H   0  0  0  0  0  0  0  0  0  0  0  0
  -25.9020  -15.5580   20.3110 N   0  0  0  0  0  0  0  0  0  0  0  0
  -25.1510  -16.2360   20.3810 H   0  0  0  0  0  0  0  0  0  0  0  0
  -26.7750  -15.9670   20.0060 H   0  0  0  0  0  0  0  0  0  0  0  0
  -30.6560  -17.2100   18.8290 C   0  0  0  0  0  2  0  0  0  0  0  0
  -32.0150  -16.9680   18.1440 C   0  0  0  0  0  2  0  0  0  0  0  0
  -31.9390  -17.2150   16.6260 C   0  0  0  0  0  2  0  0  0  0  0  0
  -33.2980  -17.1360   15.8990 C   0  0  0  0  0  2  0  0  0  0  0  0
  -33.7960  -15.7570   15.7590 N   0  0  0  0  0  4  0  0  0  0  0  0
  -34.0450  -15.3650   16.6490 H   0  0  0  0  0  0  0  0  0  0  0  0
  -34.6200  -15.7610   15.1830 H   0  0  0  0  0  0  0  0  0  0  0  0
  -33.1130  -15.1700   15.3130 H   0  0  0  0  0  0  0  0  0  0  0  0
  -29.5880  -24.3450   20.6670 C   0  0  0  0  0  3  0  0  0  0  0  0
  -28.3590  -25.2260   20.2420 C   0  0  0  0  0  3  0  0  0  0  0  0
  -28.5280  -26.6820   20.3050 O   0  0  0  0  0  0  0  0  0  0  0  0
  -24.6200  -31.9310   23.2500 C   0  0  0  0  0  0  0  0  0  0  0  0
  -27.3710  -27.4610   20.2380 C   0  0  0  0  0  0  0  0  0  0  0  0
  -23.4640  -30.5030   21.6000 C   0  0  0  0  0  3  0  0  0  0  0  0
  -24.9630  -28.9850   20.1990 C   0  0  0  0  0  0  0  0  0  0  0  0
  -25.9930  -30.8890   21.4390 C   0  0  0  0  0  2  0  0  0  0  0  0
  -26.1110  -29.5130   20.8020 C   0  0  0  0  0  0  0  0  0  0  0  0
  -27.3180  -28.7630   20.8130 C   0  0  0  0  0  3  0  0  0  0  0  0
  -26.1970  -26.9730   19.6150 C   0  0  0  0  0  3  0  0  0  0  0  0
  -25.0050  -27.7190   19.5990 C   0  0  0  0  0  3  0  0  0  0  0  0
  -23.7060  -29.8280   20.2250 C   0  0  0  0  0  2  0  0  0  0  0  0
  -24.7110  -31.1240   22.1550 N   0  0  0  0  0  0  0  0  0  0  0  0
  -23.5260  -32.1870   23.7720 O   0  0  0  0  0  0  0  0  0  0  0  0
  -22.8140  -29.4740   22.5540 C   0  0  0  0  0  0  0  0  0  0  0  0
  -21.4900  -29.2870   22.4280 N   0  0  0  0  0  0  0  0  0  0  0  0
  -23.5000  -28.8460   23.3660 O   0  0  0  0  0  0  0  0  0  0  0  0
  -20.9960  -29.8470   21.7460 H   0  0  0  0  0  0  0  0  0  0  0  0
  -18.1180  -28.0820   22.9330 C   0  0  0  0  0  0  0  0  0  0  0  0
  -20.6780  -28.3420   23.1930 C   0  0  0  0  0  3  0  0  0  0  0  0
  -20.7790  -26.9160   22.6040 C   0  0  0  0  0  2  0  0  0  0  0  0
  -19.6720  -26.6010   21.5920 C   0  0  0  0  0  2  0  0  0  0  0  0
  -18.2930  -26.7390   22.2440 C   0  0  0  0  0  2  0  0  0  0  0  0
  -19.2380  -28.8420   23.3640 C   0  0  0  0  0  0  0  0  0  0  0  0
  -19.0210  -30.0990   23.9670 C   0  0  0  0  0  3  0  0  0  0  0  0
  -17.7160  -30.5980   24.1430 C   0  0  0  0  0  3  0  0  0  0  0  0
  -16.6110  -29.8350   23.7280 C   0  0  0  0  0  3  0  0  0  0  0  0
  -16.8130  -28.5800   23.1290 C   0  0  0  0  0  3  0  0  0  0  0  0
  -25.8850  -32.5890   23.8850 C   0  0  0  0  0  3  0  0  0  0  0  0
  -26.3890  -31.8420   25.1810 C   0  0  1  0  0  0  0  0  0  0  0  0
  -25.2800  -31.6040   26.2330 C   0  0  0  0  0  1  0  0  0  0  0  0
  -26.9960  -30.4680   24.8180 C   0  0  0  0  0  1  0  0  0  0  0  0
  -27.5170  -32.6610   25.8520 C   0  0  0  0  0  1  0  0  0  0  0  0
  -25.5500  -33.9870   24.1890 N   0  0  0  0  0  0  0  0  0  0  0  0
  -25.9070  -35.0360   23.4340 C   0  0  0  0  0  0  0  0  0  0  0  0
  -26.6200  -34.9280   22.4330 O   0  0  0  0  0  0  0  0  0  0  0  0
  -24.9220  -34.1440   24.9620 H   0  0  0  0  0  0  0  0  0  0  0  0
  -24.1880  -36.8140   22.9830 C   0  0  0  0  0  1  0  0  0  0  0  0
  -25.3900  -36.4240   23.8570 C   0  0  0  0  0  3  0  0  0  0  0  0
  -27.4800  -37.3230   24.7800 C   0  0  0  0  0  1  0  0  0  0  0  0
  -26.4210  -37.4820   23.7880 N   0  0  0  0  0  0  0  0  0  0  0  0
  -26.0030  -38.4000   23.9160 H   0  0  0  0  0  0  0  0  0  0  0  0
  1  3  1  0
  2  4  1  0
  2  5  1  0
  4  6  1  0
  5  8  1  0
  5  1  1  0
  6 56  1  0
  6  3  1  0
  6  7  1  6
  9 48  1  0
  9 18  1  0
  9  8  1  0
 10 18  1  0
 11 16  1  0
 12 13  1  0
 12 11  1  0
 14 13  1  0
 14 23  1  0
 14 15  1  0
 16 10  1  0
 16 15  1  0
 17 10  2  0
 18 19  1  0
 20 21  2  0
 21 40  1  0
 22 21  1  0
 22 25  1  0
 23 20  1  0
 23 24  1  0
 24 22  2  0
 25 26  1  0
 26 27  2  0
 28 31  1  0
 28 27  1  0
 29 28  2  0
 30 29  1  0
 30 25  2  0
 31 32  1  0
 32 33  1  0
 33 34  2  0
 35 34  1  0
 35 39  1  0
 36 35  2  0
 37 32  2  0
 37 36  1  0
 38 37  1  0
 40 41  1  0
 41 44  1  0
 41 43  1  0
 42 40  2  0
 45 46  1  0
 45 20  1  0
 47 45  1  0
 49 48  1  0
 50 49  1  0
 51 50  1  0
 52 51  1  0
 52 53  1  0
 54 52  1  0
 55 52  1  0
 57 58  1  0
 57 56  2  0
 59 70  2  0
 60 58  1  0
 60 65  1  0
 61 69  1  0
 61 71  1  0
 62 68  1  0
 62 64  1  0
 63 69  1  0
 64 65  2  0
 64 63  1  0
 66 60  2  0
 67 66  1  0
 67 62  2  0
 68 61  1  0
 69 59  1  0
 71 73  2  0
 72 71  1  0
 74 72  1  0
 75 84  2  0
 75 80  1  0
 76 72  1  0
 76 80  1  0
 77 76  1  0
 78 79  1  0
 78 77  1  0
 79 75  1  0
 80 81  2  0
 81 82  1  0
 83 82  2  0
 84 83  1  0
 85 59  1  0
 85 90  1  0
 85 86  1  0
 86 89  1  1
 86 87  1  0
 88 86  1  0
 90 93  1  0
 91 95  1  0
 91 90  1  0
 92 91  2  0
 95 94  1  0
 97 95  1  0
 97 98  1  0
 97 96  1  0
M  ISO  4  10 100  18 100  57 101  58 101
M  END
>  <TORSDO>  (12) 
F 25

>  <SCORE>  (12) 
-11.848

>  <name>  (12) 
11

>  <ligand_id>  (12) 
11

>  <original_smiles>  (12) 
[H]c1c([H])c([H])c2c(c1[H])C([H])([H])C([H])([H])C([H])([H])C2([H])N([H])C(=O)C1([H])N(C(=O)C([H])(N([H])C(=O)C([H])(N([H])C([H])([H])[H])C([H])([H])[H])C(C([H])([H])[H])(C([H])([H])[H])C([H])([H])[H])C([H])([H])c2c([H])c(OC([H])([H])C([H])([H])[N+]3([H])C([H])([H])C([H])([H])C([H])(C([H])([H])C([H])(N([H])C(=O)N4C([H])([H])C([H])([H])C([H])([H])C([H])(n5nc(-c6c([H])c([H])c(Oc7c([H])c([H])c(F)c([H])c7F)c([H])c6[H])c(C(=O)N([H])[H])c5N([H])[H])C4([H])[H])C([H])([H])C([H])([H])C([H])([H])C([H])([H])[N+]([H])([H])[H])C([H])([H])C3([H])[H])c([H])c([H])c2C1([H])[H]

>  <smiles>  (12) 
[H]c1c([H])c([H])c2c(c1[H])C([H])([H])C([H])([H])C([H])([H])C2([H])N([H])C(=O)C1([H])N(C(=O)C([H])(N([H])C(=O)C([H])(N([H])C([H])([H])[H])C([H])([H])[H])C(C([H])([H])[H])(C([H])([H])[H])C([H])([H])[H])C([H])([H])c2c([H])c(OC([H])([H])C([H])([H])[N+]3([H])C([H])([H])C([H])([H])C([H])(C([H])([H])C([H])(N([H])C(=O)N4C([H])([H])C([H])([H])C([H])([H])C([H])(n5nc(-c6c([H])c([H])c(Oc7c([H])c([H])c(F)c([H])c7F)c([H])c6[H])c(C(=O)N([H])[H])c5N([H])[H])C4([H])[H])C([H])([H])C([H])([H])C([H])([H])C([H])([H])[N+]([H])([H])[H])C([H])([H])C3([H])[H])c([H])c([H])c2C1([H])[H]

$$$$
12:0:0
     RDKit          3D

 91 99  0  0  1  0  0  0  0  0999 V2000
  -30.3820  -21.9130   20.7860 C   0  0  0  0  0  2  0  0  0  0  0  0
  -29.1060  -22.0400   18.7510 C   0  0  0  0  0  2  0  0  0  0  0  0
  -30.7850  -20.5120   20.1840 C   0  0  0  0  0  2  0  0  0  0  0  0
  -28.6890  -20.5230   18.9110 C   0  0  0  0  0  3  0  0  0  0  0  0
  -27.2260  -20.4130   19.3780 C   0  0  0  0  0  1  0  0  0  0  0  0
  -29.3440  -22.6850   20.0530 N   0  0  0  0  0  0  0  0  0  0  0  0
  -29.5930  -19.7080   19.8010 N   0  0  1  0  0  4  0  0  0  0  0  0
  -29.0700  -19.6310   20.6600 H   0  0  0  0  0  0  0  0  0  0  0  0
  -29.6080  -24.1640   20.0480 C   0  0  0  0  0  3  0  0  0  0  0  0
  -28.3890  -25.1230   19.7500 C   0  0  0  0  0  3  0  0  0  0  0  0
  -28.5390  -26.5590   20.0530 O   0  0  0  0  0  0  0  0  0  0  0  0
  -24.6490  -31.7840   23.1750 C   0  0  0  0  0  0  0  0  0  0  0  0
  -27.3840  -27.3570   20.0400 C   0  0  0  0  0  0  0  0  0  0  0  0
  -23.4880  -30.3990   21.4930 C   0  0  0  0  0  3  0  0  0  0  0  0
  -24.9820  -28.9070   20.0580 C   0  0  0  0  0  0  0  0  0  0  0  0
  -26.0250  -30.7710   21.3440 C   0  0  0  0  0  2  0  0  0  0  0  0
  -26.1370  -29.4080   20.6740 C   0  0  0  0  0  0  0  0  0  0  0  0
  -27.3400  -28.6440   20.6580 C   0  0  0  0  0  3  0  0  0  0  0  0
  -26.1990  -26.9010   19.4180 C   0  0  0  0  0  3  0  0  0  0  0  0
  -25.0140  -27.6570   19.4280 C   0  0  0  0  0  3  0  0  0  0  0  0
  -23.7280  -29.7550   20.1050 C   0  0  0  0  0  2  0  0  0  0  0  0
  -24.7390  -30.9990   22.0620 N   0  0  0  0  0  0  0  0  0  0  0  0
  -23.5550  -32.0340   23.7000 O   0  0  0  0  0  0  0  0  0  0  0  0
  -22.8330  -29.3520   22.4230 C   0  0  0  0  0  0  0  0  0  0  0  0
  -21.5080  -29.1740   22.2940 N   0  0  0  0  0  0  0  0  0  0  0  0
  -23.5170  -28.7000   23.2180 O   0  0  0  0  0  0  0  0  0  0  0  0
  -21.0150  -29.7540   21.6280 H   0  0  0  0  0  0  0  0  0  0  0  0
  -18.1240  -28.0050   22.8040 C   0  0  0  0  0  0  0  0  0  0  0  0
  -20.6910  -28.2140   23.0360 C   0  0  0  0  0  3  0  0  0  0  0  0
  -20.7620  -26.8100   22.3940 C   0  0  0  0  0  2  0  0  0  0  0  0
  -19.6360  -26.5480   21.3890 C   0  0  0  0  0  2  0  0  0  0  0  0
  -18.2670  -26.6860   22.0640 C   0  0  0  0  0  2  0  0  0  0  0  0
  -19.2630  -28.7310   23.2450 C   0  0  0  0  0  0  0  0  0  0  0  0
  -19.0760  -29.9700   23.8970 C   0  0  0  0  0  3  0  0  0  0  0  0
  -17.7830  -30.4810   24.1130 C   0  0  0  0  0  3  0  0  0  0  0  0
  -16.6590  -29.7520   23.6890 C   0  0  0  0  0  3  0  0  0  0  0  0
  -16.8310  -28.5160   23.0400 C   0  0  0  0  0  3  0  0  0  0  0  0
  -25.9130  -32.4260   23.8250 C   0  0  0  0  0  3  0  0  0  0  0  0
  -26.4080  -31.6570   25.1110 C   0  0  1  0  0  0  0  0  0  0  0  0
  -25.2900  -31.4010   26.1490 C   0  0  0  0  0  1  0  0  0  0  0  0
  -27.0170  -30.2880   24.7270 C   0  0  0  0  0  1  0  0  0  0  0  0
  -27.5300  -32.4630   25.8070 C   0  0  0  0  0  1  0  0  0  0  0  0
  -25.5850  -33.8210   24.1500 N   0  0  0  0  0  0  0  0  0  0  0  0
  -25.9270  -34.8780   23.4010 C   0  0  0  0  0  0  0  0  0  0  0  0
  -26.6190  -34.7820   22.3840 O   0  0  0  0  0  0  0  0  0  0  0  0
  -24.9770  -33.9710   24.9430 H   0  0  0  0  0  0  0  0  0  0  0  0
  -24.2030  -36.6670   23.0000 C   0  0  0  0  0  1  0  0  0  0  0  0
  -25.4190  -36.2620   23.8490 C   0  0  0  0  0  3  0  0  0  0  0  0
  -27.5130  -37.1560   24.7690 C   0  0  0  0  0  1  0  0  0  0  0  0
  -26.4500  -37.3190   23.7800 N   0  0  0  0  0  0  0  0  0  0  0  0
  -26.0340  -38.2360   23.9150 H   0  0  0  0  0  0  0  0  0  0  0  0
  -29.8280  -18.2710   19.3380 C   0  0  0  0  0  2  0  0  0  0  0  0
  -30.5140  -17.2610   20.3570 C   0  0  0  0  0  2  0  0  0  0  0  0
  -30.9220  -14.7060   19.9840 C   0  0  0  0  0  0  0  0  0  0  0  0
  -30.6140  -12.4810   18.9340 C   0  0  0  0  0  2  0  0  0  0  0  0
  -29.6240  -12.6410   17.7590 C   0  0  0  0  0  2  0  0  0  0  0  0
  -28.1710  -12.4980   18.2520 C   0  0  0  0  0  2  0  0  0  0  0  0
  -27.8730  -13.3650   19.5050 C   0  0  0  0  0  3  0  0  0  0  0  0
  -28.9780  -13.1980   20.5740 C   0  0  0  0  0  2  0  0  0  0  0  0
  -30.2650  -13.5060   19.9340 N   0  0  0  0  0  0  0  0  0  0  0  0
  -32.0920  -14.8230   19.6190 O   0  0  0  0  0  0  0  0  0  0  0  0
  -30.1490  -15.8040   20.2440 N   0  0  0  0  0  0  0  0  0  0  0  0
  -29.1910  -15.5830   20.4700 H   0  0  0  0  0  0  0  0  0  0  0  0
  -25.5140  -13.9930   20.3110 C   0  0  0  0  0  0  0  0  0  0  0  0
  -24.4530  -13.2320   20.7160 C   0  0  0  0  0  0  0  0  0  0  0  0
  -24.9000  -11.8760   20.6720 C   0  0  0  0  0  0  0  0  0  0  0  0
  -26.5420  -13.1010   20.0420 N   0  0  0  0  0  0  0  0  0  0  0  0
  -26.1780  -11.8220   20.3210 N   0  0  0  0  0  0  0  0  0  0  0  0
  -24.1670  -10.6210   20.8860 C   0  0  0  0  0  0  0  0  0  0  0  0
  -24.6000   -9.6620   21.8270 C   0  0  0  0  0  3  0  0  0  0  0  0
  -23.8670   -8.4720   22.0270 C   0  0  0  0  0  3  0  0  0  0  0  0
  -22.6850   -8.2340   21.2860 C   0  0  0  0  0  0  0  0  0  0  0  0
  -22.2700   -9.1820   20.3330 C   0  0  0  0  0  3  0  0  0  0  0  0
  -23.0050  -10.3620   20.1310 C   0  0  0  0  0  3  0  0  0  0  0  0
  -21.9210   -7.0960   21.3950 O   0  0  0  0  0  0  0  0  0  0  0  0
  -21.8580   -6.3840   22.5660 C   0  0  0  0  0  0  0  0  0  0  0  0
  -21.3760   -6.9590   23.7630 C   0  0  0  0  0  3  0  0  0  0  0  0
  -21.2610   -6.1710   24.9260 C   0  0  0  0  0  3  0  0  0  0  0  0
  -21.6180   -4.8100   24.8930 C   0  0  0  0  0  0  0  0  0  0  0  0
  -22.0910   -4.2340   23.7010 C   0  0  0  0  0  3  0  0  0  0  0  0
  -22.2080   -5.0200   22.5410 C   0  0  0  0  0  0  0  0  0  0  0  0
  -22.6470   -4.4550   21.3890 F   0  0  0  0  0  0  0  0  0  0  0  0
  -21.5000   -4.0500   26.0070 F   0  0  0  0  0  0  0  0  0  0  0  0
  -23.0710  -13.7240   21.0340 C   0  0  0  0  0  0  0  0  0  0  0  0
  -22.3650  -13.0340   21.9260 N   0  0  0  0  0  0  0  0  0  0  0  0
  -22.6260  -14.7530   20.5280 O   0  0  0  0  0  0  0  0  0  0  0  0
  -22.7370  -12.1980   22.3500 H   0  0  0  0  0  0  0  0  0  0  0  0
  -21.4400  -13.3470   22.1860 H   0  0  0  0  0  0  0  0  0  0  0  0
  -25.6860  -15.3620   20.1220 N   0  0  0  0  0  0  0  0  0  0  0  0
  -24.9250  -16.0190   20.2460 H   0  0  0  0  0  0  0  0  0  0  0  0
  -26.5140  -15.7880   19.7270 H   0  0  0  0  0  0  0  0  0  0  0  0
  2  4  1  0
  2  6  1  0
  3  1  1  0
  4  5  1  0
  4  7  1  0
  6  1  1  0
  7  3  1  0
  7  8  1  1
  9  6  1  0
 10  9  2  0
 10 11  1  0
 12 23  2  0
 13 11  1  0
 13 18  1  0
 14 22  1  0
 14 24  1  0
 15 21  1  0
 15 17  1  0
 16 22  1  0
 17 16  1  0
 18 17  2  0
 19 20  1  0
 19 13  2  0
 20 15  2  0
 21 14  1  0
 22 12  1  0
 24 26  2  0
 25 24  1  0
 27 25  1  0
 28 37  2  0
 28 33  1  0
 29 25  1  0
 29 33  1  0
 30 29  1  0
 31 32  1  0
 31 30  1  0
 32 28  1  0
 33 34  2  0
 34 35  1  0
 36 35  2  0
 37 36  1  0
 38 12  1  0
 38 43  1  0
 38 39  1  0
 39 42  1  1
 39 40  1  0
 41 39  1  0
 43 46  1  0
 44 48  1  0
 44 43  1  0
 45 44  2  0
 48 47  1  0
 50 48  1  0
 50 51  1  0
 50 49  1  0
 52  7  1  0
 52 53  1  0
 54 62  1  0
 55 60  1  0
 56 57  1  0
 56 55  1  0
 58 57  1  0
 58 67  1  0
 58 59  1  0
 60 54  1  0
 60 59  1  0
 61 54  2  0
 62 53  1  0
 62 63  1  0
 64 65  2  0
 65 84  1  0
 66 65  1  0
 66 69  1  0
 67 64  1  0
 67 68  1  0
 68 66  2  0
 69 70  1  0
 70 71  2  0
 72 75  1  0
 72 71  1  0
 73 72  2  0
 74 73  1  0
 74 69  2  0
 75 76  1  0
 76 77  1  0
 77 78  2  0
 79 78  1  0
 79 83  1  0
 80 79  2  0
 81 76  2  0
 81 80  1  0
 82 81  1  0
 84 85  1  0
 85 88  1  0
 85 87  1  0
 86 84  2  0
 89 90  1  0
 89 64  1  0
 91 89  1  0
M  ISO  4  10 101  11 101  54 100  62 100
M  END
>  <TORSDO>  (13) 
F 20

>  <SCORE>  (13) 
-13.327

>  <name>  (13) 
12

>  <ligand_id>  (13) 
12

>  <original_smiles>  (13) 
[H]c1c([H])c([H])c2c(c1[H])C([H])([H])C([H])([H])C([H])([H])C2([H])N([H])C(=O)C1([H])N(C(=O)C([H])(N([H])C(=O)C([H])(N([H])C([H])([H])[H])C([H])([H])[H])C(C([H])([H])[H])(C([H])([H])[H])C([H])([H])[H])C([H])([H])c2c([H])c(OC([H])([H])C([H])([H])N3C([H])([H])C([H])([H])[N+]([H])(C([H])([H])C([H])([H])N([H])C(=O)N4C([H])([H])C([H])([H])C([H])([H])C([H])(n5nc(-c6c([H])c([H])c(Oc7c([H])c([H])c(F)c([H])c7F)c([H])c6[H])c(C(=O)N([H])[H])c5N([H])[H])C4([H])[H])C([H])(C([H])([H])[H])C3([H])[H])c([H])c([H])c2C1([H])[H]

>  <smiles>  (13) 
[H]c1c([H])c([H])c2c(c1[H])C([H])([H])C([H])([H])C([H])([H])C2([H])N([H])C(=O)C1([H])N(C(=O)C([H])(N([H])C(=O)C([H])(N([H])C([H])([H])[H])C([H])([H])[H])C(C([H])([H])[H])(C([H])([H])[H])C([H])([H])[H])C([H])([H])c2c([H])c(OC([H])([H])C([H])([H])N3C([H])([H])C([H])([H])[N+]([H])(C([H])([H])C([H])([H])N([H])C(=O)N4C([H])([H])C([H])([H])C([H])([H])C([H])(n5nc(-c6c([H])c([H])c(Oc7c([H])c([H])c(F)c([H])c7F)c([H])c6[H])c(C(=O)N([H])[H])c5N([H])[H])C4([H])[H])C([H])(C([H])([H])[H])C3([H])[H])c([H])c([H])c2C1([H])[H]

$$$$
13:0:0
     RDKit          3D

102110  0  0  1  0  0  0  0  0999 V2000
  -28.5440  -20.6480   19.7110 C   0  0  0  0  0  3  0  0  0  0  0  0
  -25.4420  -19.6620   17.5700 C   0  0  0  0  0  2  0  0  0  0  0  0
  -25.3900  -21.1930   17.5220 C   0  0  0  0  0  2  0  0  0  0  0  0
  -26.6460  -19.3050   18.4530 C   0  0  0  0  0  2  0  0  0  0  0  0
  -26.4480  -21.6740   18.5190 C   0  0  0  0  0  2  0  0  0  0  0  0
  -27.5180  -20.5700   18.5310 C   0  0  0  0  0  3  0  0  0  0  0  0
  -29.2200  -21.9780   19.6720 N   0  0  0  0  0  4  0  0  0  0  0  0
  -30.1940  -21.8440   19.8980 H   0  0  0  0  0  0  0  0  0  0  0  0
  -29.1860  -22.3120   18.7220 H   0  0  0  0  0  0  0  0  0  0  0  0
  -28.6910  -23.0320   20.5790 C   0  0  0  0  0  2  0  0  0  0  0  0
  -29.0810  -24.4700   20.1450 C   0  0  0  0  0  2  0  0  0  0  0  0
  -28.5050  -25.5630   21.0750 C   0  0  0  0  0  2  0  0  0  0  0  0
  -28.6050  -26.8830   20.5110 O   0  0  0  0  0  0  0  0  0  0  0  0
  -24.5650  -32.0130   23.3410 C   0  0  0  0  0  0  0  0  0  0  0  0
  -27.4220  -27.5880   20.4460 C   0  0  0  0  0  0  0  0  0  0  0  0
  -23.4550  -30.5540   21.6800 C   0  0  0  0  0  3  0  0  0  0  0  0
  -24.9950  -29.0300   20.3400 C   0  0  0  0  0  0  0  0  0  0  0  0
  -25.9780  -30.9750   21.5670 C   0  0  0  0  0  2  0  0  0  0  0  0
  -26.1200  -29.5980   20.9520 C   0  0  0  0  0  0  0  0  0  0  0  0
  -27.3380  -28.8870   20.9920 C   0  0  0  0  0  3  0  0  0  0  0  0
  -26.2840  -27.0310   19.8230 C   0  0  0  0  0  3  0  0  0  0  0  0
  -25.0710  -27.7470   19.7700 C   0  0  0  0  0  3  0  0  0  0  0  0
  -23.7310  -29.8540   20.3220 C   0  0  0  0  0  2  0  0  0  0  0  0
  -24.6830  -31.1940   22.2560 N   0  0  0  0  0  0  0  0  0  0  0  0
  -23.4570  -32.2670   23.8360 O   0  0  0  0  0  0  0  0  0  0  0  0
  -22.7940  -29.5340   22.6340 C   0  0  0  0  0  0  0  0  0  0  0  0
  -21.4820  -29.3110   22.4520 N   0  0  0  0  0  0  0  0  0  0  0  0
  -23.4580  -28.9460   23.4920 O   0  0  0  0  0  0  0  0  0  0  0  0
  -21.0100  -29.8320   21.7270 H   0  0  0  0  0  0  0  0  0  0  0  0
  -18.1250  -28.0290   22.8200 C   0  0  0  0  0  0  0  0  0  0  0  0
  -20.6570  -28.3650   23.2040 C   0  0  0  0  0  3  0  0  0  0  0  0
  -20.8290  -26.9260   22.6640 C   0  0  0  0  0  2  0  0  0  0  0  0
  -19.7840  -26.5500   21.6090 C   0  0  0  0  0  2  0  0  0  0  0  0
  -18.3700  -26.6710   22.1850 C   0  0  0  0  0  2  0  0  0  0  0  0
  -19.1990  -28.8320   23.2840 C   0  0  0  0  0  0  0  0  0  0  0  0
  -18.9160  -30.1020   23.8340 C   0  0  0  0  0  3  0  0  0  0  0  0
  -17.5900  -30.5650   23.9300 C   0  0  0  0  0  3  0  0  0  0  0  0
  -16.5290  -29.7570   23.4830 C   0  0  0  0  0  3  0  0  0  0  0  0
  -16.7970  -28.4910   22.9320 C   0  0  0  0  0  3  0  0  0  0  0  0
  -25.8110  -32.6830   24.0000 C   0  0  0  0  0  3  0  0  0  0  0  0
  -25.4730  -34.0880   24.2650 N   0  0  0  0  0  0  0  0  0  0  0  0
  -25.8240  -35.1170   23.4840 C   0  0  0  0  0  0  0  0  0  0  0  0
  -26.5380  -34.9870   22.4850 O   0  0  0  0  0  0  0  0  0  0  0  0
  -24.8550  -34.2620   25.0450 H   0  0  0  0  0  0  0  0  0  0  0  0
  -24.0900  -36.8660   22.9800 C   0  0  0  0  0  1  0  0  0  0  0  0
  -25.2930  -36.5110   23.8690 C   0  0  0  0  0  3  0  0  0  0  0  0
  -27.3690  -37.4540   24.7800 C   0  0  0  0  0  1  0  0  0  0  0  0
  -26.3160  -37.5760   23.7760 N   0  0  0  0  0  0  0  0  0  0  0  0
  -25.8890  -38.4940   23.8740 H   0  0  0  0  0  0  0  0  0  0  0  0
  -26.2830  -31.9660   25.3240 C   0  0  1  0  0  0  0  0  0  0  0  0
  -25.1460  -31.7390   26.3470 C   0  0  0  0  0  1  0  0  0  0  0  0
  -26.9140  -30.5910   25.0060 C   0  0  0  0  0  1  0  0  0  0  0  0
  -27.3850  -32.8060   26.0150 C   0  0  0  0  0  1  0  0  0  0  0  0
  -29.6310  -19.5320   19.6220 C   0  0  0  0  0  2  0  0  0  0  0  0
  -29.2990  -18.1180   20.1830 C   0  0  0  0  0  2  0  0  0  0  0  0
  -30.3850  -17.0550   19.8640 C   0  0  0  0  0  3  0  0  0  0  0  0
  -30.8280  -14.6580   20.3790 C   0  0  0  0  0  0  0  0  0  0  0  0
  -30.5140  -12.5170   19.2440 C   0  0  0  0  0  2  0  0  0  0  0  0
  -29.5760  -12.7730   18.0430 C   0  0  0  0  0  2  0  0  0  0  0  0
  -28.1000  -12.6460   18.4680 C   0  0  0  0  0  2  0  0  0  0  0  0
  -27.7710  -13.4390   19.7620 C   0  0  0  0  0  3  0  0  0  0  0  0
  -28.8360  -13.2010   20.8620 C   0  0  0  0  0  2  0  0  0  0  0  0
  -30.1560  -13.4840   20.2870 N   0  0  0  0  0  0  0  0  0  0  0  0
  -32.0180  -14.7820   20.0840 O   0  0  0  0  0  0  0  0  0  0  0  0
  -30.0320  -15.7410   20.4360 N   0  0  0  0  0  0  0  0  0  0  0  0
  -29.0600  -15.5710   20.6440 H   0  0  0  0  0  0  0  0  0  0  0  0
  -25.3760  -14.0260   20.4910 C   0  0  0  0  0  0  0  0  0  0  0  0
  -24.3130  -13.2430   20.8520 C   0  0  0  0  0  0  0  0  0  0  0  0
  -24.7800  -11.8940   20.8010 C   0  0  0  0  0  0  0  0  0  0  0  0
  -26.4230  -13.1510   20.2440 N   0  0  0  0  0  0  0  0  0  0  0  0
  -26.0700  -11.8640   20.4910 N   0  0  0  0  0  0  0  0  0  0  0  0
  -24.0610  -10.6250   20.9700 C   0  0  0  0  0  0  0  0  0  0  0  0
  -24.4850   -9.6580   21.9090 C   0  0  0  0  0  3  0  0  0  0  0  0
  -23.7680   -8.4520   22.0690 C   0  0  0  0  0  3  0  0  0  0  0  0
  -22.6120   -8.2070   21.2880 C   0  0  0  0  0  0  0  0  0  0  0  0
  -22.2080   -9.1620   20.3400 C   0  0  0  0  0  3  0  0  0  0  0  0
  -22.9250  -10.3590   20.1780 C   0  0  0  0  0  3  0  0  0  0  0  0
  -21.8650   -7.0540   21.3590 O   0  0  0  0  0  0  0  0  0  0  0  0
  -21.7900   -6.3140   22.5090 C   0  0  0  0  0  0  0  0  0  0  0  0
  -21.2960   -6.8580   23.7170 C   0  0  0  0  0  3  0  0  0  0  0  0
  -21.1760   -6.0420   24.8590 C   0  0  0  0  0  3  0  0  0  0  0  0
  -21.5350   -4.6810   24.7930 C   0  0  0  0  0  0  0  0  0  0  0  0
  -22.0190   -4.1360   23.5910 C   0  0  0  0  0  3  0  0  0  0  0  0
  -22.1440   -4.9500   22.4520 C   0  0  0  0  0  0  0  0  0  0  0  0
  -22.5930   -4.4170   21.2900 F   0  0  0  0  0  0  0  0  0  0  0  0
  -21.4090   -3.8930   25.8860 F   0  0  0  0  0  0  0  0  0  0  0  0
  -22.9140  -13.7090   21.1310 C   0  0  0  0  0  0  0  0  0  0  0  0
  -22.1920  -12.9970   21.9910 N   0  0  0  0  0  0  0  0  0  0  0  0
  -22.4700  -14.7360   20.6220 O   0  0  0  0  0  0  0  0  0  0  0  0
  -22.5640  -12.1660   22.4220 H   0  0  0  0  0  0  0  0  0  0  0  0
  -21.2520  -13.2890   22.2180 H   0  0  0  0  0  0  0  0  0  0  0  0
  -25.5340  -15.3980   20.3240 N   0  0  0  0  0  0  0  0  0  0  0  0
  -24.7540  -16.0370   20.4130 H   0  0  0  0  0  0  0  0  0  0  0  0
  -26.3520  -15.8260   19.9120 H   0  0  0  0  0  0  0  0  0  0  0  0
  -30.6100  -16.9260   18.3260 C   0  0  0  0  0  2  0  0  0  0  0  0
  -31.9490  -17.5110   17.8500 C   0  0  0  0  0  2  0  0  0  0  0  0
  -32.0470  -17.5830   16.3190 C   0  0  0  0  0  2  0  0  0  0  0  0
  -33.3910  -18.1650   15.8480 C   0  0  0  0  0  2  0  0  0  0  0  0
  -33.4500  -18.3270   14.3870 N   0  0  0  0  0  4  0  0  0  0  0  0
  -33.3240  -17.4470   13.9200 H   0  0  0  0  0  0  0  0  0  0  0  0
  -34.3470  -18.6940   14.1240 H   0  0  0  0  0  0  0  0  0  0  0  0
  -32.7440  -18.9670   14.0680 H   0  0  0  0  0  0  0  0  0  0  0  0
  1 54  1  0
  2  4  1  0
  3  2  1  0
  3  5  1  0
  4  6  1  0
  5  6  1  0
  6  1  1  0
  7  1  1  0
  7  8  1  0
  7 10  1  0
  9  7  1  0
 11 10  1  0
 11 12  1  0
 13 12  1  0
 14 25  2  0
 15 13  1  0
 15 20  1  0
 16 24  1  0
 16 26  1  0
 17 19  1  0
 18 24  1  0
 19 20  2  0
 19 18  1  0
 21 15  2  0
 22 21  1  0
 22 17  2  0
 23 17  1  0
 23 16  1  0
 24 14  1  0
 26 28  2  0
 27 26  1  0
 29 27  1  0
 30 39  2  0
 30 35  1  0
 31 27  1  0
 31 35  1  0
 32 31  1  0
 33 34  1  0
 33 32  1  0
 34 30  1  0
 35 36  2  0
 36 37  1  0
 38 37  2  0
 39 38  1  0
 40 14  1  0
 40 41  1  0
 40 50  1  0
 41 44  1  0
 42 46  1  0
 42 41  1  0
 43 42  2  0
 46 45  1  0
 48 46  1  0
 48 49  1  0
 48 47  1  0
 50 53  1  1
 50 51  1  0
 52 50  1  0
 54 55  1  0
 56 95  1  0
 56 55  1  0
 56 65  1  0
 57 65  1  0
 58 63  1  0
 59 60  1  0
 59 58  1  0
 61 60  1  0
 61 70  1  0
 61 62  1  0
 63 57  1  0
 63 62  1  0
 64 57  2  0
 65 66  1  0
 67 68  2  0
 68 87  1  0
 69 68  1  0
 69 72  1  0
 70 71  1  0
 70 67  1  0
 71 69  2  0
 72 73  1  0
 73 74  2  0
 75 78  1  0
 75 74  1  0
 76 75  2  0
 77 76  1  0
 77 72  2  0
 78 79  1  0
 79 80  1  0
 80 81  2  0
 82 81  1  0
 82 86  1  0
 83 82  2  0
 84 79  2  0
 84 83  1  0
 85 84  1  0
 87 88  1  0
 88 91  1  0
 88 90  1  0
 89 87  2  0
 92 93  1  0
 92 67  1  0
 94 92  1  0
 96 95  1  0
 97 96  1  0
 98 97  1  0
 99 98  1  0
100 99  1  0
101 99  1  0
102 99  1  0
M  ISO  4  12 101  13 101  57 100  65 100
M  END
>  <TORSDO>  (14) 
F 29

>  <SCORE>  (14) 
-10.859

>  <name>  (14) 
13

>  <ligand_id>  (14) 
13

>  <original_smiles>  (14) 
[H]c1c([H])c([H])c2c(c1[H])C([H])([H])C([H])([H])C([H])([H])C2([H])N([H])C(=O)C1([H])N(C(=O)C([H])(N([H])C(=O)C([H])(N([H])C([H])([H])[H])C([H])([H])[H])C(C([H])([H])[H])(C([H])([H])[H])C([H])([H])[H])C([H])([H])c2c([H])c(OC([H])([H])C([H])([H])C([H])([H])[N+]([H])([H])C([H])(C([H])([H])C([H])([H])C([H])(N([H])C(=O)N3C([H])([H])C([H])([H])C([H])([H])C([H])(n4nc(-c5c([H])c([H])c(Oc6c([H])c([H])c(F)c([H])c6F)c([H])c5[H])c(C(=O)N([H])[H])c4N([H])[H])C3([H])[H])C([H])([H])C([H])([H])C([H])([H])C([H])([H])[N+]([H])([H])[H])C3([H])C([H])([H])C([H])([H])C([H])([H])C3([H])[H])c([H])c([H])c2C1([H])[H]

>  <smiles>  (14) 
[H]c1c([H])c([H])c2c(c1[H])C([H])([H])C([H])([H])C([H])([H])C2([H])N([H])C(=O)C1([H])N(C(=O)C([H])(N([H])C(=O)C([H])(N([H])C([H])([H])[H])C([H])([H])[H])C(C([H])([H])[H])(C([H])([H])[H])C([H])([H])[H])C([H])([H])c2c([H])c(OC([H])([H])C([H])([H])C([H])([H])[N+]([H])([H])C([H])(C([H])([H])C([H])([H])C([H])(N([H])C(=O)N3C([H])([H])C([H])([H])C([H])([H])C([H])(n4nc(-c5c([H])c([H])c(Oc6c([H])c([H])c(F)c([H])c6F)c([H])c5[H])c(C(=O)N([H])[H])c4N([H])[H])C3([H])[H])C([H])([H])C([H])([H])C([H])([H])C([H])([H])[N+]([H])([H])[H])C3([H])C([H])([H])C([H])([H])C([H])([H])C3([H])[H])c([H])c([H])c2C1([H])[H]

$$$$
14:0:0
     RDKit          3D

110118  0  0  1  0  0  0  0  0999 V2000
  -27.9480  -19.0510   19.3560 C   0  0  0  0  0  3  0  0  0  0  0  0
  -28.6070  -21.3510   18.9160 C   0  0  0  0  0  3  0  0  0  0  0  0
  -30.1380  -19.8350   20.0780 C   0  0  0  0  0  3  0  0  0  0  0  0
  -27.6440  -20.3230   18.8310 C   0  0  0  0  0  0  0  0  0  0  0  0
  -29.1970  -18.7840   19.9550 C   0  0  0  0  0  0  0  0  0  0  0  0
  -29.8330  -21.1290   19.5820 C   0  0  0  0  0  0  0  0  0  0  0  0
  -26.2510  -20.6220   18.2910 C   0  0  0  0  0  2  0  0  0  0  0  0
  -25.9540  -20.1410   16.8600 C   0  0  0  0  0  2  0  0  0  0  0  0
  -24.4710  -20.2420   16.5780 C   0  0  0  0  0  0  0  0  0  0  0  0
  -23.8770  -19.2720   15.8720 N   0  0  0  0  0  4  0  0  0  0  0  0
  -23.7370  -21.2760   17.0210 N   0  0  0  0  0  0  0  0  0  0  0  0
  -24.4330  -18.5440   15.4420 H   0  0  0  0  0  0  0  0  0  0  0  0
  -22.8800  -19.2260   15.7200 H   0  0  0  0  0  0  0  0  0  0  0  0
  -24.1810  -22.0720   17.4600 H   0  0  0  0  0  0  0  0  0  0  0  0
  -22.7340  -21.3280   16.9140 H   0  0  0  0  0  0  0  0  0  0  0  0
  -29.4500  -17.3940   20.5290 C   0  0  0  0  0  2  0  0  0  0  0  0
  -30.7010  -16.6180   19.9860 C   0  0  0  0  0  3  0  0  0  0  0  0
  -30.8910  -14.2000   19.2930 C   0  0  0  0  0  0  0  0  0  0  0  0
  -30.4720  -11.9020   18.4930 C   0  0  0  0  0  2  0  0  0  0  0  0
  -29.4160  -11.8900   17.3710 C   0  0  0  0  0  2  0  0  0  0  0  0
  -27.9930  -11.8580   17.9550 C   0  0  0  0  0  2  0  0  0  0  0  0
  -27.7780  -12.9280   19.0560 C   0  0  0  0  0  3  0  0  0  0  0  0
  -28.9200  -12.8660   20.0980 C   0  0  0  0  0  2  0  0  0  0  0  0
  -30.2010  -13.0370   19.3830 N   0  0  0  0  0  0  0  0  0  0  0  0
  -31.8590  -14.3770   18.5430 O   0  0  0  0  0  0  0  0  0  0  0  0
  -30.4360  -15.1740   20.1010 N   0  0  0  0  0  0  0  0  0  0  0  0
  -29.6600  -14.8950   20.6840 H   0  0  0  0  0  0  0  0  0  0  0  0
  -25.5330  -13.7580   20.0160 C   0  0  0  0  0  0  0  0  0  0  0  0
  -24.4520  -13.0950   20.5210 C   0  0  0  0  0  0  0  0  0  0  0  0
  -24.7920  -11.7080   20.4750 C   0  0  0  0  0  0  0  0  0  0  0  0
  -26.4680  -12.7870   19.6940 N   0  0  0  0  0  0  0  0  0  0  0  0
  -26.0290  -11.5470   20.0320 N   0  0  0  0  0  0  0  0  0  0  0  0
  -23.9880  -10.5190   20.7770 C   0  0  0  0  0  0  0  0  0  0  0  0
  -24.4100   -9.5670   21.7330 C   0  0  0  0  0  3  0  0  0  0  0  0
  -23.6100   -8.4430   22.0290 C   0  0  0  0  0  3  0  0  0  0  0  0
  -22.3720   -8.2620   21.3700 C   0  0  0  0  0  0  0  0  0  0  0  0
  -21.9680   -9.1950   20.3980 C   0  0  0  0  0  3  0  0  0  0  0  0
  -22.7690  -10.3090   20.1010 C   0  0  0  0  0  3  0  0  0  0  0  0
  -21.5480   -7.1840   21.5730 O   0  0  0  0  0  0  0  0  0  0  0  0
  -21.5010   -6.5250   22.7760 C   0  0  0  0  0  0  0  0  0  0  0  0
  -21.1170   -7.1810   23.9640 C   0  0  0  0  0  3  0  0  0  0  0  0
  -21.0160   -6.4620   25.1700 C   0  0  0  0  0  3  0  0  0  0  0  0
  -21.2760   -5.0800   25.1860 C   0  0  0  0  0  0  0  0  0  0  0  0
  -21.6530   -4.4170   24.0020 C   0  0  0  0  0  3  0  0  0  0  0  0
  -21.7660   -5.1410   22.8000 C   0  0  0  0  0  0  0  0  0  0  0  0
  -22.1150   -4.4950   21.6630 F   0  0  0  0  0  0  0  0  0  0  0  0
  -21.1710   -4.3810   26.3380 F   0  0  0  0  0  0  0  0  0  0  0  0
  -23.1430  -13.6990   20.9390 C   0  0  0  0  0  0  0  0  0  0  0  0
  -22.5010  -13.1170   21.9440 N   0  0  0  0  0  0  0  0  0  0  0  0
  -22.7020  -14.7170   20.4030 O   0  0  0  0  0  0  0  0  0  0  0  0
  -22.9050  -12.3260   22.4280 H   0  0  0  0  0  0  0  0  0  0  0  0
  -21.6180  -13.4860   22.2650 H   0  0  0  0  0  0  0  0  0  0  0  0
  -25.7910  -15.1070   19.7820 N   0  0  0  0  0  0  0  0  0  0  0  0
  -25.0680  -15.8090   19.8620 H   0  0  0  0  0  0  0  0  0  0  0  0
  -26.6330  -15.4430   19.3470 H   0  0  0  0  0  0  0  0  0  0  0  0
  -32.1210  -17.0030   20.5690 C   0  0  0  0  0  3  0  0  0  0  0  0
  -32.5860  -16.0960   21.6430 N   0  0  0  0  0  4  0  0  0  0  0  0
  -31.9960  -16.1820   22.4510 H   0  0  0  0  0  0  0  0  0  0  0  0
  -33.5300  -16.3080   21.9130 H   0  0  0  0  0  0  0  0  0  0  0  0
  -32.5620  -15.1390   21.3360 H   0  0  0  0  0  0  0  0  0  0  0  0
  -32.3430  -18.4870   20.9780 C   0  0  0  0  0  2  0  0  0  0  0  0
  -31.7000  -20.4600   22.4850 C   0  0  0  0  0  1  0  0  0  0  0  0
  -31.7020  -18.9270   22.3170 C   0  0  0  0  0  2  0  0  0  0  0  0
  -30.7550  -22.3280   19.8210 C   0  0  0  0  0  2  0  0  0  0  0  0
  -30.0600  -23.3260   20.6650 N   0  0  0  0  0  4  0  0  0  0  0  0
  -30.3230  -23.1790   21.6290 H   0  0  0  0  0  0  0  0  0  0  0  0
  -29.0760  -23.1200   20.6010 H   0  0  0  0  0  0  0  0  0  0  0  0
  -30.2470  -24.7630   20.3270 C   0  0  0  0  0  2  0  0  0  0  0  0
  -28.8830  -25.4300   20.0600 C   0  0  0  0  0  2  0  0  0  0  0  0
  -28.9320  -26.8650   20.0460 O   0  0  0  0  0  0  0  0  0  0  0  0
  -24.6920  -31.7020   23.1100 C   0  0  0  0  0  0  0  0  0  0  0  0
  -27.7110  -27.5170   20.0080 C   0  0  0  0  0  0  0  0  0  0  0  0
  -23.6260  -30.2620   21.4080 C   0  0  0  0  0  3  0  0  0  0  0  0
  -25.2160  -28.8670   19.9860 C   0  0  0  0  0  0  0  0  0  0  0  0
  -26.1250  -30.7960   21.2870 C   0  0  0  0  0  2  0  0  0  0  0  0
  -26.3220  -29.4500   20.6160 C   0  0  0  0  0  0  0  0  0  0  0  0
  -27.5720  -28.7850   20.6210 C   0  0  0  0  0  3  0  0  0  0  0  0
  -26.5770  -26.9500   19.3720 C   0  0  0  0  0  3  0  0  0  0  0  0
  -25.3410  -27.6170   19.3620 C   0  0  0  0  0  3  0  0  0  0  0  0
  -23.9170  -29.6380   20.0180 C   0  0  0  0  0  2  0  0  0  0  0  0
  -24.8290  -30.9330   21.9940 N   0  0  0  0  0  0  0  0  0  0  0  0
  -23.5830  -31.8900   23.6240 O   0  0  0  0  0  0  0  0  0  0  0  0
  -23.0270  -29.1720   22.3220 C   0  0  0  0  0  0  0  0  0  0  0  0
  -21.7300  -28.8800   22.1330 N   0  0  0  0  0  0  0  0  0  0  0  0
  -23.7220  -28.5930   23.1610 O   0  0  0  0  0  0  0  0  0  0  0  0
  -21.2250  -29.4010   21.4290 H   0  0  0  0  0  0  0  0  0  0  0  0
  -18.4350  -27.4460   22.4980 C   0  0  0  0  0  0  0  0  0  0  0  0
  -20.9600  -27.8690   22.8560 C   0  0  0  0  0  3  0  0  0  0  0  0
  -21.1750  -26.4640   22.2460 C   0  0  0  0  0  2  0  0  0  0  0  0
  -20.1270  -26.0940   21.1910 C   0  0  0  0  0  2  0  0  0  0  0  0
  -18.7210  -26.1290   21.7960 C   0  0  0  0  0  2  0  0  0  0  0  0
  -19.4850  -28.2700   22.9820 C   0  0  0  0  0  0  0  0  0  0  0  0
  -19.1610  -29.5000   23.5950 C   0  0  0  0  0  3  0  0  0  0  0  0
  -17.8200  -29.9060   23.7310 C   0  0  0  0  0  3  0  0  0  0  0  0
  -16.7840  -29.0770   23.2680 C   0  0  0  0  0  3  0  0  0  0  0  0
  -17.0920  -27.8500   22.6540 C   0  0  0  0  0  3  0  0  0  0  0  0
  -25.9190  -32.4010   23.7760 C   0  0  0  0  0  3  0  0  0  0  0  0
  -25.4970  -33.7490   24.1740 N   0  0  0  0  0  0  0  0  0  0  0  0
  -25.7240  -34.8590   23.4600 C   0  0  0  0  0  0  0  0  0  0  0  0
  -26.3900  -34.8620   22.4200 O   0  0  0  0  0  0  0  0  0  0  0  0
  -24.9020  -33.8150   24.9870 H   0  0  0  0  0  0  0  0  0  0  0  0
  -23.8390  -36.4990   23.1990 C   0  0  0  0  0  1  0  0  0  0  0  0
  -25.1180  -36.1730   23.9840 C   0  0  0  0  0  3  0  0  0  0  0  0
  -27.1750  -37.2020   24.8440 C   0  0  0  0  0  1  0  0  0  0  0  0
  -26.0510  -37.3180   23.9190 N   0  0  0  0  0  0  0  0  0  0  0  0
  -25.5670  -38.1870   24.1220 H   0  0  0  0  0  0  0  0  0  0  0  0
  -26.4910  -31.6100   25.0150 C   0  0  1  0  0  0  0  0  0  0  0  0
  -25.4040  -31.1570   26.0160 C   0  0  0  0  0  1  0  0  0  0  0  0
  -27.2600  -30.3510   24.5520 C   0  0  0  0  0  1  0  0  0  0  0  0
  -27.5060  -32.4920   25.7800 C   0  0  0  0  0  1  0  0  0  0  0  0
  1  5  1  0
  2  6  2  0
  4  2  1  0
  4  1  2  0
  5  3  2  0
  5 16  1  0
  6 64  1  0
  6  3  1  0
  7  4  1  0
  8  7  1  0
  9  8  1  0
  9 11  1  0
 10  9  2  0
 11 14  1  0
 12 10  1  0
 13 10  1  0
 15 11  1  0
 17 26  1  0
 17 16  1  0
 17 56  1  0
 18 24  1  0
 18 26  1  0
 19 24  1  0
 20 21  1  0
 20 19  1  0
 22 21  1  0
 22 31  1  0
 22 23  1  0
 24 23  1  0
 25 18  2  0
 26 27  1  0
 28 29  2  0
 29 48  1  0
 30 29  1  0
 30 33  1  0
 31 28  1  0
 31 32  1  0
 32 30  2  0
 33 34  1  0
 34 35  2  0
 36 39  1  0
 36 35  1  0
 37 36  2  0
 38 37  1  0
 38 33  2  0
 39 40  1  0
 40 45  2  0
 40 41  1  0
 41 42  2  0
 42 43  1  0
 43 47  1  0
 44 43  2  0
 45 44  1  0
 46 45  1  0
 48 49  1  0
 49 52  1  0
 49 51  1  0
 50 48  2  0
 53 54  1  0
 53 28  1  0
 55 53  1  0
 56 61  1  0
 56 57  1  0
 57 59  1  0
 57 58  1  0
 60 57  1  0
 61 63  1  0
 63 62  1  0
 64 65  1  0
 65 66  1  0
 67 65  1  0
 68 65  1  0
 69 68  1  0
 70 69  1  0
 71 82  2  0
 72 70  1  0
 72 77  1  0
 73 81  1  0
 73 83  1  0
 74 80  1  0
 74 76  1  0
 75 81  1  0
 76 77  2  0
 76 75  1  0
 78 72  2  0
 79 78  1  0
 79 74  2  0
 80 73  1  0
 81 71  1  0
 83 85  2  0
 84 83  1  0
 86 84  1  0
 87 96  2  0
 87 92  1  0
 88 84  1  0
 88 92  1  0
 89 88  1  0
 90 91  1  0
 90 89  1  0
 91 87  1  0
 92 93  2  0
 93 94  1  0
 95 94  2  0
 96 95  1  0
 97 71  1  0
 97 98  1  0
 97107  1  0
 98101  1  0
 99103  1  0
 99 98  1  0
100 99  2  0
103102  1  0
105103  1  0
105106  1  0
105104  1  0
107110  1  1
107108  1  0
109107  1  0
M  ISO  4  18 100  26 100  69 101  70 101
M  END
>  <TORSDO>  (15) 
F 29

>  <SCORE>  (15) 
-8.122

>  <name>  (15) 
14

>  <ligand_id>  (15) 
14

>  <original_smiles>  (15) 
[H]c1c([H])c([H])c2c(c1[H])C([H])([H])C([H])([H])C([H])([H])C2([H])N([H])C(=O)C1([H])N(C(=O)C([H])(N([H])C(=O)C([H])(N([H])C([H])([H])[H])C([H])([H])[H])C(C([H])([H])[H])(C([H])([H])[H])C([H])([H])[H])C([H])([H])c2c([H])c(OC([H])([H])C([H])([H])[N+]([H])([H])C([H])([H])c3c([H])c(C([H])([H])C([H])([H])C(N([H])[H])=[N+]([H])[H])c([H])c(C([H])([H])C([H])(N([H])C(=O)N4C([H])([H])C([H])([H])C([H])([H])C([H])(n5nc(-c6c([H])c([H])c(Oc7c([H])c([H])c(F)c([H])c7F)c([H])c6[H])c(C(=O)N([H])[H])c5N([H])[H])C4([H])[H])C([H])(C([H])([H])C([H])([H])C([H])([H])[H])[N+]([H])([H])[H])c3[H])c([H])c([H])c2C1([H])[H]

>  <smiles>  (15) 
[H]c1c([H])c([H])c2c(c1[H])C([H])([H])C([H])([H])C([H])([H])C2([H])N([H])C(=O)C1([H])N(C(=O)C([H])(N([H])C(=O)C([H])(N([H])C([H])([H])[H])C([H])([H])[H])C(C([H])([H])[H])(C([H])([H])[H])C([H])([H])[H])C([H])([H])c2c([H])c(OC([H])([H])C([H])([H])[N+]([H])([H])C([H])([H])c3c([H])c(C([H])([H])C([H])([H])C(N([H])[H])=[N+]([H])[H])c([H])c(C([H])([H])C([H])(N([H])C(=O)N4C([H])([H])C([H])([H])C([H])([H])C([H])(n5nc(-c6c([H])c([H])c(Oc7c([H])c([H])c(F)c([H])c7F)c([H])c6[H])c(C(=O)N([H])[H])c5N([H])[H])C4([H])[H])C([H])(C([H])([H])C([H])([H])C([H])([H])[H])[N+]([H])([H])[H])c3[H])c([H])c([H])c2C1([H])[H]

$$$$
15:0:0
     RDKit          3D

 88 96  0  0  1  0  0  0  0  0999 V2000
  -28.6900  -21.9820   20.0600 C   0  0  0  0  0  3  0  0  0  0  0  0
  -28.9810  -23.5510   20.5020 C   0  0  0  0  0  3  0  0  0  0  0  0
  -28.0320  -24.8100   20.0310 C   0  0  0  0  0  3  0  0  0  0  0  0
  -28.2760  -26.2830   20.3540 O   0  0  0  0  0  0  0  0  0  0  0  0
  -24.6400  -31.8750   23.3260 C   0  0  0  0  0  0  0  0  0  0  0  0
  -27.2120  -27.2300   20.2670 C   0  0  0  0  0  0  0  0  0  0  0  0
  -23.4370  -30.4980   21.6710 C   0  0  0  0  0  3  0  0  0  0  0  0
  -24.8830  -28.9390   20.2370 C   0  0  0  0  0  0  0  0  0  0  0  0
  -25.9890  -30.7690   21.5150 C   0  0  0  0  0  2  0  0  0  0  0  0
  -26.0580  -29.3880   20.8550 C   0  0  0  0  0  0  0  0  0  0  0  0
  -27.2230  -28.5460   20.8580 C   0  0  0  0  0  3  0  0  0  0  0  0
  -26.0170  -26.8720   19.6000 C   0  0  0  0  0  3  0  0  0  0  0  0
  -24.8720  -27.6920   19.5960 C   0  0  0  0  0  3  0  0  0  0  0  0
  -23.6570  -29.8330   20.2870 C   0  0  0  0  0  2  0  0  0  0  0  0
  -24.7080  -31.0670   22.2270 N   0  0  0  0  0  0  0  0  0  0  0  0
  -23.5550  -32.1590   23.8550 O   0  0  0  0  0  0  0  0  0  0  0  0
  -22.7560  -29.4820   22.6220 C   0  0  0  0  0  0  0  0  0  0  0  0
  -21.4300  -29.3120   22.4830 N   0  0  0  0  0  0  0  0  0  0  0  0
  -23.4230  -28.8510   23.4470 O   0  0  0  0  0  0  0  0  0  0  0  0
  -20.9500  -29.8740   21.7930 H   0  0  0  0  0  0  0  0  0  0  0  0
  -18.0430  -28.1190   22.9500 C   0  0  0  0  0  0  0  0  0  0  0  0
  -20.5990  -28.3740   23.2440 C   0  0  0  0  0  3  0  0  0  0  0  0
  -20.7040  -26.9430   22.6660 C   0  0  0  0  0  2  0  0  0  0  0  0
  -19.6120  -26.6250   21.6400 C   0  0  0  0  0  2  0  0  0  0  0  0
  -18.2240  -26.7710   22.2720 C   0  0  0  0  0  2  0  0  0  0  0  0
  -19.1590  -28.8780   23.3910 C   0  0  0  0  0  0  0  0  0  0  0  0
  -18.9360  -30.1390   23.9870 C   0  0  0  0  0  3  0  0  0  0  0  0
  -17.6300  -30.6410   24.1420 C   0  0  0  0  0  3  0  0  0  0  0  0
  -16.5290  -29.8790   23.7170 C   0  0  0  0  0  3  0  0  0  0  0  0
  -16.7360  -28.6190   23.1250 C   0  0  0  0  0  3  0  0  0  0  0  0
  -25.9220  -32.4960   23.9600 C   0  0  0  0  0  3  0  0  0  0  0  0
  -26.4040  -31.7360   25.2570 C   0  0  1  0  0  0  0  0  0  0  0  0
  -25.2900  -31.5340   26.3110 C   0  0  0  0  0  1  0  0  0  0  0  0
  -26.9700  -30.3420   24.9020 C   0  0  0  0  0  1  0  0  0  0  0  0
  -27.5570  -32.5200   25.9270 C   0  0  0  0  0  1  0  0  0  0  0  0
  -25.6300  -33.9040   24.2680 N   0  0  0  0  0  0  0  0  0  0  0  0
  -25.9690  -34.9420   23.4910 C   0  0  0  0  0  0  0  0  0  0  0  0
  -26.6300  -34.8140   22.4570 O   0  0  0  0  0  0  0  0  0  0  0  0
  -25.0430  -34.0780   25.0710 H   0  0  0  0  0  0  0  0  0  0  0  0
  -24.2510  -36.7460   23.1340 C   0  0  0  0  0  1  0  0  0  0  0  0
  -25.5030  -36.3440   23.9300 C   0  0  0  0  0  3  0  0  0  0  0  0
  -27.6590  -37.2260   24.7040 C   0  0  0  0  0  1  0  0  0  0  0  0
  -26.5400  -37.3870   23.7810 N   0  0  0  0  0  0  0  0  0  0  0  0
  -26.1430  -38.3120   23.9210 H   0  0  0  0  0  0  0  0  0  0  0  0
  -29.5990  -20.7270   20.6170 C   0  0  0  0  0  3  0  0  0  0  0  0
  -30.6540  -14.8440   19.9900 C   0  0  0  0  0  0  0  0  0  0  0  0
  -30.3760  -12.5560   18.9900 C   0  0  0  0  0  2  0  0  0  0  0  0
  -29.3810  -12.6020   17.8110 C   0  0  0  0  0  2  0  0  0  0  0  0
  -27.9400  -12.4130   18.3200 C   0  0  0  0  0  2  0  0  0  0  0  0
  -27.6220  -13.3000   19.5550 C   0  0  0  0  0  3  0  0  0  0  0  0
  -28.7410  -13.2540   20.6170 C   0  0  0  0  0  2  0  0  0  0  0  0
  -29.9880  -13.6320   19.9410 N   0  0  0  0  0  0  0  0  0  0  0  0
  -31.8290  -14.8670   19.6090 O   0  0  0  0  0  0  0  0  0  0  0  0
  -29.2090  -16.6910   21.1320 C   0  0  0  0  0  2  0  0  0  0  0  0
  -30.0440  -17.0700   18.8840 C   0  0  0  0  0  2  0  0  0  0  0  0
  -29.4290  -18.2550   21.4200 C   0  0  0  0  0  2  0  0  0  0  0  0
  -30.2310  -18.6240   19.2120 C   0  0  0  0  0  2  0  0  0  0  0  0
  -29.9370  -16.0610   19.9930 N   0  0  0  0  0  0  0  0  0  0  0  0
  -29.3330  -19.2190   20.2590 N   0  0  2  0  0  4  0  0  0  0  0  0
  -28.3840  -19.1650   19.9200 H   0  0  0  0  0  0  0  0  0  0  0  0
  -25.2880  -13.8690   20.4410 C   0  0  0  0  0  0  0  0  0  0  0  0
  -24.2420  -13.0880   20.8500 C   0  0  0  0  0  0  0  0  0  0  0  0
  -24.6980  -11.7380   20.7580 C   0  0  0  0  0  0  0  0  0  0  0  0
  -26.3110  -12.9950   20.1190 N   0  0  0  0  0  0  0  0  0  0  0  0
  -25.9690  -11.7050   20.3740 N   0  0  0  0  0  0  0  0  0  0  0  0
  -23.9760  -10.4720   20.9550 C   0  0  0  0  0  0  0  0  0  0  0  0
  -24.4270   -9.5010   21.8770 C   0  0  0  0  0  3  0  0  0  0  0  0
  -23.7050   -8.3030   22.0630 C   0  0  0  0  0  3  0  0  0  0  0  0
  -22.5180   -8.0660   21.3300 C   0  0  0  0  0  0  0  0  0  0  0  0
  -22.0860   -9.0260   20.3990 C   0  0  0  0  0  3  0  0  0  0  0  0
  -22.8080  -10.2160   20.2090 C   0  0  0  0  0  3  0  0  0  0  0  0
  -21.7670   -6.9200   21.4270 O   0  0  0  0  0  0  0  0  0  0  0  0
  -21.6970   -6.2010   22.5930 C   0  0  0  0  0  0  0  0  0  0  0  0
  -21.2400   -6.7770   23.7980 C   0  0  0  0  0  3  0  0  0  0  0  0
  -21.1200   -5.9840   24.9570 C   0  0  0  0  0  3  0  0  0  0  0  0
  -21.4470   -4.6150   24.9100 C   0  0  0  0  0  0  0  0  0  0  0  0
  -21.8960   -4.0380   23.7100 C   0  0  0  0  0  3  0  0  0  0  0  0
  -22.0180   -4.8280   22.5540 C   0  0  0  0  0  0  0  0  0  0  0  0
  -22.4320   -4.2620   21.3950 F   0  0  0  0  0  0  0  0  0  0  0  0
  -21.3230   -3.8510   26.0210 F   0  0  0  0  0  0  0  0  0  0  0  0
  -22.8650  -13.5640   21.2090 C   0  0  0  0  0  0  0  0  0  0  0  0
  -22.1840  -12.8550   22.1030 N   0  0  0  0  0  0  0  0  0  0  0  0
  -22.4020  -14.5990   20.7310 O   0  0  0  0  0  0  0  0  0  0  0  0
  -22.5720  -12.0180   22.5110 H   0  0  0  0  0  0  0  0  0  0  0  0
  -21.2610  -13.1560   22.3830 H   0  0  0  0  0  0  0  0  0  0  0  0
  -25.4500  -15.2440   20.2900 N   0  0  0  0  0  0  0  0  0  0  0  0
  -24.6970  -15.8990   20.4670 H   0  0  0  0  0  0  0  0  0  0  0  0
  -26.2750  -15.6790   19.9010 H   0  0  0  0  0  0  0  0  0  0  0  0
  1  2  1  0
  1 45  2  0
  3  4  1  0
  3  2  2  0
  5 16  2  0
  6  4  1  0
  6 11  1  0
  7 15  1  0
  7 17  1  0
  8 14  1  0
  8 10  1  0
  9 15  1  0
 10 11  2  0
 10  9  1  0
 12  6  2  0
 13 12  1  0
 13  8  2  0
 14  7  1  0
 15  5  1  0
 17 19  2  0
 18 17  1  0
 20 18  1  0
 21 30  2  0
 21 26  1  0
 22 18  1  0
 22 26  1  0
 23 22  1  0
 24 25  1  0
 24 23  1  0
 25 21  1  0
 26 27  2  0
 27 28  1  0
 29 28  2  0
 30 29  1  0
 31  5  1  0
 31 36  1  0
 31 32  1  0
 32 35  1  1
 32 33  1  0
 34 32  1  0
 36 39  1  0
 37 41  1  0
 37 36  1  0
 38 37  2  0
 41 40  1  0
 43 44  1  0
 43 41  1  0
 43 42  1  0
 46 58  1  0
 47 52  1  0
 48 49  1  0
 48 47  1  0
 50 49  1  0
 50 64  1  0
 50 51  1  0
 52 46  1  0
 52 51  1  0
 53 46  2  0
 54 56  1  0
 55 57  1  0
 55 58  1  0
 57 59  1  0
 58 54  1  0
 59 45  1  0
 59 56  1  0
 59 60  1  6
 61 62  2  0
 62 81  1  0
 63 62  1  0
 63 66  1  0
 64 65  1  0
 64 61  1  0
 65 63  2  0
 66 67  1  0
 67 68  2  0
 69 72  1  0
 69 68  1  0
 70 69  2  0
 71 70  1  0
 71 66  2  0
 72 73  1  0
 73 74  1  0
 74 75  2  0
 76 75  1  0
 76 80  1  0
 77 76  2  0
 78 73  2  0
 78 77  1  0
 79 78  1  0
 81 82  1  0
 82 85  1  0
 82 84  1  0
 83 81  2  0
 86 61  1  0
 86 87  1  0
 88 86  1  0
M  ISO  4   3 101   4 101  46 100  58 100
M  END
>  <TORSDO>  (16) 
F 19

>  <SCORE>  (16) 
-13.639

>  <name>  (16) 
15

>  <ligand_id>  (16) 
15

>  <original_smiles>  (16) 
[H]c1c([H])c([H])c2c(c1[H])C([H])([H])C([H])([H])C([H])([H])C2([H])N([H])C(=O)C1([H])N(C(=O)C([H])(N([H])C(=O)C([H])(N([H])C([H])([H])[H])C([H])([H])[H])C(C([H])([H])[H])(C([H])([H])[H])C([H])([H])[H])C([H])([H])c2c([H])c(OC([H])([H])C([H])([H])C([H])([H])C([H])([H])[N+]3([H])C([H])([H])C([H])([H])N(C(=O)N4C([H])([H])C([H])([H])C([H])([H])C([H])(n5nc(-c6c([H])c([H])c(Oc7c([H])c([H])c(F)c([H])c7F)c([H])c6[H])c(C(=O)N([H])[H])c5N([H])[H])C4([H])[H])C([H])([H])C3([H])[H])c([H])c([H])c2C1([H])[H]

>  <smiles>  (16) 
[H]c1c([H])c([H])c2c(c1[H])C([H])([H])C([H])([H])C([H])([H])C2([H])N([H])C(=O)C1([H])N(C(=O)C([H])(N([H])C(=O)C([H])(N([H])C([H])([H])[H])C([H])([H])[H])C(C([H])([H])[H])(C([H])([H])[H])C([H])([H])[H])C([H])([H])c2c([H])c(OC([H])([H])C([H])([H])C([H])([H])C([H])([H])[N+]3([H])C([H])([H])C([H])([H])N(C(=O)N4C([H])([H])C([H])([H])C([H])([H])C([H])(n5nc(-c6c([H])c([H])c(Oc7c([H])c([H])c(F)c([H])c7F)c([H])c6[H])c(C(=O)N([H])[H])c5N([H])[H])C4([H])[H])C([H])([H])C3([H])[H])c([H])c([H])c2C1([H])[H]

$$$$
16:0:0
     RDKit          3D

 96104  0  0  1  0  0  0  0  0999 V2000
  -29.2230  -23.5200   18.0460 C   0  0  0  0  0  3  0  0  0  0  0  0
  -27.9910  -20.1650   19.5150 C   0  0  0  0  0  2  0  0  0  0  0  0
  -30.4000  -20.5940   20.2090 C   0  0  0  0  0  2  0  0  0  0  0  0
  -27.8530  -21.6830   19.2110 C   0  0  0  0  0  2  0  0  0  0  0  0
  -30.1240  -22.0960   19.9980 C   0  0  0  0  0  2  0  0  0  0  0  0
  -29.1090  -19.8020   20.5330 C   0  0  0  0  0  3  0  0  0  0  0  0
  -29.1780  -22.2550   18.8650 N   0  0  2  0  0  4  0  0  0  0  0  0
  -29.5330  -21.5940   18.1910 H   0  0  0  0  0  0  0  0  0  0  0  0
  -29.3000  -18.2520   20.6290 C   0  0  0  0  0  2  0  0  0  0  0  0
  -30.6720  -17.7690   21.1570 C   0  0  0  0  0  2  0  0  0  0  0  0
  -30.7120  -16.3880   21.8540 C   0  0  0  0  0  2  0  0  0  0  0  0
  -30.7160  -14.3690   20.3370 C   0  0  0  0  0  0  0  0  0  0  0  0
  -30.3630  -12.2650   19.0810 C   0  0  0  0  0  2  0  0  0  0  0  0
  -29.3850  -12.4850   17.9080 C   0  0  0  0  0  2  0  0  0  0  0  0
  -27.9180  -12.3730   18.3720 C   0  0  0  0  0  2  0  0  0  0  0  0
  -27.6290  -13.1990   19.6530 C   0  0  0  0  0  3  0  0  0  0  0  0
  -28.6980  -12.9110   20.7270 C   0  0  0  0  0  2  0  0  0  0  0  0
  -30.0140  -13.2210   20.1400 N   0  0  0  0  0  0  0  0  0  0  0  0
  -31.8120  -14.5940   19.8130 O   0  0  0  0  0  0  0  0  0  0  0  0
  -30.1070  -15.2650   21.1320 N   0  0  0  0  0  0  0  0  0  0  0  0
  -29.1810  -15.0000   21.4310 H   0  0  0  0  0  0  0  0  0  0  0  0
  -25.2550  -13.8600   20.4050 C   0  0  0  0  0  0  0  0  0  0  0  0
  -24.1790  -13.1110   20.7970 C   0  0  0  0  0  0  0  0  0  0  0  0
  -24.6110  -11.7500   20.7600 C   0  0  0  0  0  0  0  0  0  0  0  0
  -26.2770  -12.9570   20.1550 N   0  0  0  0  0  0  0  0  0  0  0  0
  -25.8950  -11.6820   20.4270 N   0  0  0  0  0  0  0  0  0  0  0  0
  -23.8650  -10.5040   20.9700 C   0  0  0  0  0  0  0  0  0  0  0  0
  -24.2990   -9.5310   21.8970 C   0  0  0  0  0  3  0  0  0  0  0  0
  -23.5540   -8.3480   22.0930 C   0  0  0  0  0  3  0  0  0  0  0  0
  -22.3620   -8.1300   21.3620 C   0  0  0  0  0  0  0  0  0  0  0  0
  -21.9480   -9.0910   20.4230 C   0  0  0  0  0  3  0  0  0  0  0  0
  -22.6920  -10.2660   20.2270 C   0  0  0  0  0  3  0  0  0  0  0  0
  -21.5880   -6.9990   21.4680 O   0  0  0  0  0  0  0  0  0  0  0  0
  -21.5510   -6.2570   22.6220 C   0  0  0  0  0  0  0  0  0  0  0  0
  -21.1670   -6.8210   23.8580 C   0  0  0  0  0  3  0  0  0  0  0  0
  -21.0750   -6.0080   25.0050 C   0  0  0  0  0  3  0  0  0  0  0  0
  -21.3570   -4.6310   24.9170 C   0  0  0  0  0  0  0  0  0  0  0  0
  -21.7340   -4.0680   23.6850 C   0  0  0  0  0  3  0  0  0  0  0  0
  -21.8270   -4.8780   22.5400 C   0  0  0  0  0  0  0  0  0  0  0  0
  -22.1710   -4.3260   21.3520 F   0  0  0  0  0  0  0  0  0  0  0  0
  -21.2610   -3.8480   26.0160 F   0  0  0  0  0  0  0  0  0  0  0  0
  -22.7970  -13.6170   21.0930 C   0  0  0  0  0  0  0  0  0  0  0  0
  -22.0720  -12.9380   21.9760 N   0  0  0  0  0  0  0  0  0  0  0  0
  -22.3690  -14.6500   20.5790 O   0  0  0  0  0  0  0  0  0  0  0  0
  -22.4290  -12.1030   22.4160 H   0  0  0  0  0  0  0  0  0  0  0  0
  -21.1430  -13.2580   22.2140 H   0  0  0  0  0  0  0  0  0  0  0  0
  -25.4450  -15.2260   20.2190 N   0  0  0  0  0  0  0  0  0  0  0  0
  -24.6940  -15.8960   20.3420 H   0  0  0  0  0  0  0  0  0  0  0  0
  -26.3000  -15.6460   19.8760 H   0  0  0  0  0  0  0  0  0  0  0  0
  -31.4790  -22.8450   16.9410 C   0  0  0  0  0  1  0  0  0  0  0  0
  -30.6720  -23.9400   17.6650 C   0  0  0  0  0  2  0  0  0  0  0  0
  -28.2790  -24.7170   18.4540 C   0  0  0  0  0  3  0  0  0  0  0  0
  -27.8930  -25.4250   15.9680 C   0  0  0  0  0  1  0  0  0  0  0  0
  -28.2980  -25.8550   17.3870 C   0  0  0  0  0  2  0  0  0  0  0  0
  -28.4730  -25.2710   19.9030 C   0  0  0  0  0  2  0  0  0  0  0  0
  -28.4060  -26.7000   20.1010 O   0  0  0  0  0  0  0  0  0  0  0  0
  -24.5910  -31.8620   23.2320 C   0  0  0  0  0  0  0  0  0  0  0  0
  -27.1960  -27.3720   20.1680 C   0  0  0  0  0  0  0  0  0  0  0  0
  -23.3700  -30.4590   21.6050 C   0  0  0  0  0  3  0  0  0  0  0  0
  -24.8040  -28.8960   20.1970 C   0  0  0  0  0  0  0  0  0  0  0  0
  -25.8990  -30.7980   21.3920 C   0  0  0  0  0  2  0  0  0  0  0  0
  -25.9720  -29.4210   20.7600 C   0  0  0  0  0  0  0  0  0  0  0  0
  -27.1710  -28.6710   20.7300 C   0  0  0  0  0  3  0  0  0  0  0  0
  -25.9900  -26.8460   19.6500 C   0  0  0  0  0  3  0  0  0  0  0  0
  -24.8060  -27.6060   19.6430 C   0  0  0  0  0  3  0  0  0  0  0  0
  -23.5680  -29.7680   20.2300 C   0  0  0  0  0  2  0  0  0  0  0  0
  -24.6390  -31.0540   22.1340 N   0  0  0  0  0  0  0  0  0  0  0  0
  -23.5160  -32.1450   23.7760 O   0  0  0  0  0  0  0  0  0  0  0  0
  -22.7170  -29.4460   22.5720 C   0  0  0  0  0  0  0  0  0  0  0  0
  -21.3920  -29.2660   22.4440 N   0  0  0  0  0  0  0  0  0  0  0  0
  -23.3990  -28.8250   23.3930 O   0  0  0  0  0  0  0  0  0  0  0  0
  -20.9040  -29.8220   21.7550 H   0  0  0  0  0  0  0  0  0  0  0  0
  -18.0180  -28.0760   22.9410 C   0  0  0  0  0  0  0  0  0  0  0  0
  -20.5740  -28.3360   23.2220 C   0  0  0  0  0  3  0  0  0  0  0  0
  -20.6800  -26.8980   22.6650 C   0  0  0  0  0  2  0  0  0  0  0  0
  -19.5820  -26.5640   21.6480 C   0  0  0  0  0  2  0  0  0  0  0  0
  -18.1970  -26.7180   22.2840 C   0  0  0  0  0  2  0  0  0  0  0  0
  -19.1340  -28.8410   23.3690 C   0  0  0  0  0  0  0  0  0  0  0  0
  -18.9130  -30.1120   23.9420 C   0  0  0  0  0  3  0  0  0  0  0  0
  -17.6080  -30.6180   24.0910 C   0  0  0  0  0  3  0  0  0  0  0  0
  -16.5040  -29.8480   23.6820 C   0  0  0  0  0  3  0  0  0  0  0  0
  -16.7110  -28.5800   23.1130 C   0  0  0  0  0  3  0  0  0  0  0  0
  -25.8860  -32.4870   23.8410 C   0  0  0  0  0  3  0  0  0  0  0  0
  -25.5850  -33.8870   24.1720 N   0  0  0  0  0  0  0  0  0  0  0  0
  -25.9140  -34.9360   23.4070 C   0  0  0  0  0  0  0  0  0  0  0  0
  -26.5760  -34.8270   22.3710 O   0  0  0  0  0  0  0  0  0  0  0  0
  -24.9890  -34.0440   24.9710 H   0  0  0  0  0  0  0  0  0  0  0  0
  -24.1860  -36.7330   23.0650 C   0  0  0  0  0  1  0  0  0  0  0  0
  -25.4340  -36.3250   23.8650 C   0  0  0  0  0  3  0  0  0  0  0  0
  -27.5770  -37.2050   24.6800 C   0  0  0  0  0  1  0  0  0  0  0  0
  -26.4680  -37.3760   23.7440 N   0  0  0  0  0  0  0  0  0  0  0  0
  -26.0640  -38.2950   23.9020 H   0  0  0  0  0  0  0  0  0  0  0  0
  -26.4110  -31.7140   25.1120 C   0  0  1  0  0  0  0  0  0  0  0  0
  -25.3250  -31.4750   26.1870 C   0  0  0  0  0  1  0  0  0  0  0  0
  -26.9890  -30.3350   24.7130 C   0  0  0  0  0  1  0  0  0  0  0  0
  -27.5680  -32.5060   25.7690 C   0  0  0  0  0  1  0  0  0  0  0  0
  1 51  1  0
  1 52  1  0
  1  7  1  0
  2  6  1  0
  3  6  1  0
  4  2  1  0
  5  3  1  0
  6  9  1  0
  7  4  1  0
  7  5  1  0
  7  8  1  6
  9 10  1  0
 10 11  1  0
 12 20  1  0
 13 18  1  0
 14 15  1  0
 14 13  1  0
 16 15  1  0
 16 25  1  0
 16 17  1  0
 18 12  1  0
 18 17  1  0
 19 12  2  0
 20 21  1  0
 20 11  1  0
 22 23  2  0
 23 42  1  0
 24 23  1  0
 24 27  1  0
 25 22  1  0
 25 26  1  0
 26 24  2  0
 27 28  1  0
 28 29  2  0
 30 33  1  0
 30 29  1  0
 31 30  2  0
 32 31  1  0
 32 27  2  0
 33 34  1  0
 34 35  1  0
 35 36  2  0
 37 36  1  0
 37 41  1  0
 38 37  2  0
 39 34  2  0
 39 38  1  0
 40 39  1  0
 42 43  1  0
 43 46  1  0
 43 45  1  0
 44 42  2  0
 47 48  1  0
 47 22  1  0
 49 47  1  0
 50 51  1  0
 52 54  1  0
 52 55  1  0
 53 54  1  0
 55 56  1  0
 56 58  1  0
 57 68  2  0
 58 63  1  0
 59 67  1  0
 59 69  1  0
 60 66  1  0
 60 62  1  0
 61 67  1  0
 62 61  1  0
 63 62  2  0
 64 58  2  0
 65 64  1  0
 65 60  2  0
 66 59  1  0
 67 57  1  0
 69 71  2  0
 70 69  1  0
 72 70  1  0
 73 82  2  0
 73 78  1  0
 74 70  1  0
 74 78  1  0
 75 74  1  0
 76 77  1  0
 76 75  1  0
 77 73  1  0
 78 79  2  0
 79 80  1  0
 81 80  2  0
 82 81  1  0
 83 57  1  0
 83 84  1  0
 83 93  1  0
 84 87  1  0
 85 89  1  0
 85 84  1  0
 86 85  2  0
 89 88  1  0
 91 89  1  0
 91 92  1  0
 91 90  1  0
 93 96  1  1
 93 94  1  0
 95 93  1  0
M  ISO  4  12 100  20 100  55 101  56 101
M  END
>  <TORSDO>  (17) 
F 24

>  <SCORE>  (17) 
-12.658

>  <name>  (17) 
16

>  <ligand_id>  (17) 
16

>  <original_smiles>  (17) 
[H]c1c([H])c([H])c2c(c1[H])C([H])([H])C([H])([H])C([H])([H])C2([H])N([H])C(=O)C1([H])N(C(=O)C([H])(N([H])C(=O)C([H])(N([H])C([H])([H])[H])C([H])([H])[H])C(C([H])([H])[H])(C([H])([H])[H])C([H])([H])[H])C([H])([H])c2c([H])c(OC([H])([H])C([H])(C([H])([H])C([H])([H])[H])C([H])(C([H])([H])C([H])([H])[H])[N+]3([H])C([H])([H])C([H])([H])C([H])(C([H])([H])C([H])([H])C([H])([H])N([H])C(=O)N4C([H])([H])C([H])([H])C([H])([H])C([H])(n5nc(-c6c([H])c([H])c(Oc7c([H])c([H])c(F)c([H])c7F)c([H])c6[H])c(C(=O)N([H])[H])c5N([H])[H])C4([H])[H])C([H])([H])C3([H])[H])c([H])c([H])c2C1([H])[H]

>  <smiles>  (17) 
[H]c1c([H])c([H])c2c(c1[H])C([H])([H])C([H])([H])C([H])([H])C2([H])N([H])C(=O)C1([H])N(C(=O)C([H])(N([H])C(=O)C([H])(N([H])C([H])([H])[H])C([H])([H])[H])C(C([H])([H])[H])(C([H])([H])[H])C([H])([H])[H])C([H])([H])c2c([H])c(OC([H])([H])C([H])(C([H])([H])C([H])([H])[H])C([H])(C([H])([H])C([H])([H])[H])[N+]3([H])C([H])([H])C([H])([H])C([H])(C([H])([H])C([H])([H])C([H])([H])N([H])C(=O)N4C([H])([H])C([H])([H])C([H])([H])C([H])(n5nc(-c6c([H])c([H])c(Oc7c([H])c([H])c(F)c([H])c7F)c([H])c6[H])c(C(=O)N([H])[H])c5N([H])[H])C4([H])[H])C([H])([H])C3([H])[H])c([H])c([H])c2C1([H])[H]

$$$$
17:0:0
     RDKit          3D

100108  0  0  1  0  0  0  0  0999 V2000
  -30.6380  -18.3750   21.2740 C   0  0  0  0  0  0  0  0  0  0  0  0
  -30.8290  -20.7260   22.1210 C   0  0  0  0  0  2  0  0  0  0  0  0
  -28.8840  -20.2310   20.7540 C   0  0  0  0  0  2  0  0  0  0  0  0
  -30.9090  -22.1510   21.4910 C   0  0  0  0  0  2  0  0  0  0  0  0
  -28.8820  -21.7380   20.2420 C   0  0  0  0  0  2  0  0  0  0  0  0
  -30.1690  -19.6910   21.2830 N   0  0  0  0  0  0  0  0  0  0  0  0
  -29.5850  -22.7290   21.1240 N   0  0  2  0  0  4  0  0  0  0  0  0
  -31.6840  -18.0840   21.8590 O   0  0  0  0  0  0  0  0  0  0  0  0
  -29.0600  -22.7800   21.9870 H   0  0  0  0  0  0  0  0  0  0  0  0
  -29.7070  -24.1690   20.6040 C   0  0  0  0  0  3  0  0  0  0  0  0
  -28.4150  -25.0870   20.5600 C   0  0  0  0  0  3  0  0  0  0  0  0
  -28.6040  -26.5370   20.2950 O   0  0  0  0  0  0  0  0  0  0  0  0
  -24.6860  -31.8580   23.1980 C   0  0  0  0  0  0  0  0  0  0  0  0
  -27.4610  -27.3490   20.2330 C   0  0  0  0  0  0  0  0  0  0  0  0
  -23.5470  -30.4310   21.5360 C   0  0  0  0  0  3  0  0  0  0  0  0
  -25.0620  -28.9030   20.1550 C   0  0  0  0  0  0  0  0  0  0  0  0
  -26.0820  -30.8010   21.4100 C   0  0  0  0  0  2  0  0  0  0  0  0
  -26.2050  -29.4230   20.7740 C   0  0  0  0  0  0  0  0  0  0  0  0
  -27.4100  -28.6580   20.8020 C   0  0  0  0  0  3  0  0  0  0  0  0
  -26.2960  -26.8880   19.5770 C   0  0  0  0  0  3  0  0  0  0  0  0
  -25.1100  -27.6400   19.5470 C   0  0  0  0  0  3  0  0  0  0  0  0
  -23.8040  -29.7490   20.1660 C   0  0  0  0  0  2  0  0  0  0  0  0
  -24.7890  -31.0480   22.1050 N   0  0  0  0  0  0  0  0  0  0  0  0
  -23.5860  -32.1190   23.7050 O   0  0  0  0  0  0  0  0  0  0  0  0
  -22.8830  -29.4060   22.4860 C   0  0  0  0  0  0  0  0  0  0  0  0
  -21.5660  -29.1910   22.3190 N   0  0  0  0  0  0  0  0  0  0  0  0
  -23.5500  -28.8060   23.3330 O   0  0  0  0  0  0  0  0  0  0  0  0
  -21.0850  -29.7300   21.6150 H   0  0  0  0  0  0  0  0  0  0  0  0
  -18.2000  -27.9400   22.7530 C   0  0  0  0  0  0  0  0  0  0  0  0
  -20.7480  -28.2410   23.0740 C   0  0  0  0  0  3  0  0  0  0  0  0
  -20.8820  -26.8090   22.5040 C   0  0  0  0  0  2  0  0  0  0  0  0
  -19.8070  -26.4680   21.4680 C   0  0  0  0  0  2  0  0  0  0  0  0
  -18.4110  -26.5920   22.0830 C   0  0  0  0  0  2  0  0  0  0  0  0
  -19.2980  -28.7200   23.2050 C   0  0  0  0  0  0  0  0  0  0  0  0
  -19.0470  -29.9790   23.7920 C   0  0  0  0  0  3  0  0  0  0  0  0
  -17.7310  -30.4600   23.9290 C   0  0  0  0  0  3  0  0  0  0  0  0
  -16.6480  -29.6780   23.4930 C   0  0  0  0  0  3  0  0  0  0  0  0
  -16.8830  -28.4180   22.9120 C   0  0  0  0  0  3  0  0  0  0  0  0
  -25.9440  -32.5170   23.8460 C   0  0  0  0  0  3  0  0  0  0  0  0
  -25.5960  -33.9070   24.1730 N   0  0  0  0  0  0  0  0  0  0  0  0
  -25.9240  -34.9700   23.4260 C   0  0  0  0  0  0  0  0  0  0  0  0
  -26.6200  -34.8850   22.4110 O   0  0  0  0  0  0  0  0  0  0  0  0
  -24.9760  -34.0440   24.9570 H   0  0  0  0  0  0  0  0  0  0  0  0
  -24.1740  -36.7340   23.0250 C   0  0  0  0  0  1  0  0  0  0  0  0
  -25.3950  -36.3460   23.8760 C   0  0  0  0  0  3  0  0  0  0  0  0
  -27.4880  -37.2610   24.7780 C   0  0  0  0  0  1  0  0  0  0  0  0
  -26.4090  -37.4190   23.8040 N   0  0  0  0  0  0  0  0  0  0  0  0
  -25.9820  -38.3300   23.9490 H   0  0  0  0  0  0  0  0  0  0  0  0
  -26.4510  -31.7550   25.1320 C   0  0  1  0  0  0  0  0  0  0  0  0
  -25.3330  -31.4460   26.1530 C   0  0  0  0  0  1  0  0  0  0  0  0
  -27.1230  -30.4150   24.7490 C   0  0  0  0  0  1  0  0  0  0  0  0
  -27.5330  -32.5980   25.8490 C   0  0  0  0  0  1  0  0  0  0  0  0
  -29.9130  -17.1620   20.5650 C   0  0  0  0  0  0  0  0  0  0  0  0
  -30.9850  -14.7310   20.5220 C   0  0  0  0  0  0  0  0  0  0  0  0
  -30.8150  -12.5090   19.4030 C   0  0  0  0  0  2  0  0  0  0  0  0
  -29.9020  -12.6800   18.1660 C   0  0  0  0  0  2  0  0  0  0  0  0
  -28.4150  -12.5260   18.5490 C   0  0  0  0  0  2  0  0  0  0  0  0
  -28.0440  -13.3580   19.8050 C   0  0  0  0  0  3  0  0  0  0  0  0
  -29.0650  -13.1400   20.9450 C   0  0  0  0  0  2  0  0  0  0  0  0
  -30.3950  -13.4950   20.4220 N   0  0  0  0  0  0  0  0  0  0  0  0
  -32.0980  -14.9510   20.0360 O   0  0  0  0  0  0  0  0  0  0  0  0
  -30.1810  -15.7300   21.0060 N   0  0  0  0  0  4  0  0  0  0  0  0
  -29.4230  -15.3480   21.5510 H   0  0  0  0  0  0  0  0  0  0  0  0
  -25.6440  -13.9980   20.4500 C   0  0  0  0  0  0  0  0  0  0  0  0
  -24.5490  -13.2410   20.7670 C   0  0  0  0  0  0  0  0  0  0  0  0
  -24.9890  -11.8830   20.7470 C   0  0  0  0  0  0  0  0  0  0  0  0
  -26.6770  -13.1000   20.2440 N   0  0  0  0  0  0  0  0  0  0  0  0
  -26.2890  -11.8240   20.4790 N   0  0  0  0  0  0  0  0  0  0  0  0
  -24.2400  -10.6310   20.9100 C   0  0  0  0  0  0  0  0  0  0  0  0
  -24.5960   -9.6810   21.8920 C   0  0  0  0  0  3  0  0  0  0  0  0
  -23.8500   -8.4920   22.0420 C   0  0  0  0  0  3  0  0  0  0  0  0
  -22.7300   -8.2480   21.2100 C   0  0  0  0  0  0  0  0  0  0  0  0
  -22.3920   -9.1890   20.2210 C   0  0  0  0  0  3  0  0  0  0  0  0
  -23.1410  -10.3680   20.0680 C   0  0  0  0  0  3  0  0  0  0  0  0
  -21.9620   -7.1090   21.2660 O   0  0  0  0  0  0  0  0  0  0  0  0
  -21.7750   -6.4260   22.4400 C   0  0  0  0  0  0  0  0  0  0  0  0
  -21.2080   -7.0400   23.5780 C   0  0  0  0  0  3  0  0  0  0  0  0
  -20.9650   -6.2810   24.7390 C   0  0  0  0  0  3  0  0  0  0  0  0
  -21.2810   -4.9110   24.7650 C   0  0  0  0  0  0  0  0  0  0  0  0
  -21.8430   -4.2960   23.6320 C   0  0  0  0  0  3  0  0  0  0  0  0
  -22.0840   -5.0500   22.4720 C   0  0  0  0  0  0  0  0  0  0  0  0
  -22.6030   -4.4480   21.3760 F   0  0  0  0  0  0  0  0  0  0  0  0
  -21.0440   -4.1800   25.8810 F   0  0  0  0  0  0  0  0  0  0  0  0
  -23.1540  -13.7410   21.0090 C   0  0  0  0  0  0  0  0  0  0  0  0
  -22.4040  -13.0720   21.8770 N   0  0  0  0  0  0  0  0  0  0  0  0
  -22.7450  -14.7660   20.4670 O   0  0  0  0  0  0  0  0  0  0  0  0
  -22.7490  -12.2450   22.3420 H   0  0  0  0  0  0  0  0  0  0  0  0
  -21.4670  -13.3920   22.0800 H   0  0  0  0  0  0  0  0  0  0  0  0
  -25.8580  -15.3700   20.3170 N   0  0  0  0  0  0  0  0  0  0  0  0
  -26.4830  -15.6560   21.0600 H   0  0  0  0  0  0  0  0  0  0  0  0
  -24.9720  -15.8440   20.4710 H   0  0  0  0  0  0  0  0  0  0  0  0
  -29.7920  -17.2770   19.0170 C   0  0  0  0  0  2  0  0  0  0  0  0
  -28.6790  -18.1730   18.6030 N   0  0  0  0  0  4  0  0  0  0  0  0
  -27.8270  -17.6490   18.4640 H   0  0  0  0  0  0  0  0  0  0  0  0
  -28.4880  -18.8390   19.3330 H   0  0  0  0  0  0  0  0  0  0  0  0
  -28.9290  -18.9530   17.3760 C   0  0  0  0  0  2  0  0  0  0  0  0
  -28.0970  -20.2490   17.3780 C   0  0  0  0  0  2  0  0  0  0  0  0
  -28.5040  -21.1350   16.3010 N   0  0  0  0  0  0  0  0  0  0  0  0
  -29.4630  -21.4340   16.4570 H   0  0  0  0  0  0  0  0  0  0  0  0
  -27.9710  -21.9990   16.3690 H   0  0  0  0  0  0  0  0  0  0  0  0
  1  6  1  0
  1  8  2  0
  3  6  1  0
  4  2  1  0
  5  3  1  0
  5  7  1  0
  6  2  1  0
  7  4  1  0
  7  9  1  1
 10  7  1  0
 11 10  2  0
 12 11  1  0
 13 24  2  0
 14 12  1  0
 14 19  1  0
 15 23  1  0
 15 25  1  0
 16 22  1  0
 16 18  1  0
 17 23  1  0
 18 19  2  0
 18 17  1  0
 20 14  2  0
 21 20  1  0
 21 16  2  0
 22 15  1  0
 23 13  1  0
 25 27  2  0
 26 25  1  0
 28 26  1  0
 29 38  2  0
 29 34  1  0
 30 26  1  0
 30 34  1  0
 31 30  1  0
 32 33  1  0
 32 31  1  0
 33 29  1  0
 34 35  2  0
 35 36  1  0
 37 36  2  0
 38 37  1  0
 39 13  1  0
 39 40  1  0
 39 49  1  0
 40 43  1  0
 41 45  1  0
 41 40  1  0
 42 41  2  0
 45 44  1  0
 47 45  1  0
 47 48  1  0
 47 46  1  0
 49 52  1  1
 49 50  1  0
 51 49  1  0
 53 62  2  3
 53  1  1  0
 54 62  1  0
 55 60  1  0
 56 57  1  0
 56 55  1  0
 58 57  1  0
 58 67  1  0
 58 59  1  0
 60 54  1  0
 60 59  1  0
 61 54  2  0
 62 63  1  0
 64 65  2  0
 65 84  1  0
 66 65  1  0
 66 69  1  0
 67 64  1  0
 67 68  1  0
 68 66  2  0
 69 70  1  0
 70 71  2  0
 72 75  1  0
 72 71  1  0
 73 72  2  0
 74 73  1  0
 74 69  2  0
 75 76  1  0
 76 81  2  0
 76 77  1  0
 77 78  2  0
 78 79  1  0
 79 83  1  0
 80 79  2  0
 81 80  1  0
 82 81  1  0
 84 85  1  0
 85 88  1  0
 85 87  1  0
 86 84  2  0
 89 64  1  0
 89 91  1  0
 89 90  1  0
 92 53  1  0
 93 92  1  0
 93 95  1  0
 94 93  1  0
 96 97  1  0
 96 93  1  0
 98100  1  0
 98 99  1  0
 98 97  1  0
M  ISO  4  11 101  12 101  54 100  62 100
M  END
>  <TORSDO>  (18) 
F 24

>  <SCORE>  (18) 
-12.645

>  <name>  (18) 
17

>  <ligand_id>  (18) 
17

>  <original_smiles>  (18) 
[H]c1c([H])c([H])c2c(c1[H])C([H])([H])C([H])([H])C([H])([H])C2([H])N([H])C(=O)C1([H])N(C(=O)C([H])(N([H])C(=O)C([H])(N([H])C([H])([H])[H])C([H])([H])[H])C(C([H])([H])[H])(C([H])([H])[H])C([H])([H])[H])C([H])([H])c2c([H])c(OC([H])([H])C([H])([H])[N+]3([H])C([H])([H])C([H])([H])N(C(=O)C([H])(N([H])C(=O)N4C([H])([H])C([H])([H])C([H])([H])C([H])(n5nc(-c6c([H])c([H])c(Oc7c([H])c([H])c(F)c([H])c7F)c([H])c6[H])c(C(=O)N([H])[H])c5N([H])[H])C4([H])[H])C([H])([H])[N+]([H])([H])C([H])([H])C([H])([H])N([H])[H])C([H])([H])C3([H])[H])c([H])c([H])c2C1([H])[H]

>  <smiles>  (18) 
[H]c1c([H])c([H])c2c(c1[H])C([H])([H])C([H])([H])C([H])([H])C2([H])N([H])C(=O)C1([H])N(C(=O)C([H])(N([H])C(=O)C([H])(N([H])C([H])([H])[H])C([H])([H])[H])C(C([H])([H])[H])(C([H])([H])[H])C([H])([H])[H])C([H])([H])c2c([H])c(OC([H])([H])C([H])([H])[N+]3([H])C([H])([H])C([H])([H])N(C(=O)C([H])(N([H])C(=O)N4C([H])([H])C([H])([H])C([H])([H])C([H])(n5nc(-c6c([H])c([H])c(Oc7c([H])c([H])c(F)c([H])c7F)c([H])c6[H])c(C(=O)N([H])[H])c5N([H])[H])C4([H])[H])C([H])([H])[N+]([H])([H])C([H])([H])C([H])([H])N([H])[H])C([H])([H])C3([H])[H])c([H])c([H])c2C1([H])[H]

$$$$
18:0:0
     RDKit          3D

 88 96  0  0  1  0  0  0  0  0999 V2000
  -28.6900  -21.9820   20.0600 C   0  0  0  0  0  3  0  0  0  0  0  0
  -28.9810  -23.5510   20.5020 C   0  0  0  0  0  3  0  0  0  0  0  0
  -28.0320  -24.8100   20.0310 C   0  0  0  0  0  3  0  0  0  0  0  0
  -28.2760  -26.2830   20.3540 O   0  0  0  0  0  0  0  0  0  0  0  0
  -24.6400  -31.8750   23.3260 C   0  0  0  0  0  0  0  0  0  0  0  0
  -27.2120  -27.2300   20.2670 C   0  0  0  0  0  0  0  0  0  0  0  0
  -23.4370  -30.4980   21.6710 C   0  0  0  0  0  3  0  0  0  0  0  0
  -24.8830  -28.9390   20.2370 C   0  0  0  0  0  0  0  0  0  0  0  0
  -25.9890  -30.7690   21.5150 C   0  0  0  0  0  2  0  0  0  0  0  0
  -26.0580  -29.3880   20.8550 C   0  0  0  0  0  0  0  0  0  0  0  0
  -27.2230  -28.5460   20.8580 C   0  0  0  0  0  3  0  0  0  0  0  0
  -26.0170  -26.8720   19.6000 C   0  0  0  0  0  3  0  0  0  0  0  0
  -24.8720  -27.6920   19.5960 C   0  0  0  0  0  3  0  0  0  0  0  0
  -23.6570  -29.8330   20.2870 C   0  0  0  0  0  2  0  0  0  0  0  0
  -24.7080  -31.0670   22.2270 N   0  0  0  0  0  0  0  0  0  0  0  0
  -23.5550  -32.1590   23.8550 O   0  0  0  0  0  0  0  0  0  0  0  0
  -22.7560  -29.4820   22.6220 C   0  0  0  0  0  0  0  0  0  0  0  0
  -21.4300  -29.3120   22.4830 N   0  0  0  0  0  0  0  0  0  0  0  0
  -23.4230  -28.8510   23.4470 O   0  0  0  0  0  0  0  0  0  0  0  0
  -20.9500  -29.8740   21.7930 H   0  0  0  0  0  0  0  0  0  0  0  0
  -18.0430  -28.1190   22.9500 C   0  0  0  0  0  0  0  0  0  0  0  0
  -20.5990  -28.3740   23.2440 C   0  0  0  0  0  3  0  0  0  0  0  0
  -20.7040  -26.9430   22.6660 C   0  0  0  0  0  2  0  0  0  0  0  0
  -19.6120  -26.6250   21.6400 C   0  0  0  0  0  2  0  0  0  0  0  0
  -18.2240  -26.7710   22.2720 C   0  0  0  0  0  2  0  0  0  0  0  0
  -19.1590  -28.8780   23.3910 C   0  0  0  0  0  0  0  0  0  0  0  0
  -18.9360  -30.1390   23.9870 C   0  0  0  0  0  3  0  0  0  0  0  0
  -17.6300  -30.6410   24.1420 C   0  0  0  0  0  3  0  0  0  0  0  0
  -16.5290  -29.8790   23.7170 C   0  0  0  0  0  3  0  0  0  0  0  0
  -16.7360  -28.6190   23.1250 C   0  0  0  0  0  3  0  0  0  0  0  0
  -25.9220  -32.4960   23.9600 C   0  0  0  0  0  3  0  0  0  0  0  0
  -26.4040  -31.7360   25.2570 C   0  0  1  0  0  0  0  0  0  0  0  0
  -25.2900  -31.5340   26.3110 C   0  0  0  0  0  1  0  0  0  0  0  0
  -26.9700  -30.3420   24.9020 C   0  0  0  0  0  1  0  0  0  0  0  0
  -27.5570  -32.5200   25.9270 C   0  0  0  0  0  1  0  0  0  0  0  0
  -25.6300  -33.9040   24.2680 N   0  0  0  0  0  0  0  0  0  0  0  0
  -25.9690  -34.9420   23.4910 C   0  0  0  0  0  0  0  0  0  0  0  0
  -26.6300  -34.8140   22.4570 O   0  0  0  0  0  0  0  0  0  0  0  0
  -25.0430  -34.0780   25.0710 H   0  0  0  0  0  0  0  0  0  0  0  0
  -24.2510  -36.7460   23.1340 C   0  0  0  0  0  1  0  0  0  0  0  0
  -25.5030  -36.3440   23.9300 C   0  0  0  0  0  3  0  0  0  0  0  0
  -27.6590  -37.2260   24.7040 C   0  0  0  0  0  1  0  0  0  0  0  0
  -26.5400  -37.3870   23.7810 N   0  0  0  0  0  0  0  0  0  0  0  0
  -26.1430  -38.3120   23.9210 H   0  0  0  0  0  0  0  0  0  0  0  0
  -29.5990  -20.7270   20.6170 C   0  0  0  0  0  3  0  0  0  0  0  0
  -30.6540  -14.8440   19.9900 C   0  0  0  0  0  0  0  0  0  0  0  0
  -30.3760  -12.5560   18.9900 C   0  0  0  0  0  2  0  0  0  0  0  0
  -29.3810  -12.6020   17.8110 C   0  0  0  0  0  2  0  0  0  0  0  0
  -27.9400  -12.4130   18.3200 C   0  0  0  0  0  2  0  0  0  0  0  0
  -27.6220  -13.3000   19.5550 C   0  0  0  0  0  3  0  0  0  0  0  0
  -28.7410  -13.2540   20.6170 C   0  0  0  0  0  2  0  0  0  0  0  0
  -29.9880  -13.6320   19.9410 N   0  0  0  0  0  0  0  0  0  0  0  0
  -31.8290  -14.8670   19.6090 O   0  0  0  0  0  0  0  0  0  0  0  0
  -29.2090  -16.6910   21.1320 C   0  0  0  0  0  2  0  0  0  0  0  0
  -30.0440  -17.0700   18.8840 C   0  0  0  0  0  2  0  0  0  0  0  0
  -29.4290  -18.2550   21.4200 C   0  0  0  0  0  2  0  0  0  0  0  0
  -30.2310  -18.6240   19.2120 C   0  0  0  0  0  2  0  0  0  0  0  0
  -29.9370  -16.0610   19.9930 N   0  0  0  0  0  0  0  0  0  0  0  0
  -29.3330  -19.2190   20.2590 N   0  0  2  0  0  4  0  0  0  0  0  0
  -28.3840  -19.1650   19.9200 H   0  0  0  0  0  0  0  0  0  0  0  0
  -25.2880  -13.8690   20.4410 C   0  0  0  0  0  0  0  0  0  0  0  0
  -24.2420  -13.0880   20.8500 C   0  0  0  0  0  0  0  0  0  0  0  0
  -24.6980  -11.7380   20.7580 C   0  0  0  0  0  0  0  0  0  0  0  0
  -26.3110  -12.9950   20.1190 N   0  0  0  0  0  0  0  0  0  0  0  0
  -25.9690  -11.7050   20.3740 N   0  0  0  0  0  0  0  0  0  0  0  0
  -23.9760  -10.4720   20.9550 C   0  0  0  0  0  0  0  0  0  0  0  0
  -24.4270   -9.5010   21.8770 C   0  0  0  0  0  3  0  0  0  0  0  0
  -23.7050   -8.3030   22.0630 C   0  0  0  0  0  3  0  0  0  0  0  0
  -22.5180   -8.0660   21.3300 C   0  0  0  0  0  0  0  0  0  0  0  0
  -22.0860   -9.0260   20.3990 C   0  0  0  0  0  3  0  0  0  0  0  0
  -22.8080  -10.2160   20.2090 C   0  0  0  0  0  3  0  0  0  0  0  0
  -21.7670   -6.9200   21.4270 O   0  0  0  0  0  0  0  0  0  0  0  0
  -21.6970   -6.2010   22.5930 C   0  0  0  0  0  0  0  0  0  0  0  0
  -21.2400   -6.7770   23.7980 C   0  0  0  0  0  3  0  0  0  0  0  0
  -21.1200   -5.9840   24.9570 C   0  0  0  0  0  3  0  0  0  0  0  0
  -21.4470   -4.6150   24.9100 C   0  0  0  0  0  0  0  0  0  0  0  0
  -21.8960   -4.0380   23.7100 C   0  0  0  0  0  3  0  0  0  0  0  0
  -22.0180   -4.8280   22.5540 C   0  0  0  0  0  0  0  0  0  0  0  0
  -22.4320   -4.2620   21.3950 F   0  0  0  0  0  0  0  0  0  0  0  0
  -21.3230   -3.8510   26.0210 F   0  0  0  0  0  0  0  0  0  0  0  0
  -22.8650  -13.5640   21.2090 C   0  0  0  0  0  0  0  0  0  0  0  0
  -22.1840  -12.8550   22.1030 N   0  0  0  0  0  0  0  0  0  0  0  0
  -22.4020  -14.5990   20.7310 O   0  0  0  0  0  0  0  0  0  0  0  0
  -22.5720  -12.0180   22.5110 H   0  0  0  0  0  0  0  0  0  0  0  0
  -21.2610  -13.1560   22.3830 H   0  0  0  0  0  0  0  0  0  0  0  0
  -25.4500  -15.2440   20.2900 N   0  0  0  0  0  0  0  0  0  0  0  0
  -24.6970  -15.8990   20.4670 H   0  0  0  0  0  0  0  0  0  0  0  0
  -26.2750  -15.6790   19.9010 H   0  0  0  0  0  0  0  0  0  0  0  0
  1  2  1  0
  1 45  2  0
  3  4  1  0
  3  2  2  0
  5 16  2  0
  6  4  1  0
  6 11  1  0
  7 15  1  0
  7 17  1  0
  8 14  1  0
  8 10  1  0
  9 15  1  0
 10 11  2  0
 10  9  1  0
 12  6  2  0
 13 12  1  0
 13  8  2  0
 14  7  1  0
 15  5  1  0
 17 19  2  0
 18 17  1  0
 20 18  1  0
 21 30  2  0
 21 26  1  0
 22 18  1  0
 22 26  1  0
 23 22  1  0
 24 25  1  0
 24 23  1  0
 25 21  1  0
 26 27  2  0
 27 28  1  0
 29 28  2  0
 30 29  1  0
 31  5  1  0
 31 36  1  0
 31 32  1  0
 32 35  1  1
 32 33  1  0
 34 32  1  0
 36 39  1  0
 37 41  1  0
 37 36  1  0
 38 37  2  0
 41 40  1  0
 43 44  1  0
 43 41  1  0
 43 42  1  0
 46 58  1  0
 47 52  1  0
 48 49  1  0
 48 47  1  0
 50 49  1  0
 50 64  1  0
 50 51  1  0
 52 46  1  0
 52 51  1  0
 53 46  2  0
 54 56  1  0
 55 57  1  0
 55 58  1  0
 57 59  1  0
 58 54  1  0
 59 45  1  0
 59 56  1  0
 59 60  1  6
 61 62  2  0
 62 81  1  0
 63 62  1  0
 63 66  1  0
 64 65  1  0
 64 61  1  0
 65 63  2  0
 66 67  1  0
 67 68  2  0
 69 72  1  0
 69 68  1  0
 70 69  2  0
 71 70  1  0
 71 66  2  0
 72 73  1  0
 73 74  1  0
 74 75  2  0
 76 75  1  0
 76 80  1  0
 77 76  2  0
 78 73  2  0
 78 77  1  0
 79 78  1  0
 81 82  1  0
 82 85  1  0
 82 84  1  0
 83 81  2  0
 86 61  1  0
 86 87  1  0
 88 86  1  0
M  ISO  4   3 101   4 101  46 100  58 100
M  END
>  <TORSDO>  (19) 
F 19

>  <SCORE>  (19) 
-13.639

>  <name>  (19) 
18

>  <ligand_id>  (19) 
18

>  <original_smiles>  (19) 
[H]c1c([H])c([H])c2c(c1[H])C([H])([H])C([H])([H])C([H])([H])C2([H])N([H])C(=O)C1([H])N(C(=O)C([H])(N([H])C(=O)C([H])(N([H])C([H])([H])[H])C([H])([H])[H])C(C([H])([H])[H])(C([H])([H])[H])C([H])([H])[H])C([H])([H])c2c([H])c(OC([H])([H])C([H])([H])C([H])([H])C([H])([H])[N+]3([H])C([H])([H])C([H])([H])N(C(=O)N4C([H])([H])C([H])([H])C([H])([H])C([H])(n5nc(-c6c([H])c([H])c(Oc7c([H])c([H])c(F)c([H])c7F)c([H])c6[H])c(C(=O)N([H])[H])c5N([H])[H])C4([H])[H])C([H])([H])C3([H])[H])c([H])c([H])c2C1([H])[H]

>  <smiles>  (19) 
[H]c1c([H])c([H])c2c(c1[H])C([H])([H])C([H])([H])C([H])([H])C2([H])N([H])C(=O)C1([H])N(C(=O)C([H])(N([H])C(=O)C([H])(N([H])C([H])([H])[H])C([H])([H])[H])C(C([H])([H])[H])(C([H])([H])[H])C([H])([H])[H])C([H])([H])c2c([H])c(OC([H])([H])C([H])([H])C([H])([H])C([H])([H])[N+]3([H])C([H])([H])C([H])([H])N(C(=O)N4C([H])([H])C([H])([H])C([H])([H])C([H])(n5nc(-c6c([H])c([H])c(Oc7c([H])c([H])c(F)c([H])c7F)c([H])c6[H])c(C(=O)N([H])[H])c5N([H])[H])C4([H])[H])C([H])([H])C3([H])[H])c([H])c([H])c2C1([H])[H]

$$$$
19:0:0
     RDKit          3D

 95103  0  0  1  0  0  0  0  0999 V2000
  -30.4600  -22.5680   19.0800 C   0  0  0  0  0  2  0  0  0  0  0  0
  -30.8430  -22.5340   21.4130 C   0  0  0  0  0  2  0  0  0  0  0  0
  -29.9000  -21.1380   19.1360 C   0  0  0  0  0  2  0  0  0  0  0  0
  -30.3210  -21.0840   21.5000 C   0  0  0  0  0  2  0  0  0  0  0  0
  -30.1650  -23.2540   20.3350 N   0  0  0  0  0  0  0  0  0  0  0  0
  -30.4590  -20.3290   20.2370 N   0  0  0  0  0  0  0  0  0  0  0  0
  -30.4720  -24.6790   20.2920 C   0  0  0  0  0  2  0  0  0  0  0  0
  -29.8390  -25.4580   21.4590 C   0  0  0  0  0  2  0  0  0  0  0  0
  -29.3800  -26.8700   21.0710 C   0  0  0  0  0  2  0  0  0  0  0  0
  -28.3850  -26.7200   20.0600 O   0  0  0  0  0  0  0  0  0  0  0  0
  -24.5790  -31.8690   23.2190 C   0  0  0  0  0  0  0  0  0  0  0  0
  -27.2450  -27.4800   20.1310 C   0  0  0  0  0  0  0  0  0  0  0  0
  -23.3680  -30.4630   21.5800 C   0  0  0  0  0  3  0  0  0  0  0  0
  -24.8250  -28.9360   20.1490 C   0  0  0  0  0  0  0  0  0  0  0  0
  -25.8840  -30.8510   21.3640 C   0  0  0  0  0  2  0  0  0  0  0  0
  -25.9770  -29.4800   20.7330 C   0  0  0  0  0  0  0  0  0  0  0  0
  -27.1880  -28.7610   20.7270 C   0  0  0  0  0  3  0  0  0  0  0  0
  -26.0820  -26.9460   19.5400 C   0  0  0  0  0  3  0  0  0  0  0  0
  -24.8710  -27.6640   19.5500 C   0  0  0  0  0  3  0  0  0  0  0  0
  -23.5720  -29.7820   20.2000 C   0  0  0  0  0  2  0  0  0  0  0  0
  -24.6280  -31.0740   22.1140 N   0  0  0  0  0  0  0  0  0  0  0  0
  -23.5020  -32.1360   23.7680 O   0  0  0  0  0  0  0  0  0  0  0  0
  -22.7290  -29.4390   22.5430 C   0  0  0  0  0  0  0  0  0  0  0  0
  -21.4040  -29.2550   22.4250 N   0  0  0  0  0  0  0  0  0  0  0  0
  -23.4200  -28.8130   23.3520 O   0  0  0  0  0  0  0  0  0  0  0  0
  -20.9110  -29.8090   21.7370 H   0  0  0  0  0  0  0  0  0  0  0  0
  -18.0330  -28.0690   22.9440 C   0  0  0  0  0  0  0  0  0  0  0  0
  -20.5930  -28.3170   23.1970 C   0  0  0  0  0  3  0  0  0  0  0  0
  -20.6880  -26.8900   22.6120 C   0  0  0  0  0  2  0  0  0  0  0  0
  -19.5760  -26.5750   21.6050 C   0  0  0  0  0  2  0  0  0  0  0  0
  -18.2010  -26.7220   22.2600 C   0  0  0  0  0  2  0  0  0  0  0  0
  -19.1570  -28.8250   23.3680 C   0  0  0  0  0  0  0  0  0  0  0  0
  -18.9480  -30.0860   23.9660 C   0  0  0  0  0  3  0  0  0  0  0  0
  -17.6460  -30.5920   24.1440 C   0  0  0  0  0  3  0  0  0  0  0  0
  -16.5370  -29.8330   23.7360 C   0  0  0  0  0  3  0  0  0  0  0  0
  -16.7300  -28.5740   23.1390 C   0  0  0  0  0  3  0  0  0  0  0  0
  -25.8700  -32.5000   23.8320 C   0  0  0  0  0  3  0  0  0  0  0  0
  -26.4040  -31.7210   25.0960 C   0  0  1  0  0  0  0  0  0  0  0  0
  -25.3210  -31.4680   26.1710 C   0  0  0  0  0  1  0  0  0  0  0  0
  -26.9870  -30.3490   24.6810 C   0  0  0  0  0  1  0  0  0  0  0  0
  -27.5590  -32.5130   25.7510 C   0  0  0  0  0  1  0  0  0  0  0  0
  -25.5600  -33.8950   24.1710 N   0  0  0  0  0  0  0  0  0  0  0  0
  -25.8880  -34.9500   23.4150 C   0  0  0  0  0  0  0  0  0  0  0  0
  -26.5540  -34.8520   22.3800 O   0  0  0  0  0  0  0  0  0  0  0  0
  -24.9670  -34.0450   24.9740 H   0  0  0  0  0  0  0  0  0  0  0  0
  -24.1590  -36.7400   23.0620 C   0  0  0  0  0  1  0  0  0  0  0  0
  -25.3970  -36.3350   23.8770 C   0  0  0  0  0  3  0  0  0  0  0  0
  -27.5270  -37.2150   24.7230 C   0  0  0  0  0  1  0  0  0  0  0  0
  -26.4300  -37.3890   23.7750 N   0  0  0  0  0  0  0  0  0  0  0  0
  -26.0230  -38.3080   23.9250 H   0  0  0  0  0  0  0  0  0  0  0  0
  -29.7200  -19.0610   20.2860 C   0  0  0  0  0  2  0  0  0  0  0  0
  -30.4280  -17.8130   20.8640 C   0  0  0  0  0  3  0  0  0  0  0  0
  -30.5780  -17.8570   22.3280 N   0  0  0  0  0  4  0  0  0  0  0  0
  -29.6930  -17.9630   22.7900 H   0  0  0  0  0  0  0  0  0  0  0  0
  -31.1830  -18.6150   22.5860 H   0  0  0  0  0  0  0  0  0  0  0  0
  -31.0000  -17.0010   22.6410 H   0  0  0  0  0  0  0  0  0  0  0  0
  -29.5960  -16.5950   20.4190 C   0  0  0  0  0  2  0  0  0  0  0  0
  -30.6320  -14.4030   20.5590 C   0  0  0  0  0  0  0  0  0  0  0  0
  -30.3530  -12.3000   19.3340 C   0  0  0  0  0  2  0  0  0  0  0  0
  -29.4140  -12.5800   18.1420 C   0  0  0  0  0  2  0  0  0  0  0  0
  -27.9320  -12.4540   18.5540 C   0  0  0  0  0  2  0  0  0  0  0  0
  -27.6030  -13.2310   19.8560 C   0  0  0  0  0  3  0  0  0  0  0  0
  -28.6480  -12.9090   20.9530 C   0  0  0  0  0  2  0  0  0  0  0  0
  -29.9910  -13.2180   20.4190 N   0  0  0  0  0  0  0  0  0  0  0  0
  -31.7160  -14.6840   20.0390 O   0  0  0  0  0  0  0  0  0  0  0  0
  -29.8670  -15.3430   21.1170 N   0  0  0  0  0  0  0  0  0  0  0  0
  -29.0680  -14.9540   21.5960 H   0  0  0  0  0  0  0  0  0  0  0  0
  -25.1870  -13.8450   20.5190 C   0  0  0  0  0  0  0  0  0  0  0  0
  -24.1160  -13.0730   20.8830 C   0  0  0  0  0  0  0  0  0  0  0  0
  -24.5810  -11.7220   20.8650 C   0  0  0  0  0  0  0  0  0  0  0  0
  -26.2390  -12.9630   20.3120 N   0  0  0  0  0  0  0  0  0  0  0  0
  -25.8740  -11.6820   20.5680 N   0  0  0  0  0  0  0  0  0  0  0  0
  -23.8580  -10.4590   21.0540 C   0  0  0  0  0  0  0  0  0  0  0  0
  -24.2840   -9.4960   21.9930 C   0  0  0  0  0  3  0  0  0  0  0  0
  -23.5630   -8.2960   22.1670 C   0  0  0  0  0  3  0  0  0  0  0  0
  -22.3980   -8.0510   21.4010 C   0  0  0  0  0  0  0  0  0  0  0  0
  -21.9910   -9.0030   20.4500 C   0  0  0  0  0  3  0  0  0  0  0  0
  -22.7150  -10.1940   20.2750 C   0  0  0  0  0  3  0  0  0  0  0  0
  -21.6490   -6.9040   21.4850 O   0  0  0  0  0  0  0  0  0  0  0  0
  -21.5950   -6.1620   22.6370 C   0  0  0  0  0  0  0  0  0  0  0  0
  -21.1530   -6.7140   23.8590 C   0  0  0  0  0  3  0  0  0  0  0  0
  -21.0470   -5.8960   25.0020 C   0  0  0  0  0  3  0  0  0  0  0  0
  -21.3730   -4.5290   24.9250 C   0  0  0  0  0  0  0  0  0  0  0  0
  -21.8070   -3.9770   23.7070 C   0  0  0  0  0  3  0  0  0  0  0  0
  -21.9150   -4.7910   22.5660 C   0  0  0  0  0  0  0  0  0  0  0  0
  -22.3130   -4.2490   21.3900 F   0  0  0  0  0  0  0  0  0  0  0  0
  -21.2650   -3.7440   26.0220 F   0  0  0  0  0  0  0  0  0  0  0  0
  -22.7140  -13.5470   21.1410 C   0  0  0  0  0  0  0  0  0  0  0  0
  -21.9770  -12.8490   22.0000 N   0  0  0  0  0  0  0  0  0  0  0  0
  -22.2790  -14.5720   20.6190 O   0  0  0  0  0  0  0  0  0  0  0  0
  -22.3400  -12.0190   22.4480 H   0  0  0  0  0  0  0  0  0  0  0  0
  -21.0380  -13.1490   22.2150 H   0  0  0  0  0  0  0  0  0  0  0  0
  -25.3490  -15.2160   20.3330 N   0  0  0  0  0  0  0  0  0  0  0  0
  -24.5690  -15.8600   20.4120 H   0  0  0  0  0  0  0  0  0  0  0  0
  -26.1890  -15.6530   19.9790 H   0  0  0  0  0  0  0  0  0  0  0  0
  1  3  1  0
  1  5  1  0
  2  4  1  0
  3  6  1  0
  5  2  1  0
  6 51  1  0
  6  4  1  0
  7  5  1  0
  7  8  1  0
  9  8  1  0
 10 12  1  0
 10  9  1  0
 11 22  2  0
 12 17  1  0
 13 21  1  0
 13 23  1  0
 14 20  1  0
 14 16  1  0
 15 21  1  0
 16 15  1  0
 17 16  2  0
 18 19  1  0
 18 12  2  0
 19 14  2  0
 20 13  1  0
 21 11  1  0
 23 25  2  0
 24 23  1  0
 26 24  1  0
 27 36  2  0
 27 32  1  0
 28 24  1  0
 28 32  1  0
 29 28  1  0
 30 31  1  0
 30 29  1  0
 31 27  1  0
 32 33  2  0
 33 34  1  0
 35 34  2  0
 36 35  1  0
 37 11  1  0
 37 42  1  0
 37 38  1  0
 38 41  1  1
 38 39  1  0
 40 38  1  0
 42 45  1  0
 43 47  1  0
 43 42  1  0
 44 43  2  0
 47 46  1  0
 49 47  1  0
 49 50  1  0
 49 48  1  0
 52 51  1  0
 52 53  1  0
 53 55  1  0
 53 56  1  0
 53 54  1  0
 57 52  1  0
 57 66  1  0
 58 66  1  0
 59 64  1  0
 60 61  1  0
 60 59  1  0
 62 61  1  0
 62 71  1  0
 62 63  1  0
 64 58  1  0
 64 63  1  0
 65 58  2  0
 66 67  1  0
 68 69  2  0
 69 88  1  0
 70 69  1  0
 70 73  1  0
 71 68  1  0
 71 72  1  0
 72 70  2  0
 73 74  1  0
 74 75  2  0
 76 79  1  0
 76 75  1  0
 77 76  2  0
 78 77  1  0
 78 73  2  0
 79 80  1  0
 80 81  1  0
 81 82  2  0
 83 82  1  0
 83 87  1  0
 84 83  2  0
 85 80  2  0
 85 84  1  0
 86 85  1  0
 88 89  1  0
 89 92  1  0
 89 91  1  0
 90 88  2  0
 93 94  1  0
 93 68  1  0
 95 93  1  0
M  ISO  4   9 101  10 101  58 100  66 100
M  END
>  <TORSDO>  (20) 
F 23

>  <SCORE>  (20) 
-13.270

>  <name>  (20) 
19

>  <ligand_id>  (20) 
19

>  <original_smiles>  (20) 
[H]c1c([H])c([H])c2c(c1[H])C([H])([H])C([H])([H])C([H])([H])C2([H])N([H])C(=O)C1([H])N(C(=O)C([H])(N([H])C(=O)C([H])(N([H])C([H])([H])[H])C([H])([H])[H])C(C([H])([H])[H])(C([H])([H])[H])C([H])([H])[H])C([H])([H])c2c([H])c(OC([H])([H])C([H])([H])C([H])([H])N3C([H])([H])C([H])([H])N(C([H])([H])C([H])(C([H])([H])N([H])C(=O)N4C([H])([H])C([H])([H])C([H])([H])C([H])(n5nc(-c6c([H])c([H])c(Oc7c([H])c([H])c(F)c([H])c7F)c([H])c6[H])c(C(=O)N([H])[H])c5N([H])[H])C4([H])[H])[N+]([H])([H])[H])C([H])([H])C3([H])[H])c([H])c([H])c2C1([H])[H]

>  <smiles>  (20) 
[H]c1c([H])c([H])c2c(c1[H])C([H])([H])C([H])([H])C([H])([H])C2([H])N([H])C(=O)C1([H])N(C(=O)C([H])(N([H])C(=O)C([H])(N([H])C([H])([H])[H])C([H])([H])[H])C(C([H])([H])[H])(C([H])([H])[H])C([H])([H])[H])C([H])([H])c2c([H])c(OC([H])([H])C([H])([H])C([H])([H])N3C([H])([H])C([H])([H])N(C([H])([H])C([H])(C([H])([H])N([H])C(=O)N4C([H])([H])C([H])([H])C([H])([H])C([H])(n5nc(-c6c([H])c([H])c(Oc7c([H])c([H])c(F)c([H])c7F)c([H])c6[H])c(C(=O)N([H])[H])c5N([H])[H])C4([H])[H])[N+]([H])([H])[H])C([H])([H])C3([H])[H])c([H])c([H])c2C1([H])[H]

$$$$
20:0:0
     RDKit          3D

104112  0  0  1  0  0  0  0  0999 V2000
  -29.2710  -20.9560   20.1350 C   0  0  0  0  0  3  0  0  0  0  0  0
  -29.5550  -23.2690   21.0870 C   0  0  0  0  0  0  0  0  0  0  0  0
  -29.6070  -22.3860   20.0780 N   0  0  0  0  0  0  0  0  0  0  0  0
  -29.3690  -22.9270   22.2570 O   0  0  0  0  0  0  0  0  0  0  0  0
  -29.7920  -22.7620   19.1590 H   0  0  0  0  0  0  0  0  0  0  0  0
  -29.7320  -24.7550   20.7410 C   0  0  0  0  0  2  0  0  0  0  0  0
  -28.4680  -25.3850   20.1190 C   0  0  0  0  0  2  0  0  0  0  0  0
  -28.5190  -26.8120   20.2260 O   0  0  0  0  0  0  0  0  0  0  0  0
  -24.6120  -31.9090   23.2590 C   0  0  0  0  0  0  0  0  0  0  0  0
  -27.3200  -27.4970   20.1990 C   0  0  0  0  0  0  0  0  0  0  0  0
  -23.4290  -30.5010   21.6030 C   0  0  0  0  0  3  0  0  0  0  0  0
  -24.9050  -28.9750   20.1910 C   0  0  0  0  0  0  0  0  0  0  0  0
  -25.9520  -30.8820   21.4250 C   0  0  0  0  0  2  0  0  0  0  0  0
  -26.0540  -29.5140   20.7830 C   0  0  0  0  0  0  0  0  0  0  0  0
  -27.2630  -28.7840   20.7770 C   0  0  0  0  0  3  0  0  0  0  0  0
  -26.1470  -26.9640   19.6140 C   0  0  0  0  0  3  0  0  0  0  0  0
  -24.9460  -27.6990   19.6050 C   0  0  0  0  0  3  0  0  0  0  0  0
  -23.6550  -29.8240   20.2260 C   0  0  0  0  0  2  0  0  0  0  0  0
  -24.6820  -31.1110   22.1560 N   0  0  0  0  0  0  0  0  0  0  0  0
  -23.5250  -32.1700   23.7940 O   0  0  0  0  0  0  0  0  0  0  0  0
  -22.7770  -29.4730   22.5550 C   0  0  0  0  0  0  0  0  0  0  0  0
  -21.4540  -29.2880   22.4210 N   0  0  0  0  0  0  0  0  0  0  0  0
  -23.4570  -28.8480   23.3730 O   0  0  0  0  0  0  0  0  0  0  0  0
  -20.9660  -29.8480   21.7360 H   0  0  0  0  0  0  0  0  0  0  0  0
  -18.0770  -28.1010   22.9120 C   0  0  0  0  0  0  0  0  0  0  0  0
  -20.6370  -28.3450   23.1840 C   0  0  0  0  0  3  0  0  0  0  0  0
  -20.7330  -26.9190   22.5930 C   0  0  0  0  0  2  0  0  0  0  0  0
  -19.6290  -26.6120   21.5750 C   0  0  0  0  0  2  0  0  0  0  0  0
  -18.2470  -26.7580   22.2200 C   0  0  0  0  0  2  0  0  0  0  0  0
  -19.1990  -28.8530   23.3490 C   0  0  0  0  0  0  0  0  0  0  0  0
  -18.9880  -30.1090   23.9560 C   0  0  0  0  0  3  0  0  0  0  0  0
  -17.6860  -30.6170   24.1270 C   0  0  0  0  0  3  0  0  0  0  0  0
  -16.5780  -29.8630   23.7060 C   0  0  0  0  0  3  0  0  0  0  0  0
  -16.7730  -28.6070   23.1060 C   0  0  0  0  0  3  0  0  0  0  0  0
  -25.8900  -32.5470   23.8920 C   0  0  0  0  0  3  0  0  0  0  0  0
  -26.3990  -31.7790   25.1730 C   0  0  1  0  0  0  0  0  0  0  0  0
  -25.2980  -31.5350   26.2290 C   0  0  0  0  0  1  0  0  0  0  0  0
  -26.9970  -30.4080   24.7830 C   0  0  0  0  0  1  0  0  0  0  0  0
  -27.5390  -32.5810   25.8460 C   0  0  0  0  0  1  0  0  0  0  0  0
  -25.5740  -33.9440   24.2150 N   0  0  0  0  0  0  0  0  0  0  0  0
  -25.8980  -34.9930   23.4470 C   0  0  0  0  0  0  0  0  0  0  0  0
  -26.5640  -34.8880   22.4130 O   0  0  0  0  0  0  0  0  0  0  0  0
  -24.9860  -34.0990   25.0210 H   0  0  0  0  0  0  0  0  0  0  0  0
  -24.1500  -36.7640   23.0870 C   0  0  0  0  0  1  0  0  0  0  0  0
  -25.3990  -36.3800   23.8960 C   0  0  0  0  0  3  0  0  0  0  0  0
  -27.5310  -37.2900   24.7040 C   0  0  0  0  0  1  0  0  0  0  0  0
  -26.4210  -37.4430   23.7690 N   0  0  0  0  0  0  0  0  0  0  0  0
  -26.0070  -38.3590   23.9200 H   0  0  0  0  0  0  0  0  0  0  0  0
  -28.1300  -20.7090   19.1200 C   0  0  0  0  0  2  0  0  0  0  0  0
  -26.9640  -21.7000   19.2900 C   0  0  0  0  0  2  0  0  0  0  0  0
  -25.9350  -21.6290   18.1530 C   0  0  0  0  0  2  0  0  0  0  0  0
  -24.8180  -22.6750   18.3330 C   0  0  0  0  0  2  0  0  0  0  0  0
  -23.8390  -22.6460   17.2360 N   0  0  0  0  0  4  0  0  0  0  0  0
  -24.2850  -22.8010   16.3500 H   0  0  0  0  0  0  0  0  0  0  0  0
  -23.1550  -23.3690   17.3720 H   0  0  0  0  0  0  0  0  0  0  0  0
  -23.3590  -21.7640   17.2090 H   0  0  0  0  0  0  0  0  0  0  0  0
  -30.5170  -20.0190   19.9710 C   0  0  0  0  0  3  0  0  0  0  0  0
  -30.7410  -14.5950   20.5540 C   0  0  0  0  0  0  0  0  0  0  0  0
  -30.4490  -12.4080   19.4650 C   0  0  0  0  0  2  0  0  0  0  0  0
  -29.5250  -12.5780   18.2430 C   0  0  0  0  0  2  0  0  0  0  0  0
  -28.0450  -12.4360   18.6520 C   0  0  0  0  0  2  0  0  0  0  0  0
  -27.6750  -13.2970   19.8870 C   0  0  0  0  0  3  0  0  0  0  0  0
  -28.7240  -13.1420   21.0160 C   0  0  0  0  0  2  0  0  0  0  0  0
  -30.0520  -13.4260   20.4440 N   0  0  0  0  0  0  0  0  0  0  0  0
  -31.9250  -14.7150   20.2300 O   0  0  0  0  0  0  0  0  0  0  0  0
  -30.4320  -16.6410   21.9000 C   0  0  0  0  0  2  0  0  0  0  0  0
  -29.2210  -16.3540   19.7840 C   0  0  0  0  0  2  0  0  0  0  0  0
  -31.0460  -17.9580   21.3520 C   0  0  0  0  0  2  0  0  0  0  0  0
  -29.8450  -17.6600   19.2540 C   0  0  0  0  0  2  0  0  0  0  0  0
  -30.0090  -15.7010   20.8470 N   0  0  0  0  0  0  0  0  0  0  0  0
  -30.1510  -18.6070   20.3580 N   0  0  2  0  0  4  0  0  0  0  0  0
  -29.2850  -18.7190   20.8620 H   0  0  0  0  0  0  0  0  0  0  0  0
  -25.2800  -13.9500   20.5550 C   0  0  0  0  0  0  0  0  0  0  0  0
  -24.1940  -13.1940   20.9010 C   0  0  0  0  0  0  0  0  0  0  0  0
  -24.6380  -11.8380   20.8780 C   0  0  0  0  0  0  0  0  0  0  0  0
  -26.3150  -13.0510   20.3470 N   0  0  0  0  0  0  0  0  0  0  0  0
  -25.9330  -11.7770   20.6010 N   0  0  0  0  0  0  0  0  0  0  0  0
  -23.8940  -10.5880   21.0450 C   0  0  0  0  0  0  0  0  0  0  0  0
  -24.3080   -9.6020   21.9660 C   0  0  0  0  0  3  0  0  0  0  0  0
  -23.5660   -8.4120   22.1200 C   0  0  0  0  0  3  0  0  0  0  0  0
  -22.3960   -8.2000   21.3510 C   0  0  0  0  0  0  0  0  0  0  0  0
  -22.0040   -9.1740   20.4160 C   0  0  0  0  0  3  0  0  0  0  0  0
  -22.7490  -10.3550   20.2600 C   0  0  0  0  0  3  0  0  0  0  0  0
  -21.6260   -7.0670   21.4180 O   0  0  0  0  0  0  0  0  0  0  0  0
  -21.5620   -6.3080   22.5600 C   0  0  0  0  0  0  0  0  0  0  0  0
  -21.1440   -6.8500   23.7950 C   0  0  0  0  0  3  0  0  0  0  0  0
  -21.0280   -6.0170   24.9250 C   0  0  0  0  0  3  0  0  0  0  0  0
  -21.3190   -4.6430   24.8220 C   0  0  0  0  0  0  0  0  0  0  0  0
  -21.7300   -4.1020   23.5900 C   0  0  0  0  0  3  0  0  0  0  0  0
  -21.8480   -4.9330   22.4620 C   0  0  0  0  0  0  0  0  0  0  0  0
  -22.2230   -4.4020   21.2730 F   0  0  0  0  0  0  0  0  0  0  0  0
  -21.2020   -3.8390   25.9040 F   0  0  0  0  0  0  0  0  0  0  0  0
  -22.8000  -13.6920   21.1440 C   0  0  0  0  0  0  0  0  0  0  0  0
  -22.0450  -13.0040   21.9930 N   0  0  0  0  0  0  0  0  0  0  0  0
  -22.3870  -14.7250   20.6170 O   0  0  0  0  0  0  0  0  0  0  0  0
  -22.3940  -12.1670   22.4360 H   0  0  0  0  0  0  0  0  0  0  0  0
  -21.1050  -13.3140   22.1980 H   0  0  0  0  0  0  0  0  0  0  0  0
  -25.4640  -15.3190   20.3810 N   0  0  0  0  0  0  0  0  0  0  0  0
  -24.6950  -15.9750   20.4610 H   0  0  0  0  0  0  0  0  0  0  0  0
  -26.3150  -15.7450   20.0440 H   0  0  0  0  0  0  0  0  0  0  0  0
  -31.2600  -20.1240   18.5970 C   0  0  0  0  0  2  0  0  0  0  0  0
  -31.9800  -21.4580   18.2960 C   0  0  0  0  0  2  0  0  0  0  0  0
  -33.6510  -22.7020   16.8210 C   0  0  0  0  0  1  0  0  0  0  0  0
  -32.9160  -21.3800   17.0810 C   0  0  0  0  0  2  0  0  0  0  0  0
  1 49  1  0
  2  4  2  0
  3  1  1  0
  3  2  1  0
  5  3  1  0
  6  2  1  0
  7  8  1  0
  7  6  1  0
  9 20  2  0
 10  8  1  0
 10 15  1  0
 11 19  1  0
 11 21  1  0
 12 18  1  0
 12 14  1  0
 13 19  1  0
 14 13  1  0
 15 14  2  0
 16 10  2  0
 17 16  1  0
 17 12  2  0
 18 11  1  0
 19  9  1  0
 21 23  2  0
 22 21  1  0
 24 22  1  0
 25 34  2  0
 25 30  1  0
 26 22  1  0
 26 30  1  0
 27 26  1  0
 28 29  1  0
 28 27  1  0
 29 25  1  0
 30 31  2  0
 31 32  1  0
 33 32  2  0
 34 33  1  0
 35  9  1  0
 35 40  1  0
 35 36  1  0
 36 39  1  1
 36 37  1  0
 38 36  1  0
 40 43  1  0
 41 45  1  0
 41 40  1  0
 42 41  2  0
 45 44  1  0
 47 45  1  0
 47 48  1  0
 47 46  1  0
 49 50  1  0
 51 52  1  0
 51 50  1  0
 53 55  1  0
 53 52  1  0
 54 53  1  0
 56 53  1  0
 57101  1  0
 57  1  1  0
 57 71  1  0
 58 70  1  0
 59 64  1  0
 60 61  1  0
 60 59  1  0
 62 61  1  0
 62 76  1  0
 62 63  1  0
 64 58  1  0
 64 63  1  0
 65 58  2  0
 67 70  1  0
 68 66  1  0
 69 67  1  0
 69 71  1  0
 70 66  1  0
 71 72  1  1
 71 68  1  0
 73 74  2  0
 74 93  1  0
 75 74  1  0
 75 78  1  0
 76 73  1  0
 76 77  1  0
 77 75  2  0
 78 79  1  0
 79 80  2  0
 81 84  1  0
 81 80  1  0
 82 81  2  0
 83 82  1  0
 83 78  2  0
 84 85  1  0
 85 86  1  0
 86 87  2  0
 88 87  1  0
 88 92  1  0
 89 88  2  0
 90 85  2  0
 90 89  1  0
 91 90  1  0
 93 94  1  0
 94 97  1  0
 94 96  1  0
 95 93  2  0
 98 99  1  0
 98 73  1  0
100 98  1  0
102101  1  0
103104  1  0
104102  1  0
M  ISO  4   7 101   8 101  58 100  70 100
M  END
>  <TORSDO>  (21) 
F 28

>  <SCORE>  (21) 
-12.187

>  <name>  (21) 
20

>  <ligand_id>  (21) 
20

>  <original_smiles>  (21) 
[H]c1c([H])c([H])c2c(c1[H])C([H])([H])C([H])([H])C([H])([H])C2([H])N([H])C(=O)C1([H])N(C(=O)C([H])(N([H])C(=O)C([H])(N([H])C([H])([H])[H])C([H])([H])[H])C(C([H])([H])[H])(C([H])([H])[H])C([H])([H])[H])C([H])([H])c2c([H])c(OC([H])([H])C([H])([H])C(=O)N([H])C([H])(C([H])([H])C([H])([H])C([H])([H])C([H])([H])[N+]([H])([H])[H])C([H])(C([H])([H])C([H])([H])C([H])([H])C([H])([H])[H])[N+]3([H])C([H])([H])C([H])([H])N(C(=O)N4C([H])([H])C([H])([H])C([H])([H])C([H])(n5nc(-c6c([H])c([H])c(Oc7c([H])c([H])c(F)c([H])c7F)c([H])c6[H])c(C(=O)N([H])[H])c5N([H])[H])C4([H])[H])C([H])([H])C3([H])[H])c([H])c([H])c2C1([H])[H]

>  <smiles>  (21) 
[H]c1c([H])c([H])c2c(c1[H])C([H])([H])C([H])([H])C([H])([H])C2([H])N([H])C(=O)C1([H])N(C(=O)C([H])(N([H])C(=O)C([H])(N([H])C([H])([H])[H])C([H])([H])[H])C(C([H])([H])[H])(C([H])([H])[H])C([H])([H])[H])C([H])([H])c2c([H])c(OC([H])([H])C([H])([H])C(=O)N([H])C([H])(C([H])([H])C([H])([H])C([H])([H])C([H])([H])[N+]([H])([H])[H])C([H])(C([H])([H])C([H])([H])C([H])([H])C([H])([H])[H])[N+]3([H])C([H])([H])C([H])([H])N(C(=O)N4C([H])([H])C([H])([H])C([H])([H])C([H])(n5nc(-c6c([H])c([H])c(Oc7c([H])c([H])c(F)c([H])c7F)c([H])c6[H])c(C(=O)N([H])[H])c5N([H])[H])C4([H])[H])C([H])([H])C3([H])[H])c([H])c([H])c2C1([H])[H]

$$$$
21:0:0
     RDKit          3D

107115  0  0  1  0  0  0  0  0999 V2000
  -24.7140  -22.7880   19.7430 N   0  0  0  0  0  4  0  0  0  0  0  0
  -24.2570  -22.2040   20.4250 H   0  0  0  0  0  0  0  0  0  0  0  0
  -24.4660  -23.7450   19.9400 H   0  0  0  0  0  0  0  0  0  0  0  0
  -24.2620  -22.3900   18.3720 C   0  0  0  0  0  2  0  0  0  0  0  0
  -18.8900  -24.2490   14.8410 C   0  0  0  0  0  2  0  0  0  0  0  0
  -20.0760  -25.1260   14.3440 C   0  0  0  0  0  2  0  0  0  0  0  0
  -24.2190  -24.6430   14.5520 C   0  0  0  0  0 15  0  0  0  0  0  0
  -19.4280  -23.2970   15.9340 C   0  0  0  0  0  2  0  0  0  0  0  0
  -21.8310  -23.0850   17.2080 C   0  0  0  0  0  2  0  0  0  0  0  0
  -24.7920  -24.2170   16.4540 C   0  0  0  0  0  2  0  0  0  0  0  0
  -23.5520  -23.4760   17.5100 C   0  0  0  0  0  3  0  0  0  0  0  0
  -21.3600  -24.2110   14.5200 C   0  0  0  0  0  2  0  0  0  0  0  0
  -20.8610  -23.5990   15.9770 N   0  0  1  0  0  4  0  0  0  0  0  0
  -20.7490  -24.5120   16.3870 H   0  0  0  0  0  0  0  0  0  0  0  0
  -25.6800  -25.3130   17.5780 C   0  0  0  0  0  2  0  0  0  0  0  0
  -26.6260  -25.6060   18.9500 O   0  0  0  0  0  0  0  0  0  0  0  0
  -25.0290  -29.9270   23.0170 C   0  0  0  0  0  0  0  0  0  0  0  0
  -27.6510  -26.5730   18.9430 C   0  0  0  0  0  3  0  0  0  0  0  0
  -24.2670  -29.4470   20.7400 C   0  0  0  0  0  3  0  0  0  0  0  0
  -26.0770  -28.7500   19.0080 C   0  0  0  0  0  3  0  0  0  0  0  0
  -26.7490  -29.4810   21.2780 C   0  0  0  0  0  2  0  0  0  0  0  0
  -26.9110  -28.5450   20.1040 C   0  0  0  0  0  0  0  0  0  0  0  0
  -27.7900  -27.4410   20.0650 C   0  0  0  0  0  3  0  0  0  0  0  0
  -27.4230  -27.1760   17.7240 C   0  0  0  0  0  2  0  0  0  0  0  0
  -26.4580  -28.2020   17.7650 C   0  0  0  0  0  2  0  0  0  0  0  0
  -24.7660  -29.4670   19.2530 C   0  0  0  0  0  2  0  0  0  0  0  0
  -25.3550  -29.6550   21.7240 N   0  0  0  0  0  0  0  0  0  0  0  0
  -23.8500  -30.0760   23.3710 O   0  0  0  0  0  0  0  0  0  0  0  0
  -23.5000  -28.1770   21.1670 C   0  0  0  0  0  0  0  0  0  0  0  0
  -22.1910  -28.2020   21.0670 N   0  0  0  0  0  0  0  0  0  0  0  0
  -24.0740  -27.2210   21.6860 O   0  0  0  0  0  0  0  0  0  0  0  0
  -21.7570  -29.0520   20.7440 H   0  0  0  0  0  0  0  0  0  0  0  0
  -18.5510  -27.7650   20.6010 C   0  0  0  0  0  0  0  0  0  0  0  0
  -21.3250  -27.0410   21.1770 C   0  0  0  0  0  3  0  0  0  0  0  0
  -21.5920  -25.7720   19.8790 C   0  0  0  0  0  1  0  0  0  0  0  0
  -19.5120  -25.8520   18.2540 C   0  0  0  0  0  1  0  0  0  0  0  0
  -18.2940  -27.0660   19.0260 C   0  0  0  0  0  2  0  0  0  0  0  0
  -19.8330  -27.7850   21.4350 C   0  0  0  0  0  0  0  0  0  0  0  0
  -19.7890  -28.3370   22.7440 C   0  0  0  0  0  3  0  0  0  0  0  0
  -18.6020  -28.7470   23.3610 C   0  0  0  0  0  3  0  0  0  0  0  0
  -17.3920  -28.5930   22.6770 C   0  0  0  0  0  3  0  0  0  0  0  0
  -17.3760  -28.1150   21.3430 C   0  0  0  0  0  3  0  0  0  0  0  0
  -26.1290  -30.0900   24.0970 C   0  0  0  0  0  3  0  0  0  0  0  0
  -25.9720  -31.4410   24.6430 N   0  0  0  0  0  0  0  0  0  0  0  0
  -26.6490  -32.5110   24.2100 C   0  0  0  0  0  0  0  0  0  0  0  0
  -27.5470  -32.4390   23.3660 O   0  0  0  0  0  0  0  0  0  0  0  0
  -25.2200  -31.5790   25.3010 H   0  0  0  0  0  0  0  0  0  0  0  0
  -25.3340  -34.6280   23.8690 C   0  0  0  0  0  1  0  0  0  0  0  0
  -26.2770  -33.8740   24.8200 C   0  0  0  0  0  3  0  0  0  0  0  0
  -28.2870  -34.1720   26.1960 C   0  0  0  0  0  1  0  0  0  0  0  0
  -27.4520  -34.7160   25.1280 N   0  0  0  0  0  0  0  0  0  0  0  0
  -27.1620  -35.6520   25.4020 H   0  0  0  0  0  0  0  0  0  0  0  0
  -26.0530  -29.0070   25.2410 C   0  0  1  0  0  0  0  0  0  0  0  0
  -24.6350  -28.8080   25.8220 C   0  0  0  0  0  1  0  0  0  0  0  0
  -26.5510  -27.6300   24.7420 C   0  0  0  0  0  1  0  0  0  0  0  0
  -26.9980  -29.4210   26.3940 C   0  0  0  0  0  1  0  0  0  0  0  0
  -26.1890  -22.6760   19.9110 C   0  0  0  0  0  2  0  0  0  0  0  0
  -26.6970  -21.3900   20.6170 C   0  0  0  0  0  2  0  0  0  0  0  0
  -28.1040  -19.8330   17.3460 C   0  0  0  0  0  2  0  0  0  0  0  0
  -27.0940  -20.5020   18.2680 C   0  0  0  0  0  2  0  0  0  0  0  0
  -28.4270  -18.4340   17.8660 C   0  0  0  0  0  2  0  0  0  0  0  0
  -28.0110  -19.1540   20.2080 C   0  0  0  0  0  2  0  0  0  0  0  0
  -27.6640  -20.5880   19.7000 C   0  0  0  0  0  3  0  0  0  0  0  0
  -28.9290  -18.4320   19.2710 N   0  0  1  0  0  4  0  0  0  0  0  0
  -29.8090  -18.9270   19.2610 H   0  0  0  0  0  0  0  0  0  0  0  0
  -29.2300  -17.0200   19.6340 C   0  0  0  0  0  2  0  0  0  0  0  0
  -31.5070  -14.3120   20.1670 C   0  0  0  0  0  0  0  0  0  0  0  0
  -30.8140  -12.3500   18.8800 C   0  0  0  0  0  2  0  0  0  0  0  0
  -29.8660  -12.7700   17.7430 C   0  0  0  0  0  2  0  0  0  0  0  0
  -28.4080  -12.7200   18.2370 C   0  0  0  0  0  2  0  0  0  0  0  0
  -28.2010  -13.4640   19.5800 C   0  0  0  0  0  3  0  0  0  0  0  0
  -29.3020  -13.1420   20.6170 C   0  0  0  0  0  2  0  0  0  0  0  0
  -30.6020  -13.3190   19.9610 N   0  0  0  0  0  0  0  0  0  0  0  0
  -32.7110  -14.0800   20.1070 O   0  0  0  0  0  0  0  0  0  0  0  0
  -32.7310  -17.2950   19.6450 C   0  0  0  0  0  2  0  0  0  0  0  0
  -31.5800  -17.7770   20.5180 C   0  0  0  0  0  2  0  0  0  0  0  0
  -32.0530  -16.2480   18.7730 C   0  0  0  0  0  2  0  0  0  0  0  0
  -30.5070  -16.6570   20.4370 C   0  0  0  0  0  3  0  0  0  0  0  0
  -31.1360  -15.5390   19.6930 N   0  0  0  0  0  0  0  0  0  0  0  0
  -25.8920  -14.2250   20.4330 C   0  0  0  0  0  0  0  0  0  0  0  0
  -24.7700  -13.5250   20.7680 C   0  0  0  0  0  0  0  0  0  0  0  0
  -25.1160  -12.1470   20.6380 C   0  0  0  0  0  0  0  0  0  0  0  0
  -26.8550  -13.2790   20.1120 N   0  0  0  0  0  0  0  0  0  0  0  0
  -26.3930  -12.0190   20.3020 N   0  0  0  0  0  0  0  0  0  0  0  0
  -24.2890  -10.9460   20.7600 C   0  0  0  0  0  0  0  0  0  0  0  0
  -24.7030   -9.8400   21.5340 C   0  0  0  0  0  3  0  0  0  0  0  0
  -23.8770   -8.7040   21.6510 C   0  0  0  0  0  3  0  0  0  0  0  0
  -22.6240   -8.6660   20.9950 C   0  0  0  0  0  0  0  0  0  0  0  0
  -22.2280   -9.7610   20.2070 C   0  0  0  0  0  3  0  0  0  0  0  0
  -23.0540  -10.8900   20.0860 C   0  0  0  0  0  3  0  0  0  0  0  0
  -21.7680   -7.5940   21.0310 O   0  0  0  0  0  0  0  0  0  0  0  0
  -21.6450   -6.8090   22.1490 C   0  0  0  0  0  0  0  0  0  0  0  0
  -21.3520   -7.3590   23.4160 C   0  0  0  0  0  3  0  0  0  0  0  0
  -21.1620   -6.5100   24.5250 C   0  0  0  0  0  3  0  0  0  0  0  0
  -21.2620   -5.1140   24.3690 C   0  0  0  0  0  0  0  0  0  0  0  0
  -21.5520   -4.5650   23.1070 C   0  0  0  0  0  3  0  0  0  0  0  0
  -21.7390   -5.4120   22.0000 C   0  0  0  0  0  0  0  0  0  0  0  0
  -21.9960   -4.8760   20.7810 F   0  0  0  0  0  0  0  0  0  0  0  0
  -21.0730   -4.2980   25.4310 F   0  0  0  0  0  0  0  0  0  0  0  0
  -23.4300  -14.1060   21.1120 C   0  0  0  0  0  0  0  0  0  0  0  0
  -22.6730  -13.4230   21.9620 N   0  0  0  0  0  0  0  0  0  0  0  0
  -23.0750  -15.1980   20.6710 O   0  0  0  0  0  0  0  0  0  0  0  0
  -22.9810  -12.5390   22.3370 H   0  0  0  0  0  0  0  0  0  0  0  0
  -21.7750  -13.7910   22.2410 H   0  0  0  0  0  0  0  0  0  0  0  0
  -26.1550  -15.5840   20.3710 N   0  0  0  0  0  0  0  0  0  0  0  0
  -25.4180  -16.1860   20.7210 H   0  0  0  0  0  0  0  0  0  0  0  0
  -27.0620  -15.8590   20.7100 H   0  0  0  0  0  0  0  0  0  0  0  0
  1 57  1  0
  1  3  1  0
  1  2  1  0
  4  1  1  0
  5  8  1  0
  6 12  1  0
  6  5  1  0
  8 13  1  0
  9 11  1  0
 10 15  1  0
 11 10  1  0
 11  4  1  0
 12 13  1  0
 13 14  1  1
 13  9  1  0
 15 16  1  0
 17 28  2  0
 18 16  1  0
 18 23  1  0
 19 29  1  0
 19 27  1  0
 20 25  1  0
 20 26  1  0
 20 22  1  0
 21 27  1  0
 22 21  1  0
 23 22  2  0
 24 25  1  0
 24 18  1  0
 26 19  1  0
 27 17  1  0
 29 31  2  0
 30 29  1  0
 30 34  1  0
 32 30  1  0
 33 42  2  0
 33 38  1  0
 34 35  1  0
 34 38  1  0
 36 37  1  0
 37 33  1  0
 38 39  2  0
 39 40  1  0
 41 40  2  0
 42 41  1  0
 43 17  1  0
 43 44  1  0
 43 53  1  0
 44 47  1  0
 45 44  1  0
 45 49  1  0
 46 45  2  0
 49 48  1  0
 49 51  1  0
 51 52  1  0
 51 50  1  0
 53 54  1  1
 53 56  1  0
 55 53  1  0
 57 58  1  0
 59 61  1  0
 59 60  1  0
 60 63  1  0
 61 64  1  0
 63 62  1  0
 63 58  1  0
 64 66  1  0
 64 62  1  0
 64 65  1  6
 68 73  1  0
 69 70  1  0
 69 68  1  0
 71 70  1  0
 71 83  1  0
 71 72  1  0
 73 67  1  0
 73 72  1  0
 74 67  2  0
 75 76  1  0
 77 75  1  0
 77 79  1  0
 78 66  1  0
 78 76  1  0
 79 67  1  0
 79 78  1  0
 80 81  2  0
 81100  1  0
 82 85  1  0
 82 81  1  0
 83 84  1  0
 83 80  1  0
 84 82  2  0
 85 86  1  0
 86 87  2  0
 88 91  1  0
 88 87  1  0
 89 88  2  0
 90 89  1  0
 90 85  2  0
 91 92  1  0
 92 93  1  0
 93 94  2  0
 95 94  1  0
 95 99  1  0
 96 95  2  0
 97 92  2  0
 97 96  1  0
 98 97  1  0
100101  1  0
101104  1  0
101103  1  0
102100  2  0
105 80  1  0
105107  1  0
105106  1  0
M  ISO  4  15 101  16 101  67 100  79 100
M  END
>  <TORSDO>  (22) 
F 23

>  <SCORE>  (22) 
-10.179

>  <name>  (22) 
21

>  <ligand_id>  (22) 
21

>  <original_smiles>  (22) 
[H]c1c([H])c([H])c2c(c1[H])C([H])([H])C([H])([H])C([H])([H])C2([H])N([H])C(=O)C1([H])N(C(=O)C([H])(N([H])C(=O)C([H])(N([H])C([H])([H])[H])C([H])([H])[H])C(C([H])([H])[H])(C([H])([H])[H])C([H])([H])[H])C([H])([H])c2c([H])c(OC([H])([H])C3([H])C([H])([H])C4([H])C([H])([H])C([H])([H])C([H])([H])[N+]4([H])C([H])([H])C3([H])C([H])([H])[N+]([H])([H])C([H])([H])C([H])([H])C3([H])C([H])([H])C([H])([H])C([H])([H])[N+]([H])(C([H])([H])C4([H])N(C(=O)N5C([H])([H])C([H])([H])C([H])([H])C([H])(n6nc(-c7c([H])c([H])c(Oc8c([H])c([H])c(F)c([H])c8F)c([H])c7[H])c(C(=O)N([H])[H])c6N([H])[H])C5([H])[H])C([H])([H])C([H])([H])C4([H])[H])C3([H])[H])c([H])c([H])c2C1([H])[H]

>  <smiles>  (22) 
[H]c1c([H])c([H])c2c(c1[H])C([H])([H])C([H])([H])C([H])([H])C2([H])N([H])C(=O)C1([H])N(C(=O)C([H])(N([H])C(=O)C([H])(N([H])C([H])([H])[H])C([H])([H])[H])C(C([H])([H])[H])(C([H])([H])[H])C([H])([H])[H])C([H])([H])c2c([H])c(OC([H])([H])C3([H])C([H])([H])C4([H])C([H])([H])C([H])([H])C([H])([H])[N+]4([H])C([H])([H])C3([H])C([H])([H])[N+]([H])([H])C([H])([H])C([H])([H])C3([H])C([H])([H])C([H])([H])C([H])([H])[N+]([H])(C([H])([H])C4([H])N(C(=O)N5C([H])([H])C([H])([H])C([H])([H])C([H])(n6nc(-c7c([H])c([H])c(Oc8c([H])c([H])c(F)c([H])c8F)c([H])c7[H])c(C(=O)N([H])[H])c6N([H])[H])C5([H])[H])C([H])([H])C([H])([H])C4([H])[H])C3([H])[H])c([H])c([H])c2C1([H])[H]

$$$$
22:0:0
     RDKit          3D

 91100  0  0  1  0  0  0  0  0999 V2000
  -29.2460  -22.4720   19.8140 C   0  0  0  0  0  3  0  0  0  0  0  0
  -30.4170  -15.5580   19.8520 C   0  0  0  0  0  0  0  0  0  0  0  0
  -30.3410  -13.0750   18.9470 C   0  0  0  0  0  2  0  0  0  0  0  0
  -29.3620  -12.7520   17.7900 C   0  0  0  0  0  2  0  0  0  0  0  0
  -27.9670  -12.4190   18.3400 C   0  0  0  0  0  2  0  0  0  0  0  0
  -27.5560  -13.3880   19.4750 C   0  0  0  0  0  3  0  0  0  0  0  0
  -28.6710  -13.6530   20.5140 C   0  0  0  0  0  2  0  0  0  0  0  0
  -29.8030  -14.2460   19.7690 N   0  0  0  0  0  0  0  0  0  0  0  0
  -31.6270  -15.4280   19.5820 O   0  0  0  0  0  0  0  0  0  0  0  0
  -30.5160  -18.2180   19.1730 C   0  0  0  0  0  2  0  0  0  0  0  0
  -29.0040  -17.9120   20.8290 C   0  0  0  0  0  2  0  0  0  0  0  0
  -29.8620  -19.7620   18.8800 C   0  0  0  0  0  2  0  0  0  0  0  0
  -28.5130  -19.5970   20.6990 C   0  0  0  0  0  2  0  0  0  0  0  0
  -29.8200  -16.9860   19.8280 N   0  0  0  0  0  0  0  0  0  0  0  0
  -29.3620  -20.7190   20.0120 N   0  0  2  0  0  4  0  0  0  0  0  0
  -30.1500  -20.7300   20.6420 H   0  0  0  0  0  0  0  0  0  0  0  0
  -25.2610  -13.9000   20.4380 C   0  0  0  0  0  0  0  0  0  0  0  0
  -24.2270  -13.1090   20.8500 C   0  0  0  0  0  0  0  0  0  0  0  0
  -24.6870  -11.7600   20.7340 C   0  0  0  0  0  0  0  0  0  0  0  0
  -26.2790  -13.0380   20.0820 N   0  0  0  0  0  0  0  0  0  0  0  0
  -25.9530  -11.7390   20.3270 N   0  0  0  0  0  0  0  0  0  0  0  0
  -23.9700  -10.4920   20.9270 C   0  0  0  0  0  0  0  0  0  0  0  0
  -24.4170   -9.5250   21.8550 C   0  0  0  0  0  3  0  0  0  0  0  0
  -23.6960   -8.3250   22.0430 C   0  0  0  0  0  3  0  0  0  0  0  0
  -22.5160   -8.0830   21.3000 C   0  0  0  0  0  0  0  0  0  0  0  0
  -22.0870   -9.0400   20.3610 C   0  0  0  0  0  3  0  0  0  0  0  0
  -22.8090  -10.2290   20.1720 C   0  0  0  0  0  3  0  0  0  0  0  0
  -21.7660   -6.9350   21.3930 O   0  0  0  0  0  0  0  0  0  0  0  0
  -21.6720   -6.2300   22.5660 C   0  0  0  0  0  0  0  0  0  0  0  0
  -21.1500   -6.8110   23.7420 C   0  0  0  0  0  3  0  0  0  0  0  0
  -21.0040   -6.0320   24.9070 C   0  0  0  0  0  3  0  0  0  0  0  0
  -21.3730   -4.6750   24.8990 C   0  0  0  0  0  0  0  0  0  0  0  0
  -21.8890   -4.0910   23.7280 C   0  0  0  0  0  3  0  0  0  0  0  0
  -22.0350   -4.8680   22.5640 C   0  0  0  0  0  0  0  0  0  0  0  0
  -22.5130   -4.2980   21.4320 F   0  0  0  0  0  0  0  0  0  0  0  0
  -21.2270   -3.9230   26.0150 F   0  0  0  0  0  0  0  0  0  0  0  0
  -22.8540  -13.5780   21.2310 C   0  0  0  0  0  0  0  0  0  0  0  0
  -22.1850  -12.8610   22.1260 N   0  0  0  0  0  0  0  0  0  0  0  0
  -22.3870  -14.6190   20.7720 O   0  0  0  0  0  0  0  0  0  0  0  0
  -22.5790  -12.0220   22.5260 H   0  0  0  0  0  0  0  0  0  0  0  0
  -21.2670  -13.1610   22.4210 H   0  0  0  0  0  0  0  0  0  0  0  0
  -25.4120  -15.2780   20.3030 N   0  0  0  0  0  0  0  0  0  0  0  0
  -24.6560  -15.9250   20.5020 H   0  0  0  0  0  0  0  0  0  0  0  0
  -26.2320  -15.7310   19.9230 H   0  0  0  0  0  0  0  0  0  0  0  0
  -33.0620  -23.1830   19.9330 C   0  0  0  0  0  2  0  0  0  0  0  0
  -32.4680  -24.4700   19.3800 C   0  0  0  0  0  2  0  0  0  0  0  0
  -31.8980  -22.2090   19.7950 C   0  0  0  0  0  2  0  0  0  0  0  0
  -31.0060  -24.4550   19.8470 C   0  0  0  0  0  2  0  0  0  0  0  0
  -30.6560  -23.0000   20.2590 C   0  0  0  0  0  3  0  0  0  0  0  0
  -28.1350  -23.9470   20.2350 C   0  0  0  0  0  2  0  0  0  0  0  0
  -28.2540  -25.6770   20.1600 O   0  0  0  0  0  0  0  0  0  0  0  0
  -24.6130  -31.8050   23.1080 C   0  0  0  0  0  0  0  0  0  0  0  0
  -27.2340  -26.8200   20.1380 C   0  0  0  0  0  0  0  0  0  0  0  0
  -23.4540  -30.3970   21.4590 C   0  0  0  0  0  3  0  0  0  0  0  0
  -24.9310  -28.7720   20.0640 C   0  0  0  0  0  0  0  0  0  0  0  0
  -26.0290  -30.5860   21.3570 C   0  0  0  0  0  2  0  0  0  0  0  0
  -26.1150  -29.1620   20.7020 C   0  0  0  0  0  0  0  0  0  0  0  0
  -27.2550  -28.2120   20.7060 C   0  0  0  0  0  3  0  0  0  0  0  0
  -26.0120  -26.6190   19.4500 C   0  0  0  0  0  3  0  0  0  0  0  0
  -24.9140  -27.5250   19.4180 C   0  0  0  0  0  3  0  0  0  0  0  0
  -23.7130  -29.7020   20.0910 C   0  0  0  0  0  2  0  0  0  0  0  0
  -24.7210  -30.9600   22.0270 N   0  0  0  0  0  0  0  0  0  0  0  0
  -23.5130  -32.0900   23.6110 O   0  0  0  0  0  0  0  0  0  0  0  0
  -22.7430  -29.4080   22.4210 C   0  0  0  0  0  0  0  0  0  0  0  0
  -21.4150  -29.2340   22.2770 N   0  0  0  0  0  0  0  0  0  0  0  0
  -23.3960  -28.7960   23.2670 O   0  0  0  0  0  0  0  0  0  0  0  0
  -20.9360  -29.7780   21.5730 H   0  0  0  0  0  0  0  0  0  0  0  0
  -18.0380  -27.9780   22.7400 C   0  0  0  0  0  0  0  0  0  0  0  0
  -20.5900  -28.2890   23.0400 C   0  0  0  0  0  3  0  0  0  0  0  0
  -20.7210  -26.8550   22.4770 C   0  0  0  0  0  2  0  0  0  0  0  0
  -19.6410  -26.5100   21.4460 C   0  0  0  0  0  2  0  0  0  0  0  0
  -18.2460  -26.6320   22.0670 C   0  0  0  0  0  2  0  0  0  0  0  0
  -19.1370  -28.7630   23.1820 C   0  0  0  0  0  0  0  0  0  0  0  0
  -18.8850  -30.0190   23.7760 C   0  0  0  0  0  3  0  0  0  0  0  0
  -17.5670  -30.4940   23.9260 C   0  0  0  0  0  3  0  0  0  0  0  0
  -16.4840  -29.7080   23.4990 C   0  0  0  0  0  3  0  0  0  0  0  0
  -16.7190  -28.4520   22.9120 C   0  0  0  0  0  3  0  0  0  0  0  0
  -25.8660  -32.4650   23.7600 C   0  0  0  0  0  3  0  0  0  0  0  0
  -25.5170  -33.8540   24.1180 N   0  0  0  0  0  0  0  0  0  0  0  0
  -25.8270  -34.9380   23.3950 C   0  0  0  0  0  0  0  0  0  0  0  0
  -26.4960  -34.8750   22.3600 O   0  0  0  0  0  0  0  0  0  0  0  0
  -24.9170  -33.9720   24.9210 H   0  0  0  0  0  0  0  0  0  0  0  0
  -24.0710  -36.7220   23.1010 C   0  0  0  0  0  1  0  0  0  0  0  0
  -25.3230  -36.3090   23.8940 C   0  0  0  0  0  3  0  0  0  0  0  0
  -27.4400  -37.2170   24.7470 C   0  0  0  0  0  1  0  0  0  0  0  0
  -26.3370  -37.3820   23.8040 N   0  0  0  0  0  0  0  0  0  0  0  0
  -25.9150  -38.2930   23.9650 H   0  0  0  0  0  0  0  0  0  0  0  0
  -26.3720  -31.6940   25.0430 C   0  0  1  0  0  0  0  0  0  0  0  0
  -25.2670  -31.4320   26.0930 C   0  0  0  0  0  1  0  0  0  0  0  0
  -26.9850  -30.3280   24.6620 C   0  0  0  0  0  1  0  0  0  0  0  0
  -27.4980  -32.5030   25.7290 C   0  0  0  0  0  1  0  0  0  0  0  0
  1 15  1  0
  1 50  1  0
  1 49  1  0
  3  8  1  0
  4  5  1  0
  4  3  1  0
  6  5  1  0
  6 20  1  0
  6  7  1  0
  8  2  1  0
  8  7  1  0
  9  2  2  0
 10 14  1  0
 12 10  1  0
 12 15  1  0
 13 11  1  0
 14  2  1  0
 14 11  1  0
 15 16  1  1
 15 13  1  0
 17 18  2  0
 18 37  1  0
 19 18  1  0
 19 22  1  0
 20 21  1  0
 20 17  1  0
 21 19  2  0
 22 23  1  0
 23 24  2  0
 25 28  1  0
 25 24  1  0
 26 25  2  0
 27 26  1  0
 27 22  2  0
 28 29  1  0
 29 30  1  0
 30 31  2  0
 32 31  1  0
 32 36  1  0
 33 32  2  0
 34 29  2  0
 34 33  1  0
 35 34  1  0
 37 38  1  0
 38 41  1  0
 38 40  1  0
 39 37  2  0
 42 17  1  0
 42 43  1  0
 44 42  1  0
 46 48  1  0
 46 45  1  0
 47 45  1  0
 47 49  1  0
 48 49  1  0
 51 50  1  0
 52 63  2  0
 53 51  1  0
 53 58  1  0
 54 62  1  0
 54 64  1  0
 55 61  1  0
 55 57  1  0
 56 62  1  0
 57 58  2  0
 57 56  1  0
 59 53  2  0
 60 59  1  0
 60 55  2  0
 61 54  1  0
 62 52  1  0
 64 66  2  0
 65 64  1  0
 67 65  1  0
 68 77  2  0
 68 73  1  0
 69 65  1  0
 69 73  1  0
 70 69  1  0
 71 72  1  0
 71 70  1  0
 72 68  1  0
 73 74  2  0
 74 75  1  0
 76 75  2  0
 77 76  1  0
 78 52  1  0
 78 79  1  0
 78 88  1  0
 79 82  1  0
 80 84  1  0
 80 79  1  0
 81 80  2  0
 84 83  1  0
 86 84  1  0
 86 87  1  0
 86 85  1  0
 88 91  1  1
 88 89  1  0
 90 88  1  0
M  ISO  4   2 100  14 100  50 101  51 101
M  END
>  <TORSDO>  (23) 
F 18

>  <SCORE>  (23) 
-16.131

>  <name>  (23) 
22

>  <ligand_id>  (23) 
22

>  <original_smiles>  (23) 
[H]c1c([H])c([H])c2c(c1[H])C([H])([H])C([H])([H])C([H])([H])C2([H])N([H])C(=O)C1([H])N(C(=O)C([H])(N([H])C(=O)C([H])(N([H])C([H])([H])[H])C([H])([H])[H])C(C([H])([H])[H])(C([H])([H])[H])C([H])([H])[H])C([H])([H])c2c([H])c(OC([H])([H])C([H])(C3([H])C([H])([H])C([H])([H])C([H])([H])C3([H])[H])[N+]3([H])C([H])([H])C([H])([H])N(C(=O)N4C([H])([H])C([H])([H])C([H])([H])C([H])(n5nc(-c6c([H])c([H])c(Oc7c([H])c([H])c(F)c([H])c7F)c([H])c6[H])c(C(=O)N([H])[H])c5N([H])[H])C4([H])[H])C([H])([H])C3([H])[H])c([H])c([H])c2C1([H])[H]

>  <smiles>  (23) 
[H]c1c([H])c([H])c2c(c1[H])C([H])([H])C([H])([H])C([H])([H])C2([H])N([H])C(=O)C1([H])N(C(=O)C([H])(N([H])C(=O)C([H])(N([H])C([H])([H])[H])C([H])([H])[H])C(C([H])([H])[H])(C([H])([H])[H])C([H])([H])[H])C([H])([H])c2c([H])c(OC([H])([H])C([H])(C3([H])C([H])([H])C([H])([H])C([H])([H])C3([H])[H])[N+]3([H])C([H])([H])C([H])([H])N(C(=O)N4C([H])([H])C([H])([H])C([H])([H])C([H])(n5nc(-c6c([H])c([H])c(Oc7c([H])c([H])c(F)c([H])c7F)c([H])c6[H])c(C(=O)N([H])[H])c5N([H])[H])C4([H])[H])C([H])([H])C3([H])[H])c([H])c([H])c2C1([H])[H]

$$$$
23:0:0
     RDKit          3D

 98106  0  0  1  0  0  0  0  0999 V2000
  -30.7290  -21.4690   20.9630 C   0  0  0  0  0  2  0  0  0  0  0  0
  -30.7850  -19.9330   21.1780 C   0  0  0  0  0  2  0  0  0  0  0  0
  -29.0970  -19.6870   19.4770 C   0  0  0  0  0  2  0  0  0  0  0  0
  -29.0870  -21.2300   19.2530 C   0  0  0  0  0  3  0  0  0  0  0  0
  -27.7310  -21.6700   18.6720 C   0  0  0  0  0  1  0  0  0  0  0  0
  -29.4050  -21.9460   20.5100 N   0  0  0  0  0  0  0  0  0  0  0  0
  -30.4440  -19.2270   19.9180 N   0  0  2  0  0  4  0  0  0  0  0  0
  -31.0810  -19.6310   19.2500 H   0  0  0  0  0  0  0  0  0  0  0  0
  -29.4690  -23.4230   20.3570 C   0  0  0  0  0  2  0  0  0  0  0  0
  -28.1840  -24.1800   20.8020 C   0  0  0  0  0  2  0  0  0  0  0  0
  -28.3840  -25.6810   21.1730 C   0  0  0  0  0  2  0  0  0  0  0  0
  -28.3130  -26.6290   20.0900 O   0  0  0  0  0  0  0  0  0  0  0  0
  -24.5730  -31.8560   23.2010 C   0  0  0  0  0  0  0  0  0  0  0  0
  -27.1770  -27.4080   20.0930 C   0  0  0  0  0  0  0  0  0  0  0  0
  -23.3520  -30.4640   21.5590 C   0  0  0  0  0  3  0  0  0  0  0  0
  -24.7930  -28.9290   20.1150 C   0  0  0  0  0  0  0  0  0  0  0  0
  -25.8790  -30.8150   21.3470 C   0  0  0  0  0  2  0  0  0  0  0  0
  -25.9560  -29.4460   20.7010 C   0  0  0  0  0  0  0  0  0  0  0  0
  -27.1540  -28.6920   20.6870 C   0  0  0  0  0  3  0  0  0  0  0  0
  -26.0020  -26.9070   19.4970 C   0  0  0  0  0  3  0  0  0  0  0  0
  -24.8110  -27.6600   19.5080 C   0  0  0  0  0  3  0  0  0  0  0  0
  -23.5500  -29.7890   20.1760 C   0  0  0  0  0  2  0  0  0  0  0  0
  -24.6200  -31.0600   22.0940 N   0  0  0  0  0  0  0  0  0  0  0  0
  -23.4960  -32.1270   23.7510 O   0  0  0  0  0  0  0  0  0  0  0  0
  -22.7030  -29.4410   22.5200 C   0  0  0  0  0  0  0  0  0  0  0  0
  -21.3750  -29.2710   22.4060 N   0  0  0  0  0  0  0  0  0  0  0  0
  -23.3910  -28.8040   23.3220 O   0  0  0  0  0  0  0  0  0  0  0  0
  -20.8820  -29.8330   21.7270 H   0  0  0  0  0  0  0  0  0  0  0  0
  -17.9990  -28.0990   22.9330 C   0  0  0  0  0  0  0  0  0  0  0  0
  -20.5610  -28.3330   23.1770 C   0  0  0  0  0  3  0  0  0  0  0  0
  -20.6460  -26.9070   22.5870 C   0  0  0  0  0  2  0  0  0  0  0  0
  -19.5300  -26.6030   21.5820 C   0  0  0  0  0  2  0  0  0  0  0  0
  -18.1560  -26.7540   22.2410 C   0  0  0  0  0  2  0  0  0  0  0  0
  -19.1280  -28.8480   23.3570 C   0  0  0  0  0  0  0  0  0  0  0  0
  -18.9280  -30.1070   23.9610 C   0  0  0  0  0  3  0  0  0  0  0  0
  -17.6290  -30.6190   24.1440 C   0  0  0  0  0  3  0  0  0  0  0  0
  -16.5140  -29.8670   23.7370 C   0  0  0  0  0  3  0  0  0  0  0  0
  -16.6990  -28.6080   23.1370 C   0  0  0  0  0  3  0  0  0  0  0  0
  -25.8650  -32.4790   23.8160 C   0  0  0  0  0  3  0  0  0  0  0  0
  -26.3940  -31.6950   25.0800 C   0  0  1  0  0  0  0  0  0  0  0  0
  -25.3110  -31.4480   26.1570 C   0  0  0  0  0  1  0  0  0  0  0  0
  -26.9700  -30.3210   24.6660 C   0  0  0  0  0  1  0  0  0  0  0  0
  -27.5520  -32.4790   25.7390 C   0  0  0  0  0  1  0  0  0  0  0  0
  -25.5620  -33.8740   24.1600 N   0  0  0  0  0  0  0  0  0  0  0  0
  -25.8950  -34.9320   23.4090 C   0  0  0  0  0  0  0  0  0  0  0  0
  -26.5590  -34.8360   22.3730 O   0  0  0  0  0  0  0  0  0  0  0  0
  -24.9730  -34.0240   24.9670 H   0  0  0  0  0  0  0  0  0  0  0  0
  -24.1700  -36.7330   23.0740 C   0  0  0  0  0  1  0  0  0  0  0  0
  -25.4120  -36.3170   23.8790 C   0  0  0  0  0  3  0  0  0  0  0  0
  -27.5500  -37.1870   24.7140 C   0  0  0  0  0  1  0  0  0  0  0  0
  -26.4470  -37.3690   23.7730 N   0  0  0  0  0  0  0  0  0  0  0  0
  -26.0440  -38.2880   23.9310 H   0  0  0  0  0  0  0  0  0  0  0  0
  -30.7160  -17.7370   19.8940 C   0  0  0  0  0  3  0  0  0  0  0  0
  -30.5950  -17.1250   18.4590 C   0  0  0  0  0  2  0  0  0  0  0  0
  -31.6750  -17.6220   17.4650 C   0  0  0  0  0  2  0  0  0  0  0  0
  -31.6820  -16.8770   16.1910 N   0  0  0  0  0  4  0  0  0  0  0  0
  -31.8560  -15.8980   16.3360 H   0  0  0  0  0  0  0  0  0  0  0  0
  -32.4170  -17.2260   15.6000 H   0  0  0  0  0  0  0  0  0  0  0  0
  -30.8160  -16.9810   15.6920 H   0  0  0  0  0  0  0  0  0  0  0  0
  -29.9360  -16.9590   21.0080 C   0  0  0  0  0  2  0  0  0  0  0  0
  -30.7180  -14.5150   20.5750 C   0  0  0  0  0  0  0  0  0  0  0  0
  -30.5020  -12.3720   19.3680 C   0  0  0  0  0  2  0  0  0  0  0  0
  -29.5690  -12.6040   18.1580 C   0  0  0  0  0  2  0  0  0  0  0  0
  -28.0840  -12.4710   18.5570 C   0  0  0  0  0  2  0  0  0  0  0  0
  -27.7310  -13.2740   19.8340 C   0  0  0  0  0  3  0  0  0  0  0  0
  -28.7620  -12.9850   20.9510 C   0  0  0  0  0  2  0  0  0  0  0  0
  -30.1000  -13.3130   20.4240 N   0  0  0  0  0  0  0  0  0  0  0  0
  -31.8640  -14.7540   20.1870 O   0  0  0  0  0  0  0  0  0  0  0  0
  -29.8620  -15.4860   20.9500 N   0  0  0  0  0  0  0  0  0  0  0  0
  -28.9590  -15.1150   21.2100 H   0  0  0  0  0  0  0  0  0  0  0  0
  -25.3150  -13.9090   20.4610 C   0  0  0  0  0  0  0  0  0  0  0  0
  -24.2340  -13.1490   20.8140 C   0  0  0  0  0  0  0  0  0  0  0  0
  -24.6910  -11.7940   20.8210 C   0  0  0  0  0  0  0  0  0  0  0  0
  -26.3630  -13.0190   20.2750 N   0  0  0  0  0  0  0  0  0  0  0  0
  -25.9880  -11.7440   20.5470 N   0  0  0  0  0  0  0  0  0  0  0  0
  -23.9560  -10.5380   21.0150 C   0  0  0  0  0  0  0  0  0  0  0  0
  -24.3710   -9.5800   21.9650 C   0  0  0  0  0  3  0  0  0  0  0  0
  -23.6400   -8.3870   22.1430 C   0  0  0  0  0  3  0  0  0  0  0  0
  -22.4780   -8.1440   21.3720 C   0  0  0  0  0  0  0  0  0  0  0  0
  -22.0810   -9.0920   20.4130 C   0  0  0  0  0  3  0  0  0  0  0  0
  -22.8130  -10.2770   20.2330 C   0  0  0  0  0  3  0  0  0  0  0  0
  -21.7200   -7.0010   21.4580 O   0  0  0  0  0  0  0  0  0  0  0  0
  -21.6590   -6.2640   22.6130 C   0  0  0  0  0  0  0  0  0  0  0  0
  -21.2380   -6.8300   23.8370 C   0  0  0  0  0  3  0  0  0  0  0  0
  -21.1230   -6.0180   24.9840 C   0  0  0  0  0  3  0  0  0  0  0  0
  -21.4210   -4.6440   24.9090 C   0  0  0  0  0  0  0  0  0  0  0  0
  -21.8350   -4.0790   23.6890 C   0  0  0  0  0  3  0  0  0  0  0  0
  -21.9530   -4.8880   22.5450 C   0  0  0  0  0  0  0  0  0  0  0  0
  -22.3320   -4.3340   21.3680 F   0  0  0  0  0  0  0  0  0  0  0  0
  -21.3040   -3.8630   26.0090 F   0  0  0  0  0  0  0  0  0  0  0  0
  -22.8310  -13.6340   21.0400 C   0  0  0  0  0  0  0  0  0  0  0  0
  -22.0810  -12.9570   21.9020 N   0  0  0  0  0  0  0  0  0  0  0  0
  -22.4080  -14.6510   20.4900 O   0  0  0  0  0  0  0  0  0  0  0  0
  -22.4350  -12.1350   22.3690 H   0  0  0  0  0  0  0  0  0  0  0  0
  -21.1380  -13.2640   22.0970 H   0  0  0  0  0  0  0  0  0  0  0  0
  -25.4910  -15.2760   20.2630 N   0  0  0  0  0  0  0  0  0  0  0  0
  -24.7180  -15.9300   20.3320 H   0  0  0  0  0  0  0  0  0  0  0  0
  -26.3370  -15.6970   19.9030 H   0  0  0  0  0  0  0  0  0  0  0  0
  1  2  1  0
  3  7  1  0
  4  5  1  0
  4  3  1  0
  4  6  1  0
  6  1  1  0
  7  2  1  0
  7  8  1  6
  9  6  1  0
  9 10  1  0
 10 11  1  0
 12 14  1  0
 12 11  1  0
 13 24  2  0
 14 19  1  0
 15 23  1  0
 15 25  1  0
 16 22  1  0
 16 18  1  0
 17 23  1  0
 18 17  1  0
 19 18  2  0
 20 21  1  0
 20 14  2  0
 21 16  2  0
 22 15  1  0
 23 13  1  0
 25 27  2  0
 26 25  1  0
 28 26  1  0
 29 38  2  0
 29 34  1  0
 30 26  1  0
 30 34  1  0
 31 30  1  0
 32 33  1  0
 32 31  1  0
 33 29  1  0
 34 35  2  0
 35 36  1  0
 37 36  2  0
 38 37  1  0
 39 13  1  0
 39 44  1  0
 39 40  1  0
 40 43  1  1
 40 41  1  0
 42 40  1  0
 44 47  1  0
 45 49  1  0
 45 44  1  0
 46 45  2  0
 49 48  1  0
 51 49  1  0
 51 52  1  0
 51 50  1  0
 53 54  1  0
 53  7  1  0
 53 60  1  0
 55 54  1  0
 56 57  1  0
 56 55  1  0
 58 56  1  0
 59 56  1  0
 61 69  1  0
 62 67  1  0
 63 64  1  0
 63 62  1  0
 65 64  1  0
 65 74  1  0
 65 66  1  0
 67 61  1  0
 67 66  1  0
 68 61  2  0
 69 60  1  0
 69 70  1  0
 71 72  2  0
 72 73  1  0
 72 91  1  0
 73 76  1  0
 74 71  1  0
 74 75  1  0
 75 73  2  0
 76 77  1  0
 77 78  2  0
 79 82  1  0
 79 78  1  0
 80 79  2  0
 81 80  1  0
 81 76  2  0
 82 83  1  0
 83 84  1  0
 84 85  2  0
 86 85  1  0
 86 90  1  0
 87 86  2  0
 88 83  2  0
 88 87  1  0
 89 88  1  0
 91 92  1  0
 92 95  1  0
 92 94  1  0
 93 91  2  0
 96 97  1  0
 96 71  1  0
 98 96  1  0
M  ISO  4  11 101  12 101  61 100  69 100
M  END
>  <TORSDO>  (24) 
F 24

>  <SCORE>  (24) 
-12.958

>  <name>  (24) 
23

>  <ligand_id>  (24) 
23

>  <original_smiles>  (24) 
[H]c1c([H])c([H])c2c(c1[H])C([H])([H])C([H])([H])C([H])([H])C2([H])N([H])C(=O)C1([H])N(C(=O)C([H])(N([H])C(=O)C([H])(N([H])C([H])([H])[H])C([H])([H])[H])C(C([H])([H])[H])(C([H])([H])[H])C([H])([H])[H])C([H])([H])c2c([H])c(OC([H])([H])C([H])([H])C([H])([H])N3C([H])([H])C([H])([H])[N+]([H])(C([H])(C([H])([H])N([H])C(=O)N4C([H])([H])C([H])([H])C([H])([H])C([H])(n5nc(-c6c([H])c([H])c(Oc7c([H])c([H])c(F)c([H])c7F)c([H])c6[H])c(C(=O)N([H])[H])c5N([H])[H])C4([H])[H])C([H])([H])C([H])([H])[N+]([H])([H])[H])C([H])([H])C3([H])C([H])([H])[H])c([H])c([H])c2C1([H])[H]

>  <smiles>  (24) 
[H]c1c([H])c([H])c2c(c1[H])C([H])([H])C([H])([H])C([H])([H])C2([H])N([H])C(=O)C1([H])N(C(=O)C([H])(N([H])C(=O)C([H])(N([H])C([H])([H])[H])C([H])([H])[H])C(C([H])([H])[H])(C([H])([H])[H])C([H])([H])[H])C([H])([H])c2c([H])c(OC([H])([H])C([H])([H])C([H])([H])N3C([H])([H])C([H])([H])[N+]([H])(C([H])(C([H])([H])N([H])C(=O)N4C([H])([H])C([H])([H])C([H])([H])C([H])(n5nc(-c6c([H])c([H])c(Oc7c([H])c([H])c(F)c([H])c7F)c([H])c6[H])c(C(=O)N([H])[H])c5N([H])[H])C4([H])[H])C([H])([H])C([H])([H])[N+]([H])([H])[H])C([H])([H])C3([H])C([H])([H])[H])c([H])c([H])c2C1([H])[H]

$$$$
24:0:0
     RDKit          3D

 91100  0  0  1  0  0  0  0  0999 V2000
  -30.6250  -15.5000   20.3200 C   0  0  0  0  0  0  0  0  0  0  0  0
  -30.5110  -13.0520   19.4930 C   0  0  0  0  0  2  0  0  0  0  0  0
  -29.6040  -12.8380   18.2570 C   0  0  0  0  0  2  0  0  0  0  0  0
  -28.1450  -12.5960   18.6840 C   0  0  0  0  0  2  0  0  0  0  0  0
  -27.6830  -13.5840   19.7820 C   0  0  0  0  0  3  0  0  0  0  0  0
  -28.7290  -13.7840   20.9040 C   0  0  0  0  0  2  0  0  0  0  0  0
  -29.9830  -14.2300   20.2620 N   0  0  0  0  0  0  0  0  0  0  0  0
  -31.8610  -15.4130   20.3240 O   0  0  0  0  0  0  0  0  0  0  0  0
  -29.9380  -17.3060   17.6650 C   0  0  0  0  0  2  0  0  0  0  0  0
  -30.4650  -18.7330   17.8120 C   0  0  0  0  0  2  0  0  0  0  0  0
  -31.7350  -20.3740   19.3240 C   0  0  0  0  0  2  0  0  0  0  0  0
  -30.7050  -21.5280   19.1340 C   0  0  0  0  0  2  0  0  0  0  0  0
  -29.3470  -19.8370   20.6660 C   0  0  0  0  0  2  0  0  0  0  0  0
  -29.1320  -16.8560   18.9010 C   0  0  0  0  0  2  0  0  0  0  0  0
  -31.2200  -18.9140   19.1360 C   0  0  0  0  0  3  0  0  0  0  0  0
  -29.4300  -21.4780   20.0120 C   0  0  0  0  0  3  0  0  0  0  0  0
  -30.3420  -18.4280   20.3140 C   0  0  0  0  0  3  0  0  0  0  0  0
  -29.9520  -16.8190   20.1290 N   0  0  0  0  0  0  0  0  0  0  0  0
  -25.3140  -14.2360   20.4400 C   0  0  0  0  0  0  0  0  0  0  0  0
  -24.2210  -13.4950   20.7870 C   0  0  0  0  0  0  0  0  0  0  0  0
  -24.6610  -12.1370   20.8210 C   0  0  0  0  0  0  0  0  0  0  0  0
  -26.3430  -13.3250   20.2730 N   0  0  0  0  0  0  0  0  0  0  0  0
  -25.9610  -12.0600   20.5660 N   0  0  0  0  0  0  0  0  0  0  0  0
  -23.9060  -10.8960   21.0220 C   0  0  0  0  0  0  0  0  0  0  0  0
  -24.2980   -9.9420   21.9850 C   0  0  0  0  0  3  0  0  0  0  0  0
  -23.5410   -8.7660   22.1750 C   0  0  0  0  0  3  0  0  0  0  0  0
  -22.3790   -8.5370   21.3990 C   0  0  0  0  0  0  0  0  0  0  0  0
  -22.0070   -9.4800   20.4250 C   0  0  0  0  0  3  0  0  0  0  0  0
  -22.7650  -10.6470   20.2330 C   0  0  0  0  0  3  0  0  0  0  0  0
  -21.5970   -7.4120   21.4990 O   0  0  0  0  0  0  0  0  0  0  0  0
  -21.5420   -6.6770   22.6540 C   0  0  0  0  0  0  0  0  0  0  0  0
  -21.1440   -7.2470   23.8830 C   0  0  0  0  0  3  0  0  0  0  0  0
  -21.0330   -6.4390   25.0320 C   0  0  0  0  0  3  0  0  0  0  0  0
  -21.3100   -5.0610   24.9530 C   0  0  0  0  0  0  0  0  0  0  0  0
  -21.7020   -4.4900   23.7290 C   0  0  0  0  0  3  0  0  0  0  0  0
  -21.8160   -5.2950   22.5830 C   0  0  0  0  0  0  0  0  0  0  0  0
  -22.1730   -4.7370   21.4020 F   0  0  0  0  0  0  0  0  0  0  0  0
  -21.1960   -4.2820   26.0550 F   0  0  0  0  0  0  0  0  0  0  0  0
  -22.8240  -14.0090   20.9800 C   0  0  0  0  0  0  0  0  0  0  0  0
  -22.0590  -13.3780   21.8620 N   0  0  0  0  0  0  0  0  0  0  0  0
  -22.4220  -15.0070   20.3830 O   0  0  0  0  0  0  0  0  0  0  0  0
  -22.3980  -12.5720   22.3650 H   0  0  0  0  0  0  0  0  0  0  0  0
  -21.1200  -13.7080   22.0380 H   0  0  0  0  0  0  0  0  0  0  0  0
  -25.5130  -15.5980   20.2260 N   0  0  0  0  0  0  0  0  0  0  0  0
  -24.7590  -16.2740   20.2910 H   0  0  0  0  0  0  0  0  0  0  0  0
  -26.3990  -16.0170   19.9750 H   0  0  0  0  0  0  0  0  0  0  0  0
  -29.1030  -23.0950   20.6980 C   0  0  0  0  0  3  0  0  0  0  0  0
  -26.7140  -22.5790   21.5590 C   0  0  0  0  0  1  0  0  0  0  0  0
  -28.1760  -22.8930   21.9130 C   0  0  0  0  0  2  0  0  0  0  0  0
  -28.6360  -24.6400   19.9340 C   0  0  0  0  0  2  0  0  0  0  0  0
  -28.6140  -26.2060   20.3980 O   0  0  0  0  0  0  0  0  0  0  0  0
  -24.5870  -31.8420   23.2560 C   0  0  0  0  0  0  0  0  0  0  0  0
  -27.5580  -27.2370   20.2440 C   0  0  0  0  0  0  0  0  0  0  0  0
  -23.5720  -30.4790   21.4730 C   0  0  0  0  0  3  0  0  0  0  0  0
  -25.1870  -29.0010   20.0930 C   0  0  0  0  0  0  0  0  0  0  0  0
  -26.1270  -30.8020   21.5280 C   0  0  0  0  0  2  0  0  0  0  0  0
  -26.3030  -29.4290   20.8230 C   0  0  0  0  0  0  0  0  0  0  0  0
  -27.4800  -28.5660   20.8790 C   0  0  0  0  0  3  0  0  0  0  0  0
  -26.4160  -26.9560   19.4580 C   0  0  0  0  0  3  0  0  0  0  0  0
  -25.2680  -27.7860   19.3930 C   0  0  0  0  0  3  0  0  0  0  0  0
  -23.9290  -29.8680   20.0900 C   0  0  0  0  0  2  0  0  0  0  0  0
  -24.7790  -31.0650   22.1430 N   0  0  0  0  0  0  0  0  0  0  0  0
  -23.4520  -32.0680   23.7070 O   0  0  0  0  0  0  0  0  0  0  0  0
  -22.8520  -29.4140   22.3410 C   0  0  0  0  0  0  0  0  0  0  0  0
  -21.5230  -29.2720   22.1750 N   0  0  0  0  0  0  0  0  0  0  0  0
  -23.4950  -28.7180   23.1310 O   0  0  0  0  0  0  0  0  0  0  0  0
  -21.0590  -29.8870   21.5220 H   0  0  0  0  0  0  0  0  0  0  0  0
  -18.1050  -28.1400   22.6130 C   0  0  0  0  0  0  0  0  0  0  0  0
  -20.6770  -28.2850   22.8540 C   0  0  0  0  0  3  0  0  0  0  0  0
  -20.7160  -26.9240   22.1230 C   0  0  0  0  0  2  0  0  0  0  0  0
  -19.5880  -26.7550   21.0990 C   0  0  0  0  0  2  0  0  0  0  0  0
  -18.2220  -26.8730   21.7830 C   0  0  0  0  0  2  0  0  0  0  0  0
  -19.2590  -28.8120   23.1020 C   0  0  0  0  0  0  0  0  0  0  0  0
  -19.0940  -30.0020   23.8420 C   0  0  0  0  0  3  0  0  0  0  0  0
  -17.8090  -30.5220   24.0960 C   0  0  0  0  0  3  0  0  0  0  0  0
  -16.6720  -29.8470   23.6200 C   0  0  0  0  0  3  0  0  0  0  0  0
  -16.8210  -28.6570   22.8850 C   0  0  0  0  0  3  0  0  0  0  0  0
  -25.7830  -32.5020   24.0070 C   0  0  0  0  0  3  0  0  0  0  0  0
  -25.4050  -33.8880   24.3330 N   0  0  0  0  0  0  0  0  0  0  0  0
  -25.7630  -34.9680   23.6260 C   0  0  0  0  0  0  0  0  0  0  0  0
  -26.5130  -34.9040   22.6480 O   0  0  0  0  0  0  0  0  0  0  0  0
  -24.7470  -34.0070   25.0900 H   0  0  0  0  0  0  0  0  0  0  0  0
  -24.0120  -36.7250   23.1940 C   0  0  0  0  0  1  0  0  0  0  0  0
  -25.2080  -36.3350   24.0770 C   0  0  0  0  0  3  0  0  0  0  0  0
  -27.2550  -37.2670   25.0670 C   0  0  0  0  0  1  0  0  0  0  0  0
  -26.2160  -37.4190   24.0520 N   0  0  0  0  0  0  0  0  0  0  0  0
  -25.7730  -38.3240   24.1880 H   0  0  0  0  0  0  0  0  0  0  0  0
  -26.1920  -31.7280   25.3220 C   0  0  1  0  0  0  0  0  0  0  0  0
  -25.0070  -31.4620   26.2820 C   0  0  0  0  0  1  0  0  0  0  0  0
  -26.8330  -30.3620   24.9820 C   0  0  0  0  0  1  0  0  0  0  0  0
  -27.2630  -32.5360   26.0930 C   0  0  0  0  0  1  0  0  0  0  0  0
  1  8  2  0
  2  7  1  0
  3  4  1  0
  3  2  1  0
  5  4  1  0
  5 22  1  0
  5  6  1  0
  7  1  1  0
  7  6  1  0
  9 10  1  0
  9 14  1  0
 12 11  1  0
 12 16  1  0
 14 18  1  0
 15 10  1  0
 15 11  1  0
 15 17  1  0
 16 13  1  0
 16 47  1  0
 17 13  1  0
 18 17  1  0
 18  1  1  0
 19 20  2  0
 20 21  1  0
 20 39  1  0
 21 24  1  0
 22 19  1  0
 22 23  1  0
 23 21  2  0
 24 25  1  0
 25 26  2  0
 27 30  1  0
 27 26  1  0
 28 27  2  0
 29 28  1  0
 29 24  2  0
 30 31  1  0
 31 32  1  0
 32 33  2  0
 34 33  1  0
 34 38  1  0
 35 34  2  0
 36 31  2  0
 36 35  1  0
 37 36  1  0
 39 40  1  0
 40 43  1  0
 40 42  1  0
 41 39  2  0
 44 45  1  0
 44 19  1  0
 46 44  1  0
 47 50  1  0
 47 49  1  0
 48 49  1  0
 50 51  1  0
 52 63  2  0
 53 51  1  0
 53 58  1  0
 54 62  1  0
 54 64  1  0
 55 57  1  0
 56 62  1  0
 57 58  2  0
 57 56  1  0
 59 53  2  0
 60 59  1  0
 60 55  2  0
 61 55  1  0
 61 54  1  0
 62 52  1  0
 64 66  2  0
 65 64  1  0
 67 65  1  0
 68 77  2  0
 68 73  1  0
 69 65  1  0
 69 73  1  0
 70 69  1  0
 71 72  1  0
 71 70  1  0
 72 68  1  0
 73 74  2  0
 74 75  1  0
 76 75  2  0
 77 76  1  0
 78 52  1  0
 78 79  1  0
 78 88  1  0
 79 82  1  0
 80 84  1  0
 80 79  1  0
 81 80  2  0
 84 83  1  0
 86 84  1  0
 86 87  1  0
 86 85  1  0
 88 91  1  1
 88 89  1  0
 90 88  1  0
M  ISO  4   1 100  18 100  50 101  51 101
M  END
>  <TORSDO>  (25) 
F 18

>  <SCORE>  (25) 
-14.485

>  <name>  (25) 
24

>  <ligand_id>  (25) 
24

>  <original_smiles>  (25) 
[H]c1c([H])c([H])c2c(c1[H])C([H])([H])C([H])([H])C([H])([H])C2([H])N([H])C(=O)C1([H])N(C(=O)C([H])(N([H])C(=O)C([H])(N([H])C([H])([H])[H])C([H])([H])[H])C(C([H])([H])[H])(C([H])([H])[H])C([H])([H])[H])C([H])([H])c2c([H])c(OC([H])([H])C([H])(C([H])([H])C([H])([H])[H])C3([H])C([H])([H])C([H])([H])C4([H])C([H])([H])C([H])([H])C([H])([H])N(C(=O)N5C([H])([H])C([H])([H])C([H])([H])C([H])(n6nc(-c7c([H])c([H])c(Oc8c([H])c([H])c(F)c([H])c8F)c([H])c7[H])c(C(=O)N([H])[H])c6N([H])[H])C5([H])[H])C4([H])C3([H])[H])c([H])c([H])c2C1([H])[H]

>  <smiles>  (25) 
[H]c1c([H])c([H])c2c(c1[H])C([H])([H])C([H])([H])C([H])([H])C2([H])N([H])C(=O)C1([H])N(C(=O)C([H])(N([H])C(=O)C([H])(N([H])C([H])([H])[H])C([H])([H])[H])C(C([H])([H])[H])(C([H])([H])[H])C([H])([H])[H])C([H])([H])c2c([H])c(OC([H])([H])C([H])(C([H])([H])C([H])([H])[H])C3([H])C([H])([H])C([H])([H])C4([H])C([H])([H])C([H])([H])C([H])([H])N(C(=O)N5C([H])([H])C([H])([H])C([H])([H])C([H])(n6nc(-c7c([H])c([H])c(Oc8c([H])c([H])c(F)c([H])c8F)c([H])c7[H])c(C(=O)N([H])[H])c6N([H])[H])C5([H])[H])C4([H])C3([H])[H])c([H])c([H])c2C1([H])[H]

$$$$
25:0:0
     RDKit          3D

 92100  0  0  1  0  0  0  0  0999 V2000
  -28.4970  -21.7650   20.5630 C   0  0  0  0  0  0  0  0  0  0  0  0
  -30.2580  -23.0410   19.7110 C   0  0  0  0  0  2  0  0  0  0  0  0
  -30.6640  -21.5460   19.9880 C   0  0  0  0  0  2  0  0  0  0  0  0
  -28.9750  -23.3280   20.5030 C   0  0  0  0  0  3  0  0  0  0  0  0
  -29.4600  -20.7640   20.3160 N   0  0  0  0  0  0  0  0  0  0  0  0
  -27.3430  -21.4900   20.9000 O   0  0  0  0  0  0  0  0  0  0  0  0
  -28.0260  -24.6830   20.0820 C   0  0  0  0  0  2  0  0  0  0  0  0
  -28.2810  -26.2220   20.2890 O   0  0  0  0  0  0  0  0  0  0  0  0
  -24.6100  -31.9300   23.2250 C   0  0  0  0  0  0  0  0  0  0  0  0
  -27.2260  -27.2110   20.2090 C   0  0  0  0  0  0  0  0  0  0  0  0
  -23.4220  -30.5170   21.5930 C   0  0  0  0  0  3  0  0  0  0  0  0
  -24.8840  -28.9500   20.1690 C   0  0  0  0  0  0  0  0  0  0  0  0
  -25.9750  -30.8000   21.4260 C   0  0  0  0  0  2  0  0  0  0  0  0
  -26.0600  -29.4050   20.7770 C   0  0  0  0  0  0  0  0  0  0  0  0
  -27.2310  -28.5530   20.7790 C   0  0  0  0  0  3  0  0  0  0  0  0
  -26.0210  -26.8660   19.5570 C   0  0  0  0  0  3  0  0  0  0  0  0
  -24.8780  -27.6950   19.5420 C   0  0  0  0  0  3  0  0  0  0  0  0
  -23.6490  -29.8380   20.2160 C   0  0  0  0  0  2  0  0  0  0  0  0
  -24.6890  -31.1050   22.1350 N   0  0  0  0  0  0  0  0  0  0  0  0
  -23.5210  -32.2070   23.7520 O   0  0  0  0  0  0  0  0  0  0  0  0
  -22.7520  -29.5080   22.5590 C   0  0  0  0  0  0  0  0  0  0  0  0
  -21.4250  -29.3280   22.4360 N   0  0  0  0  0  0  0  0  0  0  0  0
  -23.4300  -28.8900   23.3850 O   0  0  0  0  0  0  0  0  0  0  0  0
  -20.9340  -29.8770   21.7460 H   0  0  0  0  0  0  0  0  0  0  0  0
  -18.0550  -28.1020   22.9510 C   0  0  0  0  0  0  0  0  0  0  0  0
  -20.6120  -28.3860   23.2120 C   0  0  0  0  0  3  0  0  0  0  0  0
  -20.7240  -26.9520   22.6430 C   0  0  0  0  0  2  0  0  0  0  0  0
  -19.6230  -26.6170   21.6310 C   0  0  0  0  0  2  0  0  0  0  0  0
  -18.2410  -26.7530   22.2770 C   0  0  0  0  0  2  0  0  0  0  0  0
  -19.1670  -28.8760   23.3750 C   0  0  0  0  0  0  0  0  0  0  0  0
  -18.9370  -30.1370   23.9670 C   0  0  0  0  0  3  0  0  0  0  0  0
  -17.6290  -30.6240   24.1370 C   0  0  0  0  0  3  0  0  0  0  0  0
  -16.5300  -29.8480   23.7280 C   0  0  0  0  0  3  0  0  0  0  0  0
  -16.7440  -28.5880   23.1410 C   0  0  0  0  0  3  0  0  0  0  0  0
  -25.8820  -32.5810   23.8490 C   0  0  0  0  0  3  0  0  0  0  0  0
  -25.5600  -33.9820   24.1640 N   0  0  0  0  0  0  0  0  0  0  0  0
  -25.9010  -35.0340   23.4080 C   0  0  0  0  0  0  0  0  0  0  0  0
  -26.5850  -34.9280   22.3880 O   0  0  0  0  0  0  0  0  0  0  0  0
  -24.9520  -34.1370   24.9560 H   0  0  0  0  0  0  0  0  0  0  0  0
  -24.1860  -36.8350   23.0140 C   0  0  0  0  0  1  0  0  0  0  0  0
  -25.4070  -36.4250   23.8550 C   0  0  0  0  0  3  0  0  0  0  0  0
  -27.5200  -37.3090   24.7410 C   0  0  0  0  0  1  0  0  0  0  0  0
  -26.4450  -37.4760   23.7680 N   0  0  0  0  0  0  0  0  0  0  0  0
  -26.0360  -38.3980   23.9000 H   0  0  0  0  0  0  0  0  0  0  0  0
  -26.3910  -31.8310   25.1420 C   0  0  1  0  0  0  0  0  0  0  0  0
  -25.2890  -31.6040   26.2050 C   0  0  0  0  0  1  0  0  0  0  0  0
  -26.9830  -30.4500   24.7800 C   0  0  0  0  0  1  0  0  0  0  0  0
  -27.5320  -32.6410   25.8010 C   0  0  0  0  0  1  0  0  0  0  0  0
  -29.5660  -19.2340   20.7950 C   0  0  0  0  0  2  0  0  0  0  0  0
  -29.9950  -17.8540   19.8920 C   0  0  0  0  0  0  0  0  0  0  0  0
  -30.7460  -15.1260   20.2750 C   0  0  0  0  0  0  0  0  0  0  0  0
  -30.6120  -12.7760   19.3250 C   0  0  0  0  0  2  0  0  0  0  0  0
  -29.6890  -12.7550   18.0850 C   0  0  0  0  0  2  0  0  0  0  0  0
  -28.2230  -12.5440   18.5060 C   0  0  0  0  0  2  0  0  0  0  0  0
  -27.8140  -13.4520   19.6960 C   0  0  0  0  0  3  0  0  0  0  0  0
  -28.8640  -13.4520   20.8280 C   0  0  0  0  0  2  0  0  0  0  0  0
  -30.1390  -13.8670   20.2310 N   0  0  0  0  0  0  0  0  0  0  0  0
  -31.9490  -15.1460   20.0040 O   0  0  0  0  0  0  0  0  0  0  0  0
  -29.9720  -16.3260   20.4090 N   0  0  0  0  0  4  0  0  0  0  0  0
  -29.0490  -16.0870   20.7380 H   0  0  0  0  0  0  0  0  0  0  0  0
  -25.4230  -14.0220   20.4030 C   0  0  0  0  0  0  0  0  0  0  0  0
  -24.3610  -13.2440   20.7710 C   0  0  0  0  0  0  0  0  0  0  0  0
  -24.8330  -11.8960   20.7620 C   0  0  0  0  0  0  0  0  0  0  0  0
  -26.4740  -13.1470   20.1840 N   0  0  0  0  0  0  0  0  0  0  0  0
  -26.1280  -11.8640   20.4670 N   0  0  0  0  0  0  0  0  0  0  0  0
  -24.1100  -10.6320   20.9590 C   0  0  0  0  0  0  0  0  0  0  0  0
  -24.5280   -9.6830   21.9180 C   0  0  0  0  0  3  0  0  0  0  0  0
  -23.8040   -8.4860   22.1020 C   0  0  0  0  0  3  0  0  0  0  0  0
  -22.6480   -8.2270   21.3270 C   0  0  0  0  0  0  0  0  0  0  0  0
  -22.2500   -9.1650   20.3580 C   0  0  0  0  0  3  0  0  0  0  0  0
  -22.9750  -10.3550   20.1720 C   0  0  0  0  0  3  0  0  0  0  0  0
  -21.8980   -7.0800   21.4200 O   0  0  0  0  0  0  0  0  0  0  0  0
  -21.8170   -6.3650   22.5880 C   0  0  0  0  0  0  0  0  0  0  0  0
  -21.3380   -6.9430   23.7840 C   0  0  0  0  0  3  0  0  0  0  0  0
  -21.2060   -6.1520   24.9430 C   0  0  0  0  0  3  0  0  0  0  0  0
  -21.5430   -4.7870   24.9070 C   0  0  0  0  0  0  0  0  0  0  0  0
  -22.0140   -4.2080   23.7150 C   0  0  0  0  0  3  0  0  0  0  0  0
  -22.1480   -4.9950   22.5580 C   0  0  0  0  0  0  0  0  0  0  0  0
  -22.5820   -4.4280   21.4070 F   0  0  0  0  0  0  0  0  0  0  0  0
  -21.4090   -4.0250   26.0180 F   0  0  0  0  0  0  0  0  0  0  0  0
  -22.9570  -13.7170   21.0170 C   0  0  0  0  0  0  0  0  0  0  0  0
  -22.2250  -13.0340   21.8900 N   0  0  0  0  0  0  0  0  0  0  0  0
  -22.5200  -14.7280   20.4700 O   0  0  0  0  0  0  0  0  0  0  0  0
  -22.5920  -12.2180   22.3550 H   0  0  0  0  0  0  0  0  0  0  0  0
  -21.2830  -13.3350   22.0970 H   0  0  0  0  0  0  0  0  0  0  0  0
  -25.5790  -15.3910   20.2090 N   0  0  0  0  0  0  0  0  0  0  0  0
  -24.8030  -16.0370   20.2970 H   0  0  0  0  0  0  0  0  0  0  0  0
  -26.4160  -15.8280   19.8430 H   0  0  0  0  0  0  0  0  0  0  0  0
  -31.2080  -17.2520   17.6760 C   0  0  0  0  0  1  0  0  0  0  0  0
  -31.1490  -18.1840   18.9050 C   0  0  0  0  0  3  0  0  0  0  0  0
  -33.5940  -18.9830   18.6940 C   0  0  0  0  0  1  0  0  0  0  0  0
  -32.5160  -18.3710   19.6000 C   0  0  0  0  0  2  0  0  0  0  0  0
  1  6  2  0
  2  3  1  0
  2  4  1  0
  3  5  1  0
  4  7  1  0
  4  1  1  0
  5  1  1  0
  5 49  1  0
  7  8  1  0
  9 20  2  0
 10  8  1  0
 10 15  1  0
 11 19  1  0
 11 21  1  0
 12 18  1  0
 12 14  1  0
 13 19  1  0
 14 15  2  0
 14 13  1  0
 16 10  2  0
 17 16  1  0
 17 12  2  0
 18 11  1  0
 19  9  1  0
 21 23  2  0
 22 21  1  0
 24 22  1  0
 25 34  2  0
 25 30  1  0
 26 22  1  0
 26 30  1  0
 27 26  1  0
 28 29  1  0
 28 27  1  0
 29 25  1  0
 30 31  2  0
 31 32  1  0
 33 32  2  0
 34 33  1  0
 35  9  1  0
 35 36  1  0
 35 45  1  0
 36 39  1  0
 37 41  1  0
 37 36  1  0
 38 37  2  0
 41 40  1  0
 43 41  1  0
 43 44  1  0
 43 42  1  0
 45 48  1  1
 45 46  1  0
 47 45  1  0
 50 59  2  0
 50 49  1  0
 51 59  1  0
 52 57  1  0
 53 54  1  0
 53 52  1  0
 55 54  1  0
 55 64  1  0
 55 56  1  0
 57 51  1  0
 57 56  1  0
 58 51  2  0
 59 60  1  0
 61 62  2  0
 62 81  1  0
 63 62  1  0
 63 66  1  0
 64 61  1  0
 64 65  1  0
 65 63  2  0
 66 67  1  0
 67 68  2  0
 69 72  1  0
 69 68  1  0
 70 69  2  0
 71 70  1  0
 71 66  2  0
 72 73  1  0
 73 74  1  0
 74 75  2  0
 76 75  1  0
 76 80  1  0
 77 76  2  0
 78 73  2  0
 78 77  1  0
 79 78  1  0
 81 82  1  0
 82 85  1  0
 82 84  1  0
 83 81  2  0
 86 87  1  0
 86 61  1  0
 88 86  1  0
 90 89  1  0
 90 92  1  0
 90 50  1  0
 91 92  1  0
M  ISO  4   7 101   8 101  51 100  59 100
M  END
>  <TORSDO>  (26) 
F 21

>  <SCORE>  (26) 
-14.309

>  <name>  (26) 
25

>  <ligand_id>  (26) 
25

>  <original_smiles>  (26) 
[H]c1c([H])c([H])c2c(c1[H])C([H])([H])C([H])([H])C([H])([H])C2([H])N([H])C(=O)C1([H])N(C(=O)C([H])(N([H])C(=O)C([H])(N([H])C([H])([H])[H])C([H])([H])[H])C(C([H])([H])[H])(C([H])([H])[H])C([H])([H])[H])C([H])([H])c2c([H])c(OC([H])([H])C3([H])C(=O)N(C([H])([H])C([H])(N([H])C(=O)N4C([H])([H])C([H])([H])C([H])([H])C([H])(n5nc(-c6c([H])c([H])c(Oc7c([H])c([H])c(F)c([H])c7F)c([H])c6[H])c(C(=O)N([H])[H])c5N([H])[H])C4([H])[H])C([H])(C([H])([H])[H])C([H])([H])C([H])([H])[H])C([H])([H])C3([H])[H])c([H])c([H])c2C1([H])[H]

>  <smiles>  (26) 
[H]c1c([H])c([H])c2c(c1[H])C([H])([H])C([H])([H])C([H])([H])C2([H])N([H])C(=O)C1([H])N(C(=O)C([H])(N([H])C(=O)C([H])(N([H])C([H])([H])[H])C([H])([H])[H])C(C([H])([H])[H])(C([H])([H])[H])C([H])([H])[H])C([H])([H])c2c([H])c(OC([H])([H])C3([H])C(=O)N(C([H])([H])C([H])(N([H])C(=O)N4C([H])([H])C([H])([H])C([H])([H])C([H])(n5nc(-c6c([H])c([H])c(Oc7c([H])c([H])c(F)c([H])c7F)c([H])c6[H])c(C(=O)N([H])[H])c5N([H])[H])C4([H])[H])C([H])(C([H])([H])[H])C([H])([H])C([H])([H])[H])C([H])([H])C3([H])[H])c([H])c([H])c2C1([H])[H]

$$$$
26:0:0
     RDKit          3D

 96105  0  0  1  0  0  0  0  0999 V2000
  -32.3240  -19.4920   20.5470 C   0  0  0  0  0  2  0  0  0  0  0  0
  -31.9440  -19.5080   22.0270 C   0  0  0  0  0  2  0  0  0  0  0  0
  -30.4640  -21.5110   21.7360 C   0  0  0  0  0  2  0  0  0  0  0  0
  -31.1070  -19.8740   19.7060 C   0  0  0  0  0  3  0  0  0  0  0  0
  -30.7680  -21.5730   20.2180 C   0  0  0  0  0  3  0  0  0  0  0  0
  -31.5970  -20.8820   22.4940 N   0  0  1  0  0  4  0  0  0  0  0  0
  -32.4040  -21.4530   22.2850 H   0  0  0  0  0  0  0  0  0  0  0  0
  -30.3650  -23.1550   19.4760 C   0  0  0  0  0  2  0  0  0  0  0  0
  -29.6120  -24.6530   20.1160 C   0  0  0  0  0  2  0  0  0  0  0  0
  -29.5580  -26.2340   19.6940 O   0  0  0  0  0  0  0  0  0  0  0  0
  -25.0320  -31.2960   22.9690 C   0  0  0  0  0  0  0  0  0  0  0  0
  -28.3870  -27.1410   19.7190 C   0  0  0  0  0  0  0  0  0  0  0  0
  -24.1230  -29.9120   21.1430 C   0  0  0  0  0  3  0  0  0  0  0  0
  -25.8490  -28.6610   19.6860 C   0  0  0  0  0  0  0  0  0  0  0  0
  -26.6350  -30.4950   21.1680 C   0  0  0  0  0  2  0  0  0  0  0  0
  -26.9360  -29.1770   20.4030 C   0  0  0  0  0  0  0  0  0  0  0  0
  -28.2000  -28.4430   20.3890 C   0  0  0  0  0  3  0  0  0  0  0  0
  -27.2530  -26.7630   18.9690 C   0  0  0  0  0  3  0  0  0  0  0  0
  -26.0290  -27.4780   18.9500 C   0  0  0  0  0  3  0  0  0  0  0  0
  -24.5140  -29.3960   19.7310 C   0  0  0  0  0  2  0  0  0  0  0  0
  -25.2780  -30.5900   21.8170 N   0  0  0  0  0  0  0  0  0  0  0  0
  -23.8900  -31.3840   23.4480 O   0  0  0  0  0  0  0  0  0  0  0  0
  -23.5310  -28.7460   21.9760 C   0  0  0  0  0  0  0  0  0  0  0  0
  -22.2520  -28.3970   21.7410 N   0  0  0  0  0  0  0  0  0  0  0  0
  -24.2310  -28.1530   22.8020 O   0  0  0  0  0  0  0  0  0  0  0  0
  -21.7330  -28.9400   21.0660 H   0  0  0  0  0  0  0  0  0  0  0  0
  -19.0600  -26.6820   21.9070 C   0  0  0  0  0  0  0  0  0  0  0  0
  -21.5340  -27.2820   22.3710 C   0  0  0  0  0  3  0  0  0  0  0  0
  -21.8770  -25.9370   21.6870 C   0  0  0  0  0  2  0  0  0  0  0  0
  -20.8960  -25.5570   20.5750 C   0  0  0  0  0  2  0  0  0  0  0  0
  -19.4740  -25.4420   21.1330 C   0  0  0  0  0  2  0  0  0  0  0  0
  -20.0280  -27.5540   22.4760 C   0  0  0  0  0  0  0  0  0  0  0  0
  -19.5880  -28.7090   23.1580 C   0  0  0  0  0  3  0  0  0  0  0  0
  -18.2150  -28.9960   23.2790 C   0  0  0  0  0  3  0  0  0  0  0  0
  -17.2620  -28.1200   22.7270 C   0  0  0  0  0  3  0  0  0  0  0  0
  -17.6860  -26.9640   22.0480 C   0  0  0  0  0  3  0  0  0  0  0  0
  -26.1710  -32.0390   23.7290 C   0  0  0  0  0  3  0  0  0  0  0  0
  -25.6530  -33.3510   24.1560 N   0  0  0  0  0  0  0  0  0  0  0  0
  -25.8960  -34.5110   23.5340 C   0  0  0  0  0  0  0  0  0  0  0  0
  -26.6410  -34.5980   22.5550 O   0  0  0  0  0  0  0  0  0  0  0  0
  -24.9920  -33.3460   24.9190 H   0  0  0  0  0  0  0  0  0  0  0  0
  -23.9960  -36.1290   23.2030 C   0  0  0  0  0  1  0  0  0  0  0  0
  -25.2060  -35.7760   24.0830 C   0  0  0  0  0  3  0  0  0  0  0  0
  -27.1240  -36.8130   25.2120 C   0  0  0  0  0  1  0  0  0  0  0  0
  -26.1020  -36.9480   24.1760 N   0  0  0  0  0  0  0  0  0  0  0  0
  -25.5720  -37.7950   24.3620 H   0  0  0  0  0  0  0  0  0  0  0  0
  -26.7070  -31.2370   24.9780 C   0  0  1  0  0  0  0  0  0  0  0  0
  -25.5930  -30.7650   25.9410 C   0  0  0  0  0  1  0  0  0  0  0  0
  -27.4970  -29.9870   24.5300 C   0  0  0  0  0  1  0  0  0  0  0  0
  -27.6950  -32.1160   25.7810 C   0  0  0  0  0  1  0  0  0  0  0  0
  -30.2620  -18.3170   19.6140 C   0  0  0  0  0  2  0  0  0  0  0  0
  -31.2940  -15.5920   20.1720 C   0  0  0  0  0  0  0  0  0  0  0  0
  -31.3300  -13.1000   19.5000 C   0  0  0  0  0  2  0  0  0  0  0  0
  -30.4520  -12.8340   18.2500 C   0  0  0  0  0  2  0  0  0  0  0  0
  -28.9930  -12.5700   18.6580 C   0  0  0  0  0  2  0  0  0  0  0  0
  -28.4980  -13.6010   19.7020 C   0  0  0  0  0  3  0  0  0  0  0  0
  -29.5010  -13.8190   20.8570 C   0  0  0  0  0  2  0  0  0  0  0  0
  -30.7660  -14.2760   20.2540 N   0  0  0  0  0  0  0  0  0  0  0  0
  -32.4880  -15.6330   19.8470 O   0  0  0  0  0  0  0  0  0  0  0  0
  -30.4850  -16.8140   20.2900 N   0  0  0  0  0  0  0  0  0  0  0  0
  -29.6270  -16.5450   20.7480 H   0  0  0  0  0  0  0  0  0  0  0  0
  -26.1150  -14.1870   20.4050 C   0  0  0  0  0  0  0  0  0  0  0  0
  -25.0380  -13.4220   20.7520 C   0  0  0  0  0  0  0  0  0  0  0  0
  -25.4910  -12.0660   20.7280 C   0  0  0  0  0  0  0  0  0  0  0  0
  -27.1530  -13.3020   20.1800 N   0  0  0  0  0  0  0  0  0  0  0  0
  -26.7880  -12.0200   20.4410 N   0  0  0  0  0  0  0  0  0  0  0  0
  -24.7490  -10.8120   20.9020 C   0  0  0  0  0  0  0  0  0  0  0  0
  -25.0010   -9.9450   21.9890 C   0  0  0  0  0  3  0  0  0  0  0  0
  -24.2570   -8.7550   22.1450 C   0  0  0  0  0  3  0  0  0  0  0  0
  -23.2480   -8.4220   21.2110 C   0  0  0  0  0  0  0  0  0  0  0  0
  -23.0170   -9.2760   20.1180 C   0  0  0  0  0  3  0  0  0  0  0  0
  -23.7610  -10.4570   19.9610 C   0  0  0  0  0  3  0  0  0  0  0  0
  -22.4940   -7.2750   21.2670 O   0  0  0  0  0  0  0  0  0  0  0  0
  -22.0620   -6.7560   22.4610 C   0  0  0  0  0  0  0  0  0  0  0  0
  -21.2370   -7.4930   23.3390 C   0  0  0  0  0  3  0  0  0  0  0  0
  -20.7590   -6.8960   24.5220 C   0  0  0  0  0  3  0  0  0  0  0  0
  -21.0960   -5.5630   24.8260 C   0  0  0  0  0  0  0  0  0  0  0  0
  -21.9120   -4.8260   23.9500 C   0  0  0  0  0  3  0  0  0  0  0  0
  -22.3910   -5.4210   22.7690 C   0  0  0  0  0  0  0  0  0  0  0  0
  -23.1610   -4.6990   21.9180 F   0  0  0  0  0  0  0  0  0  0  0  0
  -20.6310   -4.9860   25.9590 F   0  0  0  0  0  0  0  0  0  0  0  0
  -23.6410  -13.9130   20.9960 C   0  0  0  0  0  0  0  0  0  0  0  0
  -22.9190  -13.2750   21.9080 N   0  0  0  0  0  0  0  0  0  0  0  0
  -23.2020  -14.9030   20.4120 O   0  0  0  0  0  0  0  0  0  0  0  0
  -23.2880  -12.4740   22.4000 H   0  0  0  0  0  0  0  0  0  0  0  0
  -21.9810  -13.5880   22.1170 H   0  0  0  0  0  0  0  0  0  0  0  0
  -26.2960  -15.5570   20.2280 N   0  0  0  0  0  0  0  0  0  0  0  0
  -25.5260  -16.2130   20.2990 H   0  0  0  0  0  0  0  0  0  0  0  0
  -27.1420  -15.9790   19.8720 H   0  0  0  0  0  0  0  0  0  0  0  0
  -31.4740  -20.9830   23.9760 C   0  0  0  0  0  2  0  0  0  0  0  0
  -29.1310  -17.7930   26.0180 C   0  0  0  0  0  2  0  0  0  0  0  0
  -29.2240  -17.7900   24.4860 C   0  0  0  0  0  2  0  0  0  0  0  0
  -29.0880  -19.2260   26.5750 C   0  0  0  0  0  2  0  0  0  0  0  0
  -30.4250  -18.6200   24.0110 C   0  0  0  0  0  2  0  0  0  0  0  0
  -30.2750  -20.0730   26.0740 C   0  0  0  0  0  2  0  0  0  0  0  0
  -30.3400  -20.0770   24.5350 C   0  0  0  0  0  3  0  0  0  0  0  0
  1  2  1  0
  2  6  1  0
  3  6  1  0
  4 51  1  0
  4  5  1  0
  4  1  1  0
  5  8  1  0
  5  3  1  0
  6 90  1  0
  6  7  1  6
  8  9  1  0
 10 12  1  0
 10  9  1  0
 11 22  2  0
 12 17  1  0
 13 21  1  0
 13 23  1  0
 14 20  1  0
 14 16  1  0
 15 21  1  0
 16 15  1  0
 17 16  2  0
 18 12  2  0
 19 18  1  0
 19 14  2  0
 20 13  1  0
 21 11  1  0
 23 25  2  0
 24 23  1  0
 26 24  1  0
 27 36  2  0
 27 32  1  0
 28 24  1  0
 28 32  1  0
 29 28  1  0
 30 31  1  0
 30 29  1  0
 31 27  1  0
 32 33  2  0
 33 34  1  0
 35 34  2  0
 36 35  1  0
 37 11  1  0
 37 38  1  0
 37 47  1  0
 38 41  1  0
 39 43  1  0
 39 38  1  0
 40 39  2  0
 43 42  1  0
 43 45  1  0
 45 46  1  0
 45 44  1  0
 47 50  1  1
 47 48  1  0
 49 47  1  0
 51 60  1  0
 52 58  1  0
 52 60  1  0
 53 58  1  0
 54 55  1  0
 54 53  1  0
 56 55  1  0
 56 65  1  0
 56 57  1  0
 58 57  1  0
 59 52  2  0
 60 61  1  0
 62 63  2  0
 63 82  1  0
 64 63  1  0
 64 67  1  0
 65 62  1  0
 65 66  1  0
 66 64  2  0
 67 68  1  0
 68 69  2  0
 70 73  1  0
 70 69  1  0
 71 70  2  0
 72 71  1  0
 72 67  2  0
 73 74  1  0
 74 79  2  0
 74 75  1  0
 75 76  2  0
 76 77  1  0
 77 81  1  0
 78 77  2  0
 79 78  1  0
 80 79  1  0
 82 83  1  0
 83 86  1  0
 83 85  1  0
 84 82  2  0
 87 88  1  0
 87 62  1  0
 89 87  1  0
 90 96  1  0
 91 93  1  0
 92 91  1  0
 94 92  1  0
 94 96  1  0
 95 93  1  0
 96 95  1  0
M  ISO  4   9 101  10 101  52 100  60 100
M  END
>  <TORSDO>  (27) 
F 21

>  <SCORE>  (27) 
3.695

>  <name>  (27) 
26

>  <ligand_id>  (27) 
26

>  <original_smiles>  (27) 
[H]c1c([H])c([H])c2c(c1[H])C([H])([H])C([H])([H])C([H])([H])C2([H])N([H])C(=O)C1([H])N(C(=O)C([H])(N([H])C(=O)C([H])(N([H])C([H])([H])[H])C([H])([H])[H])C(C([H])([H])[H])(C([H])([H])[H])C([H])([H])[H])C([H])([H])c2c([H])c(OC([H])([H])C([H])([H])C3([H])C([H])(C([H])([H])N([H])C(=O)N4C([H])([H])C([H])([H])C([H])([H])C([H])(n5nc(-c6c([H])c([H])c(Oc7c([H])c([H])c(F)c([H])c7F)c([H])c6[H])c(C(=O)N([H])[H])c5N([H])[H])C4([H])[H])C([H])([H])C([H])([H])[N+]([H])(C([H])([H])C4([H])C([H])([H])C([H])([H])C([H])([H])C([H])([H])C4([H])[H])C3([H])[H])c([H])c([H])c2C1([H])[H]

>  <smiles>  (27) 
[H]c1c([H])c([H])c2c(c1[H])C([H])([H])C([H])([H])C([H])([H])C2([H])N([H])C(=O)C1([H])N(C(=O)C([H])(N([H])C(=O)C([H])(N([H])C([H])([H])[H])C([H])([H])[H])C(C([H])([H])[H])(C([H])([H])[H])C([H])([H])[H])C([H])([H])c2c([H])c(OC([H])([H])C([H])([H])C3([H])C([H])(C([H])([H])N([H])C(=O)N4C([H])([H])C([H])([H])C([H])([H])C([H])(n5nc(-c6c([H])c([H])c(Oc7c([H])c([H])c(F)c([H])c7F)c([H])c6[H])c(C(=O)N([H])[H])c5N([H])[H])C4([H])[H])C([H])([H])C([H])([H])[N+]([H])(C([H])([H])C4([H])C([H])([H])C([H])([H])C([H])([H])C([H])([H])C4([H])[H])C3([H])[H])c([H])c([H])c2C1([H])[H]

$$$$
27:0:0
     RDKit          3D

 95103  0  0  1  0  0  0  0  0999 V2000
  -30.4710  -18.4740   21.2830 C   0  0  0  0  0  0  0  0  0  0  0  0
  -30.8680  -20.7900   22.1320 C   0  0  0  0  0  2  0  0  0  0  0  0
  -28.7710  -20.4010   20.9390 C   0  0  0  0  0  2  0  0  0  0  0  0
  -30.8870  -22.2540   21.5860 C   0  0  0  0  0  2  0  0  0  0  0  0
  -28.7880  -21.9090   20.4580 C   0  0  0  0  0  2  0  0  0  0  0  0
  -30.0770  -19.8100   21.3470 N   0  0  0  0  0  0  0  0  0  0  0  0
  -29.5420  -22.8520   21.3420 N   0  0  2  0  0  4  0  0  0  0  0  0
  -31.4890  -18.0950   21.8690 O   0  0  0  0  0  0  0  0  0  0  0  0
  -29.0720  -22.8600   22.2380 H   0  0  0  0  0  0  0  0  0  0  0  0
  -29.6430  -24.3150   20.8870 C   0  0  0  0  0  3  0  0  0  0  0  0
  -28.3480  -25.2280   20.8990 C   0  0  0  0  0  3  0  0  0  0  0  0
  -28.5390  -26.6590   20.5500 O   0  0  0  0  0  0  0  0  0  0  0  0
  -24.5660  -31.9980   23.3180 C   0  0  0  0  0  0  0  0  0  0  0  0
  -27.3980  -27.4670   20.4480 C   0  0  0  0  0  0  0  0  0  0  0  0
  -23.4630  -30.5570   21.6450 C   0  0  0  0  0  3  0  0  0  0  0  0
  -25.0040  -29.0200   20.3070 C   0  0  0  0  0  0  0  0  0  0  0  0
  -26.0010  -30.9280   21.5700 C   0  0  0  0  0  2  0  0  0  0  0  0
  -26.1350  -29.5440   20.9450 C   0  0  0  0  0  0  0  0  0  0  0  0
  -27.3370  -28.7810   21.0020 C   0  0  0  0  0  3  0  0  0  0  0  0
  -26.2470  -26.9950   19.7740 C   0  0  0  0  0  3  0  0  0  0  0  0
  -25.0620  -27.7510   19.7110 C   0  0  0  0  0  3  0  0  0  0  0  0
  -23.7520  -29.8710   20.2830 C   0  0  0  0  0  2  0  0  0  0  0  0
  -24.6930  -31.1770   22.2350 N   0  0  0  0  0  0  0  0  0  0  0  0
  -23.4560  -32.2610   23.8010 O   0  0  0  0  0  0  0  0  0  0  0  0
  -22.7800  -29.5360   22.5850 C   0  0  0  0  0  0  0  0  0  0  0  0
  -21.4640  -29.3340   22.4010 N   0  0  0  0  0  0  0  0  0  0  0  0
  -23.4320  -28.9330   23.4410 O   0  0  0  0  0  0  0  0  0  0  0  0
  -20.9970  -29.8720   21.6840 H   0  0  0  0  0  0  0  0  0  0  0  0
  -18.0790  -28.1250   22.8030 C   0  0  0  0  0  0  0  0  0  0  0  0
  -20.6270  -28.3910   23.1460 C   0  0  0  0  0  3  0  0  0  0  0  0
  -20.7510  -26.9620   22.5700 C   0  0  0  0  0  2  0  0  0  0  0  0
  -19.6780  -26.6380   21.5250 C   0  0  0  0  0  2  0  0  0  0  0  0
  -18.2790  -26.7770   22.1300 C   0  0  0  0  0  2  0  0  0  0  0  0
  -19.1820  -28.8890   23.2650 C   0  0  0  0  0  0  0  0  0  0  0  0
  -18.9420  -30.1510   23.8530 C   0  0  0  0  0  3  0  0  0  0  0  0
  -17.6310  -30.6470   23.9840 C   0  0  0  0  0  3  0  0  0  0  0  0
  -16.5420  -29.8790   23.5390 C   0  0  0  0  0  3  0  0  0  0  0  0
  -16.7670  -28.6200   22.9540 C   0  0  0  0  0  3  0  0  0  0  0  0
  -25.8080  -32.6630   23.9870 C   0  0  0  0  0  3  0  0  0  0  0  0
  -25.4650  -34.0650   24.2680 N   0  0  0  0  0  0  0  0  0  0  0  0
  -25.8030  -35.1010   23.4880 C   0  0  0  0  0  0  0  0  0  0  0  0
  -26.5010  -34.9800   22.4790 O   0  0  0  0  0  0  0  0  0  0  0  0
  -24.8480  -34.2330   25.0470 H   0  0  0  0  0  0  0  0  0  0  0  0
  -24.0420  -36.8420   23.0480 C   0  0  0  0  0  1  0  0  0  0  0  0
  -25.2780  -36.4920   23.8920 C   0  0  0  0  0  3  0  0  0  0  0  0
  -27.3780  -37.4510   24.7290 C   0  0  0  0  0  1  0  0  0  0  0  0
  -26.2900  -37.5630   23.7600 N   0  0  0  0  0  0  0  0  0  0  0  0
  -25.8620  -38.4800   23.8710 H   0  0  0  0  0  0  0  0  0  0  0  0
  -26.2700  -31.9300   25.3060 C   0  0  1  0  0  0  0  0  0  0  0  0
  -25.1160  -31.6510   26.2990 C   0  0  0  0  0  1  0  0  0  0  0  0
  -26.9420  -30.5780   24.9740 C   0  0  0  0  0  1  0  0  0  0  0  0
  -27.3330  -32.7830   26.0350 C   0  0  0  0  0  1  0  0  0  0  0  0
  -29.7040  -17.3610   20.4690 C   0  0  0  0  0  0  0  0  0  0  0  0
  -30.6530  -14.8670   20.5080 C   0  0  0  0  0  0  0  0  0  0  0  0
  -30.4920  -12.6710   19.3510 C   0  0  0  0  0  2  0  0  0  0  0  0
  -29.5700  -12.8440   18.1230 C   0  0  0  0  0  2  0  0  0  0  0  0
  -28.0850  -12.6810   18.5150 C   0  0  0  0  0  2  0  0  0  0  0  0
  -27.7010  -13.4670   19.8010 C   0  0  0  0  0  3  0  0  0  0  0  0
  -28.7470  -13.2510   20.9210 C   0  0  0  0  0  2  0  0  0  0  0  0
  -30.0600  -13.6370   20.3820 N   0  0  0  0  0  0  0  0  0  0  0  0
  -31.8130  -15.0510   20.1360 O   0  0  0  0  0  0  0  0  0  0  0  0
  -29.8150  -15.8950   20.8610 N   0  0  0  0  0  4  0  0  0  0  0  0
  -28.9700  -15.5550   21.2920 H   0  0  0  0  0  0  0  0  0  0  0  0
  -25.2690  -13.9940   20.4450 C   0  0  0  0  0  0  0  0  0  0  0  0
  -24.2200  -13.1900   20.7990 C   0  0  0  0  0  0  0  0  0  0  0  0
  -24.7260  -11.8540   20.7980 C   0  0  0  0  0  0  0  0  0  0  0  0
  -26.3480  -13.1470   20.2520 N   0  0  0  0  0  0  0  0  0  0  0  0
  -26.0240  -11.8560   20.5210 N   0  0  0  0  0  0  0  0  0  0  0  0
  -24.0370  -10.5720   20.9860 C   0  0  0  0  0  0  0  0  0  0  0  0
  -24.4340   -9.6580   21.9860 C   0  0  0  0  0  3  0  0  0  0  0  0
  -23.7380   -8.4420   22.1610 C   0  0  0  0  0  3  0  0  0  0  0  0
  -22.6340   -8.1300   21.3330 C   0  0  0  0  0  0  0  0  0  0  0  0
  -22.2560   -9.0340   20.3250 C   0  0  0  0  0  3  0  0  0  0  0  0
  -22.9520  -10.2410   20.1500 C   0  0  0  0  0  3  0  0  0  0  0  0
  -21.9170   -6.9600   21.4130 O   0  0  0  0  0  0  0  0  0  0  0  0
  -21.7640   -6.2880   22.6000 C   0  0  0  0  0  0  0  0  0  0  0  0
  -21.1770   -6.8950   23.7310 C   0  0  0  0  0  3  0  0  0  0  0  0
  -20.9750   -6.1490   24.9080 C   0  0  0  0  0  3  0  0  0  0  0  0
  -21.3500   -4.7920   24.9540 C   0  0  0  0  0  0  0  0  0  0  0  0
  -21.9310   -4.1820   23.8280 C   0  0  0  0  0  3  0  0  0  0  0  0
  -22.1330   -4.9280   22.6530 C   0  0  0  0  0  0  0  0  0  0  0  0
  -22.6720   -4.3300   21.5650 F   0  0  0  0  0  0  0  0  0  0  0  0
  -21.1510   -4.0710   26.0830 F   0  0  0  0  0  0  0  0  0  0  0  0
  -22.8010  -13.6230   21.0290 C   0  0  0  0  0  0  0  0  0  0  0  0
  -22.0770  -12.9230   21.8940 N   0  0  0  0  0  0  0  0  0  0  0  0
  -22.3420  -14.6220   20.4760 O   0  0  0  0  0  0  0  0  0  0  0  0
  -22.4610  -12.1160   22.3630 H   0  0  0  0  0  0  0  0  0  0  0  0
  -21.1260  -13.1990   22.0900 H   0  0  0  0  0  0  0  0  0  0  0  0
  -25.3830  -15.3670   20.2540 N   0  0  0  0  0  0  0  0  0  0  0  0
  -24.5720  -15.9740   20.3090 H   0  0  0  0  0  0  0  0  0  0  0  0
  -26.2000  -15.8320   19.8820 H   0  0  0  0  0  0  0  0  0  0  0  0
  -30.7970  -16.9400   18.1230 C   0  0  0  0  0  1  0  0  0  0  0  0
  -29.6740  -17.6220   18.9300 C   0  0  0  0  0  3  0  0  0  0  0  0
  -27.9300  -18.4450   17.2370 C   0  0  0  0  0  1  0  0  0  0  0  0
  -28.2870  -17.3880   18.2910 C   0  0  0  0  0  2  0  0  0  0  0  0
  1  6  1  0
  1  8  2  0
  3  6  1  0
  4  2  1  0
  5  3  1  0
  5  7  1  0
  6  2  1  0
  7  4  1  0
  7  9  1  1
 10 11  2  0
 10  7  1  0
 12 11  1  0
 13 24  2  0
 14 12  1  0
 14 19  1  0
 15 23  1  0
 15 25  1  0
 16 18  1  0
 17 23  1  0
 18 19  2  0
 18 17  1  0
 20 14  2  0
 21 20  1  0
 21 16  2  0
 22 16  1  0
 22 15  1  0
 23 13  1  0
 25 27  2  0
 26 25  1  0
 28 26  1  0
 29 38  2  0
 29 34  1  0
 30 26  1  0
 30 34  1  0
 31 30  1  0
 32 33  1  0
 32 31  1  0
 33 29  1  0
 34 35  2  0
 35 36  1  0
 37 36  2  0
 38 37  1  0
 39 13  1  0
 39 40  1  0
 39 49  1  0
 40 43  1  0
 41 45  1  0
 41 40  1  0
 42 41  2  0
 45 44  1  0
 47 48  1  0
 47 45  1  0
 47 46  1  0
 49 52  1  1
 49 50  1  0
 51 49  1  0
 53 62  2  3
 53  1  1  0
 54 62  1  0
 55 60  1  0
 56 57  1  0
 56 55  1  0
 58 57  1  0
 58 67  1  0
 58 59  1  0
 60 54  1  0
 60 59  1  0
 61 54  2  0
 62 63  1  0
 64 65  2  0
 65 84  1  0
 66 65  1  0
 66 69  1  0
 67 64  1  0
 67 68  1  0
 68 66  2  0
 69 70  1  0
 70 71  2  0
 72 75  1  0
 72 71  1  0
 73 72  2  0
 74 73  1  0
 74 69  2  0
 75 76  1  0
 76 81  2  0
 76 77  1  0
 77 78  2  0
 78 79  1  0
 79 83  1  0
 80 79  2  0
 81 80  1  0
 82 81  1  0
 84 85  1  0
 85 88  1  0
 85 87  1  0
 86 84  2  0
 89 90  1  0
 89 64  1  0
 91 89  1  0
 93 92  1  0
 93 53  1  0
 94 95  1  0
 95 93  1  0
M  ISO  4  11 101  12 101  54 100  62 100
M  END
>  <TORSDO>  (28) 
F 21

>  <SCORE>  (28) 
-13.526

>  <name>  (28) 
27

>  <ligand_id>  (28) 
27

>  <original_smiles>  (28) 
[H]c1c([H])c([H])c2c(c1[H])C([H])([H])C([H])([H])C([H])([H])C2([H])N([H])C(=O)C1([H])N(C(=O)C([H])(N([H])C(=O)C([H])(N([H])C([H])([H])[H])C([H])([H])[H])C(C([H])([H])[H])(C([H])([H])[H])C([H])([H])[H])C([H])([H])c2c([H])c(OC([H])([H])C([H])([H])[N+]3([H])C([H])([H])C([H])([H])N(C(=O)C([H])(N([H])C(=O)N4C([H])([H])C([H])([H])C([H])([H])C([H])(n5nc(-c6c([H])c([H])c(Oc7c([H])c([H])c(F)c([H])c7F)c([H])c6[H])c(C(=O)N([H])[H])c5N([H])[H])C4([H])[H])C([H])(C([H])([H])[H])C([H])([H])C([H])([H])[H])C([H])([H])C3([H])[H])c([H])c([H])c2C1([H])[H]

>  <smiles>  (28) 
[H]c1c([H])c([H])c2c(c1[H])C([H])([H])C([H])([H])C([H])([H])C2([H])N([H])C(=O)C1([H])N(C(=O)C([H])(N([H])C(=O)C([H])(N([H])C([H])([H])[H])C([H])([H])[H])C(C([H])([H])[H])(C([H])([H])[H])C([H])([H])[H])C([H])([H])c2c([H])c(OC([H])([H])C([H])([H])[N+]3([H])C([H])([H])C([H])([H])N(C(=O)C([H])(N([H])C(=O)N4C([H])([H])C([H])([H])C([H])([H])C([H])(n5nc(-c6c([H])c([H])c(Oc7c([H])c([H])c(F)c([H])c7F)c([H])c6[H])c(C(=O)N([H])[H])c5N([H])[H])C4([H])[H])C([H])(C([H])([H])[H])C([H])([H])C([H])([H])[H])C([H])([H])C3([H])[H])c([H])c([H])c2C1([H])[H]

$$$$
28:0:0
     RDKit          3D

 96103  0  0  1  0  0  0  0  0999 V2000
  -29.0860  -22.9570   19.4390 C   0  0  0  0  0  3  0  0  0  0  0  0
  -30.0750  -22.9480   18.3460 N   0  0  0  0  0  4  0  0  0  0  0  0
  -30.8800  -23.4000   18.7570 H   0  0  0  0  0  0  0  0  0  0  0  0
  -29.7720  -23.5160   17.5770 H   0  0  0  0  0  0  0  0  0  0  0  0
  -30.3080  -22.0310   18.0150 H   0  0  0  0  0  0  0  0  0  0  0  0
  -29.3660  -21.7980   20.4420 C   0  0  0  0  0  2  0  0  0  0  0  0
  -28.9510  -20.3700   19.9850 C   0  0  0  0  0  2  0  0  0  0  0  0
  -29.6520  -19.3060   20.7630 N   0  0  0  0  0  4  0  0  0  0  0  0
  -29.5400  -19.4880   21.7470 H   0  0  0  0  0  0  0  0  0  0  0  0
  -30.6380  -19.3590   20.5540 H   0  0  0  0  0  0  0  0  0  0  0  0
  -29.2410  -17.9010   20.5030 C   0  0  0  0  0  2  0  0  0  0  0  0
  -30.2480  -16.9000   21.1300 C   0  0  0  0  0  2  0  0  0  0  0  0
  -30.6070  -14.4820   20.5080 C   0  0  0  0  0  0  0  0  0  0  0  0
  -30.3420  -12.3290   19.3410 C   0  0  0  0  0  2  0  0  0  0  0  0
  -29.3850  -12.5210   18.1440 C   0  0  0  0  0  2  0  0  0  0  0  0
  -27.9150  -12.3920   18.5930 C   0  0  0  0  0  2  0  0  0  0  0  0
  -27.5840  -13.2220   19.8630 C   0  0  0  0  0  3  0  0  0  0  0  0
  -28.6440  -12.9700   20.9580 C   0  0  0  0  0  2  0  0  0  0  0  0
  -29.9590  -13.2940   20.3820 N   0  0  0  0  0  0  0  0  0  0  0  0
  -31.7430  -14.6790   20.0700 O   0  0  0  0  0  0  0  0  0  0  0  0
  -29.8540  -15.4870   20.9930 N   0  0  0  0  0  0  0  0  0  0  0  0
  -28.9240  -15.2360   21.2950 H   0  0  0  0  0  0  0  0  0  0  0  0
  -25.1820  -13.8320   20.5590 C   0  0  0  0  0  0  0  0  0  0  0  0
  -24.1120  -13.0590   20.9280 C   0  0  0  0  0  0  0  0  0  0  0  0
  -24.5750  -11.7080   20.9020 C   0  0  0  0  0  0  0  0  0  0  0  0
  -26.2280  -12.9500   20.3380 N   0  0  0  0  0  0  0  0  0  0  0  0
  -25.8660  -11.6690   20.5990 N   0  0  0  0  0  0  0  0  0  0  0  0
  -23.8510  -10.4430   21.0910 C   0  0  0  0  0  0  0  0  0  0  0  0
  -24.2970   -9.4670   22.0090 C   0  0  0  0  0  3  0  0  0  0  0  0
  -23.5730   -8.2680   22.1840 C   0  0  0  0  0  3  0  0  0  0  0  0
  -22.3900   -8.0370   21.4440 C   0  0  0  0  0  0  0  0  0  0  0  0
  -21.9640   -9.0020   20.5150 C   0  0  0  0  0  3  0  0  0  0  0  0
  -22.6880  -10.1930   20.3360 C   0  0  0  0  0  3  0  0  0  0  0  0
  -21.6370   -6.8910   21.5330 O   0  0  0  0  0  0  0  0  0  0  0  0
  -21.6230   -6.1270   22.6730 C   0  0  0  0  0  0  0  0  0  0  0  0
  -21.2460   -6.6610   23.9240 C   0  0  0  0  0  3  0  0  0  0  0  0
  -21.1800   -5.8230   25.0570 C   0  0  0  0  0  3  0  0  0  0  0  0
  -21.4760   -4.4520   24.9380 C   0  0  0  0  0  0  0  0  0  0  0  0
  -21.8450   -3.9160   23.6910 C   0  0  0  0  0  3  0  0  0  0  0  0
  -21.9150   -4.7510   22.5630 C   0  0  0  0  0  0  0  0  0  0  0  0
  -22.2510   -4.2260   21.3590 F   0  0  0  0  0  0  0  0  0  0  0  0
  -21.4040   -3.6460   26.0240 F   0  0  0  0  0  0  0  0  0  0  0  0
  -22.7110  -13.5340   21.1920 C   0  0  0  0  0  0  0  0  0  0  0  0
  -21.9800  -12.8370   22.0570 N   0  0  0  0  0  0  0  0  0  0  0  0
  -22.2760  -14.5580   20.6700 O   0  0  0  0  0  0  0  0  0  0  0  0
  -22.3460  -12.0090   22.5030 H   0  0  0  0  0  0  0  0  0  0  0  0
  -21.0400  -13.1360   22.2730 H   0  0  0  0  0  0  0  0  0  0  0  0
  -25.3510  -15.1990   20.3700 N   0  0  0  0  0  0  0  0  0  0  0  0
  -24.5920  -15.8650   20.4670 H   0  0  0  0  0  0  0  0  0  0  0  0
  -26.1870  -15.6080   19.9720 H   0  0  0  0  0  0  0  0  0  0  0  0
  -29.1680  -24.3640   20.1140 C   0  0  0  0  0  3  0  0  0  0  0  0
  -30.5750  -24.6390   20.3970 N   0  0  0  0  0  0  0  0  0  0  0  0
  -30.8600  -24.1440   21.2360 H   0  0  0  0  0  0  0  0  0  0  0  0
  -30.6550  -25.6200   20.6530 H   0  0  0  0  0  0  0  0  0  0  0  0
  -28.6050  -25.5390   19.2680 C   0  0  0  0  0  2  0  0  0  0  0  0
  -28.4250  -26.7180   20.0840 O   0  0  0  0  0  0  0  0  0  0  0  0
  -24.6090  -31.8730   23.2230 C   0  0  0  0  0  0  0  0  0  0  0  0
  -27.2270  -27.4180   20.0910 C   0  0  0  0  0  0  0  0  0  0  0  0
  -23.3880  -30.4710   21.5940 C   0  0  0  0  0  3  0  0  0  0  0  0
  -24.8300  -28.9380   20.1560 C   0  0  0  0  0  0  0  0  0  0  0  0
  -25.9200  -30.8220   21.3800 C   0  0  0  0  0  2  0  0  0  0  0  0
  -25.9970  -29.4530   20.7350 C   0  0  0  0  0  0  0  0  0  0  0  0
  -27.1960  -28.6980   20.7030 C   0  0  0  0  0  3  0  0  0  0  0  0
  -26.0260  -26.9180   19.5290 C   0  0  0  0  0  3  0  0  0  0  0  0
  -24.8430  -27.6700   19.5580 C   0  0  0  0  0  3  0  0  0  0  0  0
  -23.5870  -29.7930   20.2130 C   0  0  0  0  0  2  0  0  0  0  0  0
  -24.6580  -31.0700   22.1240 N   0  0  0  0  0  0  0  0  0  0  0  0
  -23.5310  -32.1500   23.7700 O   0  0  0  0  0  0  0  0  0  0  0  0
  -22.7440  -29.4500   22.5600 C   0  0  0  0  0  0  0  0  0  0  0  0
  -21.4180  -29.2720   22.4460 N   0  0  0  0  0  0  0  0  0  0  0  0
  -23.4330  -28.8190   23.3650 O   0  0  0  0  0  0  0  0  0  0  0  0
  -20.9210  -29.8350   21.7720 H   0  0  0  0  0  0  0  0  0  0  0  0
  -18.0460  -28.0750   22.9570 C   0  0  0  0  0  0  0  0  0  0  0  0
  -20.6030  -28.3320   23.2200 C   0  0  0  0  0  3  0  0  0  0  0  0
  -20.7070  -26.9010   22.6440 C   0  0  0  0  0  2  0  0  0  0  0  0
  -19.5990  -26.5770   21.6360 C   0  0  0  0  0  2  0  0  0  0  0  0
  -18.2190  -26.7220   22.2850 C   0  0  0  0  0  2  0  0  0  0  0  0
  -19.1660  -28.8370   23.3810 C   0  0  0  0  0  0  0  0  0  0  0  0
  -18.9530  -30.1040   23.9670 C   0  0  0  0  0  3  0  0  0  0  0  0
  -17.6500  -30.6050   24.1440 C   0  0  0  0  0  3  0  0  0  0  0  0
  -16.5420  -29.8390   23.7380 C   0  0  0  0  0  3  0  0  0  0  0  0
  -16.7410  -28.5800   23.1460 C   0  0  0  0  0  3  0  0  0  0  0  0
  -25.8990  -32.5070   23.8310 C   0  0  0  0  0  3  0  0  0  0  0  0
  -26.4330  -31.7320   25.0980 C   0  0  1  0  0  0  0  0  0  0  0  0
  -25.3550  -31.4920   26.1800 C   0  0  0  0  0  1  0  0  0  0  0  0
  -27.0150  -30.3560   24.6990 C   0  0  0  0  0  1  0  0  0  0  0  0
  -27.5820  -32.5330   25.7520 C   0  0  0  0  0  1  0  0  0  0  0  0
  -25.5880  -33.9020   24.1700 N   0  0  0  0  0  0  0  0  0  0  0  0
  -25.9140  -34.9600   23.4150 C   0  0  0  0  0  0  0  0  0  0  0  0
  -26.5790  -34.8630   22.3790 O   0  0  0  0  0  0  0  0  0  0  0  0
  -24.9880  -34.0520   24.9680 H   0  0  0  0  0  0  0  0  0  0  0  0
  -24.1790  -36.7540   23.0880 C   0  0  0  0  0  1  0  0  0  0  0  0
  -25.4260  -36.3430   23.8840 C   0  0  0  0  0  3  0  0  0  0  0  0
  -27.5660  -37.2240   24.7000 C   0  0  0  0  0  1  0  0  0  0  0  0
  -26.4530  -37.3990   23.7720 N   0  0  0  0  0  0  0  0  0  0  0  0
  -26.0450  -38.3140   23.9350 H   0  0  0  0  0  0  0  0  0  0  0  0
  1 51  1  0
  1  6  1  0
  2  3  1  0
  2  1  1  0
  4  2  1  0
  5  2  1  0
  7  6  1  0
  7  8  1  0
  8  9  1  0
 10  8  1  0
 11  8  1  0
 11 12  1  0
 13 21  1  0
 14 19  1  0
 15 16  1  0
 15 14  1  0
 17 16  1  0
 17 26  1  0
 17 18  1  0
 19 13  1  0
 19 18  1  0
 20 13  2  0
 21 12  1  0
 21 22  1  0
 23 24  2  0
 24 43  1  0
 25 24  1  0
 25 28  1  0
 26 23  1  0
 26 27  1  0
 27 25  2  0
 28 29  1  0
 29 30  2  0
 31 34  1  0
 31 30  1  0
 32 31  2  0
 33 32  1  0
 33 28  2  0
 34 35  1  0
 35 36  1  0
 36 37  2  0
 38 37  1  0
 38 42  1  0
 39 38  2  0
 40 35  2  0
 40 39  1  0
 41 40  1  0
 43 44  1  0
 44 47  1  0
 44 46  1  0
 45 43  2  0
 48 49  1  0
 48 23  1  0
 50 48  1  0
 51 55  1  0
 51 52  1  0
 52 54  1  0
 52 53  1  0
 55 56  1  0
 56 58  1  0
 57 68  2  0
 58 63  1  0
 59 67  1  0
 59 69  1  0
 60 66  1  0
 60 62  1  0
 61 67  1  0
 62 61  1  0
 63 62  2  0
 64 65  1  0
 64 58  2  0
 65 60  2  0
 66 59  1  0
 67 57  1  0
 69 71  2  0
 70 69  1  0
 72 70  1  0
 73 82  2  0
 73 78  1  0
 74 70  1  0
 74 78  1  0
 75 74  1  0
 76 77  1  0
 76 75  1  0
 77 73  1  0
 78 79  2  0
 79 80  1  0
 81 80  2  0
 82 81  1  0
 83 57  1  0
 83 88  1  0
 83 84  1  0
 84 87  1  1
 84 85  1  0
 86 84  1  0
 88 91  1  0
 89 93  1  0
 89 88  1  0
 90 89  2  0
 93 92  1  0
 95 93  1  0
 95 96  1  0
 95 94  1  0
M  ISO  4  13 100  21 100  55 101  56 101
M  END
>  <TORSDO>  (29) 
F 25

>  <SCORE>  (29) 
-12.451

>  <name>  (29) 
28

>  <ligand_id>  (29) 
28

>  <original_smiles>  (29) 
[H]c1c([H])c([H])c2c(c1[H])C([H])([H])C([H])([H])C([H])([H])C2([H])N([H])C(=O)C1([H])N(C(=O)C([H])(N([H])C(=O)C([H])(N([H])C([H])([H])[H])C([H])([H])[H])C(C([H])([H])[H])(C([H])([H])[H])C([H])([H])[H])C([H])([H])c2c([H])c(OC([H])([H])C([H])(N([H])[H])C([H])(C([H])([H])C([H])([H])[N+]([H])([H])C([H])([H])C([H])([H])N([H])C(=O)N3C([H])([H])C([H])([H])C([H])([H])C([H])(n4nc(-c5c([H])c([H])c(Oc6c([H])c([H])c(F)c([H])c6F)c([H])c5[H])c(C(=O)N([H])[H])c4N([H])[H])C3([H])[H])[N+]([H])([H])[H])c([H])c([H])c2C1([H])[H]

>  <smiles>  (29) 
[H]c1c([H])c([H])c2c(c1[H])C([H])([H])C([H])([H])C([H])([H])C2([H])N([H])C(=O)C1([H])N(C(=O)C([H])(N([H])C(=O)C([H])(N([H])C([H])([H])[H])C([H])([H])[H])C(C([H])([H])[H])(C([H])([H])[H])C([H])([H])[H])C([H])([H])c2c([H])c(OC([H])([H])C([H])(N([H])[H])C([H])(C([H])([H])C([H])([H])[N+]([H])([H])C([H])([H])C([H])([H])N([H])C(=O)N3C([H])([H])C([H])([H])C([H])([H])C([H])(n4nc(-c5c([H])c([H])c(Oc6c([H])c([H])c(F)c([H])c6F)c([H])c5[H])c(C(=O)N([H])[H])c4N([H])[H])C3([H])[H])[N+]([H])([H])[H])c([H])c([H])c2C1([H])[H]

$$$$
29:0:0
     RDKit          3D

100107  0  0  1  0  0  0  0  0999 V2000
  -29.4490  -19.2570   19.7640 C   0  0  0  0  0  2  0  0  0  0  0  0
  -29.1770  -20.4000   20.7850 C   0  0  0  0  0  2  0  0  0  0  0  0
  -29.6530  -21.7330   20.3260 N   0  0  0  0  0  4  0  0  0  0  0  0
  -29.5640  -21.7810   19.3270 H   0  0  0  0  0  0  0  0  0  0  0  0
  -30.6310  -21.8230   20.5490 H   0  0  0  0  0  0  0  0  0  0  0  0
  -28.8960  -22.8670   20.9200 C   0  0  0  0  0  2  0  0  0  0  0  0
  -28.8850  -24.3380   18.8220 C   0  0  0  0  0  1  0  0  0  0  0  0
  -29.2240  -24.2630   20.3260 C   0  0  0  0  0  3  0  0  0  0  0  0
  -28.4480  -25.3430   21.1190 C   0  0  0  0  0  2  0  0  0  0  0  0
  -28.6550  -26.6720   20.6200 O   0  0  0  0  0  0  0  0  0  0  0  0
  -24.7810  -32.0060   23.3150 C   0  0  0  0  0  0  0  0  0  0  0  0
  -27.5060  -27.4220   20.5370 C   0  0  0  0  0  0  0  0  0  0  0  0
  -23.6250  -30.5260   21.7050 C   0  0  0  0  0  3  0  0  0  0  0  0
  -25.1180  -28.9230   20.4010 C   0  0  0  0  0  0  0  0  0  0  0  0
  -26.1570  -30.8730   21.5730 C   0  0  0  0  0  2  0  0  0  0  0  0
  -26.2600  -29.4750   20.9980 C   0  0  0  0  0  0  0  0  0  0  0  0
  -27.4590  -28.7320   21.0630 C   0  0  0  0  0  3  0  0  0  0  0  0
  -26.3520  -26.8850   19.9280 C   0  0  0  0  0  3  0  0  0  0  0  0
  -25.1580  -27.6270   19.8630 C   0  0  0  0  0  3  0  0  0  0  0  0
  -23.8760  -29.7830   20.3660 C   0  0  0  0  0  2  0  0  0  0  0  0
  -24.8710  -31.1510   22.2560 N   0  0  0  0  0  0  0  0  0  0  0  0
  -23.6840  -32.3030   23.8060 O   0  0  0  0  0  0  0  0  0  0  0  0
  -22.9400  -29.5510   22.6900 C   0  0  0  0  0  0  0  0  0  0  0  0
  -21.6180  -29.3780   22.5370 N   0  0  0  0  0  0  0  0  0  0  0  0
  -23.5980  -28.9500   23.5450 O   0  0  0  0  0  0  0  0  0  0  0  0
  -21.1500  -29.9140   21.8180 H   0  0  0  0  0  0  0  0  0  0  0  0
  -18.2110  -28.2870   23.0370 C   0  0  0  0  0  0  0  0  0  0  0  0
  -20.7720  -28.4830   23.3270 C   0  0  0  0  0  3  0  0  0  0  0  0
  -20.8400  -27.0350   22.7900 C   0  0  0  0  0  2  0  0  0  0  0  0
  -19.7390  -26.7150   21.7750 C   0  0  0  0  0  2  0  0  0  0  0  0
  -18.3570  -26.9160   22.4010 C   0  0  0  0  0  2  0  0  0  0  0  0
  -19.3460  -29.0300   23.4560 C   0  0  0  0  0  0  0  0  0  0  0  0
  -19.1570  -30.3170   24.0050 C   0  0  0  0  0  3  0  0  0  0  0  0
  -17.8650  -30.8590   24.1460 C   0  0  0  0  0  3  0  0  0  0  0  0
  -16.7450  -30.1120   23.7440 C   0  0  0  0  0  3  0  0  0  0  0  0
  -16.9180  -28.8300   23.1960 C   0  0  0  0  0  3  0  0  0  0  0  0
  -26.0490  -32.6590   23.9440 C   0  0  0  0  0  3  0  0  0  0  0  0
  -25.7210  -34.0600   24.2410 N   0  0  0  0  0  0  0  0  0  0  0  0
  -26.0450  -35.0980   23.4590 C   0  0  0  0  0  0  0  0  0  0  0  0
  -26.7250  -34.9800   22.4360 O   0  0  0  0  0  0  0  0  0  0  0  0
  -25.1160  -34.2270   25.0320 H   0  0  0  0  0  0  0  0  0  0  0  0
  -24.2900  -36.8540   23.0500 C   0  0  0  0  0  1  0  0  0  0  0  0
  -25.5340  -36.4900   23.8780 C   0  0  0  0  0  3  0  0  0  0  0  0
  -27.6520  -37.4270   24.6930 C   0  0  0  0  0  1  0  0  0  0  0  0
  -26.5500  -37.5560   23.7420 N   0  0  0  0  0  0  0  0  0  0  0  0
  -26.1300  -38.4730   23.8660 H   0  0  0  0  0  0  0  0  0  0  0  0
  -26.5530  -31.9190   25.2430 C   0  0  1  0  0  0  0  0  0  0  0  0
  -25.4370  -31.6510   26.2790 C   0  0  0  0  0  1  0  0  0  0  0  0
  -27.1980  -30.5600   24.8810 C   0  0  0  0  0  1  0  0  0  0  0  0
  -27.6560  -32.7590   25.9310 C   0  0  0  0  0  1  0  0  0  0  0  0
  -28.9610  -17.9190   20.1890 N   0  0  0  0  0  0  0  0  0  0  0  0
  -27.6580  -17.5950   19.5660 C   0  0  0  0  0  2  0  0  0  0  0  0
  -26.4750  -18.4810   20.0300 C   0  0  0  0  0  2  0  0  0  0  0  0
  -25.1750  -17.7970   19.9150 N   0  0  0  0  0  4  0  0  0  0  0  0
  -25.0020  -17.5080   18.9680 H   0  0  0  0  0  0  0  0  0  0  0  0
  -24.4420  -18.4250   20.1930 H   0  0  0  0  0  0  0  0  0  0  0  0
  -25.1360  -16.9910   20.5150 H   0  0  0  0  0  0  0  0  0  0  0  0
  -29.9540  -16.8900   19.7940 C   0  0  0  0  0  2  0  0  0  0  0  0
  -30.1320  -15.7110   20.8080 C   0  0  0  0  0  3  0  0  0  0  0  0
  -30.6440  -14.4500   20.0510 C   0  0  0  0  0  0  0  0  0  0  0  0
  -30.3240  -12.1910   19.0960 C   0  0  0  0  0  2  0  0  0  0  0  0
  -29.3300  -12.2450   17.9170 C   0  0  0  0  0  2  0  0  0  0  0  0
  -27.8810  -12.1100   18.4220 C   0  0  0  0  0  2  0  0  0  0  0  0
  -27.5690  -13.0610   19.6080 C   0  0  0  0  0  3  0  0  0  0  0  0
  -28.6740  -12.9700   20.6840 C   0  0  0  0  0  2  0  0  0  0  0  0
  -29.9670  -13.2640   20.0430 N   0  0  0  0  0  0  0  0  0  0  0  0
  -31.6920  -14.5890   19.4140 O   0  0  0  0  0  0  0  0  0  0  0  0
  -25.2320  -13.6910   20.4860 C   0  0  0  0  0  0  0  0  0  0  0  0
  -24.1750  -12.9260   20.9080 C   0  0  0  0  0  0  0  0  0  0  0  0
  -24.6060  -11.5700   20.8100 C   0  0  0  0  0  0  0  0  0  0  0  0
  -26.2430  -12.7980   20.1670 N   0  0  0  0  0  0  0  0  0  0  0  0
  -25.8730  -11.5160   20.4170 N   0  0  0  0  0  0  0  0  0  0  0  0
  -23.8700  -10.3150   21.0130 C   0  0  0  0  0  0  0  0  0  0  0  0
  -24.3500   -9.3050   21.8760 C   0  0  0  0  0  3  0  0  0  0  0  0
  -23.6130   -8.1180   22.0700 C   0  0  0  0  0  3  0  0  0  0  0  0
  -22.3810   -7.9300   21.4010 C   0  0  0  0  0  0  0  0  0  0  0  0
  -21.9170   -8.9260   20.5250 C   0  0  0  0  0  3  0  0  0  0  0  0
  -22.6550  -10.1060   20.3280 C   0  0  0  0  0  3  0  0  0  0  0  0
  -21.6100   -6.7960   21.5090 O   0  0  0  0  0  0  0  0  0  0  0  0
  -21.6500   -6.0040   22.6280 C   0  0  0  0  0  0  0  0  0  0  0  0
  -21.3480   -6.5100   23.9100 C   0  0  0  0  0  3  0  0  0  0  0  0
  -21.3300   -5.6450   25.0220 C   0  0  0  0  0  3  0  0  0  0  0  0
  -21.6070   -4.2740   24.8560 C   0  0  0  0  0  0  0  0  0  0  0  0
  -21.9030   -3.7670   23.5770 C   0  0  0  0  0  3  0  0  0  0  0  0
  -21.9210   -4.6300   22.4670 C   0  0  0  0  0  0  0  0  0  0  0  0
  -22.1860   -4.1320   21.2350 F   0  0  0  0  0  0  0  0  0  0  0  0
  -21.5840   -3.4410   25.9220 F   0  0  0  0  0  0  0  0  0  0  0  0
  -22.8080  -13.4220   21.2780 C   0  0  0  0  0  0  0  0  0  0  0  0
  -22.1300  -12.7280   22.1860 N   0  0  0  0  0  0  0  0  0  0  0  0
  -22.3550  -14.4590   20.7990 O   0  0  0  0  0  0  0  0  0  0  0  0
  -22.5120  -11.8870   22.5910 H   0  0  0  0  0  0  0  0  0  0  0  0
  -21.2160  -13.0430   22.4790 H   0  0  0  0  0  0  0  0  0  0  0  0
  -25.4060  -15.0630   20.3250 N   0  0  0  0  0  0  0  0  0  0  0  0
  -24.5450  -15.5970   20.2590 H   0  0  0  0  0  0  0  0  0  0  0  0
  -26.0830  -15.3560   19.6330 H   0  0  0  0  0  0  0  0  0  0  0  0
  -31.1270  -16.1390   21.9260 C   0  0  0  0  0  2  0  0  0  0  0  0
  -31.3720  -15.1170   22.9680 N   0  0  0  0  0  4  0  0  0  0  0  0
  -30.5150  -14.7830   23.3710 H   0  0  0  0  0  0  0  0  0  0  0  0
  -31.9140  -15.5260   23.7100 H   0  0  0  0  0  0  0  0  0  0  0  0
  -31.8980  -14.3400   22.6110 H   0  0  0  0  0  0  0  0  0  0  0  0
  1 51  1  0
  1  2  1  0
  3  5  1  0
  3  2  1  0
  3  6  1  0
  4  3  1  0
  8  7  1  0
  8  6  1  0
  8  9  1  0
 10  9  1  0
 11 22  2  0
 12 10  1  0
 12 17  1  0
 13 21  1  0
 13 23  1  0
 14 16  1  0
 15 21  1  0
 16 17  2  0
 16 15  1  0
 18 12  2  0
 19 18  1  0
 19 14  2  0
 20 14  1  0
 20 13  1  0
 21 11  1  0
 23 25  2  0
 24 23  1  0
 26 24  1  0
 27 36  2  0
 27 32  1  0
 28 24  1  0
 28 32  1  0
 29 28  1  0
 30 31  1  0
 30 29  1  0
 31 27  1  0
 32 33  2  0
 33 34  1  0
 35 34  2  0
 36 35  1  0
 37 11  1  0
 37 38  1  0
 37 47  1  0
 38 41  1  0
 39 43  1  0
 39 38  1  0
 40 39  2  0
 43 42  1  0
 45 46  1  0
 45 43  1  0
 45 44  1  0
 47 50  1  1
 47 48  1  0
 49 47  1  0
 52 53  1  0
 52 51  1  0
 54 53  1  0
 54 56  1  0
 54 57  1  0
 55 54  1  0
 58 51  1  0
 59 58  1  0
 59 96  1  0
 60 59  1  0
 61 66  1  0
 62 63  1  0
 62 61  1  0
 64 63  1  0
 64 71  1  0
 64 65  1  0
 66 60  1  0
 66 65  1  0
 67 60  2  0
 68 69  2  0
 69 88  1  0
 70 69  1  0
 70 73  1  0
 71 72  1  0
 71 68  1  0
 72 70  2  0
 73 74  1  0
 74 75  2  0
 76 79  1  0
 76 75  1  0
 77 76  2  0
 78 77  1  0
 78 73  2  0
 79 80  1  0
 80 81  1  0
 81 82  2  0
 83 82  1  0
 83 87  1  0
 84 83  2  0
 85 80  2  0
 85 84  1  0
 86 85  1  0
 88 89  1  0
 89 92  1  0
 89 91  1  0
 90 88  2  0
 93 68  1  0
 94 93  1  0
 95 93  1  0
 96 97  1  0
 97 98  1  0
 97 99  1  0
100 97  1  0
M  ISO  4   9 101  10 101  59 100  60 100
M  END
>  <TORSDO>  (30) 
F 29

>  <SCORE>  (30) 
-10.108

>  <name>  (30) 
29

>  <ligand_id>  (30) 
29

>  <original_smiles>  (30) 
[H]c1c([H])c([H])c2c(c1[H])C([H])([H])C([H])([H])C([H])([H])C2([H])N([H])C(=O)C1([H])N(C(=O)C([H])(N([H])C(=O)C([H])(N([H])C([H])([H])[H])C([H])([H])[H])C(C([H])([H])[H])(C([H])([H])[H])C([H])([H])[H])C([H])([H])c2c([H])c(OC([H])([H])C([H])(C([H])([H])[H])C([H])([H])[N+]([H])([H])C([H])([H])C([H])([H])N(C([H])([H])C([H])(C(=O)N3C([H])([H])C([H])([H])C([H])([H])C([H])(n4nc(-c5c([H])c([H])c(Oc6c([H])c([H])c(F)c([H])c6F)c([H])c5[H])c(C(=O)N([H])[H])c4N([H])[H])C3([H])[H])C([H])([H])[N+]([H])([H])[H])C([H])([H])C([H])([H])[N+]([H])([H])[H])c([H])c([H])c2C1([H])[H]

>  <smiles>  (30) 
[H]c1c([H])c([H])c2c(c1[H])C([H])([H])C([H])([H])C([H])([H])C2([H])N([H])C(=O)C1([H])N(C(=O)C([H])(N([H])C(=O)C([H])(N([H])C([H])([H])[H])C([H])([H])[H])C(C([H])([H])[H])(C([H])([H])[H])C([H])([H])[H])C([H])([H])c2c([H])c(OC([H])([H])C([H])(C([H])([H])[H])C([H])([H])[N+]([H])([H])C([H])([H])C([H])([H])N(C([H])([H])C([H])(C(=O)N3C([H])([H])C([H])([H])C([H])([H])C([H])(n4nc(-c5c([H])c([H])c(Oc6c([H])c([H])c(F)c([H])c6F)c([H])c5[H])c(C(=O)N([H])[H])c4N([H])[H])C3([H])[H])C([H])([H])[N+]([H])([H])[H])C([H])([H])C([H])([H])[N+]([H])([H])[H])c([H])c([H])c2C1([H])[H]

$$$$
30:0:0
     RDKit          3D

100108  0  0  1  0  0  0  0  0999 V2000
  -28.1710  -22.9220   20.5320 N   0  0  0  0  0  0  0  0  0  0  0  0
  -26.7050  -23.0250   20.7100 C   0  0  0  0  0  2  0  0  0  0  0  0
  -24.6470  -26.2440   22.9790 C   0  0  0  0  0  2  0  0  0  0  0  0
  -26.1470  -26.0610   23.2360 C   0  0  0  0  0  2  0  0  0  0  0  0
  -23.9620  -24.8810   22.8200 C   0  0  0  0  0  2  0  0  0  0  0  0
  -26.8080  -25.2460   22.1160 C   0  0  0  0  0  2  0  0  0  0  0  0
  -24.6260  -24.0640   21.6950 C   0  0  0  0  0  2  0  0  0  0  0  0
  -26.1500  -23.8680   21.8950 C   0  0  0  0  0  3  0  0  0  0  0  0
  -28.4990  -22.0100   19.3960 C   0  0  0  0  0  2  0  0  0  0  0  0
  -29.2890  -20.6640   19.6810 C   0  0  0  0  0  2  0  0  0  0  0  0
  -28.4590  -19.4650   20.0350 N   0  0  0  0  0  4  0  0  0  0  0  0
  -27.5120  -19.7240   19.8060 H   0  0  0  0  0  0  0  0  0  0  0  0
  -28.4730  -19.3410   21.0330 H   0  0  0  0  0  0  0  0  0  0  0  0
  -28.6870  -18.1350   19.3470 C   0  0  0  0  0  2  0  0  0  0  0  0
  -29.7870  -17.1630   19.9430 C   0  0  0  0  0  3  0  0  0  0  0  0
  -30.2540  -14.7550   19.0770 C   0  0  0  0  0  0  0  0  0  0  0  0
  -29.8850  -12.5300   18.0470 C   0  0  0  0  0  2  0  0  0  0  0  0
  -28.7140  -12.6510   17.0480 C   0  0  0  0  0  2  0  0  0  0  0  0
  -27.3510  -12.4870   17.7560 C   0  0  0  0  0  2  0  0  0  0  0  0
  -27.2360  -13.3450   19.0440 C   0  0  0  0  0  3  0  0  0  0  0  0
  -28.4930  -13.1700   19.9270 C   0  0  0  0  0  2  0  0  0  0  0  0
  -29.6620  -13.5290   19.1050 N   0  0  0  0  0  0  0  0  0  0  0  0
  -31.3020  -14.9860   18.4690 O   0  0  0  0  0  0  0  0  0  0  0  0
  -29.5030  -15.7370   19.6330 N   0  0  0  0  0  0  0  0  0  0  0  0
  -28.6340  -15.3890   20.0080 H   0  0  0  0  0  0  0  0  0  0  0  0
  -25.0800  -13.9340   20.3190 C   0  0  0  0  0  0  0  0  0  0  0  0
  -24.0820  -13.1520   20.8380 C   0  0  0  0  0  0  0  0  0  0  0  0
  -24.4640  -11.8010   20.5760 C   0  0  0  0  0  0  0  0  0  0  0  0
  -26.0090  -13.0560   19.7810 N   0  0  0  0  0  0  0  0  0  0  0  0
  -25.6540  -11.7630   19.9900 N   0  0  0  0  0  0  0  0  0  0  0  0
  -23.7390  -10.5430   20.7970 C   0  0  0  0  0  0  0  0  0  0  0  0
  -24.2940   -9.4970   21.5670 C   0  0  0  0  0  3  0  0  0  0  0  0
  -23.5700   -8.3040   21.7790 C   0  0  0  0  0  3  0  0  0  0  0  0
  -22.2780   -8.1500   21.2230 C   0  0  0  0  0  0  0  0  0  0  0  0
  -21.7400   -9.1860   20.4390 C   0  0  0  0  0  3  0  0  0  0  0  0
  -22.4650  -10.3700   20.2240 C   0  0  0  0  0  3  0  0  0  0  0  0
  -21.5110   -7.0170   21.3560 O   0  0  0  0  0  0  0  0  0  0  0  0
  -21.5960   -6.2180   22.4670 C   0  0  0  0  0  0  0  0  0  0  0  0
  -21.3580   -6.7180   23.7660 C   0  0  0  0  0  3  0  0  0  0  0  0
  -21.3860   -5.8460   24.8720 C   0  0  0  0  0  3  0  0  0  0  0  0
  -21.6440   -4.4760   24.6830 C   0  0  0  0  0  0  0  0  0  0  0  0
  -21.8760   -3.9740   23.3900 C   0  0  0  0  0  3  0  0  0  0  0  0
  -21.8490   -4.8430   22.2850 C   0  0  0  0  0  0  0  0  0  0  0  0
  -22.0530   -4.3510   21.0390 F   0  0  0  0  0  0  0  0  0  0  0  0
  -21.6630   -3.6360   25.7440 F   0  0  0  0  0  0  0  0  0  0  0  0
  -22.8000  -13.6320   21.4540 C   0  0  0  0  0  0  0  0  0  0  0  0
  -22.2530  -12.8760   22.3990 N   0  0  0  0  0  0  0  0  0  0  0  0
  -22.2980  -14.7080   21.1300 O   0  0  0  0  0  0  0  0  0  0  0  0
  -22.6730  -12.0020   22.6790 H   0  0  0  0  0  0  0  0  0  0  0  0
  -21.4010  -13.1760   22.8520 H   0  0  0  0  0  0  0  0  0  0  0  0
  -25.2620  -15.3110   20.2420 N   0  0  0  0  0  0  0  0  0  0  0  0
  -24.5510  -15.9580   20.5620 H   0  0  0  0  0  0  0  0  0  0  0  0
  -26.0050  -15.7650   19.7240 H   0  0  0  0  0  0  0  0  0  0  0  0
  -29.8940  -17.2900   21.4840 C   0  0  0  0  0  2  0  0  0  0  0  0
  -32.2810  -16.3370   21.5280 C   0  0  0  0  0  1  0  0  0  0  0  0
  -31.0050  -16.6950   23.6810 C   0  0  0  0  0  1  0  0  0  0  0  0
  -30.8920  -16.3370   22.1920 C   0  0  0  0  0  3  0  0  0  0  0  0
  -28.8670  -24.2600   20.4800 C   0  0  0  0  0  2  0  0  0  0  0  0
  -28.4500  -25.3690   19.4280 C   0  0  0  0  0  2  0  0  0  0  0  0
  -28.3680  -26.7530   19.9330 O   0  0  0  0  0  0  0  0  0  0  0  0
  -24.4130  -31.8030   23.1830 C   0  0  0  0  0  0  0  0  0  0  0  0
  -27.1690  -27.4810   19.9350 C   0  0  0  0  0  0  0  0  0  0  0  0
  -23.2350  -30.3830   21.5420 C   0  0  0  0  0  3  0  0  0  0  0  0
  -24.7200  -28.9530   20.0390 C   0  0  0  0  0  0  0  0  0  0  0  0
  -25.7460  -30.8430   21.2990 C   0  0  0  0  0  2  0  0  0  0  0  0
  -25.8770  -29.4910   20.6140 C   0  0  0  0  0  0  0  0  0  0  0  0
  -27.1020  -28.7650   20.5550 C   0  0  0  0  0  3  0  0  0  0  0  0
  -25.9800  -26.9940   19.3410 C   0  0  0  0  0  3  0  0  0  0  0  0
  -24.7710  -27.7070   19.4010 C   0  0  0  0  0  3  0  0  0  0  0  0
  -23.4420  -29.7540   20.1410 C   0  0  0  0  0  2  0  0  0  0  0  0
  -24.4840  -31.0260   22.0640 N   0  0  0  0  0  0  0  0  0  0  0  0
  -23.3320  -32.0150   23.7510 O   0  0  0  0  0  0  0  0  0  0  0  0
  -22.6560  -29.3090   22.4920 C   0  0  0  0  0  0  0  0  0  0  0  0
  -21.3460  -29.0420   22.3680 N   0  0  0  0  0  0  0  0  0  0  0  0
  -23.3820  -28.7190   23.2970 O   0  0  0  0  0  0  0  0  0  0  0  0
  -20.8150  -29.5710   21.6910 H   0  0  0  0  0  0  0  0  0  0  0  0
  -18.0650  -27.6020   22.8550 C   0  0  0  0  0  0  0  0  0  0  0  0
  -20.5980  -28.0410   23.1300 C   0  0  0  0  0  3  0  0  0  0  0  0
  -20.8040  -26.6240   22.5490 C   0  0  0  0  0  2  0  0  0  0  0  0
  -19.7300  -26.2290   21.5310 C   0  0  0  0  0  2  0  0  0  0  0  0
  -18.3400  -26.2720   22.1710 C   0  0  0  0  0  2  0  0  0  0  0  0
  -19.1260  -28.4400   23.2900 C   0  0  0  0  0  0  0  0  0  0  0  0
  -18.8190  -29.6820   23.8870 C   0  0  0  0  0  3  0  0  0  0  0  0
  -17.4810  -30.0880   24.0560 C   0  0  0  0  0  3  0  0  0  0  0  0
  -16.4350  -29.2480   23.6380 C   0  0  0  0  0  3  0  0  0  0  0  0
  -16.7260  -28.0070   23.0430 C   0  0  0  0  0  3  0  0  0  0  0  0
  -25.6810  -32.4840   23.7830 C   0  0  0  0  0  3  0  0  0  0  0  0
  -25.3380  -33.8830   24.0770 N   0  0  0  0  0  0  0  0  0  0  0  0
  -25.6240  -34.9210   23.2820 C   0  0  0  0  0  0  0  0  0  0  0  0
  -26.2780  -34.8080   22.2410 O   0  0  0  0  0  0  0  0  0  0  0  0
  -24.7550  -34.0460   24.8860 H   0  0  0  0  0  0  0  0  0  0  0  0
  -23.8230  -36.6400   22.9250 C   0  0  0  0  0  1  0  0  0  0  0  0
  -25.1020  -36.3060   23.7090 C   0  0  0  0  0  3  0  0  0  0  0  0
  -27.2260  -37.2870   24.4480 C   0  0  0  0  0  1  0  0  0  0  0  0
  -26.0930  -37.3900   23.5340 N   0  0  0  0  0  0  0  0  0  0  0  0
  -25.6590  -38.2980   23.6720 H   0  0  0  0  0  0  0  0  0  0  0  0
  -26.2220  -31.7580   25.0760 C   0  0  1  0  0  0  0  0  0  0  0  0
  -25.1350  -31.5090   26.1480 C   0  0  0  0  0  1  0  0  0  0  0  0
  -26.8480  -30.3900   24.7170 C   0  0  0  0  0  1  0  0  0  0  0  0
  -27.3490  -32.6020   25.7170 C   0  0  0  0  0  1  0  0  0  0  0  0
  1  2  1  0
  2  8  1  0
  3  4  1  0
  5  3  1  0
  6  4  1  0
  7  8  1  0
  7  5  1  0
  8  6  1  0
  9 10  1  0
  9  1  1  0
 10 11  1  0
 11 13  1  0
 12 11  1  0
 14 11  1  0
 15 14  1  0
 15 54  1  0
 16 22  1  0
 16 24  1  0
 17 22  1  0
 18 19  1  0
 18 17  1  0
 20 19  1  0
 20 29  1  0
 20 21  1  0
 22 21  1  0
 23 16  2  0
 24 15  1  0
 24 25  1  0
 26 27  2  0
 27 46  1  0
 28 31  1  0
 28 27  1  0
 29 30  1  0
 29 26  1  0
 30 28  2  0
 31 32  1  0
 32 33  2  0
 34 37  1  0
 34 33  1  0
 35 34  2  0
 36 35  1  0
 36 31  2  0
 37 38  1  0
 38 39  1  0
 39 40  2  0
 41 40  1  0
 41 45  1  0
 42 41  2  0
 43 38  2  0
 43 42  1  0
 44 43  1  0
 46 47  1  0
 47 49  1  0
 47 50  1  0
 48 46  2  0
 51 26  1  0
 51 52  1  0
 53 51  1  0
 54 57  1  0
 55 57  1  0
 57 56  1  0
 58  1  1  0
 59 60  1  0
 59 58  1  0
 60 62  1  0
 61 72  2  0
 62 67  1  0
 63 71  1  0
 63 73  1  0
 64 70  1  0
 64 66  1  0
 65 71  1  0
 66 65  1  0
 67 66  2  0
 68 69  1  0
 68 62  2  0
 69 64  2  0
 70 63  1  0
 71 61  1  0
 73 75  2  0
 74 73  1  0
 76 74  1  0
 77 86  2  0
 77 82  1  0
 78 74  1  0
 78 82  1  0
 79 78  1  0
 80 81  1  0
 80 79  1  0
 81 77  1  0
 82 83  2  0
 83 84  1  0
 85 84  2  0
 86 85  1  0
 87 61  1  0
 87 88  1  0
 87 97  1  0
 88 91  1  0
 89 93  1  0
 89 88  1  0
 90 89  2  0
 93 92  1  0
 95 96  1  0
 95 93  1  0
 95 94  1  0
 97100  1  1
 97 98  1  0
 99 97  1  0
M  ISO  4  16 100  24 100  59 101  60 101
M  END
>  <TORSDO>  (31) 
F 27

>  <SCORE>  (31) 
-7.732

>  <name>  (31) 
30

>  <ligand_id>  (31) 
30

>  <original_smiles>  (31) 
[H]c1c([H])c([H])c2c(c1[H])C([H])([H])C([H])([H])C([H])([H])C2([H])N([H])C(=O)C1([H])N(C(=O)C([H])(N([H])C(=O)C([H])(N([H])C([H])([H])[H])C([H])([H])[H])C(C([H])([H])[H])(C([H])([H])[H])C([H])([H])[H])C([H])([H])c2c([H])c(OC([H])([H])C([H])([H])N(C([H])([H])C3([H])C([H])([H])C([H])([H])C([H])([H])C([H])([H])C3([H])[H])C([H])([H])C([H])([H])[N+]([H])([H])C([H])([H])C([H])(N([H])C(=O)N3C([H])([H])C([H])([H])C([H])([H])C([H])(n4nc(-c5c([H])c([H])c(Oc6c([H])c([H])c(F)c([H])c6F)c([H])c5[H])c(C(=O)N([H])[H])c4N([H])[H])C3([H])[H])C([H])([H])C([H])(C([H])([H])[H])C([H])([H])[H])c([H])c([H])c2C1([H])[H]

>  <smiles>  (31) 
[H]c1c([H])c([H])c2c(c1[H])C([H])([H])C([H])([H])C([H])([H])C2([H])N([H])C(=O)C1([H])N(C(=O)C([H])(N([H])C(=O)C([H])(N([H])C([H])([H])[H])C([H])([H])[H])C(C([H])([H])[H])(C([H])([H])[H])C([H])([H])[H])C([H])([H])c2c([H])c(OC([H])([H])C([H])([H])N(C([H])([H])C3([H])C([H])([H])C([H])([H])C([H])([H])C([H])([H])C3([H])[H])C([H])([H])C([H])([H])[N+]([H])([H])C([H])([H])C([H])(N([H])C(=O)N3C([H])([H])C([H])([H])C([H])([H])C([H])(n4nc(-c5c([H])c([H])c(Oc6c([H])c([H])c(F)c([H])c6F)c([H])c5[H])c(C(=O)N([H])[H])c4N([H])[H])C3([H])[H])C([H])([H])C([H])(C([H])([H])[H])C([H])([H])[H])c([H])c([H])c2C1([H])[H]

$$$$
31:0:0
     RDKit          3D

 94102  0  0  1  0  0  0  0  0999 V2000
  -31.1270  -22.7840   20.4070 C   0  0  0  0  0  2  0  0  0  0  0  0
  -30.6640  -22.3640   21.8260 C   0  0  0  0  0  2  0  0  0  0  0  0
  -29.9990  -23.0350   19.3840 C   0  0  0  0  0  2  0  0  0  0  0  0
  -29.4620  -21.3870   21.9180 C   0  0  0  0  0  2  0  0  0  0  0  0
  -28.6040  -22.7330   19.9310 C   0  0  0  0  0  3  0  0  0  0  0  0
  -28.7170  -21.2270   20.6500 N   0  0  1  0  0  4  0  0  0  0  0  0
  -27.7800  -21.1080   21.0110 H   0  0  0  0  0  0  0  0  0  0  0  0
  -27.9610  -24.2930   20.5830 C   0  0  0  0  0  2  0  0  0  0  0  0
  -28.1930  -25.9000   20.2750 O   0  0  0  0  0  0  0  0  0  0  0  0
  -24.6660  -31.9020   23.2400 C   0  0  0  0  0  0  0  0  0  0  0  0
  -27.1860  -26.9930   20.2640 C   0  0  0  0  0  0  0  0  0  0  0  0
  -23.4700  -30.4950   21.6150 C   0  0  0  0  0  3  0  0  0  0  0  0
  -24.9060  -28.8770   20.2070 C   0  0  0  0  0  0  0  0  0  0  0  0
  -26.0350  -30.7000   21.4600 C   0  0  0  0  0  2  0  0  0  0  0  0
  -26.1000  -29.2840   20.8180 C   0  0  0  0  0  0  0  0  0  0  0  0
  -27.2380  -28.3630   20.8190 C   0  0  0  0  0  3  0  0  0  0  0  0
  -25.9680  -26.7350   19.6050 C   0  0  0  0  0  3  0  0  0  0  0  0
  -24.8630  -27.6230   19.5780 C   0  0  0  0  0  3  0  0  0  0  0  0
  -23.6960  -29.8040   20.2430 C   0  0  0  0  0  2  0  0  0  0  0  0
  -24.7460  -31.0620   22.1560 N   0  0  0  0  0  0  0  0  0  0  0  0
  -23.5770  -32.1930   23.7620 O   0  0  0  0  0  0  0  0  0  0  0  0
  -22.7780  -29.5040   22.5880 C   0  0  0  0  0  0  0  0  0  0  0  0
  -21.4490  -29.3260   22.4590 N   0  0  0  0  0  0  0  0  0  0  0  0
  -23.4460  -28.8950   23.4270 O   0  0  0  0  0  0  0  0  0  0  0  0
  -20.9630  -29.8680   21.7580 H   0  0  0  0  0  0  0  0  0  0  0  0
  -18.0780  -28.0780   22.9530 C   0  0  0  0  0  0  0  0  0  0  0  0
  -20.6310  -28.3910   23.2400 C   0  0  0  0  0  3  0  0  0  0  0  0
  -20.7600  -26.9500   22.6950 C   0  0  0  0  0  2  0  0  0  0  0  0
  -19.6750  -26.5920   21.6740 C   0  0  0  0  0  2  0  0  0  0  0  0
  -18.2840  -26.7220   22.3010 C   0  0  0  0  0  2  0  0  0  0  0  0
  -19.1780  -28.8690   23.3790 C   0  0  0  0  0  0  0  0  0  0  0  0
  -18.9280  -30.1340   23.9530 C   0  0  0  0  0  3  0  0  0  0  0  0
  -17.6110  -30.6110   24.1020 C   0  0  0  0  0  3  0  0  0  0  0  0
  -16.5260  -29.8200   23.6890 C   0  0  0  0  0  3  0  0  0  0  0  0
  -16.7600  -28.5540   23.1220 C   0  0  0  0  0  3  0  0  0  0  0  0
  -25.9360  -32.5510   23.8660 C   0  0  0  0  0  3  0  0  0  0  0  0
  -25.6160  -33.9550   24.1880 N   0  0  0  0  0  0  0  0  0  0  0  0
  -25.9560  -35.0100   23.4360 C   0  0  0  0  0  0  0  0  0  0  0  0
  -26.6290  -34.9040   22.4080 O   0  0  0  0  0  0  0  0  0  0  0  0
  -25.0130  -34.1050   24.9830 H   0  0  0  0  0  0  0  0  0  0  0  0
  -24.2340  -36.8140   23.0790 C   0  0  0  0  0  1  0  0  0  0  0  0
  -25.4720  -36.4030   23.8930 C   0  0  0  0  0  3  0  0  0  0  0  0
  -27.6060  -37.2820   24.7340 C   0  0  0  0  0  1  0  0  0  0  0  0
  -26.5110  -37.4520   23.7830 N   0  0  0  0  0  0  0  0  0  0  0  0
  -26.1090  -38.3750   23.9240 H   0  0  0  0  0  0  0  0  0  0  0  0
  -26.4400  -31.8000   25.1620 C   0  0  1  0  0  0  0  0  0  0  0  0
  -25.3380  -31.5830   26.2270 C   0  0  0  0  0  1  0  0  0  0  0  0
  -27.0240  -30.4160   24.8040 C   0  0  0  0  0  1  0  0  0  0  0  0
  -27.5910  -32.6000   25.8160 C   0  0  0  0  0  1  0  0  0  0  0  0
  -28.9300  -19.6980   19.9690 C   0  0  0  0  0  2  0  0  0  0  0  0
  -29.7240  -18.1980   20.6180 C   0  0  0  0  0  0  0  0  0  0  0  0
  -30.3970  -15.3040   20.2110 C   0  0  0  0  0  0  0  0  0  0  0  0
  -30.4150  -12.8760   19.3040 C   0  0  0  0  0  2  0  0  0  0  0  0
  -29.4870  -12.6840   18.0760 C   0  0  0  0  0  2  0  0  0  0  0  0
  -28.0400  -12.4080   18.5260 C   0  0  0  0  0  2  0  0  0  0  0  0
  -27.5950  -13.3570   19.6670 C   0  0  0  0  0  3  0  0  0  0  0  0
  -28.6480  -13.4810   20.7840 C   0  0  0  0  0  2  0  0  0  0  0  0
  -29.8570  -13.9990   20.1350 N   0  0  0  0  0  0  0  0  0  0  0  0
  -31.6270  -15.3290   20.0580 O   0  0  0  0  0  0  0  0  0  0  0  0
  -29.5990  -16.5600   20.2400 N   0  0  0  0  0  4  0  0  0  0  0  0
  -28.6280  -16.3150   20.1120 H   0  0  0  0  0  0  0  0  0  0  0  0
  -25.2280  -13.8960   20.4370 C   0  0  0  0  0  0  0  0  0  0  0  0
  -24.1780  -13.1070   20.8190 C   0  0  0  0  0  0  0  0  0  0  0  0
  -24.6640  -11.7630   20.7930 C   0  0  0  0  0  0  0  0  0  0  0  0
  -26.2780  -13.0310   20.1890 N   0  0  0  0  0  0  0  0  0  0  0  0
  -25.9530  -11.7440   20.4750 N   0  0  0  0  0  0  0  0  0  0  0  0
  -23.9540  -10.4930   20.9900 C   0  0  0  0  0  0  0  0  0  0  0  0
  -24.3920   -9.5400   21.9360 C   0  0  0  0  0  3  0  0  0  0  0  0
  -23.6770   -8.3380   22.1230 C   0  0  0  0  0  3  0  0  0  0  0  0
  -22.5130   -8.0790   21.3620 C   0  0  0  0  0  0  0  0  0  0  0  0
  -22.0960   -9.0210   20.4050 C   0  0  0  0  0  3  0  0  0  0  0  0
  -22.8110  -10.2150   20.2160 C   0  0  0  0  0  3  0  0  0  0  0  0
  -21.7720   -6.9260   21.4570 O   0  0  0  0  0  0  0  0  0  0  0  0
  -21.7170   -6.2000   22.6200 C   0  0  0  0  0  0  0  0  0  0  0  0
  -21.2510   -6.7610   23.8290 C   0  0  0  0  0  3  0  0  0  0  0  0
  -21.1430   -5.9590   24.9820 C   0  0  0  0  0  3  0  0  0  0  0  0
  -21.4940   -4.5970   24.9280 C   0  0  0  0  0  0  0  0  0  0  0  0
  -21.9520   -4.0350   23.7240 C   0  0  0  0  0  3  0  0  0  0  0  0
  -22.0600   -4.8330   22.5730 C   0  0  0  0  0  0  0  0  0  0  0  0
  -22.4820   -4.2810   21.4100 F   0  0  0  0  0  0  0  0  0  0  0  0
  -21.3840   -3.8240   26.0340 F   0  0  0  0  0  0  0  0  0  0  0  0
  -22.7770  -13.5700   21.0850 C   0  0  0  0  0  0  0  0  0  0  0  0
  -22.0540  -12.8690   21.9500 N   0  0  0  0  0  0  0  0  0  0  0  0
  -22.3300  -14.5890   20.5590 O   0  0  0  0  0  0  0  0  0  0  0  0
  -22.4310  -12.0460   22.3960 H   0  0  0  0  0  0  0  0  0  0  0  0
  -21.1130  -13.1590   22.1720 H   0  0  0  0  0  0  0  0  0  0  0  0
  -25.3640  -15.2670   20.2470 N   0  0  0  0  0  0  0  0  0  0  0  0
  -24.5740  -15.8940   20.3560 H   0  0  0  0  0  0  0  0  0  0  0  0
  -26.1730  -15.7160   19.8390 H   0  0  0  0  0  0  0  0  0  0  0  0
  -31.2260  -18.5170   20.8290 C   0  0  0  0  0  2  0  0  0  0  0  0
  -32.0840  -18.0780   19.7180 N   0  0  0  0  0  4  0  0  0  0  0  0
  -31.9840  -17.0670   19.6220 H   0  0  0  0  0  0  0  0  0  0  0  0
  -33.0490  -18.2670   19.9180 H   0  0  0  0  0  0  0  0  0  0  0  0
  -31.8290  -18.5150   18.8510 H   0  0  0  0  0  0  0  0  0  0  0  0
  1  2  1  0
  2  4  1  0
  3  5  1  0
  3  1  1  0
  5  8  1  0
  5  6  1  0
  6  7  1  1
  6  4  1  0
  9  8  1  0
 10 21  2  0
 11  9  1  0
 11 16  1  0
 12 20  1  0
 12 22  1  0
 13 19  1  0
 13 15  1  0
 14 20  1  0
 15 16  2  0
 15 14  1  0
 17 11  2  0
 18 17  1  0
 18 13  2  0
 19 12  1  0
 20 10  1  0
 22 24  2  0
 23 22  1  0
 25 23  1  0
 26 35  2  0
 26 31  1  0
 27 23  1  0
 27 31  1  0
 28 27  1  0
 29 30  1  0
 29 28  1  0
 30 26  1  0
 31 32  2  0
 32 33  1  0
 34 33  2  0
 35 34  1  0
 36 10  1  0
 36 37  1  0
 36 46  1  0
 37 40  1  0
 38 42  1  0
 38 37  1  0
 39 38  2  0
 42 41  1  0
 44 42  1  0
 44 45  1  0
 44 43  1  0
 46 49  1  1
 46 47  1  0
 48 46  1  0
 50 51  1  0
 50  6  1  0
 51 90  1  0
 52 60  1  0
 53 58  1  0
 54 55  1  0
 54 53  1  0
 56 55  1  0
 56 65  1  0
 56 57  1  0
 58 52  1  0
 58 57  1  0
 59 52  2  0
 60 51  2  0
 61 60  1  0
 62 63  2  0
 63 82  1  0
 64 63  1  0
 64 67  1  0
 65 62  1  0
 65 66  1  0
 66 64  2  0
 67 68  1  0
 68 69  2  0
 70 73  1  0
 70 69  1  0
 71 70  2  0
 72 71  1  0
 72 67  2  0
 73 74  1  0
 74 75  1  0
 75 76  2  0
 77 76  1  0
 77 81  1  0
 78 77  2  0
 79 74  2  0
 79 78  1  0
 80 79  1  0
 82 83  1  0
 83 86  1  0
 83 85  1  0
 84 82  2  0
 87 88  1  0
 87 62  1  0
 89 87  1  0
 91 93  1  0
 91 90  1  0
 92 91  1  0
 94 91  1  0
M  ISO  4   8 101   9 101  52 100  60 100
M  END
>  <TORSDO>  (32) 
F 21

>  <SCORE>  (32) 
-16.451

>  <name>  (32) 
31

>  <ligand_id>  (32) 
31

>  <original_smiles>  (32) 
[H]c1c([H])c([H])c2c(c1[H])C([H])([H])C([H])([H])C([H])([H])C2([H])N([H])C(=O)C1([H])N(C(=O)C([H])(N([H])C(=O)C([H])(N([H])C([H])([H])[H])C([H])([H])[H])C(C([H])([H])[H])(C([H])([H])[H])C([H])([H])[H])C([H])([H])c2c([H])c(OC([H])([H])C3([H])C([H])([H])C([H])([H])C([H])([H])C([H])([H])[N+]3([H])C([H])([H])C([H])(N([H])C(=O)N3C([H])([H])C([H])([H])C([H])([H])C([H])(n4nc(-c5c([H])c([H])c(Oc6c([H])c([H])c(F)c([H])c6F)c([H])c5[H])c(C(=O)N([H])[H])c4N([H])[H])C3([H])[H])C([H])([H])[N+]([H])([H])[H])c([H])c([H])c2C1([H])[H]

>  <smiles>  (32) 
[H]c1c([H])c([H])c2c(c1[H])C([H])([H])C([H])([H])C([H])([H])C2([H])N([H])C(=O)C1([H])N(C(=O)C([H])(N([H])C(=O)C([H])(N([H])C([H])([H])[H])C([H])([H])[H])C(C([H])([H])[H])(C([H])([H])[H])C([H])([H])[H])C([H])([H])c2c([H])c(OC([H])([H])C3([H])C([H])([H])C([H])([H])C([H])([H])C([H])([H])[N+]3([H])C([H])([H])C([H])(N([H])C(=O)N3C([H])([H])C([H])([H])C([H])([H])C([H])(n4nc(-c5c([H])c([H])c(Oc6c([H])c([H])c(F)c([H])c6F)c([H])c5[H])c(C(=O)N([H])[H])c4N([H])[H])C3([H])[H])C([H])([H])[N+]([H])([H])[H])c([H])c([H])c2C1([H])[H]

$$$$
32:0:0
     RDKit          3D

 87 95  0  0  1  0  0  0  0  0999 V2000
  -28.3950  -21.3190   20.1370 C   0  0  0  0  0  2  0  0  0  0  0  0
  -30.5110  -15.1980   20.2570 C   0  0  0  0  0  0  0  0  0  0  0  0
  -30.3960  -12.7980   19.3570 C   0  0  0  0  0  2  0  0  0  0  0  0
  -29.4530  -12.6270   18.1440 C   0  0  0  0  0  2  0  0  0  0  0  0
  -28.0110  -12.3720   18.6120 C   0  0  0  0  0  2  0  0  0  0  0  0
  -27.5850  -13.3350   19.7470 C   0  0  0  0  0  3  0  0  0  0  0  0
  -28.6520  -13.4810   20.8510 C   0  0  0  0  0  2  0  0  0  0  0  0
  -29.8830  -13.9370   20.1910 N   0  0  0  0  0  0  0  0  0  0  0  0
  -31.7350  -15.1570   20.0660 O   0  0  0  0  0  0  0  0  0  0  0  0
  -30.0880  -19.2860   21.0170 C   0  0  0  0  0  0  0  0  0  0  0  0
  -30.4640  -17.6870   21.1600 C   0  0  0  0  0  2  0  0  0  0  0  0
  -28.3440  -18.6500   19.6060 C   0  0  0  0  0  2  0  0  0  0  0  0
  -29.0070  -17.1640   19.3550 C   0  0  0  0  0  2  0  0  0  0  0  0
  -29.0870  -19.8240   20.2270 N   0  0  0  0  0  0  0  0  0  0  0  0
  -29.8470  -16.4970   20.4090 N   0  0  0  0  0  0  0  0  0  0  0  0
  -30.7610  -20.0600   21.7050 O   0  0  0  0  0  0  0  0  0  0  0  0
  -25.2290  -13.8870   20.5540 C   0  0  0  0  0  0  0  0  0  0  0  0
  -24.1750  -13.1010   20.9300 C   0  0  0  0  0  0  0  0  0  0  0  0
  -24.6440  -11.7520   20.8740 C   0  0  0  0  0  0  0  0  0  0  0  0
  -26.2690  -13.0150   20.2810 N   0  0  0  0  0  0  0  0  0  0  0  0
  -25.9310  -11.7260   20.5430 N   0  0  0  0  0  0  0  0  0  0  0  0
  -23.9250  -10.4850   21.0590 C   0  0  0  0  0  0  0  0  0  0  0  0
  -24.3700   -9.5110   21.9800 C   0  0  0  0  0  3  0  0  0  0  0  0
  -23.6500   -8.3100   22.1550 C   0  0  0  0  0  3  0  0  0  0  0  0
  -22.4700   -8.0740   21.4090 C   0  0  0  0  0  0  0  0  0  0  0  0
  -22.0440   -9.0370   20.4780 C   0  0  0  0  0  3  0  0  0  0  0  0
  -22.7650  -10.2300   20.3010 C   0  0  0  0  0  3  0  0  0  0  0  0
  -21.7200   -6.9270   21.4950 O   0  0  0  0  0  0  0  0  0  0  0  0
  -21.6740   -6.1800   22.6450 C   0  0  0  0  0  0  0  0  0  0  0  0
  -21.2280   -6.7230   23.8690 C   0  0  0  0  0  3  0  0  0  0  0  0
  -21.1300   -5.9020   25.0100 C   0  0  0  0  0  3  0  0  0  0  0  0
  -21.4690   -4.5390   24.9280 C   0  0  0  0  0  0  0  0  0  0  0  0
  -21.9080   -3.9940   23.7080 C   0  0  0  0  0  3  0  0  0  0  0  0
  -22.0070   -4.8120   22.5690 C   0  0  0  0  0  0  0  0  0  0  0  0
  -22.4090   -4.2770   21.3910 F   0  0  0  0  0  0  0  0  0  0  0  0
  -21.3680   -3.7480   26.0220 F   0  0  0  0  0  0  0  0  0  0  0  0
  -22.7800  -13.5690   21.2260 C   0  0  0  0  0  0  0  0  0  0  0  0
  -22.0710  -12.8670   22.1010 N   0  0  0  0  0  0  0  0  0  0  0  0
  -22.3290  -14.5930   20.7130 O   0  0  0  0  0  0  0  0  0  0  0  0
  -22.4480  -12.0400   22.5380 H   0  0  0  0  0  0  0  0  0  0  0  0
  -21.1350  -13.1630   22.3400 H   0  0  0  0  0  0  0  0  0  0  0  0
  -25.3890  -15.2600   20.3950 N   0  0  0  0  0  0  0  0  0  0  0  0
  -24.6350  -15.9210   20.5470 H   0  0  0  0  0  0  0  0  0  0  0  0
  -26.2490  -15.7040   20.0990 H   0  0  0  0  0  0  0  0  0  0  0  0
  -28.8880  -22.9840   20.3700 C   0  0  0  0  0  3  0  0  0  0  0  0
  -27.9180  -24.4430   20.1660 C   0  0  0  0  0  3  0  0  0  0  0  0
  -28.2000  -26.0230   20.3260 O   0  0  0  0  0  0  0  0  0  0  0  0
  -24.6360  -31.9060   23.2600 C   0  0  0  0  0  0  0  0  0  0  0  0
  -27.1770  -27.0810   20.2520 C   0  0  0  0  0  0  0  0  0  0  0  0
  -23.4330  -30.5170   21.6230 C   0  0  0  0  0  3  0  0  0  0  0  0
  -24.8730  -28.9150   20.2030 C   0  0  0  0  0  0  0  0  0  0  0  0
  -25.9960  -30.7370   21.4710 C   0  0  0  0  0  2  0  0  0  0  0  0
  -26.0610  -29.3340   20.8170 C   0  0  0  0  0  0  0  0  0  0  0  0
  -27.2090  -28.4370   20.8170 C   0  0  0  0  0  3  0  0  0  0  0  0
  -25.9590  -26.7910   19.5970 C   0  0  0  0  0  3  0  0  0  0  0  0
  -24.8410  -27.6600   19.5780 C   0  0  0  0  0  3  0  0  0  0  0  0
  -23.6560  -29.8340   20.2460 C   0  0  0  0  0  2  0  0  0  0  0  0
  -24.7100  -31.0780   22.1720 N   0  0  0  0  0  0  0  0  0  0  0  0
  -23.5490  -32.2000   23.7840 O   0  0  0  0  0  0  0  0  0  0  0  0
  -22.7400  -29.5180   22.5850 C   0  0  0  0  0  0  0  0  0  0  0  0
  -21.4100  -29.3580   22.4570 N   0  0  0  0  0  0  0  0  0  0  0  0
  -23.4030  -28.8930   23.4150 O   0  0  0  0  0  0  0  0  0  0  0  0
  -20.9300  -29.9100   21.7600 H   0  0  0  0  0  0  0  0  0  0  0  0
  -18.0210  -28.1680   22.9570 C   0  0  0  0  0  0  0  0  0  0  0  0
  -20.5810  -28.4250   23.2280 C   0  0  0  0  0  3  0  0  0  0  0  0
  -20.6790  -26.9920   22.6560 C   0  0  0  0  0  2  0  0  0  0  0  0
  -19.5790  -26.6690   21.6410 C   0  0  0  0  0  2  0  0  0  0  0  0
  -18.1970  -26.8190   22.2810 C   0  0  0  0  0  2  0  0  0  0  0  0
  -19.1410  -28.9300   23.3870 C   0  0  0  0  0  0  0  0  0  0  0  0
  -18.9210  -30.1920   23.9800 C   0  0  0  0  0  3  0  0  0  0  0  0
  -17.6160  -30.6930   24.1460 C   0  0  0  0  0  3  0  0  0  0  0  0
  -16.5110  -29.9290   23.7310 C   0  0  0  0  0  3  0  0  0  0  0  0
  -16.7150  -28.6670   23.1430 C   0  0  0  0  0  3  0  0  0  0  0  0
  -25.9130  -32.5400   23.8920 C   0  0  0  0  0  3  0  0  0  0  0  0
  -25.6030  -33.9410   24.2270 N   0  0  0  0  0  0  0  0  0  0  0  0
  -25.9130  -34.9960   23.4630 C   0  0  0  0  0  0  0  0  0  0  0  0
  -26.5530  -34.8950   22.4140 O   0  0  0  0  0  0  0  0  0  0  0  0
  -25.0310  -34.0920   25.0450 H   0  0  0  0  0  0  0  0  0  0  0  0
  -24.1600  -36.7820   23.1850 C   0  0  0  0  0  1  0  0  0  0  0  0
  -25.4400  -36.3860   23.9390 C   0  0  0  0  0  3  0  0  0  0  0  0
  -27.6040  -37.2920   24.6690 C   0  0  0  0  0  1  0  0  0  0  0  0
  -26.4610  -37.4440   23.7730 N   0  0  0  0  0  0  0  0  0  0  0  0
  -26.0560  -38.3640   23.9300 H   0  0  0  0  0  0  0  0  0  0  0  0
  -26.4140  -31.7720   25.1780 C   0  0  1  0  0  0  0  0  0  0  0  0
  -25.3110  -31.5470   26.2390 C   0  0  0  0  0  1  0  0  0  0  0  0
  -26.9930  -30.3890   24.8050 C   0  0  0  0  0  1  0  0  0  0  0  0
  -27.5650  -32.5630   25.8440 C   0  0  0  0  0  1  0  0  0  0  0  0
  1 14  1  0
  1 45  1  0
  2 15  1  0
  3  8  1  0
  4  5  1  0
  4  3  1  0
  6  5  1  0
  6 20  1  0
  6  7  1  0
  8  2  1  0
  8  7  1  0
  9  2  2  0
 10 11  1  0
 10 16  2  0
 12 14  1  0
 13 12  1  0
 13 15  1  0
 14 10  1  0
 15 11  1  0
 17 18  2  0
 18 37  1  0
 19 18  1  0
 19 22  1  0
 20 21  1  0
 20 17  1  0
 21 19  2  0
 22 23  1  0
 23 24  2  0
 25 28  1  0
 25 24  1  0
 26 25  2  0
 27 26  1  0
 27 22  2  0
 28 29  1  0
 29 30  1  0
 30 31  2  0
 32 31  1  0
 32 36  1  0
 33 32  2  0
 34 29  2  0
 34 33  1  0
 35 34  1  0
 37 38  1  0
 38 41  1  0
 38 40  1  0
 39 37  2  0
 42 43  1  0
 42 17  1  0
 44 42  1  0
 46 47  1  0
 46 45  2  0
 48 59  2  0
 49 47  1  0
 49 54  1  0
 50 58  1  0
 50 60  1  0
 51 57  1  0
 51 53  1  0
 52 58  1  0
 53 54  2  0
 53 52  1  0
 55 49  2  0
 56 55  1  0
 56 51  2  0
 57 50  1  0
 58 48  1  0
 60 62  2  0
 61 60  1  0
 63 61  1  0
 64 73  2  0
 64 69  1  0
 65 61  1  0
 65 69  1  0
 66 65  1  0
 67 68  1  0
 67 66  1  0
 68 64  1  0
 69 70  2  0
 70 71  1  0
 72 71  2  0
 73 72  1  0
 74 48  1  0
 74 75  1  0
 74 84  1  0
 75 78  1  0
 76 80  1  0
 76 75  1  0
 77 76  2  0
 80 79  1  0
 82 83  1  0
 82 80  1  0
 82 81  1  0
 84 87  1  1
 84 85  1  0
 86 84  1  0
M  ISO  4   2 100  15 100  46 101  47 101
M  END
>  <TORSDO>  (33) 
F 18

>  <SCORE>  (33) 
-16.067

>  <name>  (33) 
32

>  <ligand_id>  (33) 
32

>  <original_smiles>  (33) 
[H]c1c([H])c([H])c2c(c1[H])C([H])([H])C([H])([H])C([H])([H])C2([H])N([H])C(=O)C1([H])N(C(=O)C([H])(N([H])C(=O)C([H])(N([H])C([H])([H])[H])C([H])([H])[H])C(C([H])([H])[H])(C([H])([H])[H])C([H])([H])[H])C([H])([H])c2c([H])c(OC([H])([H])C([H])([H])C([H])([H])N3C(=O)C([H])([H])N(C(=O)N4C([H])([H])C([H])([H])C([H])([H])C([H])(n5nc(-c6c([H])c([H])c(Oc7c([H])c([H])c(F)c([H])c7F)c([H])c6[H])c(C(=O)N([H])[H])c5N([H])[H])C4([H])[H])C([H])([H])C3([H])[H])c([H])c([H])c2C1([H])[H]

>  <smiles>  (33) 
[H]c1c([H])c([H])c2c(c1[H])C([H])([H])C([H])([H])C([H])([H])C2([H])N([H])C(=O)C1([H])N(C(=O)C([H])(N([H])C(=O)C([H])(N([H])C([H])([H])[H])C([H])([H])[H])C(C([H])([H])[H])(C([H])([H])[H])C([H])([H])[H])C([H])([H])c2c([H])c(OC([H])([H])C([H])([H])C([H])([H])N3C(=O)C([H])([H])N(C(=O)N4C([H])([H])C([H])([H])C([H])([H])C([H])(n5nc(-c6c([H])c([H])c(Oc7c([H])c([H])c(F)c([H])c7F)c([H])c6[H])c(C(=O)N([H])[H])c5N([H])[H])C4([H])[H])C([H])([H])C3([H])[H])c([H])c([H])c2C1([H])[H]

$$$$
33:0:0
     RDKit          3D

 94102  0  0  1  0  0  0  0  0999 V2000
  -29.9900  -18.4390   19.9530 C   0  0  0  0  0  0  0  0  0  0  0  0
  -30.1930  -19.7890   20.2170 N   0  0  0  0  0  0  0  0  0  0  0  0
  -29.2100  -18.0810   19.0710 O   0  0  0  0  0  0  0  0  0  0  0  0
  -30.9580  -19.9780   20.8470 H   0  0  0  0  0  0  0  0  0  0  0  0
  -30.8090  -14.8310   19.7830 C   0  0  0  0  0  0  0  0  0  0  0  0
  -30.4310  -12.7040   18.4850 C   0  0  0  0  0  2  0  0  0  0  0  0
  -29.3320  -12.8940   17.4110 C   0  0  0  0  0  2  0  0  0  0  0  0
  -27.9180  -12.6850   18.0000 C   0  0  0  0  0  2  0  0  0  0  0  0
  -27.7360  -13.4280   19.3480 C   0  0  0  0  0  3  0  0  0  0  0  0
  -28.9200  -13.1080   20.2720 C   0  0  0  0  0  2  0  0  0  0  0  0
  -30.1470  -13.6170   19.6230 N   0  0  0  0  0  0  0  0  0  0  0  0
  -31.7980  -15.0620   19.0750 O   0  0  0  0  0  0  0  0  0  0  0  0
  -30.5080  -16.3560   23.0510 C   0  0  0  0  0  2  0  0  0  0  0  0
  -30.0640  -15.3210   22.0430 C   0  0  0  0  0  2  0  0  0  0  0  0
  -30.7540  -17.3010   20.7980 C   0  0  0  0  0  3  0  0  0  0  0  0
  -30.4150  -17.6480   22.2920 C   0  0  0  0  0  3  0  0  0  0  0  0
  -30.3490  -15.8060   20.6760 N   0  0  0  0  0  0  0  0  0  0  0  0
  -25.4820  -13.9930   20.4480 C   0  0  0  0  0  0  0  0  0  0  0  0
  -24.4590  -13.2040   20.8960 C   0  0  0  0  0  0  0  0  0  0  0  0
  -24.8770  -11.8550   20.6810 C   0  0  0  0  0  0  0  0  0  0  0  0
  -26.4590  -13.1210   19.9880 N   0  0  0  0  0  0  0  0  0  0  0  0
  -26.1080  -11.8250   20.1870 N   0  0  0  0  0  0  0  0  0  0  0  0
  -24.1520  -10.5910   20.8650 C   0  0  0  0  0  0  0  0  0  0  0  0
  -24.6360   -9.5780   21.7250 C   0  0  0  0  0  3  0  0  0  0  0  0
  -23.9130   -8.3780   21.8970 C   0  0  0  0  0  3  0  0  0  0  0  0
  -22.6930   -8.1820   21.2090 C   0  0  0  0  0  0  0  0  0  0  0  0
  -22.2260   -9.1810   20.3370 C   0  0  0  0  0  3  0  0  0  0  0  0
  -22.9490  -10.3720   20.1630 C   0  0  0  0  0  3  0  0  0  0  0  0
  -21.9400   -7.0370   21.2950 O   0  0  0  0  0  0  0  0  0  0  0  0
  -21.8770   -6.2960   22.4470 C   0  0  0  0  0  0  0  0  0  0  0  0
  -21.4360   -6.8560   23.6660 C   0  0  0  0  0  3  0  0  0  0  0  0
  -21.3220   -6.0460   24.8130 C   0  0  0  0  0  3  0  0  0  0  0  0
  -21.6360   -4.6740   24.7420 C   0  0  0  0  0  0  0  0  0  0  0  0
  -22.0710   -4.1150   23.5280 C   0  0  0  0  0  3  0  0  0  0  0  0
  -22.1870   -4.9220   22.3810 C   0  0  0  0  0  0  0  0  0  0  0  0
  -22.5860   -4.3730   21.2080 F   0  0  0  0  0  0  0  0  0  0  0  0
  -21.5170   -3.8940   25.8410 F   0  0  0  0  0  0  0  0  0  0  0  0
  -23.1230  -13.6740   21.3990 C   0  0  0  0  0  0  0  0  0  0  0  0
  -22.5100  -12.9240   22.3060 N   0  0  0  0  0  0  0  0  0  0  0  0
  -22.6380  -14.7380   21.0210 O   0  0  0  0  0  0  0  0  0  0  0  0
  -22.9170  -12.0610   22.6340 H   0  0  0  0  0  0  0  0  0  0  0  0
  -21.6180  -13.2140   22.6790 H   0  0  0  0  0  0  0  0  0  0  0  0
  -25.6480  -15.3740   20.3720 N   0  0  0  0  0  0  0  0  0  0  0  0
  -24.8980  -16.0080   20.6290 H   0  0  0  0  0  0  0  0  0  0  0  0
  -26.4200  -15.8370   19.9060 H   0  0  0  0  0  0  0  0  0  0  0  0
  -31.2240  -18.7070   22.9450 N   0  0  0  0  0  4  0  0  0  0  0  0
  -32.2110  -18.5590   22.8190 H   0  0  0  0  0  0  0  0  0  0  0  0
  -31.0470  -18.6850   23.9370 H   0  0  0  0  0  0  0  0  0  0  0  0
  -30.9830  -19.6290   22.6330 H   0  0  0  0  0  0  0  0  0  0  0  0
  -29.6470  -21.0660   19.5740 C   0  0  0  0  0  2  0  0  0  0  0  0
  -29.2770  -22.3370   20.5170 C   0  0  0  0  0  2  0  0  0  0  0  0
  -29.2300  -23.8600   19.9410 C   0  0  0  0  0  3  0  0  0  0  0  0
  -28.4830  -25.0340   20.7710 C   0  0  0  0  0  3  0  0  0  0  0  0
  -28.6500  -26.5010   20.4680 O   0  0  0  0  0  0  0  0  0  0  0  0
  -24.5200  -31.8010   23.2810 C   0  0  0  0  0  0  0  0  0  0  0  0
  -27.5060  -27.3270   20.4030 C   0  0  0  0  0  0  0  0  0  0  0  0
  -23.4760  -30.3390   21.5870 C   0  0  0  0  0  3  0  0  0  0  0  0
  -25.0750  -28.8490   20.2520 C   0  0  0  0  0  0  0  0  0  0  0  0
  -26.0060  -30.7670   21.5440 C   0  0  0  0  0  2  0  0  0  0  0  0
  -26.1870  -29.3880   20.9120 C   0  0  0  0  0  0  0  0  0  0  0  0
  -27.4070  -28.6380   20.9750 C   0  0  0  0  0  3  0  0  0  0  0  0
  -26.3730  -26.8560   19.7080 C   0  0  0  0  0  3  0  0  0  0  0  0
  -25.1730  -27.5910   19.6400 C   0  0  0  0  0  3  0  0  0  0  0  0
  -23.7980  -29.6680   20.2260 C   0  0  0  0  0  2  0  0  0  0  0  0
  -24.6810  -30.9900   22.1950 N   0  0  0  0  0  0  0  0  0  0  0  0
  -23.3980  -32.0290   23.7550 O   0  0  0  0  0  0  0  0  0  0  0  0
  -22.8120  -29.2970   22.5190 C   0  0  0  0  0  0  0  0  0  0  0  0
  -21.5020  -29.0550   22.3250 N   0  0  0  0  0  0  0  0  0  0  0  0
  -23.4730  -28.7080   23.3810 O   0  0  0  0  0  0  0  0  0  0  0  0
  -21.0210  -29.5900   21.6160 H   0  0  0  0  0  0  0  0  0  0  0  0
  -18.1700  -27.6830   22.6440 C   0  0  0  0  0  0  0  0  0  0  0  0
  -20.6920  -28.0810   23.0570 C   0  0  0  0  0  3  0  0  0  0  0  0
  -20.9010  -26.6530   22.5060 C   0  0  0  0  0  2  0  0  0  0  0  0
  -19.8790  -26.2710   21.4280 C   0  0  0  0  0  2  0  0  0  0  0  0
  -18.4550  -26.3430   21.9870 C   0  0  0  0  0  2  0  0  0  0  0  0
  -19.2210  -28.5070   23.1310 C   0  0  0  0  0  0  0  0  0  0  0  0
  -18.9020  -29.7580   23.7010 C   0  0  0  0  0  3  0  0  0  0  0  0
  -17.5660  -30.1910   23.7890 C   0  0  0  0  0  3  0  0  0  0  0  0
  -16.5290  -29.3680   23.3180 C   0  0  0  0  0  3  0  0  0  0  0  0
  -16.8310  -28.1140   22.7540 C   0  0  0  0  0  3  0  0  0  0  0  0
  -25.7330  -32.5020   23.9670 C   0  0  0  0  0  3  0  0  0  0  0  0
  -25.3430  -33.8900   24.2540 N   0  0  0  0  0  0  0  0  0  0  0  0
  -25.6580  -34.9440   23.4890 C   0  0  0  0  0  0  0  0  0  0  0  0
  -26.3780  -34.8540   22.4890 O   0  0  0  0  0  0  0  0  0  0  0  0
  -24.7100  -34.0290   25.0290 H   0  0  0  0  0  0  0  0  0  0  0  0
  -23.8600  -36.6460   23.0310 C   0  0  0  0  0  1  0  0  0  0  0  0
  -25.0870  -36.3170   23.8970 C   0  0  0  0  0  3  0  0  0  0  0  0
  -27.1450  -37.3270   24.7850 C   0  0  0  0  0  1  0  0  0  0  0  0
  -26.0730  -37.4180   23.7960 N   0  0  0  0  0  0  0  0  0  0  0  0
  -25.6160  -38.3210   23.9050 H   0  0  0  0  0  0  0  0  0  0  0  0
  -26.2020  -31.7770   25.2890 C   0  0  1  0  0  0  0  0  0  0  0  0
  -25.0540  -31.5010   26.2880 C   0  0  0  0  0  1  0  0  0  0  0  0
  -26.8760  -30.4250   24.9620 C   0  0  0  0  0  1  0  0  0  0  0  0
  -27.2640  -32.6380   26.0120 C   0  0  0  0  0  1  0  0  0  0  0  0
  1  2  1  0
  2  4  1  0
  3  1  2  0
  5 17  1  0
  6 11  1  0
  7  8  1  0
  7  6  1  0
  9  8  1  0
  9 21  1  0
  9 10  1  0
 11  5  1  0
 11 10  1  0
 12  5  2  0
 14 13  1  0
 15  1  1  0
 15 16  1  0
 16 46  1  0
 16 13  1  0
 17 15  1  0
 17 14  1  0
 18 19  2  0
 19 38  1  0
 20 23  1  0
 20 19  1  0
 21 22  1  0
 21 18  1  0
 22 20  2  0
 23 24  1  0
 24 25  2  0
 26 29  1  0
 26 25  1  0
 27 26  2  0
 28 27  1  0
 28 23  2  0
 29 30  1  0
 30 31  1  0
 31 32  2  0
 33 32  1  0
 33 37  1  0
 34 33  2  0
 35 30  2  0
 35 34  1  0
 36 35  1  0
 38 39  1  0
 39 41  1  0
 39 42  1  0
 40 38  2  0
 43 18  1  0
 43 44  1  0
 45 43  1  0
 46 48  1  0
 47 46  1  0
 49 46  1  0
 50  2  1  0
 50 51  1  0
 52 51  1  0
 52 53  2  0
 54 53  1  0
 55 66  2  0
 56 54  1  0
 56 61  1  0
 57 65  1  0
 57 67  1  0
 58 60  1  0
 59 65  1  0
 60 61  2  0
 60 59  1  0
 62 56  2  0
 63 62  1  0
 63 58  2  0
 64 58  1  0
 64 57  1  0
 65 55  1  0
 67 69  2  0
 68 67  1  0
 70 68  1  0
 71 80  2  0
 71 76  1  0
 72 68  1  0
 72 76  1  0
 73 72  1  0
 74 75  1  0
 74 73  1  0
 75 71  1  0
 76 77  2  0
 77 78  1  0
 79 78  2  0
 80 79  1  0
 81 55  1  0
 81 82  1  0
 81 91  1  0
 82 85  1  0
 83 87  1  0
 83 82  1  0
 84 83  2  0
 87 86  1  0
 89 87  1  0
 89 90  1  0
 89 88  1  0
 91 94  1  1
 91 92  1  0
 93 91  1  0
M  ISO  4   5 100  17 100  53 101  54 101
M  END
>  <TORSDO>  (34) 
F 21

>  <SCORE>  (34) 
-10.770

>  <name>  (34) 
33

>  <ligand_id>  (34) 
33

>  <original_smiles>  (34) 
[H]c1c([H])c([H])c2c(c1[H])C([H])([H])C([H])([H])C([H])([H])C2([H])N([H])C(=O)C1([H])N(C(=O)C([H])(N([H])C(=O)C([H])(N([H])C([H])([H])[H])C([H])([H])[H])C(C([H])([H])[H])(C([H])([H])[H])C([H])([H])[H])C([H])([H])c2c([H])c(OC([H])([H])C([H])([H])C([H])([H])C([H])([H])N([H])C(=O)C3([H])N(C(=O)N4C([H])([H])C([H])([H])C([H])([H])C([H])(n5nc(-c6c([H])c([H])c(Oc7c([H])c([H])c(F)c([H])c7F)c([H])c6[H])c(C(=O)N([H])[H])c5N([H])[H])C4([H])[H])C([H])([H])C([H])([H])C3([H])[N+]([H])([H])[H])c([H])c([H])c2C1([H])[H]

>  <smiles>  (34) 
[H]c1c([H])c([H])c2c(c1[H])C([H])([H])C([H])([H])C([H])([H])C2([H])N([H])C(=O)C1([H])N(C(=O)C([H])(N([H])C(=O)C([H])(N([H])C([H])([H])[H])C([H])([H])[H])C(C([H])([H])[H])(C([H])([H])[H])C([H])([H])[H])C([H])([H])c2c([H])c(OC([H])([H])C([H])([H])C([H])([H])C([H])([H])N([H])C(=O)C3([H])N(C(=O)N4C([H])([H])C([H])([H])C([H])([H])C([H])(n5nc(-c6c([H])c([H])c(Oc7c([H])c([H])c(F)c([H])c7F)c([H])c6[H])c(C(=O)N([H])[H])c5N([H])[H])C4([H])[H])C([H])([H])C([H])([H])C3([H])[N+]([H])([H])[H])c([H])c([H])c2C1([H])[H]

$$$$
34:0:0
     RDKit          3D

 87 95  0  0  1  0  0  0  0  0999 V2000
  -28.4030  -21.3220   20.2450 C   0  0  0  0  0  2  0  0  0  0  0  0
  -30.5070  -15.1840   20.2380 C   0  0  0  0  0  0  0  0  0  0  0  0
  -30.3910  -12.7830   19.3440 C   0  0  0  0  0  2  0  0  0  0  0  0
  -29.4500  -12.6340   18.1250 C   0  0  0  0  0  2  0  0  0  0  0  0
  -28.0080  -12.3800   18.5940 C   0  0  0  0  0  2  0  0  0  0  0  0
  -27.5860  -13.3390   19.7380 C   0  0  0  0  0  3  0  0  0  0  0  0
  -28.6540  -13.4630   20.8430 C   0  0  0  0  0  2  0  0  0  0  0  0
  -29.8850  -13.9190   20.1860 N   0  0  0  0  0  0  0  0  0  0  0  0
  -31.7240  -15.1540   20.0100 O   0  0  0  0  0  0  0  0  0  0  0  0
  -29.2130  -17.2560   19.2380 C   0  0  0  0  0  2  0  0  0  0  0  0
  -30.4780  -17.6630   21.1220 C   0  0  0  0  0  2  0  0  0  0  0  0
  -28.5220  -18.7510   19.4030 C   0  0  0  0  0  2  0  0  0  0  0  0
  -29.7730  -19.1530   21.3100 C   0  0  0  0  0  2  0  0  0  0  0  0
  -29.8330  -16.4790   20.3900 N   0  0  0  0  0  0  0  0  0  0  0  0
  -29.2440  -19.9140   20.0970 N   0  0  2  0  0  4  0  0  0  0  0  0
  -30.0400  -20.1270   19.5140 H   0  0  0  0  0  0  0  0  0  0  0  0
  -25.2340  -13.8880   20.5610 C   0  0  0  0  0  0  0  0  0  0  0  0
  -24.1780  -13.1040   20.9350 C   0  0  0  0  0  0  0  0  0  0  0  0
  -24.6450  -11.7550   20.8640 C   0  0  0  0  0  0  0  0  0  0  0  0
  -26.2690  -13.0170   20.2730 N   0  0  0  0  0  0  0  0  0  0  0  0
  -25.9290  -11.7270   20.5240 N   0  0  0  0  0  0  0  0  0  0  0  0
  -23.9230  -10.4880   21.0410 C   0  0  0  0  0  0  0  0  0  0  0  0
  -24.3520   -9.5150   21.9700 C   0  0  0  0  0  3  0  0  0  0  0  0
  -23.6270   -8.3150   22.1380 C   0  0  0  0  0  3  0  0  0  0  0  0
  -22.4580   -8.0810   21.3750 C   0  0  0  0  0  0  0  0  0  0  0  0
  -22.0480   -9.0420   20.4360 C   0  0  0  0  0  3  0  0  0  0  0  0
  -22.7740  -10.2330   20.2660 C   0  0  0  0  0  3  0  0  0  0  0  0
  -21.7030   -6.9350   21.4510 O   0  0  0  0  0  0  0  0  0  0  0  0
  -21.6140   -6.2080   22.6110 C   0  0  0  0  0  0  0  0  0  0  0  0
  -21.1240   -6.7740   23.8090 C   0  0  0  0  0  3  0  0  0  0  0  0
  -20.9830   -5.9730   24.9600 C   0  0  0  0  0  3  0  0  0  0  0  0
  -21.3220   -4.6070   24.9130 C   0  0  0  0  0  0  0  0  0  0  0  0
  -21.8060   -4.0420   23.7200 C   0  0  0  0  0  3  0  0  0  0  0  0
  -21.9480   -4.8390   22.5720 C   0  0  0  0  0  0  0  0  0  0  0  0
  -22.3930   -4.2840   21.4200 F   0  0  0  0  0  0  0  0  0  0  0  0
  -21.1800   -3.8350   26.0170 F   0  0  0  0  0  0  0  0  0  0  0  0
  -22.7870  -13.5760   21.2400 C   0  0  0  0  0  0  0  0  0  0  0  0
  -22.0770  -12.8670   22.1100 N   0  0  0  0  0  0  0  0  0  0  0  0
  -22.3400  -14.6080   20.7430 O   0  0  0  0  0  0  0  0  0  0  0  0
  -22.4530  -12.0330   22.5370 H   0  0  0  0  0  0  0  0  0  0  0  0
  -21.1460  -13.1690   22.3590 H   0  0  0  0  0  0  0  0  0  0  0  0
  -25.3940  -15.2640   20.4130 N   0  0  0  0  0  0  0  0  0  0  0  0
  -24.6320  -15.9150   20.5730 H   0  0  0  0  0  0  0  0  0  0  0  0
  -26.2450  -15.7150   20.1060 H   0  0  0  0  0  0  0  0  0  0  0  0
  -28.9020  -23.0030   20.2450 C   0  0  0  0  0  3  0  0  0  0  0  0
  -27.9120  -24.4510   20.1180 C   0  0  0  0  0  3  0  0  0  0  0  0
  -28.2070  -26.0310   20.2460 O   0  0  0  0  0  0  0  0  0  0  0  0
  -24.6500  -31.8880   23.2520 C   0  0  0  0  0  0  0  0  0  0  0  0
  -27.1840  -27.0860   20.1970 C   0  0  0  0  0  0  0  0  0  0  0  0
  -23.4430  -30.5070   21.6100 C   0  0  0  0  0  3  0  0  0  0  0  0
  -24.8800  -28.9170   20.1750 C   0  0  0  0  0  0  0  0  0  0  0  0
  -26.0060  -30.7310   21.4500 C   0  0  0  0  0  2  0  0  0  0  0  0
  -26.0690  -29.3330   20.7860 C   0  0  0  0  0  0  0  0  0  0  0  0
  -27.2200  -28.4370   20.7740 C   0  0  0  0  0  3  0  0  0  0  0  0
  -25.9630  -26.8000   19.5470 C   0  0  0  0  0  3  0  0  0  0  0  0
  -24.8460  -27.6680   19.5380 C   0  0  0  0  0  3  0  0  0  0  0  0
  -23.6630  -29.8340   20.2280 C   0  0  0  0  0  2  0  0  0  0  0  0
  -24.7210  -31.0670   22.1580 N   0  0  0  0  0  0  0  0  0  0  0  0
  -23.5650  -32.1780   23.7800 O   0  0  0  0  0  0  0  0  0  0  0  0
  -22.7550  -29.5030   22.5700 C   0  0  0  0  0  0  0  0  0  0  0  0
  -21.4250  -29.3370   22.4420 N   0  0  0  0  0  0  0  0  0  0  0  0
  -23.4210  -28.8740   23.3950 O   0  0  0  0  0  0  0  0  0  0  0  0
  -20.9430  -29.8950   21.7520 H   0  0  0  0  0  0  0  0  0  0  0  0
  -18.0410  -28.1350   22.9430 C   0  0  0  0  0  0  0  0  0  0  0  0
  -20.6010  -28.3990   23.2100 C   0  0  0  0  0  3  0  0  0  0  0  0
  -20.7010  -26.9670   22.6340 C   0  0  0  0  0  2  0  0  0  0  0  0
  -19.6000  -26.6460   21.6190 C   0  0  0  0  0  2  0  0  0  0  0  0
  -18.2180  -26.7880   22.2620 C   0  0  0  0  0  2  0  0  0  0  0  0
  -19.1590  -28.8980   23.3740 C   0  0  0  0  0  0  0  0  0  0  0  0
  -18.9370  -30.1560   23.9730 C   0  0  0  0  0  3  0  0  0  0  0  0
  -17.6310  -30.6530   24.1460 C   0  0  0  0  0  3  0  0  0  0  0  0
  -16.5290  -29.8880   23.7280 C   0  0  0  0  0  3  0  0  0  0  0  0
  -16.7340  -28.6310   23.1320 C   0  0  0  0  0  3  0  0  0  0  0  0
  -25.9290  -32.5180   23.8820 C   0  0  0  0  0  3  0  0  0  0  0  0
  -25.6210  -33.9190   24.2190 N   0  0  0  0  0  0  0  0  0  0  0  0
  -25.9290  -34.9760   23.4580 C   0  0  0  0  0  0  0  0  0  0  0  0
  -26.5680  -34.8770   22.4070 O   0  0  0  0  0  0  0  0  0  0  0  0
  -25.0480  -34.0690   25.0370 H   0  0  0  0  0  0  0  0  0  0  0  0
  -24.1770  -36.7640   23.1830 C   0  0  0  0  0  1  0  0  0  0  0  0
  -25.4580  -36.3650   23.9340 C   0  0  0  0  0  3  0  0  0  0  0  0
  -27.6220  -37.2680   24.6640 C   0  0  0  0  0  1  0  0  0  0  0  0
  -26.4780  -37.4240   23.7690 N   0  0  0  0  0  0  0  0  0  0  0  0
  -26.0730  -38.3430   23.9280 H   0  0  0  0  0  0  0  0  0  0  0  0
  -26.4320  -31.7480   25.1660 C   0  0  1  0  0  0  0  0  0  0  0  0
  -25.3310  -31.5220   26.2290 C   0  0  0  0  0  1  0  0  0  0  0  0
  -27.0090  -30.3640   24.7890 C   0  0  0  0  0  1  0  0  0  0  0  0
  -27.5840  -32.5370   25.8320 C   0  0  0  0  0  1  0  0  0  0  0  0
  1 45  1  0
  2 14  1  0
  3  8  1  0
  4  5  1  0
  4  3  1  0
  6  5  1  0
  6 20  1  0
  6  7  1  0
  8  2  1  0
  8  7  1  0
  9  2  2  0
 10 12  1  0
 10 14  1  0
 11 13  1  0
 12 15  1  0
 14 11  1  0
 15  1  1  0
 15 13  1  0
 15 16  1  6
 17 18  2  0
 18 37  1  0
 19 18  1  0
 19 22  1  0
 20 21  1  0
 20 17  1  0
 21 19  2  0
 22 23  1  0
 23 24  2  0
 25 28  1  0
 25 24  1  0
 26 25  2  0
 27 26  1  0
 27 22  2  0
 28 29  1  0
 29 30  1  0
 30 31  2  0
 32 31  1  0
 32 36  1  0
 33 32  2  0
 34 29  2  0
 34 33  1  0
 35 34  1  0
 37 38  1  0
 38 41  1  0
 38 40  1  0
 39 37  2  0
 42 17  1  0
 42 43  1  0
 44 42  1  0
 46 45  2  0
 46 47  1  0
 48 59  2  0
 49 47  1  0
 49 54  1  0
 50 58  1  0
 50 60  1  0
 51 57  1  0
 51 53  1  0
 52 58  1  0
 53 52  1  0
 54 53  2  0
 55 49  2  0
 56 55  1  0
 56 51  2  0
 57 50  1  0
 58 48  1  0
 60 62  2  0
 61 60  1  0
 63 61  1  0
 64 73  2  0
 64 69  1  0
 65 61  1  0
 65 69  1  0
 66 65  1  0
 67 68  1  0
 67 66  1  0
 68 64  1  0
 69 70  2  0
 70 71  1  0
 72 71  2  0
 73 72  1  0
 74 48  1  0
 74 75  1  0
 74 84  1  0
 75 78  1  0
 76 80  1  0
 76 75  1  0
 77 76  2  0
 80 79  1  0
 82 83  1  0
 82 80  1  0
 82 81  1  0
 84 87  1  1
 84 85  1  0
 86 84  1  0
M  ISO  4   2 100  14 100  46 101  47 101
M  END
>  <TORSDO>  (35) 
F 18

>  <SCORE>  (35) 
-15.663

>  <name>  (35) 
34

>  <ligand_id>  (35) 
34

>  <original_smiles>  (35) 
[H]c1c([H])c([H])c2c(c1[H])C([H])([H])C([H])([H])C([H])([H])C2([H])N([H])C(=O)C1([H])N(C(=O)C([H])(N([H])C(=O)C([H])(N([H])C([H])([H])[H])C([H])([H])[H])C(C([H])([H])[H])(C([H])([H])[H])C([H])([H])[H])C([H])([H])c2c([H])c(OC([H])([H])C([H])([H])C([H])([H])[N+]3([H])C([H])([H])C([H])([H])N(C(=O)N4C([H])([H])C([H])([H])C([H])([H])C([H])(n5nc(-c6c([H])c([H])c(Oc7c([H])c([H])c(F)c([H])c7F)c([H])c6[H])c(C(=O)N([H])[H])c5N([H])[H])C4([H])[H])C([H])([H])C3([H])[H])c([H])c([H])c2C1([H])[H]

>  <smiles>  (35) 
[H]c1c([H])c([H])c2c(c1[H])C([H])([H])C([H])([H])C([H])([H])C2([H])N([H])C(=O)C1([H])N(C(=O)C([H])(N([H])C(=O)C([H])(N([H])C([H])([H])[H])C([H])([H])[H])C(C([H])([H])[H])(C([H])([H])[H])C([H])([H])[H])C([H])([H])c2c([H])c(OC([H])([H])C([H])([H])C([H])([H])[N+]3([H])C([H])([H])C([H])([H])N(C(=O)N4C([H])([H])C([H])([H])C([H])([H])C([H])(n5nc(-c6c([H])c([H])c(Oc7c([H])c([H])c(F)c([H])c7F)c([H])c6[H])c(C(=O)N([H])[H])c5N([H])[H])C4([H])[H])C([H])([H])C3([H])[H])c([H])c([H])c2C1([H])[H]

$$$$
35:0:0
     RDKit          3D

100107  0  0  1  0  0  0  0  0999 V2000
  -27.1120  -25.0750   16.6170 C   0  0  0  0  0  3  0  0  0  0  0  0
  -25.9020  -25.1850   15.6610 C   0  0  0  0  0  2  0  0  0  0  0  0
  -26.2870  -25.4750   14.2680 N   0  0  0  0  0  4  0  0  0  0  0  0
  -26.7470  -26.3620   14.1910 H   0  0  0  0  0  0  0  0  0  0  0  0
  -25.4630  -25.5030   13.6940 H   0  0  0  0  0  0  0  0  0  0  0  0
  -26.8880  -24.7560   13.9090 H   0  0  0  0  0  0  0  0  0  0  0  0
  -27.9000  -26.4040   16.7690 C   0  0  0  0  0  2  0  0  0  0  0  0
  -29.0200  -26.4500   17.8510 C   0  0  0  0  0  3  0  0  0  0  0  0
  -30.8810  -27.9230   16.9230 C   0  0  0  0  0  1  0  0  0  0  0  0
  -29.6920  -27.8420   17.8910 C   0  0  0  0  0  2  0  0  0  0  0  0
  -28.6800  -25.8820   19.2610 C   0  0  0  0  0  2  0  0  0  0  0  0
  -28.3690  -26.8510   20.2560 O   0  0  0  0  0  0  0  0  0  0  0  0
  -24.5290  -31.9790   23.2640 C   0  0  0  0  0  0  0  0  0  0  0  0
  -27.1650  -27.5100   20.2370 C   0  0  0  0  0  0  0  0  0  0  0  0
  -23.3160  -30.5580   21.6350 C   0  0  0  0  0  3  0  0  0  0  0  0
  -24.7630  -28.9940   20.2360 C   0  0  0  0  0  0  0  0  0  0  0  0
  -25.8350  -30.9160   21.4230 C   0  0  0  0  0  2  0  0  0  0  0  0
  -25.9190  -29.5320   20.8140 C   0  0  0  0  0  0  0  0  0  0  0  0
  -27.1180  -28.7940   20.8190 C   0  0  0  0  0  3  0  0  0  0  0  0
  -25.9820  -26.9600   19.6980 C   0  0  0  0  0  3  0  0  0  0  0  0
  -24.7880  -27.7070   19.6790 C   0  0  0  0  0  3  0  0  0  0  0  0
  -23.5210  -29.8550   20.2660 C   0  0  0  0  0  2  0  0  0  0  0  0
  -24.5780  -31.1700   22.1660 N   0  0  0  0  0  0  0  0  0  0  0  0
  -23.4500  -32.2580   23.8040 O   0  0  0  0  0  0  0  0  0  0  0  0
  -22.6640  -29.5510   22.6110 C   0  0  0  0  0  0  0  0  0  0  0  0
  -21.3380  -29.3730   22.4870 N   0  0  0  0  0  0  0  0  0  0  0  0
  -23.3450  -28.9370   23.4340 O   0  0  0  0  0  0  0  0  0  0  0  0
  -20.8550  -29.9320   21.7960 H   0  0  0  0  0  0  0  0  0  0  0  0
  -17.9590  -28.1970   22.9880 C   0  0  0  0  0  0  0  0  0  0  0  0
  -20.5160  -28.4490   23.2650 C   0  0  0  0  0  3  0  0  0  0  0  0
  -20.6170  -27.0080   22.7100 C   0  0  0  0  0  2  0  0  0  0  0  0
  -19.5160  -26.6740   21.6990 C   0  0  0  0  0  2  0  0  0  0  0  0
  -18.1340  -26.8350   22.3370 C   0  0  0  0  0  2  0  0  0  0  0  0
  -19.0780  -28.9610   23.4120 C   0  0  0  0  0  0  0  0  0  0  0  0
  -18.8640  -30.2350   23.9840 C   0  0  0  0  0  3  0  0  0  0  0  0
  -17.5610  -30.7450   24.1300 C   0  0  0  0  0  3  0  0  0  0  0  0
  -16.4550  -29.9790   23.7220 C   0  0  0  0  0  3  0  0  0  0  0  0
  -16.6560  -28.7060   23.1590 C   0  0  0  0  0  3  0  0  0  0  0  0
  -25.8170  -32.6110   23.8770 C   0  0  0  0  0  3  0  0  0  0  0  0
  -26.3500  -31.8390   25.1480 C   0  0  1  0  0  0  0  0  0  0  0  0
  -25.2730  -31.5920   26.2300 C   0  0  0  0  0  1  0  0  0  0  0  0
  -26.9310  -30.4650   24.7360 C   0  0  0  0  0  1  0  0  0  0  0  0
  -27.5020  -32.6420   25.8020 C   0  0  0  0  0  1  0  0  0  0  0  0
  -25.5030  -34.0060   24.2080 N   0  0  0  0  0  0  0  0  0  0  0  0
  -25.8340  -35.0600   23.4490 C   0  0  0  0  0  0  0  0  0  0  0  0
  -26.5070  -34.9610   22.4190 O   0  0  0  0  0  0  0  0  0  0  0  0
  -24.9030  -34.1610   25.0050 H   0  0  0  0  0  0  0  0  0  0  0  0
  -24.1090  -36.8590   23.0960 C   0  0  0  0  0  1  0  0  0  0  0  0
  -25.3450  -36.4450   23.9100 C   0  0  0  0  0  3  0  0  0  0  0  0
  -27.4760  -37.3280   24.7540 C   0  0  0  0  0  1  0  0  0  0  0  0
  -26.3770  -37.5000   23.8060 N   0  0  0  0  0  0  0  0  0  0  0  0
  -25.9680  -38.4190   23.9590 H   0  0  0  0  0  0  0  0  0  0  0  0
  -28.0010  -23.8390   16.3280 C   0  0  0  0  0  2  0  0  0  0  0  0
  -27.5960  -22.5950   17.1450 C   0  0  0  0  0  2  0  0  0  0  0  0
  -28.8000  -21.6720   17.3870 C   0  0  0  0  0  2  0  0  0  0  0  0
  -28.5390  -20.6050   18.4590 C   0  0  0  0  0  2  0  0  0  0  0  0
  -29.8510  -19.9670   18.9260 C   0  0  0  0  0  2  0  0  0  0  0  0
  -29.6600  -18.8920   19.9990 C   0  0  0  0  0  2  0  0  0  0  0  0
  -31.0110  -18.2800   20.3890 C   0  0  0  0  0  2  0  0  0  0  0  0
  -30.8590  -16.9840   21.1860 C   0  0  0  0  0  2  0  0  0  0  0  0
  -32.1770  -16.1930   21.2340 C   0  0  0  0  0  2  0  0  0  0  0  0
  -32.0270  -14.7440   21.7300 C   0  0  0  0  0  2  0  0  0  0  0  0
  -30.7820  -13.7360   19.8000 C   0  0  0  0  0  0  0  0  0  0  0  0
  -30.0420  -11.8530   18.4020 C   0  0  0  0  0  2  0  0  0  0  0  0
  -28.9370  -12.1780   17.3860 C   0  0  0  0  0  2  0  0  0  0  0  0
  -27.5490  -12.0610   18.0370 C   0  0  0  0  0  2  0  0  0  0  0  0
  -27.4480  -12.8380   19.3750 C   0  0  0  0  0  3  0  0  0  0  0  0
  -28.6430  -12.5100   20.2990 C   0  0  0  0  0  2  0  0  0  0  0  0
  -29.9020  -12.7360   19.5660 N   0  0  0  0  0  0  0  0  0  0  0  0
  -31.5560  -14.1830   18.9470 O   0  0  0  0  0  0  0  0  0  0  0  0
  -30.9290  -14.0080   21.1010 N   0  0  0  0  0  0  0  0  0  0  0  0
  -30.2800  -13.5460   21.7200 H   0  0  0  0  0  0  0  0  0  0  0  0
  -25.1890  -13.4840   20.4310 C   0  0  0  0  0  0  0  0  0  0  0  0
  -24.1560  -12.7240   20.9170 C   0  0  0  0  0  0  0  0  0  0  0  0
  -24.5650  -11.3630   20.7700 C   0  0  0  0  0  0  0  0  0  0  0  0
  -26.1650  -12.5840   20.0290 N   0  0  0  0  0  0  0  0  0  0  0  0
  -25.7970  -11.3010   20.2830 N   0  0  0  0  0  0  0  0  0  0  0  0
  -23.8280  -10.1130   21.0120 C   0  0  0  0  0  0  0  0  0  0  0  0
  -24.3160   -9.1260   21.8970 C   0  0  0  0  0  3  0  0  0  0  0  0
  -23.5800   -7.9430   22.1260 C   0  0  0  0  0  3  0  0  0  0  0  0
  -22.3430   -7.7390   21.4710 C   0  0  0  0  0  0  0  0  0  0  0  0
  -21.8730   -8.7120   20.5720 C   0  0  0  0  0  3  0  0  0  0  0  0
  -22.6090   -9.8870   20.3410 C   0  0  0  0  0  3  0  0  0  0  0  0
  -21.5730   -6.6090   21.6130 O   0  0  0  0  0  0  0  0  0  0  0  0
  -21.5850   -5.8720   22.7680 C   0  0  0  0  0  0  0  0  0  0  0  0
  -21.2120   -6.4270   24.0120 C   0  0  0  0  0  3  0  0  0  0  0  0
  -21.1730   -5.6150   25.1630 C   0  0  0  0  0  3  0  0  0  0  0  0
  -21.4970   -4.2480   25.0720 C   0  0  0  0  0  0  0  0  0  0  0  0
  -21.8630   -3.6920   23.8330 C   0  0  0  0  0  3  0  0  0  0  0  0
  -21.9040   -4.5010   22.6860 C   0  0  0  0  0  0  0  0  0  0  0  0
  -22.2380   -3.9550   21.4910 F   0  0  0  0  0  0  0  0  0  0  0  0
  -21.4520   -3.4650   26.1760 F   0  0  0  0  0  0  0  0  0  0  0  0
  -22.8280  -13.2280   21.4050 C   0  0  0  0  0  0  0  0  0  0  0  0
  -22.2100  -12.5160   22.3420 N   0  0  0  0  0  0  0  0  0  0  0  0
  -22.3520  -14.2830   20.9910 O   0  0  0  0  0  0  0  0  0  0  0  0
  -22.6090  -11.6580   22.6950 H   0  0  0  0  0  0  0  0  0  0  0  0
  -21.3260  -12.8340   22.7130 H   0  0  0  0  0  0  0  0  0  0  0  0
  -25.3730  -14.8540   20.2830 N   0  0  0  0  0  0  0  0  0  0  0  0
  -24.6630  -15.5350   20.5260 H   0  0  0  0  0  0  0  0  0  0  0  0
  -26.2010  -15.2750   19.8790 H   0  0  0  0  0  0  0  0  0  0  0  0
  1  2  1  0
  1  7  1  0
  3  2  1  0
  4  3  1  0
  5  3  1  0
  6  3  1  0
  8  7  1  0
  8 10  1  0
  8 11  1  0
  9 10  1  0
 11 12  1  0
 13 24  2  0
 14 12  1  0
 14 19  1  0
 15 23  1  0
 15 25  1  0
 16 22  1  0
 16 18  1  0
 17 23  1  0
 18 19  2  0
 18 17  1  0
 20 14  2  0
 21 20  1  0
 21 16  2  0
 22 15  1  0
 23 13  1  0
 25 27  2  0
 26 25  1  0
 28 26  1  0
 29 38  2  0
 29 34  1  0
 30 26  1  0
 30 34  1  0
 31 30  1  0
 32 33  1  0
 32 31  1  0
 33 29  1  0
 34 35  2  0
 35 36  1  0
 37 36  2  0
 38 37  1  0
 39 13  1  0
 39 44  1  0
 39 40  1  0
 40 43  1  1
 40 41  1  0
 42 40  1  0
 44 47  1  0
 45 49  1  0
 45 44  1  0
 46 45  2  0
 49 48  1  0
 51 49  1  0
 51 52  1  0
 51 50  1  0
 53  1  1  0
 53 54  1  0
 54 55  1  0
 55 56  1  0
 56 57  1  0
 57 58  1  0
 58 59  1  0
 59 60  1  0
 60 61  1  0
 61 62  1  0
 63 71  1  0
 64 69  1  0
 65 66  1  0
 65 64  1  0
 67 66  1  0
 67 76  1  0
 67 68  1  0
 69 63  1  0
 69 68  1  0
 70 63  2  0
 71 72  1  0
 71 62  1  0
 73 74  2  0
 74 93  1  0
 75 74  1  0
 75 78  1  0
 76 77  1  0
 76 73  1  0
 77 75  2  0
 78 79  1  0
 79 80  2  0
 81 84  1  0
 81 80  1  0
 82 81  2  0
 83 82  1  0
 83 78  2  0
 84 85  1  0
 85 86  1  0
 86 87  2  0
 88 87  1  0
 88 92  1  0
 89 88  2  0
 90 85  2  0
 90 89  1  0
 91 90  1  0
 93 94  1  0
 94 96  1  0
 94 97  1  0
 95 93  2  0
 98 73  1  0
 98 99  1  0
100 98  1  0
M  ISO  4  11 101  12 101  63 100  71 100
M  END
>  <TORSDO>  (36) 
F 32

>  <SCORE>  (36) 
-7.963

>  <name>  (36) 
35

>  <ligand_id>  (36) 
35

>  <original_smiles>  (36) 
[H]c1c([H])c([H])c2c(c1[H])C([H])([H])C([H])([H])C([H])([H])C2([H])N([H])C(=O)C1([H])N(C(=O)C([H])(N([H])C(=O)C([H])(N([H])C([H])([H])[H])C([H])([H])[H])C(C([H])([H])[H])(C([H])([H])[H])C([H])([H])[H])C([H])([H])c2c([H])c(OC([H])([H])C([H])(C([H])([H])C([H])([H])[H])C([H])([H])C([H])(C([H])([H])C([H])([H])C([H])([H])C([H])([H])C([H])([H])C([H])([H])C([H])([H])C([H])([H])C([H])([H])C([H])([H])N([H])C(=O)N3C([H])([H])C([H])([H])C([H])([H])C([H])(n4nc(-c5c([H])c([H])c(Oc6c([H])c([H])c(F)c([H])c6F)c([H])c5[H])c(C(=O)N([H])[H])c4N([H])[H])C3([H])[H])C([H])([H])[N+]([H])([H])[H])c([H])c([H])c2C1([H])[H]

>  <smiles>  (36) 
[H]c1c([H])c([H])c2c(c1[H])C([H])([H])C([H])([H])C([H])([H])C2([H])N([H])C(=O)C1([H])N(C(=O)C([H])(N([H])C(=O)C([H])(N([H])C([H])([H])[H])C([H])([H])[H])C(C([H])([H])[H])(C([H])([H])[H])C([H])([H])[H])C([H])([H])c2c([H])c(OC([H])([H])C([H])(C([H])([H])C([H])([H])[H])C([H])([H])C([H])(C([H])([H])C([H])([H])C([H])([H])C([H])([H])C([H])([H])C([H])([H])C([H])([H])C([H])([H])C([H])([H])C([H])([H])N([H])C(=O)N3C([H])([H])C([H])([H])C([H])([H])C([H])(n4nc(-c5c([H])c([H])c(Oc6c([H])c([H])c(F)c([H])c6F)c([H])c5[H])c(C(=O)N([H])[H])c4N([H])[H])C3([H])[H])C([H])([H])[N+]([H])([H])[H])c([H])c([H])c2C1([H])[H]

$$$$
36:0:0
     RDKit          3D

 86 94  0  0  1  0  0  0  0  0999 V2000
  -28.9280  -22.4220   20.4370 C   0  0  0  0  0  3  0  0  0  0  0  0
  -30.3970  -15.6130   20.0550 C   0  0  0  0  0  0  0  0  0  0  0  0
  -30.3460  -13.1130   19.2130 C   0  0  0  0  0  2  0  0  0  0  0  0
  -29.4130  -12.7660   18.0250 C   0  0  0  0  0  2  0  0  0  0  0  0
  -28.0010  -12.4430   18.5290 C   0  0  0  0  0  2  0  0  0  0  0  0
  -27.5450  -13.4400   19.6210 C   0  0  0  0  0  3  0  0  0  0  0  0
  -28.6170  -13.7290   20.6970 C   0  0  0  0  0  2  0  0  0  0  0  0
  -29.7790  -14.3040   19.9890 N   0  0  0  0  0  0  0  0  0  0  0  0
  -31.6150  -15.4720   19.8380 O   0  0  0  0  0  0  0  0  0  0  0  0
  -28.5110  -17.8360   20.4010 C   0  0  0  0  0  2  0  0  0  0  0  0
  -30.5540  -18.3250   19.5020 C   0  0  0  0  0  2  0  0  0  0  0  0
  -28.2930  -19.5360   20.7270 C   0  0  0  0  0  2  0  0  0  0  0  0
  -30.3320  -19.9820   19.8790 C   0  0  0  0  0  2  0  0  0  0  0  0
  -29.8290  -17.0540   20.0570 N   0  0  0  0  0  0  0  0  0  0  0  0
  -28.9680  -20.7400   19.9630 N   0  0  2  0  0  4  0  0  0  0  0  0
  -28.5950  -20.7230   19.0250 H   0  0  0  0  0  0  0  0  0  0  0  0
  -25.2180  -13.9680   20.4890 C   0  0  0  0  0  0  0  0  0  0  0  0
  -24.1710  -13.1820   20.8780 C   0  0  0  0  0  0  0  0  0  0  0  0
  -24.6360  -11.8320   20.8020 C   0  0  0  0  0  0  0  0  0  0  0  0
  -26.2490  -13.0990   20.1870 N   0  0  0  0  0  0  0  0  0  0  0  0
  -25.9160  -11.8060   20.4430 N   0  0  0  0  0  0  0  0  0  0  0  0
  -23.9130  -10.5670   20.9900 C   0  0  0  0  0  0  0  0  0  0  0  0
  -24.3460   -9.5980   21.9220 C   0  0  0  0  0  3  0  0  0  0  0  0
  -23.6190   -8.4010   22.1010 C   0  0  0  0  0  3  0  0  0  0  0  0
  -22.4440   -8.1650   21.3490 C   0  0  0  0  0  0  0  0  0  0  0  0
  -22.0300   -9.1220   20.4060 C   0  0  0  0  0  3  0  0  0  0  0  0
  -22.7580  -10.3100   20.2250 C   0  0  0  0  0  3  0  0  0  0  0  0
  -21.6880   -7.0210   21.4370 O   0  0  0  0  0  0  0  0  0  0  0  0
  -21.6050   -6.3010   22.6030 C   0  0  0  0  0  0  0  0  0  0  0  0
  -21.1020   -6.8690   23.7940 C   0  0  0  0  0  3  0  0  0  0  0  0
  -20.9680   -6.0750   24.9510 C   0  0  0  0  0  3  0  0  0  0  0  0
  -21.3280   -4.7150   24.9160 C   0  0  0  0  0  0  0  0  0  0  0  0
  -21.8230   -4.1460   23.7300 C   0  0  0  0  0  3  0  0  0  0  0  0
  -21.9580   -4.9380   22.5760 C   0  0  0  0  0  0  0  0  0  0  0  0
  -22.4170   -4.3790   21.4300 F   0  0  0  0  0  0  0  0  0  0  0  0
  -21.1910   -3.9490   26.0250 F   0  0  0  0  0  0  0  0  0  0  0  0
  -22.7840  -13.6550   21.2010 C   0  0  0  0  0  0  0  0  0  0  0  0
  -22.0860  -12.9480   22.0810 N   0  0  0  0  0  0  0  0  0  0  0  0
  -22.3330  -14.6880   20.7090 O   0  0  0  0  0  0  0  0  0  0  0  0
  -22.4670  -12.1120   22.4990 H   0  0  0  0  0  0  0  0  0  0  0  0
  -21.1570  -13.2480   22.3420 H   0  0  0  0  0  0  0  0  0  0  0  0
  -25.3760  -15.3420   20.3330 N   0  0  0  0  0  0  0  0  0  0  0  0
  -24.6110  -15.9920   20.4820 H   0  0  0  0  0  0  0  0  0  0  0  0
  -26.2090  -15.7840   19.9680 H   0  0  0  0  0  0  0  0  0  0  0  0
  -28.0550  -24.0330   19.9590 C   0  0  0  0  0  3  0  0  0  0  0  0
  -28.1800  -25.7260   20.2860 O   0  0  0  0  0  0  0  0  0  0  0  0
  -24.6740  -31.8880   23.2420 C   0  0  0  0  0  0  0  0  0  0  0  0
  -27.1960  -26.8980   20.2060 C   0  0  0  0  0  0  0  0  0  0  0  0
  -23.4770  -30.4990   21.6020 C   0  0  0  0  0  3  0  0  0  0  0  0
  -24.9190  -28.8760   20.1690 C   0  0  0  0  0  0  0  0  0  0  0  0
  -26.0500  -30.6680   21.4620 C   0  0  0  0  0  2  0  0  0  0  0  0
  -26.1130  -29.2480   20.7980 C   0  0  0  0  0  0  0  0  0  0  0  0
  -27.2390  -28.2830   20.7890 C   0  0  0  0  0  3  0  0  0  0  0  0
  -25.9730  -26.7190   19.5190 C   0  0  0  0  0  3  0  0  0  0  0  0
  -24.8830  -27.6370   19.5060 C   0  0  0  0  0  3  0  0  0  0  0  0
  -23.7080  -29.8150   20.2250 C   0  0  0  0  0  2  0  0  0  0  0  0
  -24.7570  -31.0490   22.1550 N   0  0  0  0  0  0  0  0  0  0  0  0
  -23.5840  -32.1810   23.7630 O   0  0  0  0  0  0  0  0  0  0  0  0
  -22.7740  -29.5100   22.5700 C   0  0  0  0  0  0  0  0  0  0  0  0
  -21.4440  -29.3430   22.4430 N   0  0  0  0  0  0  0  0  0  0  0  0
  -23.4360  -28.8900   23.4060 O   0  0  0  0  0  0  0  0  0  0  0  0
  -20.9600  -29.8950   21.7470 H   0  0  0  0  0  0  0  0  0  0  0  0
  -18.0650  -28.1090   22.9460 C   0  0  0  0  0  0  0  0  0  0  0  0
  -20.6230  -28.4010   23.2130 C   0  0  0  0  0  3  0  0  0  0  0  0
  -20.7360  -26.9690   22.6400 C   0  0  0  0  0  2  0  0  0  0  0  0
  -19.6390  -26.6360   21.6240 C   0  0  0  0  0  2  0  0  0  0  0  0
  -18.2550  -26.7640   22.2660 C   0  0  0  0  0  2  0  0  0  0  0  0
  -19.1750  -28.8860   23.3760 C   0  0  0  0  0  0  0  0  0  0  0  0
  -18.9390  -30.1400   23.9780 C   0  0  0  0  0  3  0  0  0  0  0  0
  -17.6280  -30.6220   24.1490 C   0  0  0  0  0  3  0  0  0  0  0  0
  -16.5330  -29.8460   23.7320 C   0  0  0  0  0  3  0  0  0  0  0  0
  -16.7530  -28.5910   23.1370 C   0  0  0  0  0  3  0  0  0  0  0  0
  -25.9430  -32.5330   23.8780 C   0  0  0  0  0  3  0  0  0  0  0  0
  -25.6300  -33.9390   24.1990 N   0  0  0  0  0  0  0  0  0  0  0  0
  -25.9440  -34.9920   23.4330 C   0  0  0  0  0  0  0  0  0  0  0  0
  -26.5850  -34.8830   22.3850 O   0  0  0  0  0  0  0  0  0  0  0  0
  -25.0550  -34.0960   25.0140 H   0  0  0  0  0  0  0  0  0  0  0  0
  -24.1960  -36.7850   23.1450 C   0  0  0  0  0  1  0  0  0  0  0  0
  -25.4750  -36.3870   23.9000 C   0  0  0  0  0  3  0  0  0  0  0  0
  -27.6370  -37.3000   24.6290 C   0  0  0  0  0  1  0  0  0  0  0  0
  -26.4980  -37.4430   23.7260 N   0  0  0  0  0  0  0  0  0  0  0  0
  -26.0940  -38.3640   23.8700 H   0  0  0  0  0  0  0  0  0  0  0  0
  -26.4300  -31.7820   25.1810 C   0  0  1  0  0  0  0  0  0  0  0  0
  -25.3170  -31.5720   26.2340 C   0  0  0  0  0  1  0  0  0  0  0  0
  -27.0110  -30.3920   24.8340 C   0  0  0  0  0  1  0  0  0  0  0  0
  -27.5750  -32.5810   25.8470 C   0  0  0  0  0  1  0  0  0  0  0  0
  2 14  1  0
  3  8  1  0
  4  5  1  0
  4  3  1  0
  6  5  1  0
  6 20  1  0
  6  7  1  0
  8  2  1  0
  8  7  1  0
  9  2  2  0
 10 12  1  0
 11 13  1  0
 11 14  1  0
 13 15  1  0
 14 10  1  0
 15  1  1  0
 15 12  1  0
 15 16  1  6
 17 18  2  0
 18 37  1  0
 19 18  1  0
 19 22  1  0
 20 21  1  0
 20 17  1  0
 21 19  2  0
 22 23  1  0
 23 24  2  0
 25 28  1  0
 25 24  1  0
 26 25  2  0
 27 26  1  0
 27 22  2  0
 28 29  1  0
 29 30  1  0
 30 31  2  0
 32 31  1  0
 32 36  1  0
 33 32  2  0
 34 29  2  0
 34 33  1  0
 35 34  1  0
 37 38  1  0
 38 41  1  0
 38 40  1  0
 39 37  2  0
 42 43  1  0
 42 17  1  0
 44 42  1  0
 45 46  1  0
 45  1  2  0
 47 58  2  0
 48 46  1  0
 48 53  1  0
 49 57  1  0
 49 59  1  0
 50 56  1  0
 50 52  1  0
 51 57  1  0
 52 51  1  0
 53 52  2  0
 54 48  2  0
 55 54  1  0
 55 50  2  0
 56 49  1  0
 57 47  1  0
 59 61  2  0
 60 59  1  0
 62 60  1  0
 63 72  2  0
 63 68  1  0
 64 60  1  0
 64 68  1  0
 65 64  1  0
 66 67  1  0
 66 65  1  0
 67 63  1  0
 68 69  2  0
 69 70  1  0
 71 70  2  0
 72 71  1  0
 73 47  1  0
 73 74  1  0
 73 83  1  0
 74 77  1  0
 75 79  1  0
 75 74  1  0
 76 75  2  0
 79 78  1  0
 81 82  1  0
 81 79  1  0
 81 80  1  0
 83 86  1  1
 83 84  1  0
 85 83  1  0
M  ISO  4   2 100  14 100  45 101  46 101
M  END
>  <TORSDO>  (37) 
F 17

>  <SCORE>  (37) 
-16.400

>  <name>  (37) 
36

>  <ligand_id>  (37) 
36

>  <original_smiles>  (37) 
[H]c1c([H])c([H])c2c(c1[H])C([H])([H])C([H])([H])C([H])([H])C2([H])N([H])C(=O)C1([H])N(C(=O)C([H])(N([H])C(=O)C([H])(N([H])C([H])([H])[H])C([H])([H])[H])C(C([H])([H])[H])(C([H])([H])[H])C([H])([H])[H])C([H])([H])c2c([H])c(OC([H])([H])C([H])([H])[N+]3([H])C([H])([H])C([H])([H])N(C(=O)N4C([H])([H])C([H])([H])C([H])([H])C([H])(n5nc(-c6c([H])c([H])c(Oc7c([H])c([H])c(F)c([H])c7F)c([H])c6[H])c(C(=O)N([H])[H])c5N([H])[H])C4([H])[H])C([H])([H])C3([H])[H])c([H])c([H])c2C1([H])[H]

>  <smiles>  (37) 
[H]c1c([H])c([H])c2c(c1[H])C([H])([H])C([H])([H])C([H])([H])C2([H])N([H])C(=O)C1([H])N(C(=O)C([H])(N([H])C(=O)C([H])(N([H])C([H])([H])[H])C([H])([H])[H])C(C([H])([H])[H])(C([H])([H])[H])C([H])([H])[H])C([H])([H])c2c([H])c(OC([H])([H])C([H])([H])[N+]3([H])C([H])([H])C([H])([H])N(C(=O)N4C([H])([H])C([H])([H])C([H])([H])C([H])(n5nc(-c6c([H])c([H])c(Oc7c([H])c([H])c(F)c([H])c7F)c([H])c6[H])c(C(=O)N([H])[H])c5N([H])[H])C4([H])[H])C([H])([H])C3([H])[H])c([H])c([H])c2C1([H])[H]

$$$$
37:0:0
     RDKit          3D

 97106  0  0  1  0  0  0  0  0999 V2000
  -29.2150  -21.5330   20.9210 C   0  0  0  0  0  2  0  0  0  0  0  0
  -30.8580  -22.2740   19.2160 C   0  0  0  0  0  2  0  0  0  0  0  0
  -29.4030  -22.8810   21.6550 C   0  0  0  0  0  2  0  0  0  0  0  0
  -31.0510  -23.6000   19.9890 C   0  0  0  0  0  2  0  0  0  0  0  0
  -30.4750  -21.0860   20.1410 C   0  0  0  0  0  3  0  0  0  0  0  0
  -29.8260  -23.9780   20.7420 N   0  0  2  0  0  4  0  0  0  0  0  0
  -29.1020  -24.1010   20.0480 H   0  0  0  0  0  0  0  0  0  0  0  0
  -29.9510  -25.2960   21.4330 C   0  0  0  0  0  2  0  0  0  0  0  0
  -28.6330  -26.0970   21.4530 C   0  0  0  0  0  2  0  0  0  0  0  0
  -28.4050  -26.7260   20.1910 O   0  0  0  0  0  0  0  0  0  0  0  0
  -24.5840  -31.8980   23.2360 C   0  0  0  0  0  0  0  0  0  0  0  0
  -27.2560  -27.4770   20.1820 C   0  0  0  0  0  0  0  0  0  0  0  0
  -23.3860  -30.4880   21.5900 C   0  0  0  0  0  3  0  0  0  0  0  0
  -24.8520  -28.9520   20.1740 C   0  0  0  0  0  0  0  0  0  0  0  0
  -25.9070  -30.8610   21.4020 C   0  0  0  0  0  2  0  0  0  0  0  0
  -26.0010  -29.4900   20.7690 C   0  0  0  0  0  0  0  0  0  0  0  0
  -27.2060  -28.7560   20.7760 C   0  0  0  0  0  3  0  0  0  0  0  0
  -26.0990  -26.9480   19.5770 C   0  0  0  0  0  3  0  0  0  0  0  0
  -24.8940  -27.6800   19.5760 C   0  0  0  0  0  3  0  0  0  0  0  0
  -23.6020  -29.8020   20.2120 C   0  0  0  0  0  2  0  0  0  0  0  0
  -24.6430  -31.0960   22.1350 N   0  0  0  0  0  0  0  0  0  0  0  0
  -23.5000  -32.1660   23.7740 O   0  0  0  0  0  0  0  0  0  0  0  0
  -22.7340  -29.4680   22.5500 C   0  0  0  0  0  0  0  0  0  0  0  0
  -21.4100  -29.2870   22.4240 N   0  0  0  0  0  0  0  0  0  0  0  0
  -23.4180  -28.8430   23.3650 O   0  0  0  0  0  0  0  0  0  0  0  0
  -20.9190  -29.8420   21.7370 H   0  0  0  0  0  0  0  0  0  0  0  0
  -18.0330  -28.1020   22.9200 C   0  0  0  0  0  0  0  0  0  0  0  0
  -20.5910  -28.3500   23.1940 C   0  0  0  0  0  3  0  0  0  0  0  0
  -20.6890  -26.9190   22.6190 C   0  0  0  0  0  2  0  0  0  0  0  0
  -19.5890  -26.6020   21.6000 C   0  0  0  0  0  2  0  0  0  0  0  0
  -18.2050  -26.7540   22.2400 C   0  0  0  0  0  2  0  0  0  0  0  0
  -19.1550  -28.8580   23.3530 C   0  0  0  0  0  0  0  0  0  0  0  0
  -18.9430  -30.1220   23.9460 C   0  0  0  0  0  3  0  0  0  0  0  0
  -17.6420  -30.6310   24.1090 C   0  0  0  0  0  3  0  0  0  0  0  0
  -16.5330  -29.8720   23.6970 C   0  0  0  0  0  3  0  0  0  0  0  0
  -16.7290  -28.6090   23.1090 C   0  0  0  0  0  3  0  0  0  0  0  0
  -25.8690  -32.5310   23.8560 C   0  0  0  0  0  3  0  0  0  0  0  0
  -25.5610  -33.9310   24.1770 N   0  0  0  0  0  0  0  0  0  0  0  0
  -25.9030  -34.9790   23.4140 C   0  0  0  0  0  0  0  0  0  0  0  0
  -26.5810  -34.8700   22.3890 O   0  0  0  0  0  0  0  0  0  0  0  0
  -24.9630  -34.0940   24.9740 H   0  0  0  0  0  0  0  0  0  0  0  0
  -24.1840  -36.7720   23.0250 C   0  0  0  0  0  1  0  0  0  0  0  0
  -25.4120  -36.3700   23.8570 C   0  0  0  0  0  3  0  0  0  0  0  0
  -27.5380  -37.2480   24.7160 C   0  0  0  0  0  1  0  0  0  0  0  0
  -26.4470  -37.4210   23.7590 N   0  0  0  0  0  0  0  0  0  0  0  0
  -26.0420  -38.3420   23.9080 H   0  0  0  0  0  0  0  0  0  0  0  0
  -26.3860  -31.7660   25.1350 C   0  0  1  0  0  0  0  0  0  0  0  0
  -25.2920  -31.5340   26.2040 C   0  0  0  0  0  1  0  0  0  0  0  0
  -26.9670  -30.3850   24.7500 C   0  0  0  0  0  1  0  0  0  0  0  0
  -27.5370  -32.5610   25.7950 C   0  0  0  0  0  1  0  0  0  0  0  0
  -30.2450  -19.7620   19.3350 C   0  0  0  0  0  3  0  0  0  0  0  0
  -30.6750  -14.5390   20.3160 C   0  0  0  0  0  0  0  0  0  0  0  0
  -30.3580  -12.3770   19.1930 C   0  0  0  0  0  2  0  0  0  0  0  0
  -29.3940  -12.5640   18.0040 C   0  0  0  0  0  2  0  0  0  0  0  0
  -27.9300  -12.4110   18.4640 C   0  0  0  0  0  2  0  0  0  0  0  0
  -27.5990  -13.2670   19.7140 C   0  0  0  0  0  3  0  0  0  0  0  0
  -28.6760  -13.0920   20.8130 C   0  0  0  0  0  2  0  0  0  0  0  0
  -29.9890  -13.3700   20.2110 N   0  0  0  0  0  0  0  0  0  0  0  0
  -31.8600  -14.6530   19.9890 O   0  0  0  0  0  0  0  0  0  0  0  0
  -30.0040  -16.5600   21.5600 C   0  0  0  0  0  2  0  0  0  0  0  0
  -29.6300  -16.3400   19.1210 C   0  0  0  0  0  2  0  0  0  0  0  0
  -30.4220  -18.0240   21.2160 C   0  0  0  0  0  2  0  0  0  0  0  0
  -28.8710  -17.6690   19.2980 C   0  0  0  0  0  2  0  0  0  0  0  0
  -29.9060  -15.6530   20.3970 N   0  0  0  0  0  0  0  0  0  0  0  0
  -29.6040  -18.6580   20.1340 N   0  0  2  0  0  4  0  0  0  0  0  0
  -28.8590  -19.1330   20.6250 H   0  0  0  0  0  0  0  0  0  0  0  0
  -25.2100  -13.8850   20.4440 C   0  0  0  0  0  0  0  0  0  0  0  0
  -24.1410  -13.1170   20.8200 C   0  0  0  0  0  0  0  0  0  0  0  0
  -24.6010  -11.7650   20.7960 C   0  0  0  0  0  0  0  0  0  0  0  0
  -26.2520  -13.0000   20.2130 N   0  0  0  0  0  0  0  0  0  0  0  0
  -25.8890  -11.7210   20.4830 N   0  0  0  0  0  0  0  0  0  0  0  0
  -23.8760  -10.5040   20.9950 C   0  0  0  0  0  0  0  0  0  0  0  0
  -24.3140   -9.5430   21.9320 C   0  0  0  0  0  3  0  0  0  0  0  0
  -23.5930   -8.3430   22.1170 C   0  0  0  0  0  3  0  0  0  0  0  0
  -22.4180   -8.0990   21.3660 C   0  0  0  0  0  0  0  0  0  0  0  0
  -21.9990   -9.0500   20.4200 C   0  0  0  0  0  3  0  0  0  0  0  0
  -22.7200  -10.2400   20.2320 C   0  0  0  0  0  3  0  0  0  0  0  0
  -21.6640   -6.9550   21.4630 O   0  0  0  0  0  0  0  0  0  0  0  0
  -21.6190   -6.2180   22.6180 C   0  0  0  0  0  0  0  0  0  0  0  0
  -21.1850   -6.7750   23.8420 C   0  0  0  0  0  3  0  0  0  0  0  0
  -21.0920   -5.9650   24.9900 C   0  0  0  0  0  3  0  0  0  0  0  0
  -21.4180   -4.5970   24.9180 C   0  0  0  0  0  0  0  0  0  0  0  0
  -21.8420   -4.0410   23.6990 C   0  0  0  0  0  3  0  0  0  0  0  0
  -21.9390   -4.8480   22.5520 C   0  0  0  0  0  0  0  0  0  0  0  0
  -22.3310   -4.3000   21.3760 F   0  0  0  0  0  0  0  0  0  0  0  0
  -21.3170   -3.8170   26.0190 F   0  0  0  0  0  0  0  0  0  0  0  0
  -22.7440  -13.5960   21.0920 C   0  0  0  0  0  0  0  0  0  0  0  0
  -22.0150  -12.9040   21.9610 N   0  0  0  0  0  0  0  0  0  0  0  0
  -22.3050  -14.6180   20.5690 O   0  0  0  0  0  0  0  0  0  0  0  0
  -22.3770  -12.0750   22.4090 H   0  0  0  0  0  0  0  0  0  0  0  0
  -21.0770  -13.2090   22.1840 H   0  0  0  0  0  0  0  0  0  0  0  0
  -25.3810  -15.2530   20.2530 N   0  0  0  0  0  0  0  0  0  0  0  0
  -24.6230  -15.9210   20.3550 H   0  0  0  0  0  0  0  0  0  0  0  0
  -26.2390  -15.6700   19.9220 H   0  0  0  0  0  0  0  0  0  0  0  0
  -31.4990  -19.2750   18.5430 C   0  0  0  0  0  2  0  0  0  0  0  0
  -32.4050  -18.5890   16.2320 C   0  0  0  0  0  1  0  0  0  0  0  0
  -31.2840  -19.2860   17.0140 C   0  0  0  0  0  2  0  0  0  0  0  0
  1  3  1  0
  2  4  1  0
  2  5  1  0
  4  6  1  0
  5 51  1  0
  5  1  1  0
  6  8  1  0
  6  3  1  0
  6  7  1  6
  8  9  1  0
 10  9  1  0
 11 22  2  0
 12 10  1  0
 12 17  1  0
 13 21  1  0
 13 23  1  0
 14 20  1  0
 14 16  1  0
 15 21  1  0
 16 17  2  0
 16 15  1  0
 18 12  2  0
 19 18  1  0
 19 14  2  0
 20 13  1  0
 21 11  1  0
 23 25  2  0
 24 23  1  0
 26 24  1  0
 27 36  2  0
 27 32  1  0
 28 24  1  0
 28 32  1  0
 29 28  1  0
 30 31  1  0
 30 29  1  0
 31 27  1  0
 32 33  2  0
 33 34  1  0
 35 34  2  0
 36 35  1  0
 37 11  1  0
 37 38  1  0
 37 47  1  0
 38 41  1  0
 39 43  1  0
 39 38  1  0
 40 39  2  0
 43 42  1  0
 45 43  1  0
 45 46  1  0
 45 44  1  0
 47 50  1  1
 47 48  1  0
 49 47  1  0
 51 95  1  0
 51 65  1  0
 52 64  1  0
 53 58  1  0
 54 55  1  0
 54 53  1  0
 56 55  1  0
 56 70  1  0
 56 57  1  0
 58 52  1  0
 58 57  1  0
 59 52  2  0
 61 63  1  0
 61 64  1  0
 62 60  1  0
 63 65  1  0
 64 60  1  0
 65 66  1  1
 65 62  1  0
 67 68  2  0
 68 87  1  0
 69 68  1  0
 69 72  1  0
 70 67  1  0
 70 71  1  0
 71 69  2  0
 72 73  1  0
 73 74  2  0
 75 78  1  0
 75 74  1  0
 76 75  2  0
 77 76  1  0
 77 72  2  0
 78 79  1  0
 79 80  1  0
 80 81  2  0
 82 81  1  0
 82 86  1  0
 83 82  2  0
 84 79  2  0
 84 83  1  0
 85 84  1  0
 87 88  1  0
 88 91  1  0
 88 90  1  0
 89 87  2  0
 92 93  1  0
 92 67  1  0
 94 92  1  0
 96 97  1  0
 97 95  1  0
M  ISO  4   9 101  10 101  52 100  64 100
M  END
>  <TORSDO>  (38) 
F 21

>  <SCORE>  (38) 
-13.868

>  <name>  (38) 
37

>  <ligand_id>  (38) 
37

>  <original_smiles>  (38) 
[H]c1c([H])c([H])c2c(c1[H])C([H])([H])C([H])([H])C([H])([H])C2([H])N([H])C(=O)C1([H])N(C(=O)C([H])(N([H])C(=O)C([H])(N([H])C([H])([H])[H])C([H])([H])[H])C(C([H])([H])[H])(C([H])([H])[H])C([H])([H])[H])C([H])([H])c2c([H])c(OC([H])([H])C([H])([H])[N+]3([H])C([H])([H])C([H])([H])C([H])(C([H])(C([H])([H])C([H])([H])C([H])([H])[H])[N+]4([H])C([H])([H])C([H])([H])N(C(=O)N5C([H])([H])C([H])([H])C([H])([H])C([H])(n6nc(-c7c([H])c([H])c(Oc8c([H])c([H])c(F)c([H])c8F)c([H])c7[H])c(C(=O)N([H])[H])c6N([H])[H])C5([H])[H])C([H])([H])C4([H])[H])C([H])([H])C3([H])[H])c([H])c([H])c2C1([H])[H]

>  <smiles>  (38) 
[H]c1c([H])c([H])c2c(c1[H])C([H])([H])C([H])([H])C([H])([H])C2([H])N([H])C(=O)C1([H])N(C(=O)C([H])(N([H])C(=O)C([H])(N([H])C([H])([H])[H])C([H])([H])[H])C(C([H])([H])[H])(C([H])([H])[H])C([H])([H])[H])C([H])([H])c2c([H])c(OC([H])([H])C([H])([H])[N+]3([H])C([H])([H])C([H])([H])C([H])(C([H])(C([H])([H])C([H])([H])C([H])([H])[H])[N+]4([H])C([H])([H])C([H])([H])N(C(=O)N5C([H])([H])C([H])([H])C([H])([H])C([H])(n6nc(-c7c([H])c([H])c(Oc8c([H])c([H])c(F)c([H])c8F)c([H])c7[H])c(C(=O)N([H])[H])c6N([H])[H])C5([H])[H])C([H])([H])C4([H])[H])C([H])([H])C3([H])[H])c([H])c([H])c2C1([H])[H]

$$$$
38:0:0
     RDKit          3D

102110  0  0  1  0  0  0  0  0999 V2000
  -30.5500  -22.5190   18.5100 N   0  0  1  0  0  4  0  0  0  0  0  0
  -31.3660  -22.9990   18.8600 H   0  0  0  0  0  0  0  0  0  0  0  0
  -31.3980  -20.7100   20.1250 C   0  0  0  0  0  2  0  0  0  0  0  0
  -29.6720  -20.0920   18.4490 C   0  0  0  0  0  2  0  0  0  0  0  0
  -31.8910  -19.2390   20.1700 C   0  0  0  0  0  2  0  0  0  0  0  0
  -30.1740  -18.6270   18.4640 C   0  0  0  0  0  2  0  0  0  0  0  0
  -30.8430  -21.0590   18.7290 C   0  0  0  0  0  3  0  0  0  0  0  0
  -30.8680  -18.2420   19.7280 N   0  0  2  0  0  4  0  0  0  0  0  0
  -31.3940  -17.4150   19.4770 H   0  0  0  0  0  0  0  0  0  0  0  0
  -29.9700  -17.7390   20.8030 C   0  0  0  0  0  2  0  0  0  0  0  0
  -30.6370  -16.6360   21.6690 C   0  0  0  0  0  2  0  0  0  0  0  0
  -30.7010  -14.4090   20.5260 C   0  0  0  0  0  0  0  0  0  0  0  0
  -30.3600  -12.3200   19.2580 C   0  0  0  0  0  2  0  0  0  0  0  0
  -29.4040  -12.5700   18.0740 C   0  0  0  0  0  2  0  0  0  0  0  0
  -27.9330  -12.4290   18.5140 C   0  0  0  0  0  2  0  0  0  0  0  0
  -27.6160  -13.2270   19.8070 C   0  0  0  0  0  3  0  0  0  0  0  0
  -28.6770  -12.9470   20.8950 C   0  0  0  0  0  2  0  0  0  0  0  0
  -30.0060  -13.2560   20.3350 N   0  0  0  0  0  0  0  0  0  0  0  0
  -31.7450  -14.6850   19.9300 O   0  0  0  0  0  0  0  0  0  0  0  0
  -30.1400  -15.2880   21.3680 N   0  0  0  0  0  0  0  0  0  0  0  0
  -29.2940  -14.9890   21.8330 H   0  0  0  0  0  0  0  0  0  0  0  0
  -25.2140  -13.8340   20.5140 C   0  0  0  0  0  0  0  0  0  0  0  0
  -24.1480  -13.0620   20.8900 C   0  0  0  0  0  0  0  0  0  0  0  0
  -24.6100  -11.7110   20.8600 C   0  0  0  0  0  0  0  0  0  0  0  0
  -26.2600  -12.9540   20.2840 N   0  0  0  0  0  0  0  0  0  0  0  0
  -25.8990  -11.6720   20.5470 N   0  0  0  0  0  0  0  0  0  0  0  0
  -23.8870  -10.4480   21.0560 C   0  0  0  0  0  0  0  0  0  0  0  0
  -24.3310   -9.4790   21.9830 C   0  0  0  0  0  3  0  0  0  0  0  0
  -23.6100   -8.2790   22.1670 C   0  0  0  0  0  3  0  0  0  0  0  0
  -22.4300   -8.0400   21.4250 C   0  0  0  0  0  0  0  0  0  0  0  0
  -22.0030   -8.9970   20.4880 C   0  0  0  0  0  3  0  0  0  0  0  0
  -22.7250  -10.1880   20.3020 C   0  0  0  0  0  3  0  0  0  0  0  0
  -21.6790   -6.8930   21.5180 O   0  0  0  0  0  0  0  0  0  0  0  0
  -21.6520   -6.1420   22.6650 C   0  0  0  0  0  0  0  0  0  0  0  0
  -21.2500   -6.6860   23.9040 C   0  0  0  0  0  3  0  0  0  0  0  0
  -21.1720   -5.8600   25.0430 C   0  0  0  0  0  3  0  0  0  0  0  0
  -21.4850   -4.4910   24.9440 C   0  0  0  0  0  0  0  0  0  0  0  0
  -21.8810   -3.9460   23.7090 C   0  0  0  0  0  3  0  0  0  0  0  0
  -21.9610   -4.7690   22.5730 C   0  0  0  0  0  0  0  0  0  0  0  0
  -22.3230   -4.2360   21.3810 F   0  0  0  0  0  0  0  0  0  0  0  0
  -21.4030   -3.6950   26.0360 F   0  0  0  0  0  0  0  0  0  0  0  0
  -22.7510  -13.5380   21.1690 C   0  0  0  0  0  0  0  0  0  0  0  0
  -22.0260  -12.8430   22.0380 N   0  0  0  0  0  0  0  0  0  0  0  0
  -22.3100  -14.5630   20.6490 O   0  0  0  0  0  0  0  0  0  0  0  0
  -22.3920  -12.0150   22.4830 H   0  0  0  0  0  0  0  0  0  0  0  0
  -21.0890  -13.1460   22.2630 H   0  0  0  0  0  0  0  0  0  0  0  0
  -25.3770  -15.2050   20.3330 N   0  0  0  0  0  0  0  0  0  0  0  0
  -24.6090  -15.8590   20.4460 H   0  0  0  0  0  0  0  0  0  0  0  0
  -26.2290  -15.6440   20.0110 H   0  0  0  0  0  0  0  0  0  0  0  0
  -30.5100  -22.8730   17.0590 C   0  0  0  0  0  2  0  0  0  0  0  0
  -31.8850  -23.3250   16.5330 C   0  0  0  0  0  2  0  0  0  0  0  0
  -31.8450  -23.7250   15.0480 C   0  0  0  0  0  2  0  0  0  0  0  0
  -33.2240  -24.1300   14.5070 C   0  0  0  0  0  2  0  0  0  0  0  0
  -33.1680  -24.5720   13.0360 C   0  0  0  0  0  2  0  0  0  0  0  0
  -34.5530  -24.9020   12.4610 C   0  0  0  0  0  2  0  0  0  0  0  0
  -34.4820  -25.3580   10.9960 C   0  0  0  0  0  2  0  0  0  0  0  0
  -35.7840  -26.1070    8.9350 C   0  0  0  0  0  1  0  0  0  0  0  0
  -35.8660  -25.6340   10.3920 C   0  0  0  0  0  2  0  0  0  0  0  0
  -29.4200  -23.1050   19.2960 C   0  0  0  0  0  2  0  0  0  0  0  0
  -29.4950  -24.6570   19.4040 C   0  0  0  0  0  2  0  0  0  0  0  0
  -28.3840  -25.2890   20.2640 C   0  0  0  0  0  2  0  0  0  0  0  0
  -28.4200  -26.7210   20.1300 O   0  0  0  0  0  0  0  0  0  0  0  0
  -24.5880  -31.8690   23.2260 C   0  0  0  0  0  0  0  0  0  0  0  0
  -27.2300  -27.4220   20.1420 C   0  0  0  0  0  0  0  0  0  0  0  0
  -23.3800  -30.4680   21.5850 C   0  0  0  0  0  3  0  0  0  0  0  0
  -24.8310  -28.9320   20.1600 C   0  0  0  0  0  0  0  0  0  0  0  0
  -25.9070  -30.8250   21.3860 C   0  0  0  0  0  2  0  0  0  0  0  0
  -25.9910  -29.4530   20.7480 C   0  0  0  0  0  0  0  0  0  0  0  0
  -27.1910  -28.7070   20.7330 C   0  0  0  0  0  3  0  0  0  0  0  0
  -26.0520  -26.9240   19.5370 C   0  0  0  0  0  3  0  0  0  0  0  0
  -24.8570  -27.6660   19.5550 C   0  0  0  0  0  3  0  0  0  0  0  0
  -23.5890  -29.7900   20.2050 C   0  0  0  0  0  2  0  0  0  0  0  0
  -24.6440  -31.0690   22.1240 N   0  0  0  0  0  0  0  0  0  0  0  0
  -23.5070  -32.1410   23.7670 O   0  0  0  0  0  0  0  0  0  0  0  0
  -22.7320  -29.4450   22.5450 C   0  0  0  0  0  0  0  0  0  0  0  0
  -21.4060  -29.2660   22.4210 N   0  0  0  0  0  0  0  0  0  0  0  0
  -23.4170  -28.8140   23.3540 O   0  0  0  0  0  0  0  0  0  0  0  0
  -20.9150  -29.8280   21.7410 H   0  0  0  0  0  0  0  0  0  0  0  0
  -18.0270  -28.0950   22.9370 C   0  0  0  0  0  0  0  0  0  0  0  0
  -20.5890  -28.3290   23.1920 C   0  0  0  0  0  3  0  0  0  0  0  0
  -20.6750  -26.9010   22.6040 C   0  0  0  0  0  2  0  0  0  0  0  0
  -19.5630  -26.5950   21.5960 C   0  0  0  0  0  2  0  0  0  0  0  0
  -18.1870  -26.7490   22.2510 C   0  0  0  0  0  2  0  0  0  0  0  0
  -19.1550  -28.8440   23.3640 C   0  0  0  0  0  0  0  0  0  0  0  0
  -18.9520  -30.1050   23.9640 C   0  0  0  0  0  3  0  0  0  0  0  0
  -17.6530  -30.6180   24.1420 C   0  0  0  0  0  3  0  0  0  0  0  0
  -16.5390  -29.8640   23.7330 C   0  0  0  0  0  3  0  0  0  0  0  0
  -16.7270  -28.6050   23.1360 C   0  0  0  0  0  3  0  0  0  0  0  0
  -25.8750  -32.4990   23.8450 C   0  0  0  0  0  3  0  0  0  0  0  0
  -25.5680  -33.8960   24.1760 N   0  0  0  0  0  0  0  0  0  0  0  0
  -25.9010  -34.9490   23.4170 C   0  0  0  0  0  0  0  0  0  0  0  0
  -26.5720  -34.8460   22.3870 O   0  0  0  0  0  0  0  0  0  0  0  0
  -24.9740  -34.0520   24.9780 H   0  0  0  0  0  0  0  0  0  0  0  0
  -24.1770  -36.7430   23.0530 C   0  0  0  0  0  1  0  0  0  0  0  0
  -25.4110  -36.3370   23.8740 C   0  0  0  0  0  3  0  0  0  0  0  0
  -27.5420  -37.2150   24.7200 C   0  0  0  0  0  1  0  0  0  0  0  0
  -26.4450  -37.3890   23.7720 N   0  0  0  0  0  0  0  0  0  0  0  0
  -26.0390  -38.3090   23.9230 H   0  0  0  0  0  0  0  0  0  0  0  0
  -26.3960  -31.7260   25.1180 C   0  0  1  0  0  0  0  0  0  0  0  0
  -25.3070  -31.4880   26.1900 C   0  0  0  0  0  1  0  0  0  0  0  0
  -26.9760  -30.3480   24.7190 C   0  0  0  0  0  1  0  0  0  0  0  0
  -27.5490  -32.5190   25.7780 C   0  0  0  0  0  1  0  0  0  0  0  0
  1  2  1  1
  1 59  1  0
  3  5  1  0
  4  6  1  0
  4  7  1  0
  6  8  1  0
  7  1  1  0
  7  3  1  0
  8  5  1  0
  8 10  1  0
  8  9  1  6
 10 11  1  0
 12 20  1  0
 13 18  1  0
 14 15  1  0
 14 13  1  0
 16 15  1  0
 16 25  1  0
 16 17  1  0
 18 12  1  0
 18 17  1  0
 19 12  2  0
 20 11  1  0
 20 21  1  0
 22 23  2  0
 23 42  1  0
 24 23  1  0
 24 27  1  0
 25 22  1  0
 25 26  1  0
 26 24  2  0
 27 28  1  0
 28 29  2  0
 30 33  1  0
 30 29  1  0
 31 30  2  0
 32 31  1  0
 32 27  2  0
 33 34  1  0
 34 35  1  0
 35 36  2  0
 37 36  1  0
 37 41  1  0
 38 37  2  0
 39 34  2  0
 39 38  1  0
 40 39  1  0
 42 43  1  0
 43 46  1  0
 43 45  1  0
 44 42  2  0
 47 48  1  0
 47 22  1  0
 49 47  1  0
 50  1  1  0
 51 50  1  0
 52 51  1  0
 53 52  1  0
 54 53  1  0
 55 54  1  0
 56 55  1  0
 57 58  1  0
 58 56  1  0
 59 60  1  0
 60 61  1  0
 62 64  1  0
 62 61  1  0
 63 74  2  0
 64 69  1  0
 65 73  1  0
 65 75  1  0
 66 72  1  0
 66 68  1  0
 67 73  1  0
 68 67  1  0
 69 68  2  0
 70 71  1  0
 70 64  2  0
 71 66  2  0
 72 65  1  0
 73 63  1  0
 75 77  2  0
 76 75  1  0
 78 76  1  0
 79 88  2  0
 79 84  1  0
 80 76  1  0
 80 84  1  0
 81 80  1  0
 82 83  1  0
 82 81  1  0
 83 79  1  0
 84 85  2  0
 85 86  1  0
 87 86  2  0
 88 87  1  0
 89 63  1  0
 89 90  1  0
 89 99  1  0
 90 93  1  0
 91 95  1  0
 91 90  1  0
 92 91  2  0
 95 94  1  0
 97 95  1  0
 97 98  1  0
 97 96  1  0
 99102  1  1
 99100  1  0
101 99  1  0
M  ISO  4  12 100  20 100  61 101  62 101
M  END
>  <TORSDO>  (39) 
F 30

>  <SCORE>  (39) 
-10.966

>  <name>  (39) 
38

>  <ligand_id>  (39) 
38

>  <original_smiles>  (39) 
[H]c1c([H])c([H])c2c(c1[H])C([H])([H])C([H])([H])C([H])([H])C2([H])N([H])C(=O)C1([H])N(C(=O)C([H])(N([H])C(=O)C([H])(N([H])C([H])([H])[H])C([H])([H])[H])C(C([H])([H])[H])(C([H])([H])[H])C([H])([H])[H])C([H])([H])c2c([H])c(OC([H])([H])C([H])([H])C([H])([H])[N+]([H])(C([H])([H])C([H])([H])C([H])([H])C([H])([H])C([H])([H])C([H])([H])C([H])([H])C([H])([H])C([H])([H])[H])C3([H])C([H])([H])C([H])([H])[N+]([H])(C([H])([H])C([H])([H])N([H])C(=O)N4C([H])([H])C([H])([H])C([H])([H])C([H])(n5nc(-c6c([H])c([H])c(Oc7c([H])c([H])c(F)c([H])c7F)c([H])c6[H])c(C(=O)N([H])[H])c5N([H])[H])C4([H])[H])C([H])([H])C3([H])[H])c([H])c([H])c2C1([H])[H]

>  <smiles>  (39) 
[H]c1c([H])c([H])c2c(c1[H])C([H])([H])C([H])([H])C([H])([H])C2([H])N([H])C(=O)C1([H])N(C(=O)C([H])(N([H])C(=O)C([H])(N([H])C([H])([H])[H])C([H])([H])[H])C(C([H])([H])[H])(C([H])([H])[H])C([H])([H])[H])C([H])([H])c2c([H])c(OC([H])([H])C([H])([H])C([H])([H])[N+]([H])(C([H])([H])C([H])([H])C([H])([H])C([H])([H])C([H])([H])C([H])([H])C([H])([H])C([H])([H])C([H])([H])[H])C3([H])C([H])([H])C([H])([H])[N+]([H])(C([H])([H])C([H])([H])N([H])C(=O)N4C([H])([H])C([H])([H])C([H])([H])C([H])(n5nc(-c6c([H])c([H])c(Oc7c([H])c([H])c(F)c([H])c7F)c([H])c6[H])c(C(=O)N([H])[H])c5N([H])[H])C4([H])[H])C([H])([H])C3([H])[H])c([H])c([H])c2C1([H])[H]

$$$$
39:0:0
     RDKit          3D

 88 95  0  0  1  0  0  0  0  0999 V2000
  -29.5770  -20.4980   20.3570 C   0  0  0  0  0  3  0  0  0  0  0  0
  -29.0700  -18.8980   20.4150 C   0  0  0  0  0  3  0  0  0  0  0  0
  -30.5310  -14.9440   20.3320 C   0  0  0  0  0  0  0  0  0  0  0  0
  -30.3810  -12.6160   19.3690 C   0  0  0  0  0  2  0  0  0  0  0  0
  -29.4410  -12.5990   18.1410 C   0  0  0  0  0  2  0  0  0  0  0  0
  -27.9790  -12.3930   18.5800 C   0  0  0  0  0  2  0  0  0  0  0  0
  -27.5800  -13.3050   19.7690 C   0  0  0  0  0  3  0  0  0  0  0  0
  -28.6430  -13.2990   20.8900 C   0  0  0  0  0  2  0  0  0  0  0  0
  -29.9170  -13.6970   20.2800 N   0  0  0  0  0  0  0  0  0  0  0  0
  -31.7340  -15.0230   20.0380 O   0  0  0  0  0  0  0  0  0  0  0  0
  -30.0850  -17.6260   20.3370 C   0  0  0  0  0  0  0  0  0  0  0  0
  -29.7180  -16.2480   20.4750 N   0  0  0  0  0  0  0  0  0  0  0  0
  -31.3710  -17.9510   20.0970 N   0  0  0  0  0  4  0  0  0  0  0  0
  -28.7340  -16.1610   20.6700 H   0  0  0  0  0  0  0  0  0  0  0  0
  -32.0820  -17.2330   20.0030 H   0  0  0  0  0  0  0  0  0  0  0  0
  -31.6590  -18.9130   19.9810 H   0  0  0  0  0  0  0  0  0  0  0  0
  -25.2000  -13.8730   20.5230 C   0  0  0  0  0  0  0  0  0  0  0  0
  -24.1430  -13.0920   20.8970 C   0  0  0  0  0  0  0  0  0  0  0  0
  -24.6120  -11.7440   20.8560 C   0  0  0  0  0  0  0  0  0  0  0  0
  -26.2460  -13.0010   20.2720 N   0  0  0  0  0  0  0  0  0  0  0  0
  -25.9010  -11.7140   20.5390 N   0  0  0  0  0  0  0  0  0  0  0  0
  -23.8910  -10.4770   21.0400 C   0  0  0  0  0  0  0  0  0  0  0  0
  -24.3270   -9.5060   21.9670 C   0  0  0  0  0  3  0  0  0  0  0  0
  -23.6050   -8.3060   22.1410 C   0  0  0  0  0  3  0  0  0  0  0  0
  -22.4320   -8.0690   21.3850 C   0  0  0  0  0  0  0  0  0  0  0  0
  -22.0150   -9.0280   20.4460 C   0  0  0  0  0  3  0  0  0  0  0  0
  -22.7390  -10.2200   20.2710 C   0  0  0  0  0  3  0  0  0  0  0  0
  -21.6810   -6.9200   21.4680 O   0  0  0  0  0  0  0  0  0  0  0  0
  -21.6300   -6.1750   22.6190 C   0  0  0  0  0  0  0  0  0  0  0  0
  -21.1780   -6.7210   23.8400 C   0  0  0  0  0  3  0  0  0  0  0  0
  -21.0750   -5.9020   24.9820 C   0  0  0  0  0  3  0  0  0  0  0  0
  -21.4150   -4.5370   24.9040 C   0  0  0  0  0  0  0  0  0  0  0  0
  -21.8610   -3.9920   23.6870 C   0  0  0  0  0  3  0  0  0  0  0  0
  -21.9650   -4.8080   22.5470 C   0  0  0  0  0  0  0  0  0  0  0  0
  -22.3750   -4.2720   21.3720 F   0  0  0  0  0  0  0  0  0  0  0  0
  -21.3100   -3.7490   25.9980 F   0  0  0  0  0  0  0  0  0  0  0  0
  -22.7430  -13.5630   21.1740 C   0  0  0  0  0  0  0  0  0  0  0  0
  -22.0210  -12.8620   22.0420 N   0  0  0  0  0  0  0  0  0  0  0  0
  -22.3010  -14.5870   20.6570 O   0  0  0  0  0  0  0  0  0  0  0  0
  -22.3920  -12.0340   22.4820 H   0  0  0  0  0  0  0  0  0  0  0  0
  -21.0830  -13.1610   22.2710 H   0  0  0  0  0  0  0  0  0  0  0  0
  -25.3540  -15.2460   20.3450 N   0  0  0  0  0  0  0  0  0  0  0  0
  -24.5650  -15.8760   20.4360 H   0  0  0  0  0  0  0  0  0  0  0  0
  -26.1450  -15.6740   19.8840 H   0  0  0  0  0  0  0  0  0  0  0  0
  -28.5580  -21.8300   20.2850 C   0  0  0  0  0  2  0  0  0  0  0  0
  -29.0070  -23.4460   20.3470 C   0  0  0  0  0  3  0  0  0  0  0  0
  -27.9560  -24.7320   20.1370 C   0  0  0  0  0  3  0  0  0  0  0  0
  -28.2480  -26.2470   20.2730 O   0  0  0  0  0  0  0  0  0  0  0  0
  -24.6370  -31.9200   23.2570 C   0  0  0  0  0  0  0  0  0  0  0  0
  -27.1870  -27.2170   20.2140 C   0  0  0  0  0  0  0  0  0  0  0  0
  -23.4250  -30.5340   21.6180 C   0  0  0  0  0  3  0  0  0  0  0  0
  -24.8630  -28.9570   20.1900 C   0  0  0  0  0  0  0  0  0  0  0  0
  -25.9780  -30.7920   21.4470 C   0  0  0  0  0  2  0  0  0  0  0  0
  -26.0460  -29.4020   20.7940 C   0  0  0  0  0  0  0  0  0  0  0  0
  -27.2100  -28.5490   20.7890 C   0  0  0  0  0  3  0  0  0  0  0  0
  -25.9760  -26.8680   19.5750 C   0  0  0  0  0  3  0  0  0  0  0  0
  -24.8400  -27.7020   19.5650 C   0  0  0  0  0  3  0  0  0  0  0  0
  -23.6400  -29.8590   20.2380 C   0  0  0  0  0  2  0  0  0  0  0  0
  -24.7000  -31.1020   22.1630 N   0  0  0  0  0  0  0  0  0  0  0  0
  -23.5530  -32.2100   23.7860 O   0  0  0  0  0  0  0  0  0  0  0  0
  -22.7430  -29.5270   22.5790 C   0  0  0  0  0  0  0  0  0  0  0  0
  -21.4140  -29.3650   22.4530 N   0  0  0  0  0  0  0  0  0  0  0  0
  -23.4120  -28.8960   23.4000 O   0  0  0  0  0  0  0  0  0  0  0  0
  -20.9320  -29.9260   21.7650 H   0  0  0  0  0  0  0  0  0  0  0  0
  -18.0240  -28.1930   22.9570 C   0  0  0  0  0  0  0  0  0  0  0  0
  -20.5860  -28.4340   23.2230 C   0  0  0  0  0  3  0  0  0  0  0  0
  -20.6750  -27.0010   22.6480 C   0  0  0  0  0  2  0  0  0  0  0  0
  -19.5690  -26.6880   21.6340 C   0  0  0  0  0  2  0  0  0  0  0  0
  -18.1890  -26.8430   22.2790 C   0  0  0  0  0  2  0  0  0  0  0  0
  -19.1490  -28.9470   23.3850 C   0  0  0  0  0  0  0  0  0  0  0  0
  -18.9400  -30.2100   23.9820 C   0  0  0  0  0  3  0  0  0  0  0  0
  -17.6390  -30.7190   24.1510 C   0  0  0  0  0  3  0  0  0  0  0  0
  -16.5280  -29.9620   23.7380 C   0  0  0  0  0  3  0  0  0  0  0  0
  -16.7220  -28.7010   23.1470 C   0  0  0  0  0  3  0  0  0  0  0  0
  -25.9200  -32.5470   23.8830 C   0  0  0  0  0  3  0  0  0  0  0  0
  -26.4330  -31.7660   25.1560 C   0  0  1  0  0  0  0  0  0  0  0  0
  -25.3390  -31.5270   26.2240 C   0  0  0  0  0  1  0  0  0  0  0  0
  -27.0110  -30.3900   24.7590 C   0  0  0  0  0  1  0  0  0  0  0  0
  -27.5860  -32.5540   25.8240 C   0  0  0  0  0  1  0  0  0  0  0  0
  -25.6130  -33.9440   24.2270 N   0  0  0  0  0  0  0  0  0  0  0  0
  -25.9220  -35.0030   23.4670 C   0  0  0  0  0  0  0  0  0  0  0  0
  -26.5620  -34.9070   22.4170 O   0  0  0  0  0  0  0  0  0  0  0  0
  -25.0400  -34.0920   25.0450 H   0  0  0  0  0  0  0  0  0  0  0  0
  -24.1710  -36.7910   23.1880 C   0  0  0  0  0  1  0  0  0  0  0  0
  -25.4470  -36.3890   23.9480 C   0  0  0  0  0  3  0  0  0  0  0  0
  -27.6050  -37.2880   24.6980 C   0  0  0  0  0  1  0  0  0  0  0  0
  -26.4680  -37.4480   23.7960 N   0  0  0  0  0  0  0  0  0  0  0  0
  -26.0620  -38.3660   23.9590 H   0  0  0  0  0  0  0  0  0  0  0  0
  1  2  2  0
  3 12  1  0
  4  9  1  0
  5  6  1  0
  5  4  1  0
  7  6  1  0
  7 20  1  0
  7  8  1  0
  9  3  1  0
  9  8  1  0
 10  3  2  0
 11  2  1  0
 11 12  1  0
 12 14  1  0
 13 11  2  0
 15 13  1  0
 16 13  1  0
 17 18  2  0
 18 37  1  0
 19 18  1  0
 19 22  1  0
 20 17  1  0
 20 21  1  0
 21 19  2  0
 22 23  1  0
 23 24  2  0
 25 28  1  0
 25 24  1  0
 26 25  2  0
 27 26  1  0
 27 22  2  0
 28 29  1  0
 29 30  1  0
 30 31  2  0
 32 31  1  0
 32 36  1  0
 33 32  2  0
 34 29  2  0
 34 33  1  0
 35 34  1  0
 37 38  1  0
 38 41  1  0
 38 40  1  0
 39 37  2  0
 42 43  1  0
 42 17  1  0
 44 42  1  0
 45 46  1  0
 45  1  1  0
 47 48  1  0
 47 46  2  0
 49 60  2  0
 50 48  1  0
 50 55  1  0
 51 59  1  0
 51 61  1  0
 52 58  1  0
 52 54  1  0
 53 59  1  0
 54 53  1  0
 55 54  2  0
 56 50  2  0
 57 56  1  0
 57 52  2  0
 58 51  1  0
 59 49  1  0
 61 63  2  0
 62 61  1  0
 64 62  1  0
 65 74  2  0
 65 70  1  0
 66 62  1  0
 66 70  1  0
 67 66  1  0
 68 69  1  0
 68 67  1  0
 69 65  1  0
 70 71  2  0
 71 72  1  0
 73 72  2  0
 74 73  1  0
 75 49  1  0
 75 80  1  0
 75 76  1  0
 76 79  1  1
 76 77  1  0
 78 76  1  0
 80 83  1  0
 81 85  1  0
 81 80  1  0
 82 81  2  0
 85 84  1  0
 87 85  1  0
 87 88  1  0
 87 86  1  0
M  ISO  4   3 100  12 100  47 101  48 101
M  END
>  <TORSDO>  (40) 
F 20

>  <SCORE>  (40) 
-13.610

>  <name>  (40) 
39

>  <ligand_id>  (40) 
39

>  <original_smiles>  (40) 
[H]c1c([H])c([H])c2c(c1[H])C([H])([H])C([H])([H])C([H])([H])C2([H])N([H])C(=O)C1([H])N(C(=O)C([H])(N([H])C(=O)C([H])(N([H])C([H])([H])[H])C([H])([H])[H])C(C([H])([H])[H])(C([H])([H])[H])C([H])([H])[H])C([H])([H])c2c([H])c(OC([H])([H])C([H])([H])C([H])([H])C([H])([H])C([H])([H])C(N([H])C(=O)N3C([H])([H])C([H])([H])C([H])([H])C([H])(n4nc(-c5c([H])c([H])c(Oc6c([H])c([H])c(F)c([H])c6F)c([H])c5[H])c(C(=O)N([H])[H])c4N([H])[H])C3([H])[H])=[N+]([H])[H])c([H])c([H])c2C1([H])[H]

>  <smiles>  (40) 
[H]c1c([H])c([H])c2c(c1[H])C([H])([H])C([H])([H])C([H])([H])C2([H])N([H])C(=O)C1([H])N(C(=O)C([H])(N([H])C(=O)C([H])(N([H])C([H])([H])[H])C([H])([H])[H])C(C([H])([H])[H])(C([H])([H])[H])C([H])([H])[H])C([H])([H])c2c([H])c(OC([H])([H])C([H])([H])C([H])([H])C([H])([H])C([H])([H])C(N([H])C(=O)N3C([H])([H])C([H])([H])C([H])([H])C([H])(n4nc(-c5c([H])c([H])c(Oc6c([H])c([H])c(F)c([H])c6F)c([H])c5[H])c(C(=O)N([H])[H])c4N([H])[H])C3([H])[H])=[N+]([H])[H])c([H])c([H])c2C1([H])[H]

$$$$
40:0:0
     RDKit          3D

105113  0  0  1  0  0  0  0  0999 V2000
  -29.7560  -18.4270   19.9060 C   0  0  0  0  0  3  0  0  0  0  0  0
  -29.2350  -22.1010   21.4860 C   0  0  0  0  0  2  0  0  0  0  0  0
  -28.6620  -22.0710   19.1490 C   0  0  0  0  0  2  0  0  0  0  0  0
  -30.0070  -20.7880   21.0760 C   0  0  0  0  0  2  0  0  0  0  0  0
  -28.2990  -20.5430   19.3540 C   0  0  0  0  0  2  0  0  0  0  0  0
  -28.5250  -22.8290   20.4020 N   0  0  0  0  0  0  0  0  0  0  0  0
  -29.1740  -19.8000   20.3300 N   0  0  1  0  0  4  0  0  0  0  0  0
  -28.4830  -19.5340   21.0120 H   0  0  0  0  0  0  0  0  0  0  0  0
  -28.8110  -24.3070   20.3850 C   0  0  0  0  0  3  0  0  0  0  0  0
  -27.8970  -25.2700   19.5070 C   0  0  0  0  0  3  0  0  0  0  0  0
  -27.9960  -26.7280   19.7600 O   0  0  0  0  0  0  0  0  0  0  0  0
  -24.4780  -31.9640   23.2200 C   0  0  0  0  0  0  0  0  0  0  0  0
  -26.8570  -27.5470   19.7960 C   0  0  0  0  0  0  0  0  0  0  0  0
  -23.1640  -30.6430   21.6050 C   0  0  0  0  0  3  0  0  0  0  0  0
  -24.5030  -29.1610   20.0170 C   0  0  0  0  0  0  0  0  0  0  0  0
  -25.6840  -30.9660   21.2670 C   0  0  0  0  0  2  0  0  0  0  0  0
  -25.7100  -29.6200   20.5560 C   0  0  0  0  0  0  0  0  0  0  0  0
  -26.8860  -28.8220   20.4390 C   0  0  0  0  0  3  0  0  0  0  0  0
  -25.6260  -27.1530   19.2170 C   0  0  0  0  0  3  0  0  0  0  0  0
  -24.4600  -27.9370   19.3340 C   0  0  0  0  0  3  0  0  0  0  0  0
  -23.2800  -30.0400   20.1830 C   0  0  0  0  0  2  0  0  0  0  0  0
  -24.4650  -31.2040   22.0880 N   0  0  0  0  0  0  0  0  0  0  0  0
  -23.4310  -32.2220   23.8370 O   0  0  0  0  0  0  0  0  0  0  0  0
  -22.5620  -29.5830   22.5580 C   0  0  0  0  0  0  0  0  0  0  0  0
  -21.2400  -29.3600   22.4530 N   0  0  0  0  0  0  0  0  0  0  0  0
  -23.2770  -28.9650   23.3540 O   0  0  0  0  0  0  0  0  0  0  0  0
  -20.7220  -29.9090   21.7820 H   0  0  0  0  0  0  0  0  0  0  0  0
  -17.9360  -27.9760   22.9460 C   0  0  0  0  0  0  0  0  0  0  0  0
  -20.4740  -28.3880   23.2300 C   0  0  0  0  0  3  0  0  0  0  0  0
  -20.6670  -26.9620   22.6710 C   0  0  0  0  0  2  0  0  0  0  0  0
  -19.5930  -26.5650   21.6530 C   0  0  0  0  0  2  0  0  0  0  0  0
  -18.1980  -26.6350   22.2830 C   0  0  0  0  0  2  0  0  0  0  0  0
  -19.0060  -28.8070   23.3750 C   0  0  0  0  0  0  0  0  0  0  0  0
  -18.7110  -30.0600   23.9570 C   0  0  0  0  0  3  0  0  0  0  0  0
  -17.3800  -30.4840   24.1160 C   0  0  0  0  0  3  0  0  0  0  0  0
  -16.3230  -29.6530   23.7020 C   0  0  0  0  0  3  0  0  0  0  0  0
  -16.6040  -28.4030   23.1220 C   0  0  0  0  0  3  0  0  0  0  0  0
  -25.8020  -32.5710   23.7740 C   0  0  0  0  0  3  0  0  0  0  0  0
  -26.3690  -31.7840   25.0200 C   0  0  1  0  0  0  0  0  0  0  0  0
  -25.3290  -31.5630   26.1420 C   0  0  0  0  0  1  0  0  0  0  0  0
  -26.8990  -30.3950   24.5940 C   0  0  0  0  0  1  0  0  0  0  0  0
  -27.5730  -32.5460   25.6230 C   0  0  0  0  0  1  0  0  0  0  0  0
  -25.5370  -33.9730   24.1260 N   0  0  0  0  0  0  0  0  0  0  0  0
  -25.8800  -35.0300   23.3740 C   0  0  0  0  0  0  0  0  0  0  0  0
  -26.5290  -34.9240   22.3280 O   0  0  0  0  0  0  0  0  0  0  0  0
  -24.9740  -34.1220   24.9500 H   0  0  0  0  0  0  0  0  0  0  0  0
  -24.1960  -36.8720   23.0730 C   0  0  0  0  0  1  0  0  0  0  0  0
  -25.4400  -36.4260   23.8600 C   0  0  0  0  0  3  0  0  0  0  0  0
  -27.6050  -37.2430   24.6730 C   0  0  0  0  0  1  0  0  0  0  0  0
  -26.4980  -37.4530   23.7450 N   0  0  0  0  0  0  0  0  0  0  0  0
  -26.1180  -38.3790   23.9160 H   0  0  0  0  0  0  0  0  0  0  0  0
  -30.6670  -18.4630   18.6450 C   0  0  0  0  0  2  0  0  0  0  0  0
  -30.0410  -18.7200   17.2590 C   0  0  0  0  0  2  0  0  0  0  0  0
  -30.3930  -20.1080   16.6930 C   0  0  0  0  0  2  0  0  0  0  0  0
  -31.4150  -20.0000   15.5440 C   0  0  0  0  0  2  0  0  0  0  0  0
  -31.8340  -21.3050   15.0180 N   0  0  0  0  0  4  0  0  0  0  0  0
  -31.1440  -21.6920   14.3990 H   0  0  0  0  0  0  0  0  0  0  0  0
  -32.6860  -21.1900   14.4960 H   0  0  0  0  0  0  0  0  0  0  0  0
  -32.0080  -21.9410   15.7740 H   0  0  0  0  0  0  0  0  0  0  0  0
  -30.4750  -17.5220   21.0390 C   0  0  0  0  0  3  0  0  0  0  0  0
  -31.0090  -14.9440   20.6040 C   0  0  0  0  0  0  0  0  0  0  0  0
  -30.9250  -12.5770   19.8450 C   0  0  0  0  0  2  0  0  0  0  0  0
  -30.0820  -12.4810   18.5520 C   0  0  0  0  0  2  0  0  0  0  0  0
  -28.5860  -12.3300   18.8910 C   0  0  0  0  0  2  0  0  0  0  0  0
  -28.1080  -13.3590   19.9470 C   0  0  0  0  0  3  0  0  0  0  0  0
  -29.0680  -13.4100   21.1520 C   0  0  0  0  0  2  0  0  0  0  0  0
  -30.4120  -13.7130   20.6360 N   0  0  0  0  0  0  0  0  0  0  0  0
  -32.1660  -15.0750   20.1950 O   0  0  0  0  0  0  0  0  0  0  0  0
  -30.2270  -16.0230   20.9190 N   0  0  0  0  0  0  0  0  0  0  0  0
  -29.3050  -15.7360   21.2170 H   0  0  0  0  0  0  0  0  0  0  0  0
  -25.7030  -14.0200   20.5680 C   0  0  0  0  0  0  0  0  0  0  0  0
  -24.5960  -13.2720   20.8790 C   0  0  0  0  0  0  0  0  0  0  0  0
  -25.0190  -11.9090   20.8350 C   0  0  0  0  0  0  0  0  0  0  0  0
  -26.7290  -13.1130   20.3640 N   0  0  0  0  0  0  0  0  0  0  0  0
  -26.3210  -11.8360   20.5810 N   0  0  0  0  0  0  0  0  0  0  0  0
  -24.2480  -10.6620   20.9690 C   0  0  0  0  0  0  0  0  0  0  0  0
  -24.6160   -9.6630   21.8960 C   0  0  0  0  0  3  0  0  0  0  0  0
  -23.8500   -8.4850   22.0220 C   0  0  0  0  0  3  0  0  0  0  0  0
  -22.7000   -8.2960   21.2190 C   0  0  0  0  0  0  0  0  0  0  0  0
  -22.3440   -9.2870   20.2870 C   0  0  0  0  0  3  0  0  0  0  0  0
  -23.1130  -10.4580   20.1590 C   0  0  0  0  0  3  0  0  0  0  0  0
  -21.9120   -7.1710   21.2500 O   0  0  0  0  0  0  0  0  0  0  0  0
  -21.7760   -6.4200   22.3880 C   0  0  0  0  0  0  0  0  0  0  0  0
  -21.2890   -6.9730   23.5930 C   0  0  0  0  0  3  0  0  0  0  0  0
  -21.1040   -6.1490   24.7200 C   0  0  0  0  0  3  0  0  0  0  0  0
  -21.3900   -4.7730   24.6430 C   0  0  0  0  0  0  0  0  0  0  0  0
  -21.8710   -4.2200   23.4430 C   0  0  0  0  0  3  0  0  0  0  0  0
  -22.0600   -5.0400   22.3170 C   0  0  0  0  0  0  0  0  0  0  0  0
  -22.5030   -4.4980   21.1580 F   0  0  0  0  0  0  0  0  0  0  0  0
  -21.2030   -3.9800   25.7250 F   0  0  0  0  0  0  0  0  0  0  0  0
  -23.2010  -13.7870   21.0990 C   0  0  0  0  0  0  0  0  0  0  0  0
  -22.4260  -13.1120   21.9400 N   0  0  0  0  0  0  0  0  0  0  0  0
  -22.8080  -14.8210   20.5630 O   0  0  0  0  0  0  0  0  0  0  0  0
  -22.7510  -12.2760   22.3990 H   0  0  0  0  0  0  0  0  0  0  0  0
  -21.4890  -13.4400   22.1270 H   0  0  0  0  0  0  0  0  0  0  0  0
  -25.9130  -15.3850   20.4190 N   0  0  0  0  0  0  0  0  0  0  0  0
  -25.1600  -16.0590   20.5000 H   0  0  0  0  0  0  0  0  0  0  0  0
  -26.7810  -15.7940   20.1010 H   0  0  0  0  0  0  0  0  0  0  0  0
  -32.0290  -17.7130   21.2190 C   0  0  0  0  0  2  0  0  0  0  0  0
  -32.7000  -19.1040   21.1590 C   0  0  0  0  0  2  0  0  0  0  0  0
  -34.1930  -19.0210   20.7600 C   0  0  0  0  0  2  0  0  0  0  0  0
  -34.7640  -20.3340   20.4040 N   0  0  0  0  0  4  0  0  0  0  0  0
  -34.1440  -20.8480   19.7990 H   0  0  0  0  0  0  0  0  0  0  0  0
  -35.6350  -20.2110   19.9160 H   0  0  0  0  0  0  0  0  0  0  0  0
  -34.9470  -20.8800   21.2290 H   0  0  0  0  0  0  0  0  0  0  0  0
  1 52  1  0
  1  7  1  0
  1 60  1  0
  3  5  1  0
  3  6  1  0
  4  2  1  0
  5  7  1  0
  6  2  1  0
  7  8  1  1
  7  4  1  0
  9  6  1  0
 10 11  1  0
 10  9  2  0
 11 13  1  0
 12 23  2  0
 13 18  1  0
 14 22  1  0
 14 24  1  0
 15 21  1  0
 15 17  1  0
 16 22  1  0
 17 16  1  0
 18 17  2  0
 19 20  1  0
 19 13  2  0
 20 15  2  0
 21 14  1  0
 22 12  1  0
 24 26  2  0
 25 24  1  0
 27 25  1  0
 28 37  2  0
 28 33  1  0
 29 25  1  0
 29 33  1  0
 30 29  1  0
 31 32  1  0
 31 30  1  0
 32 28  1  0
 33 34  2  0
 34 35  1  0
 36 35  2  0
 37 36  1  0
 38 12  1  0
 38 43  1  0
 38 39  1  0
 39 42  1  1
 39 40  1  0
 41 39  1  0
 43 46  1  0
 44 48  1  0
 44 43  1  0
 45 44  2  0
 48 47  1  0
 50 48  1  0
 50 51  1  0
 50 49  1  0
 53 52  1  0
 54 53  1  0
 55 54  1  0
 56 55  1  0
 56 59  1  0
 57 56  1  0
 58 56  1  0
 60 99  1  0
 61 67  1  0
 61 69  1  0
 62 67  1  0
 63 64  1  0
 63 62  1  0
 65 64  1  0
 65 74  1  0
 65 66  1  0
 67 66  1  0
 68 61  2  0
 69 60  1  0
 69 70  1  0
 71 72  2  0
 72 91  1  0
 73 72  1  0
 73 76  1  0
 74 71  1  0
 74 75  1  0
 75 73  2  0
 76 77  1  0
 77 78  2  0
 79 82  1  0
 79 78  1  0
 80 79  2  0
 81 80  1  0
 81 76  2  0
 82 83  1  0
 83 84  1  0
 84 85  2  0
 86 85  1  0
 86 90  1  0
 87 86  2  0
 88 83  2  0
 88 87  1  0
 89 88  1  0
 91 92  1  0
 92 95  1  0
 92 94  1  0
 93 91  2  0
 96 97  1  0
 96 71  1  0
 98 96  1  0
100 99  1  0
101100  1  0
102101  1  0
102105  1  0
103102  1  0
104102  1  0
M  ISO  4  10 101  11 101  61 100  69 100
M  END
>  <TORSDO>  (41) 
F 29

>  <SCORE>  (41) 
-11.131

>  <name>  (41) 
40

>  <ligand_id>  (41) 
40

>  <original_smiles>  (41) 
[H]c1c([H])c([H])c2c(c1[H])C([H])([H])C([H])([H])C([H])([H])C2([H])N([H])C(=O)C1([H])N(C(=O)C([H])(N([H])C(=O)C([H])(N([H])C([H])([H])[H])C([H])([H])[H])C(C([H])([H])[H])(C([H])([H])[H])C([H])([H])[H])C([H])([H])c2c([H])c(OC([H])([H])C([H])([H])N3C([H])([H])C([H])([H])[N+]([H])(C([H])(C([H])([H])C([H])([H])C([H])([H])C([H])([H])[N+]([H])([H])[H])C([H])(N([H])C(=O)N4C([H])([H])C([H])([H])C([H])([H])C([H])(n5nc(-c6c([H])c([H])c(Oc7c([H])c([H])c(F)c([H])c7F)c([H])c6[H])c(C(=O)N([H])[H])c5N([H])[H])C4([H])[H])C([H])([H])C([H])([H])C([H])([H])[N+]([H])([H])[H])C([H])([H])C3([H])[H])c([H])c([H])c2C1([H])[H]

>  <smiles>  (41) 
[H]c1c([H])c([H])c2c(c1[H])C([H])([H])C([H])([H])C([H])([H])C2([H])N([H])C(=O)C1([H])N(C(=O)C([H])(N([H])C(=O)C([H])(N([H])C([H])([H])[H])C([H])([H])[H])C(C([H])([H])[H])(C([H])([H])[H])C([H])([H])[H])C([H])([H])c2c([H])c(OC([H])([H])C([H])([H])N3C([H])([H])C([H])([H])[N+]([H])(C([H])(C([H])([H])C([H])([H])C([H])([H])C([H])([H])[N+]([H])([H])[H])C([H])(N([H])C(=O)N4C([H])([H])C([H])([H])C([H])([H])C([H])(n5nc(-c6c([H])c([H])c(Oc7c([H])c([H])c(F)c([H])c7F)c([H])c6[H])c(C(=O)N([H])[H])c5N([H])[H])C4([H])[H])C([H])([H])C([H])([H])C([H])([H])[N+]([H])([H])[H])C([H])([H])C3([H])[H])c([H])c([H])c2C1([H])[H]

$$$$
41:0:0
     RDKit          3D

100108  0  0  1  0  0  0  0  0999 V2000
  -30.3570  -22.7660   22.3210 C   0  0  0  0  0  2  0  0  0  0  0  0
  -30.8140  -22.6590   20.0140 C   0  0  0  0  0  2  0  0  0  0  0  0
  -29.5940  -21.4240   22.2740 C   0  0  0  0  0  2  0  0  0  0  0  0
  -30.0810  -21.2900   19.9010 C   0  0  0  0  0  2  0  0  0  0  0  0
  -30.2170  -23.5090   21.0600 N   0  0  0  0  0  0  0  0  0  0  0  0
  -30.0950  -20.5360   21.1900 N   0  0  2  0  0  4  0  0  0  0  0  0
  -31.0570  -20.3290   21.4100 H   0  0  0  0  0  0  0  0  0  0  0  0
  -30.9270  -24.7940   21.2190 C   0  0  0  0  0  2  0  0  0  0  0  0
  -30.6460  -25.8950   20.1590 C   0  0  0  0  0  2  0  0  0  0  0  0
  -29.6530  -27.0240   20.5610 C   0  0  0  0  0  2  0  0  0  0  0  0
  -28.3840  -26.6860   20.0320 O   0  0  0  0  0  0  0  0  0  0  0  0
  -24.6090  -31.9370   23.2270 C   0  0  0  0  0  0  0  0  0  0  0  0
  -27.2950  -27.5260   20.1250 C   0  0  0  0  0  0  0  0  0  0  0  0
  -23.4200  -30.5420   21.5690 C   0  0  0  0  0  3  0  0  0  0  0  0
  -24.8910  -29.0220   20.1460 C   0  0  0  0  0  0  0  0  0  0  0  0
  -25.9490  -30.9100   21.3940 C   0  0  0  0  0  2  0  0  0  0  0  0
  -26.0470  -29.5430   20.7470 C   0  0  0  0  0  0  0  0  0  0  0  0
  -27.2580  -28.8040   20.7400 C   0  0  0  0  0  3  0  0  0  0  0  0
  -26.1200  -27.0230   19.5330 C   0  0  0  0  0  3  0  0  0  0  0  0
  -24.9220  -27.7580   19.5380 C   0  0  0  0  0  3  0  0  0  0  0  0
  -23.6440  -29.8750   20.1870 C   0  0  0  0  0  2  0  0  0  0  0  0
  -24.6770  -31.1440   22.1210 N   0  0  0  0  0  0  0  0  0  0  0  0
  -23.5230  -32.2020   23.7610 O   0  0  0  0  0  0  0  0  0  0  0  0
  -22.7660  -29.5120   22.5170 C   0  0  0  0  0  0  0  0  0  0  0  0
  -21.4400  -29.3370   22.3900 N   0  0  0  0  0  0  0  0  0  0  0  0
  -23.4460  -28.8730   23.3240 O   0  0  0  0  0  0  0  0  0  0  0  0
  -20.9510  -29.9040   21.7110 H   0  0  0  0  0  0  0  0  0  0  0  0
  -18.0570  -28.1690   22.8920 C   0  0  0  0  0  0  0  0  0  0  0  0
  -20.6180  -28.3950   23.1500 C   0  0  0  0  0  3  0  0  0  0  0  0
  -20.7020  -26.9730   22.5480 C   0  0  0  0  0  2  0  0  0  0  0  0
  -19.5900  -26.6790   21.5370 C   0  0  0  0  0  2  0  0  0  0  0  0
  -18.2140  -26.8280   22.1930 C   0  0  0  0  0  2  0  0  0  0  0  0
  -19.1860  -28.9100   23.3280 C   0  0  0  0  0  0  0  0  0  0  0  0
  -18.9850  -30.1670   23.9400 C   0  0  0  0  0  3  0  0  0  0  0  0
  -17.6870  -30.6790   24.1220 C   0  0  0  0  0  3  0  0  0  0  0  0
  -16.5720  -29.9330   23.7050 C   0  0  0  0  0  3  0  0  0  0  0  0
  -16.7580  -28.6790   23.0940 C   0  0  0  0  0  3  0  0  0  0  0  0
  -25.8890  -32.5670   23.8580 C   0  0  0  0  0  3  0  0  0  0  0  0
  -26.4080  -31.7830   25.1250 C   0  0  1  0  0  0  0  0  0  0  0  0
  -25.3130  -31.5260   26.1860 C   0  0  0  0  0  1  0  0  0  0  0  0
  -27.0030  -30.4150   24.7160 C   0  0  0  0  0  1  0  0  0  0  0  0
  -27.5500  -32.5770   25.8020 C   0  0  0  0  0  1  0  0  0  0  0  0
  -25.5720  -33.9590   24.2030 N   0  0  0  0  0  0  0  0  0  0  0  0
  -25.8930  -35.0210   23.4520 C   0  0  0  0  0  0  0  0  0  0  0  0
  -26.5600  -34.9310   22.4160 O   0  0  0  0  0  0  0  0  0  0  0  0
  -24.9770  -34.1020   25.0060 H   0  0  0  0  0  0  0  0  0  0  0  0
  -24.1410  -36.7950   23.1270 C   0  0  0  0  0  1  0  0  0  0  0  0
  -25.3950  -36.4010   23.9220 C   0  0  0  0  0  3  0  0  0  0  0  0
  -27.5260  -37.3070   24.7370 C   0  0  0  0  0  1  0  0  0  0  0  0
  -26.4140  -37.4650   23.8040 N   0  0  0  0  0  0  0  0  0  0  0  0
  -26.0000  -38.3810   23.9560 H   0  0  0  0  0  0  0  0  0  0  0  0
  -29.3430  -19.2400   21.1570 C   0  0  0  0  0  2  0  0  0  0  0  0
  -29.9960  -18.0630   20.3500 C   0  0  0  0  0  3  0  0  0  0  0  0
  -28.9870  -17.4390   19.3430 C   0  0  0  0  0  2  0  0  0  0  0  0
  -28.7570  -18.2170   18.0240 C   0  0  0  0  0  2  0  0  0  0  0  0
  -28.0890  -19.6090   18.1030 C   0  0  0  0  0  2  0  0  0  0  0  0
  -26.9630  -19.7830   19.1460 C   0  0  0  0  0  2  0  0  0  0  0  0
  -25.9030  -18.7670   19.0330 N   0  0  0  0  0  4  0  0  0  0  0  0
  -25.5750  -18.6950   18.0860 H   0  0  0  0  0  0  0  0  0  0  0  0
  -25.1250  -19.0250   19.6150 H   0  0  0  0  0  0  0  0  0  0  0  0
  -26.2280  -17.8680   19.3420 H   0  0  0  0  0  0  0  0  0  0  0  0
  -30.6860  -16.9930   21.2850 C   0  0  0  0  0  2  0  0  0  0  0  0
  -30.9830  -14.5840   20.5180 C   0  0  0  0  0  0  0  0  0  0  0  0
  -30.6640  -12.4560   19.3020 C   0  0  0  0  0  2  0  0  0  0  0  0
  -29.7440  -12.7120   18.0910 C   0  0  0  0  0  2  0  0  0  0  0  0
  -28.2590  -12.6090   18.4930 C   0  0  0  0  0  2  0  0  0  0  0  0
  -27.9250  -13.4130   19.7800 C   0  0  0  0  0  3  0  0  0  0  0  0
  -28.9580  -13.1270   20.8920 C   0  0  0  0  0  2  0  0  0  0  0  0
  -30.2960  -13.4230   20.3490 N   0  0  0  0  0  0  0  0  0  0  0  0
  -32.1120  -14.7720   20.0570 O   0  0  0  0  0  0  0  0  0  0  0  0
  -30.2860  -15.5810   21.0990 N   0  0  0  0  0  0  0  0  0  0  0  0
  -29.3670  -15.3300   21.4320 H   0  0  0  0  0  0  0  0  0  0  0  0
  -25.5200  -14.0650   20.4170 C   0  0  0  0  0  0  0  0  0  0  0  0
  -24.4300  -13.3140   20.7690 C   0  0  0  0  0  0  0  0  0  0  0  0
  -24.8700  -11.9550   20.7640 C   0  0  0  0  0  0  0  0  0  0  0  0
  -26.5570  -13.1650   20.2270 N   0  0  0  0  0  0  0  0  0  0  0  0
  -26.1670  -11.8910   20.4880 N   0  0  0  0  0  0  0  0  0  0  0  0
  -24.1170  -10.7080   20.9520 C   0  0  0  0  0  0  0  0  0  0  0  0
  -24.4930   -9.7590   21.9290 C   0  0  0  0  0  3  0  0  0  0  0  0
  -23.7440   -8.5760   22.1050 C   0  0  0  0  0  3  0  0  0  0  0  0
  -22.6040   -8.3320   21.3040 C   0  0  0  0  0  0  0  0  0  0  0  0
  -22.2480   -9.2680   20.3160 C   0  0  0  0  0  3  0  0  0  0  0  0
  -22.9970  -10.4430   20.1400 C   0  0  0  0  0  3  0  0  0  0  0  0
  -21.8330   -7.1990   21.3830 O   0  0  0  0  0  0  0  0  0  0  0  0
  -21.6840   -6.5120   22.5610 C   0  0  0  0  0  0  0  0  0  0  0  0
  -21.1550   -7.1230   23.7180 C   0  0  0  0  0  3  0  0  0  0  0  0
  -20.9540   -6.3630   24.8880 C   0  0  0  0  0  3  0  0  0  0  0  0
  -21.2720   -4.9910   24.9000 C   0  0  0  0  0  0  0  0  0  0  0  0
  -21.7910   -4.3790   23.7460 C   0  0  0  0  0  3  0  0  0  0  0  0
  -21.9940   -5.1380   22.5790 C   0  0  0  0  0  0  0  0  0  0  0  0
  -22.4770   -4.5380   21.4640 F   0  0  0  0  0  0  0  0  0  0  0  0
  -21.0700   -4.2590   26.0200 F   0  0  0  0  0  0  0  0  0  0  0  0
  -23.0370  -13.8180   21.0100 C   0  0  0  0  0  0  0  0  0  0  0  0
  -22.2830  -13.1450   21.8720 N   0  0  0  0  0  0  0  0  0  0  0  0
  -22.6270  -14.8450   20.4700 O   0  0  0  0  0  0  0  0  0  0  0  0
  -22.6290  -12.3140   22.3270 H   0  0  0  0  0  0  0  0  0  0  0  0
  -21.3460  -13.4630   22.0760 H   0  0  0  0  0  0  0  0  0  0  0  0
  -25.7150  -15.4310   20.2290 N   0  0  0  0  0  0  0  0  0  0  0  0
  -24.9950  -16.0730   20.5380 H   0  0  0  0  0  0  0  0  0  0  0  0
  -26.6430  -15.8280   20.2680 H   0  0  0  0  0  0  0  0  0  0  0  0
  2  5  1  0
  3  1  1  0
  4  2  1  0
  4  6  1  0
  5  8  1  0
  5  1  1  0
  6  7  1  1
  6  3  1  0
  9 10  1  0
  9  8  1  0
 11 13  1  0
 11 10  1  0
 12 23  2  0
 13 18  1  0
 14 22  1  0
 14 24  1  0
 15 21  1  0
 15 17  1  0
 16 22  1  0
 17 16  1  0
 18 17  2  0
 19 20  1  0
 19 13  2  0
 20 15  2  0
 21 14  1  0
 22 12  1  0
 24 26  2  0
 25 24  1  0
 27 25  1  0
 28 37  2  0
 28 33  1  0
 29 25  1  0
 29 33  1  0
 30 29  1  0
 31 32  1  0
 31 30  1  0
 32 28  1  0
 33 34  2  0
 34 35  1  0
 36 35  2  0
 37 36  1  0
 38 12  1  0
 38 43  1  0
 38 39  1  0
 39 42  1  1
 39 40  1  0
 41 39  1  0
 43 46  1  0
 44 48  1  0
 44 43  1  0
 45 44  2  0
 48 47  1  0
 50 48  1  0
 50 51  1  0
 50 49  1  0
 52  6  1  0
 53 54  1  0
 53 52  1  0
 53 62  1  0
 55 56  1  0
 55 54  1  0
 56 57  1  0
 58 57  1  0
 58 61  1  0
 58 60  1  0
 59 58  1  0
 63 71  1  0
 64 69  1  0
 65 66  1  0
 65 64  1  0
 67 66  1  0
 67 76  1  0
 67 68  1  0
 69 63  1  0
 69 68  1  0
 70 63  2  0
 71 62  1  0
 71 72  1  0
 73 74  2  0
 74 93  1  0
 75 74  1  0
 75 78  1  0
 76 73  1  0
 76 77  1  0
 77 75  2  0
 78 79  1  0
 79 80  2  0
 81 84  1  0
 81 80  1  0
 82 81  2  0
 83 82  1  0
 83 78  2  0
 84 85  1  0
 85 90  2  0
 85 86  1  0
 86 87  2  0
 87 88  1  0
 88 92  1  0
 89 88  2  0
 90 89  1  0
 91 90  1  0
 93 94  1  0
 94 97  1  0
 94 96  1  0
 95 93  2  0
 98100  1  0
 98 73  1  0
 98 99  1  0
M  ISO  4  10 101  11 101  63 100  71 100
M  END
>  <TORSDO>  (42) 
F 27

>  <SCORE>  (42) 
-11.680

>  <name>  (42) 
41

>  <ligand_id>  (42) 
41

>  <original_smiles>  (42) 
[H]c1c([H])c([H])c2c(c1[H])C([H])([H])C([H])([H])C([H])([H])C2([H])N([H])C(=O)C1([H])N(C(=O)C([H])(N([H])C(=O)C([H])(N([H])C([H])([H])[H])C([H])([H])[H])C(C([H])([H])[H])(C([H])([H])[H])C([H])([H])[H])C([H])([H])c2c([H])c(OC([H])([H])C([H])([H])C([H])([H])N3C([H])([H])C([H])([H])[N+]([H])(C([H])([H])C([H])(C([H])([H])N([H])C(=O)N4C([H])([H])C([H])([H])C([H])([H])C([H])(n5nc(-c6c([H])c([H])c(Oc7c([H])c([H])c(F)c([H])c7F)c([H])c6[H])c(C(=O)N([H])[H])c5N([H])[H])C4([H])[H])C([H])([H])C([H])([H])C([H])([H])C([H])([H])[N+]([H])([H])[H])C([H])([H])C3([H])[H])c([H])c([H])c2C1([H])[H]

>  <smiles>  (42) 
[H]c1c([H])c([H])c2c(c1[H])C([H])([H])C([H])([H])C([H])([H])C2([H])N([H])C(=O)C1([H])N(C(=O)C([H])(N([H])C(=O)C([H])(N([H])C([H])([H])[H])C([H])([H])[H])C(C([H])([H])[H])(C([H])([H])[H])C([H])([H])[H])C([H])([H])c2c([H])c(OC([H])([H])C([H])([H])C([H])([H])N3C([H])([H])C([H])([H])[N+]([H])(C([H])([H])C([H])(C([H])([H])N([H])C(=O)N4C([H])([H])C([H])([H])C([H])([H])C([H])(n5nc(-c6c([H])c([H])c(Oc7c([H])c([H])c(F)c([H])c7F)c([H])c6[H])c(C(=O)N([H])[H])c5N([H])[H])C4([H])[H])C([H])([H])C([H])([H])C([H])([H])C([H])([H])[N+]([H])([H])[H])C([H])([H])C3([H])[H])c([H])c([H])c2C1([H])[H]

$$$$
42:0:0
     RDKit          3D

 89 97  0  0  1  0  0  0  0  0999 V2000
  -30.7340  -20.1060   20.5000 C   0  0  0  0  0  2  0  0  0  0  0  0
  -28.4000  -19.6020   20.7070 C   0  0  0  0  0  2  0  0  0  0  0  0
  -30.3860  -21.5610   19.9590 C   0  0  0  0  0  2  0  0  0  0  0  0
  -28.0470  -21.0990   20.1980 C   0  0  0  0  0  2  0  0  0  0  0  0
  -29.7380  -18.9250   20.1950 C   0  0  0  0  0  3  0  0  0  0  0  0
  -29.0890  -22.1800   20.4230 N   0  0  2  0  0  4  0  0  0  0  0  0
  -29.1790  -22.3000   21.4220 H   0  0  0  0  0  0  0  0  0  0  0  0
  -30.2930  -17.4790   20.8050 C   0  0  0  0  0  2  0  0  0  0  0  0
  -30.5440  -14.8690   20.2450 C   0  0  0  0  0  0  0  0  0  0  0  0
  -30.3380  -12.5850   19.2090 C   0  0  0  0  0  2  0  0  0  0  0  0
  -29.3800  -12.6320   17.9980 C   0  0  0  0  0  2  0  0  0  0  0  0
  -27.9170  -12.4490   18.4510 C   0  0  0  0  0  2  0  0  0  0  0  0
  -27.5600  -13.3300   19.6790 C   0  0  0  0  0  3  0  0  0  0  0  0
  -28.6380  -13.2570   20.7810 C   0  0  0  0  0  2  0  0  0  0  0  0
  -29.9080  -13.6450   20.1550 N   0  0  0  0  0  0  0  0  0  0  0  0
  -31.7380  -14.9350   19.9430 O   0  0  0  0  0  0  0  0  0  0  0  0
  -29.8030  -16.0400   20.4880 N   0  0  0  0  0  0  0  0  0  0  0  0
  -28.8120  -15.8860   20.6180 H   0  0  0  0  0  0  0  0  0  0  0  0
  -25.1880  -13.9140   20.4530 C   0  0  0  0  0  0  0  0  0  0  0  0
  -24.1310  -13.1390   20.8410 C   0  0  0  0  0  0  0  0  0  0  0  0
  -24.5960  -11.7880   20.8010 C   0  0  0  0  0  0  0  0  0  0  0  0
  -26.2280  -13.0360   20.1960 N   0  0  0  0  0  0  0  0  0  0  0  0
  -25.8810  -11.7520   20.4690 N   0  0  0  0  0  0  0  0  0  0  0  0
  -23.8720  -10.5250   20.9970 C   0  0  0  0  0  0  0  0  0  0  0  0
  -24.3160   -9.5560   21.9230 C   0  0  0  0  0  3  0  0  0  0  0  0
  -23.5920   -8.3590   22.1100 C   0  0  0  0  0  3  0  0  0  0  0  0
  -22.4070   -8.1260   21.3720 C   0  0  0  0  0  0  0  0  0  0  0  0
  -21.9830   -9.0820   20.4320 C   0  0  0  0  0  3  0  0  0  0  0  0
  -22.7090  -10.2700   20.2430 C   0  0  0  0  0  3  0  0  0  0  0  0
  -21.6500   -6.9840   21.4670 O   0  0  0  0  0  0  0  0  0  0  0  0
  -21.6130   -6.2380   22.6180 C   0  0  0  0  0  0  0  0  0  0  0  0
  -21.2070   -6.7910   23.8520 C   0  0  0  0  0  3  0  0  0  0  0  0
  -21.1200   -5.9720   24.9960 C   0  0  0  0  0  3  0  0  0  0  0  0
  -21.4280   -4.6020   24.9060 C   0  0  0  0  0  0  0  0  0  0  0  0
  -21.8270   -4.0480   23.6770 C   0  0  0  0  0  3  0  0  0  0  0  0
  -21.9170   -4.8640   22.5360 C   0  0  0  0  0  0  0  0  0  0  0  0
  -22.2830   -4.3220   21.3490 F   0  0  0  0  0  0  0  0  0  0  0  0
  -21.3360   -3.8140   26.0020 F   0  0  0  0  0  0  0  0  0  0  0  0
  -22.7360  -13.6160   21.1300 C   0  0  0  0  0  0  0  0  0  0  0  0
  -22.0160  -12.9210   22.0010 N   0  0  0  0  0  0  0  0  0  0  0  0
  -22.2950  -14.6440   20.6180 O   0  0  0  0  0  0  0  0  0  0  0  0
  -22.3880  -12.0940   22.4430 H   0  0  0  0  0  0  0  0  0  0  0  0
  -21.0810  -13.2260   22.2340 H   0  0  0  0  0  0  0  0  0  0  0  0
  -25.3420  -15.2860   20.2730 N   0  0  0  0  0  0  0  0  0  0  0  0
  -24.5640  -15.9250   20.4010 H   0  0  0  0  0  0  0  0  0  0  0  0
  -26.1660  -15.7360   19.8950 H   0  0  0  0  0  0  0  0  0  0  0  0
  -28.8450  -23.6150   19.8100 C   0  0  0  0  0  2  0  0  0  0  0  0
  -28.1520  -24.8720   20.6150 C   0  0  0  0  0  2  0  0  0  0  0  0
  -28.3230  -26.3390   20.2030 O   0  0  0  0  0  0  0  0  0  0  0  0
  -24.5560  -31.8480   23.1970 C   0  0  0  0  0  0  0  0  0  0  0  0
  -27.2220  -27.2400   20.1790 C   0  0  0  0  0  0  0  0  0  0  0  0
  -23.3860  -30.4450   21.5400 C   0  0  0  0  0  3  0  0  0  0  0  0
  -24.8640  -28.8980   20.1250 C   0  0  0  0  0  0  0  0  0  0  0  0
  -25.9280  -30.7640   21.3890 C   0  0  0  0  0  2  0  0  0  0  0  0
  -26.0270  -29.3790   20.7400 C   0  0  0  0  0  0  0  0  0  0  0  0
  -27.2130  -28.5650   20.7460 C   0  0  0  0  0  3  0  0  0  0  0  0
  -26.0370  -26.8360   19.5320 C   0  0  0  0  0  3  0  0  0  0  0  0
  -24.8760  -27.6370   19.5080 C   0  0  0  0  0  3  0  0  0  0  0  0
  -23.6240  -29.7760   20.1590 C   0  0  0  0  0  2  0  0  0  0  0  0
  -24.6420  -31.0380   22.0990 N   0  0  0  0  0  0  0  0  0  0  0  0
  -23.4630  -32.1150   23.7180 O   0  0  0  0  0  0  0  0  0  0  0  0
  -22.7170  -29.4200   22.4890 C   0  0  0  0  0  0  0  0  0  0  0  0
  -21.3950  -29.2280   22.3420 N   0  0  0  0  0  0  0  0  0  0  0  0
  -23.3890  -28.8030   23.3190 O   0  0  0  0  0  0  0  0  0  0  0  0
  -20.9100  -29.7810   21.6490 H   0  0  0  0  0  0  0  0  0  0  0  0
  -18.0310  -27.9650   22.7790 C   0  0  0  0  0  0  0  0  0  0  0  0
  -20.5770  -28.2790   23.1000 C   0  0  0  0  0  3  0  0  0  0  0  0
  -20.7190  -26.8450   22.5370 C   0  0  0  0  0  2  0  0  0  0  0  0
  -19.6450  -26.4930   21.5000 C   0  0  0  0  0  2  0  0  0  0  0  0
  -18.2480  -26.6150   22.1140 C   0  0  0  0  0  2  0  0  0  0  0  0
  -19.1250  -28.7510   23.2270 C   0  0  0  0  0  0  0  0  0  0  0  0
  -18.8660  -30.0120   23.8090 C   0  0  0  0  0  3  0  0  0  0  0  0
  -17.5470  -30.4850   23.9480 C   0  0  0  0  0  3  0  0  0  0  0  0
  -16.4690  -29.6950   23.5150 C   0  0  0  0  0  3  0  0  0  0  0  0
  -16.7110  -28.4370   22.9340 C   0  0  0  0  0  3  0  0  0  0  0  0
  -25.8240  -32.4920   23.8390 C   0  0  0  0  0  3  0  0  0  0  0  0
  -26.3290  -31.7280   25.1240 C   0  0  1  0  0  0  0  0  0  0  0  0
  -25.2230  -31.4840   26.1770 C   0  0  0  0  0  1  0  0  0  0  0  0
  -26.9280  -30.3540   24.7440 C   0  0  0  0  0  1  0  0  0  0  0  0
  -27.4660  -32.5290   25.7990 C   0  0  0  0  0  1  0  0  0  0  0  0
  -25.4980  -33.8890   24.1660 N   0  0  0  0  0  0  0  0  0  0  0  0
  -25.8350  -34.9460   23.4150 C   0  0  0  0  0  0  0  0  0  0  0  0
  -26.5210  -34.8500   22.3940 O   0  0  0  0  0  0  0  0  0  0  0  0
  -24.8930  -34.0410   24.9590 H   0  0  0  0  0  0  0  0  0  0  0  0
  -24.1060  -36.7330   23.0390 C   0  0  0  0  0  1  0  0  0  0  0  0
  -25.3330  -36.3310   23.8690 C   0  0  0  0  0  3  0  0  0  0  0  0
  -27.4480  -37.2230   24.7420 C   0  0  0  0  0  1  0  0  0  0  0  0
  -26.3630  -37.3890   23.7790 N   0  0  0  0  0  0  0  0  0  0  0  0
  -25.9480  -38.3070   23.9220 H   0  0  0  0  0  0  0  0  0  0  0  0
  3  6  1  0
  3  1  1  0
  4  6  1  0
  4  2  1  0
  5  1  1  0
  5  2  1  0
  5  8  1  0
  6  7  1  1
  9 17  1  0
 10 15  1  0
 11 12  1  0
 11 10  1  0
 13 12  1  0
 13 22  1  0
 13 14  1  0
 15  9  1  0
 15 14  1  0
 16  9  2  0
 17 18  1  0
 17  8  1  0
 19 20  2  0
 20 39  1  0
 21 20  1  0
 21 24  1  0
 22 19  1  0
 22 23  1  0
 23 21  2  0
 24 25  1  0
 25 26  2  0
 27 30  1  0
 27 26  1  0
 28 27  2  0
 29 28  1  0
 29 24  2  0
 30 31  1  0
 31 32  1  0
 32 33  2  0
 34 33  1  0
 34 38  1  0
 35 34  2  0
 36 31  2  0
 36 35  1  0
 37 36  1  0
 39 40  1  0
 40 43  1  0
 40 42  1  0
 41 39  2  0
 44 45  1  0
 44 19  1  0
 46 44  1  0
 47  6  1  0
 47 48  1  0
 49 48  1  0
 50 61  2  0
 51 49  1  0
 51 56  1  0
 52 60  1  0
 52 62  1  0
 53 59  1  0
 53 55  1  0
 54 60  1  0
 55 56  2  0
 55 54  1  0
 57 51  2  0
 58 57  1  0
 58 53  2  0
 59 52  1  0
 60 50  1  0
 62 64  2  0
 63 62  1  0
 65 63  1  0
 66 75  2  0
 66 71  1  0
 67 63  1  0
 67 71  1  0
 68 67  1  0
 69 70  1  0
 69 68  1  0
 70 66  1  0
 71 72  2  0
 72 73  1  0
 74 73  2  0
 75 74  1  0
 76 50  1  0
 76 81  1  0
 76 77  1  0
 77 80  1  1
 77 78  1  0
 79 77  1  0
 81 84  1  0
 82 86  1  0
 82 81  1  0
 83 82  2  0
 86 85  1  0
 88 86  1  0
 88 89  1  0
 88 87  1  0
M  ISO  4   9 100  17 100  48 101  49 101
M  END
>  <TORSDO>  (43) 
F 19

>  <SCORE>  (43) 
-14.022

>  <name>  (43) 
42

>  <ligand_id>  (43) 
42

>  <original_smiles>  (43) 
[H]c1c([H])c([H])c2c(c1[H])C([H])([H])C([H])([H])C([H])([H])C2([H])N([H])C(=O)C1([H])N(C(=O)C([H])(N([H])C(=O)C([H])(N([H])C([H])([H])[H])C([H])([H])[H])C(C([H])([H])[H])(C([H])([H])[H])C([H])([H])[H])C([H])([H])c2c([H])c(OC([H])([H])C([H])([H])[N+]3([H])C([H])([H])C([H])([H])C([H])(C([H])([H])N([H])C(=O)N4C([H])([H])C([H])([H])C([H])([H])C([H])(n5nc(-c6c([H])c([H])c(Oc7c([H])c([H])c(F)c([H])c7F)c([H])c6[H])c(C(=O)N([H])[H])c5N([H])[H])C4([H])[H])C([H])([H])C3([H])[H])c([H])c([H])c2C1([H])[H]

>  <smiles>  (43) 
[H]c1c([H])c([H])c2c(c1[H])C([H])([H])C([H])([H])C([H])([H])C2([H])N([H])C(=O)C1([H])N(C(=O)C([H])(N([H])C(=O)C([H])(N([H])C([H])([H])[H])C([H])([H])[H])C(C([H])([H])[H])(C([H])([H])[H])C([H])([H])[H])C([H])([H])c2c([H])c(OC([H])([H])C([H])([H])[N+]3([H])C([H])([H])C([H])([H])C([H])(C([H])([H])N([H])C(=O)N4C([H])([H])C([H])([H])C([H])([H])C([H])(n5nc(-c6c([H])c([H])c(Oc7c([H])c([H])c(F)c([H])c7F)c([H])c6[H])c(C(=O)N([H])[H])c5N([H])[H])C4([H])[H])C([H])([H])C3([H])[H])c([H])c([H])c2C1([H])[H]

$$$$
44:0:0
     RDKit          3D

 87 95  0  0  1  0  0  0  0  0999 V2000
  -28.2570  -18.7890   19.1560 C   0  0  0  0  0  2  0  0  0  0  0  0
  -27.9020  -20.3620   19.3470 C   0  0  0  0  0  2  0  0  0  0  0  0
  -29.6250  -19.8000   20.7700 C   0  0  0  0  0  2  0  0  0  0  0  0
  -29.5470  -18.2910   19.9320 C   0  0  0  0  0  3  0  0  0  0  0  0
  -29.0200  -21.0990   20.0060 N   0  0  2  0  0  4  0  0  0  0  0  0
  -29.6800  -21.2320   19.2500 H   0  0  0  0  0  0  0  0  0  0  0  0
  -30.3910  -15.3960   20.2550 C   0  0  0  0  0  0  0  0  0  0  0  0
  -30.4350  -12.9180   19.4560 C   0  0  0  0  0  2  0  0  0  0  0  0
  -29.5370  -12.6640   18.2160 C   0  0  0  0  0  2  0  0  0  0  0  0
  -28.0930  -12.3610   18.6440 C   0  0  0  0  0  2  0  0  0  0  0  0
  -27.6070  -13.3410   19.7390 C   0  0  0  0  0  3  0  0  0  0  0  0
  -28.6310  -13.5520   20.8780 C   0  0  0  0  0  2  0  0  0  0  0  0
  -29.8630  -14.0670   20.2570 N   0  0  0  0  0  0  0  0  0  0  0  0
  -31.5990  -15.4170   19.9700 O   0  0  0  0  0  0  0  0  0  0  0  0
  -29.5930  -16.6540   20.3880 N   0  0  0  0  0  0  0  0  0  0  0  0
  -28.6830  -16.3940   20.7390 H   0  0  0  0  0  0  0  0  0  0  0  0
  -25.2280  -13.8820   20.4680 C   0  0  0  0  0  0  0  0  0  0  0  0
  -24.1700  -13.0980   20.8360 C   0  0  0  0  0  0  0  0  0  0  0  0
  -24.6470  -11.7530   20.8130 C   0  0  0  0  0  0  0  0  0  0  0  0
  -26.2780  -13.0140   20.2370 N   0  0  0  0  0  0  0  0  0  0  0  0
  -25.9420  -11.7270   20.5150 N   0  0  0  0  0  0  0  0  0  0  0  0
  -23.9290  -10.4840   21.0010 C   0  0  0  0  0  0  0  0  0  0  0  0
  -24.3560   -9.5250   21.9460 C   0  0  0  0  0  3  0  0  0  0  0  0
  -23.6370   -8.3230   22.1240 C   0  0  0  0  0  3  0  0  0  0  0  0
  -22.4750   -8.0720   21.3550 C   0  0  0  0  0  0  0  0  0  0  0  0
  -22.0660   -9.0200   20.3990 C   0  0  0  0  0  3  0  0  0  0  0  0
  -22.7870  -10.2130   20.2220 C   0  0  0  0  0  3  0  0  0  0  0  0
  -21.7250   -6.9230   21.4420 O   0  0  0  0  0  0  0  0  0  0  0  0
  -21.6600   -6.1940   22.6020 C   0  0  0  0  0  0  0  0  0  0  0  0
  -21.1850   -6.7510   23.8090 C   0  0  0  0  0  3  0  0  0  0  0  0
  -21.0660   -5.9450   24.9590 C   0  0  0  0  0  3  0  0  0  0  0  0
  -21.4130   -4.5820   24.9030 C   0  0  0  0  0  0  0  0  0  0  0  0
  -21.8820   -4.0240   23.7010 C   0  0  0  0  0  3  0  0  0  0  0  0
  -22.0020   -4.8270   22.5530 C   0  0  0  0  0  0  0  0  0  0  0  0
  -22.4330   -4.2780   21.3930 F   0  0  0  0  0  0  0  0  0  0  0  0
  -21.2930   -3.8060   26.0060 F   0  0  0  0  0  0  0  0  0  0  0  0
  -22.7660  -13.5670   21.0860 C   0  0  0  0  0  0  0  0  0  0  0  0
  -22.0280  -12.8690   21.9420 N   0  0  0  0  0  0  0  0  0  0  0  0
  -22.3300  -14.5850   20.5540 O   0  0  0  0  0  0  0  0  0  0  0  0
  -22.3890  -12.0440   22.3940 H   0  0  0  0  0  0  0  0  0  0  0  0
  -21.0870  -13.1740   22.1520 H   0  0  0  0  0  0  0  0  0  0  0  0
  -25.3790  -15.2520   20.2790 N   0  0  0  0  0  0  0  0  0  0  0  0
  -24.5910  -15.8880   20.3360 H   0  0  0  0  0  0  0  0  0  0  0  0
  -26.1960  -15.6770   19.8650 H   0  0  0  0  0  0  0  0  0  0  0  0
  -28.8260  -22.6780   20.5910 C   0  0  0  0  0  3  0  0  0  0  0  0
  -28.0750  -24.2090   19.9480 C   0  0  0  0  0  3  0  0  0  0  0  0
  -28.1800  -25.8380   20.3140 O   0  0  0  0  0  0  0  0  0  0  0  0
  -24.6040  -31.8520   23.2180 C   0  0  0  0  0  0  0  0  0  0  0  0
  -27.1700  -26.9450   20.2120 C   0  0  0  0  0  0  0  0  0  0  0  0
  -23.4190  -30.4550   21.5780 C   0  0  0  0  0  3  0  0  0  0  0  0
  -24.8750  -28.8450   20.1570 C   0  0  0  0  0  0  0  0  0  0  0  0
  -25.9900  -30.6530   21.4430 C   0  0  0  0  0  2  0  0  0  0  0  0
  -26.0620  -29.2410   20.7880 C   0  0  0  0  0  0  0  0  0  0  0  0
  -27.2000  -28.3130   20.7880 C   0  0  0  0  0  3  0  0  0  0  0  0
  -25.9560  -26.7090   19.5250 C   0  0  0  0  0  3  0  0  0  0  0  0
  -24.8520  -27.6050   19.5000 C   0  0  0  0  0  3  0  0  0  0  0  0
  -23.6530  -29.7660   20.2060 C   0  0  0  0  0  2  0  0  0  0  0  0
  -24.6930  -31.0150   22.1340 N   0  0  0  0  0  0  0  0  0  0  0  0
  -23.5130  -32.1460   23.7340 O   0  0  0  0  0  0  0  0  0  0  0  0
  -22.7190  -29.4650   22.5450 C   0  0  0  0  0  0  0  0  0  0  0  0
  -21.3880  -29.3070   22.4180 N   0  0  0  0  0  0  0  0  0  0  0  0
  -23.3820  -28.8310   23.3710 O   0  0  0  0  0  0  0  0  0  0  0  0
  -20.9090  -29.8680   21.7270 H   0  0  0  0  0  0  0  0  0  0  0  0
  -18.0000  -28.1040   22.9380 C   0  0  0  0  0  0  0  0  0  0  0  0
  -20.5630  -28.3630   23.1780 C   0  0  0  0  0  3  0  0  0  0  0  0
  -20.6630  -26.9400   22.5750 C   0  0  0  0  0  2  0  0  0  0  0  0
  -19.5320  -26.6170   21.5890 C   0  0  0  0  0  2  0  0  0  0  0  0
  -18.1680  -26.7510   22.2670 C   0  0  0  0  0  2  0  0  0  0  0  0
  -19.1240  -28.8640   23.3570 C   0  0  0  0  0  0  0  0  0  0  0  0
  -18.9090  -30.1220   23.9620 C   0  0  0  0  0  3  0  0  0  0  0  0
  -17.6040  -30.6200   24.1430 C   0  0  0  0  0  3  0  0  0  0  0  0
  -16.4960  -29.8610   23.7290 C   0  0  0  0  0  3  0  0  0  0  0  0
  -16.6940  -28.6040   23.1320 C   0  0  0  0  0  3  0  0  0  0  0  0
  -25.8680  -32.5000   23.8580 C   0  0  0  0  0  3  0  0  0  0  0  0
  -25.5510  -33.9050   24.1770 N   0  0  0  0  0  0  0  0  0  0  0  0
  -25.8960  -34.9580   23.4250 C   0  0  0  0  0  0  0  0  0  0  0  0
  -26.5750  -34.8480   22.4020 O   0  0  0  0  0  0  0  0  0  0  0  0
  -24.9500  -34.0620   24.9720 H   0  0  0  0  0  0  0  0  0  0  0  0
  -24.1860  -36.7690   23.0490 C   0  0  0  0  0  1  0  0  0  0  0  0
  -25.4140  -36.3540   23.8760 C   0  0  0  0  0  3  0  0  0  0  0  0
  -27.5410  -37.2320   24.7350 C   0  0  0  0  0  1  0  0  0  0  0  0
  -26.4550  -37.4010   23.7730 N   0  0  0  0  0  0  0  0  0  0  0  0
  -26.0530  -38.3250   23.9060 H   0  0  0  0  0  0  0  0  0  0  0  0
  -26.3550  -31.7480   25.1570 C   0  0  1  0  0  0  0  0  0  0  0  0
  -25.2430  -31.5340   26.2120 C   0  0  0  0  0  1  0  0  0  0  0  0
  -26.9350  -30.3610   24.8020 C   0  0  0  0  0  1  0  0  0  0  0  0
  -27.4990  -32.5470   25.8230 C   0  0  0  0  0  1  0  0  0  0  0  0
  1  2  1  0
  1  4  1  0
  2  5  1  0
  4 15  1  0
  4  3  1  0
  5 45  1  0
  5  3  1  0
  5  6  1  6
  7 13  1  0
  7 15  1  0
  8 13  1  0
  9 10  1  0
  9  8  1  0
 11 10  1  0
 11 20  1  0
 11 12  1  0
 13 12  1  0
 14  7  2  0
 15 16  1  0
 17 18  2  0
 18 37  1  0
 19 18  1  0
 19 22  1  0
 20 17  1  0
 20 21  1  0
 21 19  2  0
 22 23  1  0
 23 24  2  0
 25 28  1  0
 25 24  1  0
 26 25  2  0
 27 26  1  0
 27 22  2  0
 28 29  1  0
 29 30  1  0
 30 31  2  0
 32 31  1  0
 32 36  1  0
 33 32  2  0
 34 29  2  0
 34 33  1  0
 35 34  1  0
 37 38  1  0
 38 41  1  0
 38 40  1  0
 39 37  2  0
 42 43  1  0
 42 17  1  0
 44 42  1  0
 46 47  1  0
 46 45  2  0
 48 59  2  0
 49 47  1  0
 49 54  1  0
 50 58  1  0
 50 60  1  0
 51 57  1  0
 51 53  1  0
 52 58  1  0
 53 54  2  0
 53 52  1  0
 55 49  2  0
 56 55  1  0
 56 51  2  0
 57 50  1  0
 58 48  1  0
 60 62  2  0
 61 60  1  0
 63 61  1  0
 64 73  2  0
 64 69  1  0
 65 61  1  0
 65 69  1  0
 66 65  1  0
 67 68  1  0
 67 66  1  0
 68 64  1  0
 69 70  2  0
 70 71  1  0
 72 71  2  0
 73 72  1  0
 74 48  1  0
 74 75  1  0
 74 84  1  0
 75 78  1  0
 76 80  1  0
 76 75  1  0
 77 76  2  0
 80 79  1  0
 82 80  1  0
 82 83  1  0
 82 81  1  0
 84 87  1  1
 84 85  1  0
 86 84  1  0
M  ISO  4   7 100  15 100  46 101  47 101
M  END
>  <TORSDO>  (44) 
F 18

>  <SCORE>  (44) 
-16.491

>  <name>  (44) 
44

>  <ligand_id>  (44) 
44

>  <original_smiles>  (44) 
[H]c1c([H])c([H])c2c(c1[H])C([H])([H])C([H])([H])C([H])([H])C2([H])N([H])C(=O)C1([H])N(C(=O)C([H])(N([H])C(=O)C([H])(N([H])C([H])([H])[H])C([H])([H])[H])C(C([H])([H])[H])(C([H])([H])[H])C([H])([H])[H])C([H])([H])c2c([H])c(OC([H])([H])C([H])([H])[N+]3([H])C([H])([H])C([H])([H])C([H])(N([H])C(=O)N4C([H])([H])C([H])([H])C([H])([H])C([H])(n5nc(-c6c([H])c([H])c(Oc7c([H])c([H])c(F)c([H])c7F)c([H])c6[H])c(C(=O)N([H])[H])c5N([H])[H])C4([H])[H])C3([H])[H])c([H])c([H])c2C1([H])[H]

>  <smiles>  (44) 
[H]c1c([H])c([H])c2c(c1[H])C([H])([H])C([H])([H])C([H])([H])C2([H])N([H])C(=O)C1([H])N(C(=O)C([H])(N([H])C(=O)C([H])(N([H])C([H])([H])[H])C([H])([H])[H])C(C([H])([H])[H])(C([H])([H])[H])C([H])([H])[H])C([H])([H])c2c([H])c(OC([H])([H])C([H])([H])[N+]3([H])C([H])([H])C([H])([H])C([H])(N([H])C(=O)N4C([H])([H])C([H])([H])C([H])([H])C([H])(n5nc(-c6c([H])c([H])c(Oc7c([H])c([H])c(F)c([H])c7F)c([H])c6[H])c(C(=O)N([H])[H])c5N([H])[H])C4([H])[H])C3([H])[H])c([H])c([H])c2C1([H])[H]

$$$$
45:0:0
     RDKit          3D

108111  0  0  1  0  0  0  0  0999 V2000
  -27.4290  -17.8290   20.0760 C   0  0  0  0  0  2  0  0  0  0  0  0
  -27.7370  -19.5190   19.5260 N   0  0  0  0  0  0  0  0  0  0  0  0
  -27.9540  -19.3270   18.0640 C   0  0  0  0  0  2  0  0  0  0  0  0
  -29.4320  -19.4420   17.5110 C   0  0  0  0  0  3  0  0  0  0  0  0
  -29.8820  -20.8430   17.4100 N   0  0  0  0  0  4  0  0  0  0  0  0
  -29.3670  -21.3210   16.6920 H   0  0  0  0  0  0  0  0  0  0  0  0
  -30.8560  -20.8750   17.1690 H   0  0  0  0  0  0  0  0  0  0  0  0
  -29.7530  -21.3420   18.2760 H   0  0  0  0  0  0  0  0  0  0  0  0
  -29.0490  -19.4570   14.9400 C   0  0  0  0  0  1  0  0  0  0  0  0
  -31.0450  -18.2050   15.7780 C   0  0  0  0  0  1  0  0  0  0  0  0
  -29.6160  -18.6900   16.1470 C   0  0  0  0  0  3  0  0  0  0  0  0
  -27.3910  -21.3150   19.6080 C   0  0  0  0  0  1  0  0  0  0  0  0
  -27.3090  -23.1710   20.4460 C   0  0  0  0  0  1  0  0  0  0  0  0
  -27.6980  -24.9810   20.3850 O   0  0  0  0  0  0  0  0  0  0  0  0
  -24.5900  -31.7790   23.0880 C   0  0  0  0  0  0  0  0  0  0  0  0
  -26.9250  -26.3630   20.3740 C   0  0  0  0  0  0  0  0  0  0  0  0
  -23.4240  -30.3080   21.5200 C   0  0  0  0  0  3  0  0  0  0  0  0
  -24.8450  -28.5790   20.1960 C   0  0  0  0  0  0  0  0  0  0  0  0
  -26.0110  -30.3670   21.4470 C   0  0  0  0  0  2  0  0  0  0  0  0
  -26.0460  -28.8880   20.8500 C   0  0  0  0  0  0  0  0  0  0  0  0
  -27.0900  -27.8010   20.9000 C   0  0  0  0  0  3  0  0  0  0  0  0
  -25.7370  -26.3230   19.6440 C   0  0  0  0  0  3  0  0  0  0  0  0
  -24.7440  -27.3300   19.5690 C   0  0  0  0  0  3  0  0  0  0  0  0
  -23.6780  -29.5710   20.1800 C   0  0  0  0  0  2  0  0  0  0  0  0
  -24.7040  -30.8580   22.0670 N   0  0  0  0  0  0  0  0  0  0  0  0
  -23.4840  -32.1090   23.5560 O   0  0  0  0  0  0  0  0  0  0  0  0
  -22.6970  -29.3670   22.5210 C   0  0  0  0  0  0  0  0  0  0  0  0
  -21.3750  -29.1700   22.3600 N   0  0  0  0  0  0  0  0  0  0  0  0
  -23.3350  -28.8200   23.4230 O   0  0  0  0  0  0  0  0  0  0  0  0
  -20.9030  -29.6630   21.6150 H   0  0  0  0  0  0  0  0  0  0  0  0
  -18.0130  -27.8740   22.8200 C   0  0  0  0  0  0  0  0  0  0  0  0
  -20.5470  -28.2640   23.1680 C   0  0  0  0  0  3  0  0  0  0  0  0
  -20.7250  -26.7960   22.7160 C   0  0  0  0  0  2  0  0  0  0  0  0
  -19.6840  -26.3530   21.6830 C   0  0  0  0  0  2  0  0  0  0  0  0
  -18.2700  -26.4890   22.2540 C   0  0  0  0  0  2  0  0  0  0  0  0
  -19.0810  -28.7150   23.2340 C   0  0  0  0  0  0  0  0  0  0  0  0
  -18.7850  -30.0040   23.7250 C   0  0  0  0  0  3  0  0  0  0  0  0
  -17.4540  -30.4580   23.8030 C   0  0  0  0  0  3  0  0  0  0  0  0
  -16.4010  -29.6180   23.4020 C   0  0  0  0  0  3  0  0  0  0  0  0
  -16.6810  -28.3280   22.9160 C   0  0  0  0  0  3  0  0  0  0  0  0
  -25.8330  -32.4780   23.7120 C   0  0  0  0  0  3  0  0  0  0  0  0
  -26.3750  -31.7360   24.9960 C   0  0  1  0  0  0  0  0  0  0  0  0
  -25.2800  -31.4090   26.0390 C   0  0  0  0  0  1  0  0  0  0  0  0
  -27.0680  -30.4080   24.6210 C   0  0  0  0  0  1  0  0  0  0  0  0
  -27.4470  -32.6080   25.6910 C   0  0  0  0  0  1  0  0  0  0  0  0
  -25.4570  -33.8630   24.0620 N   0  0  0  0  0  0  0  0  0  0  0  0
  -25.7520  -34.9550   23.3430 C   0  0  0  0  0  0  0  0  0  0  0  0
  -26.4280  -34.9050   22.3130 O   0  0  0  0  0  0  0  0  0  0  0  0
  -24.8530  -33.9730   24.8640 H   0  0  0  0  0  0  0  0  0  0  0  0
  -23.9570  -36.7040   23.0580 C   0  0  0  0  0  1  0  0  0  0  0  0
  -25.2210  -36.3170   23.8440 C   0  0  0  0  0  3  0  0  0  0  0  0
  -27.3330  -37.2640   24.6690 C   0  0  0  0  0  1  0  0  0  0  0  0
  -26.2110  -37.4120   23.7470 N   0  0  0  0  0  0  0  0  0  0  0  0
  -25.7710  -38.3100   23.9240 H   0  0  0  0  0  0  0  0  0  0  0  0
  -27.3440  -15.8640   19.4300 C   0  0  0  0  0  1  0  0  0  0  0  0
  -30.2460  -14.7380   19.1860 C   0  0  0  0  0  0  0  0  0  0  0  0
  -30.5920  -12.4790   18.1470 C   0  0  0  0  0  2  0  0  0  0  0  0
  -29.3360  -12.3650   17.2630 C   0  0  0  0  0  2  0  0  0  0  0  0
  -28.1510  -12.0020   18.1620 C   0  0  0  0  0  2  0  0  0  0  0  0
  -28.2440  -12.8730   19.4690 C   0  0  0  0  0  3  0  0  0  0  0  0
  -29.4710  -12.7620   20.2460 C   0  0  0  0  0  2  0  0  0  0  0  0
  -30.2500  -13.3870   19.2680 N   0  0  0  0  0  0  0  0  0  0  0  0
  -31.3980  -15.1470   18.9230 O   0  0  0  0  0  0  0  0  0  0  0  0
  -29.0270  -15.6020   19.2710 N   0  0  0  0  0  0  0  0  0  0  0  0
  -29.4130  -16.5280   19.1760 H   0  0  0  0  0  0  0  0  0  0  0  0
  -26.1510  -14.1060   21.6160 C   0  0  0  0  0  2  0  0  0  0  0  0
  -24.5820  -13.4420   21.2970 C   0  0  0  0  0  3  0  0  0  0  0  0
  -24.6580  -12.0280   20.2900 C   0  0  0  0  0  3  0  0  0  0  0  0
  -27.3030  -12.9050   20.4500 N   0  0  0  0  0  2  0  0  0  0  0  0
  -26.1520  -11.8200   19.7390 N   0  0  0  0  0  2  0  0  0  0  0  0
  -24.1240  -10.6300   20.8140 C   0  0  0  0  0  0  0  0  0  0  0  0
  -24.7110   -9.7250   21.8010 C   0  0  0  0  0  3  0  0  0  0  0  0
  -24.1320   -8.4580   22.1780 C   0  0  0  0  0  3  0  0  0  0  0  0
  -22.9140   -8.0290   21.5920 C   0  0  0  0  0  0  0  0  0  0  0  0
  -22.3170   -8.9150   20.6760 C   0  0  0  0  0  3  0  0  0  0  0  0
  -22.8900  -10.1610   20.3200 C   0  0  0  0  0  3  0  0  0  0  0  0
  -22.2880   -6.7930   21.7320 O   0  0  0  0  0  0  0  0  0  0  0  0
  -22.0770   -6.1280   22.9240 C   0  0  0  0  0  0  0  0  0  0  0  0
  -21.4040   -6.7260   24.0080 C   0  0  0  0  0  3  0  0  0  0  0  0
  -21.1430   -5.9840   25.1790 C   0  0  0  0  0  3  0  0  0  0  0  0
  -21.5440   -4.6350   25.2700 C   0  0  0  0  0  0  0  0  0  0  0  0
  -22.1910   -4.0270   24.1810 C   0  0  0  0  0  3  0  0  0  0  0  0
  -22.4460   -4.7630   23.0110 C   0  0  0  0  0  0  0  0  0  0  0  0
  -23.0380   -4.1460   21.9580 F   0  0  0  0  0  0  0  0  0  0  0  0
  -21.3050   -3.9300   26.3970 F   0  0  0  0  0  0  0  0  0  0  0  0
  -23.2870  -13.7100   21.9330 C   0  0  0  0  0  3  0  0  0  0  0  0
  -22.8720  -12.8260   22.8330 N   0  0  0  0  0  0  0  0  0  0  0  0
  -22.6000  -14.6180   21.5110 O   0  0  0  0  0  0  0  0  0  0  0  0
  -23.4630  -12.0630   23.1300 H   0  0  0  0  0  0  0  0  0  0  0  0
  -21.9730  -12.9520   23.2770 H   0  0  0  0  0  0  0  0  0  0  0  0
  -26.3360  -15.4240   21.8670 N   0  0  0  0  0  0  0  0  0  0  0  0
  -25.6850  -15.9780   22.4050 H   0  0  0  0  0  0  0  0  0  0  0  0
  -27.2410  -15.8710   21.7870 H   0  0  0  0  0  0  0  0  0  0  0  0
  -25.8720  -14.2320   19.4240 C   0  0  0  0  0  1  0  0  0  0  0  0
  -24.5500  -15.1050   19.4230 C   0  0  0  0  0  2  0  0  0  0  0  0
  -23.2550  -14.4530   18.8970 C   0  0  0  0  0  2  0  0  0  0  0  0
  -22.0760  -14.9210   19.6450 N   0  0  0  0  0  0  0  0  0  0  0  0
  -22.2140  -14.7590   20.6330 H   0  0  0  0  0  0  0  0  0  0  0  0
  -21.2610  -14.4260   19.3380 H   0  0  0  0  0  0  0  0  0  0  0  0
  -21.9170  -15.9040   19.5040 H   0  0  0  0  0  0  0  0  0  0  0  0
  -28.6840  -17.9480   21.0160 C   0  0  0  0  0  2  0  0  0  0  0  0
  -29.3600  -16.7310   21.6790 C   0  0  0  0  0  2  0  0  0  0  0  0
  -30.7960  -17.0870   22.1450 C   0  0  0  0  0  2  0  0  0  0  0  0
  -31.9130  -16.1570   21.6150 C   0  0  0  0  0  2  0  0  0  0  0  0
  -32.8220  -16.8400   20.6680 N   0  0  0  0  0  4  0  0  0  0  0  0
  -32.3780  -17.0800   19.7900 H   0  0  0  0  0  0  0  0  0  0  0  0
  -33.6000  -16.2440   20.4590 H   0  0  0  0  0  0  0  0  0  0  0  0
  -33.1990  -17.6750   21.0760 H   0  0  0  0  0  0  0  0  0  0  0  0
  1101  1  0
  2 12  1  0
  2  1  1  0
  3  2  1  0
  4  3  1  0
  5  4  1  0
  5  8  1  0
  6  5  1  0
  7  5  1  0
  9 11  1  0
 10 11  1  0
 11  4  1  0
 14 13  1  0
 15 26  2  0
 16 14  1  0
 16 21  1  0
 17 25  1  0
 17 27  1  0
 18 20  1  0
 19 25  1  0
 20 21  2  0
 20 19  1  0
 22 16  2  0
 23 22  1  0
 23 18  2  0
 24 18  1  0
 24 17  1  0
 25 15  1  0
 27 29  2  0
 28 27  1  0
 30 28  1  0
 31 40  2  0
 31 36  1  0
 32 28  1  0
 32 36  1  0
 33 32  1  0
 34 35  1  0
 34 33  1  0
 35 31  1  0
 36 37  2  0
 37 38  1  0
 39 38  2  0
 40 39  1  0
 41 15  1  0
 41 46  1  0
 41 42  1  0
 42 45  1  1
 42 43  1  0
 44 42  1  0
 46 49  1  0
 47 51  1  0
 47 46  1  0
 48 47  2  0
 51 50  1  0
 53 51  1  0
 53 54  1  0
 53 52  1  0
 56 62  1  0
 56 64  1  0
 57 62  1  0
 58 57  1  0
 58 59  1  0
 59 60  1  0
 60 61  1  0
 60 69  1  0
 62 61  1  0
 63 56  2  0
 64 55  1  0
 65 64  1  0
 66 91  1  0
 67 66  1  0
 67 86  1  0
 68 70  1  0
 68 71  1  0
 68 67  1  0
 70 69  1  0
 71 72  1  0
 72 73  2  0
 74 77  1  0
 74 73  1  0
 75 74  2  0
 76 75  1  0
 76 71  2  0
 77 78  1  0
 78 83  2  0
 78 79  1  0
 79 80  2  0
 80 81  1  0
 81 85  1  0
 82 81  2  0
 83 82  1  0
 84 83  1  0
 86 88  1  0
 86 87  1  0
 87 89  1  0
 87 90  1  0
 91 92  1  0
 93 91  1  0
 95 94  1  0
 96 95  1  0
 96 97  1  0
 98 88  1  0
 99 97  1  0
100 97  1  0
101102  1  0
102103  1  0
104103  1  0
105108  1  0
105104  1  0
106105  1  0
107105  1  0
M  ISO  4  13 101  14 101  56 100  64 100
M  END
>  <TORSDO>  (45) 
F 33

>  <SCORE>  (45) 
-4.554

>  <name>  (45) 
45

>  <ligand_id>  (45) 
45

>  <original_smiles>  (45) 
[H]c1c([H])c([H])c2c(c1[H])C([H])([H])C([H])([H])C([H])([H])C2([H])N([H])C(=O)C1([H])N(C(=O)C([H])(N([H])C(=O)C([H])(N([H])C([H])([H])[H])C([H])([H])[H])C(C([H])([H])[H])(C([H])([H])[H])C([H])([H])[H])C([H])([H])c2c([H])c(OC([H])([H])C([H])([H])N(C([H])([H])C([H])(C([H])(C([H])([H])[H])C([H])([H])[H])[N+]([H])([H])[H])C([H])(C([H])([H])C([H])([H])C([H])([H])C([H])([H])[N+]([H])([H])[H])C([H])(N([H])C(=O)N3C([H])([H])C([H])([H])C([H])([H])C([H])(n4nc(-c5c([H])c([H])c(Oc6c([H])c([H])c(F)c([H])c6F)c([H])c5[H])c(C(=O)N([H])[H])c4N([H])[H])C3([H])[H])C([H])([H])C([H])([H])C([H])([H])[N+]([H])([H])[H])c([H])c([H])c2C1([H])[H]

>  <smiles>  (45) 
[H]c1c([H])c([H])c2c(c1[H])C([H])([H])C([H])([H])C([H])([H])C2([H])N([H])C(=O)C1([H])N(C(=O)C([H])(N([H])C(=O)C([H])(N([H])C([H])([H])[H])C([H])([H])[H])C(C([H])([H])[H])(C([H])([H])[H])C([H])([H])[H])C([H])([H])c2c([H])c(OC([H])([H])C([H])([H])N(C([H])([H])C([H])(C([H])(C([H])([H])[H])C([H])([H])[H])[N+]([H])([H])[H])C([H])(C([H])([H])C([H])([H])C([H])([H])C([H])([H])[N+]([H])([H])[H])C([H])(N([H])C(=O)N3C([H])([H])C([H])([H])C([H])([H])C([H])(n4nc(-c5c([H])c([H])c(Oc6c([H])c([H])c(F)c([H])c6F)c([H])c5[H])c(C(=O)N([H])[H])c4N([H])[H])C3([H])[H])C([H])([H])C([H])([H])C([H])([H])[N+]([H])([H])[H])c([H])c([H])c2C1([H])[H]

$$$$
46:0:0
     RDKit          3D

 92100  0  0  1  0  0  0  0  0999 V2000
  -29.4290  -22.8550   19.8150 C   0  0  0  0  0  3  0  0  0  0  0  0
  -29.0760  -21.1070   19.8800 C   0  0  0  0  0  2  0  0  0  0  0  0
  -29.9690  -19.6440   19.5310 C   0  0  0  0  0  0  0  0  0  0  0  0
  -30.9550  -19.7820   18.8060 O   0  0  0  0  0  0  0  0  0  0  0  0
  -30.7950  -15.2400   19.4900 C   0  0  0  0  0  0  0  0  0  0  0  0
  -30.7700  -12.8550   18.4250 C   0  0  0  0  0  2  0  0  0  0  0  0
  -29.6160  -12.6760   17.3940 C   0  0  0  0  0  2  0  0  0  0  0  0
  -28.2610  -12.3570   18.0620 C   0  0  0  0  0  2  0  0  0  0  0  0
  -28.0450  -13.1940   19.3450 C   0  0  0  0  0  3  0  0  0  0  0  0
  -29.3080  -13.1310   20.2290 C   0  0  0  0  0  2  0  0  0  0  0  0
  -30.3590  -13.8660   19.4760 N   0  0  0  0  0  0  0  0  0  0  0  0
  -31.8440  -15.3990   18.8430 O   0  0  0  0  0  0  0  0  0  0  0  0
  -28.7890  -17.0630   22.1660 C   0  0  0  0  0  2  0  0  0  0  0  0
  -29.3770  -18.3090   21.6090 C   0  0  0  0  0  2  0  0  0  0  0  0
  -29.4590  -15.9450   21.3840 C   0  0  0  0  0  2  0  0  0  0  0  0
  -29.5670  -18.0210   20.1190 C   0  0  0  0  0  3  0  0  0  0  0  0
  -30.0450  -16.3890   20.0940 N   0  0  0  0  0  0  0  0  0  0  0  0
  -25.9070  -13.6840   20.6600 C   0  0  0  0  0  0  0  0  0  0  0  0
  -24.8990  -12.8800   21.1180 C   0  0  0  0  0  0  0  0  0  0  0  0
  -25.2580  -11.5480   20.7450 C   0  0  0  0  0  0  0  0  0  0  0  0
  -26.8210  -12.8390   20.0550 N   0  0  0  0  0  0  0  0  0  0  0  0
  -26.4500  -11.5370   20.1550 N   0  0  0  0  0  0  0  0  0  0  0  0
  -24.5060  -10.2920   20.8680 C   0  0  0  0  0  0  0  0  0  0  0  0
  -24.9780   -9.2220   21.6600 C   0  0  0  0  0  3  0  0  0  0  0  0
  -24.2270   -8.0340   21.7790 C   0  0  0  0  0  3  0  0  0  0  0  0
  -22.9880   -7.9060   21.1060 C   0  0  0  0  0  0  0  0  0  0  0  0
  -22.5320   -8.9650   20.3010 C   0  0  0  0  0  3  0  0  0  0  0  0
  -23.2840  -10.1470   20.1790 C   0  0  0  0  0  3  0  0  0  0  0  0
  -22.2040   -6.7770   21.1400 O   0  0  0  0  0  0  0  0  0  0  0  0
  -22.1240   -5.9900   22.2620 C   0  0  0  0  0  0  0  0  0  0  0  0
  -21.6980   -6.5090   23.5040 C   0  0  0  0  0  3  0  0  0  0  0  0
  -21.5590   -5.6520   24.6140 C   0  0  0  0  0  3  0  0  0  0  0  0
  -21.8370   -4.2790   24.4830 C   0  0  0  0  0  0  0  0  0  0  0  0
  -22.2550   -3.7600   23.2460 C   0  0  0  0  0  3  0  0  0  0  0  0
  -22.3940   -4.6130   22.1370 C   0  0  0  0  0  0  0  0  0  0  0  0
  -22.7750   -4.1030   20.9410 F   0  0  0  0  0  0  0  0  0  0  0  0
  -21.6960   -3.4550   25.5490 F   0  0  0  0  0  0  0  0  0  0  0  0
  -23.6270  -13.3340   21.7720 C   0  0  0  0  0  0  0  0  0  0  0  0
  -23.0780  -12.5270   22.6700 N   0  0  0  0  0  0  0  0  0  0  0  0
  -23.1390  -14.4360   21.5220 O   0  0  0  0  0  0  0  0  0  0  0  0
  -23.4910  -11.6330   22.8940 H   0  0  0  0  0  0  0  0  0  0  0  0
  -22.2310  -12.8080   23.1430 H   0  0  0  0  0  0  0  0  0  0  0  0
  -26.1040  -15.0610   20.6880 N   0  0  0  0  0  0  0  0  0  0  0  0
  -25.3990  -15.6900   21.0540 H   0  0  0  0  0  0  0  0  0  0  0  0
  -26.8600  -15.5460   20.2210 H   0  0  0  0  0  0  0  0  0  0  0  0
  -30.3070  -23.1050   18.5680 C   0  0  0  0  0  2  0  0  0  0  0  0
  -29.6120  -22.8310   17.2950 N   0  0  0  0  0  4  0  0  0  0  0  0
  -29.2210  -21.9070   17.2760 H   0  0  0  0  0  0  0  0  0  0  0  0
  -30.2670  -22.8970   16.5350 H   0  0  0  0  0  0  0  0  0  0  0  0
  -28.8800  -23.4980   17.1240 H   0  0  0  0  0  0  0  0  0  0  0  0
  -28.3570  -24.2700   20.0070 C   0  0  0  0  0  2  0  0  0  0  0  0
  -28.5830  -25.8790   20.1510 O   0  0  0  0  0  0  0  0  0  0  0  0
  -24.9120  -31.7110   23.1900 C   0  0  0  0  0  0  0  0  0  0  0  0
  -27.5410  -26.9350   20.1200 C   0  0  0  0  0  0  0  0  0  0  0  0
  -23.7490  -30.3560   21.4950 C   0  0  0  0  0  3  0  0  0  0  0  0
  -25.2270  -28.7810   20.0750 C   0  0  0  0  0  0  0  0  0  0  0  0
  -26.3170  -30.5770   21.4060 C   0  0  0  0  0  2  0  0  0  0  0  0
  -26.4010  -29.1840   20.7240 C   0  0  0  0  0  0  0  0  0  0  0  0
  -27.5530  -28.2820   20.7210 C   0  0  0  0  0  3  0  0  0  0  0  0
  -26.3330  -26.6700   19.4360 C   0  0  0  0  0  3  0  0  0  0  0  0
  -25.2150  -27.5430   19.4140 C   0  0  0  0  0  3  0  0  0  0  0  0
  -24.0070  -29.6990   20.1110 C   0  0  0  0  0  2  0  0  0  0  0  0
  -25.0130  -30.9060   22.0850 N   0  0  0  0  0  0  0  0  0  0  0  0
  -23.8130  -31.9930   23.6930 O   0  0  0  0  0  0  0  0  0  0  0  0
  -23.0310  -29.3420   22.4220 C   0  0  0  0  0  0  0  0  0  0  0  0
  -21.7010  -29.2010   22.2740 N   0  0  0  0  0  0  0  0  0  0  0  0
  -23.6780  -28.6830   23.2390 O   0  0  0  0  0  0  0  0  0  0  0  0
  -21.2350  -29.7830   21.5930 H   0  0  0  0  0  0  0  0  0  0  0  0
  -18.2940  -28.0320   22.7040 C   0  0  0  0  0  0  0  0  0  0  0  0
  -20.8540  -28.2550   23.0070 C   0  0  0  0  0  3  0  0  0  0  0  0
  -20.9430  -26.8370   22.3940 C   0  0  0  0  0  2  0  0  0  0  0  0
  -19.8500  -26.5590   21.3570 C   0  0  0  0  0  2  0  0  0  0  0  0
  -18.4620  -26.7020   21.9870 C   0  0  0  0  0  2  0  0  0  0  0  0
  -19.4170  -28.7680   23.1690 C   0  0  0  0  0  0  0  0  0  0  0  0
  -19.2040  -30.0110   23.8010 C   0  0  0  0  0  3  0  0  0  0  0  0
  -17.9040  -30.5210   23.9710 C   0  0  0  0  0  3  0  0  0  0  0  0
  -16.7950  -29.7830   23.5210 C   0  0  0  0  0  3  0  0  0  0  0  0
  -16.9910  -28.5380   22.8940 C   0  0  0  0  0  3  0  0  0  0  0  0
  -26.1720  -32.3330   23.8680 C   0  0  0  0  0  3  0  0  0  0  0  0
  -25.8330  -33.7060   24.2820 N   0  0  0  0  0  0  0  0  0  0  0  0
  -26.1730  -34.8150   23.6110 C   0  0  0  0  0  0  0  0  0  0  0  0
  -26.8660  -34.7890   22.5900 O   0  0  0  0  0  0  0  0  0  0  0  0
  -25.2230  -33.7980   25.0800 H   0  0  0  0  0  0  0  0  0  0  0  0
  -24.4500  -36.6310   23.3360 C   0  0  0  0  0  1  0  0  0  0  0  0
  -25.6660  -36.1660   24.1540 C   0  0  0  0  0  3  0  0  0  0  0  0
  -27.7650  -36.9950   25.1240 C   0  0  0  0  0  1  0  0  0  0  0  0
  -26.6970  -37.2270   24.1540 N   0  0  0  0  0  0  0  0  0  0  0  0
  -26.2830  -38.1340   24.3500 H   0  0  0  0  0  0  0  0  0  0  0  0
  -26.6820  -31.5000   25.1080 C   0  0  1  0  0  0  0  0  0  0  0  0
  -25.5780  -31.1900   26.1470 C   0  0  0  0  0  1  0  0  0  0  0  0
  -27.2900  -30.1530   24.6570 C   0  0  0  0  0  1  0  0  0  0  0  0
  -27.8150  -32.2700   25.8260 C   0  0  0  0  0  1  0  0  0  0  0  0
  1 46  1  0
  1  2  1  0
  1 51  1  0
  3  2  1  0
  4  3  2  0
  5 17  1  0
  6 11  1  0
  7  8  1  0
  7  6  1  0
  9  8  1  0
  9 21  1  0
  9 10  1  0
 11  5  1  0
 11 10  1  0
 12  5  2  0
 14 13  1  0
 15 13  1  0
 16  3  1  0
 16 14  1  0
 17 16  1  0
 17 15  1  0
 18 43  1  0
 18 19  2  0
 19 38  1  0
 20 23  1  0
 20 19  1  0
 21 22  1  0
 21 18  1  0
 22 20  2  0
 23 24  1  0
 24 25  2  0
 26 29  1  0
 26 25  1  0
 27 26  2  0
 28 27  1  0
 28 23  2  0
 29 30  1  0
 30 31  1  0
 31 32  2  0
 33 32  1  0
 33 37  1  0
 34 33  2  0
 35 30  2  0
 35 34  1  0
 36 35  1  0
 38 39  1  0
 39 41  1  0
 39 42  1  0
 40 38  2  0
 43 44  1  0
 45 43  1  0
 47 46  1  0
 48 47  1  0
 49 47  1  0
 50 47  1  0
 51 52  1  0
 53 64  2  0
 54 52  1  0
 54 59  1  0
 55 63  1  0
 55 65  1  0
 56 62  1  0
 56 58  1  0
 57 63  1  0
 58 57  1  0
 59 58  2  0
 60 54  2  0
 61 60  1  0
 61 56  2  0
 62 55  1  0
 63 53  1  0
 65 67  2  0
 66 65  1  0
 68 66  1  0
 69 78  2  0
 69 74  1  0
 70 66  1  0
 70 74  1  0
 71 70  1  0
 72 73  1  0
 72 71  1  0
 73 69  1  0
 74 75  2  0
 75 76  1  0
 77 76  2  0
 78 77  1  0
 79 53  1  0
 79 80  1  0
 79 89  1  0
 80 83  1  0
 81 85  1  0
 81 80  1  0
 82 81  2  0
 85 84  1  0
 87 85  1  0
 87 88  1  0
 87 86  1  0
 89 92  1  1
 89 90  1  0
 91 89  1  0
M  ISO  4   5 100  17 100  51 101  52 101
M  END
>  <TORSDO>  (46) 
F 21

>  <SCORE>  (46) 
-9.209

>  <name>  (46) 
46

>  <ligand_id>  (46) 
46

>  <original_smiles>  (46) 
[H]c1c([H])c([H])c2c(c1[H])C([H])([H])C([H])([H])C([H])([H])C2([H])N([H])C(=O)C1([H])N(C(=O)C([H])(N([H])C(=O)C([H])(N([H])C([H])([H])[H])C([H])([H])[H])C(C([H])([H])[H])(C([H])([H])[H])C([H])([H])[H])C([H])([H])c2c([H])c(OC([H])([H])C([H])(C([H])([H])C(=O)C3([H])N(C(=O)N4C([H])([H])C([H])([H])C([H])([H])C([H])(n5nc(-c6c([H])c([H])c(Oc7c([H])c([H])c(F)c([H])c7F)c([H])c6[H])c(C(=O)N([H])[H])c5N([H])[H])C4([H])[H])C([H])([H])C([H])([H])C3([H])[H])C([H])([H])[N+]([H])([H])[H])c([H])c([H])c2C1([H])[H]

>  <smiles>  (46) 
[H]c1c([H])c([H])c2c(c1[H])C([H])([H])C([H])([H])C([H])([H])C2([H])N([H])C(=O)C1([H])N(C(=O)C([H])(N([H])C(=O)C([H])(N([H])C([H])([H])[H])C([H])([H])[H])C(C([H])([H])[H])(C([H])([H])[H])C([H])([H])[H])C([H])([H])c2c([H])c(OC([H])([H])C([H])(C([H])([H])C(=O)C3([H])N(C(=O)N4C([H])([H])C([H])([H])C([H])([H])C([H])(n5nc(-c6c([H])c([H])c(Oc7c([H])c([H])c(F)c([H])c7F)c([H])c6[H])c(C(=O)N([H])[H])c5N([H])[H])C4([H])[H])C([H])([H])C([H])([H])C3([H])[H])C([H])([H])[N+]([H])([H])[H])c([H])c([H])c2C1([H])[H]

$$$$
47:0:0
     RDKit          3D

 94102  0  0  1  0  0  0  0  0999 V2000
  -29.2380  -21.1050   20.1740 N   0  0  1  0  0  4  0  0  0  0  0  0
  -30.1350  -21.2660   19.7420 H   0  0  0  0  0  0  0  0  0  0  0  0
  -29.4600  -20.9390   21.6440 C   0  0  0  0  0  2  0  0  0  0  0  0
  -32.8140  -20.3890   23.4690 C   0  0  0  0  0  2  0  0  0  0  0  0
  -31.4300  -20.2830   24.1210 C   0  0  0  0  0  2  0  0  0  0  0  0
  -32.7070  -20.6950   21.9670 C   0  0  0  0  0  2  0  0  0  0  0  0
  -30.6040  -21.5550   23.8590 C   0  0  0  0  0  2  0  0  0  0  0  0
  -31.8580  -21.9530   21.7010 C   0  0  0  0  0  2  0  0  0  0  0  0
  -30.4580  -21.8920   22.3540 C   0  0  0  0  0  3  0  0  0  0  0  0
  -28.7330  -19.7500   19.6340 C   0  0  0  0  0  2  0  0  0  0  0  0
  -29.6730  -18.4330   19.5010 C   0  0  0  0  0  2  0  0  0  0  0  0
  -29.7870  -17.2700   20.6040 C   0  0  0  0  0  2  0  0  0  0  0  0
  -30.3540  -14.7450   19.9120 C   0  0  0  0  0  0  0  0  0  0  0  0
  -30.1680  -12.4550   18.9210 C   0  0  0  0  0  2  0  0  0  0  0  0
  -29.1160  -12.4580   17.7890 C   0  0  0  0  0  2  0  0  0  0  0  0
  -27.6980  -12.2360   18.3510 C   0  0  0  0  0  2  0  0  0  0  0  0
  -27.3940  -13.1410   19.5730 C   0  0  0  0  0  3  0  0  0  0  0  0
  -28.5480  -13.1060   20.6000 C   0  0  0  0  0  2  0  0  0  0  0  0
  -29.7770  -13.4970   19.8930 N   0  0  0  0  0  0  0  0  0  0  0  0
  -31.4910  -14.9270   19.4720 O   0  0  0  0  0  0  0  0  0  0  0  0
  -29.5420  -15.8010   20.2730 N   0  0  0  0  0  0  0  0  0  0  0  0
  -28.6160  -15.4870   20.5240 H   0  0  0  0  0  0  0  0  0  0  0  0
  -25.0850  -13.6730   20.5620 C   0  0  0  0  0  0  0  0  0  0  0  0
  -24.0690  -12.8700   21.0000 C   0  0  0  0  0  0  0  0  0  0  0  0
  -24.5380  -11.5260   20.8600 C   0  0  0  0  0  0  0  0  0  0  0  0
  -26.1070  -12.8180   20.1810 N   0  0  0  0  0  0  0  0  0  0  0  0
  -25.7910  -11.5190   20.4230 N   0  0  0  0  0  0  0  0  0  0  0  0
  -23.8450  -10.2470   21.0630 C   0  0  0  0  0  0  0  0  0  0  0  0
  -24.3410   -9.2720   21.9560 C   0  0  0  0  0  3  0  0  0  0  0  0
  -23.6440   -8.0580   22.1480 C   0  0  0  0  0  3  0  0  0  0  0  0
  -22.4410   -7.8120   21.4460 C   0  0  0  0  0  0  0  0  0  0  0  0
  -21.9650   -8.7770   20.5410 C   0  0  0  0  0  3  0  0  0  0  0  0
  -22.6600   -9.9810   20.3480 C   0  0  0  0  0  3  0  0  0  0  0  0
  -21.7110   -6.6520   21.5500 O   0  0  0  0  0  0  0  0  0  0  0  0
  -21.7140   -5.9010   22.6970 C   0  0  0  0  0  0  0  0  0  0  0  0
  -21.2250   -6.4100   23.9220 C   0  0  0  0  0  3  0  0  0  0  0  0
  -21.1800   -5.5800   25.0600 C   0  0  0  0  0  3  0  0  0  0  0  0
  -21.6130   -4.2420   24.9760 C   0  0  0  0  0  0  0  0  0  0  0  0
  -22.0940   -3.7330   23.7570 C   0  0  0  0  0  3  0  0  0  0  0  0
  -22.1410   -4.5600   22.6200 C   0  0  0  0  0  0  0  0  0  0  0  0
  -22.5850   -4.0570   21.4430 F   0  0  0  0  0  0  0  0  0  0  0  0
  -21.5640   -3.4430   26.0680 F   0  0  0  0  0  0  0  0  0  0  0  0
  -22.7020  -13.3150   21.4330 C   0  0  0  0  0  0  0  0  0  0  0  0
  -22.0670  -12.5660   22.3270 N   0  0  0  0  0  0  0  0  0  0  0  0
  -22.2070  -14.3590   21.0120 O   0  0  0  0  0  0  0  0  0  0  0  0
  -22.4810  -11.7170   22.6840 H   0  0  0  0  0  0  0  0  0  0  0  0
  -21.1550  -12.8440   22.6610 H   0  0  0  0  0  0  0  0  0  0  0  0
  -25.2160  -15.0530   20.4320 N   0  0  0  0  0  0  0  0  0  0  0  0
  -24.4490  -15.6820   20.6450 H   0  0  0  0  0  0  0  0  0  0  0  0
  -26.0070  -15.5220   20.0110 H   0  0  0  0  0  0  0  0  0  0  0  0
  -28.3330  -22.2970   19.7660 C   0  0  0  0  0  2  0  0  0  0  0  0
  -28.8260  -23.8460   19.7720 C   0  0  0  0  0  3  0  0  0  0  0  0
  -27.7190  -24.9640   19.4240 C   0  0  0  0  0  3  0  0  0  0  0  0
  -27.9580  -26.4330   19.5660 O   0  0  0  0  0  0  0  0  0  0  0  0
  -24.3760  -31.6720   23.0520 C   0  0  0  0  0  0  0  0  0  0  0  0
  -26.8410  -27.2990   19.6030 C   0  0  0  0  0  0  0  0  0  0  0  0
  -23.0930  -30.3690   21.3920 C   0  0  0  0  0  3  0  0  0  0  0  0
  -24.4750  -28.9200   19.7960 C   0  0  0  0  0  0  0  0  0  0  0  0
  -25.6210  -30.7050   21.1050 C   0  0  0  0  0  2  0  0  0  0  0  0
  -25.6710  -29.3670   20.3690 C   0  0  0  0  0  0  0  0  0  0  0  0
  -26.8540  -28.5690   20.2670 C   0  0  0  0  0  3  0  0  0  0  0  0
  -25.6200  -26.9200   18.9960 C   0  0  0  0  0  3  0  0  0  0  0  0
  -24.4530  -27.7030   19.0930 C   0  0  0  0  0  3  0  0  0  0  0  0
  -23.2390  -29.7830   19.9640 C   0  0  0  0  0  2  0  0  0  0  0  0
  -24.3840  -30.9310   21.9070 N   0  0  0  0  0  0  0  0  0  0  0  0
  -23.3220  -31.9150   23.6570 O   0  0  0  0  0  0  0  0  0  0  0  0
  -22.4790  -29.2940   22.3220 C   0  0  0  0  0  0  0  0  0  0  0  0
  -21.1570  -29.0820   22.2130 N   0  0  0  0  0  0  0  0  0  0  0  0
  -23.1910  -28.6570   23.1030 O   0  0  0  0  0  0  0  0  0  0  0  0
  -20.6380  -29.6490   21.5550 H   0  0  0  0  0  0  0  0  0  0  0  0
  -17.8320  -27.7460   22.7180 C   0  0  0  0  0  0  0  0  0  0  0  0
  -20.3830  -28.0890   22.9620 C   0  0  0  0  0  3  0  0  0  0  0  0
  -20.5300  -26.6830   22.3370 C   0  0  0  0  0  2  0  0  0  0  0  0
  -19.4270  -26.3580   21.3250 C   0  0  0  0  0  2  0  0  0  0  0  0
  -18.0490  -26.4280   21.9920 C   0  0  0  0  0  2  0  0  0  0  0  0
  -18.9290  -28.5320   23.1590 C   0  0  0  0  0  0  0  0  0  0  0  0
  -18.6740  -29.7660   23.7960 C   0  0  0  0  0  3  0  0  0  0  0  0
  -17.3540  -30.2130   23.9970 C   0  0  0  0  0  3  0  0  0  0  0  0
  -16.2730  -29.4220   23.5710 C   0  0  0  0  0  3  0  0  0  0  0  0
  -16.5120  -28.1910   22.9360 C   0  0  0  0  0  3  0  0  0  0  0  0
  -25.6890  -32.2700   23.6410 C   0  0  0  0  0  3  0  0  0  0  0  0
  -25.3980  -33.6480   24.0650 N   0  0  0  0  0  0  0  0  0  0  0  0
  -25.7040  -34.7430   23.3550 C   0  0  0  0  0  0  0  0  0  0  0  0
  -26.3310  -34.6980   22.2940 O   0  0  0  0  0  0  0  0  0  0  0  0
  -24.8260  -33.7560   24.8890 H   0  0  0  0  0  0  0  0  0  0  0  0
  -23.9870  -36.5710   23.1600 C   0  0  0  0  0  1  0  0  0  0  0  0
  -25.2440  -36.1030   23.9110 C   0  0  0  0  0  3  0  0  0  0  0  0
  -27.3970  -36.9280   24.7570 C   0  0  0  0  0  1  0  0  0  0  0  0
  -26.2850  -37.1510   23.8370 N   0  0  0  0  0  0  0  0  0  0  0  0
  -25.8900  -38.0670   24.0320 H   0  0  0  0  0  0  0  0  0  0  0  0
  -26.2680  -31.4270   24.8430 C   0  0  1  0  0  0  0  0  0  0  0  0
  -25.2240  -31.1210   25.9440 C   0  0  0  0  0  1  0  0  0  0  0  0
  -26.8380  -30.0750   24.3490 C   0  0  0  0  0  1  0  0  0  0  0  0
  -27.4500  -32.1880   25.4920 C   0  0  0  0  0  1  0  0  0  0  0  0
  1  3  1  0
  1  2  1  6
  3  9  1  0
  4  5  1  0
  6  4  1  0
  7  5  1  0
  8  6  1  0
  8  9  1  0
  9  7  1  0
 10  1  1  0
 11 10  1  0
 11 12  1  0
 13 21  1  0
 14 19  1  0
 15 16  1  0
 15 14  1  0
 17 16  1  0
 17 26  1  0
 17 18  1  0
 19 13  1  0
 19 18  1  0
 20 13  2  0
 21 22  1  0
 21 12  1  0
 23 24  2  0
 24 43  1  0
 25 24  1  0
 25 28  1  0
 26 27  1  0
 26 23  1  0
 27 25  2  0
 28 29  1  0
 29 30  2  0
 31 34  1  0
 31 30  1  0
 32 31  2  0
 33 32  1  0
 33 28  2  0
 34 35  1  0
 35 36  1  0
 36 37  2  0
 38 37  1  0
 38 42  1  0
 39 38  2  0
 40 35  2  0
 40 39  1  0
 41 40  1  0
 43 44  1  0
 44 47  1  0
 44 46  1  0
 45 43  2  0
 48 23  1  0
 48 49  1  0
 50 48  1  0
 51 52  1  0
 51  1  1  0
 53 54  1  0
 53 52  2  0
 54 56  1  0
 55 66  2  0
 56 61  1  0
 57 65  1  0
 57 67  1  0
 58 64  1  0
 58 60  1  0
 59 65  1  0
 60 59  1  0
 61 60  2  0
 62 63  1  0
 62 56  2  0
 63 58  2  0
 64 57  1  0
 65 55  1  0
 67 69  2  0
 68 67  1  0
 70 68  1  0
 71 80  2  0
 71 76  1  0
 72 68  1  0
 72 76  1  0
 73 72  1  0
 74 75  1  0
 74 73  1  0
 75 71  1  0
 76 77  2  0
 77 78  1  0
 79 78  2  0
 80 79  1  0
 81 55  1  0
 81 82  1  0
 81 91  1  0
 82 85  1  0
 83 87  1  0
 83 82  1  0
 84 83  2  0
 87 86  1  0
 89 87  1  0
 89 90  1  0
 89 88  1  0
 91 94  1  1
 91 92  1  0
 93 91  1  0
M  ISO  4  13 100  21 100  53 101  54 101
M  END
>  <TORSDO>  (47) 
F 24

>  <SCORE>  (47) 
-12.076

>  <name>  (47) 
47

>  <ligand_id>  (47) 
47

>  <original_smiles>  (47) 
[H]c1c([H])c([H])c2c(c1[H])C([H])([H])C([H])([H])C([H])([H])C2([H])N([H])C(=O)C1([H])N(C(=O)C([H])(N([H])C(=O)C([H])(N([H])C([H])([H])[H])C([H])([H])[H])C(C([H])([H])[H])(C([H])([H])[H])C([H])([H])[H])C([H])([H])c2c([H])c(OC([H])([H])C([H])([H])C([H])([H])[N+]([H])(C([H])([H])C([H])([H])C([H])([H])N([H])C(=O)N3C([H])([H])C([H])([H])C([H])([H])C([H])(n4nc(-c5c([H])c([H])c(Oc6c([H])c([H])c(F)c([H])c6F)c([H])c5[H])c(C(=O)N([H])[H])c4N([H])[H])C3([H])[H])C([H])([H])C3([H])C([H])([H])C([H])([H])C([H])([H])C([H])([H])C3([H])[H])c([H])c([H])c2C1([H])[H]

>  <smiles>  (47) 
[H]c1c([H])c([H])c2c(c1[H])C([H])([H])C([H])([H])C([H])([H])C2([H])N([H])C(=O)C1([H])N(C(=O)C([H])(N([H])C(=O)C([H])(N([H])C([H])([H])[H])C([H])([H])[H])C(C([H])([H])[H])(C([H])([H])[H])C([H])([H])[H])C([H])([H])c2c([H])c(OC([H])([H])C([H])([H])C([H])([H])[N+]([H])(C([H])([H])C([H])([H])C([H])([H])N([H])C(=O)N3C([H])([H])C([H])([H])C([H])([H])C([H])(n4nc(-c5c([H])c([H])c(Oc6c([H])c([H])c(F)c([H])c6F)c([H])c5[H])c(C(=O)N([H])[H])c4N([H])[H])C3([H])[H])C([H])([H])C3([H])C([H])([H])C([H])([H])C([H])([H])C([H])([H])C3([H])[H])c([H])c([H])c2C1([H])[H]

$$$$
48:0:0
     RDKit          3D

 96104  0  0  1  0  0  0  0  0999 V2000
  -28.8790  -19.7690   19.3680 C   0  0  0  0  0  2  0  0  0  0  0  0
  -30.2330  -20.1420   21.3200 C   0  0  0  0  0  2  0  0  0  0  0  0
  -28.1520  -21.1880   19.6320 C   0  0  0  0  0  2  0  0  0  0  0  0
  -29.4870  -21.5160   21.5840 C   0  0  0  0  0  2  0  0  0  0  0  0
  -29.4520  -18.9650   20.6120 C   0  0  0  0  0  3  0  0  0  0  0  0
  -28.9540  -22.2380   20.3730 N   0  0  2  0  0  4  0  0  0  0  0  0
  -29.7590  -22.4490   19.8000 H   0  0  0  0  0  0  0  0  0  0  0  0
  -28.2810  -23.6200   20.7190 C   0  0  0  0  0  2  0  0  0  0  0  0
  -28.3930  -24.9510   19.7640 C   0  0  0  0  0  2  0  0  0  0  0  0
  -28.3370  -26.3920   20.2730 O   0  0  0  0  0  0  0  0  0  0  0  0
  -24.6140  -31.9070   23.2420 C   0  0  0  0  0  0  0  0  0  0  0  0
  -27.2270  -27.2760   20.1920 C   0  0  0  0  0  0  0  0  0  0  0  0
  -23.4200  -30.5050   21.6010 C   0  0  0  0  0  3  0  0  0  0  0  0
  -24.8750  -28.9500   20.1720 C   0  0  0  0  0  0  0  0  0  0  0  0
  -25.9650  -30.8040   21.4330 C   0  0  0  0  0  2  0  0  0  0  0  0
  -26.0450  -29.4220   20.7760 C   0  0  0  0  0  0  0  0  0  0  0  0
  -27.2200  -28.5960   20.7760 C   0  0  0  0  0  3  0  0  0  0  0  0
  -26.0260  -26.8770   19.5650 C   0  0  0  0  0  3  0  0  0  0  0  0
  -24.8720  -27.6880   19.5560 C   0  0  0  0  0  3  0  0  0  0  0  0
  -23.6390  -29.8320   20.2220 C   0  0  0  0  0  2  0  0  0  0  0  0
  -24.6850  -31.0940   22.1460 N   0  0  0  0  0  0  0  0  0  0  0  0
  -23.5270  -32.1840   23.7720 O   0  0  0  0  0  0  0  0  0  0  0  0
  -22.7540  -29.4890   22.5610 C   0  0  0  0  0  0  0  0  0  0  0  0
  -21.4260  -29.3120   22.4350 N   0  0  0  0  0  0  0  0  0  0  0  0
  -23.4310  -28.8650   23.3830 O   0  0  0  0  0  0  0  0  0  0  0  0
  -20.9380  -29.8710   21.7500 H   0  0  0  0  0  0  0  0  0  0  0  0
  -18.0510  -28.1050   22.9410 C   0  0  0  0  0  0  0  0  0  0  0  0
  -20.6100  -28.3690   23.2030 C   0  0  0  0  0  3  0  0  0  0  0  0
  -20.7130  -26.9400   22.6210 C   0  0  0  0  0  2  0  0  0  0  0  0
  -19.6090  -26.6200   21.6090 C   0  0  0  0  0  2  0  0  0  0  0  0
  -18.2280  -26.7590   22.2570 C   0  0  0  0  0  2  0  0  0  0  0  0
  -19.1700  -28.8670   23.3700 C   0  0  0  0  0  0  0  0  0  0  0  0
  -18.9510  -30.1270   23.9710 C   0  0  0  0  0  3  0  0  0  0  0  0
  -17.6460  -30.6250   24.1440 C   0  0  0  0  0  3  0  0  0  0  0  0
  -16.5410  -29.8600   23.7300 C   0  0  0  0  0  3  0  0  0  0  0  0
  -16.7450  -28.6010   23.1360 C   0  0  0  0  0  3  0  0  0  0  0  0
  -25.8910  -32.5460   23.8710 C   0  0  0  0  0  3  0  0  0  0  0  0
  -26.3960  -31.7870   25.1590 C   0  0  1  0  0  0  0  0  0  0  0  0
  -25.2930  -31.5580   26.2190 C   0  0  0  0  0  1  0  0  0  0  0  0
  -26.9840  -30.4050   24.7910 C   0  0  0  0  0  1  0  0  0  0  0  0
  -27.5440  -32.5850   25.8210 C   0  0  0  0  0  1  0  0  0  0  0  0
  -25.5770  -33.9470   24.1900 N   0  0  0  0  0  0  0  0  0  0  0  0
  -25.9100  -34.9970   23.4280 C   0  0  0  0  0  0  0  0  0  0  0  0
  -26.5830  -34.8890   22.3990 O   0  0  0  0  0  0  0  0  0  0  0  0
  -24.9810  -34.1050   24.9890 H   0  0  0  0  0  0  0  0  0  0  0  0
  -24.1830  -36.7910   23.0590 C   0  0  0  0  0  1  0  0  0  0  0  0
  -25.4200  -36.3880   23.8780 C   0  0  0  0  0  3  0  0  0  0  0  0
  -27.5460  -37.2780   24.7250 C   0  0  0  0  0  1  0  0  0  0  0  0
  -26.4540  -37.4410   23.7690 N   0  0  0  0  0  0  0  0  0  0  0  0
  -26.0460  -38.3620   23.9060 H   0  0  0  0  0  0  0  0  0  0  0  0
  -30.3840  -17.5860   20.4450 C   0  0  0  0  0  0  0  0  0  0  0  0
  -30.6190  -14.9000   20.2860 C   0  0  0  0  0  0  0  0  0  0  0  0
  -30.4090  -12.6010   19.3040 C   0  0  0  0  0  2  0  0  0  0  0  0
  -29.4860  -12.6620   18.0700 C   0  0  0  0  0  2  0  0  0  0  0  0
  -28.0200  -12.4670   18.4990 C   0  0  0  0  0  2  0  0  0  0  0  0
  -27.6320  -13.3510   19.7160 C   0  0  0  0  0  3  0  0  0  0  0  0
  -28.6910  -13.3200   20.8370 C   0  0  0  0  0  2  0  0  0  0  0  0
  -29.9730  -13.6810   20.2250 N   0  0  0  0  0  0  0  0  0  0  0  0
  -31.8210  -14.9200   20.0120 O   0  0  0  0  0  0  0  0  0  0  0  0
  -29.8910  -16.1030   20.4200 N   0  0  0  0  0  4  0  0  0  0  0  0
  -28.9010  -15.9740   20.5740 H   0  0  0  0  0  0  0  0  0  0  0  0
  -25.2530  -13.9180   20.4650 C   0  0  0  0  0  0  0  0  0  0  0  0
  -24.1950  -13.1380   20.8390 C   0  0  0  0  0  0  0  0  0  0  0  0
  -24.6660  -11.7890   20.8080 C   0  0  0  0  0  0  0  0  0  0  0  0
  -26.2990  -13.0440   20.2170 N   0  0  0  0  0  0  0  0  0  0  0  0
  -25.9560  -11.7590   20.4920 N   0  0  0  0  0  0  0  0  0  0  0  0
  -23.9480  -10.5240   21.0020 C   0  0  0  0  0  0  0  0  0  0  0  0
  -24.3790   -9.5630   21.9440 C   0  0  0  0  0  3  0  0  0  0  0  0
  -23.6560   -8.3650   22.1280 C   0  0  0  0  0  3  0  0  0  0  0  0
  -22.4880   -8.1200   21.3680 C   0  0  0  0  0  0  0  0  0  0  0  0
  -22.0760   -9.0670   20.4150 C   0  0  0  0  0  3  0  0  0  0  0  0
  -22.8000  -10.2560   20.2300 C   0  0  0  0  0  3  0  0  0  0  0  0
  -21.7380   -6.9720   21.4570 O   0  0  0  0  0  0  0  0  0  0  0  0
  -21.6750   -6.2400   22.6160 C   0  0  0  0  0  0  0  0  0  0  0  0
  -21.2120   -6.8010   23.8270 C   0  0  0  0  0  3  0  0  0  0  0  0
  -21.0980   -5.9940   24.9770 C   0  0  0  0  0  3  0  0  0  0  0  0
  -21.4390   -4.6300   24.9190 C   0  0  0  0  0  0  0  0  0  0  0  0
  -21.8950   -4.0700   23.7140 C   0  0  0  0  0  3  0  0  0  0  0  0
  -22.0110   -4.8720   22.5650 C   0  0  0  0  0  0  0  0  0  0  0  0
  -22.4290   -4.3200   21.4000 F   0  0  0  0  0  0  0  0  0  0  0  0
  -21.3220   -3.8550   26.0220 F   0  0  0  0  0  0  0  0  0  0  0  0
  -22.7940  -13.6080   21.1100 C   0  0  0  0  0  0  0  0  0  0  0  0
  -22.0720  -12.9090   21.9770 N   0  0  0  0  0  0  0  0  0  0  0  0
  -22.3510  -14.6330   20.5910 O   0  0  0  0  0  0  0  0  0  0  0  0
  -22.4440  -12.0810   22.4190 H   0  0  0  0  0  0  0  0  0  0  0  0
  -21.1330  -13.2060   22.2010 H   0  0  0  0  0  0  0  0  0  0  0  0
  -25.4070  -15.2910   20.2850 N   0  0  0  0  0  0  0  0  0  0  0  0
  -24.6290  -15.9350   20.3930 H   0  0  0  0  0  0  0  0  0  0  0  0
  -26.2340  -15.7350   19.9090 H   0  0  0  0  0  0  0  0  0  0  0  0
  -31.5560  -17.8300   19.4660 C   0  0  0  0  0  2  0  0  0  0  0  0
  -31.3030  -17.4930   17.9850 C   0  0  0  0  0  2  0  0  0  0  0  0
  -32.6290  -17.4530   17.2080 C   0  0  0  0  0  2  0  0  0  0  0  0
  -33.3730  -16.2100   17.4730 N   0  0  0  0  0  4  0  0  0  0  0  0
  -33.4580  -16.0470   18.4610 H   0  0  0  0  0  0  0  0  0  0  0  0
  -34.2940  -16.2660   17.0780 H   0  0  0  0  0  0  0  0  0  0  0  0
  -32.9020  -15.4230   17.0630 H   0  0  0  0  0  0  0  0  0  0  0  0
  1  3  1  0
  1  5  1  0
  2  4  1  0
  3  6  1  0
  5 51  1  0
  5  2  1  0
  6  8  1  0
  6  4  1  0
  6  7  1  6
  9 10  1  0
  9  8  1  0
 11 22  2  0
 12 10  1  0
 12 17  1  0
 13 21  1  0
 13 23  1  0
 14 20  1  0
 14 16  1  0
 15 21  1  0
 16 17  2  0
 16 15  1  0
 18 12  2  0
 19 18  1  0
 19 14  2  0
 20 13  1  0
 21 11  1  0
 23 25  2  0
 24 23  1  0
 26 24  1  0
 27 36  2  0
 27 32  1  0
 28 24  1  0
 28 32  1  0
 29 28  1  0
 30 31  1  0
 30 29  1  0
 31 27  1  0
 32 33  2  0
 33 34  1  0
 35 34  2  0
 36 35  1  0
 37 11  1  0
 37 42  1  0
 37 38  1  0
 38 41  1  1
 38 39  1  0
 40 38  1  0
 42 45  1  0
 43 47  1  0
 43 42  1  0
 44 43  2  0
 47 46  1  0
 49 47  1  0
 49 50  1  0
 49 48  1  0
 52 60  1  0
 53 58  1  0
 54 55  1  0
 54 53  1  0
 56 55  1  0
 56 65  1  0
 56 57  1  0
 58 52  1  0
 58 57  1  0
 59 52  2  0
 60 51  2  0
 60 61  1  0
 62 63  2  0
 63 82  1  0
 64 63  1  0
 64 67  1  0
 65 62  1  0
 65 66  1  0
 66 64  2  0
 67 68  1  0
 68 69  2  0
 70 73  1  0
 70 69  1  0
 71 70  2  0
 72 71  1  0
 72 67  2  0
 73 74  1  0
 74 75  1  0
 75 76  2  0
 77 76  1  0
 77 81  1  0
 78 77  2  0
 79 74  2  0
 79 78  1  0
 80 79  1  0
 82 83  1  0
 83 86  1  0
 83 85  1  0
 84 82  2  0
 87 88  1  0
 87 62  1  0
 89 87  1  0
 90 51  1  0
 91 90  1  0
 92 93  1  0
 92 91  1  0
 93 94  1  0
 95 93  1  0
 96 93  1  0
M  ISO  4   9 101  10 101  52 100  60 100
M  END
>  <TORSDO>  (48) 
F 23

>  <SCORE>  (48) 
-13.132

>  <name>  (48) 
48

>  <ligand_id>  (48) 
48

>  <original_smiles>  (48) 
[H]c1c([H])c([H])c2c(c1[H])C([H])([H])C([H])([H])C([H])([H])C2([H])N([H])C(=O)C1([H])N(C(=O)C([H])(N([H])C(=O)C([H])(N([H])C([H])([H])[H])C([H])([H])[H])C(C([H])([H])[H])(C([H])([H])[H])C([H])([H])[H])C([H])([H])c2c([H])c(OC([H])([H])C([H])([H])[N+]3([H])C([H])([H])C([H])([H])C([H])(C([H])(N([H])C(=O)N4C([H])([H])C([H])([H])C([H])([H])C([H])(n5nc(-c6c([H])c([H])c(Oc7c([H])c([H])c(F)c([H])c7F)c([H])c6[H])c(C(=O)N([H])[H])c5N([H])[H])C4([H])[H])C([H])([H])C([H])([H])C([H])([H])[N+]([H])([H])[H])C([H])([H])C3([H])[H])c([H])c([H])c2C1([H])[H]

>  <smiles>  (48) 
[H]c1c([H])c([H])c2c(c1[H])C([H])([H])C([H])([H])C([H])([H])C2([H])N([H])C(=O)C1([H])N(C(=O)C([H])(N([H])C(=O)C([H])(N([H])C([H])([H])[H])C([H])([H])[H])C(C([H])([H])[H])(C([H])([H])[H])C([H])([H])[H])C([H])([H])c2c([H])c(OC([H])([H])C([H])([H])[N+]3([H])C([H])([H])C([H])([H])C([H])(C([H])(N([H])C(=O)N4C([H])([H])C([H])([H])C([H])([H])C([H])(n5nc(-c6c([H])c([H])c(Oc7c([H])c([H])c(F)c([H])c7F)c([H])c6[H])c(C(=O)N([H])[H])c5N([H])[H])C4([H])[H])C([H])([H])C([H])([H])C([H])([H])[N+]([H])([H])[H])C([H])([H])C3([H])[H])c([H])c([H])c2C1([H])[H]

$$$$
49:0:0
     RDKit          3D

 90 98  0  0  1  0  0  0  0  0999 V2000
  -28.8970  -22.9880   20.1360 C   0  0  0  0  0  3  0  0  0  0  0  0
  -30.2700  -23.2870   20.5850 N   0  0  0  0  0  4  0  0  0  0  0  0
  -30.3140  -23.4230   21.5810 H   0  0  0  0  0  0  0  0  0  0  0  0
  -30.6070  -24.1270   20.1440 H   0  0  0  0  0  0  0  0  0  0  0  0
  -30.8900  -22.5360   20.3370 H   0  0  0  0  0  0  0  0  0  0  0  0
  -28.5600  -21.3310   20.6100 C   0  0  0  0  0  2  0  0  0  0  0  0
  -30.5590  -15.1620   20.1510 C   0  0  0  0  0  0  0  0  0  0  0  0
  -30.3790  -12.7830   19.2190 C   0  0  0  0  0  2  0  0  0  0  0  0
  -29.4310  -12.6520   18.0070 C   0  0  0  0  0  2  0  0  0  0  0  0
  -27.9910  -12.4020   18.4830 C   0  0  0  0  0  2  0  0  0  0  0  0
  -27.5830  -13.3460   19.6420 C   0  0  0  0  0  3  0  0  0  0  0  0
  -28.6630  -13.4640   20.7380 C   0  0  0  0  0  2  0  0  0  0  0  0
  -29.8900  -13.9230   20.0730 N   0  0  0  0  0  0  0  0  0  0  0  0
  -31.7740  -15.0710   19.9300 O   0  0  0  0  0  0  0  0  0  0  0  0
  -30.8590  -17.7710   20.2680 C   0  0  0  0  0  2  0  0  0  0  0  0
  -28.6360  -17.1140   19.9900 C   0  0  0  0  0  2  0  0  0  0  0  0
  -30.3370  -19.2580   20.7510 C   0  0  0  0  0  2  0  0  0  0  0  0
  -28.2410  -18.6740   20.4020 C   0  0  0  0  0  2  0  0  0  0  0  0
  -29.9910  -16.5120   20.3040 N   0  0  0  0  0  0  0  0  0  0  0  0
  -29.1190  -19.8890   20.1330 N   0  0  0  0  0  0  0  0  0  0  0  0
  -25.2270  -13.8850   20.4600 C   0  0  0  0  0  0  0  0  0  0  0  0
  -24.1790  -13.0980   20.8480 C   0  0  0  0  0  0  0  0  0  0  0  0
  -24.6540  -11.7500   20.7900 C   0  0  0  0  0  0  0  0  0  0  0  0
  -26.2700  -13.0180   20.1820 N   0  0  0  0  0  0  0  0  0  0  0  0
  -25.9380  -11.7280   20.4510 N   0  0  0  0  0  0  0  0  0  0  0  0
  -23.9380  -10.4820   20.9820 C   0  0  0  0  0  0  0  0  0  0  0  0
  -24.3720   -9.5210   21.9230 C   0  0  0  0  0  3  0  0  0  0  0  0
  -23.6520   -8.3200   22.1040 C   0  0  0  0  0  3  0  0  0  0  0  0
  -22.4840   -8.0710   21.3440 C   0  0  0  0  0  0  0  0  0  0  0  0
  -22.0680   -9.0200   20.3920 C   0  0  0  0  0  3  0  0  0  0  0  0
  -22.7890  -10.2130   20.2110 C   0  0  0  0  0  3  0  0  0  0  0  0
  -21.7360   -6.9200   21.4340 O   0  0  0  0  0  0  0  0  0  0  0  0
  -21.6610   -6.2000   22.5990 C   0  0  0  0  0  0  0  0  0  0  0  0
  -21.1710   -6.7690   23.7950 C   0  0  0  0  0  3  0  0  0  0  0  0
  -21.0420   -5.9730   24.9510 C   0  0  0  0  0  3  0  0  0  0  0  0
  -21.3960   -4.6120   24.9130 C   0  0  0  0  0  0  0  0  0  0  0  0
  -21.8800   -4.0420   23.7230 C   0  0  0  0  0  3  0  0  0  0  0  0
  -22.0100   -4.8340   22.5680 C   0  0  0  0  0  0  0  0  0  0  0  0
  -22.4570   -4.2770   21.4170 F   0  0  0  0  0  0  0  0  0  0  0  0
  -21.2650   -3.8470   26.0220 F   0  0  0  0  0  0  0  0  0  0  0  0
  -22.7860  -13.5670   21.1470 C   0  0  0  0  0  0  0  0  0  0  0  0
  -22.0740  -12.8560   22.0160 N   0  0  0  0  0  0  0  0  0  0  0  0
  -22.3390  -14.5990   20.6470 O   0  0  0  0  0  0  0  0  0  0  0  0
  -22.4500  -12.0250   22.4440 H   0  0  0  0  0  0  0  0  0  0  0  0
  -21.1410  -13.1580   22.2620 H   0  0  0  0  0  0  0  0  0  0  0  0
  -25.3750  -15.2570   20.2930 N   0  0  0  0  0  0  0  0  0  0  0  0
  -24.5960  -15.8980   20.4130 H   0  0  0  0  0  0  0  0  0  0  0  0
  -26.1960  -15.6970   19.9010 H   0  0  0  0  0  0  0  0  0  0  0  0
  -27.9350  -24.4290   20.4310 C   0  0  0  0  0  2  0  0  0  0  0  0
  -28.2210  -26.0070   20.2440 O   0  0  0  0  0  0  0  0  0  0  0  0
  -24.6080  -31.8650   23.1900 C   0  0  0  0  0  0  0  0  0  0  0  0
  -27.1920  -27.0560   20.1980 C   0  0  0  0  0  0  0  0  0  0  0  0
  -23.4270  -30.4700   21.5410 C   0  0  0  0  0  3  0  0  0  0  0  0
  -24.8880  -28.8820   20.1300 C   0  0  0  0  0  0  0  0  0  0  0  0
  -25.9910  -30.7040   21.4110 C   0  0  0  0  0  2  0  0  0  0  0  0
  -26.0680  -29.3030   20.7580 C   0  0  0  0  0  0  0  0  0  0  0  0
  -27.2200  -28.4100   20.7690 C   0  0  0  0  0  3  0  0  0  0  0  0
  -25.9890  -26.7710   19.5180 C   0  0  0  0  0  3  0  0  0  0  0  0
  -24.8690  -27.6340   19.4910 C   0  0  0  0  0  3  0  0  0  0  0  0
  -23.6680  -29.7940   20.1640 C   0  0  0  0  0  2  0  0  0  0  0  0
  -24.6960  -31.0380   22.1010 N   0  0  0  0  0  0  0  0  0  0  0  0
  -23.5150  -32.1510   23.7050 O   0  0  0  0  0  0  0  0  0  0  0  0
  -22.7360  -29.4640   22.4980 C   0  0  0  0  0  0  0  0  0  0  0  0
  -21.4080  -29.2930   22.3610 N   0  0  0  0  0  0  0  0  0  0  0  0
  -23.3990  -28.8410   23.3310 O   0  0  0  0  0  0  0  0  0  0  0  0
  -20.9270  -29.8480   21.6670 H   0  0  0  0  0  0  0  0  0  0  0  0
  -18.0240  -28.0850   22.8420 C   0  0  0  0  0  0  0  0  0  0  0  0
  -20.5820  -28.3530   23.1250 C   0  0  0  0  0  3  0  0  0  0  0  0
  -20.6900  -26.9210   22.5510 C   0  0  0  0  0  2  0  0  0  0  0  0
  -19.5960  -26.5970   21.5290 C   0  0  0  0  0  2  0  0  0  0  0  0
  -18.2090  -26.7370   22.1640 C   0  0  0  0  0  2  0  0  0  0  0  0
  -19.1380  -28.8500   23.2800 C   0  0  0  0  0  0  0  0  0  0  0  0
  -18.9100  -30.1100   23.8760 C   0  0  0  0  0  3  0  0  0  0  0  0
  -17.6010  -30.6020   24.0380 C   0  0  0  0  0  3  0  0  0  0  0  0
  -16.5020  -29.8340   23.6140 C   0  0  0  0  0  3  0  0  0  0  0  0
  -16.7140  -28.5770   23.0220 C   0  0  0  0  0  3  0  0  0  0  0  0
  -25.8770  -32.5060   23.8300 C   0  0  0  0  0  3  0  0  0  0  0  0
  -26.3690  -31.7460   25.1230 C   0  0  1  0  0  0  0  0  0  0  0  0
  -25.2590  -31.5230   26.1760 C   0  0  0  0  0  1  0  0  0  0  0  0
  -26.9570  -30.3620   24.7620 C   0  0  0  0  0  1  0  0  0  0  0  0
  -27.5080  -32.5470   25.7990 C   0  0  0  0  0  1  0  0  0  0  0  0
  -25.5570  -33.9070   24.1540 N   0  0  0  0  0  0  0  0  0  0  0  0
  -25.8970  -34.9640   23.4050 C   0  0  0  0  0  0  0  0  0  0  0  0
  -26.5740  -34.8640   22.3790 O   0  0  0  0  0  0  0  0  0  0  0  0
  -24.9530  -34.0580   24.9490 H   0  0  0  0  0  0  0  0  0  0  0  0
  -24.1770  -36.7690   23.0440 C   0  0  0  0  0  1  0  0  0  0  0  0
  -25.4070  -36.3530   23.8650 C   0  0  0  0  0  3  0  0  0  0  0  0
  -27.5330  -37.2340   24.7250 C   0  0  0  0  0  1  0  0  0  0  0  0
  -26.4420  -37.4060   23.7700 N   0  0  0  0  0  0  0  0  0  0  0  0
  -26.0340  -38.3250   23.9170 H   0  0  0  0  0  0  0  0  0  0  0  0
  1 49  1  0
  1  2  1  0
  1  6  1  0
  2  3  1  0
  4  2  1  0
  5  2  1  0
  7 19  1  0
  8 13  1  0
  9 10  1  0
  9  8  1  0
 11 10  1  0
 11 24  1  0
 11 12  1  0
 13  7  1  0
 13 12  1  0
 14  7  2  0
 15 19  1  0
 15 17  1  0
 16 19  1  0
 16 18  1  0
 20 18  1  0
 20  6  1  0
 20 17  1  0
 21 22  2  0
 22 41  1  0
 23 22  1  0
 23 26  1  0
 24 25  1  0
 24 21  1  0
 25 23  2  0
 26 27  1  0
 27 28  2  0
 29 32  1  0
 29 28  1  0
 30 29  2  0
 31 30  1  0
 31 26  2  0
 32 33  1  0
 33 34  1  0
 34 35  2  0
 36 35  1  0
 36 40  1  0
 37 36  2  0
 38 33  2  0
 38 37  1  0
 39 38  1  0
 41 42  1  0
 42 45  1  0
 42 44  1  0
 43 41  2  0
 46 47  1  0
 46 21  1  0
 48 46  1  0
 50 49  1  0
 51 62  2  0
 52 50  1  0
 52 57  1  0
 53 61  1  0
 53 63  1  0
 54 60  1  0
 54 56  1  0
 55 61  1  0
 56 57  2  0
 56 55  1  0
 58 52  2  0
 59 58  1  0
 59 54  2  0
 60 53  1  0
 61 51  1  0
 63 65  2  0
 64 63  1  0
 66 64  1  0
 67 76  2  0
 67 72  1  0
 68 64  1  0
 68 72  1  0
 69 68  1  0
 70 71  1  0
 70 69  1  0
 71 67  1  0
 72 73  2  0
 73 74  1  0
 75 74  2  0
 76 75  1  0
 77 51  1  0
 77 82  1  0
 77 78  1  0
 78 81  1  1
 78 79  1  0
 80 78  1  0
 82 85  1  0
 83 87  1  0
 83 82  1  0
 84 83  2  0
 87 86  1  0
 89 87  1  0
 89 90  1  0
 89 88  1  0
M  ISO  4   7 100  19 100  49 101  50 101
M  END
>  <TORSDO>  (49) 
F 19

>  <SCORE>  (49) 
-16.081

>  <name>  (49) 
49

>  <ligand_id>  (49) 
49

>  <original_smiles>  (49) 
[H]c1c([H])c([H])c2c(c1[H])C([H])([H])C([H])([H])C([H])([H])C2([H])N([H])C(=O)C1([H])N(C(=O)C([H])(N([H])C(=O)C([H])(N([H])C([H])([H])[H])C([H])([H])[H])C(C([H])([H])[H])(C([H])([H])[H])C([H])([H])[H])C([H])([H])c2c([H])c(OC([H])([H])C([H])(C([H])([H])N3C([H])([H])C([H])([H])N(C(=O)N4C([H])([H])C([H])([H])C([H])([H])C([H])(n5nc(-c6c([H])c([H])c(Oc7c([H])c([H])c(F)c([H])c7F)c([H])c6[H])c(C(=O)N([H])[H])c5N([H])[H])C4([H])[H])C([H])([H])C3([H])[H])[N+]([H])([H])[H])c([H])c([H])c2C1([H])[H]

>  <smiles>  (49) 
[H]c1c([H])c([H])c2c(c1[H])C([H])([H])C([H])([H])C([H])([H])C2([H])N([H])C(=O)C1([H])N(C(=O)C([H])(N([H])C(=O)C([H])(N([H])C([H])([H])[H])C([H])([H])[H])C(C([H])([H])[H])(C([H])([H])[H])C([H])([H])[H])C([H])([H])c2c([H])c(OC([H])([H])C([H])(C([H])([H])N3C([H])([H])C([H])([H])N(C(=O)N4C([H])([H])C([H])([H])C([H])([H])C([H])(n5nc(-c6c([H])c([H])c(Oc7c([H])c([H])c(F)c([H])c7F)c([H])c6[H])c(C(=O)N([H])[H])c5N([H])[H])C4([H])[H])C([H])([H])C3([H])[H])[N+]([H])([H])[H])c([H])c([H])c2C1([H])[H]

$$$$
50:0:0
     RDKit          3D

 87 95  0  0  1  0  0  0  0  0999 V2000
  -30.3660  -15.5360   20.2820 C   0  0  0  0  0  0  0  0  0  0  0  0
  -30.4090  -13.0220   19.4680 C   0  0  0  0  0  2  0  0  0  0  0  0
  -29.5290  -12.6460   18.2480 C   0  0  0  0  0  2  0  0  0  0  0  0
  -28.0940  -12.3250   18.6880 C   0  0  0  0  0  2  0  0  0  0  0  0
  -27.5820  -13.3300   19.7450 C   0  0  0  0  0  3  0  0  0  0  0  0
  -28.6030  -13.6320   20.8650 C   0  0  0  0  0  2  0  0  0  0  0  0
  -29.7940  -14.2080   20.2070 N   0  0  0  0  0  0  0  0  0  0  0  0
  -31.6000  -15.4420   20.1450 O   0  0  0  0  0  0  0  0  0  0  0  0
  -29.0140  -17.8520   19.2890 C   0  0  0  0  0  2  0  0  0  0  0  0
  -28.9610  -19.5840   19.1460 C   0  0  0  0  0  2  0  0  0  0  0  0
  -29.8260  -19.7810   21.2070 C   0  0  0  0  0  2  0  0  0  0  0  0
  -29.7430  -18.0750   21.4450 C   0  0  0  0  0  3  0  0  0  0  0  0
  -30.7070  -17.6810   22.5790 C   0  0  0  0  0  1  0  0  0  0  0  0
  -29.6990  -16.9300   20.3640 N   0  0  0  0  0  0  0  0  0  0  0  0
  -28.8560  -20.6300   20.3130 N   0  0  1  0  0  4  0  0  0  0  0  0
  -27.9450  -20.5110   20.7290 H   0  0  0  0  0  0  0  0  0  0  0  0
  -25.2120  -13.8570   20.4930 C   0  0  0  0  0  0  0  0  0  0  0  0
  -24.1530  -13.0710   20.8490 C   0  0  0  0  0  0  0  0  0  0  0  0
  -24.6310  -11.7240   20.8260 C   0  0  0  0  0  0  0  0  0  0  0  0
  -26.2620  -12.9910   20.2570 N   0  0  0  0  0  0  0  0  0  0  0  0
  -25.9270  -11.7010   20.5270 N   0  0  0  0  0  0  0  0  0  0  0  0
  -23.9110  -10.4570   21.0100 C   0  0  0  0  0  0  0  0  0  0  0  0
  -24.3250   -9.5010   21.9640 C   0  0  0  0  0  3  0  0  0  0  0  0
  -23.6000   -8.3030   22.1380 C   0  0  0  0  0  3  0  0  0  0  0  0
  -22.4470   -8.0500   21.3580 C   0  0  0  0  0  0  0  0  0  0  0  0
  -22.0510   -8.9940   20.3920 C   0  0  0  0  0  3  0  0  0  0  0  0
  -22.7770  -10.1850   20.2170 C   0  0  0  0  0  3  0  0  0  0  0  0
  -21.6960   -6.9030   21.4400 O   0  0  0  0  0  0  0  0  0  0  0  0
  -21.6030   -6.1840   22.6040 C   0  0  0  0  0  0  0  0  0  0  0  0
  -21.1170   -6.7600   23.7990 C   0  0  0  0  0  3  0  0  0  0  0  0
  -20.9740   -5.9670   24.9560 C   0  0  0  0  0  3  0  0  0  0  0  0
  -21.3050   -4.5990   24.9170 C   0  0  0  0  0  0  0  0  0  0  0  0
  -21.7820   -4.0230   23.7270 C   0  0  0  0  0  3  0  0  0  0  0  0
  -21.9270   -4.8130   22.5730 C   0  0  0  0  0  0  0  0  0  0  0  0
  -22.3680   -4.2470   21.4240 F   0  0  0  0  0  0  0  0  0  0  0  0
  -21.1600   -3.8350   26.0250 F   0  0  0  0  0  0  0  0  0  0  0  0
  -22.7490  -13.5380   21.0960 C   0  0  0  0  0  0  0  0  0  0  0  0
  -22.0150  -12.8500   21.9620 N   0  0  0  0  0  0  0  0  0  0  0  0
  -22.3100  -14.5540   20.5540 O   0  0  0  0  0  0  0  0  0  0  0  0
  -22.3820  -12.0300   22.4230 H   0  0  0  0  0  0  0  0  0  0  0  0
  -21.0720  -13.1470   22.1690 H   0  0  0  0  0  0  0  0  0  0  0  0
  -25.3680  -15.2290   20.3170 N   0  0  0  0  0  0  0  0  0  0  0  0
  -24.5990  -15.8800   20.4330 H   0  0  0  0  0  0  0  0  0  0  0  0
  -26.2240  -15.6750   20.0150 H   0  0  0  0  0  0  0  0  0  0  0  0
  -29.0430  -22.3590   20.1220 C   0  0  0  0  0  3  0  0  0  0  0  0
  -27.9770  -23.9230   20.1620 C   0  0  0  0  0  3  0  0  0  0  0  0
  -28.1760  -25.6410   20.1510 O   0  0  0  0  0  0  0  0  0  0  0  0
  -24.6750  -31.8220   23.1270 C   0  0  0  0  0  0  0  0  0  0  0  0
  -27.1830  -26.8090   20.1160 C   0  0  0  0  0  0  0  0  0  0  0  0
  -23.4730  -30.4310   21.4920 C   0  0  0  0  0  3  0  0  0  0  0  0
  -24.9100  -28.7940   20.0700 C   0  0  0  0  0  0  0  0  0  0  0  0
  -26.0470  -30.5910   21.3500 C   0  0  0  0  0  2  0  0  0  0  0  0
  -26.1070  -29.1660   20.6950 C   0  0  0  0  0  0  0  0  0  0  0  0
  -27.2320  -28.1990   20.6840 C   0  0  0  0  0  3  0  0  0  0  0  0
  -25.9530  -26.6280   19.4390 C   0  0  0  0  0  3  0  0  0  0  0  0
  -24.8670  -27.5510   19.4180 C   0  0  0  0  0  3  0  0  0  0  0  0
  -23.7020  -29.7380   20.1190 C   0  0  0  0  0  2  0  0  0  0  0  0
  -24.7550  -30.9790   22.0430 N   0  0  0  0  0  0  0  0  0  0  0  0
  -23.5850  -32.1210   23.6470 O   0  0  0  0  0  0  0  0  0  0  0  0
  -22.7640  -29.4480   22.4630 C   0  0  0  0  0  0  0  0  0  0  0  0
  -21.4300  -29.3070   22.3530 N   0  0  0  0  0  0  0  0  0  0  0  0
  -23.4260  -28.8110   23.2860 O   0  0  0  0  0  0  0  0  0  0  0  0
  -20.9460  -29.8700   21.6670 H   0  0  0  0  0  0  0  0  0  0  0  0
  -18.0330  -28.1420   22.9090 C   0  0  0  0  0  0  0  0  0  0  0  0
  -20.6020  -28.3740   23.1280 C   0  0  0  0  0  3  0  0  0  0  0  0
  -20.6730  -26.9450   22.5390 C   0  0  0  0  0  2  0  0  0  0  0  0
  -19.5500  -26.6490   21.5400 C   0  0  0  0  0  2  0  0  0  0  0  0
  -18.1820  -26.8000   22.2110 C   0  0  0  0  0  2  0  0  0  0  0  0
  -19.1690  -28.8870   23.3250 C   0  0  0  0  0  0  0  0  0  0  0  0
  -18.9740  -30.1410   23.9450 C   0  0  0  0  0  3  0  0  0  0  0  0
  -17.6770  -30.6510   24.1470 C   0  0  0  0  0  3  0  0  0  0  0  0
  -16.5570  -29.9040   23.7430 C   0  0  0  0  0  3  0  0  0  0  0  0
  -16.7360  -28.6510   23.1320 C   0  0  0  0  0  3  0  0  0  0  0  0
  -25.9450  -32.4640   23.7610 C   0  0  0  0  0  3  0  0  0  0  0  0
  -25.6230  -33.8570   24.1280 N   0  0  0  0  0  0  0  0  0  0  0  0
  -25.9300  -34.9380   23.3960 C   0  0  0  0  0  0  0  0  0  0  0  0
  -26.5740  -34.8670   22.3480 O   0  0  0  0  0  0  0  0  0  0  0  0
  -25.0480  -33.9840   24.9480 H   0  0  0  0  0  0  0  0  0  0  0  0
  -24.1760  -36.7310   23.1510 C   0  0  0  0  0  1  0  0  0  0  0  0
  -25.4490  -36.3130   23.9050 C   0  0  0  0  0  3  0  0  0  0  0  0
  -27.6030  -37.2020   24.6830 C   0  0  0  0  0  1  0  0  0  0  0  0
  -26.4680  -37.3800   23.7810 N   0  0  0  0  0  0  0  0  0  0  0  0
  -26.0600  -38.2930   23.9620 H   0  0  0  0  0  0  0  0  0  0  0  0
  -26.4640  -31.6830   25.0320 C   0  0  1  0  0  0  0  0  0  0  0  0
  -25.3750  -31.4360   26.1020 C   0  0  0  0  0  1  0  0  0  0  0  0
  -27.0450  -30.3060   24.6370 C   0  0  0  0  0  1  0  0  0  0  0  0
  -27.6190  -32.4700   25.6960 C   0  0  0  0  0  1  0  0  0  0  0  0
  1 14  1  0
  2  7  1  0
  3  4  1  0
  3  2  1  0
  5  4  1  0
  5 20  1  0
  5  6  1  0
  7  1  1  0
  7  6  1  0
  8  1  2  0
  9 14  1  0
 10  9  1  0
 10 15  1  0
 11 12  1  0
 12 13  1  0
 14 12  1  0
 15 16  1  1
 15 11  1  0
 17 18  2  0
 18 37  1  0
 19 18  1  0
 19 22  1  0
 20 17  1  0
 20 21  1  0
 21 19  2  0
 22 23  1  0
 23 24  2  0
 25 28  1  0
 25 24  1  0
 26 25  2  0
 27 26  1  0
 27 22  2  0
 28 29  1  0
 29 30  1  0
 30 31  2  0
 32 31  1  0
 32 36  1  0
 33 32  2  0
 34 29  2  0
 34 33  1  0
 35 34  1  0
 37 38  1  0
 38 41  1  0
 38 40  1  0
 39 37  2  0
 42 43  1  0
 42 17  1  0
 44 42  1  0
 45 46  2  0
 45 15  1  0
 47 46  1  0
 48 59  2  0
 49 47  1  0
 49 54  1  0
 50 58  1  0
 50 60  1  0
 51 57  1  0
 51 53  1  0
 52 58  1  0
 53 52  1  0
 54 53  2  0
 55 49  2  0
 56 55  1  0
 56 51  2  0
 57 50  1  0
 58 48  1  0
 60 62  2  0
 61 60  1  0
 63 61  1  0
 64 73  2  0
 64 69  1  0
 65 61  1  0
 65 69  1  0
 66 65  1  0
 67 68  1  0
 67 66  1  0
 68 64  1  0
 69 70  2  0
 70 71  1  0
 72 71  2  0
 73 72  1  0
 74 48  1  0
 74 75  1  0
 74 84  1  0
 75 78  1  0
 76 80  1  0
 76 75  1  0
 77 76  2  0
 80 79  1  0
 82 80  1  0
 82 83  1  0
 82 81  1  0
 84 87  1  1
 84 85  1  0
 86 84  1  0
M  ISO  4   1 100  14 100  46 101  47 101
M  END
>  <TORSDO>  (50) 
F 17

>  <SCORE>  (50) 
-16.037

>  <name>  (50) 
50

>  <ligand_id>  (50) 
50

>  <original_smiles>  (50) 
[H]c1c([H])c([H])c2c(c1[H])C([H])([H])C([H])([H])C([H])([H])C2([H])N([H])C(=O)C1([H])N(C(=O)C([H])(N([H])C(=O)C([H])(N([H])C([H])([H])[H])C([H])([H])[H])C(C([H])([H])[H])(C([H])([H])[H])C([H])([H])[H])C([H])([H])c2c([H])c(OC([H])([H])C([H])([H])[N+]3([H])C([H])([H])C([H])([H])N(C(=O)N4C([H])([H])C([H])([H])C([H])([H])C([H])(n5nc(-c6c([H])c([H])c(Oc7c([H])c([H])c(F)c([H])c7F)c([H])c6[H])c(C(=O)N([H])[H])c5N([H])[H])C4([H])[H])C([H])(C([H])([H])[H])C3([H])[H])c([H])c([H])c2C1([H])[H]

>  <smiles>  (50) 
[H]c1c([H])c([H])c2c(c1[H])C([H])([H])C([H])([H])C([H])([H])C2([H])N([H])C(=O)C1([H])N(C(=O)C([H])(N([H])C(=O)C([H])(N([H])C([H])([H])[H])C([H])([H])[H])C(C([H])([H])[H])(C([H])([H])[H])C([H])([H])[H])C([H])([H])c2c([H])c(OC([H])([H])C([H])([H])[N+]3([H])C([H])([H])C([H])([H])N(C(=O)N4C([H])([H])C([H])([H])C([H])([H])C([H])(n5nc(-c6c([H])c([H])c(Oc7c([H])c([H])c(F)c([H])c7F)c([H])c6[H])c(C(=O)N([H])[H])c5N([H])[H])C4([H])[H])C([H])(C([H])([H])[H])C3([H])[H])c([H])c([H])c2C1([H])[H]

$$$$
51:0:0
     RDKit          3D

 90 98  0  0  1  0  0  0  0  0999 V2000
  -28.9410  -22.5120   20.2230 C   0  0  0  0  0  3  0  0  0  0  0  0
  -30.5480  -15.7050   19.7890 C   0  0  0  0  0  0  0  0  0  0  0  0
  -30.4860  -13.1990   18.9700 C   0  0  0  0  0  2  0  0  0  0  0  0
  -29.5310  -12.8600   17.7980 C   0  0  0  0  0  2  0  0  0  0  0  0
  -28.1270  -12.5420   18.3330 C   0  0  0  0  0  2  0  0  0  0  0  0
  -27.6970  -13.5450   19.4330 C   0  0  0  0  0  3  0  0  0  0  0  0
  -28.7910  -13.8300   20.4850 C   0  0  0  0  0  2  0  0  0  0  0  0
  -29.9400  -14.3930   19.7510 N   0  0  0  0  0  0  0  0  0  0  0  0
  -31.7600  -15.5800   19.5260 O   0  0  0  0  0  0  0  0  0  0  0  0
  -30.6710  -18.4650   19.3820 C   0  0  0  0  0  3  0  0  0  0  0  0
  -28.7310  -17.9070   20.3650 C   0  0  0  0  0  3  0  0  0  0  0  0
  -29.9640  -20.0070   19.0360 C   0  0  0  0  0  3  0  0  0  0  0  0
  -28.7150  -19.5880   20.7840 C   0  0  0  0  0  3  0  0  0  0  0  0
  -29.9550  -17.1310   19.7930 N   0  0  0  0  0  0  0  0  0  0  0  0
  -28.9290  -20.8250   19.8530 N   0  0  0  0  0  0  0  0  0  0  0  0
  -25.4010  -14.0810   20.3710 C   0  0  0  0  0  0  0  0  0  0  0  0
  -24.3620  -13.2980   20.7860 C   0  0  0  0  0  0  0  0  0  0  0  0
  -24.8140  -11.9480   20.6850 C   0  0  0  0  0  0  0  0  0  0  0  0
  -26.4150  -13.2080   20.0300 N   0  0  0  0  0  0  0  0  0  0  0  0
  -26.0830  -11.9160   20.2870 N   0  0  0  0  0  0  0  0  0  0  0  0
  -24.0880  -10.6860   20.8830 C   0  0  0  0  0  0  0  0  0  0  0  0
  -24.5170   -9.7260   21.8270 C   0  0  0  0  0  3  0  0  0  0  0  0
  -23.7850   -8.5340   22.0200 C   0  0  0  0  0  3  0  0  0  0  0  0
  -22.6120   -8.2910   21.2650 C   0  0  0  0  0  0  0  0  0  0  0  0
  -22.2020   -9.2390   20.3110 C   0  0  0  0  0  3  0  0  0  0  0  0
  -22.9340  -10.4230   20.1180 C   0  0  0  0  0  3  0  0  0  0  0  0
  -21.8540   -7.1500   21.3640 O   0  0  0  0  0  0  0  0  0  0  0  0
  -21.7340   -6.4640   22.5450 C   0  0  0  0  0  0  0  0  0  0  0  0
  -21.2010   -7.0680   23.7060 C   0  0  0  0  0  3  0  0  0  0  0  0
  -21.0310   -6.3090   24.8810 C   0  0  0  0  0  3  0  0  0  0  0  0
  -21.3850   -4.9470   24.8940 C   0  0  0  0  0  0  0  0  0  0  0  0
  -21.9100   -4.3410   23.7380 C   0  0  0  0  0  3  0  0  0  0  0  0
  -22.0820   -5.0990   22.5670 C   0  0  0  0  0  0  0  0  0  0  0  0
  -22.5680   -4.5060   21.4500 F   0  0  0  0  0  0  0  0  0  0  0  0
  -21.2150   -4.2140   26.0200 F   0  0  0  0  0  0  0  0  0  0  0  0
  -22.9900  -13.7780   21.1590 C   0  0  0  0  0  0  0  0  0  0  0  0
  -22.3190  -13.0690   22.0580 N   0  0  0  0  0  0  0  0  0  0  0  0
  -22.5300  -14.8180   20.6890 O   0  0  0  0  0  0  0  0  0  0  0  0
  -22.7140  -12.2280   22.4520 H   0  0  0  0  0  0  0  0  0  0  0  0
  -21.4020  -13.3700   22.3570 H   0  0  0  0  0  0  0  0  0  0  0  0
  -25.5600  -15.4550   20.2250 N   0  0  0  0  0  0  0  0  0  0  0  0
  -24.8050  -16.1060   20.4150 H   0  0  0  0  0  0  0  0  0  0  0  0
  -26.3830  -15.9060   19.8470 H   0  0  0  0  0  0  0  0  0  0  0  0
  -28.5530  -22.5500   21.7190 C   0  0  0  0  0  2  0  0  0  0  0  0
  -27.0920  -22.5000   21.8920 N   0  0  0  0  0  4  0  0  0  0  0  0
  -26.8590  -22.3640   22.8590 H   0  0  0  0  0  0  0  0  0  0  0  0
  -26.7340  -21.7320   21.3510 H   0  0  0  0  0  0  0  0  0  0  0  0
  -26.6520  -23.3450   21.5740 H   0  0  0  0  0  0  0  0  0  0  0  0
  -28.2670  -24.1700   19.5900 C   0  0  0  0  0  2  0  0  0  0  0  0
  -28.3200  -25.8440   19.9880 O   0  0  0  0  0  0  0  0  0  0  0  0
  -24.5660  -31.7670   23.0950 C   0  0  0  0  0  0  0  0  0  0  0  0
  -27.2990  -26.9830   19.9250 C   0  0  0  0  0  0  0  0  0  0  0  0
  -23.4360  -30.3850   21.4030 C   0  0  0  0  0  3  0  0  0  0  0  0
  -24.9480  -28.8630   19.9310 C   0  0  0  0  0  0  0  0  0  0  0  0
  -26.0000  -30.6620   21.2840 C   0  0  0  0  0  2  0  0  0  0  0  0
  -26.1220  -29.2640   20.5800 C   0  0  0  0  0  0  0  0  0  0  0  0
  -27.2850  -28.3480   20.5490 C   0  0  0  0  0  3  0  0  0  0  0  0
  -26.0890  -26.7730   19.2230 C   0  0  0  0  0  3  0  0  0  0  0  0
  -24.9630  -27.6450   19.2320 C   0  0  0  0  0  3  0  0  0  0  0  0
  -23.7010  -29.7520   20.0080 C   0  0  0  0  0  2  0  0  0  0  0  0
  -24.6900  -30.9680   21.9820 N   0  0  0  0  0  0  0  0  0  0  0  0
  -23.4620  -32.0010   23.6170 O   0  0  0  0  0  0  0  0  0  0  0  0
  -22.7650  -29.3390   22.3340 C   0  0  0  0  0  0  0  0  0  0  0  0
  -21.4420  -29.1320   22.1970 N   0  0  0  0  0  0  0  0  0  0  0  0
  -23.4450  -28.7140   23.1500 O   0  0  0  0  0  0  0  0  0  0  0  0
  -20.9430  -29.6900   21.5170 H   0  0  0  0  0  0  0  0  0  0  0  0
  -18.1050  -27.7810   22.6690 C   0  0  0  0  0  0  0  0  0  0  0  0
  -20.6550  -28.1350   22.9330 C   0  0  0  0  0  3  0  0  0  0  0  0
  -20.8030  -26.7300   22.3020 C   0  0  0  0  0  2  0  0  0  0  0  0
  -19.7100  -26.4080   21.2780 C   0  0  0  0  0  2  0  0  0  0  0  0
  -18.3290  -26.4710   21.9340 C   0  0  0  0  0  2  0  0  0  0  0  0
  -19.1960  -28.5680   23.1250 C   0  0  0  0  0  0  0  0  0  0  0  0
  -18.9290  -29.7910   23.7790 C   0  0  0  0  0  3  0  0  0  0  0  0
  -17.6060  -30.2280   23.9780 C   0  0  0  0  0  3  0  0  0  0  0  0
  -16.5300  -29.4390   23.5330 C   0  0  0  0  0  3  0  0  0  0  0  0
  -16.7800  -28.2160   22.8860 C   0  0  0  0  0  3  0  0  0  0  0  0
  -25.8050  -32.4420   23.7590 C   0  0  0  0  0  3  0  0  0  0  0  0
  -26.2960  -31.6880   25.0570 C   0  0  1  0  0  0  0  0  0  0  0  0
  -25.1730  -31.4330   26.0890 C   0  0  0  0  0  1  0  0  0  0  0  0
  -26.9200  -30.3200   24.7010 C   0  0  0  0  0  1  0  0  0  0  0  0
  -27.4080  -32.5100   25.7520 C   0  0  0  0  0  1  0  0  0  0  0  0
  -25.4440  -33.8330   24.0920 N   0  0  0  0  0  0  0  0  0  0  0  0
  -25.7440  -34.9060   23.3470 C   0  0  0  0  0  0  0  0  0  0  0  0
  -26.4090  -34.8290   22.3120 O   0  0  0  0  0  0  0  0  0  0  0  0
  -24.8430  -33.9640   24.8920 H   0  0  0  0  0  0  0  0  0  0  0  0
  -23.9480  -36.6500   23.0500 C   0  0  0  0  0  1  0  0  0  0  0  0
  -25.2260  -36.2810   23.8220 C   0  0  0  0  0  3  0  0  0  0  0  0
  -27.3460  -37.2470   24.5990 C   0  0  0  0  0  1  0  0  0  0  0  0
  -26.2190  -37.3680   23.6800 N   0  0  0  0  0  0  0  0  0  0  0  0
  -25.7860  -38.2740   23.8270 H   0  0  0  0  0  0  0  0  0  0  0  0
  1 49  1  0
  1 44  1  0
  2 14  1  0
  3  8  1  0
  4  5  1  0
  4  3  1  0
  6  5  1  0
  6 19  1  0
  6  7  1  0
  8  2  1  0
  8  7  1  0
  9  2  2  0
 10 14  1  0
 11 13  2  0
 12 10  2  0
 12 15  1  0
 14 11  1  0
 15  1  1  0
 15 13  1  0
 16 17  2  0
 17 36  1  0
 18 17  1  0
 18 21  1  0
 19 20  1  0
 19 16  1  0
 20 18  2  0
 21 22  1  0
 22 23  2  0
 24 27  1  0
 24 23  1  0
 25 24  2  0
 26 25  1  0
 26 21  2  0
 27 28  1  0
 28 33  2  0
 28 29  1  0
 29 30  2  0
 30 31  1  0
 31 35  1  0
 32 31  2  0
 33 32  1  0
 34 33  1  0
 36 37  1  0
 37 40  1  0
 37 39  1  0
 38 36  2  0
 41 16  1  0
 41 42  1  0
 43 41  1  0
 44 45  1  0
 45 46  1  0
 47 45  1  0
 48 45  1  0
 49 50  1  0
 51 62  2  0
 52 50  1  0
 52 57  1  0
 53 61  1  0
 53 63  1  0
 54 60  1  0
 54 56  1  0
 55 61  1  0
 56 55  1  0
 57 56  2  0
 58 59  1  0
 58 52  2  0
 59 54  2  0
 60 53  1  0
 61 51  1  0
 63 65  2  0
 64 63  1  0
 66 64  1  0
 67 76  2  0
 67 72  1  0
 68 64  1  0
 68 72  1  0
 69 68  1  0
 70 71  1  0
 70 69  1  0
 71 67  1  0
 72 73  2  0
 73 74  1  0
 75 74  2  0
 76 75  1  0
 77 51  1  0
 77 82  1  0
 77 78  1  0
 78 81  1  1
 78 79  1  0
 80 78  1  0
 82 85  1  0
 83 87  1  0
 83 82  1  0
 84 83  2  0
 87 86  1  0
 89 87  1  0
 89 90  1  0
 89 88  1  0
M  ISO  4   2 100  14 100  49 101  50 101
M  END
>  <TORSDO>  (51) 
F 19

>  <SCORE>  (51) 
-15.986

>  <name>  (51) 
51

>  <ligand_id>  (51) 
51

>  <original_smiles>  (51) 
[H]c1c([H])c([H])c2c(c1[H])C([H])([H])C([H])([H])C([H])([H])C2([H])N([H])C(=O)C1([H])N(C(=O)C([H])(N([H])C(=O)C([H])(N([H])C([H])([H])[H])C([H])([H])[H])C(C([H])([H])[H])(C([H])([H])[H])C([H])([H])[H])C([H])([H])c2c([H])c(OC([H])([H])C([H])(N3C([H])([H])C([H])([H])N(C(=O)N4C([H])([H])C([H])([H])C([H])([H])C([H])(n5nc(-c6c([H])c([H])c(Oc7c([H])c([H])c(F)c([H])c7F)c([H])c6[H])c(C(=O)N([H])[H])c5N([H])[H])C4([H])[H])C([H])([H])C3([H])[H])C([H])([H])[N+]([H])([H])[H])c([H])c([H])c2C1([H])[H]

>  <smiles>  (51) 
[H]c1c([H])c([H])c2c(c1[H])C([H])([H])C([H])([H])C([H])([H])C2([H])N([H])C(=O)C1([H])N(C(=O)C([H])(N([H])C(=O)C([H])(N([H])C([H])([H])[H])C([H])([H])[H])C(C([H])([H])[H])(C([H])([H])[H])C([H])([H])[H])C([H])([H])c2c([H])c(OC([H])([H])C([H])(N3C([H])([H])C([H])([H])N(C(=O)N4C([H])([H])C([H])([H])C([H])([H])C([H])(n5nc(-c6c([H])c([H])c(Oc7c([H])c([H])c(F)c([H])c7F)c([H])c6[H])c(C(=O)N([H])[H])c5N([H])[H])C4([H])[H])C([H])([H])C3([H])[H])C([H])([H])[N+]([H])([H])[H])c([H])c([H])c2C1([H])[H]

$$$$
52:0:0
     RDKit          3D

 96105  0  0  1  0  0  0  0  0999 V2000
  -28.7820  -22.4040   19.9090 C   0  0  0  0  0  3  0  0  0  0  0  0
  -30.4940  -15.6260   20.2580 C   0  0  0  0  0  0  0  0  0  0  0  0
  -30.4660  -13.1420   19.3660 C   0  0  0  0  0  2  0  0  0  0  0  0
  -29.5630  -12.8020   18.1520 C   0  0  0  0  0  2  0  0  0  0  0  0
  -28.1370  -12.4730   18.6180 C   0  0  0  0  0  2  0  0  0  0  0  0
  -27.6520  -13.4590   19.7070 C   0  0  0  0  0  3  0  0  0  0  0  0
  -28.6990  -13.7350   20.8120 C   0  0  0  0  0  2  0  0  0  0  0  0
  -29.8730  -14.3210   20.1310 N   0  0  0  0  0  0  0  0  0  0  0  0
  -31.7260  -15.4750   20.1570 O   0  0  0  0  0  0  0  0  0  0  0  0
  -30.7170  -18.3610   20.7550 C   0  0  0  0  0  2  0  0  0  0  0  0
  -28.5720  -17.8330   20.1990 C   0  0  0  0  0  2  0  0  0  0  0  0
  -30.4290  -20.0170   20.3860 C   0  0  0  0  0  2  0  0  0  0  0  0
  -28.2980  -19.5110   19.8360 C   0  0  0  0  0  2  0  0  0  0  0  0
  -29.9330  -17.0680   20.3330 N   0  0  0  0  0  0  0  0  0  0  0  0
  -29.0480  -20.7570   20.4540 N   0  0  2  0  0  4  0  0  0  0  0  0
  -28.7850  -20.7630   21.4290 H   0  0  0  0  0  0  0  0  0  0  0  0
  -25.2920  -13.9790   20.4820 C   0  0  0  0  0  0  0  0  0  0  0  0
  -24.2380  -13.1910   20.8480 C   0  0  0  0  0  0  0  0  0  0  0  0
  -24.7210  -11.8460   20.8210 C   0  0  0  0  0  0  0  0  0  0  0  0
  -26.3410  -13.1160   20.2370 N   0  0  0  0  0  0  0  0  0  0  0  0
  -26.0140  -11.8260   20.5110 N   0  0  0  0  0  0  0  0  0  0  0  0
  -24.0040  -10.5760   21.0090 C   0  0  0  0  0  0  0  0  0  0  0  0
  -24.4320   -9.6180   21.9550 C   0  0  0  0  0  3  0  0  0  0  0  0
  -23.7110   -8.4180   22.1330 C   0  0  0  0  0  3  0  0  0  0  0  0
  -22.5480   -8.1660   21.3680 C   0  0  0  0  0  0  0  0  0  0  0  0
  -22.1410   -9.1110   20.4110 C   0  0  0  0  0  3  0  0  0  0  0  0
  -22.8630  -10.3040   20.2290 C   0  0  0  0  0  3  0  0  0  0  0  0
  -21.8000   -7.0170   21.4580 O   0  0  0  0  0  0  0  0  0  0  0  0
  -21.7390   -6.2840   22.6150 C   0  0  0  0  0  0  0  0  0  0  0  0
  -21.2880   -6.8460   23.8300 C   0  0  0  0  0  3  0  0  0  0  0  0
  -21.1750   -6.0400   24.9800 C   0  0  0  0  0  3  0  0  0  0  0  0
  -21.5030   -4.6720   24.9190 C   0  0  0  0  0  0  0  0  0  0  0  0
  -21.9490   -4.1090   23.7080 C   0  0  0  0  0  3  0  0  0  0  0  0
  -22.0630   -4.9130   22.5610 C   0  0  0  0  0  0  0  0  0  0  0  0
  -22.4720   -4.3600   21.3930 F   0  0  0  0  0  0  0  0  0  0  0  0
  -21.3890   -3.8950   26.0210 F   0  0  0  0  0  0  0  0  0  0  0  0
  -22.8360  -13.6560   21.1080 C   0  0  0  0  0  0  0  0  0  0  0  0
  -22.1090  -12.9590   21.9720 N   0  0  0  0  0  0  0  0  0  0  0  0
  -22.3950  -14.6740   20.5760 O   0  0  0  0  0  0  0  0  0  0  0  0
  -22.4790  -12.1380   22.4260 H   0  0  0  0  0  0  0  0  0  0  0  0
  -21.1670  -13.2530   22.1860 H   0  0  0  0  0  0  0  0  0  0  0  0
  -25.4420  -15.3520   20.3040 N   0  0  0  0  0  0  0  0  0  0  0  0
  -24.6730  -16.0030   20.4180 H   0  0  0  0  0  0  0  0  0  0  0  0
  -26.2920  -15.7910   19.9770 H   0  0  0  0  0  0  0  0  0  0  0  0
  -31.9860  -23.7960   18.3140 C   0  0  0  0  0  2  0  0  0  0  0  0
  -30.9180  -24.3820   17.3830 C   0  0  0  0  0  2  0  0  0  0  0  0
  -31.2480  -22.9300   19.3410 C   0  0  0  0  0  2  0  0  0  0  0  0
  -29.5510  -24.0450   18.0000 C   0  0  0  0  0  3  0  0  0  0  0  0
  -29.8190  -22.7500   18.8030 C   0  0  0  0  0  3  0  0  0  0  0  0
  -28.4300  -23.9240   16.9380 C   0  0  0  0  0  2  0  0  0  0  0  0
  -28.0960  -25.2220   16.3260 N   0  0  0  0  0  4  0  0  0  0  0  0
  -27.7410  -25.8630   17.0130 H   0  0  0  0  0  0  0  0  0  0  0  0
  -27.3880  -25.0980   15.6240 H   0  0  0  0  0  0  0  0  0  0  0  0
  -28.9000  -25.6330   15.8850 H   0  0  0  0  0  0  0  0  0  0  0  0
  -28.1660  -24.0370   20.6530 C   0  0  0  0  0  2  0  0  0  0  0  0
  -28.2740  -25.7450   20.4120 O   0  0  0  0  0  0  0  0  0  0  0  0
  -24.6710  -31.9440   23.2640 C   0  0  0  0  0  0  0  0  0  0  0  0
  -27.2620  -26.8900   20.4030 C   0  0  0  0  0  0  0  0  0  0  0  0
  -23.5070  -30.5070   21.6450 C   0  0  0  0  0  3  0  0  0  0  0  0
  -24.9760  -28.8520   20.2850 C   0  0  0  0  0  0  0  0  0  0  0  0
  -26.0820  -30.6870   21.5370 C   0  0  0  0  0  2  0  0  0  0  0  0
  -26.1620  -29.2480   20.9140 C   0  0  0  0  0  0  0  0  0  0  0  0
  -27.2980  -28.2950   20.9350 C   0  0  0  0  0  3  0  0  0  0  0  0
  -26.0390  -26.6790   19.7240 C   0  0  0  0  0  3  0  0  0  0  0  0
  -24.9480  -27.5910   19.6670 C   0  0  0  0  0  3  0  0  0  0  0  0
  -23.7620  -29.7870   20.2910 C   0  0  0  0  0  2  0  0  0  0  0  0
  -24.7760  -31.0780   22.2010 N   0  0  0  0  0  0  0  0  0  0  0  0
  -23.5700  -32.2420   23.7610 O   0  0  0  0  0  0  0  0  0  0  0  0
  -22.7960  -29.5360   22.6260 C   0  0  0  0  0  0  0  0  0  0  0  0
  -21.4680  -29.3590   22.4850 N   0  0  0  0  0  0  0  0  0  0  0  0
  -23.4490  -28.9390   23.4860 O   0  0  0  0  0  0  0  0  0  0  0  0
  -20.9920  -29.8890   21.7680 H   0  0  0  0  0  0  0  0  0  0  0  0
  -18.0890  -28.1190   22.9710 C   0  0  0  0  0  0  0  0  0  0  0  0
  -20.6410  -28.4340   23.2680 C   0  0  0  0  0  3  0  0  0  0  0  0
  -20.7730  -26.9880   22.7360 C   0  0  0  0  0  2  0  0  0  0  0  0
  -19.6930  -26.6210   21.7120 C   0  0  0  0  0  2  0  0  0  0  0  0
  -18.2980  -26.7580   22.3290 C   0  0  0  0  0  2  0  0  0  0  0  0
  -19.1880  -28.9130   23.3980 C   0  0  0  0  0  0  0  0  0  0  0  0
  -18.9360  -30.1820   23.9620 C   0  0  0  0  0  3  0  0  0  0  0  0
  -17.6190  -30.6610   24.1020 C   0  0  0  0  0  3  0  0  0  0  0  0
  -16.5360  -29.8670   23.6890 C   0  0  0  0  0  3  0  0  0  0  0  0
  -16.7710  -28.5980   23.1300 C   0  0  0  0  0  3  0  0  0  0  0  0
  -25.9240  -32.6150   23.9020 C   0  0  0  0  0  3  0  0  0  0  0  0
  -26.4170  -31.8820   25.2110 C   0  0  1  0  0  0  0  0  0  0  0  0
  -25.3010  -31.6590   26.2590 C   0  0  0  0  0  1  0  0  0  0  0  0
  -27.0240  -30.5000   24.8780 C   0  0  0  0  0  1  0  0  0  0  0  0
  -27.5450  -32.7040   25.8790 C   0  0  0  0  0  1  0  0  0  0  0  0
  -25.5870  -34.0180   24.2100 N   0  0  0  0  0  0  0  0  0  0  0  0
  -25.9180  -35.0740   23.4540 C   0  0  0  0  0  0  0  0  0  0  0  0
  -26.5970  -34.9700   22.4310 O   0  0  0  0  0  0  0  0  0  0  0  0
  -24.9800  -34.1690   25.0030 H   0  0  0  0  0  0  0  0  0  0  0  0
  -24.1740  -36.8570   23.0880 C   0  0  0  0  0  1  0  0  0  0  0  0
  -25.4190  -36.4660   23.9010 C   0  0  0  0  0  3  0  0  0  0  0  0
  -27.5460  -37.3820   24.7240 C   0  0  0  0  0  1  0  0  0  0  0  0
  -26.4440  -37.5280   23.7770 N   0  0  0  0  0  0  0  0  0  0  0  0
  -26.0300  -38.4460   23.9120 H   0  0  0  0  0  0  0  0  0  0  0  0
  1 15  1  0
  1 55  1  0
  2 14  1  0
  3  8  1  0
  4  5  1  0
  4  3  1  0
  6  5  1  0
  6 20  1  0
  6  7  1  0
  8  2  1  0
  8  7  1  0
  9  2  2  0
 11 14  1  0
 12 15  1  0
 12 10  1  0
 13 11  1  0
 13 15  1  0
 14 10  1  0
 15 16  1  1
 17 18  2  0
 18 37  1  0
 19 18  1  0
 19 22  1  0
 20 17  1  0
 20 21  1  0
 21 19  2  0
 22 23  1  0
 23 24  2  0
 25 28  1  0
 25 24  1  0
 26 25  2  0
 27 26  1  0
 27 22  2  0
 28 29  1  0
 29 30  1  0
 30 31  2  0
 32 31  1  0
 32 36  1  0
 33 32  2  0
 34 29  2  0
 34 33  1  0
 35 34  1  0
 37 38  1  0
 38 41  1  0
 38 40  1  0
 39 37  2  0
 42 43  1  0
 42 17  1  0
 44 42  1  0
 45 47  1  0
 46 48  1  0
 46 45  1  0
 48 50  1  0
 48 49  1  0
 49 47  1  0
 49  1  1  0
 51 50  1  0
 51 52  1  0
 53 51  1  0
 54 51  1  0
 56 55  1  0
 57 68  2  0
 58 56  1  0
 58 63  1  0
 59 67  1  0
 59 69  1  0
 60 66  1  0
 60 62  1  0
 61 67  1  0
 62 63  2  0
 62 61  1  0
 64 58  2  0
 65 64  1  0
 65 60  2  0
 66 59  1  0
 67 57  1  0
 69 71  2  0
 70 69  1  0
 72 70  1  0
 73 82  2  0
 73 78  1  0
 74 70  1  0
 74 78  1  0
 75 74  1  0
 76 77  1  0
 76 75  1  0
 77 73  1  0
 78 79  2  0
 79 80  1  0
 81 80  2  0
 82 81  1  0
 83 57  1  0
 83 88  1  0
 83 84  1  0
 84 87  1  1
 84 85  1  0
 86 84  1  0
 88 91  1  0
 89 93  1  0
 89 88  1  0
 90 89  2  0
 93 92  1  0
 95 93  1  0
 95 96  1  0
 95 94  1  0
M  ISO  4   2 100  14 100  55 101  56 101
M  END
>  <TORSDO>  (52) 
F 20

>  <SCORE>  (52) 
-15.715

>  <name>  (52) 
52

>  <ligand_id>  (52) 
52

>  <original_smiles>  (52) 
[H]c1c([H])c([H])c2c(c1[H])C([H])([H])C([H])([H])C([H])([H])C2([H])N([H])C(=O)C1([H])N(C(=O)C([H])(N([H])C(=O)C([H])(N([H])C([H])([H])[H])C([H])([H])[H])C(C([H])([H])[H])(C([H])([H])[H])C([H])([H])[H])C([H])([H])c2c([H])c(OC([H])([H])C([H])(C3([H])C([H])([H])C([H])([H])C([H])([H])C3([H])C([H])([H])[N+]([H])([H])[H])[N+]3([H])C([H])([H])C([H])([H])N(C(=O)N4C([H])([H])C([H])([H])C([H])([H])C([H])(n5nc(-c6c([H])c([H])c(Oc7c([H])c([H])c(F)c([H])c7F)c([H])c6[H])c(C(=O)N([H])[H])c5N([H])[H])C4([H])[H])C([H])([H])C3([H])[H])c([H])c([H])c2C1([H])[H]

>  <smiles>  (52) 
[H]c1c([H])c([H])c2c(c1[H])C([H])([H])C([H])([H])C([H])([H])C2([H])N([H])C(=O)C1([H])N(C(=O)C([H])(N([H])C(=O)C([H])(N([H])C([H])([H])[H])C([H])([H])[H])C(C([H])([H])[H])(C([H])([H])[H])C([H])([H])[H])C([H])([H])c2c([H])c(OC([H])([H])C([H])(C3([H])C([H])([H])C([H])([H])C([H])([H])C3([H])C([H])([H])[N+]([H])([H])[H])[N+]3([H])C([H])([H])C([H])([H])N(C(=O)N4C([H])([H])C([H])([H])C([H])([H])C([H])(n5nc(-c6c([H])c([H])c(Oc7c([H])c([H])c(F)c([H])c7F)c([H])c6[H])c(C(=O)N([H])[H])c5N([H])[H])C4([H])[H])C([H])([H])C3([H])[H])c([H])c([H])c2C1([H])[H]

$$$$
53:0:0
     RDKit          3D

 94102  0  0  1  0  0  0  0  0999 V2000
  -30.4270  -20.5340   19.8580 C   0  0  0  0  0  2  0  0  0  0  0  0
  -30.2920  -18.1060   19.9040 C   0  0  0  0  0  0  0  0  0  0  0  0
  -29.7110  -19.2630   20.1080 N   0  0  0  0  0  2  0  0  0  0  0  0
  -31.5560  -17.9020   19.3960 N   0  0  0  0  0  4  0  0  0  0  0  0
  -31.9400  -16.9810   19.2060 H   0  0  0  0  0  0  0  0  0  0  0  0
  -32.2020  -18.6230   19.1040 H   0  0  0  0  0  0  0  0  0  0  0  0
  -30.8600  -14.6420   19.6510 C   0  0  0  0  0  0  0  0  0  0  0  0
  -30.3980  -12.5480   18.3970 C   0  0  0  0  0  2  0  0  0  0  0  0
  -29.3070  -12.7920   17.3340 C   0  0  0  0  0  2  0  0  0  0  0  0
  -27.8990  -12.6250   17.9390 C   0  0  0  0  0  2  0  0  0  0  0  0
  -27.7290  -13.3990   19.2730 C   0  0  0  0  0  3  0  0  0  0  0  0
  -28.9110  -13.1240   20.2240 C   0  0  0  0  0  2  0  0  0  0  0  0
  -30.1580  -13.4750   19.5200 N   0  0  0  0  0  0  0  0  0  0  0  0
  -31.8580  -14.8960   18.9660 O   0  0  0  0  0  0  0  0  0  0  0  0
  -29.8070  -16.5120   22.6490 C   0  0  0  0  0  2  0  0  0  0  0  0
  -28.7840  -16.9000   21.5830 C   0  0  0  0  0  2  0  0  0  0  0  0
  -30.7130  -15.4900   21.9580 C   0  0  0  0  0  2  0  0  0  0  0  0
  -29.5520  -16.7690   20.2560 C   0  0  0  0  0  3  0  0  0  0  0  0
  -30.3810  -15.5580   20.5330 N   0  0  0  0  0  0  0  0  0  0  0  0
  -25.4250  -13.9800   20.2590 C   0  0  0  0  0  0  0  0  0  0  0  0
  -24.4160  -13.1970   20.7510 C   0  0  0  0  0  0  0  0  0  0  0  0
  -24.8820  -11.8490   20.6600 C   0  0  0  0  0  0  0  0  0  0  0  0
  -26.4450  -13.1090   19.9060 N   0  0  0  0  0  0  0  0  0  0  0  0
  -26.1280  -11.8230   20.2020 N   0  0  0  0  0  0  0  0  0  0  0  0
  -24.1960  -10.5790   20.9270 C   0  0  0  0  0  0  0  0  0  0  0  0
  -24.6480   -9.6890   21.9260 C   0  0  0  0  0  3  0  0  0  0  0  0
  -23.9580   -8.4830   22.1760 C   0  0  0  0  0  3  0  0  0  0  0  0
  -22.8020   -8.1580   21.4270 C   0  0  0  0  0  0  0  0  0  0  0  0
  -22.3690   -9.0380   20.4190 C   0  0  0  0  0  3  0  0  0  0  0  0
  -23.0610  -10.2340   20.1670 C   0  0  0  0  0  3  0  0  0  0  0  0
  -22.0840   -6.9970   21.5830 O   0  0  0  0  0  0  0  0  0  0  0  0
  -21.9300   -6.4040   22.8110 C   0  0  0  0  0  0  0  0  0  0  0  0
  -21.3670   -7.0950   23.9070 C   0  0  0  0  0  3  0  0  0  0  0  0
  -21.1640   -6.4280   25.1300 C   0  0  0  0  0  3  0  0  0  0  0  0
  -21.5130   -5.0700   25.2590 C   0  0  0  0  0  0  0  0  0  0  0  0
  -22.0690   -4.3800   24.1670 C   0  0  0  0  0  3  0  0  0  0  0  0
  -22.2750   -5.0450   22.9470 C   0  0  0  0  0  0  0  0  0  0  0  0
  -22.7910   -4.3690   21.8910 F   0  0  0  0  0  0  0  0  0  0  0  0
  -21.3120   -4.4250   26.4320 F   0  0  0  0  0  0  0  0  0  0  0  0
  -23.0550  -13.6600   21.1870 C   0  0  0  0  0  0  0  0  0  0  0  0
  -22.4590  -12.9810   22.1610 N   0  0  0  0  0  0  0  0  0  0  0  0
  -22.5330  -14.6610   20.6970 O   0  0  0  0  0  0  0  0  0  0  0  0
  -22.8970  -12.1720   22.5750 H   0  0  0  0  0  0  0  0  0  0  0  0
  -21.5510  -13.2720   22.4930 H   0  0  0  0  0  0  0  0  0  0  0  0
  -25.5530  -15.3500   20.0590 N   0  0  0  0  0  0  0  0  0  0  0  0
  -24.7990  -15.9990   20.2550 H   0  0  0  0  0  0  0  0  0  0  0  0
  -26.3530  -15.7930   19.6260 H   0  0  0  0  0  0  0  0  0  0  0  0
  -29.5240  -21.7210   19.3350 C   0  0  0  0  0  2  0  0  0  0  0  0
  -29.3600  -22.8970   20.2580 N   0  0  0  0  0  4  0  0  0  0  0  0
  -30.2190  -23.0010   20.7770 H   0  0  0  0  0  0  0  0  0  0  0  0
  -28.6420  -22.6540   20.9240 H   0  0  0  0  0  0  0  0  0  0  0  0
  -29.0370  -24.2240   19.6080 C   0  0  0  0  0  3  0  0  0  0  0  0
  -28.6210  -25.3790   20.5920 C   0  0  0  0  0  3  0  0  0  0  0  0
  -28.6730  -26.7380   20.0550 O   0  0  0  0  0  0  0  0  0  0  0  0
  -24.6390  -31.8320   23.1000 C   0  0  0  0  0  0  0  0  0  0  0  0
  -27.4940  -27.4720   20.0470 C   0  0  0  0  0  0  0  0  0  0  0  0
  -23.5230  -30.4230   21.4020 C   0  0  0  0  0  3  0  0  0  0  0  0
  -25.0630  -28.9420   20.0010 C   0  0  0  0  0  0  0  0  0  0  0  0
  -26.0460  -30.8460   21.2860 C   0  0  0  0  0  2  0  0  0  0  0  0
  -26.1910  -29.4840   20.6280 C   0  0  0  0  0  0  0  0  0  0  0  0
  -27.4130  -28.7610   20.6390 C   0  0  0  0  0  3  0  0  0  0  0  0
  -26.3460  -26.9550   19.4110 C   0  0  0  0  0  3  0  0  0  0  0  0
  -25.1370  -27.6790   19.3850 C   0  0  0  0  0  3  0  0  0  0  0  0
  -23.7940  -29.7690   20.0210 C   0  0  0  0  0  2  0  0  0  0  0  0
  -24.7520  -31.0500   21.9880 N   0  0  0  0  0  0  0  0  0  0  0  0
  -23.5350  -32.0640   23.6130 O   0  0  0  0  0  0  0  0  0  0  0  0
  -22.8700  -29.3710   22.3290 C   0  0  0  0  0  0  0  0  0  0  0  0
  -21.5490  -29.1760   22.1800 N   0  0  0  0  0  0  0  0  0  0  0  0
  -23.5510  -28.7340   23.1370 O   0  0  0  0  0  0  0  0  0  0  0  0
  -21.0610  -29.7440   21.5020 H   0  0  0  0  0  0  0  0  0  0  0  0
  -18.1800  -27.9510   22.6360 C   0  0  0  0  0  0  0  0  0  0  0  0
  -20.7360  -28.2070   22.9150 C   0  0  0  0  0  3  0  0  0  0  0  0
  -20.8430  -26.7990   22.2840 C   0  0  0  0  0  2  0  0  0  0  0  0
  -19.7410  -26.5130   21.2590 C   0  0  0  0  0  2  0  0  0  0  0  0
  -18.3600  -26.6290   21.9090 C   0  0  0  0  0  2  0  0  0  0  0  0
  -19.2960  -28.7000   23.0940 C   0  0  0  0  0  0  0  0  0  0  0  0
  -19.0750  -29.9390   23.7330 C   0  0  0  0  0  3  0  0  0  0  0  0
  -17.7690  -30.4300   23.9190 C   0  0  0  0  0  3  0  0  0  0  0  0
  -16.6660  -29.6780   23.4770 C   0  0  0  0  0  3  0  0  0  0  0  0
  -16.8730  -28.4400   22.8420 C   0  0  0  0  0  3  0  0  0  0  0  0
  -25.8870  -32.4910   23.7680 C   0  0  0  0  0  3  0  0  0  0  0  0
  -25.5260  -33.8690   24.1200 N   0  0  0  0  0  0  0  0  0  0  0  0
  -25.8460  -34.9490   23.3940 C   0  0  0  0  0  0  0  0  0  0  0  0
  -26.5470  -34.8900   22.3790 O   0  0  0  0  0  0  0  0  0  0  0  0
  -24.9050  -33.9880   24.9070 H   0  0  0  0  0  0  0  0  0  0  0  0
  -24.0800  -36.7020   23.0210 C   0  0  0  0  0  1  0  0  0  0  0  0
  -25.3020  -36.3110   23.8680 C   0  0  0  0  0  3  0  0  0  0  0  0
  -27.3750  -37.2370   24.8030 C   0  0  0  0  0  1  0  0  0  0  0  0
  -26.3080  -37.3960   23.8190 N   0  0  0  0  0  0  0  0  0  0  0  0
  -25.8690  -38.3000   23.9700 H   0  0  0  0  0  0  0  0  0  0  0  0
  -26.3980  -31.7070   25.0390 C   0  0  1  0  0  0  0  0  0  0  0  0
  -25.2860  -31.4030   26.0720 C   0  0  0  0  0  1  0  0  0  0  0  0
  -27.0400  -30.3610   24.6300 C   0  0  0  0  0  1  0  0  0  0  0  0
  -27.5010  -32.5240   25.7510 C   0  0  0  0  0  1  0  0  0  0  0  0
  1  3  1  0
  2  3  1  0
  4  2  2  0
  5  4  1  0
  6  4  1  0
  7 19  1  0
  8 13  1  0
  9 10  1  0
  9  8  1  0
 11 10  1  0
 11 23  1  0
 11 12  1  0
 13  7  1  0
 13 12  1  0
 14  7  2  0
 16 15  1  0
 17 15  1  0
 18  2  1  0
 18 19  1  0
 18 16  1  0
 19 17  1  0
 20 21  2  0
 21 40  1  0
 22 21  1  0
 22 25  1  0
 23 24  1  0
 23 20  1  0
 24 22  2  0
 25 26  1  0
 26 27  2  0
 28 31  1  0
 28 27  1  0
 29 28  2  0
 30 29  1  0
 30 25  2  0
 31 32  1  0
 32 37  2  0
 32 33  1  0
 33 34  2  0
 34 35  1  0
 35 39  1  0
 36 35  2  0
 37 36  1  0
 38 37  1  0
 40 41  1  0
 41 44  1  0
 41 43  1  0
 42 40  2  0
 45 46  1  0
 45 20  1  0
 47 45  1  0
 48  1  1  0
 48 49  1  0
 49 50  1  0
 49 51  1  0
 52 49  1  0
 52 53  2  0
 54 53  1  0
 55 66  2  0
 56 54  1  0
 56 61  1  0
 57 65  1  0
 57 67  1  0
 58 64  1  0
 58 60  1  0
 59 65  1  0
 60 61  2  0
 60 59  1  0
 62 56  2  0
 63 62  1  0
 63 58  2  0
 64 57  1  0
 65 55  1  0
 67 69  2  0
 68 67  1  0
 70 68  1  0
 71 80  2  0
 71 76  1  0
 72 68  1  0
 72 76  1  0
 73 72  1  0
 74 75  1  0
 74 73  1  0
 75 71  1  0
 76 77  2  0
 77 78  1  0
 79 78  2  0
 80 79  1  0
 81 55  1  0
 81 82  1  0
 81 91  1  0
 82 85  1  0
 83 87  1  0
 83 82  1  0
 84 83  2  0
 87 86  1  0
 89 87  1  0
 89 90  1  0
 89 88  1  0
 91 94  1  1
 91 92  1  0
 93 91  1  0
M  ISO  4   7 100  19 100  53 101  54 101
M  END
>  <TORSDO>  (53) 
F 21

>  <SCORE>  (53) 
-10.016

>  <name>  (53) 
53

>  <ligand_id>  (53) 
53

>  <original_smiles>  (53) 
[H]c1c([H])c([H])c2c(c1[H])C([H])([H])C([H])([H])C([H])([H])C2([H])N([H])C(=O)C1([H])N(C(=O)C([H])(N([H])C(=O)C([H])(N([H])C([H])([H])[H])C([H])([H])[H])C(C([H])([H])[H])(C([H])([H])[H])C([H])([H])[H])C([H])([H])c2c([H])c(OC([H])([H])C([H])([H])[N+]([H])([H])C([H])([H])C([H])([H])N=C(N([H])[H])C3([H])N(C(=O)N4C([H])([H])C([H])([H])C([H])([H])C([H])(n5nc(-c6c([H])c([H])c(Oc7c([H])c([H])c(F)c([H])c7F)c([H])c6[H])c(C(=O)N([H])[H])c5N([H])[H])C4([H])[H])C([H])([H])C([H])([H])C3([H])[H])c([H])c([H])c2C1([H])[H]

>  <smiles>  (53) 
[H]c1c([H])c([H])c2c(c1[H])C([H])([H])C([H])([H])C([H])([H])C2([H])N([H])C(=O)C1([H])N(C(=O)C([H])(N([H])C(=O)C([H])(N([H])C([H])([H])[H])C([H])([H])[H])C(C([H])([H])[H])(C([H])([H])[H])C([H])([H])[H])C([H])([H])c2c([H])c(OC([H])([H])C([H])([H])[N+]([H])([H])C([H])([H])C([H])([H])N=C(N([H])[H])C3([H])N(C(=O)N4C([H])([H])C([H])([H])C([H])([H])C([H])(n5nc(-c6c([H])c([H])c(Oc7c([H])c([H])c(F)c([H])c7F)c([H])c6[H])c(C(=O)N([H])[H])c5N([H])[H])C4([H])[H])C([H])([H])C([H])([H])C3([H])[H])c([H])c([H])c2C1([H])[H]

$$$$
54:0:0
     RDKit          3D

 91100  0  0  1  0  0  0  0  0999 V2000
  -30.8610  -14.8420   20.2480 C   0  0  0  0  0  0  0  0  0  0  0  0
  -30.5990  -12.5030   19.3660 C   0  0  0  0  0  2  0  0  0  0  0  0
  -29.6750  -12.5080   18.1280 C   0  0  0  0  0  2  0  0  0  0  0  0
  -28.2000  -12.3880   18.5570 C   0  0  0  0  0  2  0  0  0  0  0  0
  -27.8360  -13.3530   19.7160 C   0  0  0  0  0  3  0  0  0  0  0  0
  -28.8860  -13.3330   20.8480 C   0  0  0  0  0  2  0  0  0  0  0  0
  -30.1850  -13.6340   20.2360 N   0  0  0  0  0  0  0  0  0  0  0  0
  -32.0490  -14.8510   19.9090 O   0  0  0  0  0  0  0  0  0  0  0  0
  -30.8790  -20.3510   22.9600 C   0  0  0  0  0  2  0  0  0  0  0  0
  -30.2500  -18.9630   22.9580 C   0  0  0  0  0  2  0  0  0  0  0  0
  -30.1100  -18.5510   19.1940 C   0  0  0  0  0  2  0  0  0  0  0  0
  -29.8760  -16.9550   19.1280 C   0  0  0  0  0  2  0  0  0  0  0  0
  -29.9480  -16.8450   21.5620 C   0  0  0  0  0  2  0  0  0  0  0  0
  -30.1150  -21.3030   22.0330 C   0  0  0  0  0  2  0  0  0  0  0  0
  -30.3700  -18.3830   21.5520 C   0  0  0  0  0  3  0  0  0  0  0  0
  -29.6730  -19.3340   20.4870 C   0  0  0  0  0  3  0  0  0  0  0  0
  -30.1510  -16.0620   20.3140 N   0  0  0  0  0  0  0  0  0  0  0  0
  -30.0250  -20.8770   20.6020 N   0  0  1  0  0  4  0  0  0  0  0  0
  -30.9680  -20.9540   20.2500 H   0  0  0  0  0  0  0  0  0  0  0  0
  -25.4810  -14.0420   20.4480 C   0  0  0  0  0  0  0  0  0  0  0  0
  -24.3840  -13.3150   20.8220 C   0  0  0  0  0  0  0  0  0  0  0  0
  -24.7900  -11.9450   20.8000 C   0  0  0  0  0  0  0  0  0  0  0  0
  -26.4860  -13.1180   20.2150 N   0  0  0  0  0  0  0  0  0  0  0  0
  -26.0780  -11.8530   20.4910 N   0  0  0  0  0  0  0  0  0  0  0  0
  -24.0110  -10.7160   20.9970 C   0  0  0  0  0  0  0  0  0  0  0  0
  -24.4050   -9.7320   21.9300 C   0  0  0  0  0  3  0  0  0  0  0  0
  -23.6280   -8.5690   22.1160 C   0  0  0  0  0  3  0  0  0  0  0  0
  -22.4410   -8.3810   21.3690 C   0  0  0  0  0  0  0  0  0  0  0  0
  -22.0640   -9.3530   20.4250 C   0  0  0  0  0  3  0  0  0  0  0  0
  -22.8420  -10.5080   20.2370 C   0  0  0  0  0  3  0  0  0  0  0  0
  -21.6370   -7.2710   21.4650 O   0  0  0  0  0  0  0  0  0  0  0  0
  -21.5770   -6.5210   22.6120 C   0  0  0  0  0  0  0  0  0  0  0  0
  -21.1940   -7.0810   23.8500 C   0  0  0  0  0  3  0  0  0  0  0  0
  -21.0810   -6.2590   24.9890 C   0  0  0  0  0  3  0  0  0  0  0  0
  -21.3410   -4.8800   24.8910 C   0  0  0  0  0  0  0  0  0  0  0  0
  -21.7170   -4.3190   23.6580 C   0  0  0  0  0  3  0  0  0  0  0  0
  -21.8320   -5.1370   22.5210 C   0  0  0  0  0  0  0  0  0  0  0  0
  -22.1740   -4.5890   21.3310 F   0  0  0  0  0  0  0  0  0  0  0  0
  -21.2240   -4.0880   25.9830 F   0  0  0  0  0  0  0  0  0  0  0  0
  -23.0080  -13.8530   21.0900 C   0  0  0  0  0  0  0  0  0  0  0  0
  -22.2590  -13.2040   21.9740 N   0  0  0  0  0  0  0  0  0  0  0  0
  -22.6100  -14.8840   20.5500 O   0  0  0  0  0  0  0  0  0  0  0  0
  -22.5940  -12.3700   22.4310 H   0  0  0  0  0  0  0  0  0  0  0  0
  -21.3350  -13.5480   22.1970 H   0  0  0  0  0  0  0  0  0  0  0  0
  -25.7050  -15.4030   20.2630 N   0  0  0  0  0  0  0  0  0  0  0  0
  -24.9710  -16.0940   20.3760 H   0  0  0  0  0  0  0  0  0  0  0  0
  -26.5810  -15.8020   19.9520 H   0  0  0  0  0  0  0  0  0  0  0  0
  -29.2110  -21.9890   19.8470 C   0  0  0  0  0  2  0  0  0  0  0  0
  -29.4080  -23.6110   20.2090 C   0  0  0  0  0  3  0  0  0  0  0  0
  -28.4220  -24.8190   19.6720 C   0  0  0  0  0  3  0  0  0  0  0  0
  -28.5660  -26.3020   20.0280 O   0  0  0  0  0  0  0  0  0  0  0  0
  -24.6160  -31.6250   23.1100 C   0  0  0  0  0  0  0  0  0  0  0  0
  -27.4470  -27.1880   19.9630 C   0  0  0  0  0  0  0  0  0  0  0  0
  -23.4930  -30.2120   21.4290 C   0  0  0  0  0  3  0  0  0  0  0  0
  -25.0240  -28.7630   19.9670 C   0  0  0  0  0  0  0  0  0  0  0  0
  -26.0240  -30.6300   21.2780 C   0  0  0  0  0  2  0  0  0  0  0  0
  -26.1720  -29.2670   20.5910 C   0  0  0  0  0  0  0  0  0  0  0  0
  -27.3830  -28.4940   20.5770 C   0  0  0  0  0  3  0  0  0  0  0  0
  -26.2720  -26.7730   19.2960 C   0  0  0  0  0  3  0  0  0  0  0  0
  -25.0820  -27.5280   19.3050 C   0  0  0  0  0  3  0  0  0  0  0  0
  -23.7480  -29.5850   20.0330 C   0  0  0  0  0  2  0  0  0  0  0  0
  -24.7300  -30.8420   21.9940 N   0  0  0  0  0  0  0  0  0  0  0  0
  -23.5170  -31.8380   23.6420 O   0  0  0  0  0  0  0  0  0  0  0  0
  -22.8690  -29.1440   22.3600 C   0  0  0  0  0  0  0  0  0  0  0  0
  -21.5470  -28.9270   22.2420 N   0  0  0  0  0  0  0  0  0  0  0  0
  -23.5760  -28.5130   23.1520 O   0  0  0  0  0  0  0  0  0  0  0  0
  -21.0330  -29.4880   21.5790 H   0  0  0  0  0  0  0  0  0  0  0  0
  -18.2150  -27.6070   22.7550 C   0  0  0  0  0  0  0  0  0  0  0  0
  -20.7700  -27.9340   22.9880 C   0  0  0  0  0  3  0  0  0  0  0  0
  -20.9020  -26.5300   22.3540 C   0  0  0  0  0  2  0  0  0  0  0  0
  -19.7920  -26.2160   21.3470 C   0  0  0  0  0  2  0  0  0  0  0  0
  -18.4190  -26.2920   22.0210 C   0  0  0  0  0  2  0  0  0  0  0  0
  -19.3190  -28.3860   23.1960 C   0  0  0  0  0  0  0  0  0  0  0  0
  -19.0730  -29.6150   23.8450 C   0  0  0  0  0  3  0  0  0  0  0  0
  -17.7570  -30.0680   24.0560 C   0  0  0  0  0  3  0  0  0  0  0  0
  -16.6690  -29.2860   23.6310 C   0  0  0  0  0  3  0  0  0  0  0  0
  -16.8980  -28.0580   22.9870 C   0  0  0  0  0  3  0  0  0  0  0  0
  -25.8600  -32.3060   23.7560 C   0  0  0  0  0  3  0  0  0  0  0  0
  -25.4970  -33.6980   24.0650 N   0  0  0  0  0  0  0  0  0  0  0  0
  -25.7980  -34.7540   23.2980 C   0  0  0  0  0  0  0  0  0  0  0  0
  -26.4800  -34.6620   22.2730 O   0  0  0  0  0  0  0  0  0  0  0  0
  -24.8900  -33.8390   24.8590 H   0  0  0  0  0  0  0  0  0  0  0  0
  -24.0030  -36.4770   22.9230 C   0  0  0  0  0  1  0  0  0  0  0  0
  -25.2600  -36.1310   23.7360 C   0  0  0  0  0  3  0  0  0  0  0  0
  -27.3600  -37.1100   24.5500 C   0  0  0  0  0  1  0  0  0  0  0  0
  -26.2520  -37.2200   23.6050 N   0  0  0  0  0  0  0  0  0  0  0  0
  -25.8110  -38.1270   23.7350 H   0  0  0  0  0  0  0  0  0  0  0  0
  -26.3660  -31.5670   25.0560 C   0  0  1  0  0  0  0  0  0  0  0  0
  -25.2550  -31.3160   26.1020 C   0  0  0  0  0  1  0  0  0  0  0  0
  -26.9960  -30.2000   24.7020 C   0  0  0  0  0  1  0  0  0  0  0  0
  -27.4790  -32.4030   25.7330 C   0  0  0  0  0  1  0  0  0  0  0  0
  1 17  1  0
  2  7  1  0
  3  4  1  0
  3  2  1  0
  5  4  1  0
  5 23  1  0
  5  6  1  0
  7  1  1  0
  7  6  1  0
  8  1  2  0
 10  9  1  0
 12 11  1  0
 12 17  1  0
 14  9  1  0
 15 13  1  0
 15 10  1  0
 16 11  1  0
 16 18  1  0
 16 15  1  0
 17 13  1  0
 18 14  1  0
 18 19  1  6
 20 21  2  0
 21 40  1  0
 22 21  1  0
 22 25  1  0
 23 20  1  0
 23 24  1  0
 24 22  2  0
 25 26  1  0
 26 27  2  0
 28 31  1  0
 28 27  1  0
 29 28  2  0
 30 29  1  0
 30 25  2  0
 31 32  1  0
 32 33  1  0
 33 34  2  0
 35 34  1  0
 35 39  1  0
 36 35  2  0
 37 32  2  0
 37 36  1  0
 38 37  1  0
 40 41  1  0
 41 44  1  0
 41 43  1  0
 42 40  2  0
 45 46  1  0
 45 20  1  0
 47 45  1  0
 48 49  1  0
 48 18  1  0
 50 51  1  0
 50 49  2  0
 52 63  2  0
 53 51  1  0
 53 58  1  0
 54 62  1  0
 54 64  1  0
 55 61  1  0
 55 57  1  0
 56 62  1  0
 57 56  1  0
 58 57  2  0
 59 60  1  0
 59 53  2  0
 60 55  2  0
 61 54  1  0
 62 52  1  0
 64 66  2  0
 65 64  1  0
 67 65  1  0
 68 77  2  0
 68 73  1  0
 69 65  1  0
 69 73  1  0
 70 69  1  0
 71 72  1  0
 71 70  1  0
 72 68  1  0
 73 74  2  0
 74 75  1  0
 76 75  2  0
 77 76  1  0
 78 52  1  0
 78 79  1  0
 78 88  1  0
 79 82  1  0
 80 84  1  0
 80 79  1  0
 81 80  2  0
 84 83  1  0
 86 87  1  0
 86 84  1  0
 86 85  1  0
 88 91  1  1
 88 89  1  0
 90 88  1  0
M  ISO  4   1 100  17 100  50 101  51 101
M  END
>  <TORSDO>  (54) 
F 18

>  <SCORE>  (54) 
-13.171

>  <name>  (54) 
54

>  <ligand_id>  (54) 
54

>  <original_smiles>  (54) 
[H]c1c([H])c([H])c2c(c1[H])C([H])([H])C([H])([H])C([H])([H])C2([H])N([H])C(=O)C1([H])N(C(=O)C([H])(N([H])C(=O)C([H])(N([H])C([H])([H])[H])C([H])([H])[H])C(C([H])([H])[H])(C([H])([H])[H])C([H])([H])[H])C([H])([H])c2c([H])c(OC([H])([H])C([H])([H])C([H])([H])[N+]3([H])C([H])([H])C([H])([H])C([H])([H])C4([H])C([H])([H])N(C(=O)N5C([H])([H])C([H])([H])C([H])([H])C([H])(n6nc(-c7c([H])c([H])c(Oc8c([H])c([H])c(F)c([H])c8F)c([H])c7[H])c(C(=O)N([H])[H])c6N([H])[H])C5([H])[H])C([H])([H])C([H])([H])C43[H])c([H])c([H])c2C1([H])[H]

>  <smiles>  (54) 
[H]c1c([H])c([H])c2c(c1[H])C([H])([H])C([H])([H])C([H])([H])C2([H])N([H])C(=O)C1([H])N(C(=O)C([H])(N([H])C(=O)C([H])(N([H])C([H])([H])[H])C([H])([H])[H])C(C([H])([H])[H])(C([H])([H])[H])C([H])([H])[H])C([H])([H])c2c([H])c(OC([H])([H])C([H])([H])C([H])([H])[N+]3([H])C([H])([H])C([H])([H])C([H])([H])C4([H])C([H])([H])N(C(=O)N5C([H])([H])C([H])([H])C([H])([H])C([H])(n6nc(-c7c([H])c([H])c(Oc8c([H])c([H])c(F)c([H])c8F)c([H])c7[H])c(C(=O)N([H])[H])c6N([H])[H])C5([H])[H])C([H])([H])C([H])([H])C43[H])c([H])c([H])c2C1([H])[H]

$$$$
55:0:0
     RDKit          3D

 89 97  0  0  1  0  0  0  0  0999 V2000
  -28.8900  -21.8640   20.3930 N   0  0  0  0  0  4  0  0  0  0  0  0
  -29.1510  -21.8200   21.3660 H   0  0  0  0  0  0  0  0  0  0  0  0
  -27.8970  -21.6960   20.3670 H   0  0  0  0  0  0  0  0  0  0  0  0
  -29.5620  -20.6090   19.6840 C   0  0  0  0  0  2  0  0  0  0  0  0
  -30.6650  -14.9980   19.6330 C   0  0  0  0  0  0  0  0  0  0  0  0
  -30.3800  -12.7140   18.5400 C   0  0  0  0  0  2  0  0  0  0  0  0
  -29.3150  -12.7370   17.4160 C   0  0  0  0  0  2  0  0  0  0  0  0
  -27.9090  -12.4950   17.9930 C   0  0  0  0  0  2  0  0  0  0  0  0
  -27.6460  -13.3450   19.2610 C   0  0  0  0  0  3  0  0  0  0  0  0
  -28.8170  -13.2690   20.2580 C   0  0  0  0  0  2  0  0  0  0  0  0
  -30.0190  -13.7530   19.5580 N   0  0  0  0  0  0  0  0  0  0  0  0
  -31.7730  -15.0610   19.0880 O   0  0  0  0  0  0  0  0  0  0  0  0
  -28.3020  -17.2310   21.6130 C   0  0  0  0  0  2  0  0  0  0  0  0
  -28.1970  -18.5040   20.7260 C   0  0  0  0  0  2  0  0  0  0  0  0
  -29.5960  -16.3810   21.4500 C   0  0  0  0  0  2  0  0  0  0  0  0
  -30.2530  -17.6890   19.5360 C   0  0  0  0  0  2  0  0  0  0  0  0
  -29.5780  -19.0270   20.3070 C   0  0  0  0  0  3  0  0  0  0  0  0
  -30.0170  -16.2140   20.0500 N   0  0  0  0  0  0  0  0  0  0  0  0
  -25.3730  -13.8770   20.3100 C   0  0  0  0  0  0  0  0  0  0  0  0
  -24.3560  -13.0830   20.7610 C   0  0  0  0  0  0  0  0  0  0  0  0
  -24.7980  -11.7360   20.5800 C   0  0  0  0  0  0  0  0  0  0  0  0
  -26.3720  -13.0160   19.8900 N   0  0  0  0  0  0  0  0  0  0  0  0
  -26.0430  -11.7170   20.1150 N   0  0  0  0  0  0  0  0  0  0  0  0
  -24.0840  -10.4670   20.7640 C   0  0  0  0  0  0  0  0  0  0  0  0
  -24.5990   -9.4380   21.5840 C   0  0  0  0  0  3  0  0  0  0  0  0
  -23.8810   -8.2360   21.7610 C   0  0  0  0  0  3  0  0  0  0  0  0
  -22.6320   -8.0540   21.1210 C   0  0  0  0  0  0  0  0  0  0  0  0
  -22.1350   -9.0710   20.2880 C   0  0  0  0  0  3  0  0  0  0  0  0
  -22.8530  -10.2640   20.1080 C   0  0  0  0  0  3  0  0  0  0  0  0
  -21.8790   -6.9100   21.2140 O   0  0  0  0  0  0  0  0  0  0  0  0
  -21.9300   -6.1020   22.3220 C   0  0  0  0  0  0  0  0  0  0  0  0
  -21.6430   -6.5930   23.6150 C   0  0  0  0  0  3  0  0  0  0  0  0
  -21.6390   -5.7140   24.7170 C   0  0  0  0  0  3  0  0  0  0  0  0
  -21.9130   -4.3450   24.5280 C   0  0  0  0  0  0  0  0  0  0  0  0
  -22.1940   -3.8560   23.2410 C   0  0  0  0  0  3  0  0  0  0  0  0
  -22.2000   -4.7310   22.1410 C   0  0  0  0  0  0  0  0  0  0  0  0
  -22.4500   -4.2490   20.8990 F   0  0  0  0  0  0  0  0  0  0  0  0
  -21.9020   -3.5000   25.5840 F   0  0  0  0  0  0  0  0  0  0  0  0
  -23.0090  -13.5470   21.2310 C   0  0  0  0  0  0  0  0  0  0  0  0
  -22.3860  -12.8000   22.1370 N   0  0  0  0  0  0  0  0  0  0  0  0
  -22.5220  -14.6030   20.8320 O   0  0  0  0  0  0  0  0  0  0  0  0
  -22.7960  -11.9420   22.4750 H   0  0  0  0  0  0  0  0  0  0  0  0
  -21.4880  -13.0910   22.4960 H   0  0  0  0  0  0  0  0  0  0  0  0
  -25.5200  -15.2540   20.1920 N   0  0  0  0  0  0  0  0  0  0  0  0
  -24.7630  -15.8950   20.4020 H   0  0  0  0  0  0  0  0  0  0  0  0
  -26.3120  -15.7050   19.7520 H   0  0  0  0  0  0  0  0  0  0  0  0
  -29.1070  -23.3750   19.9330 C   0  0  0  0  0  3  0  0  0  0  0  0
  -28.1960  -24.6780   20.5090 C   0  0  0  0  0  3  0  0  0  0  0  0
  -28.4310  -26.2080   20.2900 O   0  0  0  0  0  0  0  0  0  0  0  0
  -24.7300  -31.8870   23.2180 C   0  0  0  0  0  0  0  0  0  0  0  0
  -27.3520  -27.1660   20.2540 C   0  0  0  0  0  0  0  0  0  0  0  0
  -23.5430  -30.4620   21.5940 C   0  0  0  0  0  3  0  0  0  0  0  0
  -25.0050  -28.8830   20.1920 C   0  0  0  0  0  0  0  0  0  0  0  0
  -26.0920  -30.7530   21.4240 C   0  0  0  0  0  2  0  0  0  0  0  0
  -26.1800  -29.3520   20.7930 C   0  0  0  0  0  0  0  0  0  0  0  0
  -27.3560  -28.5110   20.8040 C   0  0  0  0  0  3  0  0  0  0  0  0
  -26.1520  -26.7980   19.6080 C   0  0  0  0  0  3  0  0  0  0  0  0
  -25.0030  -27.6180   19.5830 C   0  0  0  0  0  3  0  0  0  0  0  0
  -23.7690  -29.7690   20.2240 C   0  0  0  0  0  2  0  0  0  0  0  0
  -24.8080  -31.0570   22.1330 N   0  0  0  0  0  0  0  0  0  0  0  0
  -23.6410  -32.1680   23.7430 O   0  0  0  0  0  0  0  0  0  0  0  0
  -22.8710  -29.4620   22.5670 C   0  0  0  0  0  0  0  0  0  0  0  0
  -21.5420  -29.2890   22.4500 N   0  0  0  0  0  0  0  0  0  0  0  0
  -23.5470  -28.8430   23.3940 O   0  0  0  0  0  0  0  0  0  0  0  0
  -21.0530  -29.8410   21.7590 H   0  0  0  0  0  0  0  0  0  0  0  0
  -18.1660  -28.0830   22.9740 C   0  0  0  0  0  0  0  0  0  0  0  0
  -20.7250  -28.3570   23.2330 C   0  0  0  0  0  3  0  0  0  0  0  0
  -20.8290  -26.9190   22.6730 C   0  0  0  0  0  2  0  0  0  0  0  0
  -19.7260  -26.5830   21.6650 C   0  0  0  0  0  2  0  0  0  0  0  0
  -18.3450  -26.7290   22.3100 C   0  0  0  0  0  2  0  0  0  0  0  0
  -19.2830  -28.8540   23.3920 C   0  0  0  0  0  0  0  0  0  0  0  0
  -19.0600  -30.1200   23.9750 C   0  0  0  0  0  3  0  0  0  0  0  0
  -17.7540  -30.6160   24.1450 C   0  0  0  0  0  3  0  0  0  0  0  0
  -16.6500  -29.8430   23.7410 C   0  0  0  0  0  3  0  0  0  0  0  0
  -16.8580  -28.5780   23.1620 C   0  0  0  0  0  3  0  0  0  0  0  0
  -26.0030  -32.5400   23.8380 C   0  0  0  0  0  3  0  0  0  0  0  0
  -26.5130  -31.7930   25.1330 C   0  0  1  0  0  0  0  0  0  0  0  0
  -25.4150  -31.5690   26.1970 C   0  0  0  0  0  1  0  0  0  0  0  0
  -27.1070  -30.4120   24.7720 C   0  0  0  0  0  1  0  0  0  0  0  0
  -27.6560  -32.6040   25.7870 C   0  0  0  0  0  1  0  0  0  0  0  0
  -25.6810  -33.9410   24.1490 N   0  0  0  0  0  0  0  0  0  0  0  0
  -26.0150  -34.9900   23.3840 C   0  0  0  0  0  0  0  0  0  0  0  0
  -26.6910  -34.8780   22.3580 O   0  0  0  0  0  0  0  0  0  0  0  0
  -25.0800  -34.1010   24.9440 H   0  0  0  0  0  0  0  0  0  0  0  0
  -24.2800  -36.7750   23.0100 C   0  0  0  0  0  1  0  0  0  0  0  0
  -25.5220  -36.3810   23.8260 C   0  0  0  0  0  3  0  0  0  0  0  0
  -27.6530  -37.2840   24.6460 C   0  0  0  0  0  1  0  0  0  0  0  0
  -26.5500  -37.4380   23.7020 N   0  0  0  0  0  0  0  0  0  0  0  0
  -26.1400  -38.3580   23.8420 H   0  0  0  0  0  0  0  0  0  0  0  0
  1  2  1  0
  3  1  1  0
  4  1  1  0
  5 18  1  0
  6 11  1  0
  7  8  1  0
  7  6  1  0
  9  8  1  0
  9 22  1  0
  9 10  1  0
 11  5  1  0
 11 10  1  0
 12  5  2  0
 14 13  1  0
 15 13  1  0
 16 18  1  0
 16 17  1  0
 17  4  1  0
 17 14  1  0
 18 15  1  0
 19 20  2  0
 20 39  1  0
 21 20  1  0
 21 24  1  0
 22 23  1  0
 22 19  1  0
 23 21  2  0
 24 25  1  0
 25 26  2  0
 27 30  1  0
 27 26  1  0
 28 27  2  0
 29 28  1  0
 29 24  2  0
 30 31  1  0
 31 32  1  0
 32 33  2  0
 34 33  1  0
 34 38  1  0
 35 34  2  0
 36 31  2  0
 36 35  1  0
 37 36  1  0
 39 40  1  0
 40 42  1  0
 40 43  1  0
 41 39  2  0
 44 19  1  0
 44 45  1  0
 46 44  1  0
 47  1  1  0
 47 48  2  0
 49 48  1  0
 50 61  2  0
 51 49  1  0
 51 56  1  0
 52 60  1  0
 52 62  1  0
 53 59  1  0
 53 55  1  0
 54 60  1  0
 55 56  2  0
 55 54  1  0
 57 51  2  0
 58 57  1  0
 58 53  2  0
 59 52  1  0
 60 50  1  0
 62 64  2  0
 63 62  1  0
 65 63  1  0
 66 75  2  0
 66 71  1  0
 67 63  1  0
 67 71  1  0
 68 67  1  0
 69 70  1  0
 69 68  1  0
 70 66  1  0
 71 72  2  0
 72 73  1  0
 74 73  2  0
 75 74  1  0
 76 50  1  0
 76 81  1  0
 76 77  1  0
 77 80  1  1
 77 78  1  0
 79 77  1  0
 81 84  1  0
 82 86  1  0
 82 81  1  0
 83 82  2  0
 86 85  1  0
 88 86  1  0
 88 89  1  0
 88 87  1  0
M  ISO  4   5 100  18 100  48 101  49 101
M  END
>  <TORSDO>  (55) 
F 19

>  <SCORE>  (55) 
-11.612

>  <name>  (55) 
55

>  <ligand_id>  (55) 
55

>  <original_smiles>  (55) 
[H]c1c([H])c([H])c2c(c1[H])C([H])([H])C([H])([H])C([H])([H])C2([H])N([H])C(=O)C1([H])N(C(=O)C([H])(N([H])C(=O)C([H])(N([H])C([H])([H])[H])C([H])([H])[H])C(C([H])([H])[H])(C([H])([H])[H])C([H])([H])[H])C([H])([H])c2c([H])c(OC([H])([H])C([H])([H])[N+]([H])([H])C([H])([H])C3([H])C([H])([H])N(C(=O)N4C([H])([H])C([H])([H])C([H])([H])C([H])(n5nc(-c6c([H])c([H])c(Oc7c([H])c([H])c(F)c([H])c7F)c([H])c6[H])c(C(=O)N([H])[H])c5N([H])[H])C4([H])[H])C([H])([H])C([H])([H])C3([H])[H])c([H])c([H])c2C1([H])[H]

>  <smiles>  (55) 
[H]c1c([H])c([H])c2c(c1[H])C([H])([H])C([H])([H])C([H])([H])C2([H])N([H])C(=O)C1([H])N(C(=O)C([H])(N([H])C(=O)C([H])(N([H])C([H])([H])[H])C([H])([H])[H])C(C([H])([H])[H])(C([H])([H])[H])C([H])([H])[H])C([H])([H])c2c([H])c(OC([H])([H])C([H])([H])[N+]([H])([H])C([H])([H])C3([H])C([H])([H])N(C(=O)N4C([H])([H])C([H])([H])C([H])([H])C([H])(n5nc(-c6c([H])c([H])c(Oc7c([H])c([H])c(F)c([H])c7F)c([H])c6[H])c(C(=O)N([H])[H])c5N([H])[H])C4([H])[H])C([H])([H])C([H])([H])C3([H])[H])c([H])c([H])c2C1([H])[H]

$$$$
56:0:0
     RDKit          3D

 98101  0  0  1  0  0  0  0  0999 V2000
  -21.6010  -29.2940   23.8550 C   0  0  0  0  0 15  0  0  0  0  0  0
  -20.7270  -29.3500   21.6300 C   0  0  0  0  0 15  0  0  0  0  0  0
  -22.8800  -27.4350   24.1900 C   0  0  0  0  0  1  0  0  0  0  0  0
  -22.6370  -26.2530   21.2580 C   0  0  0  0  0  1  0  0  0  0  0  0
  -21.4650  -27.6300   20.4170 C   0  0  0  0  0  1  0  0  0  0  0  0
  -23.2710  -26.1700   22.8540 N   0  0  0  0  0  0  0  0  0  0  0  0
  -21.1850  -27.1040   19.0370 N   0  0  0  0  0  4  0  0  0  0  0  0
  -20.9450  -27.8830   18.4420 H   0  0  0  0  0  0  0  0  0  0  0  0
  -20.3390  -26.5630   19.1270 H   0  0  0  0  0  0  0  0  0  0  0  0
  -22.1740  -26.1750   18.2500 C   0  0  0  0  0  2  0  0  0  0  0  0
  -23.3830  -25.1650   18.7710 C   0  0  0  0  0  2  0  0  0  0  0  0
  -24.8140  -25.8260   18.9940 C   0  0  0  0  0  3  0  0  0  0  0  0
  -26.3140  -25.5000   19.6170 C   0  0  0  0  0  3  0  0  0  0  0  0
  -27.4350  -26.5550   19.7600 O   0  0  0  0  0  0  0  0  0  0  0  0
  -24.5970  -32.1050   23.2020 C   0  0  0  0  0  0  0  0  0  0  0  0
  -26.9680  -27.8380   19.6400 C   0  0  0  0  0  0  0  0  0  0  0  0
  -23.5040  -30.6810   21.5470 C   0  0  0  0  0  3  0  0  0  0  0  0
  -24.8380  -29.5860   19.7690 C   0  0  0  0  0  0  0  0  0  0  0  0
  -25.9690  -31.1190   21.3650 C   0  0  0  0  0  2  0  0  0  0  0  0
  -25.9790  -29.8410   20.5470 C   0  0  0  0  0  0  0  0  0  0  0  0
  -27.0390  -28.8970   20.5720 C   0  0  0  0  0  3  0  0  0  0  0  0
  -26.1380  -28.0030   18.5510 C   0  0  0  0  0  3  0  0  0  0  0  0
  -24.9290  -28.6840   18.7220 C   0  0  0  0  0  3  0  0  0  0  0  0
  -23.6090  -30.4080   20.0310 C   0  0  0  0  0  2  0  0  0  0  0  0
  -24.6860  -31.4090   22.0370 N   0  0  0  0  0  0  0  0  0  0  0  0
  -23.5130  -32.3210   23.7670 O   0  0  0  0  0  0  0  0  0  0  0  0
  -23.5340  -29.3530   22.3520 C   0  0  0  0  0  0  0  0  0  0  0  0
  -22.5570  -28.4430   22.3440 N   0  0  0  0  0  2  0  0  0  0  0  0
  -24.3280  -29.1520   23.2360 O   0  0  0  0  0  0  0  0  0  0  0  0
  -22.6020  -28.1250   21.3970 H   0  0  0  0  0  0  0  0  0  0  0  0
  -17.8000  -28.1570   22.8910 C   0  0  0  0  0  0  0  0  0  0  0  0
  -20.5540  -27.7510   23.1300 C   0  0  0  0  0  2  0  0  0  0  0  0
  -19.9310  -26.3730   22.9740 C   0  0  0  0  0  2  0  0  0  0  0  0
  -18.9710  -26.2570   21.8020 C   0  0  0  0  0  2  0  0  0  0  0  0
  -17.6750  -26.7900   22.2880 C   0  0  0  0  0  2  0  0  0  0  0  0
  -19.0490  -28.6620   23.3860 C   0  0  0  0  0  0  0  0  0  0  0  0
  -18.7630  -29.9310   24.0750 C   0  0  0  0  0  3  0  0  0  0  0  0
  -17.5590  -30.6650   24.0910 C   0  0  0  0  0  3  0  0  0  0  0  0
  -16.4200  -30.0920   23.5550 C   0  0  0  0  0  3  0  0  0  0  0  0
  -16.5560  -28.8200   22.9990 C   0  0  0  0  0  3  0  0  0  0  0  0
  -25.8810  -32.6570   23.8680 C   0  0  0  0  0  3  0  0  0  0  0  0
  -25.6030  -34.0570   24.2020 N   0  0  0  0  0  0  0  0  0  0  0  0
  -25.9380  -35.0880   23.4210 C   0  0  0  0  0  0  0  0  0  0  0  0
  -26.5960  -34.9620   22.3850 O   0  0  0  0  0  0  0  0  0  0  0  0
  -25.0400  -34.2270   25.0250 H   0  0  0  0  0  0  0  0  0  0  0  0
  -24.2650  -36.9220   23.0270 C   0  0  0  0  0  1  0  0  0  0  0  0
  -25.4760  -36.4860   23.8680 C   0  0  0  0  0  3  0  0  0  0  0  0
  -27.6300  -37.2830   24.7310 C   0  0  0  0  0  1  0  0  0  0  0  0
  -26.5460  -37.5050   23.7780 N   0  0  0  0  0  0  0  0  0  0  0  0
  -26.1690  -38.4380   23.9310 H   0  0  0  0  0  0  0  0  0  0  0  0
  -26.3260  -31.8490   25.1490 C   0  0  1  0  0  0  0  0  0  0  0  0
  -25.1800  -31.5910   26.1540 C   0  0  0  0  0  1  0  0  0  0  0  0
  -26.9690  -30.4900   24.7880 C   0  0  0  0  0  1  0  0  0  0  0  0
  -27.4440  -32.6320   25.8750 C   0  0  0  0  0  1  0  0  0  0  0  0
  -24.2150  -24.7810   22.8580 C   0  0  0  0  0  2  0  0  0  0  0  0
  -25.7970  -24.1890   22.1010 C   0  0  0  0  0  2  0  0  0  0  0  0
  -26.5170  -22.6240   21.4180 C   0  0  0  0  0  2  0  0  0  0  0  0
  -28.2050  -21.8940   21.1530 C   0  0  0  0  0  2  0  0  0  0  0  0
  -29.0100  -20.6590   20.0270 C   0  0  0  0  0  3  0  0  0  0  0  0
  -30.5810  -19.6740   20.0160 C   0  0  0  0  0  3  0  0  0  0  0  0
  -32.5530  -17.7550   18.6380 C   0  0  0  0  0  0  0  0  0  0  0  0
  -34.4230  -16.9300   16.9530 C   0  0  0  0  0  2  0  0  0  0  0  0
  -35.2830  -18.0920   16.3670 C   0  0  0  0  0  2  0  0  0  0  0  0
  -34.5240  -18.8520   15.2620 C   0  0  0  0  0  2  0  0  0  0  0  0
  -33.0500  -19.0870   15.6780 C   0  0  0  0  0  3  0  0  0  0  0  0
  -32.3610  -17.7980   16.1340 C   0  0  0  0  0  2  0  0  0  0  0  0
  -33.0460  -17.4380   17.3500 N   0  0  0  0  0  0  0  0  0  0  0  0
  -33.2040  -17.1410   19.5130 O   0  0  0  0  0  0  0  0  0  0  0  0
  -31.4600  -18.7920   18.8430 N   0  0  0  0  0  0  0  0  0  0  0  0
  -31.1710  -19.1040   17.9270 H   0  0  0  0  0  0  0  0  0  0  0  0
  -31.4170  -20.8080   14.7990 C   0  0  0  0  0  0  0  0  0  0  0  0
  -30.9140  -21.0360   13.5520 C   0  0  0  0  0  0  0  0  0  0  0  0
  -31.4670  -20.0240   12.7120 C   0  0  0  0  0  0  0  0  0  0  0  0
  -32.2500  -19.7170   14.6620 N   0  0  0  0  0  0  0  0  0  0  0  0
  -32.2210  -19.1940   13.4150 N   0  0  0  0  0  0  0  0  0  0  0  0
  -31.3800  -19.8350   11.2610 C   0  0  0  0  0  0  0  0  0  0  0  0
  -31.0020  -18.5980   10.6960 C   0  0  0  0  0  3  0  0  0  0  0  0
  -30.9160  -18.4540    9.2950 C   0  0  0  0  0  3  0  0  0  0  0  0
  -31.2060  -19.5520    8.4500 C   0  0  0  0  0  0  0  0  0  0  0  0
  -31.6100  -20.7710    9.0200 C   0  0  0  0  0  3  0  0  0  0  0  0
  -31.7000  -20.9120   10.4140 C   0  0  0  0  0  3  0  0  0  0  0  0
  -31.1700  -19.4990    7.0790 O   0  0  0  0  0  0  0  0  0  0  0  0
  -30.3870  -18.5890    6.4160 C   0  0  0  0  0  0  0  0  0  0  0  0
  -28.9940  -18.5090    6.6330 C   0  0  0  0  0  3  0  0  0  0  0  0
  -28.2150  -17.6100    5.8760 C   0  0  0  0  0  3  0  0  0  0  0  0
  -28.8240  -16.7970    4.9020 C   0  0  0  0  0  0  0  0  0  0  0  0
  -30.2100  -16.8790    4.6810 C   0  0  0  0  0  3  0  0  0  0  0  0
  -30.9890  -17.7740    5.4370 C   0  0  0  0  0  0  0  0  0  0  0  0
  -32.3210  -17.8670    5.2080 F   0  0  0  0  0  0  0  0  0  0  0  0
  -28.0770  -15.9370    4.1690 F   0  0  0  0  0  0  0  0  0  0  0  0
  -30.0520  -22.1920   13.1460 C   0  0  0  0  0  0  0  0  0  0  0  0
  -29.2060  -21.9990   12.1400 N   0  0  0  0  0  0  0  0  0  0  0  0
  -30.0920  -23.2610   13.7530 O   0  0  0  0  0  0  0  0  0  0  0  0
  -29.1610  -21.1130   11.6600 H   0  0  0  0  0  0  0  0  0  0  0  0
  -28.5950  -22.7500   11.8490 H   0  0  0  0  0  0  0  0  0  0  0  0
  -31.2590  -21.4490   16.0250 N   0  0  0  0  0  0  0  0  0  0  0  0
  -30.7240  -22.3090   16.0970 H   0  0  0  0  0  0  0  0  0  0  0  0
  -31.8290  -21.2730   16.8420 H   0  0  0  0  0  0  0  0  0  0  0  0
  4  6  1  0
  6 55  1  0
  6  3  1  0
  7  9  1  0
  7  5  1  0
  8  7  1  0
 10 11  1  0
 10  7  1  0
 11 12  1  0
 12 13  2  0
 13 14  1  0
 15 26  2  0
 16 14  1  0
 16 21  1  0
 17 25  1  0
 17 27  1  0
 18 24  1  0
 18 20  1  0
 19 25  1  0
 20 21  2  0
 20 19  1  0
 22 23  1  0
 22 16  2  0
 23 18  2  0
 24 17  1  0
 25 15  1  0
 27 29  2  0
 28 27  1  0
 30 28  1  0
 31 40  2  0
 31 36  1  0
 32 36  1  0
 33 32  1  0
 34 35  1  0
 34 33  1  0
 35 31  1  0
 36 37  2  0
 37 38  1  0
 39 38  2  0
 40 39  1  0
 41 15  1  0
 41 42  1  0
 41 51  1  0
 42 45  1  0
 43 47  1  0
 43 42  1  0
 44 43  2  0
 47 46  1  0
 49 47  1  0
 49 50  1  0
 49 48  1  0
 51 54  1  1
 51 52  1  0
 53 51  1  0
 56 55  1  0
 57 56  1  0
 58 57  1  0
 59 58  1  0
 60 59  2  0
 61 69  1  0
 61 68  2  0
 62 67  1  0
 63 62  1  0
 64 65  1  0
 64 63  1  0
 65 74  1  0
 65 66  1  0
 66 67  1  0
 67 61  1  0
 69 60  1  0
 70 69  1  0
 71 96  1  0
 72 71  2  0
 73 75  2  0
 73 72  1  0
 74 71  1  0
 75 74  1  0
 76 73  1  0
 77 76  1  0
 78 77  2  0
 79 80  2  0
 79 78  1  0
 80 81  1  0
 81 76  2  0
 82 79  1  0
 83 84  1  0
 83 82  1  0
 85 84  2  0
 86 85  1  0
 87 86  2  0
 87 88  1  0
 88 83  2  0
 89 88  1  0
 90 86  1  0
 91 72  1  0
 91 93  2  0
 92 91  1  0
 94 92  1  0
 95 92  1  0
 96 97  1  0
 96 98  1  0
M  ISO  4  13 101  14 101  61 100  69 100
M  END
>  <TORSDO>  (56) 
F 27

>  <SCORE>  (56) 
-7.580

>  <name>  (56) 
56

>  <ligand_id>  (56) 
56

>  <original_smiles>  (56) 
[H]c1c([H])c([H])c2c(c1[H])C([H])([H])C([H])([H])C([H])([H])C2([H])N([H])C(=O)C1([H])N(C(=O)C([H])(N([H])C(=O)C([H])(N([H])C([H])([H])[H])C([H])([H])[H])C(C([H])([H])[H])(C([H])([H])[H])C([H])([H])[H])C([H])([H])c2c([H])c(OC([H])([H])C([H])([H])C([H])([H])C([H])([H])[N+]([H])([H])C3([H])C([H])([H])N(C([H])([H])C([H])([H])C([H])([H])C([H])([H])C([H])([H])C([H])([H])N([H])C(=O)N4C([H])([H])C([H])([H])C([H])([H])C([H])(n5nc(-c6c([H])c([H])c(Oc7c([H])c([H])c(F)c([H])c7F)c([H])c6[H])c(C(=O)N([H])[H])c5N([H])[H])C4([H])[H])C([H])([H])C([H])([H])C3([H])[H])c([H])c([H])c2C1([H])[H]

>  <smiles>  (56) 
[H]c1c([H])c([H])c2c(c1[H])C([H])([H])C([H])([H])C([H])([H])C2([H])N([H])C(=O)C1([H])N(C(=O)C([H])(N([H])C(=O)C([H])(N([H])C([H])([H])[H])C([H])([H])[H])C(C([H])([H])[H])(C([H])([H])[H])C([H])([H])[H])C([H])([H])c2c([H])c(OC([H])([H])C([H])([H])C([H])([H])C([H])([H])[N+]([H])([H])C3([H])C([H])([H])N(C([H])([H])C([H])([H])C([H])([H])C([H])([H])C([H])([H])C([H])([H])N([H])C(=O)N4C([H])([H])C([H])([H])C([H])([H])C([H])(n5nc(-c6c([H])c([H])c(Oc7c([H])c([H])c(F)c([H])c7F)c([H])c6[H])c(C(=O)N([H])[H])c5N([H])[H])C4([H])[H])C([H])([H])C([H])([H])C3([H])[H])c([H])c([H])c2C1([H])[H]

$$$$
57:0:0
     RDKit          3D

109117  0  0  1  0  0  0  0  0999 V2000
  -31.4900  -20.8000   21.0530 C   0  0  0  0  0  3  0  0  0  0  0  0
  -31.4300  -20.3740   22.5550 C   0  0  0  0  0  2  0  0  0  0  0  0
  -32.7380  -20.4350   23.2420 N   0  0  0  0  0  4  0  0  0  0  0  0
  -33.4050  -19.7850   22.8640 H   0  0  0  0  0  0  0  0  0  0  0  0
  -32.6230  -20.2150   24.2190 H   0  0  0  0  0  0  0  0  0  0  0  0
  -33.1230  -21.3670   23.1910 H   0  0  0  0  0  0  0  0  0  0  0  0
  -31.6760  -19.6230   20.0370 C   0  0  0  0  0  2  0  0  0  0  0  0
  -30.6870  -18.4740   20.0230 N   0  0  1  0  0  4  0  0  0  0  0  0
  -30.2690  -18.4340   20.9410 H   0  0  0  0  0  0  0  0  0  0  0  0
  -29.5160  -18.5730   19.0810 C   0  0  0  0  0  2  0  0  0  0  0  0
  -29.5180  -19.6200   17.9320 C   0  0  0  0  0  2  0  0  0  0  0  0
  -30.7410  -19.8750   14.3260 C   0  0  0  0  0  2  0  0  0  0  0  0
  -31.7650  -18.8990   14.9120 C   0  0  0  0  0  2  0  0  0  0  0  0
  -29.6530  -20.0440   15.4010 C   0  0  0  0  0  2  0  0  0  0  0  0
  -31.5660  -18.9920   16.4190 C   0  0  0  0  0  2  0  0  0  0  0  0
  -30.0460  -19.1210   16.5680 C   0  0  0  0  0  3  0  0  0  0  0  0
  -31.4140  -17.1710   19.8670 C   0  0  0  0  0  2  0  0  0  0  0  0
  -30.7880  -15.8500   20.4950 C   0  0  0  0  0  3  0  0  0  0  0  0
  -31.0810  -14.6560   19.5280 C   0  0  0  0  0  0  0  0  0  0  0  0
  -30.4900  -12.5860   18.3220 C   0  0  0  0  0  2  0  0  0  0  0  0
  -29.4220  -12.8450   17.2430 C   0  0  0  0  0  2  0  0  0  0  0  0
  -28.0160  -12.6960   17.8480 C   0  0  0  0  0  2  0  0  0  0  0  0
  -27.8390  -13.5050   19.1570 C   0  0  0  0  0  3  0  0  0  0  0  0
  -29.0260  -13.2870   20.1250 C   0  0  0  0  0  2  0  0  0  0  0  0
  -30.2820  -13.5580   19.4130 N   0  0  0  0  0  0  0  0  0  0  0  0
  -32.0740  -14.7720   18.8100 O   0  0  0  0  0  0  0  0  0  0  0  0
  -25.5550  -14.0660   20.1990 C   0  0  0  0  0  0  0  0  0  0  0  0
  -24.5450  -13.2760   20.6750 C   0  0  0  0  0  0  0  0  0  0  0  0
  -24.9990  -11.9280   20.5340 C   0  0  0  0  0  0  0  0  0  0  0  0
  -26.5590  -13.2020   19.7980 N   0  0  0  0  0  0  0  0  0  0  0  0
  -26.2390  -11.9070   20.0580 N   0  0  0  0  0  0  0  0  0  0  0  0
  -24.3000  -10.6580   20.7660 C   0  0  0  0  0  0  0  0  0  0  0  0
  -24.7430   -9.7320   21.7360 C   0  0  0  0  0  3  0  0  0  0  0  0
  -24.0380   -8.5300   21.9500 C   0  0  0  0  0  3  0  0  0  0  0  0
  -22.8780   -8.2410   21.1960 C   0  0  0  0  0  0  0  0  0  0  0  0
  -22.4570   -9.1540   20.2100 C   0  0  0  0  0  3  0  0  0  0  0  0
  -23.1630  -10.3480   19.9970 C   0  0  0  0  0  3  0  0  0  0  0  0
  -22.1430   -7.0890   21.3220 O   0  0  0  0  0  0  0  0  0  0  0  0
  -21.9760   -6.4680   22.5350 C   0  0  0  0  0  0  0  0  0  0  0  0
  -21.4110   -7.1370   23.6420 C   0  0  0  0  0  3  0  0  0  0  0  0
  -21.1950   -6.4420   24.8480 C   0  0  0  0  0  3  0  0  0  0  0  0
  -21.5320   -5.0790   24.9460 C   0  0  0  0  0  0  0  0  0  0  0  0
  -22.0930   -4.4110   23.8440 C   0  0  0  0  0  3  0  0  0  0  0  0
  -22.3100   -5.1040   22.6380 C   0  0  0  0  0  0  0  0  0  0  0  0
  -22.8320   -4.4510   21.5720 F   0  0  0  0  0  0  0  0  0  0  0  0
  -21.3220   -4.4070   26.1010 F   0  0  0  0  0  0  0  0  0  0  0  0
  -23.1930  -13.7370   21.1350 C   0  0  0  0  0  0  0  0  0  0  0  0
  -22.5970  -13.0370   22.0890 N   0  0  0  0  0  0  0  0  0  0  0  0
  -22.6810  -14.7570   20.6750 O   0  0  0  0  0  0  0  0  0  0  0  0
  -23.0290  -12.2040   22.4650 H   0  0  0  0  0  0  0  0  0  0  0  0
  -21.6920  -13.3210   22.4380 H   0  0  0  0  0  0  0  0  0  0  0  0
  -25.6910  -15.4420   20.0420 N   0  0  0  0  0  0  0  0  0  0  0  0
  -24.9410  -16.0810   20.2780 H   0  0  0  0  0  0  0  0  0  0  0  0
  -26.3740  -15.8630   19.4290 H   0  0  0  0  0  0  0  0  0  0  0  0
  -31.4180  -15.5930   21.9050 C   0  0  0  0  0  2  0  0  0  0  0  0
  -30.5140  -14.9960   22.9160 N   0  0  0  0  0  4  0  0  0  0  0  0
  -31.0360  -14.8420   23.7640 H   0  0  0  0  0  0  0  0  0  0  0  0
  -30.1410  -14.1090   22.6340 H   0  0  0  0  0  0  0  0  0  0  0  0
  -29.7600  -15.6160   23.1540 H   0  0  0  0  0  0  0  0  0  0  0  0
  -30.5190  -21.9530   20.6210 C   0  0  0  0  0  3  0  0  0  0  0  0
  -29.0290  -21.6890   20.9500 C   0  0  0  0  0  2  0  0  0  0  0  0
  -28.5460  -22.2430   22.5790 Cl  0  0  0  0  0  0  0  0  0  0  0  0
  -31.0460  -23.3460   21.1000 C   0  0  0  0  0  2  0  0  0  0  0  0
  -30.1220  -24.5780   20.9040 C   0  0  0  0  0  2  0  0  0  0  0  0
  -30.3240  -25.2500   19.6030 N   0  0  0  0  0  4  0  0  0  0  0  0
  -30.6220  -24.5650   18.9300 H   0  0  0  0  0  0  0  0  0  0  0  0
  -31.0770  -25.9130   19.6980 H   0  0  0  0  0  0  0  0  0  0  0  0
  -29.0390  -25.9830   19.0400 C   0  0  0  0  0  2  0  0  0  0  0  0
  -28.7370  -26.9820   19.9650 O   0  0  0  0  0  0  0  0  0  0  0  0
  -24.6080  -31.8040   23.0880 C   0  0  0  0  0  0  0  0  0  0  0  0
  -27.5080  -27.6060   19.9080 C   0  0  0  0  0  0  0  0  0  0  0  0
  -23.4970  -30.4240   21.3600 C   0  0  0  0  0  3  0  0  0  0  0  0
  -25.0440  -29.0020   19.9120 C   0  0  0  0  0  0  0  0  0  0  0  0
  -26.0060  -30.8870   21.2440 C   0  0  0  0  0  2  0  0  0  0  0  0
  -26.1590  -29.5440   20.5620 C   0  0  0  0  0  0  0  0  0  0  0  0
  -27.3820  -28.8430   20.5740 C   0  0  0  0  0  3  0  0  0  0  0  0
  -26.3720  -27.0730   19.2480 C   0  0  0  0  0  3  0  0  0  0  0  0
  -25.1430  -27.7610   19.2600 C   0  0  0  0  0  3  0  0  0  0  0  0
  -23.7650  -29.8090   19.9580 C   0  0  0  0  0  2  0  0  0  0  0  0
  -24.7180  -31.0490   21.9560 N   0  0  0  0  0  0  0  0  0  0  0  0
  -23.5020  -32.0130   23.6090 O   0  0  0  0  0  0  0  0  0  0  0  0
  -22.8660  -29.3380   22.2610 C   0  0  0  0  0  0  0  0  0  0  0  0
  -21.5430  -29.1450   22.1290 N   0  0  0  0  0  0  0  0  0  0  0  0
  -23.5600  -28.6770   23.0370 O   0  0  0  0  0  0  0  0  0  0  0  0
  -21.0390  -29.7350   21.4820 H   0  0  0  0  0  0  0  0  0  0  0  0
  -18.1770  -27.9380   22.6330 C   0  0  0  0  0  0  0  0  0  0  0  0
  -20.7430  -28.1550   22.8500 C   0  0  0  0  0  3  0  0  0  0  0  0
  -20.8160  -26.7730   22.1630 C   0  0  0  0  0  2  0  0  0  0  0  0
  -19.6830  -26.5360   21.1590 C   0  0  0  0  0  2  0  0  0  0  0  0
  -18.3210  -26.6430   21.8520 C   0  0  0  0  0  2  0  0  0  0  0  0
  -19.3140  -28.6560   23.0880 C   0  0  0  0  0  0  0  0  0  0  0  0
  -19.1260  -29.8720   23.7800 C   0  0  0  0  0  3  0  0  0  0  0  0
  -17.8320  -30.3710   24.0190 C   0  0  0  0  0  3  0  0  0  0  0  0
  -16.7090  -29.6490   23.5790 C   0  0  0  0  0  3  0  0  0  0  0  0
  -16.8830  -28.4330   22.8930 C   0  0  0  0  0  3  0  0  0  0  0  0
  -25.8520  -32.4580   23.7620 C   0  0  0  0  0  3  0  0  0  0  0  0
  -25.4980  -33.8440   24.0920 N   0  0  0  0  0  0  0  0  0  0  0  0
  -25.8350  -34.9110   23.3550 C   0  0  0  0  0  0  0  0  0  0  0  0
  -26.5490  -34.8340   22.3520 O   0  0  0  0  0  0  0  0  0  0  0  0
  -24.8690  -33.9790   24.8710 H   0  0  0  0  0  0  0  0  0  0  0  0
  -24.0840  -36.6660   22.9370 C   0  0  0  0  0  1  0  0  0  0  0  0
  -25.2950  -36.2820   23.8030 C   0  0  0  0  0  3  0  0  0  0  0  0
  -27.3610  -37.2050   24.7510 C   0  0  0  0  0  1  0  0  0  0  0  0
  -26.3070  -37.3590   23.7530 N   0  0  0  0  0  0  0  0  0  0  0  0
  -25.8730  -38.2680   23.8910 H   0  0  0  0  0  0  0  0  0  0  0  0
  -26.3450  -31.6850   25.0460 C   0  0  1  0  0  0  0  0  0  0  0  0
  -25.2210  -31.3930   26.0680 C   0  0  0  0  0  1  0  0  0  0  0  0
  -26.9870  -30.3350   24.6530 C   0  0  0  0  0  1  0  0  0  0  0  0
  -27.4430  -32.5060   25.7640 C   0  0  0  0  0  1  0  0  0  0  0  0
  1  7  1  0
  1  2  1  0
  2  3  1  0
  3  5  1  0
  4  3  1  0
  6  3  1  0
  8  7  1  0
  8  9  1  1
 10  8  1  0
 11 10  1  0
 12 13  1  0
 12 14  1  0
 13 15  1  0
 14 16  1  0
 15 16  1  0
 16 11  1  0
 17  8  1  0
 18 17  1  0
 18 55  1  0
 19 18  1  0
 20 25  1  0
 21 22  1  0
 21 20  1  0
 23 22  1  0
 23 30  1  0
 23 24  1  0
 25 19  1  0
 25 24  1  0
 26 19  2  0
 27 28  2  0
 28 47  1  0
 29 28  1  0
 29 32  1  0
 30 31  1  0
 30 27  1  0
 31 29  2  0
 32 33  1  0
 33 34  2  0
 35 38  1  0
 35 34  1  0
 36 35  2  0
 37 36  1  0
 37 32  2  0
 38 39  1  0
 39 44  2  0
 39 40  1  0
 40 41  2  0
 41 42  1  0
 42 46  1  0
 43 42  2  0
 44 43  1  0
 45 44  1  0
 47 48  1  0
 48 51  1  0
 48 50  1  0
 49 47  2  0
 52 27  1  0
 52 53  1  0
 54 52  1  0
 55 56  1  0
 56 59  1  0
 56 57  1  0
 58 56  1  0
 60 61  1  0
 60  1  1  0
 60 63  1  0
 61 62  1  0
 64 63  1  0
 65 67  1  0
 65 64  1  0
 66 65  1  0
 68 65  1  0
 68 69  1  0
 70 81  2  0
 71 69  1  0
 71 76  1  0
 72 80  1  0
 72 82  1  0
 73 79  1  0
 73 75  1  0
 74 80  1  0
 75 76  2  0
 75 74  1  0
 77 78  1  0
 77 71  2  0
 78 73  2  0
 79 72  1  0
 80 70  1  0
 82 84  2  0
 83 82  1  0
 85 83  1  0
 86 95  2  0
 86 91  1  0
 87 83  1  0
 87 91  1  0
 88 87  1  0
 89 90  1  0
 89 88  1  0
 90 86  1  0
 91 92  2  0
 92 93  1  0
 94 93  2  0
 95 94  1  0
 96 70  1  0
 96 97  1  0
 96106  1  0
 97100  1  0
 98102  1  0
 98 97  1  0
 99 98  2  0
102101  1  0
104102  1  0
104105  1  0
104103  1  0
106109  1  1
106107  1  0
108106  1  0
M  ISO  4  18 100  19 100  68 101  69 101
M  END
>  <TORSDO>  (57) 
F 33

>  <SCORE>  (57) 
-8.017

>  <name>  (57) 
57

>  <ligand_id>  (57) 
57

>  <original_smiles>  (57) 
[H]c1c([H])c([H])c2c(c1[H])C([H])([H])C([H])([H])C([H])([H])C2([H])N([H])C(=O)C1([H])N(C(=O)C([H])(N([H])C(=O)C([H])(N([H])C([H])([H])[H])C([H])([H])[H])C(C([H])([H])[H])(C([H])([H])[H])C([H])([H])[H])C([H])([H])c2c([H])c(OC([H])([H])[N+]([H])([H])C([H])([H])C([H])([H])C([H])(C([H])([H])Cl)C([H])(C([H])([H])[N+]([H])([H])[H])C([H])([H])[N+]([H])(C([H])([H])C([H])([H])C3([H])C([H])([H])C([H])([H])C([H])([H])C3([H])[H])C([H])([H])C([H])(C(=O)N3C([H])([H])C([H])([H])C([H])([H])C([H])(n4nc(-c5c([H])c([H])c(Oc6c([H])c([H])c(F)c([H])c6F)c([H])c5[H])c(C(=O)N([H])[H])c4N([H])[H])C3([H])[H])C([H])([H])[N+]([H])([H])[H])c([H])c([H])c2C1([H])[H]

>  <smiles>  (57) 
[H]c1c([H])c([H])c2c(c1[H])C([H])([H])C([H])([H])C([H])([H])C2([H])N([H])C(=O)C1([H])N(C(=O)C([H])(N([H])C(=O)C([H])(N([H])C([H])([H])[H])C([H])([H])[H])C(C([H])([H])[H])(C([H])([H])[H])C([H])([H])[H])C([H])([H])c2c([H])c(OC([H])([H])[N+]([H])([H])C([H])([H])C([H])([H])C([H])(C([H])([H])Cl)C([H])(C([H])([H])[N+]([H])([H])[H])C([H])([H])[N+]([H])(C([H])([H])C([H])([H])C3([H])C([H])([H])C([H])([H])C([H])([H])C3([H])[H])C([H])([H])C([H])(C(=O)N3C([H])([H])C([H])([H])C([H])([H])C([H])(n4nc(-c5c([H])c([H])c(Oc6c([H])c([H])c(F)c([H])c6F)c([H])c5[H])c(C(=O)N([H])[H])c4N([H])[H])C3([H])[H])C([H])([H])[N+]([H])([H])[H])c([H])c([H])c2C1([H])[H]

$$$$
58:0:0
     RDKit          3D

 99107  0  0  1  0  0  0  0  0999 V2000
  -28.5740  -19.6470   20.1890 N   0  0  1  0  0  4  0  0  0  0  0  0
  -28.6720  -19.4280   21.1730 H   0  0  0  0  0  0  0  0  0  0  0  0
  -29.2030  -18.3830   19.5680 C   0  0  0  0  0  2  0  0  0  0  0  0
  -31.2630  -14.8570   20.3260 C   0  0  0  0  0  0  0  0  0  0  0  0
  -30.7890  -12.5460   19.5210 C   0  0  0  0  0  2  0  0  0  0  0  0
  -29.9300  -12.4980   18.2530 C   0  0  0  0  0  2  0  0  0  0  0  0
  -28.4530  -12.3920   18.6510 C   0  0  0  0  0  2  0  0  0  0  0  0
  -28.0530  -13.4200   19.7470 C   0  0  0  0  0  3  0  0  0  0  0  0
  -29.0850  -13.5510   20.8920 C   0  0  0  0  0  2  0  0  0  0  0  0
  -30.3970  -13.7780   20.2710 N   0  0  0  0  0  0  0  0  0  0  0  0
  -32.4420  -14.5760   20.1000 O   0  0  0  0  0  0  0  0  0  0  0  0
  -31.3030  -18.8230   21.8410 C   0  0  0  0  0  2  0  0  0  0  0  0
  -30.1320  -17.8250   21.9040 C   0  0  0  0  0  2  0  0  0  0  0  0
  -32.2520  -17.0850   20.3290 C   0  0  0  0  0  2  0  0  0  0  0  0
  -32.1240  -18.6060   20.5710 C   0  0  0  0  0  3  0  0  0  0  0  0
  -29.7300  -17.1550   20.5400 C   0  0  0  0  0  3  0  0  0  0  0  0
  -30.9720  -16.2470   20.3690 N   0  0  0  0  0  0  0  0  0  0  0  0
  -25.6920  -14.0970   20.4700 C   0  0  0  0  0  0  0  0  0  0  0  0
  -24.5830  -13.3680   20.8000 C   0  0  0  0  0  0  0  0  0  0  0  0
  -24.9790  -11.9970   20.7480 C   0  0  0  0  0  0  0  0  0  0  0  0
  -26.6950  -13.1730   20.2290 N   0  0  0  0  0  0  0  0  0  0  0  0
  -26.2740  -11.9020   20.4600 N   0  0  0  0  0  0  0  0  0  0  0  0
  -24.1850  -10.7680   20.8930 C   0  0  0  0  0  0  0  0  0  0  0  0
  -24.5760   -9.7310   21.7680 C   0  0  0  0  0  3  0  0  0  0  0  0
  -23.7810   -8.5720   21.9060 C   0  0  0  0  0  3  0  0  0  0  0  0
  -22.5820   -8.4410   21.1680 C   0  0  0  0  0  0  0  0  0  0  0  0
  -22.2110   -9.4650   20.2800 C   0  0  0  0  0  3  0  0  0  0  0  0
  -23.0050  -10.6150   20.1390 C   0  0  0  0  0  3  0  0  0  0  0  0
  -21.7610   -7.3430   21.2220 O   0  0  0  0  0  0  0  0  0  0  0  0
  -21.7270   -6.5180   22.3190 C   0  0  0  0  0  0  0  0  0  0  0  0
  -21.4180   -7.0080   23.6080 C   0  0  0  0  0  3  0  0  0  0  0  0
  -21.3230   -6.1180   24.6950 C   0  0  0  0  0  3  0  0  0  0  0  0
  -21.5300   -4.7400   24.4990 C   0  0  0  0  0  0  0  0  0  0  0  0
  -21.8310   -4.2490   23.2170 C   0  0  0  0  0  3  0  0  0  0  0  0
  -21.9270   -5.1340   22.1300 C   0  0  0  0  0  0  0  0  0  0  0  0
  -22.1960   -4.6550   20.8930 F   0  0  0  0  0  0  0  0  0  0  0  0
  -21.4340   -3.8830   25.5430 F   0  0  0  0  0  0  0  0  0  0  0  0
  -23.2090  -13.9130   21.0560 C   0  0  0  0  0  0  0  0  0  0  0  0
  -22.4370  -13.2440   21.9050 N   0  0  0  0  0  0  0  0  0  0  0  0
  -22.8370  -14.9670   20.5460 O   0  0  0  0  0  0  0  0  0  0  0  0
  -22.7560  -12.3910   22.3420 H   0  0  0  0  0  0  0  0  0  0  0  0
  -21.5110  -13.5870   22.1200 H   0  0  0  0  0  0  0  0  0  0  0  0
  -25.9280  -15.4600   20.3250 N   0  0  0  0  0  0  0  0  0  0  0  0
  -25.1840  -16.1440   20.4150 H   0  0  0  0  0  0  0  0  0  0  0  0
  -26.7950  -15.8530   19.9820 H   0  0  0  0  0  0  0  0  0  0  0  0
  -33.4390  -19.4120   20.5330 C   0  0  0  0  0  2  0  0  0  0  0  0
  -33.1740  -20.9360   20.4580 C   0  0  0  0  0  2  0  0  0  0  0  0
  -33.8110  -23.2330   19.5840 C   0  0  0  0  0  1  0  0  0  0  0  0
  -34.2750  -21.7800   19.8050 C   0  0  0  0  0  2  0  0  0  0  0  0
  -29.3430  -20.9780   20.0380 C   0  0  0  0  0  2  0  0  0  0  0  0
  -28.8880  -22.3090   20.8370 C   0  0  0  0  0  2  0  0  0  0  0  0
  -29.1980  -23.7720   20.2190 C   0  0  0  0  0  3  0  0  0  0  0  0
  -28.7210  -25.0860   21.0240 C   0  0  0  0  0  3  0  0  0  0  0  0
  -28.8380  -26.4700   20.4740 O   0  0  0  0  0  0  0  0  0  0  0  0
  -24.7410  -31.7560   23.2680 C   0  0  0  0  0  0  0  0  0  0  0  0
  -27.6950  -27.2790   20.4010 C   0  0  0  0  0  0  0  0  0  0  0  0
  -23.6850  -30.3130   21.5620 C   0  0  0  0  0  3  0  0  0  0  0  0
  -25.2710  -28.8010   20.2360 C   0  0  0  0  0  0  0  0  0  0  0  0
  -26.2180  -30.7240   21.5200 C   0  0  0  0  0  2  0  0  0  0  0  0
  -26.3870  -29.3410   20.8900 C   0  0  0  0  0  0  0  0  0  0  0  0
  -27.6040  -28.5990   20.9480 C   0  0  0  0  0  3  0  0  0  0  0  0
  -26.5630  -26.7890   19.7170 C   0  0  0  0  0  3  0  0  0  0  0  0
  -25.3690  -27.5340   19.6330 C   0  0  0  0  0  3  0  0  0  0  0  0
  -24.0010  -29.6300   20.2030 C   0  0  0  0  0  2  0  0  0  0  0  0
  -24.8970  -30.9500   22.1730 N   0  0  0  0  0  0  0  0  0  0  0  0
  -23.6210  -31.9880   23.7430 O   0  0  0  0  0  0  0  0  0  0  0  0
  -23.0060  -29.2790   22.4900 C   0  0  0  0  0  0  0  0  0  0  0  0
  -21.6930  -29.0800   22.3090 N   0  0  0  0  0  0  0  0  0  0  0  0
  -23.6600  -28.6570   23.3320 O   0  0  0  0  0  0  0  0  0  0  0  0
  -21.2310  -29.6390   21.6090 H   0  0  0  0  0  0  0  0  0  0  0  0
  -18.3220  -27.8290   22.6720 C   0  0  0  0  0  0  0  0  0  0  0  0
  -20.8640  -28.1160   23.0320 C   0  0  0  0  0  3  0  0  0  0  0  0
  -20.9940  -26.6980   22.4300 C   0  0  0  0  0  2  0  0  0  0  0  0
  -19.9380  -26.3930   21.3630 C   0  0  0  0  0  2  0  0  0  0  0  0
  -18.5350  -26.5030   21.9590 C   0  0  0  0  0  2  0  0  0  0  0  0
  -19.4150  -28.5960   23.1550 C   0  0  0  0  0  0  0  0  0  0  0  0
  -19.1610  -29.8420   23.7690 C   0  0  0  0  0  3  0  0  0  0  0  0
  -17.8450  -30.3230   23.9080 C   0  0  0  0  0  3  0  0  0  0  0  0
  -16.7650  -29.5520   23.4400 C   0  0  0  0  0  3  0  0  0  0  0  0
  -17.0070  -28.3070   22.8320 C   0  0  0  0  0  3  0  0  0  0  0  0
  -25.9610  -32.4380   23.9620 C   0  0  0  0  0  3  0  0  0  0  0  0
  -26.4060  -31.7030   25.2870 C   0  0  1  0  0  0  0  0  0  0  0  0
  -25.2460  -31.4510   26.2810 C   0  0  0  0  0  1  0  0  0  0  0  0
  -27.0500  -30.3340   24.9620 C   0  0  0  0  0  1  0  0  0  0  0  0
  -27.4900  -32.5410   26.0090 C   0  0  0  0  0  1  0  0  0  0  0  0
  -25.5870  -33.8310   24.2490 N   0  0  0  0  0  0  0  0  0  0  0  0
  -25.9310  -34.8840   23.4950 C   0  0  0  0  0  0  0  0  0  0  0  0
  -26.6680  -34.7830   22.5090 O   0  0  0  0  0  0  0  0  0  0  0  0
  -24.9340  -33.9750   25.0070 H   0  0  0  0  0  0  0  0  0  0  0  0
  -24.1620  -36.6090   23.0180 C   0  0  0  0  0  1  0  0  0  0  0  0
  -25.3770  -36.2640   23.8950 C   0  0  0  0  0  3  0  0  0  0  0  0
  -27.4390  -37.2410   24.8020 C   0  0  0  0  0  1  0  0  0  0  0  0
  -26.3760  -37.3480   23.8030 N   0  0  0  0  0  0  0  0  0  0  0  0
  -25.9330  -38.2560   23.9070 H   0  0  0  0  0  0  0  0  0  0  0  0
  -27.0910  -19.7090   19.9890 C   0  0  0  0  0  2  0  0  0  0  0  0
  -27.2010  -19.9820   17.3230 C   0  0  0  0  0  1  0  0  0  0  0  0
  -26.4940  -20.2980   18.6630 C   0  0  0  0  0  3  0  0  0  0  0  0
  -25.4710  -22.3880   17.5430 C   0  0  0  0  0  1  0  0  0  0  0  0
  -26.1530  -21.8030   18.7780 C   0  0  0  0  0  2  0  0  0  0  0  0
  1  2  1  1
  3  1  1  0
  4 17  1  0
  5 10  1  0
  6  7  1  0
  6  5  1  0
  8  7  1  0
  8 21  1  0
  8  9  1  0
 10  4  1  0
 10  9  1  0
 11  4  2  0
 12 13  1  0
 14 17  1  0
 14 15  1  0
 15 46  1  0
 15 12  1  0
 16  3  1  0
 16 13  1  0
 17 16  1  0
 18 19  2  0
 19 38  1  0
 20 19  1  0
 20 23  1  0
 21 22  1  0
 21 18  1  0
 22 20  2  0
 23 24  1  0
 24 25  2  0
 26 29  1  0
 26 25  1  0
 27 26  2  0
 28 27  1  0
 28 23  2  0
 29 30  1  0
 30 31  1  0
 31 32  2  0
 33 32  1  0
 33 37  1  0
 34 33  2  0
 35 30  2  0
 35 34  1  0
 36 35  1  0
 38 39  1  0
 39 42  1  0
 39 41  1  0
 40 38  2  0
 43 44  1  0
 43 18  1  0
 45 43  1  0
 47 46  1  0
 48 49  1  0
 49 47  1  0
 50  1  1  0
 50 51  1  0
 52 51  1  0
 52 53  2  0
 54 53  1  0
 55 66  2  0
 56 54  1  0
 56 61  1  0
 57 65  1  0
 57 67  1  0
 58 60  1  0
 59 65  1  0
 60 61  2  0
 60 59  1  0
 62 56  2  0
 63 62  1  0
 63 58  2  0
 64 58  1  0
 64 57  1  0
 65 55  1  0
 67 69  2  0
 68 67  1  0
 70 68  1  0
 71 80  2  0
 71 76  1  0
 72 68  1  0
 72 76  1  0
 73 72  1  0
 74 75  1  0
 74 73  1  0
 75 71  1  0
 76 77  2  0
 77 78  1  0
 79 78  2  0
 80 79  1  0
 81 55  1  0
 81 86  1  0
 81 82  1  0
 82 85  1  1
 82 83  1  0
 84 82  1  0
 86 89  1  0
 87 91  1  0
 87 86  1  0
 88 87  2  0
 91 90  1  0
 93 91  1  0
 93 94  1  0
 93 92  1  0
 95  1  1  0
 97 96  1  0
 97 99  1  0
 97 95  1  0
 98 99  1  0
M  ISO  4   4 100  17 100  53 101  54 101
M  END
>  <TORSDO>  (58) 
F 27

>  <SCORE>  (58) 
-11.155

>  <name>  (58) 
58

>  <ligand_id>  (58) 
58

>  <original_smiles>  (58) 
[H]c1c([H])c([H])c2c(c1[H])C([H])([H])C([H])([H])C([H])([H])C2([H])N([H])C(=O)C1([H])N(C(=O)C([H])(N([H])C(=O)C([H])(N([H])C([H])([H])[H])C([H])([H])[H])C(C([H])([H])[H])(C([H])([H])[H])C([H])([H])[H])C([H])([H])c2c([H])c(OC([H])([H])C([H])([H])C([H])([H])C([H])([H])[N+]([H])(C([H])([H])C3([H])N(C(=O)N4C([H])([H])C([H])([H])C([H])([H])C([H])(n5nc(-c6c([H])c([H])c(Oc7c([H])c([H])c(F)c([H])c7F)c([H])c6[H])c(C(=O)N([H])[H])c5N([H])[H])C4([H])[H])C([H])([H])C([H])(C([H])([H])C([H])([H])C([H])([H])C([H])([H])[H])C([H])([H])C3([H])[H])C([H])([H])C([H])(C([H])([H])[H])C([H])([H])C([H])([H])[H])c([H])c([H])c2C1([H])[H]

>  <smiles>  (58) 
[H]c1c([H])c([H])c2c(c1[H])C([H])([H])C([H])([H])C([H])([H])C2([H])N([H])C(=O)C1([H])N(C(=O)C([H])(N([H])C(=O)C([H])(N([H])C([H])([H])[H])C([H])([H])[H])C(C([H])([H])[H])(C([H])([H])[H])C([H])([H])[H])C([H])([H])c2c([H])c(OC([H])([H])C([H])([H])C([H])([H])C([H])([H])[N+]([H])(C([H])([H])C3([H])N(C(=O)N4C([H])([H])C([H])([H])C([H])([H])C([H])(n5nc(-c6c([H])c([H])c(Oc7c([H])c([H])c(F)c([H])c7F)c([H])c6[H])c(C(=O)N([H])[H])c5N([H])[H])C4([H])[H])C([H])([H])C([H])(C([H])([H])C([H])([H])C([H])([H])C([H])([H])[H])C([H])([H])C3([H])[H])C([H])([H])C([H])(C([H])([H])[H])C([H])([H])C([H])([H])[H])c([H])c([H])c2C1([H])[H]

$$$$
59:0:0
     RDKit          3D

113125  0  0  1  0  0  0  0  0999 V2000
  -30.8670  -22.7680   20.6900 C   0  0  0  0  0  2  0  0  0  0  0  0
  -30.4050  -22.8940   17.3500 C   0  0  0  0  0  2  0  0  0  0  0  0
  -29.1840  -21.4110   18.8620 C   0  0  0  0  0  2  0  0  0  0  0  0
  -31.9660  -21.8940   19.9870 C   0  0  0  0  0  2  0  0  0  0  0  0
  -29.4430  -22.9000   18.5600 C   0  0  0  0  0  3  0  0  0  0  0  0
  -29.9640  -23.6950   19.8010 C   0  0  0  0  0  3  0  0  0  0  0  0
  -30.7450  -21.4200   17.0280 C   0  0  0  0  0  3  0  0  0  0  0  0
  -30.4310  -20.6690   18.3500 C   0  0  0  0  0  3  0  0  0  0  0  0
  -31.5620  -20.5860   19.3380 N   0  0  1  0  0  4  0  0  0  0  0  0
  -31.2060  -20.0310   20.1030 H   0  0  0  0  0  0  0  0  0  0  0  0
  -29.8850  -20.8510   15.8540 C   0  0  0  0  0  2  0  0  0  0  0  0
  -32.2560  -21.4130   11.5130 C   0  0  0  0  0  2  0  0  0  0  0  0
  -33.5680  -20.8120   12.0600 C   0  0  0  0  0  2  0  0  0  0  0  0
  -31.5660  -22.4380   12.4370 C   0  0  0  0  0  2  0  0  0  0  0  0
  -33.4920  -20.1630   13.4600 C   0  0  0  0  0  2  0  0  0  0  0  0
  -30.0900  -22.1200   12.7570 C   0  0  0  0  0  2  0  0  0  0  0  0
  -32.4420  -19.0370   13.5870 C   0  0  0  0  0  2  0  0  0  0  0  0
  -29.8490  -20.7320   13.3850 C   0  0  0  0  0  2  0  0  0  0  0  0
  -31.3800  -19.2560   14.6880 C   0  0  0  0  0  2  0  0  0  0  0  0
  -30.6630  -20.5620   14.6160 N   0  0  2  0  0  4  0  0  0  0  0  0
  -31.3730  -21.2740   14.5420 H   0  0  0  0  0  0  0  0  0  0  0  0
  -28.7650  -24.3200   20.6120 C   0  0  0  0  0  2  0  0  0  0  0  0
  -28.9150  -25.5480   21.3880 O   0  0  0  0  0  0  0  0  0  0  0  0
  -23.8120  -28.3390   25.6240 C   0  0  0  0  0  0  0  0  0  0  0  0
  -27.7660  -26.3420   21.4920 C   0  0  0  0  0  0  0  0  0  0  0  0
  -23.3600  -28.3510   23.1980 C   0  0  0  0  0  3  0  0  0  0  0  0
  -25.3530  -27.8470   21.6960 C   0  0  0  0  0  0  0  0  0  0  0  0
  -25.7680  -28.4450   24.0760 C   0  0  0  0  0  3  0  0  0  0  0  0
  -26.2030  -27.7380   22.8030 C   0  0  0  0  0  0  0  0  0  0  0  0
  -27.4080  -26.9880   22.7090 C   0  0  0  0  0  3  0  0  0  0  0  0
  -26.8920  -26.5160   20.3890 C   0  0  0  0  0  3  0  0  0  0  0  0
  -25.6960  -27.2370   20.4870 C   0  0  0  0  0  3  0  0  0  0  0  0
  -24.0770  -28.6390   21.8560 C   0  0  0  0  0  2  0  0  0  0  0  0
  -24.3110  -28.3560   24.3570 N   0  0  0  0  0  0  0  0  0  0  0  0
  -22.5940  -28.3550   25.8360 O   0  0  0  0  0  0  0  0  0  0  0  0
  -22.5580  -27.0360   23.0700 C   0  0  0  0  0  0  0  0  0  0  0  0
  -21.7880  -26.9070   21.9760 N   0  0  0  0  0  0  0  0  0  0  0  0
  -22.6490  -26.1510   23.9260 O   0  0  0  0  0  0  0  0  0  0  0  0
  -21.7650  -27.6760   21.3220 H   0  0  0  0  0  0  0  0  0  0  0  0
  -19.9070  -25.3600   19.3050 C   0  0  0  0  0  0  0  0  0  0  0  0
  -20.9680  -25.7460   21.6320 C   0  0  0  0  0  3  0  0  0  0  0  0
  -21.8520  -24.5170   21.3200 C   0  0  0  0  0  2  0  0  0  0  0  0
  -22.1760  -24.3690   19.8300 C   0  0  0  0  0  2  0  0  0  0  0  0
  -20.8880  -24.2390   19.0100 C   0  0  0  0  0  2  0  0  0  0  0  0
  -19.9550  -26.0780   20.5300 C   0  0  0  0  0  0  0  0  0  0  0  0
  -19.0430  -27.1340   20.7420 C   0  0  0  0  0  3  0  0  0  0  0  0
  -18.0920  -27.4750   19.7610 C   0  0  0  0  0  3  0  0  0  0  0  0
  -18.0360  -26.7470   18.5590 C   0  0  0  0  0  3  0  0  0  0  0  0
  -18.9380  -25.6930   18.3350 C   0  0  0  0  0  3  0  0  0  0  0  0
  -24.7560  -28.3280   26.8680 C   0  0  0  0  0  3  0  0  0  0  0  0
  -24.1070  -27.5200   27.9070 N   0  0  0  0  0  0  0  0  0  0  0  0
  -23.8390  -27.9480   29.1480 C   0  0  0  0  0  0  0  0  0  0  0  0
  -24.1870  -29.0570   29.5640 O   0  0  0  0  0  0  0  0  0  0  0  0
  -23.7530  -26.6170   27.6250 H   0  0  0  0  0  0  0  0  0  0  0  0
  -21.6200  -27.4990   30.2380 C   0  0  0  0  0  1  0  0  0  0  0  0
  -23.0620  -26.9960   30.0750 C   0  0  0  0  0  3  0  0  0  0  0  0
  -24.9360  -26.0720   31.3650 C   0  0  0  0  0  1  0  0  0  0  0  0
  -23.6860  -26.8290   31.4050 N   0  0  0  0  0  0  0  0  0  0  0  0
  -23.0520  -26.3570   32.0440 H   0  0  0  0  0  0  0  0  0  0  0  0
  -26.1960  -27.7700   26.5450 C   0  0  1  0  0  0  0  0  0  0  0  0
  -26.1860  -26.3640   25.9010 C   0  0  0  0  0  1  0  0  0  0  0  0
  -26.9500  -28.7210   25.5870 C   0  0  0  0  0  2  0  0  0  0  0  0
  -27.0350  -27.6980   27.8430 C   0  0  0  0  0  1  0  0  0  0  0  0
  -32.7740  -19.8170   18.8320 C   0  0  0  0  0  2  0  0  0  0  0  0
  -32.1090  -17.2820   18.8190 C   0  0  0  0  0  1  0  0  0  0  0  0
  -33.0730  -18.3590   19.3860 C   0  0  0  0  0  3  0  0  0  0  0  0
  -34.5760  -17.9240   19.1140 C   0  0  0  0  0  3  0  0  0  0  0  0
  -35.1290  -16.0010   17.5150 C   0  0  0  0  0  0  0  0  0  0  0  0
  -34.9410  -13.9440   16.1620 C   0  0  0  0  0  2  0  0  0  0  0  0
  -33.4490  -13.5950   15.9890 C   0  0  0  0  0  2  0  0  0  0  0  0
  -32.9320  -12.7590   17.1810 C   0  0  0  0  0  2  0  0  0  0  0  0
  -33.3300  -13.3620   18.5560 C   0  0  0  0  0  3  0  0  0  0  0  0
  -34.8280  -13.7380   18.5830 C   0  0  0  0  0  2  0  0  0  0  0  0
  -35.0860  -14.6420   17.4460 N   0  0  0  0  0  0  0  0  0  0  0  0
  -35.3990  -16.7260   16.5570 O   0  0  0  0  0  0  0  0  0  0  0  0
  -34.7170  -16.5070   18.6970 N   0  0  0  0  0  0  0  0  0  0  0  0
  -34.4160  -15.8080   19.3610 H   0  0  0  0  0  0  0  0  0  0  0  0
  -31.7690  -12.3760   20.3520 C   0  0  0  0  0  0  0  0  0  0  0  0
  -31.9330  -11.3550   21.2490 C   0  0  0  0  0  0  0  0  0  0  0  0
  -33.2630  -10.8720   21.0500 C   0  0  0  0  0  0  0  0  0  0  0  0
  -32.9680  -12.4800   19.6650 N   0  0  0  0  0  0  0  0  0  0  0  0
  -33.8880  -11.5970   20.1310 N   0  0  0  0  0  0  0  0  0  0  0  0
  -33.9600   -9.7240   21.6440 C   0  0  0  0  0  0  0  0  0  0  0  0
  -35.3690   -9.6840   21.7250 C   0  0  0  0  0  3  0  0  0  0  0  0
  -36.0190   -8.5780   22.3150 C   0  0  0  0  0  3  0  0  0  0  0  0
  -35.2600   -7.4990   22.8310 C   0  0  0  0  0  0  0  0  0  0  0  0
  -33.8590   -7.5370   22.7290 C   0  0  0  0  0  3  0  0  0  0  0  0
  -33.2120   -8.6360   22.1370 C   0  0  0  0  0  3  0  0  0  0  0  0
  -35.8080   -6.3680   23.3890 O   0  0  0  0  0  0  0  0  0  0  0  0
  -37.1630   -6.1750   23.4360 C   0  0  0  0  0  0  0  0  0  0  0  0
  -38.0700   -7.2550   23.5040 C   0  0  0  0  0  3  0  0  0  0  0  0
  -39.4510   -7.0100   23.6260 C   0  0  0  0  0  3  0  0  0  0  0  0
  -39.9300   -5.6870   23.6870 C   0  0  0  0  0  0  0  0  0  0  0  0
  -39.0280   -4.6090   23.6250 C   0  0  0  0  0  3  0  0  0  0  0  0
  -37.6500   -4.8540   23.5020 C   0  0  0  0  0  0  0  0  0  0  0  0
  -36.7840   -3.8130   23.4660 F   0  0  0  0  0  0  0  0  0  0  0  0
  -41.2560   -5.4500   23.8100 F   0  0  0  0  0  0  0  0  0  0  0  0
  -30.8870  -10.7950   22.1690 C   0  0  0  0  0  0  0  0  0  0  0  0
  -31.2850  -10.3430   23.3530 N   0  0  0  0  0  0  0  0  0  0  0  0
  -29.6930  -10.7970   21.8610 O   0  0  0  0  0  0  0  0  0  0  0  0
  -32.2570  -10.3530   23.6210 H   0  0  0  0  0  0  0  0  0  0  0  0
  -30.6030   -9.9770   24.0020 H   0  0  0  0  0  0  0  0  0  0  0  0
  -30.6930  -13.2080   20.0540 N   0  0  0  0  0  0  0  0  0  0  0  0
  -29.7950  -13.0900   20.5080 H   0  0  0  0  0  0  0  0  0  0  0  0
  -30.6690  -13.8840   19.3010 H   0  0  0  0  0  0  0  0  0  0  0  0
  -35.4930  -18.1580   20.3530 C   0  0  0  0  0  2  0  0  0  0  0  0
  -39.8730  -18.4320   20.3280 C   0  0  0  0  0  2  0  0  0  0  0  0
  -39.0160  -19.7070   20.4030 C   0  0  0  0  0  2  0  0  0  0  0  0
  -39.1560  -17.3380   19.5230 C   0  0  0  0  0  2  0  0  0  0  0  0
  -37.5690  -19.4160   20.8470 C   0  0  0  0  0  2  0  0  0  0  0  0
  -37.7420  -17.0990   20.0770 C   0  0  0  0  0  2  0  0  0  0  0  0
  -36.9350  -18.3480   20.0220 N   0  0  1  0  0  4  0  0  0  0  0  0
  -36.9570  -18.6770   19.0680 H   0  0  0  0  0  0  0  0  0  0  0  0
  4  1  1  0
  5  2  1  0
  5  3  1  0
  5  6  1  0
  6 22  1  0
  6  1  1  0
  7 11  1  0
  7  2  1  0
  7  8  1  0
  8  3  1  0
  8  9  1  0
  9  4  1  0
  9 10  1  1
 12 13  1  0
 12 14  1  0
 13 15  1  0
 14 16  1  0
 15 17  1  0
 16 18  1  0
 17 19  1  0
 18 20  1  0
 20 19  1  0
 20 11  1  0
 20 21  1  6
 22 23  1  0
 23 25  1  0
 24 35  2  0
 24 50  1  0
 25 30  1  0
 26 36  1  0
 26 34  1  0
 27 33  1  0
 27 29  1  0
 28 34  1  0
 28 62  1  0
 29 28  1  0
 30 29  2  0
 31 32  1  0
 31 25  2  0
 32 27  2  0
 33 26  1  0
 34 24  1  0
 36 38  2  0
 37 36  1  0
 39 37  1  0
 40 45  1  0
 41 37  1  0
 42 41  1  0
 43 42  1  0
 44 40  1  0
 44 43  1  0
 45 46  2  0
 45 41  1  0
 47 46  1  0
 48 47  2  0
 49 48  1  0
 49 40  2  0
 50 51  1  0
 51 52  1  0
 52 53  2  0
 52 56  1  0
 54 51  1  0
 56 55  1  0
 56 58  1  0
 57 58  1  0
 58 59  1  0
 60 50  1  0
 60 63  1  1
 61 60  1  0
 62 60  1  0
 64  9  1  0
 64 66  1  0
 66 65  1  0
 67 66  1  0
 67106  1  0
 68 76  1  0
 69 74  1  0
 70 69  1  0
 70 71  1  0
 72 71  1  0
 72 73  1  0
 72 81  1  0
 74 68  1  0
 74 73  1  0
 75 68  2  0
 76 67  1  0
 76 77  1  0
 78 79  2  0
 79 98  1  0
 80 79  1  0
 80 83  1  0
 81 82  1  0
 81 78  1  0
 82 80  2  0
 83 84  2  0
 83 88  1  0
 84 85  1  0
 85 86  2  0
 86 89  1  0
 87 86  1  0
 88 87  2  0
 89 90  1  0
 90 95  2  0
 90 91  1  0
 91 92  2  0
 92 93  1  0
 93 97  1  0
 94 93  2  0
 95 94  1  0
 96 95  1  0
 98 99  1  0
 99101  1  0
 99102  1  0
100 98  2  0
103 78  1  0
103104  1  0
105103  1  0
107108  1  0
108110  1  0
109111  1  0
109107  1  0
112111  1  0
112106  1  0
112110  1  0
112113  1  6
M  ISO  4  22 101  23 101  68 100  76 100
M  END
>  <TORSDO>  (59) 
F 24

>  <SCORE>  (59) 
-5.813

>  <name>  (59) 
59

>  <ligand_id>  (59) 
59

>  <original_smiles>  (59) 
[H]c1c([H])c([H])c2c(c1[H])C([H])([H])C([H])([H])C([H])([H])C2([H])N([H])C(=O)C1([H])N(C(=O)C([H])(N([H])C(=O)C([H])(N([H])C([H])([H])[H])C([H])([H])[H])C(C([H])([H])[H])(C([H])([H])[H])C([H])([H])[H])C([H])([H])c2c([H])c(OC([H])([H])C3([H])C([H])([H])C([H])([H])[N+]([H])(C([H])([H])C([H])(C([H])([H])[H])C([H])(N([H])C(=O)N4C([H])([H])C([H])([H])C([H])([H])C([H])(n5nc(-c6c([H])c([H])c(Oc7c([H])c([H])c(F)c([H])c7F)c([H])c6[H])c(C(=O)N([H])[H])c5N([H])[H])C4([H])[H])C([H])([H])[N+]4([H])C([H])([H])C([H])([H])C([H])([H])C([H])([H])C4([H])[H])C4([H])C([H])([H])C3([H])C([H])([H])C4([H])C([H])([H])[N+]3([H])C([H])([H])C([H])([H])C([H])([H])C([H])([H])C([H])([H])C([H])([H])C([H])([H])C3([H])[H])c([H])c([H])c2C1([H])[H]

>  <smiles>  (59) 
[H]c1c([H])c([H])c2c(c1[H])C([H])([H])C([H])([H])C([H])([H])C2([H])N([H])C(=O)C1([H])N(C(=O)C([H])(N([H])C(=O)C([H])(N([H])C([H])([H])[H])C([H])([H])[H])C(C([H])([H])[H])(C([H])([H])[H])C([H])([H])[H])C([H])([H])c2c([H])c(OC([H])([H])C3([H])C([H])([H])C([H])([H])[N+]([H])(C([H])([H])C([H])(C([H])([H])[H])C([H])(N([H])C(=O)N4C([H])([H])C([H])([H])C([H])([H])C([H])(n5nc(-c6c([H])c([H])c(Oc7c([H])c([H])c(F)c([H])c7F)c([H])c6[H])c(C(=O)N([H])[H])c5N([H])[H])C4([H])[H])C([H])([H])[N+]4([H])C([H])([H])C([H])([H])C([H])([H])C([H])([H])C4([H])[H])C4([H])C([H])([H])C3([H])C([H])([H])C4([H])C([H])([H])[N+]3([H])C([H])([H])C([H])([H])C([H])([H])C([H])([H])C([H])([H])C([H])([H])C([H])([H])C3([H])[H])c([H])c([H])c2C1([H])[H]

$$$$
60:0:0
     RDKit          3D

102110  0  0  1  0  0  0  0  0999 V2000
  -30.2990  -20.0170   19.7940 C   0  0  0  0  0  3  0  0  0  0  0  0
  -31.9370  -20.9970   18.1210 C   0  0  0  0  0  2  0  0  0  0  0  0
  -29.7940  -20.0970   17.3140 C   0  0  0  0  0  2  0  0  0  0  0  0
  -31.8970  -22.0610   17.0060 C   0  0  0  0  0  2  0  0  0  0  0  0
  -29.8030  -21.1280   16.1660 C   0  0  0  0  0  2  0  0  0  0  0  0
  -30.5670  -20.5970   18.4610 N   0  0  0  0  0  0  0  0  0  0  0  0
  -31.1870  -21.5240   15.8290 N   0  0  0  0  0  4  0  0  0  0  0  0
  -31.6820  -20.7160   15.4960 H   0  0  0  0  0  0  0  0  0  0  0  0
  -31.1710  -22.2070   15.0900 H   0  0  0  0  0  0  0  0  0  0  0  0
  -29.1010  -20.9910   20.2920 C   0  0  0  0  0  2  0  0  0  0  0  0
  -29.2810  -22.5750   19.9320 C   0  0  0  0  0  3  0  0  0  0  0  0
  -28.4360  -23.8080   20.5240 C   0  0  0  0  0  3  0  0  0  0  0  0
  -28.5560  -25.1890   19.7080 C   0  0  0  0  0  2  0  0  0  0  0  0
  -28.3770  -26.5230   20.3310 O   0  0  0  0  0  0  0  0  0  0  0  0
  -24.5780  -31.8800   23.2420 C   0  0  0  0  0  0  0  0  0  0  0  0
  -27.2240  -27.3170   20.2240 C   0  0  0  0  0  0  0  0  0  0  0  0
  -23.3850  -30.4710   21.5980 C   0  0  0  0  0  3  0  0  0  0  0  0
  -24.8480  -28.9170   20.1830 C   0  0  0  0  0  0  0  0  0  0  0  0
  -25.9210  -30.7980   21.4270 C   0  0  0  0  0  2  0  0  0  0  0  0
  -26.0070  -29.4170   20.7850 C   0  0  0  0  0  0  0  0  0  0  0  0
  -27.1930  -28.6270   20.7950 C   0  0  0  0  0  3  0  0  0  0  0  0
  -26.0400  -26.8610   19.6020 C   0  0  0  0  0  3  0  0  0  0  0  0
  -24.8680  -27.6470   19.5790 C   0  0  0  0  0  3  0  0  0  0  0  0
  -23.6060  -29.7850   20.2220 C   0  0  0  0  0  2  0  0  0  0  0  0
  -24.6460  -31.0680   22.1470 N   0  0  0  0  0  0  0  0  0  0  0  0
  -23.4920  -32.1600   23.7690 O   0  0  0  0  0  0  0  0  0  0  0  0
  -22.7200  -29.4600   22.5610 C   0  0  0  0  0  0  0  0  0  0  0  0
  -21.3960  -29.2770   22.4230 N   0  0  0  0  0  0  0  0  0  0  0  0
  -23.3930  -28.8430   23.3910 O   0  0  0  0  0  0  0  0  0  0  0  0
  -20.9150  -29.8290   21.7260 H   0  0  0  0  0  0  0  0  0  0  0  0
  -18.0190  -28.0660   22.8820 C   0  0  0  0  0  0  0  0  0  0  0  0
  -20.5710  -28.3420   23.1900 C   0  0  0  0  0  3  0  0  0  0  0  0
  -20.6910  -26.9070   22.6300 C   0  0  0  0  0  2  0  0  0  0  0  0
  -19.6070  -26.5670   21.6020 C   0  0  0  0  0  2  0  0  0  0  0  0
  -18.2130  -26.7110   22.2210 C   0  0  0  0  0  2  0  0  0  0  0  0
  -19.1270  -28.8390   23.3200 C   0  0  0  0  0  0  0  0  0  0  0  0
  -18.8900  -30.1070   23.8960 C   0  0  0  0  0  3  0  0  0  0  0  0
  -17.5810  -30.6000   24.0390 C   0  0  0  0  0  3  0  0  0  0  0  0
  -16.4880  -29.8240   23.6170 C   0  0  0  0  0  3  0  0  0  0  0  0
  -16.7080  -28.5580   23.0430 C   0  0  0  0  0  3  0  0  0  0  0  0
  -25.8580  -32.5150   23.8700 C   0  0  0  0  0  3  0  0  0  0  0  0
  -26.3660  -31.7510   25.1550 C   0  0  1  0  0  0  0  0  0  0  0  0
  -25.2670  -31.5220   26.2170 C   0  0  0  0  0  1  0  0  0  0  0  0
  -26.9510  -30.3700   24.7770 C   0  0  0  0  0  1  0  0  0  0  0  0
  -27.5100  -32.5510   25.8210 C   0  0  0  0  0  1  0  0  0  0  0  0
  -25.5470  -33.9160   24.1920 N   0  0  0  0  0  0  0  0  0  0  0  0
  -25.8840  -34.9650   23.4310 C   0  0  0  0  0  0  0  0  0  0  0  0
  -26.5600  -34.8560   22.4040 O   0  0  0  0  0  0  0  0  0  0  0  0
  -24.9480  -34.0740   24.9890 H   0  0  0  0  0  0  0  0  0  0  0  0
  -24.1590  -36.7590   23.0630 C   0  0  0  0  0  1  0  0  0  0  0  0
  -25.3960  -36.3560   23.8810 C   0  0  0  0  0  3  0  0  0  0  0  0
  -27.5260  -37.2420   24.7200 C   0  0  0  0  0  1  0  0  0  0  0  0
  -26.4300  -37.4070   23.7700 N   0  0  0  0  0  0  0  0  0  0  0  0
  -26.0230  -38.3270   23.9110 H   0  0  0  0  0  0  0  0  0  0  0  0
  -30.3880  -18.3560   19.7170 C   0  0  0  0  0  3  0  0  0  0  0  0
  -31.8920  -17.9980   19.4720 C   0  0  0  0  0  2  0  0  0  0  0  0
  -32.2440  -17.3540   18.1160 C   0  0  0  0  0  2  0  0  0  0  0  0
  -33.7700  -17.2430   17.9500 C   0  0  0  0  0  2  0  0  0  0  0  0
  -34.2170  -16.8670   16.5270 C   0  0  0  0  0  2  0  0  0  0  0  0
  -35.6840  -16.9080   16.3910 N   0  0  0  0  0  4  0  0  0  0  0  0
  -36.0340  -17.8320   16.5690 H   0  0  0  0  0  0  0  0  0  0  0  0
  -35.9550  -16.6500   15.4590 H   0  0  0  0  0  0  0  0  0  0  0  0
  -36.1230  -16.2710   17.0320 H   0  0  0  0  0  0  0  0  0  0  0  0
  -29.9300  -17.3420   20.8750 C   0  0  0  0  0  2  0  0  0  0  0  0
  -30.5740  -14.7260   20.4300 C   0  0  0  0  0  0  0  0  0  0  0  0
  -30.3700  -12.4740   19.3650 C   0  0  0  0  0  2  0  0  0  0  0  0
  -29.4270  -12.5710   18.1450 C   0  0  0  0  0  2  0  0  0  0  0  0
  -27.9530  -12.4150   18.5710 C   0  0  0  0  0  2  0  0  0  0  0  0
  -27.5860  -13.2820   19.8030 C   0  0  0  0  0  3  0  0  0  0  0  0
  -28.6450  -13.1520   20.9190 C   0  0  0  0  0  2  0  0  0  0  0  0
  -29.9420  -13.5100   20.3290 N   0  0  0  0  0  0  0  0  0  0  0  0
  -31.7760  -14.8200   20.1780 O   0  0  0  0  0  0  0  0  0  0  0  0
  -29.7620  -15.8340   20.6150 N   0  0  0  0  0  0  0  0  0  0  0  0
  -28.7970  -15.5500   20.6890 H   0  0  0  0  0  0  0  0  0  0  0  0
  -25.1930  -13.8880   20.5020 C   0  0  0  0  0  0  0  0  0  0  0  0
  -24.1210  -13.1210   20.8660 C   0  0  0  0  0  0  0  0  0  0  0  0
  -24.5760  -11.7660   20.8480 C   0  0  0  0  0  0  0  0  0  0  0  0
  -26.2350  -13.0020   20.2840 N   0  0  0  0  0  0  0  0  0  0  0  0
  -25.8710  -11.7210   20.5520 N   0  0  0  0  0  0  0  0  0  0  0  0
  -23.8390  -10.5110   21.0400 C   0  0  0  0  0  0  0  0  0  0  0  0
  -24.2600   -9.5450   21.9810 C   0  0  0  0  0  3  0  0  0  0  0  0
  -23.5240   -8.3530   22.1600 C   0  0  0  0  0  3  0  0  0  0  0  0
  -22.3540   -8.1200   21.3990 C   0  0  0  0  0  0  0  0  0  0  0  0
  -21.9520   -9.0740   20.4480 C   0  0  0  0  0  3  0  0  0  0  0  0
  -22.6870  -10.2590   20.2690 C   0  0  0  0  0  3  0  0  0  0  0  0
  -21.5940   -6.9780   21.4860 O   0  0  0  0  0  0  0  0  0  0  0  0
  -21.5400   -6.2360   22.6380 C   0  0  0  0  0  0  0  0  0  0  0  0
  -21.1220   -6.7940   23.8650 C   0  0  0  0  0  3  0  0  0  0  0  0
  -21.0150   -5.9820   25.0100 C   0  0  0  0  0  3  0  0  0  0  0  0
  -21.3160   -4.6070   24.9280 C   0  0  0  0  0  0  0  0  0  0  0  0
  -21.7260   -4.0470   23.7040 C   0  0  0  0  0  3  0  0  0  0  0  0
  -21.8350   -4.8590   22.5630 C   0  0  0  0  0  0  0  0  0  0  0  0
  -22.2120   -4.3120   21.3810 F   0  0  0  0  0  0  0  0  0  0  0  0
  -21.2040   -3.8220   26.0240 F   0  0  0  0  0  0  0  0  0  0  0  0
  -22.7250  -13.6090   21.1220 C   0  0  0  0  0  0  0  0  0  0  0  0
  -21.9860  -12.9210   21.9860 N   0  0  0  0  0  0  0  0  0  0  0  0
  -22.2980  -14.6340   20.5910 O   0  0  0  0  0  0  0  0  0  0  0  0
  -22.3460  -12.0930   22.4360 H   0  0  0  0  0  0  0  0  0  0  0  0
  -21.0480  -13.2280   22.2010 H   0  0  0  0  0  0  0  0  0  0  0  0
  -25.3620  -15.2560   20.3130 N   0  0  0  0  0  0  0  0  0  0  0  0
  -24.5850  -15.9020   20.3970 H   0  0  0  0  0  0  0  0  0  0  0  0
  -26.1970  -15.6930   19.9440 H   0  0  0  0  0  0  0  0  0  0  0  0
  1 10  1  0
  2  6  1  0
  3  6  1  0
  4  2  1  0
  5  3  1  0
  6  1  1  0
  7  5  1  0
  7  4  1  0
  8  7  1  0
  9  7  1  0
 11 10  1  0
 11 12  2  0
 13 14  1  0
 13 12  1  0
 15 26  2  0
 16 14  1  0
 16 21  1  0
 17 25  1  0
 17 27  1  0
 18 24  1  0
 18 20  1  0
 19 25  1  0
 20 21  2  0
 20 19  1  0
 22 16  2  0
 23 22  1  0
 23 18  2  0
 24 17  1  0
 25 15  1  0
 27 29  2  0
 28 27  1  0
 30 28  1  0
 31 40  2  0
 31 36  1  0
 32 28  1  0
 32 36  1  0
 33 32  1  0
 34 35  1  0
 34 33  1  0
 35 31  1  0
 36 37  2  0
 37 38  1  0
 39 38  2  0
 40 39  1  0
 41 15  1  0
 41 46  1  0
 41 42  1  0
 42 45  1  1
 42 43  1  0
 44 42  1  0
 46 49  1  0
 47 51  1  0
 47 46  1  0
 48 47  2  0
 51 50  1  0
 53 51  1  0
 53 54  1  0
 53 52  1  0
 55 56  1  0
 55  1  1  0
 55 64  1  0
 57 56  1  0
 58 57  1  0
 59 58  1  0
 60 59  1  0
 60 61  1  0
 60 63  1  0
 62 60  1  0
 65 73  1  0
 66 71  1  0
 67 68  1  0
 67 66  1  0
 69 68  1  0
 69 78  1  0
 69 70  1  0
 71 65  1  0
 71 70  1  0
 72 65  2  0
 73 74  1  0
 73 64  1  0
 75 76  2  0
 76 95  1  0
 77 76  1  0
 77 80  1  0
 78 75  1  0
 78 79  1  0
 79 77  2  0
 80 81  1  0
 81 82  2  0
 83 86  1  0
 83 82  1  0
 84 83  2  0
 85 84  1  0
 85 80  2  0
 86 87  1  0
 87 88  1  0
 88 89  2  0
 90 89  1  0
 90 94  1  0
 91 90  2  0
 92 87  2  0
 92 91  1  0
 93 92  1  0
 95 96  1  0
 96 99  1  0
 96 98  1  0
 97 95  2  0
100101  1  0
100 75  1  0
102100  1  0
M  ISO  4  13 101  14 101  65 100  73 100
M  END
>  <TORSDO>  (60) 
F 28

>  <SCORE>  (60) 
-11.596

>  <name>  (60) 
60

>  <ligand_id>  (60) 
60

>  <original_smiles>  (60) 
[H]c1c([H])c([H])c2c(c1[H])C([H])([H])C([H])([H])C([H])([H])C2([H])N([H])C(=O)C1([H])N(C(=O)C([H])(N([H])C(=O)C([H])(N([H])C([H])([H])[H])C([H])([H])[H])C(C([H])([H])[H])(C([H])([H])[H])C([H])([H])[H])C([H])([H])c2c([H])c(OC([H])([H])C([H])([H])C([H])([H])C([H])([H])C([H])(N3C([H])([H])C([H])([H])[N+]([H])([H])C([H])([H])C3([H])[H])C([H])(C([H])([H])N([H])C(=O)N3C([H])([H])C([H])([H])C([H])([H])C([H])(n4nc(-c5c([H])c([H])c(Oc6c([H])c([H])c(F)c([H])c6F)c([H])c5[H])c(C(=O)N([H])[H])c4N([H])[H])C3([H])[H])C([H])([H])C([H])([H])C([H])([H])C([H])([H])[N+]([H])([H])[H])c([H])c([H])c2C1([H])[H]

>  <smiles>  (60) 
[H]c1c([H])c([H])c2c(c1[H])C([H])([H])C([H])([H])C([H])([H])C2([H])N([H])C(=O)C1([H])N(C(=O)C([H])(N([H])C(=O)C([H])(N([H])C([H])([H])[H])C([H])([H])[H])C(C([H])([H])[H])(C([H])([H])[H])C([H])([H])[H])C([H])([H])c2c([H])c(OC([H])([H])C([H])([H])C([H])([H])C([H])([H])C([H])(N3C([H])([H])C([H])([H])[N+]([H])([H])C([H])([H])C3([H])[H])C([H])(C([H])([H])N([H])C(=O)N3C([H])([H])C([H])([H])C([H])([H])C([H])(n4nc(-c5c([H])c([H])c(Oc6c([H])c([H])c(F)c([H])c6F)c([H])c5[H])c(C(=O)N([H])[H])c4N([H])[H])C3([H])[H])C([H])([H])C([H])([H])C([H])([H])C([H])([H])[N+]([H])([H])[H])c([H])c([H])c2C1([H])[H]

$$$$
61:0:0
     RDKit          3D

105113  0  0  1  0  0  0  0  0999 V2000
  -29.5980  -18.8260   21.1860 C   0  0  0  0  0  2  0  0  0  0  0  0
  -27.0990  -19.5140   19.6030 C   0  0  0  0  0  2  0  0  0  0  0  0
  -27.3820  -20.7500   20.4390 C   0  0  0  0  0  2  0  0  0  0  0  0
  -28.4810  -19.0780   19.0980 C   0  0  0  0  0  2  0  0  0  0  0  0
  -28.8530  -21.0390   20.1340 C   0  0  0  0  0  3  0  0  0  0  0  0
  -29.4850  -19.6980   19.9820 N   0  0  0  0  0  0  0  0  0  0  0  0
  -29.5100  -22.1280   21.0390 C   0  0  0  0  0  2  0  0  0  0  0  0
  -29.9320  -23.3430   20.2810 N   0  0  0  0  0  4  0  0  0  0  0  0
  -29.8460  -23.1460   19.2970 H   0  0  0  0  0  0  0  0  0  0  0  0
  -30.9130  -23.4760   20.4700 H   0  0  0  0  0  0  0  0  0  0  0  0
  -29.2260  -24.6240   20.6090 C   0  0  0  0  0  2  0  0  0  0  0  0
  -29.7280  -25.8310   19.7640 C   0  0  0  0  0  2  0  0  0  0  0  0
  -29.3920  -27.1130   20.3390 O   0  0  0  0  0  0  0  0  0  0  0  0
  -24.6580  -31.6040   23.1810 C   0  0  0  0  0  0  0  0  0  0  0  0
  -28.1190  -27.6490   20.2300 C   0  0  0  0  0  0  0  0  0  0  0  0
  -23.7960  -30.1330   21.3900 C   0  0  0  0  0  3  0  0  0  0  0  0
  -25.5570  -28.8520   20.0650 C   0  0  0  0  0  0  0  0  0  0  0  0
  -26.2630  -30.8150   21.4400 C   0  0  0  0  0  2  0  0  0  0  0  0
  -26.5800  -29.4920   20.7700 C   0  0  0  0  0  0  0  0  0  0  0  0
  -27.8620  -28.9010   20.8450 C   0  0  0  0  0  3  0  0  0  0  0  0
  -27.0660  -27.0190   19.5280 C   0  0  0  0  0  3  0  0  0  0  0  0
  -25.7960  -27.6170   19.4400 C   0  0  0  0  0  3  0  0  0  0  0  0
  -24.2170  -29.5470   20.0160 C   0  0  0  0  0  2  0  0  0  0  0  0
  -24.9170  -30.8670   22.0630 N   0  0  0  0  0  0  0  0  0  0  0  0
  -23.5070  -31.7140   23.6240 O   0  0  0  0  0  0  0  0  0  0  0  0
  -23.1970  -28.9990   22.2540 C   0  0  0  0  0  0  0  0  0  0  0  0
  -21.9120  -28.6870   22.0240 N   0  0  0  0  0  0  0  0  0  0  0  0
  -23.8880  -28.4060   23.0850 O   0  0  0  0  0  0  0  0  0  0  0  0
  -21.4110  -29.2240   21.3310 H   0  0  0  0  0  0  0  0  0  0  0  0
  -18.6560  -27.1390   22.2570 C   0  0  0  0  0  0  0  0  0  0  0  0
  -21.1560  -27.6270   22.6930 C   0  0  0  0  0  3  0  0  0  0  0  0
  -21.4310  -26.2510   22.0410 C   0  0  0  0  0  2  0  0  0  0  0  0
  -20.4210  -25.8850   20.9480 C   0  0  0  0  0  2  0  0  0  0  0  0
  -19.0000  -25.8560   21.5180 C   0  0  0  0  0  2  0  0  0  0  0  0
  -19.6680  -27.9760   22.7970 C   0  0  0  0  0  0  0  0  0  0  0  0
  -19.2950  -29.1720   23.4480 C   0  0  0  0  0  3  0  0  0  0  0  0
  -17.9420  -29.5370   23.5600 C   0  0  0  0  0  3  0  0  0  0  0  0
  -16.9420  -28.6980   23.0380 C   0  0  0  0  0  3  0  0  0  0  0  0
  -17.2980  -27.5000   22.3950 C   0  0  0  0  0  3  0  0  0  0  0  0
  -25.7920  -32.3630   23.9390 C   0  0  0  0  0  3  0  0  0  0  0  0
  -25.3370  -33.7460   24.1460 N   0  0  0  0  0  0  0  0  0  0  0  0
  -25.7100  -34.7890   23.3930 C   0  0  0  0  0  0  0  0  0  0  0  0
  -26.5430  -34.6960   22.4870 O   0  0  0  0  0  0  0  0  0  0  0  0
  -24.6090  -33.8860   24.8310 H   0  0  0  0  0  0  0  0  0  0  0  0
  -23.9350  -36.4200   22.6800 C   0  0  0  0  0  1  0  0  0  0  0  0
  -25.0590  -36.1520   23.6930 C   0  0  0  0  0  3  0  0  0  0  0  0
  -26.9740  -37.2310   24.7870 C   0  0  0  0  0  1  0  0  0  0  0  0
  -26.0190  -37.2780   23.6830 N   0  0  0  0  0  0  0  0  0  0  0  0
  -25.5300  -38.1680   23.7230 H   0  0  0  0  0  0  0  0  0  0  0  0
  -26.1800  -31.6940   25.3140 C   0  0  1  0  0  0  0  0  0  0  0  0
  -24.9670  -31.4200   26.2330 C   0  0  0  0  0  1  0  0  0  0  0  0
  -26.9090  -30.3500   25.0820 C   0  0  0  0  0  1  0  0  0  0  0  0
  -27.1700  -32.6030   26.0810 C   0  0  0  0  0  1  0  0  0  0  0  0
  -30.9380  -18.0160   21.2860 C   0  0  0  0  0  3  0  0  0  0  0  0
  -32.0420  -18.9520   21.0480 N   0  0  0  0  0  4  0  0  0  0  0  0
  -32.9200  -18.4630   21.0090 H   0  0  0  0  0  0  0  0  0  0  0  0
  -32.0880  -19.6280   21.7890 H   0  0  0  0  0  0  0  0  0  0  0  0
  -31.8560  -19.4150   20.1770 H   0  0  0  0  0  0  0  0  0  0  0  0
  -31.1570  -16.6770   20.4810 C   0  0  0  0  0  3  0  0  0  0  0  0
  -31.5810  -14.3070   21.1450 C   0  0  0  0  0  0  0  0  0  0  0  0
  -31.2370  -12.1060   20.1160 C   0  0  0  0  0  2  0  0  0  0  0  0
  -30.4730  -12.3290   18.7910 C   0  0  0  0  0  2  0  0  0  0  0  0
  -28.9520  -12.3230   19.0390 C   0  0  0  0  0  2  0  0  0  0  0  0
  -28.5400  -13.2490   20.2160 C   0  0  0  0  0  3  0  0  0  0  0  0
  -29.4340  -13.0230   21.4570 C   0  0  0  0  0  2  0  0  0  0  0  0
  -30.8380  -13.1730   21.0450 N   0  0  0  0  0  0  0  0  0  0  0  0
  -32.7820  -14.3480   20.8690 O   0  0  0  0  0  0  0  0  0  0  0  0
  -30.8590  -15.4440   21.2490 N   0  0  0  0  0  0  0  0  0  0  0  0
  -29.8990  -15.3070   21.5250 H   0  0  0  0  0  0  0  0  0  0  0  0
  -26.1550  -14.1050   20.6500 C   0  0  0  0  0  0  0  0  0  0  0  0
  -24.9790  -13.4470   20.8900 C   0  0  0  0  0  0  0  0  0  0  0  0
  -25.3010  -12.0570   20.8980 C   0  0  0  0  0  0  0  0  0  0  0  0
  -27.1230  -13.1190   20.5320 N   0  0  0  0  0  0  0  0  0  0  0  0
  -26.6060  -11.8830   20.7410 N   0  0  0  0  0  0  0  0  0  0  0  0
  -24.4360  -10.8740   20.9930 C   0  0  0  0  0  0  0  0  0  0  0  0
  -24.7120   -9.8320   21.9060 C   0  0  0  0  0  3  0  0  0  0  0  0
  -23.8570   -8.7120   21.9900 C   0  0  0  0  0  3  0  0  0  0  0  0
  -22.7140   -8.6310   21.1580 C   0  0  0  0  0  0  0  0  0  0  0  0
  -22.4590   -9.6590   20.2350 C   0  0  0  0  0  3  0  0  0  0  0  0
  -23.3130  -10.7700   20.1500 C   0  0  0  0  0  3  0  0  0  0  0  0
  -21.8410   -7.5710   21.1530 O   0  0  0  0  0  0  0  0  0  0  0  0
  -21.6780   -6.7670   22.2520 C   0  0  0  0  0  0  0  0  0  0  0  0
  -21.3040   -7.2910   23.5090 C   0  0  0  0  0  3  0  0  0  0  0  0
  -21.0840   -6.4200   24.5960 C   0  0  0  0  0  3  0  0  0  0  0  0
  -21.2220   -5.0290   24.4240 C   0  0  0  0  0  0  0  0  0  0  0  0
  -21.5840   -4.5060   23.1700 C   0  0  0  0  0  3  0  0  0  0  0  0
  -21.8090   -5.3740   22.0870 C   0  0  0  0  0  0  0  0  0  0  0  0
  -22.1410   -4.8640   20.8750 F   0  0  0  0  0  0  0  0  0  0  0  0
  -20.9990   -4.1930   25.4640 F   0  0  0  0  0  0  0  0  0  0  0  0
  -23.6150  -14.0660   21.0050 C   0  0  0  0  0  0  0  0  0  0  0  0
  -22.7410  -13.4650   21.8040 N   0  0  0  0  0  0  0  0  0  0  0  0
  -23.3350  -15.1130   20.4240 O   0  0  0  0  0  0  0  0  0  0  0  0
  -22.9810  -12.6150   22.2930 H   0  0  0  0  0  0  0  0  0  0  0  0
  -21.8190  -13.8560   21.9280 H   0  0  0  0  0  0  0  0  0  0  0  0
  -26.4800  -15.4490   20.5070 N   0  0  0  0  0  0  0  0  0  0  0  0
  -25.7680  -16.1720   20.5240 H   0  0  0  0  0  0  0  0  0  0  0  0
  -27.3920  -15.7890   20.2350 H   0  0  0  0  0  0  0  0  0  0  0  0
  -30.4310  -16.5280   19.1150 C   0  0  0  0  0  2  0  0  0  0  0  0
  -30.7860  -17.4650   17.9360 C   0  0  0  0  0  2  0  0  0  0  0  0
  -29.5570  -18.1890   17.3440 C   0  0  0  0  0  2  0  0  0  0  0  0
  -29.7260  -18.5980   15.8690 C   0  0  0  0  0  2  0  0  0  0  0  0
  -28.5250  -19.2720   15.3490 N   0  0  0  0  0  4  0  0  0  0  0  0
  -28.6610  -19.5160   14.3860 H   0  0  0  0  0  0  0  0  0  0  0  0
  -28.3370  -20.1190   15.8560 H   0  0  0  0  0  0  0  0  0  0  0  0
  -27.7220  -18.6700   15.4060 H   0  0  0  0  0  0  0  0  0  0  0  0
  2  3  1  0
  4  2  1  0
  4  6  1  0
  5  3  1  0
  5  7  1  0
  6  5  1  0
  6  1  1  0
  8 10  1  0
  8 11  1  0
  8  7  1  0
  9  8  1  0
 12 13  1  0
 12 11  1  0
 14 25  2  0
 15 13  1  0
 15 20  1  0
 16 24  1  0
 16 26  1  0
 17 19  1  0
 18 24  1  0
 19 20  2  0
 19 18  1  0
 21 15  2  0
 22 21  1  0
 22 17  2  0
 23 17  1  0
 23 16  1  0
 24 14  1  0
 26 28  2  0
 27 26  1  0
 29 27  1  0
 30 39  2  0
 30 35  1  0
 31 27  1  0
 31 35  1  0
 32 31  1  0
 33 34  1  0
 33 32  1  0
 34 30  1  0
 35 36  2  0
 36 37  1  0
 38 37  2  0
 39 38  1  0
 40 14  1  0
 40 41  1  0
 40 50  1  0
 41 44  1  0
 42 46  1  0
 42 41  1  0
 43 42  2  0
 46 45  1  0
 48 46  1  0
 48 49  1  0
 48 47  1  0
 50 53  1  1
 50 51  1  0
 52 50  1  0
 54  1  1  0
 55 54  1  0
 55 57  1  0
 56 55  1  0
 58 55  1  0
 59 98  1  0
 59 68  1  0
 59 54  1  0
 60 68  1  0
 61 66  1  0
 62 63  1  0
 62 61  1  0
 64 63  1  0
 64 73  1  0
 64 65  1  0
 66 60  1  0
 66 65  1  0
 67 60  2  0
 68 69  1  0
 70 71  2  0
 71 72  1  0
 71 90  1  0
 72 75  1  0
 73 70  1  0
 73 74  1  0
 74 72  2  0
 75 76  1  0
 76 77  2  0
 78 77  1  0
 79 78  2  0
 80 79  1  0
 80 75  2  0
 81 78  1  0
 81 82  1  0
 82 83  1  0
 83 84  2  0
 85 84  1  0
 85 89  1  0
 86 85  2  0
 87 82  2  0
 87 86  1  0
 88 87  1  0
 90 91  1  0
 91 94  1  0
 91 93  1  0
 92 90  2  0
 95 96  1  0
 95 70  1  0
 97 95  1  0
 99 98  1  0
100 99  1  0
101100  1  0
102105  1  0
102104  1  0
102101  1  0
103102  1  0
M  ISO  4  12 101  13 101  60 100  68 100
M  END
>  <TORSDO>  (61) 
F 29

>  <SCORE>  (61) 
-9.201

>  <name>  (61) 
61

>  <ligand_id>  (61) 
61

>  <original_smiles>  (61) 
[H]c1c([H])c([H])c2c(c1[H])C([H])([H])C([H])([H])C([H])([H])C2([H])N([H])C(=O)C1([H])N(C(=O)C([H])(N([H])C(=O)C([H])(N([H])C([H])([H])[H])C([H])([H])[H])C(C([H])([H])[H])(C([H])([H])[H])C([H])([H])[H])C([H])([H])c2c([H])c(OC([H])([H])C([H])([H])[N+]([H])([H])C([H])([H])C3([H])N(C([H])([H])C([H])(C([H])(N([H])C(=O)N4C([H])([H])C([H])([H])C([H])([H])C([H])(n5nc(-c6c([H])c([H])c(Oc7c([H])c([H])c(F)c([H])c7F)c([H])c6[H])c(C(=O)N([H])[H])c5N([H])[H])C4([H])[H])C([H])([H])C([H])([H])C([H])([H])C([H])([H])[N+]([H])([H])[H])[N+]([H])([H])[H])C([H])([H])C([H])([H])C3([H])[H])c([H])c([H])c2C1([H])[H]

>  <smiles>  (61) 
[H]c1c([H])c([H])c2c(c1[H])C([H])([H])C([H])([H])C([H])([H])C2([H])N([H])C(=O)C1([H])N(C(=O)C([H])(N([H])C(=O)C([H])(N([H])C([H])([H])[H])C([H])([H])[H])C(C([H])([H])[H])(C([H])([H])[H])C([H])([H])[H])C([H])([H])c2c([H])c(OC([H])([H])C([H])([H])[N+]([H])([H])C([H])([H])C3([H])N(C([H])([H])C([H])(C([H])(N([H])C(=O)N4C([H])([H])C([H])([H])C([H])([H])C([H])(n5nc(-c6c([H])c([H])c(Oc7c([H])c([H])c(F)c([H])c7F)c([H])c6[H])c(C(=O)N([H])[H])c5N([H])[H])C4([H])[H])C([H])([H])C([H])([H])C([H])([H])C([H])([H])[N+]([H])([H])[H])[N+]([H])([H])[H])C([H])([H])C([H])([H])C3([H])[H])c([H])c([H])c2C1([H])[H]

$$$$
62:0:0
     RDKit          3D

 89 97  0  0  1  0  0  0  0  0999 V2000
  -27.9390  -22.1530   17.9580 C   0  0  0  0  0  2  0  0  0  0  0  0
  -27.4360  -23.3510   18.7540 C   0  0  0  0  0  2  0  0  0  0  0  0
  -29.3140  -21.8860   18.5590 C   0  0  0  0  0  2  0  0  0  0  0  0
  -28.0800  -23.2220   20.1470 C   0  0  0  0  0  3  0  0  0  0  0  0
  -29.1390  -22.0220   20.0220 N   0  0  1  0  0  4  0  0  0  0  0  0
  -30.0210  -22.3740   20.3660 H   0  0  0  0  0  0  0  0  0  0  0  0
  -28.3650  -24.7780   20.7620 C   0  0  0  0  0  2  0  0  0  0  0  0
  -28.2950  -26.2120   20.1450 O   0  0  0  0  0  0  0  0  0  0  0  0
  -24.6110  -31.8600   23.2070 C   0  0  0  0  0  0  0  0  0  0  0  0
  -27.1920  -27.1360   20.2090 C   0  0  0  0  0  0  0  0  0  0  0  0
  -23.4080  -30.4510   21.5790 C   0  0  0  0  0  3  0  0  0  0  0  0
  -24.8540  -28.8640   20.1680 C   0  0  0  0  0  0  0  0  0  0  0  0
  -25.9580  -30.7270   21.4000 C   0  0  0  0  0  2  0  0  0  0  0  0
  -26.0350  -29.3270   20.7640 C   0  0  0  0  0  0  0  0  0  0  0  0
  -27.2070  -28.4820   20.7590 C   0  0  0  0  0  3  0  0  0  0  0  0
  -25.9830  -26.7630   19.5890 C   0  0  0  0  0  3  0  0  0  0  0  0
  -24.8390  -27.5940   19.5660 C   0  0  0  0  0  3  0  0  0  0  0  0
  -23.6260  -29.7620   20.2060 C   0  0  0  0  0  2  0  0  0  0  0  0
  -24.6800  -31.0350   22.1170 N   0  0  0  0  0  0  0  0  0  0  0  0
  -23.5260  -32.1430   23.7380 O   0  0  0  0  0  0  0  0  0  0  0  0
  -22.7350  -29.4490   22.5500 C   0  0  0  0  0  0  0  0  0  0  0  0
  -21.4070  -29.2770   22.4320 N   0  0  0  0  0  0  0  0  0  0  0  0
  -23.4120  -28.8250   23.3720 O   0  0  0  0  0  0  0  0  0  0  0  0
  -20.9180  -29.8290   21.7420 H   0  0  0  0  0  0  0  0  0  0  0  0
  -18.0300  -28.0780   22.9540 C   0  0  0  0  0  0  0  0  0  0  0  0
  -20.5900  -28.3440   23.2100 C   0  0  0  0  0  3  0  0  0  0  0  0
  -20.6910  -26.9100   22.6420 C   0  0  0  0  0  2  0  0  0  0  0  0
  -19.5850  -26.5820   21.6330 C   0  0  0  0  0  2  0  0  0  0  0  0
  -18.2060  -26.7270   22.2820 C   0  0  0  0  0  2  0  0  0  0  0  0
  -19.1490  -28.8440   23.3760 C   0  0  0  0  0  0  0  0  0  0  0  0
  -18.9300  -30.1060   23.9670 C   0  0  0  0  0  3  0  0  0  0  0  0
  -17.6250  -30.6040   24.1390 C   0  0  0  0  0  3  0  0  0  0  0  0
  -16.5200  -29.8360   23.7330 C   0  0  0  0  0  3  0  0  0  0  0  0
  -16.7240  -28.5750   23.1460 C   0  0  0  0  0  3  0  0  0  0  0  0
  -25.8890  -32.5010   23.8260 C   0  0  0  0  0  3  0  0  0  0  0  0
  -26.4100  -31.7340   25.1050 C   0  0  1  0  0  0  0  0  0  0  0  0
  -25.3190  -31.5000   26.1770 C   0  0  0  0  0  1  0  0  0  0  0  0
  -26.9920  -30.3550   24.7200 C   0  0  0  0  0  1  0  0  0  0  0  0
  -27.5630  -32.5310   25.7610 C   0  0  0  0  0  1  0  0  0  0  0  0
  -25.5730  -33.8990   24.1610 N   0  0  0  0  0  0  0  0  0  0  0  0
  -25.9040  -34.9580   23.4100 C   0  0  0  0  0  0  0  0  0  0  0  0
  -26.5740  -34.8610   22.3790 O   0  0  0  0  0  0  0  0  0  0  0  0
  -24.9770  -34.0470   24.9620 H   0  0  0  0  0  0  0  0  0  0  0  0
  -24.1740  -36.7540   23.0660 C   0  0  0  0  0  1  0  0  0  0  0  0
  -25.4150  -36.3440   23.8770 C   0  0  0  0  0  3  0  0  0  0  0  0
  -27.5490  -37.2260   24.7150 C   0  0  0  0  0  1  0  0  0  0  0  0
  -26.4480  -37.3990   23.7710 N   0  0  0  0  0  0  0  0  0  0  0  0
  -26.0410  -38.3180   23.9240 H   0  0  0  0  0  0  0  0  0  0  0  0
  -28.9940  -20.5820   20.7140 C   0  0  0  0  0  2  0  0  0  0  0  0
  -29.4890  -19.0790   20.0540 C   0  0  0  0  0  2  0  0  0  0  0  0
  -29.8920  -17.6610   20.8990 C   0  0  0  0  0  2  0  0  0  0  0  0
  -30.4970  -14.9740   20.3540 C   0  0  0  0  0  0  0  0  0  0  0  0
  -30.3910  -12.6290   19.3740 C   0  0  0  0  0  2  0  0  0  0  0  0
  -29.4520  -12.5830   18.1470 C   0  0  0  0  0  2  0  0  0  0  0  0
  -27.9880  -12.3730   18.5800 C   0  0  0  0  0  2  0  0  0  0  0  0
  -27.5820  -13.2920   19.7620 C   0  0  0  0  0  3  0  0  0  0  0  0
  -28.6410  -13.2920   20.8830 C   0  0  0  0  0  2  0  0  0  0  0  0
  -29.9040  -13.7160   20.2670 N   0  0  0  0  0  0  0  0  0  0  0  0
  -31.7130  -15.0440   20.1490 O   0  0  0  0  0  0  0  0  0  0  0  0
  -29.6880  -16.1440   20.4680 N   0  0  0  0  0  0  0  0  0  0  0  0
  -28.7110  -15.8920   20.4550 H   0  0  0  0  0  0  0  0  0  0  0  0
  -25.2010  -13.8720   20.4980 C   0  0  0  0  0  0  0  0  0  0  0  0
  -24.1370  -13.0970   20.8680 C   0  0  0  0  0  0  0  0  0  0  0  0
  -24.6040  -11.7470   20.8440 C   0  0  0  0  0  0  0  0  0  0  0  0
  -26.2450  -12.9940   20.2620 N   0  0  0  0  0  0  0  0  0  0  0  0
  -25.8950  -11.7110   20.5380 N   0  0  0  0  0  0  0  0  0  0  0  0
  -23.8770  -10.4850   21.0360 C   0  0  0  0  0  0  0  0  0  0  0  0
  -24.3100   -9.5160   21.9690 C   0  0  0  0  0  3  0  0  0  0  0  0
  -23.5820   -8.3210   22.1500 C   0  0  0  0  0  3  0  0  0  0  0  0
  -22.4060   -8.0850   21.3980 C   0  0  0  0  0  0  0  0  0  0  0  0
  -21.9930   -9.0410   20.4540 C   0  0  0  0  0  3  0  0  0  0  0  0
  -22.7210  -10.2280   20.2710 C   0  0  0  0  0  3  0  0  0  0  0  0
  -21.6500   -6.9420   21.4890 O   0  0  0  0  0  0  0  0  0  0  0  0
  -21.6090   -6.1960   22.6390 C   0  0  0  0  0  0  0  0  0  0  0  0
  -21.2000   -6.7480   23.8720 C   0  0  0  0  0  3  0  0  0  0  0  0
  -21.1050   -5.9290   25.0150 C   0  0  0  0  0  3  0  0  0  0  0  0
  -21.4080   -4.5570   24.9250 C   0  0  0  0  0  0  0  0  0  0  0  0
  -21.8080   -4.0030   23.6970 C   0  0  0  0  0  3  0  0  0  0  0  0
  -21.9050   -4.8190   22.5570 C   0  0  0  0  0  0  0  0  0  0  0  0
  -22.2710   -4.2760   21.3710 F   0  0  0  0  0  0  0  0  0  0  0  0
  -21.3090   -3.7680   26.0200 F   0  0  0  0  0  0  0  0  0  0  0  0
  -22.7380  -13.5730   21.1290 C   0  0  0  0  0  0  0  0  0  0  0  0
  -22.0060  -12.8820   21.9950 N   0  0  0  0  0  0  0  0  0  0  0  0
  -22.3030  -14.5950   20.6000 O   0  0  0  0  0  0  0  0  0  0  0  0
  -22.3710  -12.0560   22.4440 H   0  0  0  0  0  0  0  0  0  0  0  0
  -21.0680  -13.1850   22.2130 H   0  0  0  0  0  0  0  0  0  0  0  0
  -25.3580  -15.2430   20.3130 N   0  0  0  0  0  0  0  0  0  0  0  0
  -24.5810  -15.8860   20.4120 H   0  0  0  0  0  0  0  0  0  0  0  0
  -26.1890  -15.6840   19.9400 H   0  0  0  0  0  0  0  0  0  0  0  0
  1  3  1  0
  1  2  1  0
  2  4  1  0
  3  5  1  0
  4  7  1  0
  5  4  1  0
  5  6  1  1
  5 49  1  0
  8 10  1  0
  8  7  1  0
  9 20  2  0
 10 15  1  0
 11 19  1  0
 11 21  1  0
 12 18  1  0
 12 14  1  0
 13 19  1  0
 14 13  1  0
 15 14  2  0
 16 10  2  0
 17 16  1  0
 17 12  2  0
 18 11  1  0
 19  9  1  0
 21 23  2  0
 22 21  1  0
 24 22  1  0
 25 34  2  0
 25 30  1  0
 26 22  1  0
 26 30  1  0
 27 26  1  0
 28 29  1  0
 28 27  1  0
 29 25  1  0
 30 31  2  0
 31 32  1  0
 33 32  2  0
 34 33  1  0
 35  9  1  0
 35 40  1  0
 35 36  1  0
 36 39  1  1
 36 37  1  0
 38 36  1  0
 40 43  1  0
 41 45  1  0
 41 40  1  0
 42 41  2  0
 45 44  1  0
 47 45  1  0
 47 48  1  0
 47 46  1  0
 50 49  1  0
 50 51  1  0
 52 60  1  0
 53 58  1  0
 54 55  1  0
 54 53  1  0
 56 55  1  0
 56 65  1  0
 56 57  1  0
 58 52  1  0
 58 57  1  0
 59 52  2  0
 60 51  1  0
 61 60  1  0
 62 63  2  0
 63 82  1  0
 64 63  1  0
 64 67  1  0
 65 62  1  0
 65 66  1  0
 66 64  2  0
 67 68  1  0
 68 69  2  0
 70 73  1  0
 70 69  1  0
 71 70  2  0
 72 71  1  0
 72 67  2  0
 73 74  1  0
 74 75  1  0
 75 76  2  0
 77 76  1  0
 77 81  1  0
 78 77  2  0
 79 74  2  0
 79 78  1  0
 80 79  1  0
 82 83  1  0
 83 86  1  0
 83 85  1  0
 84 82  2  0
 87 88  1  0
 87 62  1  0
 89 87  1  0
M  ISO  4   7 101   8 101  52 100  60 100
M  END
>  <TORSDO>  (62) 
F 20

>  <SCORE>  (62) 
-15.598

>  <name>  (62) 
62

>  <ligand_id>  (62) 
62

>  <original_smiles>  (62) 
[H]c1c([H])c([H])c2c(c1[H])C([H])([H])C([H])([H])C([H])([H])C2([H])N([H])C(=O)C1([H])N(C(=O)C([H])(N([H])C(=O)C([H])(N([H])C([H])([H])[H])C([H])([H])[H])C(C([H])([H])[H])(C([H])([H])[H])C([H])([H])[H])C([H])([H])c2c([H])c(OC([H])([H])C3([H])C([H])([H])C([H])([H])C([H])([H])[N+]3([H])C([H])([H])C([H])([H])C([H])([H])N([H])C(=O)N3C([H])([H])C([H])([H])C([H])([H])C([H])(n4nc(-c5c([H])c([H])c(Oc6c([H])c([H])c(F)c([H])c6F)c([H])c5[H])c(C(=O)N([H])[H])c4N([H])[H])C3([H])[H])c([H])c([H])c2C1([H])[H]

>  <smiles>  (62) 
[H]c1c([H])c([H])c2c(c1[H])C([H])([H])C([H])([H])C([H])([H])C2([H])N([H])C(=O)C1([H])N(C(=O)C([H])(N([H])C(=O)C([H])(N([H])C([H])([H])[H])C([H])([H])[H])C(C([H])([H])[H])(C([H])([H])[H])C([H])([H])[H])C([H])([H])c2c([H])c(OC([H])([H])C3([H])C([H])([H])C([H])([H])C([H])([H])[N+]3([H])C([H])([H])C([H])([H])C([H])([H])N([H])C(=O)N3C([H])([H])C([H])([H])C([H])([H])C([H])(n4nc(-c5c([H])c([H])c(Oc6c([H])c([H])c(F)c([H])c6F)c([H])c5[H])c(C(=O)N([H])[H])c4N([H])[H])C3([H])[H])c([H])c([H])c2C1([H])[H]

$$$$
63:0:0
     RDKit          3D

 95103  0  0  1  0  0  0  0  0999 V2000
  -29.1170  -20.5370   19.9110 C   0  0  0  0  0  2  0  0  0  0  0  0
  -29.5970  -21.9370   19.6410 N   0  0  0  0  0  4  0  0  0  0  0  0
  -30.1750  -22.2160   20.4160 H   0  0  0  0  0  0  0  0  0  0  0  0
  -30.1690  -21.9380   18.8110 H   0  0  0  0  0  0  0  0  0  0  0  0
  -28.5020  -22.9550   19.4780 C   0  0  0  0  0  2  0  0  0  0  0  0
  -28.9240  -24.4700   19.4200 C   0  0  0  0  0  2  0  0  0  0  0  0
  -27.6920  -25.4130   19.2250 C   0  0  0  0  0  2  0  0  0  0  0  0
  -27.8970  -26.8570   19.2730 O   0  0  0  0  0  0  0  0  0  0  0  0
  -24.4500  -31.8330   23.1140 C   0  0  0  0  0  0  0  0  0  0  0  0
  -26.7530  -27.6450   19.4030 C   0  0  0  0  0  0  0  0  0  0  0  0
  -23.0840  -30.5600   21.4950 C   0  0  0  0  0  3  0  0  0  0  0  0
  -24.3800  -29.1720   19.7900 C   0  0  0  0  0  0  0  0  0  0  0  0
  -25.5800  -30.9460   21.0690 C   0  0  0  0  0  2  0  0  0  0  0  0
  -25.5980  -29.6350   20.3010 C   0  0  0  0  0  0  0  0  0  0  0  0
  -26.7870  -28.8800   20.1040 C   0  0  0  0  0  3  0  0  0  0  0  0
  -25.5080  -27.2330   18.8640 C   0  0  0  0  0  3  0  0  0  0  0  0
  -24.3320  -27.9730   19.0660 C   0  0  0  0  0  3  0  0  0  0  0  0
  -23.1480  -30.0130   20.0460 C   0  0  0  0  0  2  0  0  0  0  0  0
  -24.3940  -31.1250   21.9480 N   0  0  0  0  0  0  0  0  0  0  0  0
  -23.4310  -32.0470   23.7830 O   0  0  0  0  0  0  0  0  0  0  0  0
  -22.5390  -29.4520   22.4250 C   0  0  0  0  0  0  0  0  0  0  0  0
  -21.2220  -29.1920   22.3430 N   0  0  0  0  0  0  0  0  0  0  0  0
  -23.2950  -28.8300   23.1780 O   0  0  0  0  0  0  0  0  0  0  0  0
  -20.6690  -29.7560   21.7110 H   0  0  0  0  0  0  0  0  0  0  0  0
  -17.9830  -27.6580   22.8100 C   0  0  0  0  0  0  0  0  0  0  0  0
  -20.4990  -28.1680   23.0950 C   0  0  0  0  0  3  0  0  0  0  0  0
  -20.7470  -26.7620   22.5040 C   0  0  0  0  0  2  0  0  0  0  0  0
  -19.6870  -26.3420   21.4790 C   0  0  0  0  0  2  0  0  0  0  0  0
  -18.2950  -26.3420   22.1170 C   0  0  0  0  0  2  0  0  0  0  0  0
  -19.0170  -28.5230   23.2540 C   0  0  0  0  0  0  0  0  0  0  0  0
  -18.6730  -29.7490   23.8620 C   0  0  0  0  0  3  0  0  0  0  0  0
  -17.3250  -30.1190   24.0250 C   0  0  0  0  0  3  0  0  0  0  0  0
  -16.3030  -29.2540   23.5970 C   0  0  0  0  0  3  0  0  0  0  0  0
  -16.6330  -28.0240   22.9970 C   0  0  0  0  0  3  0  0  0  0  0  0
  -25.7940  -32.4260   23.6440 C   0  0  0  0  0  3  0  0  0  0  0  0
  -25.5200  -33.7940   24.1070 N   0  0  0  0  0  0  0  0  0  0  0  0
  -25.8400  -34.9050   23.4300 C   0  0  0  0  0  0  0  0  0  0  0  0
  -26.4720  -34.8830   22.3690 O   0  0  0  0  0  0  0  0  0  0  0  0
  -24.9580  -33.8850   24.9410 H   0  0  0  0  0  0  0  0  0  0  0  0
  -24.1440  -36.7580   23.2800 C   0  0  0  0  0  1  0  0  0  0  0  0
  -25.3930  -36.2540   24.0230 C   0  0  0  0  0  3  0  0  0  0  0  0
  -27.5610  -37.0180   24.8860 C   0  0  0  0  0  1  0  0  0  0  0  0
  -26.4470  -37.2920   23.9820 N   0  0  0  0  0  0  0  0  0  0  0  0
  -26.0650  -38.2010   24.2230 H   0  0  0  0  0  0  0  0  0  0  0  0
  -26.4400  -31.5670   24.7990 C   0  0  1  0  0  0  0  0  0  0  0  0
  -25.4610  -31.2380   25.9530 C   0  0  0  0  0  1  0  0  0  0  0  0
  -26.9800  -30.2260   24.2470 C   0  0  0  0  0  1  0  0  0  0  0  0
  -27.6510  -32.3180   25.3980 C   0  0  0  0  0  1  0  0  0  0  0  0
  -30.1990  -19.4090   20.1760 C   0  0  0  0  0  3  0  0  0  0  0  0
  -33.7870  -20.1280   22.7610 C   0  0  0  0  0  2  0  0  0  0  0  0
  -32.6170  -21.1210   22.7890 C   0  0  0  0  0  2  0  0  0  0  0  0
  -34.0230  -19.6210   21.3350 C   0  0  0  0  0  2  0  0  0  0  0  0
  -31.3420  -20.5020   22.1900 C   0  0  0  0  0  2  0  0  0  0  0  0
  -32.7500  -18.9930   20.7440 C   0  0  0  0  0  2  0  0  0  0  0  0
  -31.5490  -19.9740   20.7470 C   0  0  0  0  0  3  0  0  0  0  0  0
  -30.2960  -18.3200   19.0480 C   0  0  0  0  0  2  0  0  0  0  0  0
  -29.1430  -17.2700   18.9880 C   0  0  0  0  0  2  0  0  0  0  0  0
  -30.1570  -15.0830   19.7310 C   0  0  0  0  0  0  0  0  0  0  0  0
  -30.1180  -12.7380   18.9890 C   0  0  0  0  0  2  0  0  0  0  0  0
  -29.1170  -12.6520   17.8170 C   0  0  0  0  0  2  0  0  0  0  0  0
  -27.6930  -12.3900   18.3460 C   0  0  0  0  0  2  0  0  0  0  0  0
  -27.2950  -13.3610   19.4880 C   0  0  0  0  0  3  0  0  0  0  0  0
  -28.4100  -13.4610   20.5570 C   0  0  0  0  0  2  0  0  0  0  0  0
  -29.6640  -13.8230   19.8760 N   0  0  0  0  0  0  0  0  0  0  0  0
  -31.2660  -15.3120   19.2410 O   0  0  0  0  0  0  0  0  0  0  0  0
  -29.2490  -16.0780   19.8690 N   0  0  0  0  0  0  0  0  0  0  0  0
  -28.3870  -15.7890   20.3090 H   0  0  0  0  0  0  0  0  0  0  0  0
  -24.9400  -13.8160   20.4120 C   0  0  0  0  0  0  0  0  0  0  0  0
  -23.9520  -12.9800   20.8530 C   0  0  0  0  0  0  0  0  0  0  0  0
  -24.4840  -11.6570   20.7570 C   0  0  0  0  0  0  0  0  0  0  0  0
  -26.0090  -13.0010   20.0760 N   0  0  0  0  0  0  0  0  0  0  0  0
  -25.7430  -11.6970   20.3410 N   0  0  0  0  0  0  0  0  0  0  0  0
  -23.8480  -10.3530   20.9820 C   0  0  0  0  0  0  0  0  0  0  0  0
  -24.3300   -9.4550   21.9610 C   0  0  0  0  0  3  0  0  0  0  0  0
  -23.6900   -8.2140   22.1710 C   0  0  0  0  0  3  0  0  0  0  0  0
  -22.5530   -7.8630   21.4040 C   0  0  0  0  0  0  0  0  0  0  0  0
  -22.0910   -8.7510   20.4160 C   0  0  0  0  0  3  0  0  0  0  0  0
  -22.7310   -9.9830   20.2050 C   0  0  0  0  0  3  0  0  0  0  0  0
  -21.8840   -6.6690   21.5210 O   0  0  0  0  0  0  0  0  0  0  0  0
  -21.7690   -6.0240   22.7270 C   0  0  0  0  0  0  0  0  0  0  0  0
  -21.1470   -6.6300   23.8400 C   0  0  0  0  0  3  0  0  0  0  0  0
  -20.9880   -5.9050   25.0380 C   0  0  0  0  0  3  0  0  0  0  0  0
  -21.4420   -4.5750   25.1220 C   0  0  0  0  0  0  0  0  0  0  0  0
  -22.0580   -3.9690   24.0130 C   0  0  0  0  0  3  0  0  0  0  0  0
  -22.2180   -4.6910   22.8180 C   0  0  0  0  0  0  0  0  0  0  0  0
  -22.7930   -4.0950   21.7440 F   0  0  0  0  0  0  0  0  0  0  0  0
  -21.2840   -3.8760   26.2710 F   0  0  0  0  0  0  0  0  0  0  0  0
  -22.5590  -13.3720   21.2530 C   0  0  0  0  0  0  0  0  0  0  0  0
  -21.9520  -12.6280   22.1690 N   0  0  0  0  0  0  0  0  0  0  0  0
  -22.0190  -14.3750   20.7870 O   0  0  0  0  0  0  0  0  0  0  0  0
  -22.4050  -11.8170   22.5660 H   0  0  0  0  0  0  0  0  0  0  0  0
  -21.0240  -12.8720   22.4830 H   0  0  0  0  0  0  0  0  0  0  0  0
  -25.0100  -15.1970   20.2480 N   0  0  0  0  0  0  0  0  0  0  0  0
  -24.2140  -15.7990   20.4250 H   0  0  0  0  0  0  0  0  0  0  0  0
  -25.7990  -15.6930   19.8540 H   0  0  0  0  0  0  0  0  0  0  0  0
  1 49  1  0
  2  1  1  0
  2  3  1  0
  4  2  1  0
  5  2  1  0
  6  5  1  0
  7  8  1  0
  7  6  1  0
  8 10  1  0
  9 20  2  0
 10 15  1  0
 11 19  1  0
 11 21  1  0
 12 18  1  0
 12 14  1  0
 13 19  1  0
 14 13  1  0
 15 14  2  0
 16 17  1  0
 16 10  2  0
 17 12  2  0
 18 11  1  0
 19  9  1  0
 21 23  2  0
 22 21  1  0
 24 22  1  0
 25 34  2  0
 25 30  1  0
 26 22  1  0
 26 30  1  0
 27 26  1  0
 28 29  1  0
 28 27  1  0
 29 25  1  0
 30 31  2  0
 31 32  1  0
 33 32  2  0
 34 33  1  0
 35  9  1  0
 35 36  1  0
 35 45  1  0
 36 39  1  0
 37 41  1  0
 37 36  1  0
 38 37  2  0
 41 40  1  0
 43 41  1  0
 43 44  1  0
 43 42  1  0
 45 48  1  1
 45 46  1  0
 47 45  1  0
 49 56  1  0
 49 55  1  0
 50 51  1  0
 52 50  1  0
 53 51  1  0
 54 55  1  0
 54 52  1  0
 55 53  1  0
 57 56  1  0
 57 66  1  0
 58 66  1  0
 58 64  1  0
 59 64  1  0
 60 61  1  0
 60 59  1  0
 62 61  1  0
 62 71  1  0
 62 63  1  0
 64 63  1  0
 65 58  2  0
 66 67  1  0
 68 69  2  0
 69 88  1  0
 70 69  1  0
 70 73  1  0
 71 72  1  0
 71 68  1  0
 72 70  2  0
 73 74  1  0
 74 75  2  0
 76 79  1  0
 76 75  1  0
 77 76  2  0
 78 77  1  0
 78 73  2  0
 79 80  1  0
 80 85  2  0
 80 81  1  0
 81 82  2  0
 82 83  1  0
 83 87  1  0
 84 83  2  0
 85 84  1  0
 86 85  1  0
 88 89  1  0
 89 92  1  0
 89 91  1  0
 90 88  2  0
 93 68  1  0
 93 94  1  0
 95 93  1  0
M  ISO  4   7 101   8 101  58 100  66 100
M  END
>  <TORSDO>  (63) 
F 24

>  <SCORE>  (63) 
-11.907

>  <name>  (63) 
63

>  <ligand_id>  (63) 
63

>  <original_smiles>  (63) 
[H]c1c([H])c([H])c2c(c1[H])C([H])([H])C([H])([H])C([H])([H])C2([H])N([H])C(=O)C1([H])N(C(=O)C([H])(N([H])C(=O)C([H])(N([H])C([H])([H])[H])C([H])([H])[H])C(C([H])([H])[H])(C([H])([H])[H])C([H])([H])[H])C([H])([H])c2c([H])c(OC([H])([H])C([H])([H])C([H])([H])[N+]([H])([H])C([H])([H])C([H])(C([H])([H])C([H])([H])N([H])C(=O)N3C([H])([H])C([H])([H])C([H])([H])C([H])(n4nc(-c5c([H])c([H])c(Oc6c([H])c([H])c(F)c([H])c6F)c([H])c5[H])c(C(=O)N([H])[H])c4N([H])[H])C3([H])[H])C3([H])C([H])([H])C([H])([H])C([H])([H])C([H])([H])C3([H])[H])c([H])c([H])c2C1([H])[H]

>  <smiles>  (63) 
[H]c1c([H])c([H])c2c(c1[H])C([H])([H])C([H])([H])C([H])([H])C2([H])N([H])C(=O)C1([H])N(C(=O)C([H])(N([H])C(=O)C([H])(N([H])C([H])([H])[H])C([H])([H])[H])C(C([H])([H])[H])(C([H])([H])[H])C([H])([H])[H])C([H])([H])c2c([H])c(OC([H])([H])C([H])([H])C([H])([H])[N+]([H])([H])C([H])([H])C([H])(C([H])([H])C([H])([H])N([H])C(=O)N3C([H])([H])C([H])([H])C([H])([H])C([H])(n4nc(-c5c([H])c([H])c(Oc6c([H])c([H])c(F)c([H])c6F)c([H])c5[H])c(C(=O)N([H])[H])c4N([H])[H])C3([H])[H])C3([H])C([H])([H])C([H])([H])C([H])([H])C([H])([H])C3([H])[H])c([H])c([H])c2C1([H])[H]

$$$$
64:0:0
     RDKit          3D

112121  0  0  1  0  0  0  0  0999 V2000
  -28.2670  -20.9340   19.4600 C   0  0  0  0  0  2  0  0  0  0  0  0
  -28.0290  -21.9200   18.3020 C   0  0  0  0  0  2  0  0  0  0  0  0
  -29.7080  -21.1940   19.9360 C   0  0  0  0  0  2  0  0  0  0  0  0
  -29.1830  -22.9350   18.3820 C   0  0  0  0  0  3  0  0  0  0  0  0
  -30.3390  -22.1170   18.9510 N   0  0  2  0  0  4  0  0  0  0  0  0
  -30.8510  -22.8090   19.4810 H   0  0  0  0  0  0  0  0  0  0  0  0
  -28.7300  -24.1110   19.3490 C   0  0  0  0  0  0  0  0  0  0  0  0
  -28.5380  -25.4090   18.9180 N   0  0  0  0  0  0  0  0  0  0  0  0
  -28.5000  -23.7740   20.5100 O   0  0  0  0  0  0  0  0  0  0  0  0
  -28.8340  -25.6050   17.9690 H   0  0  0  0  0  0  0  0  0  0  0  0
  -27.7400  -26.5330   19.5660 C   0  0  0  0  0  3  0  0  0  0  0  0
  -27.9360  -26.6530   21.1050 C   0  0  0  0  0  2  0  0  0  0  0  0
  -29.7550  -26.3390   22.8380 C   0  0  0  0  0  1  0  0  0  0  0  0
  -29.4690  -28.6080   21.7960 C   0  0  0  0  0  1  0  0  0  0  0  0
  -29.3510  -27.0890   21.5610 C   0  0  0  0  0  3  0  0  0  0  0  0
  -27.8890  -28.0020   18.9820 C   0  0  0  0  0  2  0  0  0  0  0  0
  -26.7430  -28.8520   18.8210 O   0  0  0  0  0  0  0  0  0  0  0  0
  -24.7450  -29.2010   25.8070 C   0  0  0  0  0  0  0  0  0  0  0  0
  -25.8540  -29.1100   19.8540 C   0  0  0  0  0  0  0  0  0  0  0  0
  -23.0070  -29.6060   24.1020 C   0  0  0  0  0  3  0  0  0  0  0  0
  -23.8470  -29.8900   21.7110 C   0  0  0  0  0  0  0  0  0  0  0  0
  -25.4720  -30.0900   23.5880 C   0  0  0  0  0  2  0  0  0  0  0  0
  -25.1810  -29.7740   22.1310 C   0  0  0  0  0  0  0  0  0  0  0  0
  -26.1940  -29.3800   21.2110 C   0  0  0  0  0  3  0  0  0  0  0  0
  -24.5100  -29.2460   19.4640 C   0  0  0  0  0  3  0  0  0  0  0  0
  -23.5080  -29.6170   20.3780 C   0  0  0  0  0  3  0  0  0  0  0  0
  -22.8200  -30.3140   22.7390 C   0  0  0  0  0  2  0  0  0  0  0  0
  -24.4390  -29.5990   24.5400 N   0  0  0  0  0  0  0  0  0  0  0  0
  -23.8580  -28.8740   26.6080 O   0  0  0  0  0  0  0  0  0  0  0  0
  -22.3820  -28.1920   24.0180 C   0  0  0  0  0  0  0  0  0  0  0  0
  -21.2610  -28.0660   23.2880 N   0  0  0  0  0  0  0  0  0  0  0  0
  -22.9230  -27.2340   24.5770 O   0  0  0  0  0  0  0  0  0  0  0  0
  -20.8660  -28.8930   22.8650 H   0  0  0  0  0  0  0  0  0  0  0  0
  -18.8140  -26.5010   21.1410 C   0  0  0  0  0  0  0  0  0  0  0  0
  -20.5320  -26.8200   23.0450 C   0  0  0  0  0  3  0  0  0  0  0  0
  -21.4090  -25.7940   22.2890 C   0  0  0  0  0  2  0  0  0  0  0  0
  -21.2340  -25.8600   20.7690 C   0  0  0  0  0  2  0  0  0  0  0  0
  -19.7750  -25.6030   20.3830 C   0  0  0  0  0  2  0  0  0  0  0  0
  -19.1740  -27.0830   22.3850 C   0  0  0  0  0  0  0  0  0  0  0  0
  -18.2570  -27.9450   23.0280 C   0  0  0  0  0  3  0  0  0  0  0  0
  -17.0020  -28.2200   22.4520 C   0  0  0  0  0  3  0  0  0  0  0  0
  -16.6440  -27.6240   21.2290 C   0  0  0  0  0  3  0  0  0  0  0  0
  -17.5480  -26.7650   20.5780 C   0  0  0  0  0  3  0  0  0  0  0  0
  -26.2180  -29.1550   26.3150 C   0  0  0  0  0  3  0  0  0  0  0  0
  -27.1490  -28.2340   25.4340 C   0  0  1  0  0  0  0  0  0  0  0  0
  -26.6500  -26.7740   25.3250 C   0  0  0  0  0  1  0  0  0  0  0  0
  -27.2780  -28.7980   23.9970 C   0  0  0  0  0  1  0  0  0  0  0  0
  -28.5750  -28.2110   26.0280 C   0  0  0  0  0  1  0  0  0  0  0  0
  -26.1920  -28.6920   27.7080 N   0  0  0  0  0  0  0  0  0  0  0  0
  -26.6150  -29.4140   28.7550 C   0  0  0  0  0  0  0  0  0  0  0  0
  -27.1350  -30.5270   28.6320 O   0  0  0  0  0  0  0  0  0  0  0  0
  -25.7240  -27.8150   27.8870 H   0  0  0  0  0  0  0  0  0  0  0  0
  -25.1770  -29.4070   30.8130 C   0  0  0  0  0  1  0  0  0  0  0  0
  -26.4330  -28.8100   30.1570 C   0  0  0  0  0  3  0  0  0  0  0  0
  -28.7880  -28.2770   30.6060 C   0  0  0  0  0  1  0  0  0  0  0  0
  -27.6030  -29.0130   31.0400 N   0  0  0  0  0  0  0  0  0  0  0  0
  -27.3890  -28.7330   31.9930 H   0  0  0  0  0  0  0  0  0  0  0  0
  -31.3530  -21.4150   18.0290 C   0  0  0  0  0  3  0  0  0  0  0  0
  -30.9910  -19.9200   17.7240 C   0  0  0  0  0  2  0  0  0  0  0  0
  -30.4220  -19.6450   16.3190 C   0  0  0  0  0  2  0  0  0  0  0  0
  -29.6100  -18.3300   16.2690 C   0  0  0  0  0  2  0  0  0  0  0  0
  -28.5680  -18.2790   15.1360 C   0  0  0  0  0  2  0  0  0  0  0  0
  -27.3460  -19.0430   15.4530 N   0  0  0  0  0  4  0  0  0  0  0  0
  -26.8870  -18.6650   16.2630 H   0  0  0  0  0  0  0  0  0  0  0  0
  -26.6950  -18.9900   14.6890 H   0  0  0  0  0  0  0  0  0  0  0  0
  -27.5550  -20.0110   15.6180 H   0  0  0  0  0  0  0  0  0  0  0  0
  -32.9110  -21.6080   18.4270 C   0  0  0  0  0  3  0  0  0  0  0  0
  -35.0460  -20.4240   17.4350 C   0  0  0  0  0  0  0  0  0  0  0  0
  -36.4340  -18.6470   16.3840 C   0  0  0  0  0  2  0  0  0  0  0  0
  -35.4910  -17.7540   15.5490 C   0  0  0  0  0  2  0  0  0  0  0  0
  -34.8470  -16.6540   16.4180 C   0  0  0  0  0  2  0  0  0  0  0  0
  -34.2590  -17.2160   17.7410 C   0  0  0  0  0  3  0  0  0  0  0  0
  -35.2830  -18.1280   18.4470 C   0  0  0  0  0  2  0  0  0  0  0  0
  -35.6430  -19.1940   17.4990 N   0  0  0  0  0  0  0  0  0  0  0  0
  -35.4690  -21.3280   16.7140 O   0  0  0  0  0  0  0  0  0  0  0  0
  -33.8510  -20.4870   18.0890 N   0  0  0  0  0  0  0  0  0  0  0  0
  -33.6430  -19.6220   18.5620 H   0  0  0  0  0  0  0  0  0  0  0  0
  -32.5190  -15.9980   19.1850 C   0  0  0  0  0  0  0  0  0  0  0  0
  -32.5740  -14.8230   19.8830 C   0  0  0  0  0  0  0  0  0  0  0  0
  -33.8980  -14.3200   19.6990 C   0  0  0  0  0  0  0  0  0  0  0  0
  -33.7740  -16.1660   18.6260 N   0  0  0  0  0  0  0  0  0  0  0  0
  -34.6230  -15.1750   18.9900 N   0  0  0  0  0  0  0  0  0  0  0  0
  -34.5040  -13.0510   20.1090 C   0  0  0  0  0  0  0  0  0  0  0  0
  -35.8050  -12.9980   20.6520 C   0  0  0  0  0  3  0  0  0  0  0  0
  -36.3620  -11.7660   21.0550 C   0  0  0  0  0  3  0  0  0  0  0  0
  -35.6140  -10.5710   20.9210 C   0  0  0  0  0  0  0  0  0  0  0  0
  -34.3270  -10.6270   20.3560 C   0  0  0  0  0  3  0  0  0  0  0  0
  -33.7760  -11.8550   19.9510 C   0  0  0  0  0  3  0  0  0  0  0  0
  -36.0810   -9.3260   21.2620 O   0  0  0  0  0  0  0  0  0  0  0  0
  -37.1150   -9.1610   22.1460 C   0  0  0  0  0  0  0  0  0  0  0  0
  -37.0480   -9.6470   23.4710 C   0  0  0  0  0  3  0  0  0  0  0  0
  -38.1070   -9.3950   24.3660 C   0  0  0  0  0  3  0  0  0  0  0  0
  -39.2250   -8.6500   23.9430 C   0  0  0  0  0  0  0  0  0  0  0  0
  -39.2890   -8.1620   22.6260 C   0  0  0  0  0  3  0  0  0  0  0  0
  -38.2350   -8.4140   21.7330 C   0  0  0  0  0  0  0  0  0  0  0  0
  -38.2920   -7.9230   20.4710 F   0  0  0  0  0  0  0  0  0  0  0  0
  -40.2390   -8.4010   24.8050 F   0  0  0  0  0  0  0  0  0  0  0  0
  -31.4330  -14.1460   20.5850 C   0  0  0  0  0  0  0  0  0  0  0  0
  -31.7260  -13.3540   21.6090 N   0  0  0  0  0  0  0  0  0  0  0  0
  -30.2650  -14.3520   20.2540 O   0  0  0  0  0  0  0  0  0  0  0  0
  -32.6840  -13.2050   21.8960 H   0  0  0  0  0  0  0  0  0  0  0  0
  -30.9850  -12.8890   22.1140 H   0  0  0  0  0  0  0  0  0  0  0  0
  -31.4990  -16.9200   18.9600 N   0  0  0  0  0  0  0  0  0  0  0  0
  -30.5600  -16.7510   19.3030 H   0  0  0  0  0  0  0  0  0  0  0  0
  -31.5370  -17.6560   18.2720 H   0  0  0  0  0  0  0  0  0  0  0  0
  -33.1550  -21.9710   19.9220 C   0  0  0  0  0  2  0  0  0  0  0  0
  -36.5980  -24.5000   20.7410 C   0  0  0  0  0  3  0  0  0  0  0  0
  -36.7260  -23.0970   20.8060 C   0  0  0  0  0  3  0  0  0  0  0  0
  -35.3600  -25.0790   20.4050 C   0  0  0  0  0  3  0  0  0  0  0  0
  -35.6140  -22.2790   20.5270 C   0  0  0  0  0  3  0  0  0  0  0  0
  -34.2510  -24.2580   20.1150 C   0  0  0  0  0  3  0  0  0  0  0  0
  -34.3730  -22.8520   20.1740 C   0  0  0  0  0  0  0  0  0  0  0  0
  1  3  1  0
  2  4  1  0
  2  1  1  0
  4  5  1  0
  4  7  1  0
  5  6  1  1
  5  3  1  0
  7  9  2  0
  8  7  1  0
  8 11  1  0
 10  8  1  0
 11 16  1  0
 11 12  1  0
 12 15  1  0
 15 14  1  0
 15 13  1  0
 17 16  1  0
 17 19  1  0
 18 29  2  0
 19 24  1  0
 20 30  1  0
 20 28  1  0
 21 23  1  0
 21 27  1  0
 22 28  1  0
 23 22  1  0
 24 23  2  0
 25 19  2  0
 25 26  1  0
 26 21  2  0
 27 20  1  0
 28 18  1  0
 30 32  2  0
 31 30  1  0
 33 31  1  0
 34 39  1  0
 35 31  1  0
 36 35  1  0
 37 36  1  0
 38 37  1  0
 38 34  1  0
 39 40  2  0
 39 35  1  0
 41 40  1  0
 42 41  2  0
 43 34  2  0
 43 42  1  0
 44 18  1  0
 44 49  1  0
 45 48  1  1
 45 44  1  0
 46 45  1  0
 47 45  1  0
 49 52  1  0
 49 50  1  0
 50 54  1  0
 51 50  2  0
 54 53  1  0
 54 56  1  0
 55 56  1  0
 56 57  1  0
 58 59  1  0
 58 67  1  0
 58  5  1  0
 60 59  1  0
 61 60  1  0
 62 63  1  0
 62 61  1  0
 63 66  1  0
 63 64  1  0
 65 63  1  0
 67106  1  0
 68 74  1  0
 68 76  1  0
 69 74  1  0
 70 69  1  0
 70 71  1  0
 72 71  1  0
 72 73  1  0
 72 81  1  0
 74 73  1  0
 75 68  2  0
 76 67  1  0
 76 77  1  0
 78 79  2  0
 79 98  1  0
 80 79  1  0
 80 83  1  0
 81 82  1  0
 81 78  1  0
 82 80  2  0
 83 84  1  0
 84 85  2  0
 86 85  1  0
 86 89  1  0
 87 86  2  0
 88 83  2  0
 88 87  1  0
 89 90  1  0
 90 91  1  0
 91 92  2  0
 93 92  1  0
 93 97  1  0
 94 93  2  0
 95 90  2  0
 95 94  1  0
 96 95  1  0
 98 99  1  0
 99101  1  0
 99102  1  0
100 98  2  0
103 78  1  0
103104  1  0
105103  1  0
106112  1  0
107108  1  0
109107  2  0
110108  2  0
111112  2  0
111109  1  0
112110  1  0
M  ISO  4  16 101  17 101  68 100  76 100
M  END
>  <TORSDO>  (64) 
F 30

>  <SCORE>  (64) 
-4.131

>  <name>  (64) 
64

>  <ligand_id>  (64) 
64

>  <original_smiles>  (64) 
[H]c1c([H])c([H])c(C([H])([H])C([H])(N([H])C(=O)N2C([H])([H])C([H])([H])C([H])([H])C([H])(n3nc(-c4c([H])c([H])c(Oc5c([H])c([H])c(F)c([H])c5F)c([H])c4[H])c(C(=O)N([H])[H])c3N([H])[H])C2([H])[H])C([H])(C([H])([H])C([H])([H])C([H])([H])C([H])([H])[N+]([H])([H])[H])[N+]2([H])C([H])([H])C([H])([H])C([H])([H])C2([H])C(=O)N([H])C([H])(C([H])([H])Oc2c([H])c([H])c3c(c2[H])C([H])([H])N(C(=O)C([H])(N([H])C(=O)C([H])(N([H])C([H])([H])[H])C([H])([H])[H])C(C([H])([H])[H])(C([H])([H])[H])C([H])([H])[H])C([H])(C(=O)N([H])C2([H])c4c([H])c([H])c([H])c([H])c4C([H])([H])C([H])([H])C2([H])[H])C3([H])[H])C([H])([H])C([H])(C([H])([H])[H])C([H])([H])[H])c([H])c1[H]

>  <smiles>  (64) 
[H]c1c([H])c([H])c(C([H])([H])C([H])(N([H])C(=O)N2C([H])([H])C([H])([H])C([H])([H])C([H])(n3nc(-c4c([H])c([H])c(Oc5c([H])c([H])c(F)c([H])c5F)c([H])c4[H])c(C(=O)N([H])[H])c3N([H])[H])C2([H])[H])C([H])(C([H])([H])C([H])([H])C([H])([H])C([H])([H])[N+]([H])([H])[H])[N+]2([H])C([H])([H])C([H])([H])C([H])([H])C2([H])C(=O)N([H])C([H])(C([H])([H])Oc2c([H])c([H])c3c(c2[H])C([H])([H])N(C(=O)C([H])(N([H])C(=O)C([H])(N([H])C([H])([H])[H])C([H])([H])[H])C(C([H])([H])[H])(C([H])([H])[H])C([H])([H])[H])C([H])(C(=O)N([H])C2([H])c4c([H])c([H])c([H])c([H])c4C([H])([H])C([H])([H])C2([H])[H])C3([H])[H])C([H])([H])C([H])(C([H])([H])[H])C([H])([H])[H])c([H])c1[H]

$$$$
65:0:0
     RDKit          3D

102109  0  0  1  0  0  0  0  0999 V2000
  -30.8320  -17.8960   20.2660 C   0  0  0  0  0  3  0  0  0  0  0  0
  -32.2050  -17.3910   20.3920 N   0  0  0  0  0  4  0  0  0  0  0  0
  -32.4780  -17.3100   21.3540 H   0  0  0  0  0  0  0  0  0  0  0  0
  -32.8560  -17.9790   19.9030 H   0  0  0  0  0  0  0  0  0  0  0  0
  -32.2370  -16.4540   19.9890 H   0  0  0  0  0  0  0  0  0  0  0  0
  -29.7680  -16.9280   20.9340 C   0  0  0  0  0  3  0  0  0  0  0  0
  -30.6220  -14.5330   20.2060 C   0  0  0  0  0  0  0  0  0  0  0  0
  -30.2930  -12.4210   18.9700 C   0  0  0  0  0  2  0  0  0  0  0  0
  -29.2980  -12.6900   17.8220 C   0  0  0  0  0  2  0  0  0  0  0  0
  -27.8360  -12.5530   18.3020 C   0  0  0  0  0  2  0  0  0  0  0  0
  -27.5730  -13.3050   19.6330 C   0  0  0  0  0  3  0  0  0  0  0  0
  -28.6720  -12.9950   20.6720 C   0  0  0  0  0  2  0  0  0  0  0  0
  -29.9780  -13.3390   20.0800 N   0  0  0  0  0  0  0  0  0  0  0  0
  -31.6430  -14.8050   19.5700 O   0  0  0  0  0  0  0  0  0  0  0  0
  -30.0050  -15.4480   20.9960 N   0  0  0  0  0  0  0  0  0  0  0  0
  -29.3560  -14.9940   21.6230 H   0  0  0  0  0  0  0  0  0  0  0  0
  -25.1980  -13.9070   20.4260 C   0  0  0  0  0  0  0  0  0  0  0  0
  -24.1440  -13.1320   20.8300 C   0  0  0  0  0  0  0  0  0  0  0  0
  -24.6040  -11.7820   20.7720 C   0  0  0  0  0  0  0  0  0  0  0  0
  -26.2370  -13.0290   20.1540 N   0  0  0  0  0  0  0  0  0  0  0  0
  -25.8830  -11.7450   20.4200 N   0  0  0  0  0  0  0  0  0  0  0  0
  -23.8880  -10.5180   20.9770 C   0  0  0  0  0  0  0  0  0  0  0  0
  -24.3520   -9.5460   21.8900 C   0  0  0  0  0  3  0  0  0  0  0  0
  -23.6320   -8.3470   22.0820 C   0  0  0  0  0  3  0  0  0  0  0  0
  -22.4370   -8.1130   21.3600 C   0  0  0  0  0  0  0  0  0  0  0  0
  -21.9970   -9.0710   20.4310 C   0  0  0  0  0  3  0  0  0  0  0  0
  -22.7160  -10.2610   20.2370 C   0  0  0  0  0  3  0  0  0  0  0  0
  -21.6810   -6.9710   21.4660 O   0  0  0  0  0  0  0  0  0  0  0  0
  -21.6600   -6.2270   22.6160 C   0  0  0  0  0  0  0  0  0  0  0  0
  -21.2550   -6.7750   23.8540 C   0  0  0  0  0  3  0  0  0  0  0  0
  -21.1810   -5.9520   24.9970 C   0  0  0  0  0  3  0  0  0  0  0  0
  -21.5020   -4.5840   24.9030 C   0  0  0  0  0  0  0  0  0  0  0  0
  -21.8990   -4.0370   23.6700 C   0  0  0  0  0  3  0  0  0  0  0  0
  -21.9740   -4.8550   22.5300 C   0  0  0  0  0  0  0  0  0  0  0  0
  -22.3370   -4.3180   21.3410 F   0  0  0  0  0  0  0  0  0  0  0  0
  -21.4250   -3.7920   25.9980 F   0  0  0  0  0  0  0  0  0  0  0  0
  -22.7560  -13.6080   21.1530 C   0  0  0  0  0  0  0  0  0  0  0  0
  -22.0590  -12.9080   22.0390 N   0  0  0  0  0  0  0  0  0  0  0  0
  -22.3020  -14.6410   20.6580 O   0  0  0  0  0  0  0  0  0  0  0  0
  -22.4410  -12.0740   22.4630 H   0  0  0  0  0  0  0  0  0  0  0  0
  -21.1310  -13.2110   22.3000 H   0  0  0  0  0  0  0  0  0  0  0  0
  -25.3460  -15.2770   20.2480 N   0  0  0  0  0  0  0  0  0  0  0  0
  -24.5800  -15.9210   20.4130 H   0  0  0  0  0  0  0  0  0  0  0  0
  -26.1890  -15.7290   19.9180 H   0  0  0  0  0  0  0  0  0  0  0  0
  -28.3020  -17.0670   20.3990 C   0  0  0  0  0  2  0  0  0  0  0  0
  -27.6560  -18.4420   20.0880 C   0  0  0  0  0  2  0  0  0  0  0  0
  -27.6690  -18.7940   18.5810 C   0  0  0  0  0  2  0  0  0  0  0  0
  -27.1110  -20.1970   18.2550 C   0  0  0  0  0  2  0  0  0  0  0  0
  -25.6410  -20.2330   18.3460 N   0  0  0  0  0  4  0  0  0  0  0  0
  -25.2470  -19.5000   17.7860 H   0  0  0  0  0  0  0  0  0  0  0  0
  -25.2900  -21.1120   18.0070 H   0  0  0  0  0  0  0  0  0  0  0  0
  -25.3310  -20.1210   19.2960 H   0  0  0  0  0  0  0  0  0  0  0  0
  -30.8030  -19.3630   20.8330 C   0  0  0  0  0  2  0  0  0  0  0  0
  -30.8060  -20.5240   19.7970 C   0  0  0  0  0  2  0  0  0  0  0  0
  -30.6260  -21.9330   20.4380 C   0  0  0  0  0  2  0  0  0  0  0  0
  -30.6140  -23.1140   19.4280 C   0  0  0  0  0  2  0  0  0  0  0  0
  -30.1780  -24.4150   20.0140 N   0  0  0  0  0  4  0  0  0  0  0  0
  -30.8240  -24.6970   20.7370 H   0  0  0  0  0  0  0  0  0  0  0  0
  -29.2800  -24.2840   20.4550 H   0  0  0  0  0  0  0  0  0  0  0  0
  -30.0380  -25.5260   19.0250 C   0  0  0  0  0  2  0  0  0  0  0  0
  -29.6030  -26.8880   19.6370 C   0  0  0  0  0  2  0  0  0  0  0  0
  -28.4780  -26.6940   20.4840 O   0  0  0  0  0  0  0  0  0  0  0  0
  -24.6080  -31.9690   23.2910 C   0  0  0  0  0  0  0  0  0  0  0  0
  -27.3790  -27.5120   20.3430 C   0  0  0  0  0  0  0  0  0  0  0  0
  -23.4580  -30.5320   21.6390 C   0  0  0  0  0  3  0  0  0  0  0  0
  -24.9670  -28.9880   20.2720 C   0  0  0  0  0  0  0  0  0  0  0  0
  -25.9830  -30.9140   21.4990 C   0  0  0  0  0  2  0  0  0  0  0  0
  -26.1050  -29.5350   20.8810 C   0  0  0  0  0  0  0  0  0  0  0  0
  -27.3150  -28.8020   20.9190 C   0  0  0  0  0  3  0  0  0  0  0  0
  -26.2260  -26.9750   19.7370 C   0  0  0  0  0  3  0  0  0  0  0  0
  -25.0230  -27.7050   19.6970 C   0  0  0  0  0  3  0  0  0  0  0  0
  -23.7100  -29.8310   20.2770 C   0  0  0  0  0  2  0  0  0  0  0  0
  -24.7000  -31.1530   22.2040 N   0  0  0  0  0  0  0  0  0  0  0  0
  -23.5090  -32.2390   23.7990 O   0  0  0  0  0  0  0  0  0  0  0  0
  -22.7860  -29.5210   22.5980 C   0  0  0  0  0  0  0  0  0  0  0  0
  -21.4620  -29.3460   22.4520 N   0  0  0  0  0  0  0  0  0  0  0  0
  -23.4530  -28.8990   23.4290 O   0  0  0  0  0  0  0  0  0  0  0  0
  -20.9840  -29.9020   21.7550 H   0  0  0  0  0  0  0  0  0  0  0  0
  -18.0680  -28.2020   22.9310 C   0  0  0  0  0  0  0  0  0  0  0  0
  -20.6290  -28.4170   23.2160 C   0  0  0  0  0  3  0  0  0  0  0  0
  -20.7110  -26.9880   22.6340 C   0  0  0  0  0  2  0  0  0  0  0  0
  -19.6090  -26.6870   21.6120 C   0  0  0  0  0  2  0  0  0  0  0  0
  -18.2270  -26.8510   22.2520 C   0  0  0  0  0  2  0  0  0  0  0  0
  -19.1970  -28.9430   23.3690 C   0  0  0  0  0  0  0  0  0  0  0  0
  -18.9950  -30.2080   23.9630 C   0  0  0  0  0  3  0  0  0  0  0  0
  -17.6990  -30.7300   24.1240 C   0  0  0  0  0  3  0  0  0  0  0  0
  -16.5850  -29.9840   23.7040 C   0  0  0  0  0  3  0  0  0  0  0  0
  -16.7700  -28.7210   23.1120 C   0  0  0  0  0  3  0  0  0  0  0  0
  -25.8710  -32.6190   23.9390 C   0  0  0  0  0  3  0  0  0  0  0  0
  -25.5530  -34.0260   24.2150 N   0  0  0  0  0  0  0  0  0  0  0  0
  -25.9180  -35.0550   23.4390 C   0  0  0  0  0  0  0  0  0  0  0  0
  -26.6280  -34.9200   22.4380 O   0  0  0  0  0  0  0  0  0  0  0  0
  -24.9250  -34.2030   24.9850 H   0  0  0  0  0  0  0  0  0  0  0  0
  -24.2130  -36.8410   22.9580 C   0  0  0  0  0  1  0  0  0  0  0  0
  -25.4130  -36.4560   23.8350 C   0  0  0  0  0  3  0  0  0  0  0  0
  -27.5100  -37.3600   24.7400 C   0  0  0  0  0  1  0  0  0  0  0  0
  -26.4540  -37.5030   23.7410 N   0  0  0  0  0  0  0  0  0  0  0  0
  -26.0450  -38.4270   23.8430 H   0  0  0  0  0  0  0  0  0  0  0  0
  -26.3450  -31.8840   25.2530 C   0  0  1  0  0  0  0  0  0  0  0  0
  -25.2160  -31.6700   26.2870 C   0  0  0  0  0  1  0  0  0  0  0  0
  -26.9480  -30.5010   24.9150 C   0  0  0  0  0  1  0  0  0  0  0  0
  -27.4660  -32.7030   25.9350 C   0  0  0  0  0  1  0  0  0  0  0  0
  1  2  1  0
  1 53  1  0
  1  6  1  0
  2  3  1  0
  4  2  1  0
  5  2  1  0
  6 45  1  0
  6 15  1  0
  7 15  1  0
  8 13  1  0
  9 10  1  0
  9  8  1  0
 11 10  1  0
 11 20  1  0
 11 12  1  0
 13  7  1  0
 13 12  1  0
 14  7  2  0
 15 16  1  0
 17 18  2  0
 18 37  1  0
 19 18  1  0
 19 22  1  0
 20 21  1  0
 20 17  1  0
 21 19  2  0
 22 23  1  0
 23 24  2  0
 25 28  1  0
 25 24  1  0
 26 25  2  0
 27 26  1  0
 27 22  2  0
 28 29  1  0
 29 30  1  0
 30 31  2  0
 32 31  1  0
 32 36  1  0
 33 32  2  0
 34 29  2  0
 34 33  1  0
 35 34  1  0
 37 38  1  0
 38 41  1  0
 38 40  1  0
 39 37  2  0
 42 43  1  0
 42 17  1  0
 44 42  1  0
 46 45  1  0
 47 46  1  0
 48 49  1  0
 48 47  1  0
 49 52  1  0
 50 49  1  0
 51 49  1  0
 54 55  1  0
 54 53  1  0
 56 57  1  0
 56 55  1  0
 57 59  1  0
 57 58  1  0
 60 61  1  0
 60 57  1  0
 61 62  1  0
 63 74  2  0
 64 62  1  0
 64 69  1  0
 65 73  1  0
 65 75  1  0
 66 72  1  0
 66 68  1  0
 67 73  1  0
 68 69  2  0
 68 67  1  0
 70 64  2  0
 71 70  1  0
 71 66  2  0
 72 65  1  0
 73 63  1  0
 75 77  2  0
 76 75  1  0
 78 76  1  0
 79 88  2  0
 79 84  1  0
 80 76  1  0
 80 84  1  0
 81 80  1  0
 82 83  1  0
 82 81  1  0
 83 79  1  0
 84 85  2  0
 85 86  1  0
 87 86  2  0
 88 87  1  0
 89 63  1  0
 89 90  1  0
 89 99  1  0
 90 93  1  0
 91 95  1  0
 91 90  1  0
 92 91  2  0
 95 94  1  0
 97 95  1  0
 97 98  1  0
 97 96  1  0
 99102  1  1
 99100  1  0
101 99  1  0
M  ISO  4   7 100  15 100  61 101  62 101
M  END
>  <TORSDO>  (65) 
F 30

>  <SCORE>  (65) 
-11.534

>  <name>  (65) 
65

>  <ligand_id>  (65) 
65

>  <original_smiles>  (65) 
[H]c1c([H])c([H])c2c(c1[H])C([H])([H])C([H])([H])C([H])([H])C2([H])N([H])C(=O)C1([H])N(C(=O)C([H])(N([H])C(=O)C([H])(N([H])C([H])([H])[H])C([H])([H])[H])C(C([H])([H])[H])(C([H])([H])[H])C([H])([H])[H])C([H])([H])c2c([H])c(OC([H])([H])C([H])([H])[N+]([H])([H])C([H])([H])C([H])([H])C([H])([H])C([H])([H])C([H])(C([H])(N([H])C(=O)N3C([H])([H])C([H])([H])C([H])([H])C([H])(n4nc(-c5c([H])c([H])c(Oc6c([H])c([H])c(F)c([H])c6F)c([H])c5[H])c(C(=O)N([H])[H])c4N([H])[H])C3([H])[H])C([H])([H])C([H])([H])C([H])([H])C([H])([H])[N+]([H])([H])[H])[N+]([H])([H])[H])c([H])c([H])c2C1([H])[H]

>  <smiles>  (65) 
[H]c1c([H])c([H])c2c(c1[H])C([H])([H])C([H])([H])C([H])([H])C2([H])N([H])C(=O)C1([H])N(C(=O)C([H])(N([H])C(=O)C([H])(N([H])C([H])([H])[H])C([H])([H])[H])C(C([H])([H])[H])(C([H])([H])[H])C([H])([H])[H])C([H])([H])c2c([H])c(OC([H])([H])C([H])([H])[N+]([H])([H])C([H])([H])C([H])([H])C([H])([H])C([H])([H])C([H])(C([H])(N([H])C(=O)N3C([H])([H])C([H])([H])C([H])([H])C([H])(n4nc(-c5c([H])c([H])c(Oc6c([H])c([H])c(F)c([H])c6F)c([H])c5[H])c(C(=O)N([H])[H])c4N([H])[H])C3([H])[H])C([H])([H])C([H])([H])C([H])([H])C([H])([H])[N+]([H])([H])[H])[N+]([H])([H])[H])c([H])c([H])c2C1([H])[H]

$$$$
66:0:0
     RDKit          3D

 93100  0  0  1  0  0  0  0  0999 V2000
  -28.5380  -22.8390   20.5860 C   0  0  0  0  0  3  0  0  0  0  0  0
  -27.3990  -22.5530   21.4810 N   0  0  0  0  0  4  0  0  0  0  0  0
  -26.5850  -22.2960   20.9490 H   0  0  0  0  0  0  0  0  0  0  0  0
  -27.1710  -23.3620   22.0340 H   0  0  0  0  0  0  0  0  0  0  0  0
  -27.6140  -21.8010   22.1110 H   0  0  0  0  0  0  0  0  0  0  0  0
  -29.0070  -21.2700   19.8780 C   0  0  0  0  0  3  0  0  0  0  0  0
  -29.0610  -19.5980   20.5080 C   0  0  0  0  0  3  0  0  0  0  0  0
  -29.8630  -18.1180   19.9220 C   0  0  0  0  0  0  0  0  0  0  0  0
  -30.3850  -15.2470   20.1300 C   0  0  0  0  0  0  0  0  0  0  0  0
  -30.3150  -12.8300   19.2410 C   0  0  0  0  0  2  0  0  0  0  0  0
  -29.3620  -12.6580   18.0300 C   0  0  0  0  0  2  0  0  0  0  0  0
  -27.9240  -12.4000   18.5080 C   0  0  0  0  0  2  0  0  0  0  0  0
  -27.5090  -13.3590   19.6510 C   0  0  0  0  0  3  0  0  0  0  0  0
  -28.5810  -13.4750   20.7550 C   0  0  0  0  0  2  0  0  0  0  0  0
  -29.8060  -13.9560   20.1020 N   0  0  0  0  0  0  0  0  0  0  0  0
  -31.5860  -15.2560   19.8370 O   0  0  0  0  0  0  0  0  0  0  0  0
  -29.6430  -16.5120   20.2970 N   0  0  0  0  0  4  0  0  0  0  0  0
  -28.6880  -16.3280   20.5670 H   0  0  0  0  0  0  0  0  0  0  0  0
  -25.1550  -13.9240   20.4510 C   0  0  0  0  0  0  0  0  0  0  0  0
  -24.1010  -13.1470   20.8400 C   0  0  0  0  0  0  0  0  0  0  0  0
  -24.5650  -11.7960   20.7950 C   0  0  0  0  0  0  0  0  0  0  0  0
  -26.1920  -13.0480   20.1840 N   0  0  0  0  0  0  0  0  0  0  0  0
  -25.8500  -11.7620   20.4600 N   0  0  0  0  0  0  0  0  0  0  0  0
  -23.8420  -10.5330   20.9950 C   0  0  0  0  0  0  0  0  0  0  0  0
  -24.2820   -9.5680   21.9270 C   0  0  0  0  0  3  0  0  0  0  0  0
  -23.5570   -8.3710   22.1130 C   0  0  0  0  0  3  0  0  0  0  0  0
  -22.3780   -8.1310   21.3680 C   0  0  0  0  0  0  0  0  0  0  0  0
  -21.9560   -9.0860   20.4260 C   0  0  0  0  0  3  0  0  0  0  0  0
  -22.6820  -10.2740   20.2370 C   0  0  0  0  0  3  0  0  0  0  0  0
  -21.6230   -6.9870   21.4660 O   0  0  0  0  0  0  0  0  0  0  0  0
  -21.5760   -6.2530   22.6230 C   0  0  0  0  0  0  0  0  0  0  0  0
  -21.1480   -6.8140   23.8460 C   0  0  0  0  0  3  0  0  0  0  0  0
  -21.0480   -6.0060   24.9950 C   0  0  0  0  0  3  0  0  0  0  0  0
  -21.3680   -4.6370   24.9250 C   0  0  0  0  0  0  0  0  0  0  0  0
  -21.7900   -4.0740   23.7060 C   0  0  0  0  0  3  0  0  0  0  0  0
  -21.8910   -4.8790   22.5580 C   0  0  0  0  0  0  0  0  0  0  0  0
  -22.2770   -4.3290   21.3830 F   0  0  0  0  0  0  0  0  0  0  0  0
  -21.2660   -3.8580   26.0260 F   0  0  0  0  0  0  0  0  0  0  0  0
  -22.7080  -13.6240   21.1350 C   0  0  0  0  0  0  0  0  0  0  0  0
  -21.9920  -12.9250   22.0070 N   0  0  0  0  0  0  0  0  0  0  0  0
  -22.2660  -14.6540   20.6260 O   0  0  0  0  0  0  0  0  0  0  0  0
  -22.3600  -12.0900   22.4360 H   0  0  0  0  0  0  0  0  0  0  0  0
  -21.0620  -13.2310   22.2520 H   0  0  0  0  0  0  0  0  0  0  0  0
  -25.3150  -15.2950   20.2720 N   0  0  0  0  0  0  0  0  0  0  0  0
  -24.5500  -15.9480   20.4020 H   0  0  0  0  0  0  0  0  0  0  0  0
  -26.1380  -15.7270   19.8730 H   0  0  0  0  0  0  0  0  0  0  0  0
  -31.3740  -18.4060   19.9820 C   0  0  0  0  0  2  0  0  0  0  0  0
  -31.9080  -18.1470   21.3280 N   0  0  0  0  0  4  0  0  0  0  0  0
  -32.9020  -18.2850   21.3410 H   0  0  0  0  0  0  0  0  0  0  0  0
  -31.7080  -17.2020   21.5940 H   0  0  0  0  0  0  0  0  0  0  0  0
  -31.4910  -18.7670   22.0000 H   0  0  0  0  0  0  0  0  0  0  0  0
  -28.1820  -24.4190   19.8410 C   0  0  0  0  0  2  0  0  0  0  0  0
  -28.1920  -25.9740   20.3410 O   0  0  0  0  0  0  0  0  0  0  0  0
  -24.6320  -31.8910   23.2440 C   0  0  0  0  0  0  0  0  0  0  0  0
  -27.1710  -27.0380   20.2220 C   0  0  0  0  0  0  0  0  0  0  0  0
  -23.4290  -30.4940   21.6100 C   0  0  0  0  0  3  0  0  0  0  0  0
  -24.8690  -28.8930   20.1820 C   0  0  0  0  0  0  0  0  0  0  0  0
  -25.9920  -30.7110   21.4550 C   0  0  0  0  0  2  0  0  0  0  0  0
  -26.0550  -29.3030   20.8020 C   0  0  0  0  0  0  0  0  0  0  0  0
  -27.1960  -28.3920   20.8070 C   0  0  0  0  0  3  0  0  0  0  0  0
  -25.9590  -26.7740   19.5400 C   0  0  0  0  0  3  0  0  0  0  0  0
  -24.8440  -27.6490   19.5320 C   0  0  0  0  0  3  0  0  0  0  0  0
  -23.6500  -29.8100   20.2330 C   0  0  0  0  0  2  0  0  0  0  0  0
  -24.7060  -31.0580   22.1570 N   0  0  0  0  0  0  0  0  0  0  0  0
  -23.5450  -32.1840   23.7680 O   0  0  0  0  0  0  0  0  0  0  0  0
  -22.7390  -29.4980   22.5780 C   0  0  0  0  0  0  0  0  0  0  0  0
  -21.4090  -29.3360   22.4560 N   0  0  0  0  0  0  0  0  0  0  0  0
  -23.4060  -28.8730   23.4060 O   0  0  0  0  0  0  0  0  0  0  0  0
  -20.9240  -29.8950   21.7680 H   0  0  0  0  0  0  0  0  0  0  0  0
  -18.0260  -28.1280   22.9610 C   0  0  0  0  0  0  0  0  0  0  0  0
  -20.5850  -28.4020   23.2300 C   0  0  0  0  0  3  0  0  0  0  0  0
  -20.6940  -26.9660   22.6650 C   0  0  0  0  0  2  0  0  0  0  0  0
  -19.5950  -26.6320   21.6510 C   0  0  0  0  0  2  0  0  0  0  0  0
  -18.2100  -26.7770   22.2900 C   0  0  0  0  0  2  0  0  0  0  0  0
  -19.1430  -28.8980   23.3870 C   0  0  0  0  0  0  0  0  0  0  0  0
  -18.9160  -30.1600   23.9770 C   0  0  0  0  0  3  0  0  0  0  0  0
  -17.6070  -30.6540   24.1440 C   0  0  0  0  0  3  0  0  0  0  0  0
  -16.5070  -29.8820   23.7330 C   0  0  0  0  0  3  0  0  0  0  0  0
  -16.7180  -28.6210   23.1470 C   0  0  0  0  0  3  0  0  0  0  0  0
  -25.9080  -32.5310   23.8710 C   0  0  0  0  0  3  0  0  0  0  0  0
  -26.4120  -31.7710   25.1600 C   0  0  1  0  0  0  0  0  0  0  0  0
  -25.3110  -31.5520   26.2250 C   0  0  0  0  0  1  0  0  0  0  0  0
  -26.9920  -30.3870   24.7920 C   0  0  0  0  0  1  0  0  0  0  0  0
  -27.5650  -32.5670   25.8210 C   0  0  0  0  0  1  0  0  0  0  0  0
  -25.5980  -33.9320   24.2000 N   0  0  0  0  0  0  0  0  0  0  0  0
  -25.9260  -34.9880   23.4450 C   0  0  0  0  0  0  0  0  0  0  0  0
  -26.5870  -34.8850   22.4070 O   0  0  0  0  0  0  0  0  0  0  0  0
  -25.0190  -34.0870   25.0120 H   0  0  0  0  0  0  0  0  0  0  0  0
  -24.1990  -36.7910   23.1200 C   0  0  0  0  0  1  0  0  0  0  0  0
  -25.4510  -36.3780   23.9130 C   0  0  0  0  0  3  0  0  0  0  0  0
  -27.5980  -37.2600   24.7170 C   0  0  0  0  0  1  0  0  0  0  0  0
  -26.4850  -37.4310   23.7870 N   0  0  0  0  0  0  0  0  0  0  0  0
  -26.0810  -38.3510   23.9410 H   0  0  0  0  0  0  0  0  0  0  0  0
  1 52  1  0
  1  2  1  0
  2  4  1  0
  2  5  1  0
  3  2  1  0
  6  7  2  0
  6  1  1  0
  8 47  1  0
  8 17  2  0
  8  7  1  0
  9 17  1  0
 10 15  1  0
 11 12  1  0
 11 10  1  0
 13 12  1  0
 13 22  1  0
 13 14  1  0
 15  9  1  0
 15 14  1  0
 16  9  2  0
 17 18  1  0
 19 20  2  0
 20 39  1  0
 21 20  1  0
 21 24  1  0
 22 19  1  0
 22 23  1  0
 23 21  2  0
 24 25  1  0
 25 26  2  0
 27 30  1  0
 27 26  1  0
 28 27  2  0
 29 28  1  0
 29 24  2  0
 30 31  1  0
 31 32  1  0
 32 33  2  0
 34 33  1  0
 34 38  1  0
 35 34  2  0
 36 31  2  0
 36 35  1  0
 37 36  1  0
 39 40  1  0
 40 43  1  0
 40 42  1  0
 41 39  2  0
 44 45  1  0
 44 19  1  0
 46 44  1  0
 47 48  1  0
 48 49  1  0
 48 50  1  0
 48 51  1  0
 52 53  1  0
 54 65  2  0
 55 53  1  0
 55 60  1  0
 56 64  1  0
 56 66  1  0
 57 63  1  0
 57 59  1  0
 58 64  1  0
 59 60  2  0
 59 58  1  0
 61 55  2  0
 62 61  1  0
 62 57  2  0
 63 56  1  0
 64 54  1  0
 66 68  2  0
 67 66  1  0
 69 67  1  0
 70 79  2  0
 70 75  1  0
 71 67  1  0
 71 75  1  0
 72 71  1  0
 73 74  1  0
 73 72  1  0
 74 70  1  0
 75 76  2  0
 76 77  1  0
 78 77  2  0
 79 78  1  0
 80 54  1  0
 80 85  1  0
 80 81  1  0
 81 84  1  1
 81 82  1  0
 83 81  1  0
 85 88  1  0
 86 90  1  0
 86 85  1  0
 87 86  2  0
 90 89  1  0
 92 90  1  0
 92 93  1  0
 92 91  1  0
M  ISO  4   9 100  17 100  52 101  53 101
M  END
>  <TORSDO>  (66) 
F 23

>  <SCORE>  (66) 
-15.086

>  <name>  (66) 
66

>  <ligand_id>  (66) 
66

>  <original_smiles>  (66) 
[H]c1c([H])c([H])c2c(c1[H])C([H])([H])C([H])([H])C([H])([H])C2([H])N([H])C(=O)C1([H])N(C(=O)C([H])(N([H])C(=O)C([H])(N([H])C([H])([H])[H])C([H])([H])[H])C(C([H])([H])[H])(C([H])([H])[H])C([H])([H])[H])C([H])([H])c2c([H])c(OC([H])([H])C([H])(C([H])([H])C([H])([H])C([H])(N([H])C(=O)N3C([H])([H])C([H])([H])C([H])([H])C([H])(n4nc(-c5c([H])c([H])c(Oc6c([H])c([H])c(F)c([H])c6F)c([H])c5[H])c(C(=O)N([H])[H])c4N([H])[H])C3([H])[H])C([H])([H])[N+]([H])([H])[H])[N+]([H])([H])[H])c([H])c([H])c2C1([H])[H]

>  <smiles>  (66) 
[H]c1c([H])c([H])c2c(c1[H])C([H])([H])C([H])([H])C([H])([H])C2([H])N([H])C(=O)C1([H])N(C(=O)C([H])(N([H])C(=O)C([H])(N([H])C([H])([H])[H])C([H])([H])[H])C(C([H])([H])[H])(C([H])([H])[H])C([H])([H])[H])C([H])([H])c2c([H])c(OC([H])([H])C([H])(C([H])([H])C([H])([H])C([H])(N([H])C(=O)N3C([H])([H])C([H])([H])C([H])([H])C([H])(n4nc(-c5c([H])c([H])c(Oc6c([H])c([H])c(F)c([H])c6F)c([H])c5[H])c(C(=O)N([H])[H])c4N([H])[H])C3([H])[H])C([H])([H])[N+]([H])([H])[H])[N+]([H])([H])[H])c([H])c([H])c2C1([H])[H]

$$$$
67:0:0
     RDKit          3D

 93101  0  0  1  0  0  0  0  0999 V2000
  -28.8060  -23.2410   20.2780 C   0  0  0  0  0  3  0  0  0  0  0  0
  -27.7230  -22.8630   21.2080 N   0  0  0  0  0  4  0  0  0  0  0  0
  -28.0340  -22.1580   21.8520 H   0  0  0  0  0  0  0  0  0  0  0  0
  -26.9250  -22.5170   20.7050 H   0  0  0  0  0  0  0  0  0  0  0  0
  -27.4380  -23.6600   21.7490 H   0  0  0  0  0  0  0  0  0  0  0  0
  -29.3730  -21.8770   19.4820 C   0  0  0  0  0  0  0  0  0  0  0  0
  -29.2200  -20.5030   19.8600 N   0  0  0  0  0  0  0  0  0  0  0  0
  -30.0460  -22.0960   18.4750 O   0  0  0  0  0  0  0  0  0  0  0  0
  -28.6250  -20.3550   20.6620 H   0  0  0  0  0  0  0  0  0  0  0  0
  -29.9580  -19.1510   19.4190 C   0  0  0  0  0  2  0  0  0  0  0  0
  -30.6620  -15.0570   19.3120 C   0  0  0  0  0  0  0  0  0  0  0  0
  -30.3820  -12.7020   18.3750 C   0  0  0  0  0  2  0  0  0  0  0  0
  -29.2660  -12.6500   17.3040 C   0  0  0  0  0  2  0  0  0  0  0  0
  -27.8950  -12.4170   17.9610 C   0  0  0  0  0  2  0  0  0  0  0  0
  -27.6740  -13.3290   19.1930 C   0  0  0  0  0  3  0  0  0  0  0  0
  -28.8940  -13.3490   20.1380 C   0  0  0  0  0  2  0  0  0  0  0  0
  -30.0590  -13.7900   19.3540 N   0  0  0  0  0  0  0  0  0  0  0  0
  -31.7050  -15.1430   18.6540 O   0  0  0  0  0  0  0  0  0  0  0  0
  -29.1440  -17.2070   21.9290 C   0  0  0  0  0  2  0  0  0  0  0  0
  -28.3290  -17.6000   20.7020 C   0  0  0  0  0  2  0  0  0  0  0  0
  -30.2540  -16.2900   21.4020 C   0  0  0  0  0  2  0  0  0  0  0  0
  -29.3390  -17.5700   19.5560 C   0  0  0  0  0  3  0  0  0  0  0  0
  -30.1070  -16.2230   19.9450 N   0  0  0  0  0  0  0  0  0  0  0  0
  -25.4790  -13.8780   20.3900 C   0  0  0  0  0  0  0  0  0  0  0  0
  -24.4780  -13.0930   20.8910 C   0  0  0  0  0  0  0  0  0  0  0  0
  -24.8880  -11.7420   20.6690 C   0  0  0  0  0  0  0  0  0  0  0  0
  -26.4380  -13.0090   19.8980 N   0  0  0  0  0  0  0  0  0  0  0  0
  -26.1010  -11.7120   20.1270 N   0  0  0  0  0  0  0  0  0  0  0  0
  -24.1660  -10.4830   20.8870 C   0  0  0  0  0  0  0  0  0  0  0  0
  -24.6550   -9.4910   21.7650 C   0  0  0  0  0  3  0  0  0  0  0  0
  -23.9310   -8.2980   21.9730 C   0  0  0  0  0  3  0  0  0  0  0  0
  -22.7020   -8.0880   21.3030 C   0  0  0  0  0  0  0  0  0  0  0  0
  -22.2300   -9.0680   20.4130 C   0  0  0  0  0  3  0  0  0  0  0  0
  -22.9550  -10.2530   20.2020 C   0  0  0  0  0  3  0  0  0  0  0  0
  -21.9430   -6.9500   21.4240 O   0  0  0  0  0  0  0  0  0  0  0  0
  -21.8770   -6.2500   22.6030 C   0  0  0  0  0  0  0  0  0  0  0  0
  -21.4590   -6.8580   23.8080 C   0  0  0  0  0  3  0  0  0  0  0  0
  -21.3390   -6.0860   24.9800 C   0  0  0  0  0  3  0  0  0  0  0  0
  -21.6270   -4.7080   24.9500 C   0  0  0  0  0  0  0  0  0  0  0  0
  -22.0380   -4.1000   23.7500 C   0  0  0  0  0  3  0  0  0  0  0  0
  -22.1590   -4.8690   22.5790 C   0  0  0  0  0  0  0  0  0  0  0  0
  -22.5350   -4.2750   21.4210 F   0  0  0  0  0  0  0  0  0  0  0  0
  -21.5050   -3.9640   26.0740 F   0  0  0  0  0  0  0  0  0  0  0  0
  -23.1700  -13.5710   21.4490 C   0  0  0  0  0  0  0  0  0  0  0  0
  -22.6060  -12.8410   22.4040 N   0  0  0  0  0  0  0  0  0  0  0  0
  -22.6640  -14.6290   21.0740 O   0  0  0  0  0  0  0  0  0  0  0  0
  -23.0340  -11.9850   22.7260 H   0  0  0  0  0  0  0  0  0  0  0  0
  -21.7360  -13.1410   22.8190 H   0  0  0  0  0  0  0  0  0  0  0  0
  -25.6370  -15.2540   20.2850 N   0  0  0  0  0  0  0  0  0  0  0  0
  -24.9200  -15.9040   20.5860 H   0  0  0  0  0  0  0  0  0  0  0  0
  -26.4150  -15.7040   19.8210 H   0  0  0  0  0  0  0  0  0  0  0  0
  -28.4320  -24.7510   19.5750 C   0  0  0  0  0  2  0  0  0  0  0  0
  -28.2950  -26.1760   20.2360 O   0  0  0  0  0  0  0  0  0  0  0  0
  -24.5010  -31.7920   23.1500 C   0  0  0  0  0  0  0  0  0  0  0  0
  -27.2060  -27.1270   20.1190 C   0  0  0  0  0  0  0  0  0  0  0  0
  -23.3480  -30.3850   21.4880 C   0  0  0  0  0  3  0  0  0  0  0  0
  -24.8420  -28.8430   20.0690 C   0  0  0  0  0  0  0  0  0  0  0  0
  -25.8990  -30.6920   21.3580 C   0  0  0  0  0  2  0  0  0  0  0  0
  -26.0050  -29.3030   20.6990 C   0  0  0  0  0  0  0  0  0  0  0  0
  -27.1810  -28.4600   20.7100 C   0  0  0  0  0  3  0  0  0  0  0  0
  -26.0130  -26.7750   19.4450 C   0  0  0  0  0  3  0  0  0  0  0  0
  -24.8620  -27.5950   19.4280 C   0  0  0  0  0  3  0  0  0  0  0  0
  -23.5980  -29.7180   20.1080 C   0  0  0  0  0  2  0  0  0  0  0  0
  -24.6010  -30.9800   22.0540 N   0  0  0  0  0  0  0  0  0  0  0  0
  -23.4040  -32.0540   23.6660 O   0  0  0  0  0  0  0  0  0  0  0  0
  -22.6760  -29.3600   22.4380 C   0  0  0  0  0  0  0  0  0  0  0  0
  -21.3560  -29.1520   22.2810 N   0  0  0  0  0  0  0  0  0  0  0  0
  -23.3450  -28.7560   23.2780 O   0  0  0  0  0  0  0  0  0  0  0  0
  -20.8710  -29.6950   21.5800 H   0  0  0  0  0  0  0  0  0  0  0  0
  -18.0020  -27.8460   22.6990 C   0  0  0  0  0  0  0  0  0  0  0  0
  -20.5430  -28.1930   23.0350 C   0  0  0  0  0  3  0  0  0  0  0  0
  -20.7070  -26.7620   22.4730 C   0  0  0  0  0  2  0  0  0  0  0  0
  -19.6440  -26.3980   21.4300 C   0  0  0  0  0  2  0  0  0  0  0  0
  -18.2420  -26.5000   22.0350 C   0  0  0  0  0  2  0  0  0  0  0  0
  -19.0830  -28.6470   23.1530 C   0  0  0  0  0  0  0  0  0  0  0  0
  -18.8040  -29.9040   23.7350 C   0  0  0  0  0  3  0  0  0  0  0  0
  -17.4790  -30.3590   23.8650 C   0  0  0  0  0  3  0  0  0  0  0  0
  -16.4130  -29.5560   23.4250 C   0  0  0  0  0  3  0  0  0  0  0  0
  -16.6750  -28.3000   22.8480 C   0  0  0  0  0  3  0  0  0  0  0  0
  -25.7580  -32.4500   23.7970 C   0  0  0  0  0  3  0  0  0  0  0  0
  -26.2670  -31.6830   25.0790 C   0  0  1  0  0  0  0  0  0  0  0  0
  -25.1560  -31.3990   26.1180 C   0  0  0  0  0  1  0  0  0  0  0  0
  -26.9060  -30.3290   24.6950 C   0  0  0  0  0  1  0  0  0  0  0  0
  -27.3760  -32.5070   25.7780 C   0  0  0  0  0  1  0  0  0  0  0  0
  -25.4140  -33.8400   24.1370 N   0  0  0  0  0  0  0  0  0  0  0  0
  -25.7060  -34.9070   23.3810 C   0  0  0  0  0  0  0  0  0  0  0  0
  -26.3590  -34.8260   22.3380 O   0  0  0  0  0  0  0  0  0  0  0  0
  -24.8300  -33.9740   24.9500 H   0  0  0  0  0  0  0  0  0  0  0  0
  -23.9280  -36.6630   23.0740 C   0  0  0  0  0  1  0  0  0  0  0  0
  -25.1940  -36.2810   23.8580 C   0  0  0  0  0  3  0  0  0  0  0  0
  -27.3170  -37.2200   24.6600 C   0  0  0  0  0  1  0  0  0  0  0  0
  -26.1980  -37.3610   23.7320 N   0  0  0  0  0  0  0  0  0  0  0  0
  -25.7710  -38.2710   23.8860 H   0  0  0  0  0  0  0  0  0  0  0  0
  1 52  1  0
  1  2  1  0
  2  5  1  0
  2  3  1  0
  4  2  1  0
  6  7  1  0
  6  1  1  0
  7  9  1  0
  8  6  2  0
 10  7  1  0
 11 17  1  0
 11 23  1  0
 12 17  1  0
 13 14  1  0
 13 12  1  0
 15 14  1  0
 15 27  1  0
 15 16  1  0
 17 16  1  0
 18 11  2  0
 20 19  1  0
 21 19  1  0
 22 10  1  0
 22 23  1  0
 22 20  1  0
 23 21  1  0
 24 25  2  0
 25 44  1  0
 26 29  1  0
 26 25  1  0
 27 28  1  0
 27 24  1  0
 28 26  2  0
 29 30  1  0
 30 31  2  0
 32 35  1  0
 32 31  1  0
 33 32  2  0
 34 33  1  0
 34 29  2  0
 35 36  1  0
 36 37  1  0
 37 38  2  0
 39 38  1  0
 39 43  1  0
 40 39  2  0
 41 36  2  0
 41 40  1  0
 42 41  1  0
 44 45  1  0
 45 47  1  0
 45 48  1  0
 46 44  2  0
 49 24  1  0
 49 50  1  0
 51 49  1  0
 52 53  1  0
 54 65  2  0
 55 53  1  0
 55 60  1  0
 56 64  1  0
 56 66  1  0
 57 63  1  0
 57 59  1  0
 58 64  1  0
 59 60  2  0
 59 58  1  0
 61 55  2  0
 62 61  1  0
 62 57  2  0
 63 56  1  0
 64 54  1  0
 66 68  2  0
 67 66  1  0
 69 67  1  0
 70 79  2  0
 70 75  1  0
 71 67  1  0
 71 75  1  0
 72 71  1  0
 73 74  1  0
 73 72  1  0
 74 70  1  0
 75 76  2  0
 76 77  1  0
 78 77  2  0
 79 78  1  0
 80 54  1  0
 80 85  1  0
 80 81  1  0
 81 84  1  1
 81 82  1  0
 83 81  1  0
 85 88  1  0
 86 90  1  0
 86 85  1  0
 87 86  2  0
 90 89  1  0
 92 90  1  0
 92 93  1  0
 92 91  1  0
M  ISO  4  11 100  23 100  52 101  53 101
M  END
>  <TORSDO>  (67) 
F 20

>  <SCORE>  (67) 
-12.760

>  <name>  (67) 
67

>  <ligand_id>  (67) 
67

>  <original_smiles>  (67) 
[H]c1c([H])c([H])c2c(c1[H])C([H])([H])C([H])([H])C([H])([H])C2([H])N([H])C(=O)C1([H])N(C(=O)C([H])(N([H])C(=O)C([H])(N([H])C([H])([H])[H])C([H])([H])[H])C(C([H])([H])[H])(C([H])([H])[H])C([H])([H])[H])C([H])([H])c2c([H])c(OC([H])([H])C([H])(C(=O)N([H])C([H])([H])C3([H])N(C(=O)N4C([H])([H])C([H])([H])C([H])([H])C([H])(n5nc(-c6c([H])c([H])c(Oc7c([H])c([H])c(F)c([H])c7F)c([H])c6[H])c(C(=O)N([H])[H])c5N([H])[H])C4([H])[H])C([H])([H])C([H])([H])C3([H])[H])[N+]([H])([H])[H])c([H])c([H])c2C1([H])[H]

>  <smiles>  (67) 
[H]c1c([H])c([H])c2c(c1[H])C([H])([H])C([H])([H])C([H])([H])C2([H])N([H])C(=O)C1([H])N(C(=O)C([H])(N([H])C(=O)C([H])(N([H])C([H])([H])[H])C([H])([H])[H])C(C([H])([H])[H])(C([H])([H])[H])C([H])([H])[H])C([H])([H])c2c([H])c(OC([H])([H])C([H])(C(=O)N([H])C([H])([H])C3([H])N(C(=O)N4C([H])([H])C([H])([H])C([H])([H])C([H])(n5nc(-c6c([H])c([H])c(Oc7c([H])c([H])c(F)c([H])c7F)c([H])c6[H])c(C(=O)N([H])[H])c5N([H])[H])C4([H])[H])C([H])([H])C([H])([H])C3([H])[H])[N+]([H])([H])[H])c([H])c([H])c2C1([H])[H]

$$$$
68:0:0
     RDKit          3D

102111  0  0  1  0  0  0  0  0999 V2000
  -31.0560  -17.6150   20.9740 C   0  0  0  0  0  0  0  0  0  0  0  0
  -33.0440  -20.8030   21.7030 C   0  0  0  0  0  2  0  0  0  0  0  0
  -33.2440  -21.2690   20.2500 C   0  0  0  0  0  2  0  0  0  0  0  0
  -30.8980  -20.6320   19.4490 C   0  0  0  0  0  2  0  0  0  0  0  0
  -32.3560  -22.1680   18.0620 C   0  0  0  0  0  2  0  0  0  0  0  0
  -30.4570  -20.0550   20.8130 C   0  0  0  0  0  2  0  0  0  0  0  0
  -31.4360  -23.3410   17.6910 C   0  0  0  0  0  2  0  0  0  0  0  0
  -31.3940  -23.0820   20.0390 C   0  0  0  0  0  2  0  0  0  0  0  0
  -32.6050  -19.3220   21.8730 C   0  0  0  0  0  3  0  0  0  0  0  0
  -31.9780  -21.7520   19.5020 C   0  0  2  0  0  0  0  0  0  0  0  0
  -32.5750  -18.9620   23.3710 C   0  0  0  0  0  1  0  0  0  0  0  0
  -31.3260  -18.9360   21.2160 N   0  0  0  0  0  0  0  0  0  0  0  0
  -30.6270  -23.6140   18.8960 N   0  0  1  0  0  4  0  0  0  0  0  0
  -31.9330  -16.7560   21.1050 O   0  0  0  0  0  0  0  0  0  0  0  0
  -29.8240  -23.0070   18.8370 H   0  0  0  0  0  0  0  0  0  0  0  0
  -30.0780  -24.9870   19.0190 C   0  0  0  0  0  2  0  0  0  0  0  0
  -28.7720  -25.0930   18.2070 C   0  0  0  0  0  2  0  0  0  0  0  0
  -28.1760  -26.5000   18.0730 C   0  0  0  0  0  2  0  0  0  0  0  0
  -26.8300  -26.2870   17.6590 O   0  0  0  0  0  0  0  0  0  0  0  0
  -24.7810  -30.9470   22.6610 C   0  0  0  0  0  0  0  0  0  0  0  0
  -25.8700  -27.1140   18.1830 C   0  0  0  0  0  0  0  0  0  0  0  0
  -23.0000  -30.0950   21.1650 C   0  0  0  0  0  3  0  0  0  0  0  0
  -23.8030  -28.7820   19.1320 C   0  0  0  0  0  0  0  0  0  0  0  0
  -25.4230  -30.2340   20.3660 C   0  0  0  0  0  2  0  0  0  0  0  0
  -25.1330  -29.0420   19.4840 C   0  0  0  0  0  0  0  0  0  0  0  0
  -26.1720  -28.2090   19.0200 C   0  0  0  0  0  3  0  0  0  0  0  0
  -24.5300  -26.8670   17.8240 C   0  0  0  0  0  3  0  0  0  0  0  0
  -23.4930  -27.6890   18.3030 C   0  0  0  0  0  3  0  0  0  0  0  0
  -22.7580  -29.7290   19.6760 C   0  0  0  0  0  2  0  0  0  0  0  0
  -24.4340  -30.4250   21.4510 N   0  0  0  0  0  0  0  0  0  0  0  0
  -23.9220  -31.1980   23.5180 O   0  0  0  0  0  0  0  0  0  0  0  0
  -22.4470  -28.9530   22.0470 C   0  0  0  0  0  0  0  0  0  0  0  0
  -21.1130  -28.8030   22.0610 N   0  0  0  0  0  0  0  0  0  0  0  0
  -23.2080  -28.2130   22.6750 O   0  0  0  0  0  0  0  0  0  0  0  0
  -20.5580  -29.4570   21.5270 H   0  0  0  0  0  0  0  0  0  0  0  0
  -17.8180  -27.4190   22.5830 C   0  0  0  0  0  0  0  0  0  0  0  0
  -20.3700  -27.7740   22.7880 C   0  0  0  0  0  3  0  0  0  0  0  0
  -20.5140  -26.3960   22.1030 C   0  0  0  0  0  2  0  0  0  0  0  0
  -19.3910  -26.0970   21.1060 C   0  0  0  0  0  2  0  0  0  0  0  0
  -18.0290  -26.1310   21.8050 C   0  0  0  0  0  2  0  0  0  0  0  0
  -18.9170  -28.1990   23.0310 C   0  0  0  0  0  0  0  0  0  0  0  0
  -18.6640  -29.4060   23.7170 C   0  0  0  0  0  3  0  0  0  0  0  0
  -17.3470  -29.8340   23.9620 C   0  0  0  0  0  3  0  0  0  0  0  0
  -16.2630  -29.0480   23.5320 C   0  0  0  0  0  3  0  0  0  0  0  0
  -16.4990  -27.8430   22.8480 C   0  0  0  0  0  3  0  0  0  0  0  0
  -26.2650  -31.2750   23.0170 C   0  0  0  0  0  3  0  0  0  0  0  0
  -27.0110  -30.0860   23.7390 C   0  0  1  0  0  0  0  0  0  0  0  0
  -26.2480  -29.5240   24.9620 C   0  0  0  0  0  1  0  0  0  0  0  0
  -27.2510  -28.9170   22.7550 C   0  0  0  0  0  1  0  0  0  0  0  0
  -28.4050  -30.5550   24.2180 C   0  0  0  0  0  1  0  0  0  0  0  0
  -26.2620  -32.4760   23.8600 N   0  0  0  0  0  0  0  0  0  0  0  0
  -26.7400  -33.6690   23.4820 C   0  0  0  0  0  0  0  0  0  0  0  0
  -27.3020  -33.8540   22.3990 O   0  0  0  0  0  0  0  0  0  0  0  0
  -25.7700  -32.4120   24.7380 H   0  0  0  0  0  0  0  0  0  0  0  0
  -25.4270  -35.7550   23.9760 C   0  0  0  0  0  1  0  0  0  0  0  0
  -26.5670  -34.8450   24.4620 C   0  0  0  0  0  3  0  0  0  0  0  0
  -28.8500  -34.9220   25.3590 C   0  0  0  0  0  1  0  0  0  0  0  0
  -27.7980  -35.6430   24.6480 N   0  0  0  0  0  0  0  0  0  0  0  0
  -27.6000  -36.4980   25.1600 H   0  0  0  0  0  0  0  0  0  0  0  0
  -29.6240  -17.1190   20.6210 C   0  0  0  0  0  3  0  0  0  0  0  0
  -29.4280  -15.6160   21.0380 C   0  0  0  0  0  2  0  0  0  0  0  0
  -30.0120  -14.5260   20.1080 C   0  0  0  0  0  0  0  0  0  0  0  0
  -29.6840  -12.4050   18.8800 C   0  0  0  0  0  2  0  0  0  0  0  0
  -28.6240  -12.5920   17.7780 C   0  0  0  0  0  2  0  0  0  0  0  0
  -27.2090  -12.3600   18.3400 C   0  0  0  0  0  2  0  0  0  0  0  0
  -26.9490  -13.1560   19.6480 C   0  0  0  0  0  3  0  0  0  0  0  0
  -28.1140  -12.9570   20.6450 C   0  0  0  0  0  2  0  0  0  0  0  0
  -29.3650  -13.3370   19.9720 N   0  0  0  0  0  0  0  0  0  0  0  0
  -31.0210  -14.7930   19.4520 O   0  0  0  0  0  0  0  0  0  0  0  0
  -24.5910  -13.6190   20.5800 C   0  0  0  0  0  0  0  0  0  0  0  0
  -23.6030  -12.7790   21.0210 C   0  0  0  0  0  0  0  0  0  0  0  0
  -24.1290  -11.4560   20.9120 C   0  0  0  0  0  0  0  0  0  0  0  0
  -25.6580  -12.8010   20.2370 N   0  0  0  0  0  0  0  0  0  0  0  0
  -25.3870  -11.4940   20.4900 N   0  0  0  0  0  0  0  0  0  0  0  0
  -23.4910  -10.1510   21.1320 C   0  0  0  0  0  0  0  0  0  0  0  0
  -24.0230   -9.2150   22.0460 C   0  0  0  0  0  3  0  0  0  0  0  0
  -23.3840   -7.9740   22.2520 C   0  0  0  0  0  3  0  0  0  0  0  0
  -22.1990   -7.6610   21.5460 C   0  0  0  0  0  0  0  0  0  0  0  0
  -21.6860   -8.5860   20.6190 C   0  0  0  0  0  3  0  0  0  0  0  0
  -22.3260   -9.8180   20.4110 C   0  0  0  0  0  3  0  0  0  0  0  0
  -21.5220   -6.4700   21.6630 O   0  0  0  0  0  0  0  0  0  0  0  0
  -21.5550   -5.7360   22.8210 C   0  0  0  0  0  0  0  0  0  0  0  0
  -21.0830   -6.2550   24.0460 C   0  0  0  0  0  3  0  0  0  0  0  0
  -21.0720   -5.4420   25.1980 C   0  0  0  0  0  3  0  0  0  0  0  0
  -21.5220   -4.1090   25.1230 C   0  0  0  0  0  0  0  0  0  0  0  0
  -21.9850   -3.5890   23.9020 C   0  0  0  0  0  3  0  0  0  0  0  0
  -21.9980   -4.4000   22.7540 C   0  0  0  0  0  0  0  0  0  0  0  0
  -22.4260   -3.8870   21.5740 F   0  0  0  0  0  0  0  0  0  0  0  0
  -21.5020   -3.3240   26.2260 F   0  0  0  0  0  0  0  0  0  0  0  0
  -22.2130  -13.1720   21.4340 C   0  0  0  0  0  0  0  0  0  0  0  0
  -21.6090  -12.4170   22.3430 N   0  0  0  0  0  0  0  0  0  0  0  0
  -21.6730  -14.1820   20.9830 O   0  0  0  0  0  0  0  0  0  0  0  0
  -22.0560  -11.5970   22.7260 H   0  0  0  0  0  0  0  0  0  0  0  0
  -20.6810  -12.6620   22.6610 H   0  0  0  0  0  0  0  0  0  0  0  0
  -24.6660  -14.9990   20.4220 N   0  0  0  0  0  0  0  0  0  0  0  0
  -23.8810  -15.6120   20.6190 H   0  0  0  0  0  0  0  0  0  0  0  0
  -25.4620  -15.4900   20.0360 H   0  0  0  0  0  0  0  0  0  0  0  0
  -29.1970  -17.4260   19.1490 C   0  0  0  0  0  2  0  0  0  0  0  0
  -28.5190  -18.7220   18.9420 N   0  0  0  0  0  4  0  0  0  0  0  0
  -27.7040  -18.8110   19.5250 H   0  0  0  0  0  0  0  0  0  0  0  0
  -28.2050  -18.7780   17.9870 H   0  0  0  0  0  0  0  0  0  0  0  0
  -29.1350  -19.4970   19.0920 H   0  0  0  0  0  0  0  0  0  0  0  0
  1 14  2  0
  1 12  1  0
  2  9  1  0
  3  2  1  0
 10  4  1  6
  4  6  1  0
  6 12  1  0
  7  5  1  0
  7 13  1  0
  9 11  1  0
 10  5  1  0
 10  8  1  0
 10  3  1  0
 12  9  1  0
 13 16  1  0
 13  8  1  0
 13 15  1  6
 17 16  1  0
 18 17  1  0
 19 18  1  0
 19 21  1  0
 20 31  2  0
 21 26  1  0
 22 30  1  0
 22 32  1  0
 23 25  1  0
 23 29  1  0
 24 30  1  0
 25 24  1  0
 26 25  2  0
 27 21  2  0
 27 28  1  0
 28 23  2  0
 29 22  1  0
 30 20  1  0
 32 33  1  0
 32 34  2  0
 35 33  1  0
 36 45  2  0
 36 41  1  0
 37 33  1  0
 37 41  1  0
 38 37  1  0
 39 40  1  0
 39 38  1  0
 40 36  1  0
 41 42  2  0
 42 43  1  0
 44 43  2  0
 45 44  1  0
 46 20  1  0
 46 47  1  0
 46 51  1  0
 47 50  1  1
 47 48  1  0
 49 47  1  0
 51 54  1  0
 52 51  1  0
 52 56  1  0
 53 52  2  0
 56 55  1  0
 56 58  1  0
 58 59  1  0
 58 57  1  0
 60 98  1  0
 60  1  1  0
 60 61  1  0
 62 61  1  0
 63 68  1  0
 64 65  1  0
 64 63  1  0
 66 65  1  0
 66 73  1  0
 66 67  1  0
 68 62  1  0
 68 67  1  0
 69 62  2  0
 70 71  2  0
 71 90  1  0
 72 71  1  0
 72 75  1  0
 73 74  1  0
 73 70  1  0
 74 72  2  0
 75 76  1  0
 76 77  2  0
 78 81  1  0
 78 77  1  0
 79 78  2  0
 80 79  1  0
 80 75  2  0
 81 82  1  0
 82 83  1  0
 83 84  2  0
 85 84  1  0
 85 89  1  0
 86 85  2  0
 87 82  2  0
 87 86  1  0
 88 87  1  0
 90 91  1  0
 91 94  1  0
 91 93  1  0
 92 90  2  0
 95 70  1  0
 95 96  1  0
 97 95  1  0
 99102  1  0
 99 98  1  0
 99100  1  0
101 99  1  0
M  ISO  4  18 101  19 101  61 100  62 100
M  END
>  <TORSDO>  (68) 
F 23

>  <SCORE>  (68) 
-9.064

>  <name>  (68) 
68

>  <ligand_id>  (68) 
68

>  <original_smiles>  (68) 
[H]c1c([H])c([H])c2c(c1[H])C([H])([H])C([H])([H])C([H])([H])C2([H])N([H])C(=O)C1([H])N(C(=O)C([H])(N([H])C(=O)C([H])(N([H])C([H])([H])[H])C([H])([H])[H])C(C([H])([H])[H])(C([H])([H])[H])C([H])([H])[H])C([H])([H])c2c([H])c(OC([H])([H])C([H])([H])C([H])([H])[N+]3([H])C([H])([H])C([H])([H])C4(C([H])([H])C([H])([H])N(C(=O)C([H])(C([H])([H])C(=O)N5C([H])([H])C([H])([H])C([H])([H])C([H])(n6nc(-c7c([H])c([H])c(Oc8c([H])c([H])c(F)c([H])c8F)c([H])c7[H])c(C(=O)N([H])[H])c6N([H])[H])C5([H])[H])C([H])([H])[N+]([H])([H])[H])C([H])(C([H])([H])[H])C([H])([H])C4([H])[H])C3([H])[H])c([H])c([H])c2C1([H])[H]

>  <smiles>  (68) 
[H]c1c([H])c([H])c2c(c1[H])C([H])([H])C([H])([H])C([H])([H])C2([H])N([H])C(=O)C1([H])N(C(=O)C([H])(N([H])C(=O)C([H])(N([H])C([H])([H])[H])C([H])([H])[H])C(C([H])([H])[H])(C([H])([H])[H])C([H])([H])[H])C([H])([H])c2c([H])c(OC([H])([H])C([H])([H])C([H])([H])[N+]3([H])C([H])([H])C([H])([H])C4(C([H])([H])C([H])([H])N(C(=O)C([H])(C([H])([H])C(=O)N5C([H])([H])C([H])([H])C([H])([H])C([H])(n6nc(-c7c([H])c([H])c(Oc8c([H])c([H])c(F)c([H])c8F)c([H])c7[H])c(C(=O)N([H])[H])c6N([H])[H])C5([H])[H])C([H])([H])[N+]([H])([H])[H])C([H])(C([H])([H])[H])C([H])([H])C4([H])[H])C3([H])[H])c([H])c([H])c2C1([H])[H]

$$$$
69:0:0
     RDKit          3D

 99107  0  0  1  0  0  0  0  0999 V2000
  -29.4810  -19.9530   20.8060 N   0  0  0  0  0  4  0  0  0  0  0  0
  -28.5510  -19.9980   21.1900 H   0  0  0  0  0  0  0  0  0  0  0  0
  -30.1240  -20.0020   21.5780 H   0  0  0  0  0  0  0  0  0  0  0  0
  -29.6860  -21.2040   19.9420 C   0  0  0  0  0  3  0  0  0  0  0  0
  -29.0220  -22.6560   20.3140 C   0  0  0  0  0  3  0  0  0  0  0  0
  -30.3910  -24.4310   17.0580 C   0  0  0  0  0  2  0  0  0  0  0  0
  -29.2280  -25.3530   16.7530 C   0  0  0  0  0  2  0  0  0  0  0  0
  -29.9460  -23.4230   18.1060 C   0  0  0  0  0  2  0  0  0  0  0  0
  -28.8940  -26.1330   18.0150 C   0  0  0  0  0  2  0  0  0  0  0  0
  -29.4890  -23.9870   19.4890 C   0  0  0  0  0  3  0  0  0  0  0  0
  -28.5020  -25.2960   19.2750 C   0  0  0  0  0  3  0  0  0  0  0  0
  -28.3780  -26.4480   20.2320 O   0  0  0  0  0  0  0  0  0  0  0  0
  -24.5870  -31.9050   23.2340 C   0  0  0  0  0  0  0  0  0  0  0  0
  -27.2540  -27.3210   20.1930 C   0  0  0  0  0  0  0  0  0  0  0  0
  -23.4110  -30.4990   21.5850 C   0  0  0  0  0  3  0  0  0  0  0  0
  -24.8830  -28.9590   20.1760 C   0  0  0  0  0  0  0  0  0  0  0  0
  -25.9550  -30.8180   21.4320 C   0  0  0  0  0  2  0  0  0  0  0  0
  -26.0490  -29.4360   20.7890 C   0  0  0  0  0  0  0  0  0  0  0  0
  -27.2310  -28.6260   20.7960 C   0  0  0  0  0  3  0  0  0  0  0  0
  -26.0460  -26.9110   19.5750 C   0  0  0  0  0  3  0  0  0  0  0  0
  -24.8860  -27.7010   19.5650 C   0  0  0  0  0  3  0  0  0  0  0  0
  -23.6460  -29.8320   20.2060 C   0  0  0  0  0  2  0  0  0  0  0  0
  -24.6690  -31.0930   22.1400 N   0  0  0  0  0  0  0  0  0  0  0  0
  -23.4950  -32.1790   23.7540 O   0  0  0  0  0  0  0  0  0  0  0  0
  -22.7450  -29.4770   22.5370 C   0  0  0  0  0  0  0  0  0  0  0  0
  -21.4220  -29.2860   22.3940 N   0  0  0  0  0  0  0  0  0  0  0  0
  -23.4170  -28.8580   23.3650 O   0  0  0  0  0  0  0  0  0  0  0  0
  -20.9370  -29.8380   21.7020 H   0  0  0  0  0  0  0  0  0  0  0  0
  -18.0460  -28.0610   22.8580 C   0  0  0  0  0  0  0  0  0  0  0  0
  -20.6000  -28.3430   23.1580 C   0  0  0  0  0  3  0  0  0  0  0  0
  -20.7200  -26.9110   22.5870 C   0  0  0  0  0  2  0  0  0  0  0  0
  -19.6320  -26.5770   21.5600 C   0  0  0  0  0  2  0  0  0  0  0  0
  -18.2430  -26.7110   22.1880 C   0  0  0  0  0  2  0  0  0  0  0  0
  -19.1540  -28.8350   23.2990 C   0  0  0  0  0  0  0  0  0  0  0  0
  -18.9170  -30.0960   23.8850 C   0  0  0  0  0  3  0  0  0  0  0  0
  -17.6060  -30.5860   24.0360 C   0  0  0  0  0  3  0  0  0  0  0  0
  -16.5130  -29.8110   23.6090 C   0  0  0  0  0  3  0  0  0  0  0  0
  -16.7340  -28.5510   23.0270 C   0  0  0  0  0  3  0  0  0  0  0  0
  -25.8580  -32.5490   23.8670 C   0  0  0  0  0  3  0  0  0  0  0  0
  -25.5370  -33.9470   24.1850 N   0  0  0  0  0  0  0  0  0  0  0  0
  -25.8770  -34.9990   23.4270 C   0  0  0  0  0  0  0  0  0  0  0  0
  -26.5640  -34.8920   22.4070 O   0  0  0  0  0  0  0  0  0  0  0  0
  -24.9320  -34.1040   24.9780 H   0  0  0  0  0  0  0  0  0  0  0  0
  -24.1570  -36.7880   23.0220 C   0  0  0  0  0  1  0  0  0  0  0  0
  -25.3760  -36.3860   23.8680 C   0  0  0  0  0  3  0  0  0  0  0  0
  -27.4840  -37.2770   24.7560 C   0  0  0  0  0  1  0  0  0  0  0  0
  -26.4090  -37.4420   23.7800 N   0  0  0  0  0  0  0  0  0  0  0  0
  -25.9980  -38.3610   23.9160 H   0  0  0  0  0  0  0  0  0  0  0  0
  -26.3600  -31.7880   25.1550 C   0  0  1  0  0  0  0  0  0  0  0  0
  -25.2540  -31.5500   26.2100 C   0  0  0  0  0  1  0  0  0  0  0  0
  -26.9590  -30.4120   24.7820 C   0  0  0  0  0  1  0  0  0  0  0  0
  -27.4960  -32.5930   25.8300 C   0  0  0  0  0  1  0  0  0  0  0  0
  -29.5870  -18.5600   20.1580 C   0  0  0  0  0  3  0  0  0  0  0  0
  -28.2470  -18.3150   19.5270 C   0  0  0  0  0  0  0  0  0  0  0  0
  -28.1210  -18.3920   18.1970 N   0  0  0  0  0  4  0  0  0  0  0  0
  -27.1750  -18.0820   20.2980 N   0  0  0  0  0  0  0  0  0  0  0  0
  -28.9300  -18.5470   17.6120 H   0  0  0  0  0  0  0  0  0  0  0  0
  -27.2480  -18.2500   17.7140 H   0  0  0  0  0  0  0  0  0  0  0  0
  -27.2500  -17.9270   21.2930 H   0  0  0  0  0  0  0  0  0  0  0  0
  -26.2400  -18.0700   19.9220 H   0  0  0  0  0  0  0  0  0  0  0  0
  -30.0460  -17.2980   21.0800 C   0  0  0  0  0  2  0  0  0  0  0  0
  -30.5620  -14.7750   20.3680 C   0  0  0  0  0  0  0  0  0  0  0  0
  -30.3740  -12.5440   19.2530 C   0  0  0  0  0  2  0  0  0  0  0  0
  -29.4100  -12.6500   18.0500 C   0  0  0  0  0  2  0  0  0  0  0  0
  -27.9440  -12.4670   18.4930 C   0  0  0  0  0  2  0  0  0  0  0  0
  -27.5860  -13.3070   19.7450 C   0  0  0  0  0  3  0  0  0  0  0  0
  -28.6620  -13.1660   20.8440 C   0  0  0  0  0  2  0  0  0  0  0  0
  -29.9510  -13.5500   20.2480 N   0  0  0  0  0  0  0  0  0  0  0  0
  -31.7370  -14.9330   20.0300 O   0  0  0  0  0  0  0  0  0  0  0  0
  -29.7530  -15.8440   20.6960 N   0  0  0  0  0  0  0  0  0  0  0  0
  -28.8010  -15.5530   20.8620 H   0  0  0  0  0  0  0  0  0  0  0  0
  -25.1940  -13.8590   20.4950 C   0  0  0  0  0  0  0  0  0  0  0  0
  -24.1430  -13.0690   20.8740 C   0  0  0  0  0  0  0  0  0  0  0  0
  -24.6250  -11.7260   20.8300 C   0  0  0  0  0  0  0  0  0  0  0  0
  -26.2490  -12.9980   20.2460 N   0  0  0  0  0  0  0  0  0  0  0  0
  -25.9150  -11.7090   20.5100 N   0  0  0  0  0  0  0  0  0  0  0  0
  -23.9190  -10.4530   21.0150 C   0  0  0  0  0  0  0  0  0  0  0  0
  -24.3640   -9.4920   21.9500 C   0  0  0  0  0  3  0  0  0  0  0  0
  -23.6570   -8.2820   22.1220 C   0  0  0  0  0  3  0  0  0  0  0  0
  -22.4900   -8.0260   21.3630 C   0  0  0  0  0  0  0  0  0  0  0  0
  -22.0640   -8.9770   20.4190 C   0  0  0  0  0  3  0  0  0  0  0  0
  -22.7720  -10.1770   20.2430 C   0  0  0  0  0  3  0  0  0  0  0  0
  -21.7520   -6.8700   21.4500 O   0  0  0  0  0  0  0  0  0  0  0  0
  -21.7070   -6.1290   22.6050 C   0  0  0  0  0  0  0  0  0  0  0  0
  -21.2490   -6.6770   23.8250 C   0  0  0  0  0  3  0  0  0  0  0  0
  -21.1530   -5.8600   24.9690 C   0  0  0  0  0  3  0  0  0  0  0  0
  -21.5020   -4.4990   24.8950 C   0  0  0  0  0  0  0  0  0  0  0  0
  -21.9550   -3.9520   23.6820 C   0  0  0  0  0  3  0  0  0  0  0  0
  -22.0550   -4.7660   22.5390 C   0  0  0  0  0  0  0  0  0  0  0  0
  -22.4680   -4.2290   21.3650 F   0  0  0  0  0  0  0  0  0  0  0  0
  -21.4030   -3.7120   25.9920 F   0  0  0  0  0  0  0  0  0  0  0  0
  -22.7410  -13.5270   21.1570 C   0  0  0  0  0  0  0  0  0  0  0  0
  -22.0240  -12.8110   22.0150 N   0  0  0  0  0  0  0  0  0  0  0  0
  -22.2910  -14.5550   20.6510 O   0  0  0  0  0  0  0  0  0  0  0  0
  -22.4020  -11.9800   22.4450 H   0  0  0  0  0  0  0  0  0  0  0  0
  -21.0820  -13.0980   22.2440 H   0  0  0  0  0  0  0  0  0  0  0  0
  -25.3320  -15.2310   20.3110 N   0  0  0  0  0  0  0  0  0  0  0  0
  -24.4940  -15.8020   20.2980 H   0  0  0  0  0  0  0  0  0  0  0  0
  -26.0890  -15.6040   19.7580 H   0  0  0  0  0  0  0  0  0  0  0  0
  1  2  1  0
  1  3  1  0
  4  5  2  0
  4  1  1  0
  6  8  1  0
  7  6  1  0
  7  9  1  0
  8 10  1  0
  9 11  1  0
 10  5  1  0
 11 10  1  0
 11 12  1  0
 13 24  2  0
 14 12  1  0
 14 19  1  0
 15 23  1  0
 15 25  1  0
 16 22  1  0
 16 18  1  0
 17 23  1  0
 18 19  2  0
 18 17  1  0
 20 14  2  0
 21 20  1  0
 21 16  2  0
 22 15  1  0
 23 13  1  0
 25 27  2  0
 26 25  1  0
 28 26  1  0
 29 38  2  0
 29 34  1  0
 30 26  1  0
 30 34  1  0
 31 30  1  0
 32 33  1  0
 32 31  1  0
 33 29  1  0
 34 35  2  0
 35 36  1  0
 37 36  2  0
 38 37  1  0
 39 13  1  0
 39 40  1  0
 39 49  1  0
 40 43  1  0
 41 45  1  0
 41 40  1  0
 42 41  2  0
 45 44  1  0
 47 45  1  0
 47 48  1  0
 47 46  1  0
 49 52  1  1
 49 50  1  0
 51 49  1  0
 53  1  1  0
 53 61  1  0
 54 53  1  0
 54 56  1  0
 55 54  2  0
 56 59  1  0
 57 55  1  0
 58 55  1  0
 60 56  1  0
 62 70  1  0
 63 68  1  0
 64 65  1  0
 64 63  1  0
 66 65  1  0
 66 75  1  0
 66 67  1  0
 68 62  1  0
 68 67  1  0
 69 62  2  0
 70 71  1  0
 70 61  1  0
 72 73  2  0
 73 92  1  0
 74 73  1  0
 74 77  1  0
 75 72  1  0
 75 76  1  0
 76 74  2  0
 77 78  1  0
 78 79  2  0
 80 83  1  0
 80 79  1  0
 81 80  2  0
 82 81  1  0
 82 77  2  0
 83 84  1  0
 84 85  1  0
 85 86  2  0
 87 86  1  0
 87 91  1  0
 88 87  2  0
 89 84  2  0
 89 88  1  0
 90 89  1  0
 92 93  1  0
 93 96  1  0
 93 95  1  0
 94 92  2  0
 97 72  1  0
 98 97  1  0
 99 97  1  0
M  ISO  4  11 101  12 101  62 100  70 100
M  END
>  <TORSDO>  (69) 
F 22

>  <SCORE>  (69) 
-13.573

>  <name>  (69) 
69

>  <ligand_id>  (69) 
69

>  <original_smiles>  (69) 
[H]c1c([H])c([H])c2c(c1[H])C([H])([H])C([H])([H])C([H])([H])C2([H])N([H])C(=O)C1([H])N(C(=O)C([H])(N([H])C(=O)C([H])(N([H])C([H])([H])[H])C([H])([H])[H])C(C([H])([H])[H])(C([H])([H])[H])C([H])([H])[H])C([H])([H])c2c([H])c(OC3([H])C([H])([H])C([H])([H])C([H])([H])C([H])([H])C3([H])C([H])([H])C([H])([H])[N+]([H])([H])C([H])(C(N([H])[H])=[N+]([H])[H])C([H])([H])N([H])C(=O)N3C([H])([H])C([H])([H])C([H])([H])C([H])(n4nc(-c5c([H])c([H])c(Oc6c([H])c([H])c(F)c([H])c6F)c([H])c5[H])c(C(=O)N([H])[H])c4N([H])[H])C3([H])[H])c([H])c([H])c2C1([H])[H]

>  <smiles>  (69) 
[H]c1c([H])c([H])c2c(c1[H])C([H])([H])C([H])([H])C([H])([H])C2([H])N([H])C(=O)C1([H])N(C(=O)C([H])(N([H])C(=O)C([H])(N([H])C([H])([H])[H])C([H])([H])[H])C(C([H])([H])[H])(C([H])([H])[H])C([H])([H])[H])C([H])([H])c2c([H])c(OC3([H])C([H])([H])C([H])([H])C([H])([H])C([H])([H])C3([H])C([H])([H])C([H])([H])[N+]([H])([H])C([H])(C(N([H])[H])=[N+]([H])[H])C([H])([H])N([H])C(=O)N3C([H])([H])C([H])([H])C([H])([H])C([H])(n4nc(-c5c([H])c([H])c(Oc6c([H])c([H])c(F)c([H])c6F)c([H])c5[H])c(C(=O)N([H])[H])c4N([H])[H])C3([H])[H])c([H])c([H])c2C1([H])[H]

$$$$
70:0:0
     RDKit          3D

 93102  0  0  1  0  0  0  0  0999 V2000
  -28.9570  -23.0180   20.0640 C   0  0  0  0  0  3  0  0  0  0  0  0
  -30.9860  -23.1770   16.0640 C   0  0  0  0  0  2  0  0  0  0  0  0
  -31.8330  -23.1840   17.3460 C   0  0  0  0  0  2  0  0  0  0  0  0
  -29.6630  -23.9310   16.2710 C   0  0  0  0  0  2  0  0  0  0  0  0
  -31.0300  -22.6120   18.5240 C   0  0  0  0  0  2  0  0  0  0  0  0
  -28.8800  -23.3860   17.4780 C   0  0  0  0  0  2  0  0  0  0  0  0
  -29.7380  -23.4070   18.7700 C   0  0  0  0  0  3  0  0  0  0  0  0
  -28.4590  -21.3220   20.0200 C   0  0  0  0  0  2  0  0  0  0  0  0
  -30.5140  -15.1300   19.9100 C   0  0  0  0  0  0  0  0  0  0  0  0
  -30.2820  -12.7640   18.9460 C   0  0  0  0  0  2  0  0  0  0  0  0
  -29.2850  -12.6550   17.7730 C   0  0  0  0  0  2  0  0  0  0  0  0
  -27.8620  -12.4140   18.3060 C   0  0  0  0  0  2  0  0  0  0  0  0
  -27.5150  -13.3460   19.4980 C   0  0  0  0  0  3  0  0  0  0  0  0
  -28.6420  -13.4310   20.5480 C   0  0  0  0  0  2  0  0  0  0  0  0
  -29.8360  -13.8940   19.8330 N   0  0  0  0  0  0  0  0  0  0  0  0
  -31.7080  -15.0420   19.5940 O   0  0  0  0  0  0  0  0  0  0  0  0
  -30.7230  -17.6940   19.4840 C   0  0  0  0  0  2  0  0  0  0  0  0
  -28.9300  -17.1450   20.8830 C   0  0  0  0  0  2  0  0  0  0  0  0
  -30.1130  -19.2040   19.2320 C   0  0  0  0  0  2  0  0  0  0  0  0
  -28.3430  -18.6850   20.6490 C   0  0  0  0  0  2  0  0  0  0  0  0
  -29.9220  -16.4770   19.9450 N   0  0  0  0  0  0  0  0  0  0  0  0
  -29.2360  -19.8850   20.2770 N   0  0  2  0  0  4  0  0  0  0  0  0
  -29.8260  -20.0410   21.0810 H   0  0  0  0  0  0  0  0  0  0  0  0
  -25.2080  -13.9050   20.4240 C   0  0  0  0  0  0  0  0  0  0  0  0
  -24.1640  -13.1260   20.8420 C   0  0  0  0  0  0  0  0  0  0  0  0
  -24.6150  -11.7730   20.7420 C   0  0  0  0  0  0  0  0  0  0  0  0
  -26.2220  -13.0290   20.0870 N   0  0  0  0  0  0  0  0  0  0  0  0
  -25.8830  -11.7400   20.3430 N   0  0  0  0  0  0  0  0  0  0  0  0
  -23.8910  -10.5110   20.9420 C   0  0  0  0  0  0  0  0  0  0  0  0
  -24.3410   -9.5370   21.8600 C   0  0  0  0  0  3  0  0  0  0  0  0
  -23.6150   -8.3430   22.0520 C   0  0  0  0  0  3  0  0  0  0  0  0
  -22.4230   -8.1130   21.3250 C   0  0  0  0  0  0  0  0  0  0  0  0
  -21.9900   -9.0760   20.3950 C   0  0  0  0  0  3  0  0  0  0  0  0
  -22.7180  -10.2610   20.2010 C   0  0  0  0  0  3  0  0  0  0  0  0
  -21.6660   -6.9700   21.4260 O   0  0  0  0  0  0  0  0  0  0  0  0
  -21.6000   -6.2510   22.5920 C   0  0  0  0  0  0  0  0  0  0  0  0
  -21.1560   -6.8300   23.8010 C   0  0  0  0  0  3  0  0  0  0  0  0
  -21.0350   -6.0380   24.9590 C   0  0  0  0  0  3  0  0  0  0  0  0
  -21.3510   -4.6670   24.9110 C   0  0  0  0  0  0  0  0  0  0  0  0
  -21.7890   -4.0870   23.7070 C   0  0  0  0  0  3  0  0  0  0  0  0
  -21.9100   -4.8770   22.5510 C   0  0  0  0  0  0  0  0  0  0  0  0
  -22.3110   -4.3070   21.3880 F   0  0  0  0  0  0  0  0  0  0  0  0
  -21.2280   -3.9040   26.0220 F   0  0  0  0  0  0  0  0  0  0  0  0
  -22.7930  -13.6080   21.2130 C   0  0  0  0  0  0  0  0  0  0  0  0
  -22.1140  -12.8970   22.1060 N   0  0  0  0  0  0  0  0  0  0  0  0
  -22.3330  -14.6500   20.7460 O   0  0  0  0  0  0  0  0  0  0  0  0
  -22.5000  -12.0550   22.5070 H   0  0  0  0  0  0  0  0  0  0  0  0
  -21.1960  -13.2030   22.3960 H   0  0  0  0  0  0  0  0  0  0  0  0
  -25.3700  -15.2790   20.2720 N   0  0  0  0  0  0  0  0  0  0  0  0
  -24.6120  -15.9320   20.4380 H   0  0  0  0  0  0  0  0  0  0  0  0
  -26.1790  -15.7100   19.8460 H   0  0  0  0  0  0  0  0  0  0  0  0
  -27.9320  -24.4220   20.3090 C   0  0  0  0  0  2  0  0  0  0  0  0
  -28.2240  -26.0080   20.2640 O   0  0  0  0  0  0  0  0  0  0  0  0
  -24.6300  -31.8580   23.2300 C   0  0  0  0  0  0  0  0  0  0  0  0
  -27.1960  -27.0560   20.2180 C   0  0  0  0  0  0  0  0  0  0  0  0
  -23.4370  -30.4590   21.5930 C   0  0  0  0  0  3  0  0  0  0  0  0
  -24.8880  -28.8740   20.1720 C   0  0  0  0  0  0  0  0  0  0  0  0
  -25.9980  -30.6990   21.4400 C   0  0  0  0  0  2  0  0  0  0  0  0
  -26.0730  -29.2980   20.7880 C   0  0  0  0  0  0  0  0  0  0  0  0
  -27.2270  -28.4080   20.7870 C   0  0  0  0  0  3  0  0  0  0  0  0
  -25.9870  -26.7660   19.5470 C   0  0  0  0  0  3  0  0  0  0  0  0
  -24.8650  -27.6260   19.5320 C   0  0  0  0  0  3  0  0  0  0  0  0
  -23.6650  -29.7810   20.2160 C   0  0  0  0  0  2  0  0  0  0  0  0
  -24.7100  -31.0310   22.1410 N   0  0  0  0  0  0  0  0  0  0  0  0
  -23.5410  -32.1420   23.7540 O   0  0  0  0  0  0  0  0  0  0  0  0
  -22.7530  -29.4550   22.5550 C   0  0  0  0  0  0  0  0  0  0  0  0
  -21.4230  -29.2860   22.4300 N   0  0  0  0  0  0  0  0  0  0  0  0
  -23.4220  -28.8280   23.3800 O   0  0  0  0  0  0  0  0  0  0  0  0
  -20.9370  -29.8400   21.7400 H   0  0  0  0  0  0  0  0  0  0  0  0
  -18.0440  -28.0780   22.9410 C   0  0  0  0  0  0  0  0  0  0  0  0
  -20.6040  -28.3480   23.2020 C   0  0  0  0  0  3  0  0  0  0  0  0
  -20.7070  -26.9150   22.6280 C   0  0  0  0  0  2  0  0  0  0  0  0
  -19.6050  -26.5910   21.6150 C   0  0  0  0  0  2  0  0  0  0  0  0
  -18.2230  -26.7310   22.2600 C   0  0  0  0  0  2  0  0  0  0  0  0
  -19.1620  -28.8440   23.3690 C   0  0  0  0  0  0  0  0  0  0  0  0
  -18.9390  -30.1030   23.9670 C   0  0  0  0  0  3  0  0  0  0  0  0
  -17.6330  -30.5990   24.1380 C   0  0  0  0  0  3  0  0  0  0  0  0
  -16.5310  -29.8320   23.7260 C   0  0  0  0  0  3  0  0  0  0  0  0
  -16.7360  -28.5710   23.1350 C   0  0  0  0  0  3  0  0  0  0  0  0
  -25.9020  -32.5010   23.8600 C   0  0  0  0  0  3  0  0  0  0  0  0
  -26.4160  -31.7310   25.1390 C   0  0  1  0  0  0  0  0  0  0  0  0
  -25.3190  -31.4910   26.2030 C   0  0  0  0  0  1  0  0  0  0  0  0
  -27.0070  -30.3540   24.7570 C   0  0  0  0  0  1  0  0  0  0  0  0
  -27.5610  -32.5290   25.8060 C   0  0  0  0  0  1  0  0  0  0  0  0
  -25.5800  -33.8970   24.2020 N   0  0  0  0  0  0  0  0  0  0  0  0
  -25.8910  -34.9610   23.4510 C   0  0  0  0  0  0  0  0  0  0  0  0
  -26.5470  -34.8710   22.4090 O   0  0  0  0  0  0  0  0  0  0  0  0
  -24.9940  -34.0370   25.0130 H   0  0  0  0  0  0  0  0  0  0  0  0
  -24.1380  -36.7430   23.1500 C   0  0  0  0  0  1  0  0  0  0  0  0
  -25.4030  -36.3440   23.9280 C   0  0  0  0  0  3  0  0  0  0  0  0
  -27.5480  -37.2490   24.7120 C   0  0  0  0  0  1  0  0  0  0  0  0
  -26.4230  -37.4080   23.7940 N   0  0  0  0  0  0  0  0  0  0  0  0
  -26.0120  -38.3240   23.9490 H   0  0  0  0  0  0  0  0  0  0  0  0
  1  8  1  0
  1 52  1  0
  2  4  1  0
  2  3  1  0
  3  5  1  0
  4  6  1  0
  5  7  1  0
  6  7  1  0
  7  1  1  0
  8 22  1  0
  9 21  1  0
 10 15  1  0
 11 12  1  0
 11 10  1  0
 13 12  1  0
 13 27  1  0
 13 14  1  0
 15  9  1  0
 15 14  1  0
 16  9  2  0
 17 21  1  0
 19 17  1  0
 19 22  1  0
 20 18  1  0
 21 18  1  0
 22 20  1  0
 22 23  1  1
 24 25  2  0
 25 44  1  0
 26 25  1  0
 26 29  1  0
 27 28  1  0
 27 24  1  0
 28 26  2  0
 29 30  1  0
 30 31  2  0
 32 35  1  0
 32 31  1  0
 33 32  2  0
 34 33  1  0
 34 29  2  0
 35 36  1  0
 36 37  1  0
 37 38  2  0
 39 38  1  0
 39 43  1  0
 40 39  2  0
 41 36  2  0
 41 40  1  0
 42 41  1  0
 44 45  1  0
 45 48  1  0
 45 47  1  0
 46 44  2  0
 49 24  1  0
 49 50  1  0
 51 49  1  0
 53 52  1  0
 54 65  2  0
 55 53  1  0
 55 60  1  0
 56 64  1  0
 56 66  1  0
 57 63  1  0
 57 59  1  0
 58 64  1  0
 59 58  1  0
 60 59  2  0
 61 55  2  0
 62 61  1  0
 62 57  2  0
 63 56  1  0
 64 54  1  0
 66 68  2  0
 67 66  1  0
 69 67  1  0
 70 79  2  0
 70 75  1  0
 71 67  1  0
 71 75  1  0
 72 71  1  0
 73 74  1  0
 73 72  1  0
 74 70  1  0
 75 76  2  0
 76 77  1  0
 78 77  2  0
 79 78  1  0
 80 54  1  0
 80 85  1  0
 80 81  1  0
 81 84  1  1
 81 82  1  0
 83 81  1  0
 85 88  1  0
 86 90  1  0
 86 85  1  0
 87 86  2  0
 90 89  1  0
 92 90  1  0
 92 93  1  0
 92 91  1  0
M  ISO  4   9 100  21 100  52 101  53 101
M  END
>  <TORSDO>  (70) 
F 19

>  <SCORE>  (70) 
-15.549

>  <name>  (70) 
70

>  <ligand_id>  (70) 
70

>  <original_smiles>  (70) 
[H]c1c([H])c([H])c2c(c1[H])C([H])([H])C([H])([H])C([H])([H])C2([H])N([H])C(=O)C1([H])N(C(=O)C([H])(N([H])C(=O)C([H])(N([H])C([H])([H])[H])C([H])([H])[H])C(C([H])([H])[H])(C([H])([H])[H])C([H])([H])[H])C([H])([H])c2c([H])c(OC([H])([H])C([H])(C3([H])C([H])([H])C([H])([H])C([H])([H])C([H])([H])C3([H])[H])C([H])([H])[N+]3([H])C([H])([H])C([H])([H])N(C(=O)N4C([H])([H])C([H])([H])C([H])([H])C([H])(n5nc(-c6c([H])c([H])c(Oc7c([H])c([H])c(F)c([H])c7F)c([H])c6[H])c(C(=O)N([H])[H])c5N([H])[H])C4([H])[H])C([H])([H])C3([H])[H])c([H])c([H])c2C1([H])[H]

>  <smiles>  (70) 
[H]c1c([H])c([H])c2c(c1[H])C([H])([H])C([H])([H])C([H])([H])C2([H])N([H])C(=O)C1([H])N(C(=O)C([H])(N([H])C(=O)C([H])(N([H])C([H])([H])[H])C([H])([H])[H])C(C([H])([H])[H])(C([H])([H])[H])C([H])([H])[H])C([H])([H])c2c([H])c(OC([H])([H])C([H])(C3([H])C([H])([H])C([H])([H])C([H])([H])C([H])([H])C3([H])[H])C([H])([H])[N+]3([H])C([H])([H])C([H])([H])N(C(=O)N4C([H])([H])C([H])([H])C([H])([H])C([H])(n5nc(-c6c([H])c([H])c(Oc7c([H])c([H])c(F)c([H])c7F)c([H])c6[H])c(C(=O)N([H])[H])c5N([H])[H])C4([H])[H])C([H])([H])C3([H])[H])c([H])c([H])c2C1([H])[H]

$$$$
71:0:0
     RDKit          3D

 89 97  0  0  1  0  0  0  0  0999 V2000
  -29.1460  -21.2900   19.8580 N   0  0  0  0  0  4  0  0  0  0  0  0
  -28.1930  -21.1970   20.1700 H   0  0  0  0  0  0  0  0  0  0  0  0
  -29.9700  -21.3060   20.4360 H   0  0  0  0  0  0  0  0  0  0  0  0
  -31.2150  -19.1890   21.6570 C   0  0  0  0  0  2  0  0  0  0  0  0
  -31.4100  -18.5780   20.2560 C   0  0  0  0  0  2  0  0  0  0  0  0
  -29.7510  -19.6490   21.7860 C   0  0  0  0  0  2  0  0  0  0  0  0
  -30.0120  -18.2540   19.7140 C   0  0  0  0  0  3  0  0  0  0  0  0
  -29.1720  -19.6950   20.3670 C   0  0  0  0  0  3  0  0  0  0  0  0
  -30.5260  -15.3470   19.8080 C   0  0  0  0  0  0  0  0  0  0  0  0
  -30.4530  -12.8980   18.9620 C   0  0  0  0  0  2  0  0  0  0  0  0
  -29.4560  -12.6710   17.7970 C   0  0  0  0  0  2  0  0  0  0  0  0
  -28.0440  -12.3950   18.3370 C   0  0  0  0  0  2  0  0  0  0  0  0
  -27.6580  -13.3710   19.4760 C   0  0  0  0  0  3  0  0  0  0  0  0
  -28.7750  -13.5410   20.5300 C   0  0  0  0  0  2  0  0  0  0  0  0
  -29.9590  -14.0420   19.8150 N   0  0  0  0  0  0  0  0  0  0  0  0
  -31.7170  -15.3470   19.4720 O   0  0  0  0  0  0  0  0  0  0  0  0
  -29.7760  -16.6170   19.9730 N   0  0  0  0  0  0  0  0  0  0  0  0
  -28.8250  -16.4270   20.2550 H   0  0  0  0  0  0  0  0  0  0  0  0
  -25.3580  -13.9200   20.4290 C   0  0  0  0  0  0  0  0  0  0  0  0
  -24.3180  -13.1380   20.8470 C   0  0  0  0  0  0  0  0  0  0  0  0
  -24.7670  -11.7860   20.7300 C   0  0  0  0  0  0  0  0  0  0  0  0
  -26.3690  -13.0460   20.0730 N   0  0  0  0  0  0  0  0  0  0  0  0
  -26.0320  -11.7530   20.3230 N   0  0  0  0  0  0  0  0  0  0  0  0
  -24.0420  -10.5230   20.9240 C   0  0  0  0  0  0  0  0  0  0  0  0
  -24.4890   -9.5470   21.8430 C   0  0  0  0  0  3  0  0  0  0  0  0
  -23.7610   -8.3520   22.0270 C   0  0  0  0  0  3  0  0  0  0  0  0
  -22.5740   -8.1220   21.2920 C   0  0  0  0  0  0  0  0  0  0  0  0
  -22.1470   -9.0860   20.3620 C   0  0  0  0  0  3  0  0  0  0  0  0
  -22.8750  -10.2730   20.1760 C   0  0  0  0  0  3  0  0  0  0  0  0
  -21.8160   -6.9800   21.3880 O   0  0  0  0  0  0  0  0  0  0  0  0
  -21.7390   -6.2630   22.5550 C   0  0  0  0  0  0  0  0  0  0  0  0
  -21.2410   -6.8310   23.7470 C   0  0  0  0  0  3  0  0  0  0  0  0
  -21.1140   -6.0390   24.9060 C   0  0  0  0  0  3  0  0  0  0  0  0
  -21.4740   -4.6780   24.8720 C   0  0  0  0  0  0  0  0  0  0  0  0
  -21.9640   -4.1090   23.6830 C   0  0  0  0  0  3  0  0  0  0  0  0
  -22.0940   -4.8980   22.5280 C   0  0  0  0  0  0  0  0  0  0  0  0
  -22.5470   -4.3400   21.3800 F   0  0  0  0  0  0  0  0  0  0  0  0
  -21.3460   -3.9140   25.9820 F   0  0  0  0  0  0  0  0  0  0  0  0
  -22.9490  -13.6150   21.2350 C   0  0  0  0  0  0  0  0  0  0  0  0
  -22.2790  -12.8940   22.1270 N   0  0  0  0  0  0  0  0  0  0  0  0
  -22.4870  -14.6610   20.7810 O   0  0  0  0  0  0  0  0  0  0  0  0
  -22.6700  -12.0480   22.5130 H   0  0  0  0  0  0  0  0  0  0  0  0
  -21.3620  -13.1930   22.4280 H   0  0  0  0  0  0  0  0  0  0  0  0
  -25.5210  -15.2950   20.2890 N   0  0  0  0  0  0  0  0  0  0  0  0
  -24.7670  -15.9490   20.4780 H   0  0  0  0  0  0  0  0  0  0  0  0
  -26.3260  -15.7330   19.8610 H   0  0  0  0  0  0  0  0  0  0  0  0
  -28.9450  -22.8310   20.4930 C   0  0  0  0  0  3  0  0  0  0  0  0
  -28.1660  -24.3310   19.8710 C   0  0  0  0  0  3  0  0  0  0  0  0
  -28.2450  -25.9340   20.2740 O   0  0  0  0  0  0  0  0  0  0  0  0
  -24.6270  -31.8790   23.1590 C   0  0  0  0  0  0  0  0  0  0  0  0
  -27.2190  -27.0110   20.1650 C   0  0  0  0  0  0  0  0  0  0  0  0
  -23.4420  -30.4660   21.5270 C   0  0  0  0  0  3  0  0  0  0  0  0
  -24.9020  -28.8650   20.1100 C   0  0  0  0  0  0  0  0  0  0  0  0
  -26.0060  -30.6970   21.3780 C   0  0  0  0  0  2  0  0  0  0  0  0
  -26.0850  -29.2840   20.7310 C   0  0  0  0  0  0  0  0  0  0  0  0
  -27.2350  -28.3760   20.7360 C   0  0  0  0  0  3  0  0  0  0  0  0
  -26.0090  -26.7440   19.4870 C   0  0  0  0  0  3  0  0  0  0  0  0
  -24.8890  -27.6170   19.4670 C   0  0  0  0  0  3  0  0  0  0  0  0
  -23.6740  -29.7750   20.1550 C   0  0  0  0  0  2  0  0  0  0  0  0
  -24.7130  -31.0410   22.0750 N   0  0  0  0  0  0  0  0  0  0  0  0
  -23.5360  -32.1640   23.6790 O   0  0  0  0  0  0  0  0  0  0  0  0
  -22.7540  -29.4710   22.4990 C   0  0  0  0  0  0  0  0  0  0  0  0
  -21.4260  -29.3010   22.3770 N   0  0  0  0  0  0  0  0  0  0  0  0
  -23.4250  -28.8530   23.3300 O   0  0  0  0  0  0  0  0  0  0  0  0
  -20.9370  -29.8500   21.6840 H   0  0  0  0  0  0  0  0  0  0  0  0
  -18.0480  -28.0840   22.9020 C   0  0  0  0  0  0  0  0  0  0  0  0
  -20.6090  -28.3620   23.1540 C   0  0  0  0  0  3  0  0  0  0  0  0
  -20.7140  -26.9290   22.5840 C   0  0  0  0  0  2  0  0  0  0  0  0
  -19.6100  -26.5990   21.5740 C   0  0  0  0  0  2  0  0  0  0  0  0
  -18.2290  -26.7360   22.2240 C   0  0  0  0  0  2  0  0  0  0  0  0
  -19.1650  -28.8540   23.3240 C   0  0  0  0  0  0  0  0  0  0  0  0
  -18.9400  -30.1130   23.9220 C   0  0  0  0  0  3  0  0  0  0  0  0
  -17.6320  -30.6040   24.0990 C   0  0  0  0  0  3  0  0  0  0  0  0
  -16.5310  -29.8320   23.6910 C   0  0  0  0  0  3  0  0  0  0  0  0
  -16.7390  -28.5740   23.0980 C   0  0  0  0  0  3  0  0  0  0  0  0
  -25.8940  -32.5340   23.7890 C   0  0  0  0  0  3  0  0  0  0  0  0
  -26.4120  -31.7700   25.0710 C   0  0  1  0  0  0  0  0  0  0  0  0
  -25.3150  -31.5190   26.1320 C   0  0  0  0  0  1  0  0  0  0  0  0
  -27.0150  -30.4000   24.6910 C   0  0  0  0  0  1  0  0  0  0  0  0
  -27.5470  -32.5810   25.7390 C   0  0  0  0  0  1  0  0  0  0  0  0
  -25.5620  -33.9290   24.1300 N   0  0  0  0  0  0  0  0  0  0  0  0
  -25.8660  -34.9970   23.3800 C   0  0  0  0  0  0  0  0  0  0  0  0
  -26.5180  -34.9110   22.3360 O   0  0  0  0  0  0  0  0  0  0  0  0
  -24.9780  -34.0650   24.9430 H   0  0  0  0  0  0  0  0  0  0  0  0
  -24.1020  -36.7710   23.0880 C   0  0  0  0  0  1  0  0  0  0  0  0
  -25.3700  -36.3760   23.8620 C   0  0  0  0  0  3  0  0  0  0  0  0
  -27.5060  -37.2980   24.6500 C   0  0  0  0  0  1  0  0  0  0  0  0
  -26.3830  -37.4470   23.7280 N   0  0  0  0  0  0  0  0  0  0  0  0
  -25.9650  -38.3610   23.8810 H   0  0  0  0  0  0  0  0  0  0  0  0
  1  2  1  0
  1  3  1  0
  1 47  1  0
  4  6  1  0
  5  4  1  0
  7 17  1  0
  7  5  1  0
  7  8  1  0
  8  1  1  0
  8  6  1  0
  9 15  1  0
  9 17  1  0
 10 15  1  0
 11 12  1  0
 11 10  1  0
 13 12  1  0
 13 22  1  0
 13 14  1  0
 15 14  1  0
 16  9  2  0
 17 18  1  0
 19 20  2  0
 20 39  1  0
 21 20  1  0
 21 24  1  0
 22 23  1  0
 22 19  1  0
 23 21  2  0
 24 25  1  0
 25 26  2  0
 27 30  1  0
 27 26  1  0
 28 27  2  0
 29 28  1  0
 29 24  2  0
 30 31  1  0
 31 32  1  0
 32 33  2  0
 34 33  1  0
 34 38  1  0
 35 34  2  0
 36 31  2  0
 36 35  1  0
 37 36  1  0
 39 40  1  0
 40 43  1  0
 40 42  1  0
 41 39  2  0
 44 19  1  0
 44 45  1  0
 46 44  1  0
 48 49  1  0
 48 47  2  0
 50 61  2  0
 51 49  1  0
 51 56  1  0
 52 60  1  0
 52 62  1  0
 53 59  1  0
 53 55  1  0
 54 60  1  0
 55 56  2  0
 55 54  1  0
 57 51  2  0
 58 57  1  0
 58 53  2  0
 59 52  1  0
 60 50  1  0
 62 64  2  0
 63 62  1  0
 65 63  1  0
 66 75  2  0
 66 71  1  0
 67 63  1  0
 67 71  1  0
 68 67  1  0
 69 70  1  0
 69 68  1  0
 70 66  1  0
 71 72  2  0
 72 73  1  0
 74 73  2  0
 75 74  1  0
 76 50  1  0
 76 81  1  0
 76 77  1  0
 77 80  1  1
 77 78  1  0
 79 77  1  0
 81 84  1  0
 82 86  1  0
 82 81  1  0
 83 82  2  0
 86 85  1  0
 88 86  1  0
 88 89  1  0
 88 87  1  0
M  ISO  4   9 100  17 100  48 101  49 101
M  END
>  <TORSDO>  (71) 
F 19

>  <SCORE>  (71) 
-16.059

>  <name>  (71) 
71

>  <ligand_id>  (71) 
71

>  <original_smiles>  (71) 
[H]c1c([H])c([H])c2c(c1[H])C([H])([H])C([H])([H])C([H])([H])C2([H])N([H])C(=O)C1([H])N(C(=O)C([H])(N([H])C(=O)C([H])(N([H])C([H])([H])[H])C([H])([H])[H])C(C([H])([H])[H])(C([H])([H])[H])C([H])([H])[H])C([H])([H])c2c([H])c(OC([H])([H])C([H])([H])[N+]([H])([H])C3([H])C([H])([H])C([H])([H])C([H])([H])C3([H])N([H])C(=O)N3C([H])([H])C([H])([H])C([H])([H])C([H])(n4nc(-c5c([H])c([H])c(Oc6c([H])c([H])c(F)c([H])c6F)c([H])c5[H])c(C(=O)N([H])[H])c4N([H])[H])C3([H])[H])c([H])c([H])c2C1([H])[H]

>  <smiles>  (71) 
[H]c1c([H])c([H])c2c(c1[H])C([H])([H])C([H])([H])C([H])([H])C2([H])N([H])C(=O)C1([H])N(C(=O)C([H])(N([H])C(=O)C([H])(N([H])C([H])([H])[H])C([H])([H])[H])C(C([H])([H])[H])(C([H])([H])[H])C([H])([H])[H])C([H])([H])c2c([H])c(OC([H])([H])C([H])([H])[N+]([H])([H])C3([H])C([H])([H])C([H])([H])C([H])([H])C3([H])N([H])C(=O)N3C([H])([H])C([H])([H])C([H])([H])C([H])(n4nc(-c5c([H])c([H])c(Oc6c([H])c([H])c(F)c([H])c6F)c([H])c5[H])c(C(=O)N([H])[H])c4N([H])[H])C3([H])[H])c([H])c([H])c2C1([H])[H]

$$$$
72:0:0
     RDKit          3D

103110  0  0  1  0  0  0  0  0999 V2000
  -29.1530  -21.8860   19.4950 C   0  0  0  0  0  3  0  0  0  0  0  0
  -29.6850  -19.1370   19.2800 C   0  0  0  0  0  0  0  0  0  0  0  0
  -29.6850  -20.4290   19.9020 N   0  0  0  0  0  0  0  0  0  0  0  0
  -28.9170  -18.9530   18.3360 O   0  0  0  0  0  0  0  0  0  0  0  0
  -30.2980  -20.4560   20.7060 H   0  0  0  0  0  0  0  0  0  0  0  0
  -30.6840  -17.8470   19.6560 C   0  0  0  0  0  0  0  0  0  0  0  0
  -31.1540  -15.0960   19.3730 C   0  0  0  0  0  0  0  0  0  0  0  0
  -30.9590  -12.6690   18.6340 C   0  0  0  0  0  2  0  0  0  0  0  0
  -29.9190  -12.5110   17.5010 C   0  0  0  0  0  2  0  0  0  0  0  0
  -28.5000  -12.3480   18.0790 C   0  0  0  0  0  2  0  0  0  0  0  0
  -28.1980  -13.3780   19.1980 C   0  0  0  0  0  3  0  0  0  0  0  0
  -29.3480  -13.4840   20.2190 C   0  0  0  0  0  2  0  0  0  0  0  0
  -30.5500  -13.8420   19.4580 N   0  0  0  0  0  0  0  0  0  0  0  0
  -32.3480  -15.1170   19.0540 O   0  0  0  0  0  0  0  0  0  0  0  0
  -30.3800  -16.2940   19.4530 N   0  0  0  0  0  4  0  0  0  0  0  0
  -29.3940  -16.1010   19.5290 H   0  0  0  0  0  0  0  0  0  0  0  0
  -25.9610  -14.0700   20.2290 C   0  0  0  0  0  0  0  0  0  0  0  0
  -24.8940  -13.3470   20.6850 C   0  0  0  0  0  0  0  0  0  0  0  0
  -25.2610  -11.9730   20.5510 C   0  0  0  0  0  0  0  0  0  0  0  0
  -26.9090  -13.1400   19.8360 N   0  0  0  0  0  0  0  0  0  0  0  0
  -26.5050  -11.8690   20.0950 N   0  0  0  0  0  0  0  0  0  0  0  0
  -24.4760  -10.7510   20.7700 C   0  0  0  0  0  0  0  0  0  0  0  0
  -24.8560   -9.7900   21.7320 C   0  0  0  0  0  3  0  0  0  0  0  0
  -24.0720   -8.6350   21.9390 C   0  0  0  0  0  3  0  0  0  0  0  0
  -22.8940   -8.4310   21.1820 C   0  0  0  0  0  0  0  0  0  0  0  0
  -22.5330   -9.3790   20.2080 C   0  0  0  0  0  3  0  0  0  0  0  0
  -23.3170  -10.5260   20.0000 C   0  0  0  0  0  3  0  0  0  0  0  0
  -22.0850   -7.3260   21.2960 O   0  0  0  0  0  0  0  0  0  0  0  0
  -21.9010   -6.6900   22.4970 C   0  0  0  0  0  0  0  0  0  0  0  0
  -21.3580   -7.3550   23.6180 C   0  0  0  0  0  3  0  0  0  0  0  0
  -21.1220   -6.6450   24.8130 C   0  0  0  0  0  3  0  0  0  0  0  0
  -21.4180   -5.2720   24.8860 C   0  0  0  0  0  0  0  0  0  0  0  0
  -21.9540   -4.6060   23.7690 C   0  0  0  0  0  3  0  0  0  0  0  0
  -22.1920   -5.3140   22.5770 C   0  0  0  0  0  0  0  0  0  0  0  0
  -22.6890   -4.6620   21.4980 F   0  0  0  0  0  0  0  0  0  0  0  0
  -21.1850   -4.5870   26.0300 F   0  0  0  0  0  0  0  0  0  0  0  0
  -23.5700  -13.8990   21.1260 C   0  0  0  0  0  0  0  0  0  0  0  0
  -22.9130  -13.2340   22.0690 N   0  0  0  0  0  0  0  0  0  0  0  0
  -23.1340  -14.9540   20.6690 O   0  0  0  0  0  0  0  0  0  0  0  0
  -23.2810  -12.3780   22.4580 H   0  0  0  0  0  0  0  0  0  0  0  0
  -22.0290  -13.5850   22.4090 H   0  0  0  0  0  0  0  0  0  0  0  0
  -26.1930  -15.4350   20.0840 N   0  0  0  0  0  0  0  0  0  0  0  0
  -25.4770  -16.1210   20.2970 H   0  0  0  0  0  0  0  0  0  0  0  0
  -27.0010  -15.8380   19.6290 H   0  0  0  0  0  0  0  0  0  0  0  0
  -30.5570  -17.2050   22.1270 C   0  0  0  0  0  1  0  0  0  0  0  0
  -31.3090  -18.0390   21.0710 C   0  0  0  0  0  3  0  0  0  0  0  0
  -33.6870  -18.6530   20.2540 C   0  0  0  0  0  1  0  0  0  0  0  0
  -32.8280  -17.7650   21.1650 C   0  0  0  0  0  2  0  0  0  0  0  0
  -30.2940  -22.6540   18.7900 C   0  0  0  0  0  2  0  0  0  0  0  0
  -30.9050  -21.8880   17.5960 C   0  0  0  0  0  2  0  0  0  0  0  0
  -31.7320  -22.7590   16.6380 C   0  0  0  0  0  2  0  0  0  0  0  0
  -32.2530  -21.9490   15.4330 C   0  0  0  0  0  2  0  0  0  0  0  0
  -32.9870  -22.7780   14.4640 N   0  0  0  0  0  4  0  0  0  0  0  0
  -32.3900  -23.4830   14.0720 H   0  0  0  0  0  0  0  0  0  0  0  0
  -33.3230  -22.2040   13.7110 H   0  0  0  0  0  0  0  0  0  0  0  0
  -33.7790  -23.2220   14.8920 H   0  0  0  0  0  0  0  0  0  0  0  0
  -28.2820  -22.9440   20.5120 C   0  0  0  0  0  3  0  0  0  0  0  0
  -26.8450  -22.6210   20.4020 N   0  0  0  0  0  4  0  0  0  0  0  0
  -26.7110  -21.6260   20.3500 H   0  0  0  0  0  0  0  0  0  0  0  0
  -26.4450  -23.0300   19.5740 H   0  0  0  0  0  0  0  0  0  0  0  0
  -26.3360  -22.9560   21.2040 H   0  0  0  0  0  0  0  0  0  0  0  0
  -28.4620  -24.6000   20.9500 C   0  0  0  0  0  2  0  0  0  0  0  0
  -28.3850  -26.0240   20.3050 O   0  0  0  0  0  0  0  0  0  0  0  0
  -24.6670  -31.7560   23.2610 C   0  0  0  0  0  0  0  0  0  0  0  0
  -27.3030  -26.9770   20.3770 C   0  0  0  0  0  0  0  0  0  0  0  0
  -23.5090  -30.3520   21.5990 C   0  0  0  0  0  3  0  0  0  0  0  0
  -24.9870  -28.7410   20.2490 C   0  0  0  0  0  0  0  0  0  0  0  0
  -26.0670  -30.5950   21.5100 C   0  0  0  0  0  2  0  0  0  0  0  0
  -26.1510  -29.1870   20.8890 C   0  0  0  0  0  0  0  0  0  0  0  0
  -27.3120  -28.3240   20.9310 C   0  0  0  0  0  3  0  0  0  0  0  0
  -26.1140  -26.6310   19.7060 C   0  0  0  0  0  3  0  0  0  0  0  0
  -24.9810  -27.4730   19.6440 C   0  0  0  0  0  3  0  0  0  0  0  0
  -23.7690  -29.6530   20.2380 C   0  0  0  0  0  2  0  0  0  0  0  0
  -24.7660  -30.9230   22.1790 N   0  0  0  0  0  0  0  0  0  0  0  0
  -23.5670  -32.0510   23.7540 O   0  0  0  0  0  0  0  0  0  0  0  0
  -22.7930  -29.3600   22.5520 C   0  0  0  0  0  0  0  0  0  0  0  0
  -21.4610  -29.2300   22.4160 N   0  0  0  0  0  0  0  0  0  0  0  0
  -23.4410  -28.7110   23.3780 O   0  0  0  0  0  0  0  0  0  0  0  0
  -20.9980  -29.8080   21.7300 H   0  0  0  0  0  0  0  0  0  0  0  0
  -18.0370  -28.1560   22.9170 C   0  0  0  0  0  0  0  0  0  0  0  0
  -20.6070  -28.3120   23.1750 C   0  0  0  0  0  3  0  0  0  0  0  0
  -20.6480  -26.8870   22.5740 C   0  0  0  0  0  2  0  0  0  0  0  0
  -19.5280  -26.6260   21.5610 C   0  0  0  0  0  2  0  0  0  0  0  0
  -18.1570  -26.8140   22.2150 C   0  0  0  0  0  2  0  0  0  0  0  0
  -19.1880  -28.8660   23.3530 C   0  0  0  0  0  0  0  0  0  0  0  0
  -19.0210  -30.1250   23.9700 C   0  0  0  0  0  3  0  0  0  0  0  0
  -17.7360  -30.6710   24.1570 C   0  0  0  0  0  3  0  0  0  0  0  0
  -16.6010  -29.9570   23.7360 C   0  0  0  0  0  3  0  0  0  0  0  0
  -16.7520  -28.7020   23.1210 C   0  0  0  0  0  3  0  0  0  0  0  0
  -25.9290  -32.3910   23.9200 C   0  0  0  0  0  3  0  0  0  0  0  0
  -26.4210  -31.6050   25.1970 C   0  0  1  0  0  0  0  0  0  0  0  0
  -25.3010  -31.3220   26.2260 C   0  0  0  0  0  1  0  0  0  0  0  0
  -27.0480  -30.2500   24.8000 C   0  0  0  0  0  1  0  0  0  0  0  0
  -27.5300  -32.4120   25.9120 C   0  0  0  0  0  1  0  0  0  0  0  0
  -25.6010  -33.7810   24.2700 N   0  0  0  0  0  0  0  0  0  0  0  0
  -25.9360  -34.8550   23.5430 C   0  0  0  0  0  0  0  0  0  0  0  0
  -26.6210  -34.7790   22.5190 O   0  0  0  0  0  0  0  0  0  0  0  0
  -24.9980  -33.9120   25.0700 H   0  0  0  0  0  0  0  0  0  0  0  0
  -24.2030  -36.6480   23.2070 C   0  0  0  0  0  1  0  0  0  0  0  0
  -25.4350  -36.2310   24.0250 C   0  0  0  0  0  3  0  0  0  0  0  0
  -27.5480  -37.1160   24.9070 C   0  0  0  0  0  1  0  0  0  0  0  0
  -26.4610  -37.2930   23.9480 N   0  0  0  0  0  0  0  0  0  0  0  0
  -26.0460  -38.2070   24.1060 H   0  0  0  0  0  0  0  0  0  0  0  0
  1 49  1  0
  1  3  1  0
  1 57  1  0
  2  6  1  0
  2  3  1  0
  3  5  1  0
  4  2  2  0
  6 46  1  0
  7 15  1  0
  7 13  1  0
  8 13  1  0
  9 10  1  0
  9  8  1  0
 11 10  1  0
 11 20  1  0
 11 12  1  0
 13 12  1  0
 14  7  2  0
 15 16  1  0
 15  6  2  0
 17 18  2  0
 18 37  1  0
 19 18  1  0
 19 22  1  0
 20 21  1  0
 20 17  1  0
 21 19  2  0
 22 23  1  0
 23 24  2  0
 25 28  1  0
 25 24  1  0
 26 25  2  0
 27 26  1  0
 27 22  2  0
 28 29  1  0
 29 34  2  0
 29 30  1  0
 30 31  2  0
 31 32  1  0
 32 36  1  0
 33 32  2  0
 34 33  1  0
 35 34  1  0
 37 38  1  0
 38 41  1  0
 38 40  1  0
 39 37  2  0
 42 17  1  0
 42 43  1  0
 44 42  1  0
 46 48  1  0
 46 45  1  0
 47 48  1  0
 50 49  1  0
 51 50  1  0
 52 51  1  0
 53 56  1  0
 53 52  1  0
 54 53  1  0
 55 53  1  0
 57 62  1  0
 58 57  1  0
 58 61  1  0
 59 58  1  0
 60 58  1  0
 63 65  1  0
 63 62  1  0
 64 75  2  0
 65 70  1  0
 66 74  1  0
 66 76  1  0
 67 69  1  0
 68 74  1  0
 69 70  2  0
 69 68  1  0
 71 65  2  0
 72 71  1  0
 72 67  2  0
 73 67  1  0
 73 66  1  0
 74 64  1  0
 76 78  2  0
 77 76  1  0
 79 77  1  0
 80 89  2  0
 80 85  1  0
 81 77  1  0
 81 85  1  0
 82 81  1  0
 83 84  1  0
 83 82  1  0
 84 80  1  0
 85 86  2  0
 86 87  1  0
 88 87  2  0
 89 88  1  0
 90 64  1  0
 90 95  1  0
 90 91  1  0
 91 94  1  1
 91 92  1  0
 93 91  1  0
 95 98  1  0
 96100  1  0
 96 95  1  0
 97 96  2  0
100 99  1  0
102100  1  0
102103  1  0
102101  1  0
M  ISO  4   7 100  15 100  62 101  63 101
M  END
>  <TORSDO>  (72) 
F 28

>  <SCORE>  (72) 
-11.335

>  <name>  (72) 
72

>  <ligand_id>  (72) 
72

>  <original_smiles>  (72) 
[H]c1c([H])c([H])c2c(c1[H])C([H])([H])C([H])([H])C([H])([H])C2([H])N([H])C(=O)C1([H])N(C(=O)C([H])(N([H])C(=O)C([H])(N([H])C([H])([H])[H])C([H])([H])[H])C(C([H])([H])[H])(C([H])([H])[H])C([H])([H])[H])C([H])([H])c2c([H])c(OC([H])([H])C([H])(C([H])(N([H])C(=O)C([H])(N([H])C(=O)N3C([H])([H])C([H])([H])C([H])([H])C([H])(n4nc(-c5c([H])c([H])c(Oc6c([H])c([H])c(F)c([H])c6F)c([H])c5[H])c(C(=O)N([H])[H])c4N([H])[H])C3([H])[H])C([H])(C([H])([H])[H])C([H])([H])C([H])([H])[H])C([H])([H])C([H])([H])C([H])([H])C([H])([H])[N+]([H])([H])[H])[N+]([H])([H])[H])c([H])c([H])c2C1([H])[H]

>  <smiles>  (72) 
[H]c1c([H])c([H])c2c(c1[H])C([H])([H])C([H])([H])C([H])([H])C2([H])N([H])C(=O)C1([H])N(C(=O)C([H])(N([H])C(=O)C([H])(N([H])C([H])([H])[H])C([H])([H])[H])C(C([H])([H])[H])(C([H])([H])[H])C([H])([H])[H])C([H])([H])c2c([H])c(OC([H])([H])C([H])(C([H])(N([H])C(=O)C([H])(N([H])C(=O)N3C([H])([H])C([H])([H])C([H])([H])C([H])(n4nc(-c5c([H])c([H])c(Oc6c([H])c([H])c(F)c([H])c6F)c([H])c5[H])c(C(=O)N([H])[H])c4N([H])[H])C3([H])[H])C([H])(C([H])([H])[H])C([H])([H])C([H])([H])[H])C([H])([H])C([H])([H])C([H])([H])C([H])([H])[N+]([H])([H])[H])[N+]([H])([H])[H])c([H])c([H])c2C1([H])[H]

$$$$
73:0:0
     RDKit          3D

 94101  0  0  1  0  0  0  0  0999 V2000
  -28.6500  -23.8170   20.1450 C   0  0  0  0  0  3  0  0  0  0  0  0
  -27.7760  -23.5720   18.8990 C   0  0  0  0  0  0  0  0  0  0  0  0
  -28.3430  -23.6350   17.7010 N   0  0  0  0  0  0  0  0  0  0  0  0
  -26.5780  -23.3040   19.0080 O   0  0  0  0  0  0  0  0  0  0  0  0
  -29.3270  -23.8510   17.6160 H   0  0  0  0  0  0  0  0  0  0  0  0
  -27.7960  -23.4760   16.8670 H   0  0  0  0  0  0  0  0  0  0  0  0
  -28.6520  -22.4730   21.0360 C   0  0  0  0  0  3  0  0  0  0  0  0
  -29.3870  -21.1570   20.4940 C   0  0  0  0  0  3  0  0  0  0  0  0
  -29.0760  -19.7450   21.2080 C   0  0  0  0  0  2  0  0  0  0  0  0
  -30.0500  -18.4410   21.1160 C   0  0  0  0  0  2  0  0  0  0  0  0
  -30.6880  -14.6640   20.1710 C   0  0  0  0  0  0  0  0  0  0  0  0
  -30.3580  -12.4290   19.1100 C   0  0  0  0  0  2  0  0  0  0  0  0
  -29.3920  -12.5770   17.9110 C   0  0  0  0  0  2  0  0  0  0  0  0
  -27.9340  -12.4250   18.3780 C   0  0  0  0  0  2  0  0  0  0  0  0
  -27.6170  -13.3000   19.6230 C   0  0  0  0  0  3  0  0  0  0  0  0
  -28.7050  -13.1530   20.7220 C   0  0  0  0  0  2  0  0  0  0  0  0
  -30.0070  -13.4650   20.1180 N   0  0  0  0  0  0  0  0  0  0  0  0
  -31.7590  -14.8040   19.5710 O   0  0  0  0  0  0  0  0  0  0  0  0
  -29.8080  -17.0960   20.3330 C   0  0  0  0  0  0  0  0  0  0  0  0
  -30.1600  -15.8540   20.8810 N   0  0  0  0  0  0  0  0  0  0  0  0
  -29.2150  -17.1960   19.1130 N   0  0  0  0  0  4  0  0  0  0  0  0
  -30.3050  -15.8780   21.8820 H   0  0  0  0  0  0  0  0  0  0  0  0
  -28.9880  -16.4080   18.5250 H   0  0  0  0  0  0  0  0  0  0  0  0
  -28.9250  -18.1040   18.7710 H   0  0  0  0  0  0  0  0  0  0  0  0
  -25.2420  -13.9150   20.4040 C   0  0  0  0  0  0  0  0  0  0  0  0
  -24.1690  -13.1470   20.7680 C   0  0  0  0  0  0  0  0  0  0  0  0
  -24.6220  -11.7930   20.7280 C   0  0  0  0  0  0  0  0  0  0  0  0
  -26.2740  -13.0290   20.1350 N   0  0  0  0  0  0  0  0  0  0  0  0
  -25.9050  -11.7480   20.3900 N   0  0  0  0  0  0  0  0  0  0  0  0
  -23.8920  -10.5340   20.9430 C   0  0  0  0  0  0  0  0  0  0  0  0
  -24.3400   -9.5710   21.8750 C   0  0  0  0  0  3  0  0  0  0  0  0
  -23.6120   -8.3790   22.0760 C   0  0  0  0  0  3  0  0  0  0  0  0
  -22.4220   -8.1410   21.3480 C   0  0  0  0  0  0  0  0  0  0  0  0
  -21.9920   -9.0930   20.4090 C   0  0  0  0  0  3  0  0  0  0  0  0
  -22.7200  -10.2780   20.2060 C   0  0  0  0  0  3  0  0  0  0  0  0
  -21.6560   -7.0080   21.4660 O   0  0  0  0  0  0  0  0  0  0  0  0
  -21.6290   -6.2680   22.6210 C   0  0  0  0  0  0  0  0  0  0  0  0
  -21.2490   -6.8320   23.8590 C   0  0  0  0  0  3  0  0  0  0  0  0
  -21.1630   -6.0190   25.0040 C   0  0  0  0  0  3  0  0  0  0  0  0
  -21.4500   -4.6440   24.9180 C   0  0  0  0  0  0  0  0  0  0  0  0
  -21.8240   -4.0780   23.6850 C   0  0  0  0  0  3  0  0  0  0  0  0
  -21.9100   -4.8880   22.5400 C   0  0  0  0  0  0  0  0  0  0  0  0
  -22.2500   -4.3330   21.3530 F   0  0  0  0  0  0  0  0  0  0  0  0
  -21.3620   -3.8640   26.0210 F   0  0  0  0  0  0  0  0  0  0  0  0
  -22.7790  -13.6300   21.0680 C   0  0  0  0  0  0  0  0  0  0  0  0
  -22.0690  -12.9410   21.9520 N   0  0  0  0  0  0  0  0  0  0  0  0
  -22.3370  -14.6570   20.5560 O   0  0  0  0  0  0  0  0  0  0  0  0
  -22.4300  -12.1050   22.3890 H   0  0  0  0  0  0  0  0  0  0  0  0
  -21.1440  -13.2600   22.2080 H   0  0  0  0  0  0  0  0  0  0  0  0
  -25.4350  -15.2890   20.2900 N   0  0  0  0  0  0  0  0  0  0  0  0
  -24.7630  -15.9340   20.6920 H   0  0  0  0  0  0  0  0  0  0  0  0
  -26.3750  -15.6600   20.3370 H   0  0  0  0  0  0  0  0  0  0  0  0
  -28.1460  -25.1620   20.8640 C   0  0  0  0  0  2  0  0  0  0  0  0
  -28.3470  -26.5010   20.2430 O   0  0  0  0  0  0  0  0  0  0  0  0
  -24.6210  -31.8880   23.2310 C   0  0  0  0  0  0  0  0  0  0  0  0
  -27.2370  -27.3490   20.2010 C   0  0  0  0  0  0  0  0  0  0  0  0
  -23.4170  -30.4910   21.5890 C   0  0  0  0  0  3  0  0  0  0  0  0
  -24.8730  -28.9490   20.1630 C   0  0  0  0  0  0  0  0  0  0  0  0
  -25.9530  -30.8240   21.4070 C   0  0  0  0  0  2  0  0  0  0  0  0
  -26.0410  -29.4480   20.7570 C   0  0  0  0  0  0  0  0  0  0  0  0
  -27.2290  -28.6630   20.7600 C   0  0  0  0  0  3  0  0  0  0  0  0
  -26.0520  -26.8950   19.5820 C   0  0  0  0  0  3  0  0  0  0  0  0
  -24.8830  -27.6760   19.5680 C   0  0  0  0  0  3  0  0  0  0  0  0
  -23.6340  -29.8240   20.2070 C   0  0  0  0  0  2  0  0  0  0  0  0
  -24.6830  -31.0850   22.1310 N   0  0  0  0  0  0  0  0  0  0  0  0
  -23.5410  -32.1570   23.7680 O   0  0  0  0  0  0  0  0  0  0  0  0
  -22.7600  -29.4670   22.5430 C   0  0  0  0  0  0  0  0  0  0  0  0
  -21.4360  -29.2940   22.4250 N   0  0  0  0  0  0  0  0  0  0  0  0
  -23.4450  -28.8340   23.3510 O   0  0  0  0  0  0  0  0  0  0  0  0
  -20.9390  -29.8560   21.7480 H   0  0  0  0  0  0  0  0  0  0  0  0
  -18.0660  -28.0900   22.9310 C   0  0  0  0  0  0  0  0  0  0  0  0
  -20.6260  -28.3370   23.1860 C   0  0  0  0  0  3  0  0  0  0  0  0
  -20.7330  -26.9160   22.5730 C   0  0  0  0  0  2  0  0  0  0  0  0
  -19.6020  -26.5820   21.5950 C   0  0  0  0  0  2  0  0  0  0  0  0
  -18.2350  -26.7370   22.2640 C   0  0  0  0  0  2  0  0  0  0  0  0
  -19.1880  -28.8430   23.3630 C   0  0  0  0  0  0  0  0  0  0  0  0
  -18.9710  -30.0960   23.9800 C   0  0  0  0  0  3  0  0  0  0  0  0
  -17.6660  -30.6010   24.1470 C   0  0  0  0  0  3  0  0  0  0  0  0
  -16.5610  -29.8540   23.7080 C   0  0  0  0  0  3  0  0  0  0  0  0
  -16.7620  -28.5960   23.1140 C   0  0  0  0  0  3  0  0  0  0  0  0
  -25.9080  -32.5190   23.8520 C   0  0  0  0  0  3  0  0  0  0  0  0
  -25.5920  -33.9110   24.2040 N   0  0  0  0  0  0  0  0  0  0  0  0
  -25.9000  -34.9740   23.4490 C   0  0  0  0  0  0  0  0  0  0  0  0
  -26.5510  -34.8910   22.4050 O   0  0  0  0  0  0  0  0  0  0  0  0
  -25.0110  -34.0520   25.0170 H   0  0  0  0  0  0  0  0  0  0  0  0
  -24.1450  -36.7450   23.1440 C   0  0  0  0  0  1  0  0  0  0  0  0
  -25.4050  -36.3530   23.9290 C   0  0  0  0  0  3  0  0  0  0  0  0
  -27.5430  -37.2500   24.7260 C   0  0  0  0  0  1  0  0  0  0  0  0
  -26.4220  -37.4170   23.8040 N   0  0  0  0  0  0  0  0  0  0  0  0
  -26.0070  -38.3330   23.9600 H   0  0  0  0  0  0  0  0  0  0  0  0
  -26.4400  -31.7380   25.1160 C   0  0  1  0  0  0  0  0  0  0  0  0
  -25.3550  -31.4800   26.1870 C   0  0  0  0  0  1  0  0  0  0  0  0
  -27.0300  -30.3700   24.7010 C   0  0  0  0  0  1  0  0  0  0  0  0
  -27.5900  -32.5310   25.7800 C   0  0  0  0  0  1  0  0  0  0  0  0
  1 53  1  0
  1  7  1  0
  2  4  2  0
  2  1  1  0
  3  2  1  0
  5  3  1  0
  6  3  1  0
  8  7  2  0
  8  9  1  0
 10  9  1  0
 11 20  1  0
 12 17  1  0
 13 14  1  0
 13 12  1  0
 15 14  1  0
 15 28  1  0
 15 16  1  0
 17 11  1  0
 17 16  1  0
 18 11  2  0
 19 20  1  0
 19 10  1  0
 20 22  1  0
 21 19  2  0
 23 21  1  0
 24 21  1  0
 25 26  2  0
 26 45  1  0
 27 26  1  0
 27 30  1  0
 28 29  1  0
 28 25  1  0
 29 27  2  0
 30 31  1  0
 31 32  2  0
 33 36  1  0
 33 32  1  0
 34 33  2  0
 35 34  1  0
 35 30  2  0
 36 37  1  0
 37 38  1  0
 38 39  2  0
 40 39  1  0
 40 44  1  0
 41 40  2  0
 42 37  2  0
 42 41  1  0
 43 42  1  0
 45 46  1  0
 46 49  1  0
 46 48  1  0
 47 45  2  0
 50 52  1  0
 50 25  1  0
 50 51  1  0
 54 53  1  0
 55 66  2  0
 56 54  1  0
 56 61  1  0
 57 65  1  0
 57 67  1  0
 58 64  1  0
 58 60  1  0
 59 65  1  0
 60 61  2  0
 60 59  1  0
 62 56  2  0
 63 62  1  0
 63 58  2  0
 64 57  1  0
 65 55  1  0
 67 69  2  0
 68 67  1  0
 70 68  1  0
 71 80  2  0
 71 76  1  0
 72 68  1  0
 72 76  1  0
 73 72  1  0
 74 75  1  0
 74 73  1  0
 75 71  1  0
 76 77  2  0
 77 78  1  0
 79 78  2  0
 80 79  1  0
 81 55  1  0
 81 82  1  0
 81 91  1  0
 82 85  1  0
 83 87  1  0
 83 82  1  0
 84 83  2  0
 87 86  1  0
 89 87  1  0
 89 90  1  0
 89 88  1  0
 91 94  1  1
 91 92  1  0
 93 91  1  0
M  ISO  4  11 100  20 100  53 101  54 101
M  END
>  <TORSDO>  (73) 
F 22

>  <SCORE>  (73) 
-12.858

>  <name>  (73) 
73

>  <ligand_id>  (73) 
73

>  <original_smiles>  (73) 
[H]c1c([H])c([H])c2c(c1[H])C([H])([H])C([H])([H])C([H])([H])C2([H])N([H])C(=O)C1([H])N(C(=O)C([H])(N([H])C(=O)C([H])(N([H])C([H])([H])[H])C([H])([H])[H])C(C([H])([H])[H])(C([H])([H])[H])C([H])([H])[H])C([H])([H])c2c([H])c(OC([H])([H])C([H])(C(=O)N([H])[H])C([H])([H])C([H])([H])C([H])([H])C([H])([H])C(N([H])C(=O)N3C([H])([H])C([H])([H])C([H])([H])C([H])(n4nc(-c5c([H])c([H])c(Oc6c([H])c([H])c(F)c([H])c6F)c([H])c5[H])c(C(=O)N([H])[H])c4N([H])[H])C3([H])[H])=[N+]([H])[H])c([H])c([H])c2C1([H])[H]

>  <smiles>  (73) 
[H]c1c([H])c([H])c2c(c1[H])C([H])([H])C([H])([H])C([H])([H])C2([H])N([H])C(=O)C1([H])N(C(=O)C([H])(N([H])C(=O)C([H])(N([H])C([H])([H])[H])C([H])([H])[H])C(C([H])([H])[H])(C([H])([H])[H])C([H])([H])[H])C([H])([H])c2c([H])c(OC([H])([H])C([H])(C(=O)N([H])[H])C([H])([H])C([H])([H])C([H])([H])C([H])([H])C(N([H])C(=O)N3C([H])([H])C([H])([H])C([H])([H])C([H])(n4nc(-c5c([H])c([H])c(Oc6c([H])c([H])c(F)c([H])c6F)c([H])c5[H])c(C(=O)N([H])[H])c4N([H])[H])C3([H])[H])=[N+]([H])[H])c([H])c([H])c2C1([H])[H]

$$$$
74:0:0
     RDKit          3D

 99109  0  0  1  0  0  0  0  0999 V2000
  -32.6670  -21.5510   20.3100 C   0  0  0  0  0  2  0  0  0  0  0  0
  -31.4900  -21.2740   21.2840 C   0  0  0  0  0  2  0  0  0  0  0  0
  -31.5520  -20.0430   18.6460 C   0  0  0  0  0  2  0  0  0  0  0  0
  -31.0510  -22.4800   18.5870 C   0  0  0  0  0  2  0  0  0  0  0  0
  -32.1700  -21.4390   18.8450 C   0  0  0  0  0  3  0  0  0  0  0  0
  -30.2890  -19.8900   19.5440 C   0  0  0  0  0  3  0  0  0  0  0  0
  -30.1720  -21.1620   20.4790 C   0  0  0  0  0  3  0  0  0  0  0  0
  -30.0740  -22.4580   19.7150 N   0  0  2  0  0  4  0  0  0  0  0  0
  -30.4620  -23.1260   20.3650 H   0  0  0  0  0  0  0  0  0  0  0  0
  -30.2980  -17.3420   19.8940 C   0  0  0  0  0  0  0  0  0  0  0  0
  -30.3130  -18.6270   20.3240 N   0  0  0  0  0  0  0  0  0  0  0  0
  -30.2770  -17.0460   18.7000 O   0  0  0  0  0  0  0  0  0  0  0  0
  -30.2950  -18.7370   21.3290 H   0  0  0  0  0  0  0  0  0  0  0  0
  -30.9400  -14.1900   19.5840 C   0  0  0  0  0  0  0  0  0  0  0  0
  -30.2640  -12.2320   18.2150 C   0  0  0  0  0  2  0  0  0  0  0  0
  -29.1630  -12.6180   17.2090 C   0  0  0  0  0  2  0  0  0  0  0  0
  -27.7690  -12.5030   17.8560 C   0  0  0  0  0  2  0  0  0  0  0  0
  -27.6960  -13.2210   19.2280 C   0  0  0  0  0  3  0  0  0  0  0  0
  -28.8860  -12.8170   20.1240 C   0  0  0  0  0  2  0  0  0  0  0  0
  -30.1370  -13.1030   19.3960 N   0  0  0  0  0  0  0  0  0  0  0  0
  -31.8500  -14.4920   18.8080 O   0  0  0  0  0  0  0  0  0  0  0  0
  -30.9610  -15.3220   23.0810 C   0  0  0  0  0  2  0  0  0  0  0  0
  -30.7600  -16.6390   22.3510 C   0  0  0  0  0  2  0  0  0  0  0  0
  -31.3390  -14.3380   21.9760 C   0  0  0  0  0  2  0  0  0  0  0  0
  -30.1950  -16.2300   20.9800 C   0  0  0  0  0  3  0  0  0  0  0  0
  -30.7460  -14.8640   20.7410 N   0  0  0  0  0  0  0  0  0  0  0  0
  -25.4840  -13.8910   20.3620 C   0  0  0  0  0  0  0  0  0  0  0  0
  -24.4360  -13.1490   20.8360 C   0  0  0  0  0  0  0  0  0  0  0  0
  -24.7910  -11.7830   20.6200 C   0  0  0  0  0  0  0  0  0  0  0  0
  -26.4170  -12.9790   19.8930 N   0  0  0  0  0  0  0  0  0  0  0  0
  -26.0100  -11.7010   20.1020 N   0  0  0  0  0  0  0  0  0  0  0  0
  -24.0180  -10.5500   20.8240 C   0  0  0  0  0  0  0  0  0  0  0  0
  -24.4730   -9.5250   21.6830 C   0  0  0  0  0  3  0  0  0  0  0  0
  -23.7040   -8.3570   21.8760 C   0  0  0  0  0  3  0  0  0  0  0  0
  -22.4640   -8.2050   21.2100 C   0  0  0  0  0  0  0  0  0  0  0  0
  -22.0260   -9.2180   20.3400 C   0  0  0  0  0  3  0  0  0  0  0  0
  -22.7950  -10.3770   20.1450 C   0  0  0  0  0  3  0  0  0  0  0  0
  -21.6620   -7.0950   21.3160 O   0  0  0  0  0  0  0  0  0  0  0  0
  -21.6170   -6.3470   22.4650 C   0  0  0  0  0  0  0  0  0  0  0  0
  -21.2700   -6.9150   23.7110 C   0  0  0  0  0  3  0  0  0  0  0  0
  -21.1700   -6.0960   24.8530 C   0  0  0  0  0  3  0  0  0  0  0  0
  -21.4050   -4.7130   24.7520 C   0  0  0  0  0  0  0  0  0  0  0  0
  -21.7460   -4.1440   23.5120 C   0  0  0  0  0  3  0  0  0  0  0  0
  -21.8480   -4.9600   22.3720 C   0  0  0  0  0  0  0  0  0  0  0  0
  -22.1560   -4.4060   21.1750 F   0  0  0  0  0  0  0  0  0  0  0  0
  -21.3000   -3.9240   25.8480 F   0  0  0  0  0  0  0  0  0  0  0  0
  -23.1350  -13.6740   21.3710 C   0  0  0  0  0  0  0  0  0  0  0  0
  -22.5230  -12.9590   22.3070 N   0  0  0  0  0  0  0  0  0  0  0  0
  -22.6770  -14.7520   20.9910 O   0  0  0  0  0  0  0  0  0  0  0  0
  -22.9080  -12.0820   22.6300 H   0  0  0  0  0  0  0  0  0  0  0  0
  -21.6570  -13.2900   22.7060 H   0  0  0  0  0  0  0  0  0  0  0  0
  -25.7160  -15.2610   20.2690 N   0  0  0  0  0  0  0  0  0  0  0  0
  -25.0260  -15.9460   20.5560 H   0  0  0  0  0  0  0  0  0  0  0  0
  -26.5240  -15.6720   19.8180 H   0  0  0  0  0  0  0  0  0  0  0  0
  -28.6900  -22.9900   19.4800 C   0  0  0  0  0  2  0  0  0  0  0  0
  -27.1740  -23.7910   17.6020 C   0  0  0  0  0  1  0  0  0  0  0  0
  -28.4810  -24.0820   18.3640 C   0  0  0  0  0  3  0  0  0  0  0  0
  -28.7090  -25.6110   18.6870 C   0  0  0  0  0  2  0  0  0  0  0  0
  -28.2170  -26.2580   19.8780 O   0  0  0  0  0  0  0  0  0  0  0  0
  -24.6150  -31.5740   23.0220 C   0  0  0  0  0  0  0  0  0  0  0  0
  -27.0980  -27.0760   19.8320 C   0  0  0  0  0  0  0  0  0  0  0  0
  -23.3520  -30.2200   21.3840 C   0  0  0  0  0  3  0  0  0  0  0  0
  -24.7470  -28.6680   19.9140 C   0  0  0  0  0  0  0  0  0  0  0  0
  -25.8890  -30.5060   21.1620 C   0  0  0  0  0  2  0  0  0  0  0  0
  -25.9290  -29.1410   20.5000 C   0  0  0  0  0  0  0  0  0  0  0  0
  -27.1020  -28.3450   20.4700 C   0  0  0  0  0  3  0  0  0  0  0  0
  -25.8970  -26.6350   19.2460 C   0  0  0  0  0  3  0  0  0  0  0  0
  -24.7260  -27.4110   19.2900 C   0  0  0  0  0  3  0  0  0  0  0  0
  -23.5260  -29.5590   19.9920 C   0  0  0  0  0  2  0  0  0  0  0  0
  -24.6380  -30.7810   21.9130 N   0  0  0  0  0  0  0  0  0  0  0  0
  -23.5480  -31.8680   23.5790 O   0  0  0  0  0  0  0  0  0  0  0  0
  -22.6900  -29.2030   22.3430 C   0  0  0  0  0  0  0  0  0  0  0  0
  -21.3580  -29.0600   22.2400 N   0  0  0  0  0  0  0  0  0  0  0  0
  -23.3700  -28.5470   23.1370 O   0  0  0  0  0  0  0  0  0  0  0  0
  -20.8700  -29.6390   21.5710 H   0  0  0  0  0  0  0  0  0  0  0  0
  -17.9620  -27.9570   22.7990 C   0  0  0  0  0  0  0  0  0  0  0  0
  -20.5310  -28.1340   23.0150 C   0  0  0  0  0  3  0  0  0  0  0  0
  -20.5770  -26.7100   22.4170 C   0  0  0  0  0  2  0  0  0  0  0  0
  -19.4440  -26.4360   21.4230 C   0  0  0  0  0  2  0  0  0  0  0  0
  -18.0810  -26.6130   22.1000 C   0  0  0  0  0  2  0  0  0  0  0  0
  -19.1120  -28.6790   23.2140 C   0  0  0  0  0  0  0  0  0  0  0  0
  -18.9440  -29.9390   23.8280 C   0  0  0  0  0  3  0  0  0  0  0  0
  -17.6590  -30.4770   24.0310 C   0  0  0  0  0  3  0  0  0  0  0  0
  -16.5230  -29.7530   23.6300 C   0  0  0  0  0  3  0  0  0  0  0  0
  -16.6750  -28.4940   23.0200 C   0  0  0  0  0  3  0  0  0  0  0  0
  -25.9250  -32.1680   23.6270 C   0  0  0  0  0  3  0  0  0  0  0  0
  -26.5010  -31.3140   24.8220 C   0  0  1  0  0  0  0  0  0  0  0  0
  -25.4590  -30.9920   25.9180 C   0  0  0  0  0  1  0  0  0  0  0  0
  -27.0750  -29.9710   24.3110 C   0  0  0  0  0  1  0  0  0  0  0  0
  -27.6780  -32.0690   25.4850 C   0  0  0  0  0  1  0  0  0  0  0  0
  -25.6260  -33.5390   24.0650 N   0  0  0  0  0  0  0  0  0  0  0  0
  -25.9150  -34.6420   23.3620 C   0  0  0  0  0  0  0  0  0  0  0  0
  -26.5330  -34.6130   22.2950 O   0  0  0  0  0  0  0  0  0  0  0  0
  -25.0700  -33.6340   24.9020 H   0  0  0  0  0  0  0  0  0  0  0  0
  -24.1650  -36.4420   23.2100 C   0  0  0  0  0  1  0  0  0  0  0  0
  -25.4430  -35.9930   23.9350 C   0  0  0  0  0  3  0  0  0  0  0  0
  -27.6080  -36.8340   24.7300 C   0  0  0  0  0  1  0  0  0  0  0  0
  -26.4650  -37.0580   23.8480 N   0  0  0  0  0  0  0  0  0  0  0  0
  -26.0630  -37.9640   24.0750 H   0  0  0  0  0  0  0  0  0  0  0  0
  1  2  1  0
  3  5  1  0
  3  6  1  0
  4  8  1  0
  5  4  1  0
  5  1  1  0
  6 11  1  0
  6  7  1  0
  7  2  1  0
  8  9  1  1
  8  7  1  0
 10 11  1  0
 11 13  1  0
 12 10  2  0
 14 26  1  0
 15 20  1  0
 16 17  1  0
 16 15  1  0
 18 17  1  0
 18 30  1  0
 18 19  1  0
 20 14  1  0
 20 19  1  0
 21 14  2  0
 23 22  1  0
 24 22  1  0
 25 10  1  0
 25 23  1  0
 26 25  1  0
 26 24  1  0
 27 28  2  0
 28 47  1  0
 29 32  1  0
 29 28  1  0
 30 31  1  0
 30 27  1  0
 31 29  2  0
 32 33  1  0
 33 34  2  0
 35 38  1  0
 35 34  1  0
 36 35  2  0
 37 36  1  0
 37 32  2  0
 38 39  1  0
 39 40  1  0
 40 41  2  0
 42 41  1  0
 42 46  1  0
 43 42  2  0
 44 39  2  0
 44 43  1  0
 45 44  1  0
 47 48  1  0
 48 50  1  0
 48 51  1  0
 49 47  2  0
 52 27  1  0
 52 53  1  0
 54 52  1  0
 55  8  1  0
 57 56  1  0
 57 58  1  0
 57 55  1  0
 58 59  1  0
 60 71  2  0
 61 59  1  0
 61 66  1  0
 62 70  1  0
 62 72  1  0
 63 69  1  0
 63 65  1  0
 64 70  1  0
 65 64  1  0
 66 65  2  0
 67 68  1  0
 67 61  2  0
 68 63  2  0
 69 62  1  0
 70 60  1  0
 72 74  2  0
 73 72  1  0
 75 73  1  0
 76 85  2  0
 76 81  1  0
 77 73  1  0
 77 81  1  0
 78 77  1  0
 79 80  1  0
 79 78  1  0
 80 76  1  0
 81 82  2  0
 82 83  1  0
 84 83  2  0
 85 84  1  0
 86 60  1  0
 86 91  1  0
 86 87  1  0
 87 90  1  1
 87 88  1  0
 89 87  1  0
 91 94  1  0
 92 96  1  0
 92 91  1  0
 93 92  2  0
 96 95  1  0
 98 96  1  0
 98 99  1  0
 98 97  1  0
M  ISO  4  14 100  26 100  58 101  59 101
M  END
>  <TORSDO>  (74) 
F 20

>  <SCORE>  (74) 
-10.118

>  <name>  (74) 
74

>  <ligand_id>  (74) 
74

>  <original_smiles>  (74) 
[H]c1c([H])c([H])c2c(c1[H])C([H])([H])C([H])([H])C([H])([H])C2([H])N([H])C(=O)C1([H])N(C(=O)C([H])(N([H])C(=O)C([H])(N([H])C([H])([H])[H])C([H])([H])[H])C(C([H])([H])[H])(C([H])([H])[H])C([H])([H])[H])C([H])([H])c2c([H])c(OC([H])([H])C([H])(C([H])([H])[H])C([H])([H])[N+]3([H])C([H])([H])C4([H])C([H])([H])C([H])([H])C3([H])C([H])(N([H])C(=O)C3([H])N(C(=O)N5C([H])([H])C([H])([H])C([H])([H])C([H])(n6nc(-c7c([H])c([H])c(Oc8c([H])c([H])c(F)c([H])c8F)c([H])c7[H])c(C(=O)N([H])[H])c6N([H])[H])C5([H])[H])C([H])([H])C([H])([H])C3([H])[H])C4([H])[H])c([H])c([H])c2C1([H])[H]

>  <smiles>  (74) 
[H]c1c([H])c([H])c2c(c1[H])C([H])([H])C([H])([H])C([H])([H])C2([H])N([H])C(=O)C1([H])N(C(=O)C([H])(N([H])C(=O)C([H])(N([H])C([H])([H])[H])C([H])([H])[H])C(C([H])([H])[H])(C([H])([H])[H])C([H])([H])[H])C([H])([H])c2c([H])c(OC([H])([H])C([H])(C([H])([H])[H])C([H])([H])[N+]3([H])C([H])([H])C4([H])C([H])([H])C([H])([H])C3([H])C([H])(N([H])C(=O)C3([H])N(C(=O)N5C([H])([H])C([H])([H])C([H])([H])C([H])(n6nc(-c7c([H])c([H])c(Oc8c([H])c([H])c(F)c([H])c8F)c([H])c7[H])c(C(=O)N([H])[H])c6N([H])[H])C5([H])[H])C([H])([H])C([H])([H])C3([H])[H])C4([H])[H])c([H])c([H])c2C1([H])[H]

$$$$
75:0:0
     RDKit          3D

 97106  0  0  1  0  0  0  0  0999 V2000
  -32.0840  -21.2830   23.9960 C   0  0  0  0  0  2  0  0  0  0  0  0
  -30.9450  -22.2560   24.3420 C   0  0  0  0  0  2  0  0  0  0  0  0
  -32.1030  -20.9170   22.4940 C   0  0  0  0  0  2  0  0  0  0  0  0
  -29.5860  -21.7890   23.7830 C   0  0  0  0  0  2  0  0  0  0  0  0
  -30.7270  -20.4260   21.9700 C   0  0  0  0  0  3  0  0  0  0  0  0
  -29.6400  -21.5050   22.2630 C   0  0  0  0  0  3  0  0  0  0  0  0
  -30.3350  -19.0460   22.5990 C   0  0  0  0  0  2  0  0  0  0  0  0
  -31.2400  -14.1930   19.8880 C   0  0  0  0  0  0  0  0  0  0  0  0
  -30.7760  -12.1150   18.6320 C   0  0  0  0  0  2  0  0  0  0  0  0
  -29.7540  -12.4090   17.5100 C   0  0  0  0  0  2  0  0  0  0  0  0
  -28.2960  -12.3520   18.0250 C   0  0  0  0  0  2  0  0  0  0  0  0
  -28.1030  -13.1340   19.3510 C   0  0  0  0  0  3  0  0  0  0  0  0
  -29.2030  -12.7110   20.3440 C   0  0  0  0  0  2  0  0  0  0  0  0
  -30.5050  -13.0480   19.7400 N   0  0  0  0  0  0  0  0  0  0  0  0
  -32.3260  -14.3410   19.3100 O   0  0  0  0  0  0  0  0  0  0  0  0
  -29.9020  -15.3530   21.6730 C   0  0  0  0  0  2  0  0  0  0  0  0
  -30.6490  -16.5660   19.6360 C   0  0  0  0  0  2  0  0  0  0  0  0
  -30.1970  -16.6180   22.4930 C   0  0  0  0  0  2  0  0  0  0  0  0
  -31.0570  -17.7600   20.5220 C   0  0  0  0  0  2  0  0  0  0  0  0
  -30.5760  -15.2840   20.3620 N   0  0  0  0  0  0  0  0  0  0  0  0
  -30.1580  -17.8690   21.6970 N   0  0  2  0  0  4  0  0  0  0  0  0
  -29.2220  -17.9500   21.3290 H   0  0  0  0  0  0  0  0  0  0  0  0
  -25.8070  -13.8810   20.2430 C   0  0  0  0  0  0  0  0  0  0  0  0
  -24.7180  -13.1670   20.6690 C   0  0  0  0  0  0  0  0  0  0  0  0
  -25.0820  -11.7910   20.5590 C   0  0  0  0  0  0  0  0  0  0  0  0
  -26.7690  -12.9410   19.9090 N   0  0  0  0  0  0  0  0  0  0  0  0
  -26.3400  -11.6770   20.1520 N   0  0  0  0  0  0  0  0  0  0  0  0
  -24.2910  -10.5730   20.7570 C   0  0  0  0  0  0  0  0  0  0  0  0
  -24.6830   -9.5810   21.6850 C   0  0  0  0  0  3  0  0  0  0  0  0
  -23.8960   -8.4250   21.8700 C   0  0  0  0  0  3  0  0  0  0  0  0
  -22.7020   -8.2520   21.1310 C   0  0  0  0  0  0  0  0  0  0  0  0
  -22.3290   -9.2300   20.1920 C   0  0  0  0  0  3  0  0  0  0  0  0
  -23.1150  -10.3790   20.0030 C   0  0  0  0  0  3  0  0  0  0  0  0
  -21.8870   -7.1500   21.2280 O   0  0  0  0  0  0  0  0  0  0  0  0
  -21.7360   -6.4700   22.4100 C   0  0  0  0  0  0  0  0  0  0  0  0
  -21.2970   -7.1110   23.5890 C   0  0  0  0  0  3  0  0  0  0  0  0
  -21.0880   -6.3590   24.7620 C   0  0  0  0  0  3  0  0  0  0  0  0
  -21.3070   -4.9690   24.7570 C   0  0  0  0  0  0  0  0  0  0  0  0
  -21.7380   -4.3280   23.5830 C   0  0  0  0  0  3  0  0  0  0  0  0
  -21.9490   -5.0760   22.4120 C   0  0  0  0  0  0  0  0  0  0  0  0
  -22.3430   -4.4510   21.2770 F   0  0  0  0  0  0  0  0  0  0  0  0
  -21.1000   -4.2450   25.8820 F   0  0  0  0  0  0  0  0  0  0  0  0
  -23.3780  -13.7240   21.0590 C   0  0  0  0  0  0  0  0  0  0  0  0
  -22.6780  -13.0590   21.9720 N   0  0  0  0  0  0  0  0  0  0  0  0
  -22.9630  -14.7810   20.5870 O   0  0  0  0  0  0  0  0  0  0  0  0
  -23.0250  -12.2020   22.3790 H   0  0  0  0  0  0  0  0  0  0  0  0
  -21.7810  -13.4140   22.2730 H   0  0  0  0  0  0  0  0  0  0  0  0
  -26.0520  -15.2440   20.0940 N   0  0  0  0  0  0  0  0  0  0  0  0
  -25.3310  -15.9390   20.2490 H   0  0  0  0  0  0  0  0  0  0  0  0
  -26.8730  -15.6200   19.6380 H   0  0  0  0  0  0  0  0  0  0  0  0
  -29.7560  -22.8420   21.4700 C   0  0  0  0  0  2  0  0  0  0  0  0
  -29.5510  -22.7230   20.0080 N   0  0  0  0  0  4  0  0  0  0  0  0
  -28.9240  -21.9550   19.8260 H   0  0  0  0  0  0  0  0  0  0  0  0
  -30.4330  -22.4870   19.5790 H   0  0  0  0  0  0  0  0  0  0  0  0
  -28.9890  -23.9180   19.3140 C   0  0  0  0  0  2  0  0  0  0  0  0
  -29.5210  -25.2860   19.8030 C   0  0  0  0  0  2  0  0  0  0  0  0
  -29.1210  -26.3720   18.9660 O   0  0  0  0  0  0  0  0  0  0  0  0
  -24.9580  -30.6840   22.8370 C   0  0  0  0  0  0  0  0  0  0  0  0
  -27.8810  -26.9280   19.1720 C   0  0  0  0  0  0  0  0  0  0  0  0
  -23.8340  -29.4550   21.0050 C   0  0  0  0  0  3  0  0  0  0  0  0
  -25.3800  -28.2250   19.3890 C   0  0  0  0  0  0  0  0  0  0  0  0
  -26.3250  -30.0080   20.8700 C   0  0  0  0  0  2  0  0  0  0  0  0
  -26.4990  -28.7420   20.0550 C   0  0  0  0  0  0  0  0  0  0  0  0
  -27.7520  -28.0990   19.9500 C   0  0  0  0  0  3  0  0  0  0  0  0
  -26.7490  -26.4180   18.5020 C   0  0  0  0  0  3  0  0  0  0  0  0
  -25.4970  -27.0580   18.6130 C   0  0  0  0  0  3  0  0  0  0  0  0
  -24.0810  -28.9840   19.5450 C   0  0  0  0  0  2  0  0  0  0  0  0
  -25.0570  -30.0570   21.6310 N   0  0  0  0  0  0  0  0  0  0  0  0
  -23.8670  -30.8040   23.4090 O   0  0  0  0  0  0  0  0  0  0  0  0
  -23.2550  -28.2720   21.8100 C   0  0  0  0  0  0  0  0  0  0  0  0
  -21.9420  -28.0300   21.6600 N   0  0  0  0  0  0  0  0  0  0  0  0
  -23.9840  -27.5720   22.5200 O   0  0  0  0  0  0  0  0  0  0  0  0
  -21.4090  -28.6540   21.0690 H   0  0  0  0  0  0  0  0  0  0  0  0
  -18.6560  -26.5620   21.9590 C   0  0  0  0  0  0  0  0  0  0  0  0
  -21.1930  -26.9430   22.2870 C   0  0  0  0  0  3  0  0  0  0  0  0
  -21.3870  -25.6140   21.5180 C   0  0  0  0  0  2  0  0  0  0  0  0
  -20.3090  -25.3670   20.4590 C   0  0  0  0  0  2  0  0  0  0  0  0
  -18.9210  -25.3350   21.1050 C   0  0  0  0  0  2  0  0  0  0  0  0
  -19.7230  -27.3270   22.5010 C   0  0  0  0  0  0  0  0  0  0  0  0
  -19.4220  -28.4810   23.2570 C   0  0  0  0  0  3  0  0  0  0  0  0
  -18.0880  -28.8700   23.4790 C   0  0  0  0  0  3  0  0  0  0  0  0
  -17.0360  -28.1000   22.9520 C   0  0  0  0  0  3  0  0  0  0  0  0
  -17.3210  -26.9480   22.1980 C   0  0  0  0  0  3  0  0  0  0  0  0
  -26.2050  -31.3000   23.5470 C   0  0  0  0  0  3  0  0  0  0  0  0
  -25.8100  -32.6120   24.0750 N   0  0  0  0  0  0  0  0  0  0  0  0
  -26.1210  -33.7850   23.5050 C   0  0  0  0  0  0  0  0  0  0  0  0
  -26.8410  -33.8750   22.5080 O   0  0  0  0  0  0  0  0  0  0  0  0
  -25.1760  -32.6140   24.8620 H   0  0  0  0  0  0  0  0  0  0  0  0
  -24.3350  -35.5440   23.3300 C   0  0  0  0  0  1  0  0  0  0  0  0
  -25.5440  -35.0600   24.1470 C   0  0  0  0  0  3  0  0  0  0  0  0
  -27.5810  -35.8750   25.2500 C   0  0  0  0  0  1  0  0  0  0  0  0
  -26.5310  -36.1550   24.2730 N   0  0  0  0  0  0  0  0  0  0  0  0
  -26.0740  -37.0230   24.5380 H   0  0  0  0  0  0  0  0  0  0  0  0
  -26.7840  -30.3850   24.6950 C   0  0  1  0  0  0  0  0  0  0  0  0
  -25.7200  -29.9340   25.7230 C   0  0  0  0  0  1  0  0  0  0  0  0
  -27.4400  -29.1160   24.1030 C   0  0  0  0  0  1  0  0  0  0  0  0
  -27.8950  -31.1410   25.4610 C   0  0  0  0  0  1  0  0  0  0  0  0
  1  2  1  0
  3  1  1  0
  4  2  1  0
  5  6  1  0
  5  3  1  0
  5  7  1  0
  6 51  1  0
  6  4  1  0
  8 20  1  0
  9 14  1  0
 10 11  1  0
 10  9  1  0
 12 11  1  0
 12 26  1  0
 12 13  1  0
 14  8  1  0
 14 13  1  0
 15  8  2  0
 16 18  1  0
 17 20  1  0
 17 19  1  0
 19 21  1  0
 20 16  1  0
 21 18  1  0
 21  7  1  0
 21 22  1  6
 23 24  2  0
 24 43  1  0
 25 24  1  0
 25 28  1  0
 26 27  1  0
 26 23  1  0
 27 25  2  0
 28 29  1  0
 29 30  2  0
 31 34  1  0
 31 30  1  0
 32 31  2  0
 33 32  1  0
 33 28  2  0
 34 35  1  0
 35 40  2  0
 35 36  1  0
 36 37  2  0
 38 37  1  0
 38 42  1  0
 39 38  2  0
 40 39  1  0
 41 40  1  0
 43 44  1  0
 44 47  1  0
 44 46  1  0
 45 43  2  0
 48 23  1  0
 48 49  1  0
 50 48  1  0
 52 51  1  0
 53 52  1  0
 54 52  1  0
 55 56  1  0
 55 52  1  0
 57 59  1  0
 57 56  1  0
 58 69  2  0
 59 64  1  0
 60 68  1  0
 60 70  1  0
 61 67  1  0
 61 63  1  0
 62 68  1  0
 63 62  1  0
 64 63  2  0
 65 66  1  0
 65 59  2  0
 66 61  2  0
 67 60  1  0
 68 58  1  0
 70 72  2  0
 71 70  1  0
 73 71  1  0
 74 83  2  0
 74 79  1  0
 75 71  1  0
 75 79  1  0
 76 75  1  0
 77 78  1  0
 77 76  1  0
 78 74  1  0
 79 80  2  0
 80 81  1  0
 82 81  2  0
 83 82  1  0
 84 58  1  0
 84 85  1  0
 84 94  1  0
 85 88  1  0
 86 85  1  0
 86 90  1  0
 87 86  2  0
 90 89  1  0
 90 92  1  0
 92 93  1  0
 92 91  1  0
 94 97  1  1
 94 95  1  0
 96 94  1  0
M  ISO  4   8 100  20 100  56 101  57 101
M  END
>  <TORSDO>  (75) 
F 21

>  <SCORE>  (75) 
-9.865

>  <name>  (75) 
75

>  <ligand_id>  (75) 
75

>  <original_smiles>  (75) 
[H]c1c([H])c([H])c2c(c1[H])C([H])([H])C([H])([H])C([H])([H])C2([H])N([H])C(=O)C1([H])N(C(=O)C([H])(N([H])C(=O)C([H])(N([H])C([H])([H])[H])C([H])([H])[H])C(C([H])([H])[H])(C([H])([H])[H])C([H])([H])[H])C([H])([H])c2c([H])c(OC([H])([H])C([H])([H])[N+]([H])([H])C([H])([H])C3([H])C([H])([H])C([H])([H])C([H])([H])C([H])([H])C3([H])C([H])([H])[N+]3([H])C([H])([H])C([H])([H])N(C(=O)N4C([H])([H])C([H])([H])C([H])([H])C([H])(n5nc(-c6c([H])c([H])c(Oc7c([H])c([H])c(F)c([H])c7F)c([H])c6[H])c(C(=O)N([H])[H])c5N([H])[H])C4([H])[H])C([H])([H])C3([H])[H])c([H])c([H])c2C1([H])[H]

>  <smiles>  (75) 
[H]c1c([H])c([H])c2c(c1[H])C([H])([H])C([H])([H])C([H])([H])C2([H])N([H])C(=O)C1([H])N(C(=O)C([H])(N([H])C(=O)C([H])(N([H])C([H])([H])[H])C([H])([H])[H])C(C([H])([H])[H])(C([H])([H])[H])C([H])([H])[H])C([H])([H])c2c([H])c(OC([H])([H])C([H])([H])[N+]([H])([H])C([H])([H])C3([H])C([H])([H])C([H])([H])C([H])([H])C([H])([H])C3([H])C([H])([H])[N+]3([H])C([H])([H])C([H])([H])N(C(=O)N4C([H])([H])C([H])([H])C([H])([H])C([H])(n5nc(-c6c([H])c([H])c(Oc7c([H])c([H])c(F)c([H])c7F)c([H])c6[H])c(C(=O)N([H])[H])c5N([H])[H])C4([H])[H])C([H])([H])C3([H])[H])c([H])c([H])c2C1([H])[H]

$$$$
76:0:0
     RDKit          3D

108115  0  0  1  0  0  0  0  0999 V2000
  -28.9110  -22.5080   19.0010 C   0  0  0  0  0  0  0  0  0  0  0  0
  -29.7340  -22.7910   17.9770 N   0  0  0  0  0  4  0  0  0  0  0  0
  -28.8640  -21.1600   19.3800 N   0  0  0  0  0  0  0  0  0  0  0  0
  -29.7450  -23.6990   17.5360 H   0  0  0  0  0  0  0  0  0  0  0  0
  -30.4160  -22.1260   17.6390 H   0  0  0  0  0  0  0  0  0  0  0  0
  -28.2460  -20.9460   20.1520 H   0  0  0  0  0  0  0  0  0  0  0  0
  -29.3660  -19.9310   18.5700 C   0  0  0  0  0  2  0  0  0  0  0  0
  -29.7950  -18.5420   19.2860 C   0  0  0  0  0  2  0  0  0  0  0  0
  -28.8490  -17.2280   19.4840 C   0  0  0  0  0  3  0  0  0  0  0  0
  -30.2750  -14.9760   19.9160 C   0  0  0  0  0  0  0  0  0  0  0  0
  -30.5150  -12.4800   19.9570 C   0  0  0  0  0  2  0  0  0  0  0  0
  -29.7190  -11.8710   18.7830 C   0  0  0  0  0  2  0  0  0  0  0  0
  -28.2400  -11.6560   19.1740 C   0  0  0  0  0  2  0  0  0  0  0  0
  -27.6200  -12.8890   19.8840 C   0  0  0  0  0  3  0  0  0  0  0  0
  -28.5540  -13.4490   20.9770 C   0  0  0  0  0  2  0  0  0  0  0  0
  -29.8360  -13.7370   20.3170 N   0  0  0  0  0  0  0  0  0  0  0  0
  -31.4820  -15.2200   19.8250 O   0  0  0  0  0  0  0  0  0  0  0  0
  -29.3330  -15.7870   19.2890 N   0  0  0  0  0  0  0  0  0  0  0  0
  -28.5820  -15.2040   18.9500 H   0  0  0  0  0  0  0  0  0  0  0  0
  -25.2440  -13.5070   20.6060 C   0  0  0  0  0  0  0  0  0  0  0  0
  -24.1750  -12.7590   21.0040 C   0  0  0  0  0  0  0  0  0  0  0  0
  -24.6220  -11.4000   20.9930 C   0  0  0  0  0  0  0  0  0  0  0  0
  -26.2780  -12.6160   20.3770 N   0  0  0  0  0  0  0  0  0  0  0  0
  -25.9100  -11.3430   20.6650 N   0  0  0  0  0  0  0  0  0  0  0  0
  -23.8770  -10.1520   21.2040 C   0  0  0  0  0  0  0  0  0  0  0  0
  -24.3610   -9.1370   22.0590 C   0  0  0  0  0  3  0  0  0  0  0  0
  -23.6200   -7.9510   22.2510 C   0  0  0  0  0  3  0  0  0  0  0  0
  -22.3810   -7.7750   21.5900 C   0  0  0  0  0  0  0  0  0  0  0  0
  -21.9150   -8.7760   20.7220 C   0  0  0  0  0  3  0  0  0  0  0  0
  -22.6560   -9.9530   20.5250 C   0  0  0  0  0  3  0  0  0  0  0  0
  -21.6080   -6.6470   21.6960 O   0  0  0  0  0  0  0  0  0  0  0  0
  -21.6360   -5.8590   22.8190 C   0  0  0  0  0  0  0  0  0  0  0  0
  -21.3110   -6.3670   24.0960 C   0  0  0  0  0  3  0  0  0  0  0  0
  -21.3000   -5.5080   25.2130 C   0  0  0  0  0  3  0  0  0  0  0  0
  -21.6000   -4.1420   25.0530 C   0  0  0  0  0  0  0  0  0  0  0  0
  -21.9190   -3.6330   23.7840 C   0  0  0  0  0  3  0  0  0  0  0  0
  -21.9390   -4.4910   22.6680 C   0  0  0  0  0  0  0  0  0  0  0  0
  -22.2290   -3.9940   21.4420 F   0  0  0  0  0  0  0  0  0  0  0  0
  -21.5740   -3.3140   26.1240 F   0  0  0  0  0  0  0  0  0  0  0  0
  -22.7880  -13.2650   21.2820 C   0  0  0  0  0  0  0  0  0  0  0  0
  -22.0530  -12.5920   22.1600 N   0  0  0  0  0  0  0  0  0  0  0  0
  -22.3720  -14.2970   20.7520 O   0  0  0  0  0  0  0  0  0  0  0  0
  -22.3920  -11.7480   22.5970 H   0  0  0  0  0  0  0  0  0  0  0  0
  -21.1220  -12.9150   22.3890 H   0  0  0  0  0  0  0  0  0  0  0  0
  -25.4270  -14.8720   20.4210 N   0  0  0  0  0  0  0  0  0  0  0  0
  -24.5510  -15.3910   20.3860 H   0  0  0  0  0  0  0  0  0  0  0  0
  -25.9570  -15.0690   19.5820 H   0  0  0  0  0  0  0  0  0  0  0  0
  -27.5340  -17.3450   18.6490 C   0  0  0  0  0  2  0  0  0  0  0  0
  -26.6950  -18.6600   18.7070 C   0  0  0  0  0  3  0  0  0  0  0  0
  -25.1870  -18.3190   18.8740 C   0  0  0  0  0  2  0  0  0  0  0  0
  -24.8460  -17.7040   20.1700 N   0  0  0  0  0  4  0  0  0  0  0  0
  -25.2630  -16.7890   20.2230 H   0  0  0  0  0  0  0  0  0  0  0  0
  -23.8490  -17.5870   20.2370 H   0  0  0  0  0  0  0  0  0  0  0  0
  -25.1530  -18.2770   20.9370 H   0  0  0  0  0  0  0  0  0  0  0  0
  -26.9120  -19.5490   17.4440 C   0  0  0  0  0  2  0  0  0  0  0  0
  -26.2820  -20.8910   17.4900 N   0  0  0  0  0  4  0  0  0  0  0  0
  -25.2840  -20.8450   17.3890 H   0  0  0  0  0  0  0  0  0  0  0  0
  -26.6170  -21.4460   16.7180 H   0  0  0  0  0  0  0  0  0  0  0  0
  -26.5030  -21.3880   18.3350 H   0  0  0  0  0  0  0  0  0  0  0  0
  -28.0970  -23.7610   19.5820 C   0  0  0  0  0  3  0  0  0  0  0  0
  -27.0360  -23.3780   20.6450 C   0  0  0  0  0  2  0  0  0  0  0  0
  -25.5980  -23.5210   20.1190 C   0  0  0  0  0  0  0  0  0  0  0  0
  -24.6700  -24.0570   20.9090 N   0  0  0  0  0  0  0  0  0  0  0  0
  -25.2980  -23.1450   18.9920 O   0  0  0  0  0  0  0  0  0  0  0  0
  -24.8940  -24.3820   21.8410 H   0  0  0  0  0  0  0  0  0  0  0  0
  -23.7220  -24.1740   20.5670 H   0  0  0  0  0  0  0  0  0  0  0  0
  -28.9860  -25.0800   19.9280 C   0  0  0  0  0  2  0  0  0  0  0  0
  -28.5870  -26.4190   20.5000 O   0  0  0  0  0  0  0  0  0  0  0  0
  -24.5710  -31.7050   23.1920 C   0  0  0  0  0  0  0  0  0  0  0  0
  -27.4540  -27.2210   20.2570 C   0  0  0  0  0  0  0  0  0  0  0  0
  -23.4920  -30.2930   21.4750 C   0  0  0  0  0  3  0  0  0  0  0  0
  -25.0560  -28.7930   20.0810 C   0  0  0  0  0  0  0  0  0  0  0  0
  -26.0190  -30.6840   21.4140 C   0  0  0  0  0  2  0  0  0  0  0  0
  -26.1680  -29.3110   20.7550 C   0  0  0  0  0  0  0  0  0  0  0  0
  -27.3630  -28.5340   20.8290 C   0  0  0  0  0  3  0  0  0  0  0  0
  -26.3300  -26.7580   19.5480 C   0  0  0  0  0  3  0  0  0  0  0  0
  -25.1460  -27.5320   19.4530 C   0  0  0  0  0  3  0  0  0  0  0  0
  -23.7900  -29.6340   20.0960 C   0  0  0  0  0  2  0  0  0  0  0  0
  -24.7090  -30.9160   22.0840 N   0  0  0  0  0  0  0  0  0  0  0  0
  -23.4570  -31.9420   23.6840 O   0  0  0  0  0  0  0  0  0  0  0  0
  -22.8130  -29.2520   22.3980 C   0  0  0  0  0  0  0  0  0  0  0  0
  -21.4980  -29.0430   22.2170 N   0  0  0  0  0  0  0  0  0  0  0  0
  -23.4710  -28.6320   23.2370 O   0  0  0  0  0  0  0  0  0  0  0  0
  -21.0230  -29.6090   21.5290 H   0  0  0  0  0  0  0  0  0  0  0  0
  -18.1200  -27.8040   22.6200 C   0  0  0  0  0  0  0  0  0  0  0  0
  -20.6730  -28.0710   22.9370 C   0  0  0  0  0  3  0  0  0  0  0  0
  -20.7950  -26.6620   22.3120 C   0  0  0  0  0  2  0  0  0  0  0  0
  -19.7080  -26.3650   21.2750 C   0  0  0  0  0  2  0  0  0  0  0  0
  -18.3160  -26.4790   21.9010 C   0  0  0  0  0  2  0  0  0  0  0  0
  -19.2270  -28.5550   23.0950 C   0  0  0  0  0  0  0  0  0  0  0  0
  -18.9910  -29.7940   23.7290 C   0  0  0  0  0  3  0  0  0  0  0  0
  -17.6800  -30.2780   23.8990 C   0  0  0  0  0  3  0  0  0  0  0  0
  -16.5870  -29.5220   23.4360 C   0  0  0  0  0  3  0  0  0  0  0  0
  -16.8070  -28.2890   22.8030 C   0  0  0  0  0  3  0  0  0  0  0  0
  -25.8010  -32.3680   23.8820 C   0  0  0  0  0  3  0  0  0  0  0  0
  -26.2340  -31.6390   25.2120 C   0  0  1  0  0  0  0  0  0  0  0  0
  -25.0740  -31.4150   26.2120 C   0  0  0  0  0  1  0  0  0  0  0  0
  -26.8570  -30.2610   24.8940 C   0  0  0  0  0  1  0  0  0  0  0  0
  -27.3300  -32.4640   25.9290 C   0  0  0  0  0  1  0  0  0  0  0  0
  -25.4620  -33.7730   24.1590 N   0  0  0  0  0  0  0  0  0  0  0  0
  -25.8250  -34.8130   23.3970 C   0  0  0  0  0  0  0  0  0  0  0  0
  -26.5550  -34.6930   22.4100 O   0  0  0  0  0  0  0  0  0  0  0  0
  -24.8230  -33.9370   24.9220 H   0  0  0  0  0  0  0  0  0  0  0  0
  -24.1070  -36.5860   22.8980 C   0  0  0  0  0  1  0  0  0  0  0  0
  -25.2980  -36.2070   23.7940 C   0  0  0  0  0  3  0  0  0  0  0  0
  -27.3650  -37.1380   24.7410 C   0  0  0  0  0  1  0  0  0  0  0  0
  -26.3270  -37.2710   23.7220 N   0  0  0  0  0  0  0  0  0  0  0  0
  -25.9030  -38.1900   23.8230 H   0  0  0  0  0  0  0  0  0  0  0  0
  1  3  1  0
  1 60  1  0
  2  1  2  0
  3  6  1  0
  4  2  1  0
  5  2  1  0
  7  8  1  0
  7  3  1  0
  8  9  1  0
  9 48  1  0
 10 16  1  0
 11 16  1  0
 12 13  1  0
 12 11  1  0
 14 13  1  0
 14 23  1  0
 14 15  1  0
 16 15  1  0
 17 10  2  0
 18  9  1  0
 18 10  1  0
 19 18  1  0
 20 21  2  0
 21 40  1  0
 22 21  1  0
 22 25  1  0
 23 20  1  0
 23 24  1  0
 24 22  2  0
 25 26  1  0
 26 27  2  0
 28 31  1  0
 28 27  1  0
 29 28  2  0
 30 29  1  0
 30 25  2  0
 31 32  1  0
 32 33  1  0
 33 34  2  0
 35 34  1  0
 35 39  1  0
 36 35  2  0
 37 32  2  0
 37 36  1  0
 38 37  1  0
 40 41  1  0
 41 44  1  0
 41 43  1  0
 42 40  2  0
 45 20  1  0
 46 45  1  0
 47 45  1  0
 48 49  1  0
 49 50  1  0
 50 51  1  0
 51 52  1  0
 51 53  1  0
 51 54  1  0
 55 56  1  0
 55 49  1  0
 56 59  1  0
 57 56  1  0
 58 56  1  0
 60 67  1  0
 60 61  1  0
 62 61  1  0
 62 63  1  0
 63 65  1  0
 64 62  2  0
 66 63  1  0
 67 68  1  0
 69 80  2  0
 70 68  1  0
 70 75  1  0
 71 79  1  0
 71 81  1  0
 72 78  1  0
 72 74  1  0
 73 79  1  0
 74 75  2  0
 74 73  1  0
 76 70  2  0
 77 76  1  0
 77 72  2  0
 78 71  1  0
 79 69  1  0
 81 83  2  0
 82 81  1  0
 84 82  1  0
 85 94  2  0
 85 90  1  0
 86 82  1  0
 86 90  1  0
 87 86  1  0
 88 89  1  0
 88 87  1  0
 89 85  1  0
 90 91  2  0
 91 92  1  0
 93 92  2  0
 94 93  1  0
 95 69  1  0
 95100  1  0
 95 96  1  0
 96 99  1  1
 96 97  1  0
 98 96  1  0
100103  1  0
101105  1  0
101100  1  0
102101  2  0
105104  1  0
107105  1  0
107108  1  0
107106  1  0
M  ISO  4  10 100  18 100  67 101  68 101
M  END
>  <TORSDO>  (76) 
F 29

>  <SCORE>  (76) 
-10.133

>  <name>  (76) 
76

>  <ligand_id>  (76) 
76

>  <original_smiles>  (76) 
[H]c1c([H])c([H])c2c(c1[H])C([H])([H])C([H])([H])C([H])([H])C2([H])N([H])C(=O)C1([H])N(C(=O)C([H])(N([H])C(=O)C([H])(N([H])C([H])([H])[H])C([H])([H])[H])C(C([H])([H])[H])(C([H])([H])[H])C([H])([H])[H])C([H])([H])c2c([H])c(OC([H])([H])C([H])(C(N([H])[H])=[N+]([H])C([H])([H])C([H])([H])C([H])(N([H])C(=O)N3C([H])([H])C([H])([H])C([H])([H])C([H])(n4nc(-c5c([H])c([H])c(Oc6c([H])c([H])c(F)c([H])c6F)c([H])c5[H])c(C(=O)N([H])[H])c4N([H])[H])C3([H])[H])C([H])([H])C([H])(C([H])([H])[N+]([H])([H])[H])C([H])([H])[N+]([H])([H])[H])C([H])([H])C(=O)N([H])[H])c([H])c([H])c2C1([H])[H]

>  <smiles>  (76) 
[H]c1c([H])c([H])c2c(c1[H])C([H])([H])C([H])([H])C([H])([H])C2([H])N([H])C(=O)C1([H])N(C(=O)C([H])(N([H])C(=O)C([H])(N([H])C([H])([H])[H])C([H])([H])[H])C(C([H])([H])[H])(C([H])([H])[H])C([H])([H])[H])C([H])([H])c2c([H])c(OC([H])([H])C([H])(C(N([H])[H])=[N+]([H])C([H])([H])C([H])([H])C([H])(N([H])C(=O)N3C([H])([H])C([H])([H])C([H])([H])C([H])(n4nc(-c5c([H])c([H])c(Oc6c([H])c([H])c(F)c([H])c6F)c([H])c5[H])c(C(=O)N([H])[H])c4N([H])[H])C3([H])[H])C([H])([H])C([H])(C([H])([H])[N+]([H])([H])[H])C([H])([H])[N+]([H])([H])[H])C([H])([H])C(=O)N([H])[H])c([H])c([H])c2C1([H])[H]

$$$$
77:0:0
     RDKit          3D

102110  0  0  1  0  0  0  0  0999 V2000
  -30.4470  -18.2820   20.0250 C   0  0  1  0  0  0  0  0  0  0  0  0
  -31.1790  -15.3530   20.0720 C   0  0  0  0  0  0  0  0  0  0  0  0
  -31.1900  -12.7880   19.6210 C   0  0  0  0  0  2  0  0  0  0  0  0
  -30.3440  -12.3340   18.4040 C   0  0  0  0  0  2  0  0  0  0  0  0
  -28.8630  -12.1600   18.7920 C   0  0  0  0  0  2  0  0  0  0  0  0
  -28.3530  -13.3220   19.6820 C   0  0  0  0  0  3  0  0  0  0  0  0
  -29.3300  -13.6780   20.8180 C   0  0  0  0  0  2  0  0  0  0  0  0
  -30.5930  -14.0610   20.1630 N   0  0  0  0  0  0  0  0  0  0  0  0
  -32.4180  -15.3310   20.0690 O   0  0  0  0  0  0  0  0  0  0  0  0
  -30.4430  -16.6130   19.7570 N   0  0  0  0  0  0  0  0  0  0  0  0
  -29.5200  -16.3560   19.4450 H   0  0  0  0  0  0  0  0  0  0  0  0
  -26.0070  -14.0730   20.3290 C   0  0  0  0  0  0  0  0  0  0  0  0
  -24.8780  -13.3870   20.6790 C   0  0  0  0  0  0  0  0  0  0  0  0
  -25.2470  -12.0070   20.7100 C   0  0  0  0  0  0  0  0  0  0  0  0
  -26.9910  -13.1180   20.1530 N   0  0  0  0  0  0  0  0  0  0  0  0
  -26.5450  -11.8700   20.4550 N   0  0  0  0  0  0  0  0  0  0  0  0
  -24.4240  -10.8070   20.9100 C   0  0  0  0  0  0  0  0  0  0  0  0
  -24.7370   -9.8510   21.9010 C   0  0  0  0  0  3  0  0  0  0  0  0
  -23.9150   -8.7170   22.0860 C   0  0  0  0  0  3  0  0  0  0  0  0
  -22.7670   -8.5330   21.2790 C   0  0  0  0  0  0  0  0  0  0  0  0
  -22.4740   -9.4760   20.2780 C   0  0  0  0  0  3  0  0  0  0  0  0
  -23.2960  -10.6010   20.0920 C   0  0  0  0  0  3  0  0  0  0  0  0
  -21.9280   -7.4490   21.3680 O   0  0  0  0  0  0  0  0  0  0  0  0
  -21.7730   -6.7540   22.5410 C   0  0  0  0  0  0  0  0  0  0  0  0
  -21.3100   -7.3780   23.7200 C   0  0  0  0  0  3  0  0  0  0  0  0
  -21.0970   -6.6130   24.8840 C   0  0  0  0  0  3  0  0  0  0  0  0
  -21.3380   -5.2260   24.8700 C   0  0  0  0  0  0  0  0  0  0  0  0
  -21.7960   -4.6020   23.6960 C   0  0  0  0  0  3  0  0  0  0  0  0
  -22.0100   -5.3650   22.5340 C   0  0  0  0  0  0  0  0  0  0  0  0
  -22.4290   -4.7570   21.3990 F   0  0  0  0  0  0  0  0  0  0  0  0
  -21.1280   -4.4890   25.9860 F   0  0  0  0  0  0  0  0  0  0  0  0
  -23.5100  -13.9720   20.8650 C   0  0  0  0  0  0  0  0  0  0  0  0
  -22.7030  -13.3850   21.7410 N   0  0  0  0  0  0  0  0  0  0  0  0
  -23.1640  -14.9900   20.2650 O   0  0  0  0  0  0  0  0  0  0  0  0
  -22.9930  -12.5630   22.2490 H   0  0  0  0  0  0  0  0  0  0  0  0
  -21.7830  -13.7660   21.9080 H   0  0  0  0  0  0  0  0  0  0  0  0
  -26.2720  -15.4220   20.1150 N   0  0  0  0  0  0  0  0  0  0  0  0
  -25.5380  -16.1210   20.1540 H   0  0  0  0  0  0  0  0  0  0  0  0
  -27.1430  -15.7840   19.7520 H   0  0  0  0  0  0  0  0  0  0  0  0
  -29.3310  -19.5480   19.4590 C   0  0  0  0  0  0  0  0  0  0  0  0
  -29.2570  -21.0170   19.7340 N   0  0  0  0  0  0  0  0  0  0  0  0
  -28.5020  -19.1280   18.6550 O   0  0  0  0  0  0  0  0  0  0  0  0
  -29.9360  -21.2870   20.4280 H   0  0  0  0  0  0  0  0  0  0  0  0
  -28.5130  -22.3990   19.1180 C   0  0  0  0  0  2  0  0  0  0  0  0
  -27.9740  -23.9920   19.8140 C   0  0  0  0  0  2  0  0  0  0  0  0
  -28.1040  -25.6030   19.4150 O   0  0  0  0  0  0  0  0  0  0  0  0
  -24.6690  -31.4980   22.7550 C   0  0  0  0  0  0  0  0  0  0  0  0
  -27.0820  -26.6930   19.4960 C   0  0  0  0  0  0  0  0  0  0  0  0
  -23.4040  -30.1520   21.1290 C   0  0  0  0  0  3  0  0  0  0  0  0
  -24.7850  -28.5830   19.6050 C   0  0  0  0  0  0  0  0  0  0  0  0
  -25.9620  -30.3630   20.8780 C   0  0  0  0  0  2  0  0  0  0  0  0
  -26.0030  -28.9690   20.1820 C   0  0  0  0  0  0  0  0  0  0  0  0
  -27.1450  -28.0490   20.0960 C   0  0  0  0  0  3  0  0  0  0  0  0
  -25.8270  -26.4600   18.8870 C   0  0  0  0  0  3  0  0  0  0  0  0
  -24.7240  -27.3500   18.9370 C   0  0  0  0  0  3  0  0  0  0  0  0
  -23.5740  -29.5080   19.7260 C   0  0  0  0  0  2  0  0  0  0  0  0
  -24.7030  -30.6970   21.6410 N   0  0  0  0  0  0  0  0  0  0  0  0
  -23.6030  -31.7730   23.3310 O   0  0  0  0  0  0  0  0  0  0  0  0
  -22.7480  -29.1290   22.0930 C   0  0  0  0  0  0  0  0  0  0  0  0
  -21.4100  -28.9870   22.0370 N   0  0  0  0  0  0  0  0  0  0  0  0
  -23.4470  -28.4650   22.8610 O   0  0  0  0  0  0  0  0  0  0  0  0
  -20.8960  -29.5730   21.3940 H   0  0  0  0  0  0  0  0  0  0  0  0
  -18.0390  -27.8390   22.7310 C   0  0  0  0  0  0  0  0  0  0  0  0
  -20.6180  -28.0310   22.8190 C   0  0  0  0  0  3  0  0  0  0  0  0
  -20.6380  -26.6280   22.1660 C   0  0  0  0  0  2  0  0  0  0  0  0
  -19.4570  -26.3860   21.2200 C   0  0  0  0  0  2  0  0  0  0  0  0
  -18.1300  -26.5260   21.9720 C   0  0  0  0  0  2  0  0  0  0  0  0
  -19.2060  -28.5520   23.1150 C   0  0  0  0  0  0  0  0  0  0  0  0
  -19.0620  -29.7820   23.7940 C   0  0  0  0  0  3  0  0  0  0  0  0
  -17.7870  -30.2980   24.0880 C   0  0  0  0  0  3  0  0  0  0  0  0
  -16.6360  -29.5820   23.7170 C   0  0  0  0  0  3  0  0  0  0  0  0
  -16.7630  -28.3530   23.0450 C   0  0  0  0  0  3  0  0  0  0  0  0
  -25.9660  -32.1220   23.3520 C   0  0  0  0  0  3  0  0  0  0  0  0
  -26.6280  -31.2230   24.4680 C   0  0  1  0  0  0  0  0  0  0  0  0
  -25.6450  -30.7810   25.5780 C   0  0  0  0  0  1  0  0  0  0  0  0
  -27.2450  -29.9440   23.8580 C   0  0  0  0  0  1  0  0  0  0  0  0
  -27.7880  -31.9930   25.1420 C   0  0  0  0  0  1  0  0  0  0  0  0
  -25.6220  -33.4450   23.9050 N   0  0  0  0  0  0  0  0  0  0  0  0
  -25.8890  -34.6170   23.3150 C   0  0  0  0  0  0  0  0  0  0  0  0
  -26.5150  -34.7000   22.2550 O   0  0  0  0  0  0  0  0  0  0  0  0
  -25.0560  -33.4480   24.7400 H   0  0  0  0  0  0  0  0  0  0  0  0
  -24.1070  -36.3980   23.3190 C   0  0  0  0  0  1  0  0  0  0  0  0
  -25.3880  -35.9000   24.0090 C   0  0  0  0  0  3  0  0  0  0  0  0
  -27.5300  -36.7080   24.9000 C   0  0  0  0  0  1  0  0  0  0  0  0
  -26.3880  -36.9900   24.0340 N   0  0  0  0  0  0  0  0  0  0  0  0
  -25.9640  -37.8600   24.3420 H   0  0  0  0  0  0  0  0  0  0  0  0
  -30.3820  -18.2370   21.6050 C   0  0  0  0  0  2  0  0  0  0  0  0
  -30.6960  -20.3690   24.8940 C   0  0  0  0  0  2  0  0  0  0  0  0
  -31.1280  -21.7320   24.3290 C   0  0  0  0  0  2  0  0  0  0  0  0
  -30.9780  -19.2230   23.9050 C   0  0  0  0  0  2  0  0  0  0  0  0
  -30.5350  -21.9840   22.9290 C   0  0  0  0  0  2  0  0  0  0  0  0
  -30.3110  -19.4900   22.5320 C   0  0  0  0  0  3  0  0  0  0  0  0
  -30.8350  -20.8330   21.9400 C   0  0  0  0  0  3  0  0  0  0  0  0
  -32.2710  -20.7950   21.5930 N   0  0  0  0  0  4  0  0  0  0  0  0
  -32.8370  -20.6230   22.4050 H   0  0  0  0  0  0  0  0  0  0  0  0
  -32.5570  -21.6780   21.2040 H   0  0  0  0  0  0  0  0  0  0  0  0
  -32.4800  -20.0900   20.9100 H   0  0  0  0  0  0  0  0  0  0  0  0
  -31.8400  -18.7710   19.5360 C   0  0  0  0  0  2  0  0  0  0  0  0
  -32.1290  -18.3760   18.1440 N   0  0  0  0  0  4  0  0  0  0  0  0
  -32.1860  -17.3640   18.0940 H   0  0  0  0  0  0  0  0  0  0  0  0
  -33.0080  -18.7580   17.8430 H   0  0  0  0  0  0  0  0  0  0  0  0
  -31.4120  -18.6910   17.5170 H   0  0  0  0  0  0  0  0  0  0  0  0
  1 98  1  1
  1 87  1  0
  2  8  1  0
  3  8  1  0
  4  5  1  0
  4  3  1  0
  6  5  1  0
  6 15  1  0
  6  7  1  0
  8  7  1  0
  9  2  2  0
 10  1  1  0
 10  2  1  0
 11 10  1  0
 12 13  2  0
 13 14  1  0
 13 32  1  0
 14 17  1  0
 15 12  1  0
 15 16  1  0
 16 14  2  0
 17 18  1  0
 18 19  2  0
 20 23  1  0
 20 19  1  0
 21 20  2  0
 22 21  1  0
 22 17  2  0
 23 24  1  0
 24 25  1  0
 25 26  2  0
 27 26  1  0
 27 31  1  0
 28 27  2  0
 29 24  2  0
 29 28  1  0
 30 29  1  0
 32 33  1  0
 33 36  1  0
 33 35  1  0
 34 32  2  0
 37 38  1  0
 37 12  1  0
 39 37  1  0
 40 41  1  0
 40  1  1  0
 41 43  1  0
 42 40  2  0
 44 41  1  0
 44 45  1  0
 46 48  1  0
 46 45  1  0
 47 58  2  0
 48 53  1  0
 49 57  1  0
 49 59  1  0
 50 56  1  0
 50 52  1  0
 51 57  1  0
 52 51  1  0
 53 52  2  0
 54 55  1  0
 54 48  2  0
 55 50  2  0
 56 49  1  0
 57 47  1  0
 59 61  2  0
 60 59  1  0
 62 60  1  0
 63 72  2  0
 63 68  1  0
 64 60  1  0
 64 68  1  0
 65 64  1  0
 66 67  1  0
 66 65  1  0
 67 63  1  0
 68 69  2  0
 69 70  1  0
 71 70  2  0
 72 71  1  0
 73 47  1  0
 73 78  1  0
 73 74  1  0
 74 77  1  1
 74 75  1  0
 76 74  1  0
 78 81  1  0
 79 78  1  0
 79 83  1  0
 80 79  2  0
 83 82  1  0
 83 85  1  0
 85 86  1  0
 85 84  1  0
 89 88  1  0
 90 88  1  0
 91 89  1  0
 92 87  1  0
 92 90  1  0
 93 94  1  0
 93 92  1  0
 93 91  1  0
 94 95  1  0
 96 94  1  0
 97 94  1  0
 99 98  1  0
100 99  1  0
101 99  1  0
102 99  1  0
M  ISO  4   2 100  10 100  45 101  46 101
M  END
>  <TORSDO>  (77) 
F 24

>  <SCORE>  (77) 
-12.790

>  <name>  (77) 
77

>  <ligand_id>  (77) 
77

>  <original_smiles>  (77) 
[H]c1c([H])c([H])c2c(c1[H])C([H])([H])C([H])([H])C([H])([H])C2([H])N([H])C(=O)C1([H])N(C(=O)C([H])(N([H])C(=O)C([H])(N([H])C([H])([H])[H])C([H])([H])[H])C(C([H])([H])[H])(C([H])([H])[H])C([H])([H])[H])C([H])([H])c2c([H])c(OC([H])([H])C([H])([H])N([H])C(=O)C(N([H])C(=O)N3C([H])([H])C([H])([H])C([H])([H])C([H])(n4nc(-c5c([H])c([H])c(Oc6c([H])c([H])c(F)c([H])c6F)c([H])c5[H])c(C(=O)N([H])[H])c4N([H])[H])C3([H])[H])(C([H])([H])C3([H])C([H])([H])C([H])([H])C([H])([H])C([H])([H])C3([H])[N+]([H])([H])[H])C([H])([H])[N+]([H])([H])[H])c([H])c([H])c2C1([H])[H]

>  <smiles>  (77) 
[H]c1c([H])c([H])c2c(c1[H])C([H])([H])C([H])([H])C([H])([H])C2([H])N([H])C(=O)C1([H])N(C(=O)C([H])(N([H])C(=O)C([H])(N([H])C([H])([H])[H])C([H])([H])[H])C(C([H])([H])[H])(C([H])([H])[H])C([H])([H])[H])C([H])([H])c2c([H])c(OC([H])([H])C([H])([H])N([H])C(=O)C(N([H])C(=O)N3C([H])([H])C([H])([H])C([H])([H])C([H])(n4nc(-c5c([H])c([H])c(Oc6c([H])c([H])c(F)c([H])c6F)c([H])c5[H])c(C(=O)N([H])[H])c4N([H])[H])C3([H])[H])(C([H])([H])C3([H])C([H])([H])C([H])([H])C([H])([H])C([H])([H])C3([H])[N+]([H])([H])[H])C([H])([H])[N+]([H])([H])[H])c([H])c([H])c2C1([H])[H]

$$$$
78:0:0
     RDKit          3D

 98106  0  0  1  0  0  0  0  0999 V2000
  -30.5930  -14.7530   20.4260 C   0  0  0  0  0  0  0  0  0  0  0  0
  -30.3180  -12.5060   19.4180 C   0  0  0  0  0  2  0  0  0  0  0  0
  -29.4080  -12.5840   18.1760 C   0  0  0  0  0  2  0  0  0  0  0  0
  -27.9270  -12.4480   18.5820 C   0  0  0  0  0  2  0  0  0  0  0  0
  -27.5420  -13.3170   19.8170 C   0  0  0  0  0  3  0  0  0  0  0  0
  -28.5940  -13.2640   20.9430 C   0  0  0  0  0  2  0  0  0  0  0  0
  -29.8870  -13.5840   20.3290 N   0  0  0  0  0  0  0  0  0  0  0  0
  -31.8230  -14.7420   20.3680 O   0  0  0  0  0  0  0  0  0  0  0  0
  -30.1000  -16.2710   18.6730 C   0  0  0  0  0  2  0  0  0  0  0  0
  -28.7750  -16.5910   17.9480 C   0  0  0  0  0  2  0  0  0  0  0  0
  -28.1320  -18.3660   19.5610 C   0  0  0  0  0  2  0  0  0  0  0  0
  -29.4740  -18.6300   20.2890 C   0  0  0  0  0  3  0  0  0  0  0  0
  -30.0650  -17.2620   20.9580 C   0  0  0  0  0  3  0  0  0  0  0  0
  -29.9670  -15.9610   20.1230 N   0  0  0  0  0  0  0  0  0  0  0  0
  -28.3210  -17.9750   18.1510 N   0  0  0  0  0  4  0  0  0  0  0  0
  -27.4320  -18.0750   17.6860 H   0  0  0  0  0  0  0  0  0  0  0  0
  -28.9510  -18.6150   17.6940 H   0  0  0  0  0  0  0  0  0  0  0  0
  -25.1410  -13.9060   20.4800 C   0  0  0  0  0  0  0  0  0  0  0  0
  -24.0700  -13.1290   20.8260 C   0  0  0  0  0  0  0  0  0  0  0  0
  -24.5480  -11.7830   20.8320 C   0  0  0  0  0  0  0  0  0  0  0  0
  -26.1960  -13.0290   20.2870 N   0  0  0  0  0  0  0  0  0  0  0  0
  -25.8460  -11.7500   20.5620 N   0  0  0  0  0  0  0  0  0  0  0  0
  -23.8320  -10.5180   21.0220 C   0  0  0  0  0  0  0  0  0  0  0  0
  -24.2620   -9.5650   21.9710 C   0  0  0  0  0  3  0  0  0  0  0  0
  -23.5460   -8.3610   22.1510 C   0  0  0  0  0  3  0  0  0  0  0  0
  -22.3860   -8.1050   21.3800 C   0  0  0  0  0  0  0  0  0  0  0  0
  -21.9780   -9.0460   20.4180 C   0  0  0  0  0  3  0  0  0  0  0  0
  -22.6950  -10.2410   20.2380 C   0  0  0  0  0  3  0  0  0  0  0  0
  -21.6440   -6.9520   21.4680 O   0  0  0  0  0  0  0  0  0  0  0  0
  -21.5930   -6.2150   22.6240 C   0  0  0  0  0  0  0  0  0  0  0  0
  -21.1700   -6.7760   23.8500 C   0  0  0  0  0  3  0  0  0  0  0  0
  -21.0670   -5.9660   24.9970 C   0  0  0  0  0  3  0  0  0  0  0  0
  -21.3760   -4.5940   24.9220 C   0  0  0  0  0  0  0  0  0  0  0  0
  -21.7920   -4.0320   23.7020 C   0  0  0  0  0  3  0  0  0  0  0  0
  -21.8960   -4.8400   22.5560 C   0  0  0  0  0  0  0  0  0  0  0  0
  -22.2780   -4.2890   21.3780 F   0  0  0  0  0  0  0  0  0  0  0  0
  -21.2680   -3.8130   26.0210 F   0  0  0  0  0  0  0  0  0  0  0  0
  -22.6630  -13.5980   21.0500 C   0  0  0  0  0  0  0  0  0  0  0  0
  -21.9230  -12.9100   21.9140 N   0  0  0  0  0  0  0  0  0  0  0  0
  -22.2310  -14.6110   20.4990 O   0  0  0  0  0  0  0  0  0  0  0  0
  -22.2910  -12.0910   22.3750 H   0  0  0  0  0  0  0  0  0  0  0  0
  -20.9790  -13.2030   22.1200 H   0  0  0  0  0  0  0  0  0  0  0  0
  -25.3070  -15.2750   20.2920 N   0  0  0  0  0  0  0  0  0  0  0  0
  -24.5540  -15.9380   20.4350 H   0  0  0  0  0  0  0  0  0  0  0  0
  -26.1920  -15.7140   20.0820 H   0  0  0  0  0  0  0  0  0  0  0  0
  -29.3040  -19.9750   21.1680 C   0  0  0  0  0  3  0  0  0  0  0  0
  -29.3870  -21.3970   20.4150 C   0  0  0  0  0  3  0  0  0  0  0  0
  -28.8100  -22.6210   21.1160 N   0  0  0  0  0  4  0  0  0  0  0  0
  -29.0930  -22.5980   22.0830 H   0  0  0  0  0  0  0  0  0  0  0  0
  -27.8070  -22.5240   21.1200 H   0  0  0  0  0  0  0  0  0  0  0  0
  -29.1530  -24.0140   20.5840 C   0  0  0  0  0  3  0  0  0  0  0  0
  -28.0110  -25.1170   20.7110 C   0  0  0  0  0  3  0  0  0  0  0  0
  -28.2960  -26.5400   20.3870 O   0  0  0  0  0  0  0  0  0  0  0  0
  -24.5730  -32.0070   23.2750 C   0  0  0  0  0  0  0  0  0  0  0  0
  -27.1900  -27.4010   20.3130 C   0  0  0  0  0  0  0  0  0  0  0  0
  -23.3790  -30.5970   21.6390 C   0  0  0  0  0  3  0  0  0  0  0  0
  -24.8350  -29.0260   20.2480 C   0  0  0  0  0  0  0  0  0  0  0  0
  -25.9230  -30.8980   21.4840 C   0  0  0  0  0  2  0  0  0  0  0  0
  -25.9990  -29.5130   20.8540 C   0  0  0  0  0  0  0  0  0  0  0  0
  -27.1820  -28.7150   20.8760 C   0  0  0  0  0  3  0  0  0  0  0  0
  -26.0070  -26.9780   19.6620 C   0  0  0  0  0  3  0  0  0  0  0  0
  -24.8410  -27.7630   19.6390 C   0  0  0  0  0  3  0  0  0  0  0  0
  -23.6040  -29.9050   20.2690 C   0  0  0  0  0  2  0  0  0  0  0  0
  -24.6420  -31.1850   22.1870 N   0  0  0  0  0  0  0  0  0  0  0  0
  -23.4860  -32.2970   23.7950 O   0  0  0  0  0  0  0  0  0  0  0  0
  -22.7040  -29.5890   22.6020 C   0  0  0  0  0  0  0  0  0  0  0  0
  -21.3780  -29.4250   22.4730 N   0  0  0  0  0  0  0  0  0  0  0  0
  -23.3740  -28.9600   23.4270 O   0  0  0  0  0  0  0  0  0  0  0  0
  -20.8970  -29.9860   21.7840 H   0  0  0  0  0  0  0  0  0  0  0  0
  -17.9810  -28.2760   22.9750 C   0  0  0  0  0  0  0  0  0  0  0  0
  -20.5440  -28.4990   23.2450 C   0  0  0  0  0  3  0  0  0  0  0  0
  -20.6250  -27.0630   22.6780 C   0  0  0  0  0  2  0  0  0  0  0  0
  -19.5200  -26.7510   21.6650 C   0  0  0  0  0  2  0  0  0  0  0  0
  -18.1390  -26.9180   22.3060 C   0  0  0  0  0  2  0  0  0  0  0  0
  -19.1110  -29.0240   23.4000 C   0  0  0  0  0  0  0  0  0  0  0  0
  -18.9100  -30.2940   23.9840 C   0  0  0  0  0  3  0  0  0  0  0  0
  -17.6140  -30.8130   24.1490 C   0  0  0  0  0  3  0  0  0  0  0  0
  -16.4990  -30.0630   23.7380 C   0  0  0  0  0  3  0  0  0  0  0  0
  -16.6820  -28.7960   23.1560 C   0  0  0  0  0  3  0  0  0  0  0  0
  -25.8550  -32.6380   23.9000 C   0  0  0  0  0  3  0  0  0  0  0  0
  -25.5550  -34.0420   24.2110 N   0  0  0  0  0  0  0  0  0  0  0  0
  -25.8970  -35.0850   23.4400 C   0  0  0  0  0  0  0  0  0  0  0  0
  -26.5770  -34.9660   22.4180 O   0  0  0  0  0  0  0  0  0  0  0  0
  -24.9600  -34.2120   25.0090 H   0  0  0  0  0  0  0  0  0  0  0  0
  -24.1800  -36.8780   23.0430 C   0  0  0  0  0  1  0  0  0  0  0  0
  -25.4110  -36.4810   23.8750 C   0  0  0  0  0  3  0  0  0  0  0  0
  -27.5410  -37.3600   24.7180 C   0  0  0  0  0  1  0  0  0  0  0  0
  -26.4500  -37.5290   23.7610 N   0  0  0  0  0  0  0  0  0  0  0  0
  -26.0470  -38.4530   23.8970 H   0  0  0  0  0  0  0  0  0  0  0  0
  -26.3510  -31.8830   25.1950 C   0  0  1  0  0  0  0  0  0  0  0  0
  -25.2390  -31.6710   26.2500 C   0  0  0  0  0  1  0  0  0  0  0  0
  -26.9320  -30.4960   24.8350 C   0  0  0  0  0  1  0  0  0  0  0  0
  -27.4950  -32.6830   25.8610 C   0  0  0  0  0  1  0  0  0  0  0  0
  -31.5270  -17.5680   21.4470 C   0  0  0  0  0  2  0  0  0  0  0  0
  -32.0900  -16.6360   22.4390 N   0  0  0  0  0  4  0  0  0  0  0  0
  -31.5280  -16.5740   23.2710 H   0  0  0  0  0  0  0  0  0  0  0  0
  -33.0080  -16.9420   22.7080 H   0  0  0  0  0  0  0  0  0  0  0  0
  -32.1920  -15.7210   22.0120 H   0  0  0  0  0  0  0  0  0  0  0  0
  2  7  1  0
  3  4  1  0
  3  2  1  0
  5  4  1  0
  5 21  1  0
  5  6  1  0
  7  1  1  0
  7  6  1  0
  8  1  2  0
  9 14  1  0
 10 15  1  0
 10  9  1  0
 11 12  1  0
 12 13  1  0
 12 46  1  0
 13 94  1  0
 14  1  1  0
 14 13  1  0
 15 11  1  0
 16 15  1  0
 17 15  1  0
 18 19  2  0
 19 20  1  0
 19 38  1  0
 20 23  1  0
 21 18  1  0
 21 22  1  0
 22 20  2  0
 23 24  1  0
 24 25  2  0
 26 29  1  0
 26 25  1  0
 27 26  2  0
 28 27  1  0
 28 23  2  0
 29 30  1  0
 30 31  1  0
 31 32  2  0
 33 32  1  0
 33 37  1  0
 34 33  2  0
 35 30  2  0
 35 34  1  0
 36 35  1  0
 38 39  1  0
 39 42  1  0
 39 41  1  0
 40 38  2  0
 43 44  1  0
 43 18  1  0
 45 43  1  0
 47 48  1  0
 47 46  2  0
 48 50  1  0
 48 49  1  0
 51 52  2  0
 51 48  1  0
 53 52  1  0
 54 65  2  0
 55 53  1  0
 55 60  1  0
 56 64  1  0
 56 66  1  0
 57 63  1  0
 57 59  1  0
 58 64  1  0
 59 60  2  0
 59 58  1  0
 61 55  2  0
 62 61  1  0
 62 57  2  0
 63 56  1  0
 64 54  1  0
 66 68  2  0
 67 66  1  0
 69 67  1  0
 70 79  2  0
 70 75  1  0
 71 67  1  0
 71 75  1  0
 72 71  1  0
 73 74  1  0
 73 72  1  0
 74 70  1  0
 75 76  2  0
 76 77  1  0
 78 77  2  0
 79 78  1  0
 80 54  1  0
 80 81  1  0
 80 90  1  0
 81 84  1  0
 82 86  1  0
 82 81  1  0
 83 82  2  0
 86 85  1  0
 88 86  1  0
 88 89  1  0
 88 87  1  0
 90 93  1  1
 90 91  1  0
 92 90  1  0
 94 95  1  0
 95 97  1  0
 95 96  1  0
 98 95  1  0
M  ISO  4   1 100  14 100  52 101  53 101
M  END
>  <TORSDO>  (78) 
F 22

>  <SCORE>  (78) 
-10.784

>  <name>  (78) 
78

>  <ligand_id>  (78) 
78

>  <original_smiles>  (78) 
[H]c1c([H])c([H])c2c(c1[H])C([H])([H])C([H])([H])C([H])([H])C2([H])N([H])C(=O)C1([H])N(C(=O)C([H])(N([H])C(=O)C([H])(N([H])C([H])([H])[H])C([H])([H])[H])C(C([H])([H])[H])(C([H])([H])[H])C([H])([H])[H])C([H])([H])c2c([H])c(OC([H])([H])C([H])([H])[N+]([H])([H])C([H])([H])C([H])([H])C3([H])C([H])(C([H])([H])[N+]([H])([H])[H])N(C(=O)N4C([H])([H])C([H])([H])C([H])([H])C([H])(n5nc(-c6c([H])c([H])c(Oc7c([H])c([H])c(F)c([H])c7F)c([H])c6[H])c(C(=O)N([H])[H])c5N([H])[H])C4([H])[H])C([H])([H])C([H])([H])[N+]([H])([H])C3([H])[H])c([H])c([H])c2C1([H])[H]

>  <smiles>  (78) 
[H]c1c([H])c([H])c2c(c1[H])C([H])([H])C([H])([H])C([H])([H])C2([H])N([H])C(=O)C1([H])N(C(=O)C([H])(N([H])C(=O)C([H])(N([H])C([H])([H])[H])C([H])([H])[H])C(C([H])([H])[H])(C([H])([H])[H])C([H])([H])[H])C([H])([H])c2c([H])c(OC([H])([H])C([H])([H])[N+]([H])([H])C([H])([H])C([H])([H])C3([H])C([H])(C([H])([H])[N+]([H])([H])[H])N(C(=O)N4C([H])([H])C([H])([H])C([H])([H])C([H])(n5nc(-c6c([H])c([H])c(Oc7c([H])c([H])c(F)c([H])c7F)c([H])c6[H])c(C(=O)N([H])[H])c5N([H])[H])C4([H])[H])C([H])([H])C([H])([H])[N+]([H])([H])C3([H])[H])c([H])c([H])c2C1([H])[H]

$$$$
79:0:0
     RDKit          3D

 92100  0  0  1  0  0  0  0  0999 V2000
  -29.8350  -21.7890   20.7100 C   0  0  0  0  0  2  0  0  0  0  0  0
  -28.8080  -22.8480   20.4950 N   0  0  0  0  0  4  0  0  0  0  0  0
  -28.1030  -22.7390   21.2090 H   0  0  0  0  0  0  0  0  0  0  0  0
  -28.3630  -22.6590   19.6100 H   0  0  0  0  0  0  0  0  0  0  0  0
  -29.2700  -24.2740   20.5010 C   0  0  0  0  0  2  0  0  0  0  0  0
  -28.1440  -25.2270   20.0160 C   0  0  0  0  0  2  0  0  0  0  0  0
  -28.3480  -26.6520   20.1920 O   0  0  0  0  0  0  0  0  0  0  0  0
  -24.5850  -31.9050   23.2420 C   0  0  0  0  0  0  0  0  0  0  0  0
  -27.1990  -27.4340   20.1460 C   0  0  0  0  0  0  0  0  0  0  0  0
  -23.3710  -30.5110   21.6020 C   0  0  0  0  0  3  0  0  0  0  0  0
  -24.8140  -28.9790   20.1660 C   0  0  0  0  0  0  0  0  0  0  0  0
  -25.9020  -30.8540   21.4010 C   0  0  0  0  0  2  0  0  0  0  0  0
  -25.9810  -29.4850   20.7530 C   0  0  0  0  0  0  0  0  0  0  0  0
  -27.1750  -28.7210   20.7400 C   0  0  0  0  0  3  0  0  0  0  0  0
  -26.0090  -26.9660   19.5320 C   0  0  0  0  0  3  0  0  0  0  0  0
  -24.8250  -27.7200   19.5530 C   0  0  0  0  0  3  0  0  0  0  0  0
  -23.5750  -29.8440   20.2180 C   0  0  0  0  0  2  0  0  0  0  0  0
  -24.6380  -31.1040   22.1400 N   0  0  0  0  0  0  0  0  0  0  0  0
  -23.5060  -32.1790   23.7840 O   0  0  0  0  0  0  0  0  0  0  0  0
  -22.7190  -29.4860   22.5590 C   0  0  0  0  0  0  0  0  0  0  0  0
  -21.3940  -29.3070   22.4350 N   0  0  0  0  0  0  0  0  0  0  0  0
  -23.4030  -28.8560   23.3700 O   0  0  0  0  0  0  0  0  0  0  0  0
  -20.9020  -29.8670   21.7510 H   0  0  0  0  0  0  0  0  0  0  0  0
  -18.0170  -28.1250   22.9440 C   0  0  0  0  0  0  0  0  0  0  0  0
  -20.5760  -28.3700   23.2050 C   0  0  0  0  0  3  0  0  0  0  0  0
  -20.6700  -26.9400   22.6240 C   0  0  0  0  0  2  0  0  0  0  0  0
  -19.5630  -26.6260   21.6140 C   0  0  0  0  0  2  0  0  0  0  0  0
  -18.1840  -26.7770   22.2630 C   0  0  0  0  0  2  0  0  0  0  0  0
  -19.1410  -28.8790   23.3720 C   0  0  0  0  0  0  0  0  0  0  0  0
  -18.9310  -30.1430   23.9680 C   0  0  0  0  0  3  0  0  0  0  0  0
  -17.6300  -30.6510   24.1410 C   0  0  0  0  0  3  0  0  0  0  0  0
  -16.5200  -29.8920   23.7290 C   0  0  0  0  0  3  0  0  0  0  0  0
  -16.7140  -28.6320   23.1360 C   0  0  0  0  0  3  0  0  0  0  0  0
  -25.8740  -32.5310   23.8580 C   0  0  0  0  0  3  0  0  0  0  0  0
  -25.5720  -33.9300   24.1870 N   0  0  0  0  0  0  0  0  0  0  0  0
  -25.8990  -34.9800   23.4230 C   0  0  0  0  0  0  0  0  0  0  0  0
  -26.5610  -34.8730   22.3860 O   0  0  0  0  0  0  0  0  0  0  0  0
  -24.9840  -34.0870   24.9940 H   0  0  0  0  0  0  0  0  0  0  0  0
  -24.1710  -36.7730   23.0740 C   0  0  0  0  0  1  0  0  0  0  0  0
  -25.4160  -36.3690   23.8790 C   0  0  0  0  0  3  0  0  0  0  0  0
  -27.5560  -37.2520   24.6970 C   0  0  0  0  0  1  0  0  0  0  0  0
  -26.4500  -37.4200   23.7590 N   0  0  0  0  0  0  0  0  0  0  0  0
  -26.0470  -38.3410   23.9070 H   0  0  0  0  0  0  0  0  0  0  0  0
  -26.3930  -31.7560   25.1310 C   0  0  1  0  0  0  0  0  0  0  0  0
  -25.3040  -31.5220   26.2020 C   0  0  0  0  0  1  0  0  0  0  0  0
  -26.9720  -30.3780   24.7340 C   0  0  0  0  0  1  0  0  0  0  0  0
  -27.5490  -32.5480   25.7890 C   0  0  0  0  0  1  0  0  0  0  0  0
  -29.2130  -20.3490   20.7920 C   0  0  0  0  0  2  0  0  0  0  0  0
  -30.2700  -18.1210   18.1500 C   0  0  0  0  0  2  0  0  0  0  0  0
  -29.1540  -17.4590   18.9260 C   0  0  0  0  0  2  0  0  0  0  0  0
  -30.3390  -19.4820   18.8220 C   0  0  0  0  0  2  0  0  0  0  0  0
  -29.4210  -17.9080   20.3690 C   0  0  0  0  0  3  0  0  0  0  0  0
  -30.0430  -19.2520   20.2450 N   0  0  0  0  0  0  0  0  0  0  0  0
  -30.3740  -16.9370   21.1350 C   0  0  0  0  0  2  0  0  0  0  0  0
  -30.6500  -14.5050   20.5460 C   0  0  0  0  0  0  0  0  0  0  0  0
  -30.3590  -12.3540   19.3700 C   0  0  0  0  0  2  0  0  0  0  0  0
  -29.4390  -12.5740   18.1500 C   0  0  0  0  0  2  0  0  0  0  0  0
  -27.9580  -12.4370   18.5520 C   0  0  0  0  0  2  0  0  0  0  0  0
  -27.6020  -13.2670   19.8150 C   0  0  0  0  0  3  0  0  0  0  0  0
  -28.6360  -13.0340   20.9400 C   0  0  0  0  0  2  0  0  0  0  0  0
  -29.9720  -13.3330   20.3980 N   0  0  0  0  0  0  0  0  0  0  0  0
  -31.7800  -14.6800   20.0840 O   0  0  0  0  0  0  0  0  0  0  0  0
  -29.9540  -15.5220   21.0910 N   0  0  0  0  0  0  0  0  0  0  0  0
  -29.0290  -15.3060   21.4310 H   0  0  0  0  0  0  0  0  0  0  0  0
  -25.1890  -13.8810   20.4660 C   0  0  0  0  0  0  0  0  0  0  0  0
  -24.1140  -13.1110   20.8220 C   0  0  0  0  0  0  0  0  0  0  0  0
  -24.5760  -11.7600   20.8180 C   0  0  0  0  0  0  0  0  0  0  0  0
  -26.2400  -12.9970   20.2680 N   0  0  0  0  0  0  0  0  0  0  0  0
  -25.8730  -11.7180   20.5370 N   0  0  0  0  0  0  0  0  0  0  0  0
  -23.8460  -10.5000   21.0070 C   0  0  0  0  0  0  0  0  0  0  0  0
  -24.2630   -9.5430   21.9590 C   0  0  0  0  0  3  0  0  0  0  0  0
  -23.5350   -8.3460   22.1370 C   0  0  0  0  0  3  0  0  0  0  0  0
  -22.3760   -8.0990   21.3630 C   0  0  0  0  0  0  0  0  0  0  0  0
  -21.9790   -9.0450   20.4020 C   0  0  0  0  0  3  0  0  0  0  0  0
  -22.7070  -10.2320   20.2220 C   0  0  0  0  0  3  0  0  0  0  0  0
  -21.6210   -6.9550   21.4500 O   0  0  0  0  0  0  0  0  0  0  0  0
  -21.5550   -6.2200   22.6070 C   0  0  0  0  0  0  0  0  0  0  0  0
  -21.1080   -6.7850   23.8220 C   0  0  0  0  0  3  0  0  0  0  0  0
  -20.9880   -5.9770   24.9700 C   0  0  0  0  0  3  0  0  0  0  0  0
  -21.3070   -4.6070   24.9050 C   0  0  0  0  0  0  0  0  0  0  0  0
  -21.7480   -4.0440   23.6950 C   0  0  0  0  0  3  0  0  0  0  0  0
  -21.8690   -4.8490   22.5490 C   0  0  0  0  0  0  0  0  0  0  0  0
  -22.2730   -4.2950   21.3790 F   0  0  0  0  0  0  0  0  0  0  0  0
  -21.1850   -3.8300   26.0060 F   0  0  0  0  0  0  0  0  0  0  0  0
  -22.7100  -13.5910   21.0590 C   0  0  0  0  0  0  0  0  0  0  0  0
  -21.9640  -12.9050   21.9190 N   0  0  0  0  0  0  0  0  0  0  0  0
  -22.2820  -14.6110   20.5200 O   0  0  0  0  0  0  0  0  0  0  0  0
  -22.3210  -12.0810   22.3780 H   0  0  0  0  0  0  0  0  0  0  0  0
  -21.0220  -13.2100   22.1200 H   0  0  0  0  0  0  0  0  0  0  0  0
  -25.3560  -15.2490   20.2750 N   0  0  0  0  0  0  0  0  0  0  0  0
  -24.5830  -15.9010   20.3600 H   0  0  0  0  0  0  0  0  0  0  0  0
  -26.2060  -15.6860   19.9430 H   0  0  0  0  0  0  0  0  0  0  0  0
  1 48  1  0
  2  5  1  0
  2  1  1  0
  2  3  1  0
  4  2  1  0
  6  7  1  0
  6  5  1  0
  8 19  2  0
  9  7  1  0
  9 14  1  0
 10 18  1  0
 10 20  1  0
 11 17  1  0
 11 13  1  0
 12 18  1  0
 13 12  1  0
 14 13  2  0
 15 16  1  0
 15  9  2  0
 16 11  2  0
 17 10  1  0
 18  8  1  0
 20 22  2  0
 21 20  1  0
 23 21  1  0
 24 33  2  0
 24 29  1  0
 25 21  1  0
 25 29  1  0
 26 25  1  0
 27 28  1  0
 27 26  1  0
 28 24  1  0
 29 30  2  0
 30 31  1  0
 32 31  2  0
 33 32  1  0
 34  8  1  0
 34 35  1  0
 34 44  1  0
 35 38  1  0
 36 40  1  0
 36 35  1  0
 37 36  2  0
 40 39  1  0
 42 40  1  0
 42 43  1  0
 42 41  1  0
 44 47  1  1
 44 45  1  0
 46 44  1  0
 49 51  1  0
 49 50  1  0
 50 52  1  0
 51 53  1  0
 52 54  1  0
 53 52  1  0
 53 48  1  0
 55 63  1  0
 56 61  1  0
 57 58  1  0
 57 56  1  0
 59 58  1  0
 59 68  1  0
 59 60  1  0
 61 55  1  0
 61 60  1  0
 62 55  2  0
 63 54  1  0
 63 64  1  0
 65 66  2  0
 66 85  1  0
 67 66  1  0
 67 70  1  0
 68 65  1  0
 68 69  1  0
 69 67  2  0
 70 71  1  0
 71 72  2  0
 73 76  1  0
 73 72  1  0
 74 73  2  0
 75 74  1  0
 75 70  2  0
 76 77  1  0
 77 78  1  0
 78 79  2  0
 80 79  1  0
 80 84  1  0
 81 80  2  0
 82 77  2  0
 82 81  1  0
 83 82  1  0
 85 86  1  0
 86 89  1  0
 86 88  1  0
 87 85  2  0
 90 91  1  0
 90 65  1  0
 92 90  1  0
M  ISO  4   6 101   7 101  55 100  63 100
M  END
>  <TORSDO>  (79) 
F 22

>  <SCORE>  (79) 
-13.219

>  <name>  (79) 
79

>  <ligand_id>  (79) 
79

>  <original_smiles>  (79) 
[H]c1c([H])c([H])c2c(c1[H])C([H])([H])C([H])([H])C([H])([H])C2([H])N([H])C(=O)C1([H])N(C(=O)C([H])(N([H])C(=O)C([H])(N([H])C([H])([H])[H])C([H])([H])[H])C(C([H])([H])[H])(C([H])([H])[H])C([H])([H])[H])C([H])([H])c2c([H])c(OC([H])([H])C([H])([H])[N+]([H])([H])C([H])([H])C([H])([H])N3C([H])([H])C([H])([H])C([H])([H])C3([H])C([H])([H])N([H])C(=O)N3C([H])([H])C([H])([H])C([H])([H])C([H])(n4nc(-c5c([H])c([H])c(Oc6c([H])c([H])c(F)c([H])c6F)c([H])c5[H])c(C(=O)N([H])[H])c4N([H])[H])C3([H])[H])c([H])c([H])c2C1([H])[H]

>  <smiles>  (79) 
[H]c1c([H])c([H])c2c(c1[H])C([H])([H])C([H])([H])C([H])([H])C2([H])N([H])C(=O)C1([H])N(C(=O)C([H])(N([H])C(=O)C([H])(N([H])C([H])([H])[H])C([H])([H])[H])C(C([H])([H])[H])(C([H])([H])[H])C([H])([H])[H])C([H])([H])c2c([H])c(OC([H])([H])C([H])([H])[N+]([H])([H])C([H])([H])C([H])([H])N3C([H])([H])C([H])([H])C([H])([H])C3([H])C([H])([H])N([H])C(=O)N3C([H])([H])C([H])([H])C([H])([H])C([H])(n4nc(-c5c([H])c([H])c(Oc6c([H])c([H])c(F)c([H])c6F)c([H])c5[H])c(C(=O)N([H])[H])c4N([H])[H])C3([H])[H])c([H])c([H])c2C1([H])[H]

$$$$
80:0:0
     RDKit          3D

 91 99  0  0  1  0  0  0  0  0999 V2000
  -29.1850  -21.3540   19.8220 C   0  0  0  0  0  2  0  0  0  0  0  0
  -30.2100  -21.1200   21.9730 C   0  0  0  0  0  2  0  0  0  0  0  0
  -29.8320  -20.0170   19.3710 C   0  0  0  0  0  2  0  0  0  0  0  0
  -30.8590  -19.7850   21.5420 C   0  0  0  0  0  2  0  0  0  0  0  0
  -30.0210  -22.0340   20.8310 N   0  0  0  0  0  0  0  0  0  0  0  0
  -29.9880  -19.1180   20.5420 N   0  0  2  0  0  4  0  0  0  0  0  0
  -29.0670  -19.0780   20.9530 H   0  0  0  0  0  0  0  0  0  0  0  0
  -29.3670  -23.2400   21.3620 C   0  0  0  0  0  2  0  0  0  0  0  0
  -29.2900  -24.4370   20.3880 C   0  0  0  0  0  2  0  0  0  0  0  0
  -28.4350  -25.5800   20.9810 C   0  0  0  0  0  2  0  0  0  0  0  0
  -28.4410  -26.7450   20.1510 O   0  0  0  0  0  0  0  0  0  0  0  0
  -24.5990  -31.8880   23.2430 C   0  0  0  0  0  0  0  0  0  0  0  0
  -27.2680  -27.4640   20.1770 C   0  0  0  0  0  0  0  0  0  0  0  0
  -23.4000  -30.4810   21.5970 C   0  0  0  0  0  3  0  0  0  0  0  0
  -24.8620  -28.9420   20.1820 C   0  0  0  0  0  0  0  0  0  0  0  0
  -25.9190  -30.8540   21.4020 C   0  0  0  0  0  2  0  0  0  0  0  0
  -26.0150  -29.4790   20.7690 C   0  0  0  0  0  0  0  0  0  0  0  0
  -27.2240  -28.7480   20.7660 C   0  0  0  0  0  3  0  0  0  0  0  0
  -26.0970  -26.9260   19.6050 C   0  0  0  0  0  3  0  0  0  0  0  0
  -24.8930  -27.6570   19.6060 C   0  0  0  0  0  3  0  0  0  0  0  0
  -23.6130  -29.7940   20.2210 C   0  0  0  0  0  2  0  0  0  0  0  0
  -24.6570  -31.0890   22.1390 N   0  0  0  0  0  0  0  0  0  0  0  0
  -23.5170  -32.1530   23.7830 O   0  0  0  0  0  0  0  0  0  0  0  0
  -22.7520  -29.4590   22.5590 C   0  0  0  0  0  0  0  0  0  0  0  0
  -21.4270  -29.2780   22.4310 N   0  0  0  0  0  0  0  0  0  0  0  0
  -23.4360  -28.8330   23.3740 O   0  0  0  0  0  0  0  0  0  0  0  0
  -20.9360  -29.8430   21.7540 H   0  0  0  0  0  0  0  0  0  0  0  0
  -18.0560  -28.0650   22.9050 C   0  0  0  0  0  0  0  0  0  0  0  0
  -20.6090  -28.3380   23.1930 C   0  0  0  0  0  3  0  0  0  0  0  0
  -20.7220  -26.9030   22.6290 C   0  0  0  0  0  2  0  0  0  0  0  0
  -19.6310  -26.5680   21.6070 C   0  0  0  0  0  2  0  0  0  0  0  0
  -18.2430  -26.7120   22.2410 C   0  0  0  0  0  2  0  0  0  0  0  0
  -19.1680  -28.8350   23.3400 C   0  0  0  0  0  0  0  0  0  0  0  0
  -18.9420  -30.1000   23.9230 C   0  0  0  0  0  3  0  0  0  0  0  0
  -17.6350  -30.5990   24.0770 C   0  0  0  0  0  3  0  0  0  0  0  0
  -16.5370  -29.8250   23.6620 C   0  0  0  0  0  3  0  0  0  0  0  0
  -16.7470  -28.5620   23.0790 C   0  0  0  0  0  3  0  0  0  0  0  0
  -25.8840  -32.5250   23.8640 C   0  0  0  0  0  3  0  0  0  0  0  0
  -25.5690  -33.9210   24.1930 N   0  0  0  0  0  0  0  0  0  0  0  0
  -25.9050  -34.9730   23.4330 C   0  0  0  0  0  0  0  0  0  0  0  0
  -26.5810  -34.8670   22.4050 O   0  0  0  0  0  0  0  0  0  0  0  0
  -24.9700  -34.0720   24.9920 H   0  0  0  0  0  0  0  0  0  0  0  0
  -24.1790  -36.7610   23.0670 C   0  0  0  0  0  1  0  0  0  0  0  0
  -25.4160  -36.3590   23.8840 C   0  0  0  0  0  3  0  0  0  0  0  0
  -27.5490  -37.2470   24.7210 C   0  0  0  0  0  1  0  0  0  0  0  0
  -26.4500  -37.4140   23.7750 N   0  0  0  0  0  0  0  0  0  0  0  0
  -26.0410  -38.3330   23.9220 H   0  0  0  0  0  0  0  0  0  0  0  0
  -26.4060  -31.7540   25.1400 C   0  0  1  0  0  0  0  0  0  0  0  0
  -25.3180  -31.5090   26.2120 C   0  0  0  0  0  1  0  0  0  0  0  0
  -26.9980  -30.3810   24.7420 C   0  0  0  0  0  1  0  0  0  0  0  0
  -27.5550  -32.5490   25.8020 C   0  0  0  0  0  1  0  0  0  0  0  0
  -30.3230  -17.7020   20.2120 C   0  0  0  0  0  2  0  0  0  0  0  0
  -30.2440  -16.7710   21.4530 C   0  0  0  0  0  2  0  0  0  0  0  0
  -30.6630  -14.4440   20.4820 C   0  0  0  0  0  0  0  0  0  0  0  0
  -30.3700  -12.3100   19.2780 C   0  0  0  0  0  2  0  0  0  0  0  0
  -29.4190  -12.5300   18.0840 C   0  0  0  0  0  2  0  0  0  0  0  0
  -27.9440  -12.4020   18.5200 C   0  0  0  0  0  2  0  0  0  0  0  0
  -27.6160  -13.2320   19.7910 C   0  0  0  0  0  3  0  0  0  0  0  0
  -28.6710  -12.9560   20.8860 C   0  0  0  0  0  2  0  0  0  0  0  0
  -30.0000  -13.2690   20.3240 N   0  0  0  0  0  0  0  0  0  0  0  0
  -31.7570  -14.6990   19.9720 O   0  0  0  0  0  0  0  0  0  0  0  0
  -29.9590  -15.3660   21.1520 N   0  0  0  0  0  0  0  0  0  0  0  0
  -29.0670  -15.0280   21.4830 H   0  0  0  0  0  0  0  0  0  0  0  0
  -25.2130  -13.8620   20.4910 C   0  0  0  0  0  0  0  0  0  0  0  0
  -24.1410  -13.0970   20.8680 C   0  0  0  0  0  0  0  0  0  0  0  0
  -24.5980  -11.7430   20.8440 C   0  0  0  0  0  0  0  0  0  0  0  0
  -26.2560  -12.9730   20.2670 N   0  0  0  0  0  0  0  0  0  0  0  0
  -25.8860  -11.6950   20.5340 N   0  0  0  0  0  0  0  0  0  0  0  0
  -23.8680  -10.4840   21.0430 C   0  0  0  0  0  0  0  0  0  0  0  0
  -24.3070   -9.5110   21.9700 C   0  0  0  0  0  3  0  0  0  0  0  0
  -23.5780   -8.3170   22.1520 C   0  0  0  0  0  3  0  0  0  0  0  0
  -22.3950   -8.0860   21.4090 C   0  0  0  0  0  0  0  0  0  0  0  0
  -21.9750   -9.0470   20.4730 C   0  0  0  0  0  3  0  0  0  0  0  0
  -22.7070  -10.2330   20.2870 C   0  0  0  0  0  3  0  0  0  0  0  0
  -21.6370   -6.9440   21.5040 O   0  0  0  0  0  0  0  0  0  0  0  0
  -21.6100   -6.1910   22.6510 C   0  0  0  0  0  0  0  0  0  0  0  0
  -21.2270   -6.7410   23.8940 C   0  0  0  0  0  3  0  0  0  0  0  0
  -21.1440   -5.9150   25.0320 C   0  0  0  0  0  3  0  0  0  0  0  0
  -21.4360   -4.5420   24.9320 C   0  0  0  0  0  0  0  0  0  0  0  0
  -21.8150   -3.9930   23.6930 C   0  0  0  0  0  3  0  0  0  0  0  0
  -21.8980   -4.8150   22.5560 C   0  0  0  0  0  0  0  0  0  0  0  0
  -22.2420   -4.2750   21.3620 F   0  0  0  0  0  0  0  0  0  0  0  0
  -21.3500   -3.7470   26.0230 F   0  0  0  0  0  0  0  0  0  0  0  0
  -22.7450  -13.5810   21.1390 C   0  0  0  0  0  0  0  0  0  0  0  0
  -22.0140  -12.8890   22.0090 N   0  0  0  0  0  0  0  0  0  0  0  0
  -22.3080  -14.6060   20.6200 O   0  0  0  0  0  0  0  0  0  0  0  0
  -22.3720  -12.0520   22.4420 H   0  0  0  0  0  0  0  0  0  0  0  0
  -21.0810  -13.1990   22.2380 H   0  0  0  0  0  0  0  0  0  0  0  0
  -25.3860  -15.2290   20.3000 N   0  0  0  0  0  0  0  0  0  0  0  0
  -24.6310  -15.8970   20.4060 H   0  0  0  0  0  0  0  0  0  0  0  0
  -26.2340  -15.6470   19.9360 H   0  0  0  0  0  0  0  0  0  0  0  0
  1  5  1  0
  3  1  1  0
  3  6  1  0
  4  2  1  0
  5  8  1  0
  5  2  1  0
  6  7  1  1
  6  4  1  0
  9 10  1  0
  9  8  1  0
 11 13  1  0
 11 10  1  0
 12 23  2  0
 13 18  1  0
 14 22  1  0
 14 24  1  0
 15 21  1  0
 15 17  1  0
 16 22  1  0
 17 16  1  0
 18 17  2  0
 19 20  1  0
 19 13  2  0
 20 15  2  0
 21 14  1  0
 22 12  1  0
 24 26  2  0
 25 24  1  0
 27 25  1  0
 28 37  2  0
 28 33  1  0
 29 25  1  0
 29 33  1  0
 30 29  1  0
 31 32  1  0
 31 30  1  0
 32 28  1  0
 33 34  2  0
 34 35  1  0
 36 35  2  0
 37 36  1  0
 38 12  1  0
 38 39  1  0
 38 48  1  0
 39 42  1  0
 40 44  1  0
 40 39  1  0
 41 40  2  0
 44 43  1  0
 46 44  1  0
 46 47  1  0
 46 45  1  0
 48 51  1  1
 48 49  1  0
 50 48  1  0
 52  6  1  0
 52 53  1  0
 54 62  1  0
 55 60  1  0
 56 57  1  0
 56 55  1  0
 58 57  1  0
 58 67  1  0
 58 59  1  0
 60 54  1  0
 60 59  1  0
 61 54  2  0
 62 53  1  0
 62 63  1  0
 64 65  2  0
 65 84  1  0
 66 65  1  0
 66 69  1  0
 67 64  1  0
 67 68  1  0
 68 66  2  0
 69 70  1  0
 70 71  2  0
 72 75  1  0
 72 71  1  0
 73 72  2  0
 74 73  1  0
 74 69  2  0
 75 76  1  0
 76 77  1  0
 77 78  2  0
 79 78  1  0
 79 83  1  0
 80 79  2  0
 81 76  2  0
 81 80  1  0
 82 81  1  0
 84 85  1  0
 85 88  1  0
 85 87  1  0
 86 84  2  0
 89 90  1  0
 89 64  1  0
 91 89  1  0
M  ISO  4  10 101  11 101  54 100  62 100
M  END
>  <TORSDO>  (80) 
F 21

>  <SCORE>  (80) 
-13.625

>  <name>  (80) 
80

>  <ligand_id>  (80) 
80

>  <original_smiles>  (80) 
[H]c1c([H])c([H])c2c(c1[H])C([H])([H])C([H])([H])C([H])([H])C2([H])N([H])C(=O)C1([H])N(C(=O)C([H])(N([H])C(=O)C([H])(N([H])C([H])([H])[H])C([H])([H])[H])C(C([H])([H])[H])(C([H])([H])[H])C([H])([H])[H])C([H])([H])c2c([H])c(OC([H])([H])C([H])([H])C([H])([H])N3C([H])([H])C([H])([H])[N+]([H])(C([H])([H])C([H])([H])N([H])C(=O)N4C([H])([H])C([H])([H])C([H])([H])C([H])(n5nc(-c6c([H])c([H])c(Oc7c([H])c([H])c(F)c([H])c7F)c([H])c6[H])c(C(=O)N([H])[H])c5N([H])[H])C4([H])[H])C([H])([H])C3([H])[H])c([H])c([H])c2C1([H])[H]

>  <smiles>  (80) 
[H]c1c([H])c([H])c2c(c1[H])C([H])([H])C([H])([H])C([H])([H])C2([H])N([H])C(=O)C1([H])N(C(=O)C([H])(N([H])C(=O)C([H])(N([H])C([H])([H])[H])C([H])([H])[H])C(C([H])([H])[H])(C([H])([H])[H])C([H])([H])[H])C([H])([H])c2c([H])c(OC([H])([H])C([H])([H])C([H])([H])N3C([H])([H])C([H])([H])[N+]([H])(C([H])([H])C([H])([H])N([H])C(=O)N4C([H])([H])C([H])([H])C([H])([H])C([H])(n5nc(-c6c([H])c([H])c(Oc7c([H])c([H])c(F)c([H])c7F)c([H])c6[H])c(C(=O)N([H])[H])c5N([H])[H])C4([H])[H])C([H])([H])C3([H])[H])c([H])c([H])c2C1([H])[H]

$$$$
81:0:0
     RDKit          3D

 92100  0  0  1  0  0  0  0  0999 V2000
  -31.2660  -17.9370   18.3190 C   0  0  0  0  0  2  0  0  0  0  0  0
  -30.5600  -18.2610   16.9740 C   0  0  0  0  0  2  0  0  0  0  0  0
  -28.3630  -18.6880   18.0730 C   0  0  0  0  0  2  0  0  0  0  0  0
  -30.3150  -17.8110   19.5500 C   0  0  0  0  0  3  0  0  0  0  0  0
  -29.2100  -19.0680   19.3410 C   0  0  0  0  0  3  0  0  0  0  0  0
  -29.1180  -17.9490   17.0200 N   0  0  0  0  0  4  0  0  0  0  0  0
  -29.0280  -16.9570   17.1740 H   0  0  0  0  0  0  0  0  0  0  0  0
  -28.7010  -18.1260   16.1190 H   0  0  0  0  0  0  0  0  0  0  0  0
  -30.5960  -15.0930   20.0990 C   0  0  0  0  0  0  0  0  0  0  0  0
  -30.3940  -12.7310   19.2740 C   0  0  0  0  0  2  0  0  0  0  0  0
  -29.4320  -12.6810   18.0710 C   0  0  0  0  0  2  0  0  0  0  0  0
  -27.9860  -12.4680   18.5580 C   0  0  0  0  0  2  0  0  0  0  0  0
  -27.5980  -13.4170   19.7220 C   0  0  0  0  0  3  0  0  0  0  0  0
  -28.6970  -13.4910   20.8060 C   0  0  0  0  0  2  0  0  0  0  0  0
  -29.9460  -13.8620   20.1190 N   0  0  0  0  0  0  0  0  0  0  0  0
  -31.8280  -15.0810   20.0670 O   0  0  0  0  0  0  0  0  0  0  0  0
  -29.8860  -16.2920   19.8000 N   0  0  0  0  0  0  0  0  0  0  0  0
  -28.9080  -16.1080   19.6420 H   0  0  0  0  0  0  0  0  0  0  0  0
  -25.2270  -13.9800   20.5120 C   0  0  0  0  0  0  0  0  0  0  0  0
  -24.1680  -13.1920   20.8850 C   0  0  0  0  0  0  0  0  0  0  0  0
  -24.6470  -11.8480   20.8500 C   0  0  0  0  0  0  0  0  0  0  0  0
  -26.2760  -13.1100   20.2620 N   0  0  0  0  0  0  0  0  0  0  0  0
  -25.9390  -11.8250   20.5380 N   0  0  0  0  0  0  0  0  0  0  0  0
  -23.9320  -10.5770   21.0300 C   0  0  0  0  0  0  0  0  0  0  0  0
  -24.3520   -9.6210   21.9820 C   0  0  0  0  0  3  0  0  0  0  0  0
  -23.6310   -8.4200   22.1570 C   0  0  0  0  0  3  0  0  0  0  0  0
  -22.4790   -8.1610   21.3730 C   0  0  0  0  0  0  0  0  0  0  0  0
  -22.0800   -9.1060   20.4130 C   0  0  0  0  0  3  0  0  0  0  0  0
  -22.8010  -10.3000   20.2370 C   0  0  0  0  0  3  0  0  0  0  0  0
  -21.7370   -7.0060   21.4520 O   0  0  0  0  0  0  0  0  0  0  0  0
  -21.6420   -6.2920   22.6170 C   0  0  0  0  0  0  0  0  0  0  0  0
  -21.1100   -6.8590   23.7970 C   0  0  0  0  0  3  0  0  0  0  0  0
  -20.9670   -6.0670   24.9530 C   0  0  0  0  0  3  0  0  0  0  0  0
  -21.3400   -4.7100   24.9300 C   0  0  0  0  0  0  0  0  0  0  0  0
  -21.8670   -4.1440   23.7570 C   0  0  0  0  0  3  0  0  0  0  0  0
  -22.0120   -4.9320   22.6000 C   0  0  0  0  0  0  0  0  0  0  0  0
  -22.4990   -4.3750   21.4650 F   0  0  0  0  0  0  0  0  0  0  0  0
  -21.1960   -3.9500   26.0400 F   0  0  0  0  0  0  0  0  0  0  0  0
  -22.7670  -13.6610   21.1540 C   0  0  0  0  0  0  0  0  0  0  0  0
  -22.0410  -12.9460   22.0070 N   0  0  0  0  0  0  0  0  0  0  0  0
  -22.3270  -14.6870   20.6410 O   0  0  0  0  0  0  0  0  0  0  0  0
  -22.4130  -12.1120   22.4330 H   0  0  0  0  0  0  0  0  0  0  0  0
  -21.1070  -13.2470   22.2410 H   0  0  0  0  0  0  0  0  0  0  0  0
  -25.3750  -15.3470   20.3400 N   0  0  0  0  0  0  0  0  0  0  0  0
  -24.6090  -16.0020   20.4510 H   0  0  0  0  0  0  0  0  0  0  0  0
  -26.2220  -15.7950   20.0290 H   0  0  0  0  0  0  0  0  0  0  0  0
  -29.6640  -20.5820   19.3450 N   0  0  0  0  0  0  0  0  0  0  0  0
  -30.3370  -20.6970   18.5870 H   0  0  0  0  0  0  0  0  0  0  0  0
  -28.7450  -21.8600   19.3160 C   0  0  0  0  0  3  0  0  0  0  0  0
  -29.1750  -23.4640   19.7250 C   0  0  0  0  0  3  0  0  0  0  0  0
  -28.1090  -24.8010   19.7490 C   0  0  0  0  0  2  0  0  0  0  0  0
  -28.3230  -26.3210   20.1000 O   0  0  0  0  0  0  0  0  0  0  0  0
  -24.6080  -31.9830   23.2720 C   0  0  0  0  0  0  0  0  0  0  0  0
  -27.2350  -27.2870   20.1410 C   0  0  0  0  0  0  0  0  0  0  0  0
  -23.4140  -30.5760   21.6410 C   0  0  0  0  0  3  0  0  0  0  0  0
  -24.8690  -29.0120   20.2080 C   0  0  0  0  0  0  0  0  0  0  0  0
  -25.9690  -30.8510   21.4690 C   0  0  0  0  0  2  0  0  0  0  0  0
  -26.0560  -29.4590   20.8070 C   0  0  0  0  0  0  0  0  0  0  0  0
  -27.2360  -28.6130   20.7600 C   0  0  0  0  0  3  0  0  0  0  0  0
  -26.0070  -26.9450   19.5360 C   0  0  0  0  0  3  0  0  0  0  0  0
  -24.8590  -27.7670   19.5690 C   0  0  0  0  0  3  0  0  0  0  0  0
  -23.6360  -29.8990   20.2640 C   0  0  0  0  0  2  0  0  0  0  0  0
  -24.6840  -31.1600   22.1820 N   0  0  0  0  0  0  0  0  0  0  0  0
  -23.5200  -32.2610   23.7990 O   0  0  0  0  0  0  0  0  0  0  0  0
  -22.7380  -29.5690   22.6010 C   0  0  0  0  0  0  0  0  0  0  0  0
  -21.4130  -29.3790   22.4650 N   0  0  0  0  0  0  0  0  0  0  0  0
  -23.4100  -28.9610   23.4360 O   0  0  0  0  0  0  0  0  0  0  0  0
  -20.9230  -29.9280   21.7720 H   0  0  0  0  0  0  0  0  0  0  0  0
  -18.0440  -28.1380   22.9650 C   0  0  0  0  0  0  0  0  0  0  0  0
  -20.5990  -28.4340   23.2350 C   0  0  0  0  0  3  0  0  0  0  0  0
  -20.7180  -26.9990   22.6630 C   0  0  0  0  0  2  0  0  0  0  0  0
  -19.6210  -26.6620   21.6460 C   0  0  0  0  0  2  0  0  0  0  0  0
  -18.2380  -26.7900   22.2890 C   0  0  0  0  0  2  0  0  0  0  0  0
  -19.1530  -28.9160   23.3930 C   0  0  0  0  0  0  0  0  0  0  0  0
  -18.9160  -30.1760   23.9850 C   0  0  0  0  0  3  0  0  0  0  0  0
  -17.6060  -30.6600   24.1490 C   0  0  0  0  0  3  0  0  0  0  0  0
  -16.5100  -29.8810   23.7350 C   0  0  0  0  0  3  0  0  0  0  0  0
  -16.7320  -28.6190   23.1510 C   0  0  0  0  0  3  0  0  0  0  0  0
  -25.8830  -32.6300   23.8950 C   0  0  0  0  0  3  0  0  0  0  0  0
  -26.3980  -31.8670   25.1790 C   0  0  1  0  0  0  0  0  0  0  0  0
  -25.2970  -31.5970   26.2330 C   0  0  0  0  0  1  0  0  0  0  0  0
  -27.0250  -30.5040   24.8000 C   0  0  0  0  0  1  0  0  0  0  0  0
  -27.5220  -32.6890   25.8570 C   0  0  0  0  0  1  0  0  0  0  0  0
  -25.5590  -34.0270   24.2270 N   0  0  0  0  0  0  0  0  0  0  0  0
  -25.8670  -35.0830   23.4620 C   0  0  0  0  0  0  0  0  0  0  0  0
  -26.5180  -34.9830   22.4200 O   0  0  0  0  0  0  0  0  0  0  0  0
  -24.9730  -34.1720   25.0380 H   0  0  0  0  0  0  0  0  0  0  0  0
  -24.1060  -36.8580   23.1540 C   0  0  0  0  0  1  0  0  0  0  0  0
  -25.3790  -36.4690   23.9260 C   0  0  0  0  0  3  0  0  0  0  0  0
  -27.5240  -37.3940   24.6920 C   0  0  0  0  0  1  0  0  0  0  0  0
  -26.3960  -37.5360   23.7750 N   0  0  0  0  0  0  0  0  0  0  0  0
  -25.9790  -38.4520   23.9270 H   0  0  0  0  0  0  0  0  0  0  0  0
  1  4  1  0
  2  6  1  0
  2  1  1  0
  3  5  1  0
  4 17  1  0
  5 47  1  0
  5  4  1  0
  6  7  1  0
  6  3  1  0
  8  6  1  0
  9 15  1  0
 10 15  1  0
 11 12  1  0
 11 10  1  0
 13 12  1  0
 13 22  1  0
 13 14  1  0
 15 14  1  0
 16  9  2  0
 17  9  1  0
 18 17  1  0
 19 20  2  0
 20 39  1  0
 21 20  1  0
 21 24  1  0
 22 19  1  0
 22 23  1  0
 23 21  2  0
 24 25  1  0
 25 26  2  0
 27 30  1  0
 27 26  1  0
 28 27  2  0
 29 28  1  0
 29 24  2  0
 30 31  1  0
 31 32  1  0
 32 33  2  0
 34 33  1  0
 34 38  1  0
 35 34  2  0
 36 31  2  0
 36 35  1  0
 37 36  1  0
 39 40  1  0
 40 43  1  0
 40 42  1  0
 41 39  2  0
 44 45  1  0
 44 19  1  0
 46 44  1  0
 48 47  1  0
 49 47  1  0
 49 50  2  0
 50 51  1  0
 51 52  1  0
 52 54  1  0
 53 64  2  0
 54 59  1  0
 55 63  1  0
 55 65  1  0
 56 62  1  0
 56 58  1  0
 57 63  1  0
 58 57  1  0
 59 58  2  0
 60 61  1  0
 60 54  2  0
 61 56  2  0
 62 55  1  0
 63 53  1  0
 65 67  2  0
 66 65  1  0
 68 66  1  0
 69 78  2  0
 69 74  1  0
 70 66  1  0
 70 74  1  0
 71 70  1  0
 72 73  1  0
 72 71  1  0
 73 69  1  0
 74 75  2  0
 75 76  1  0
 77 76  2  0
 78 77  1  0
 79 53  1  0
 79 84  1  0
 79 80  1  0
 80 83  1  1
 80 81  1  0
 82 80  1  0
 84 87  1  0
 85 89  1  0
 85 84  1  0
 86 85  2  0
 89 88  1  0
 91 89  1  0
 91 92  1  0
 91 90  1  0
M  ISO  4   9 100  17 100  51 101  52 101
M  END
>  <TORSDO>  (81) 
F 20

>  <SCORE>  (81) 
-14.922

>  <name>  (81) 
81

>  <ligand_id>  (81) 
81

>  <original_smiles>  (81) 
[H]c1c([H])c([H])c2c(c1[H])C([H])([H])C([H])([H])C([H])([H])C2([H])N([H])C(=O)C1([H])N(C(=O)C([H])(N([H])C(=O)C([H])(N([H])C([H])([H])[H])C([H])([H])[H])C(C([H])([H])[H])(C([H])([H])[H])C([H])([H])[H])C([H])([H])c2c([H])c(OC([H])([H])C([H])([H])C([H])([H])N([H])C3([H])C([H])(N([H])C(=O)N4C([H])([H])C([H])([H])C([H])([H])C([H])(n5nc(-c6c([H])c([H])c(Oc7c([H])c([H])c(F)c([H])c7F)c([H])c6[H])c(C(=O)N([H])[H])c5N([H])[H])C4([H])[H])C([H])([H])C([H])([H])[N+]([H])([H])C3([H])[H])c([H])c([H])c2C1([H])[H]

>  <smiles>  (81) 
[H]c1c([H])c([H])c2c(c1[H])C([H])([H])C([H])([H])C([H])([H])C2([H])N([H])C(=O)C1([H])N(C(=O)C([H])(N([H])C(=O)C([H])(N([H])C([H])([H])[H])C([H])([H])[H])C(C([H])([H])[H])(C([H])([H])[H])C([H])([H])[H])C([H])([H])c2c([H])c(OC([H])([H])C([H])([H])C([H])([H])N([H])C3([H])C([H])(N([H])C(=O)N4C([H])([H])C([H])([H])C([H])([H])C([H])(n5nc(-c6c([H])c([H])c(Oc7c([H])c([H])c(F)c([H])c7F)c([H])c6[H])c(C(=O)N([H])[H])c5N([H])[H])C4([H])[H])C([H])([H])C([H])([H])[N+]([H])([H])C3([H])[H])c([H])c([H])c2C1([H])[H]

$$$$
82:0:0
     RDKit          3D

 90 98  0  0  1  0  0  0  0  0999 V2000
  -29.9440  -21.1250   20.1090 C   0  0  0  0  0  3  0  0  0  0  0  0
  -29.5640  -19.7650   19.5170 N   0  0  0  0  0  4  0  0  0  0  0  0
  -28.7160  -19.4790   19.9780 H   0  0  0  0  0  0  0  0  0  0  0  0
  -29.3370  -19.9020   18.5450 H   0  0  0  0  0  0  0  0  0  0  0  0
  -30.5350  -18.5790   19.5990 C   0  0  0  0  0  2  0  0  0  0  0  0
  -31.2360  -14.8360   19.7680 C   0  0  0  0  0  0  0  0  0  0  0  0
  -30.9840  -12.4900   18.9280 C   0  0  0  0  0  2  0  0  0  0  0  0
  -29.9650  -12.4240   17.7680 C   0  0  0  0  0  2  0  0  0  0  0  0
  -28.5300  -12.2610   18.3050 C   0  0  0  0  0  2  0  0  0  0  0  0
  -28.2110  -13.2490   19.4560 C   0  0  0  0  0  3  0  0  0  0  0  0
  -29.3390  -13.2760   20.5080 C   0  0  0  0  0  2  0  0  0  0  0  0
  -30.6040  -13.6090   19.8260 N   0  0  0  0  0  0  0  0  0  0  0  0
  -32.2800  -14.9670   19.1220 O   0  0  0  0  0  0  0  0  0  0  0  0
  -29.3480  -16.9730   22.0790 C   0  0  0  0  0  2  0  0  0  0  0  0
  -28.7040  -17.1820   20.7110 C   0  0  0  0  0  2  0  0  0  0  0  0
  -30.5870  -16.1100   21.7930 C   0  0  0  0  0  2  0  0  0  0  0  0
  -29.8690  -17.1100   19.7210 C   0  0  0  0  0  3  0  0  0  0  0  0
  -30.6360  -15.9480   20.3370 N   0  0  0  0  0  0  0  0  0  0  0  0
  -25.9210  -13.8650   20.4590 C   0  0  0  0  0  0  0  0  0  0  0  0
  -24.8780  -13.1030   20.9040 C   0  0  0  0  0  0  0  0  0  0  0  0
  -25.2820  -11.7450   20.7310 C   0  0  0  0  0  0  0  0  0  0  0  0
  -26.9080  -12.9750   20.0620 N   0  0  0  0  0  0  0  0  0  0  0  0
  -26.5310  -11.6880   20.2830 N   0  0  0  0  0  0  0  0  0  0  0  0
  -24.5260  -10.4990   20.9070 C   0  0  0  0  0  0  0  0  0  0  0  0
  -24.9020   -9.5360   21.8680 C   0  0  0  0  0  3  0  0  0  0  0  0
  -24.1460   -8.3550   22.0320 C   0  0  0  0  0  3  0  0  0  0  0  0
  -22.9980   -8.1310   21.2350 C   0  0  0  0  0  0  0  0  0  0  0  0
  -22.6420   -9.0810   20.2630 C   0  0  0  0  0  3  0  0  0  0  0  0
  -23.3980  -10.2540   20.0970 C   0  0  0  0  0  3  0  0  0  0  0  0
  -22.2190   -7.0020   21.3060 O   0  0  0  0  0  0  0  0  0  0  0  0
  -21.9620   -6.3800   22.5020 C   0  0  0  0  0  0  0  0  0  0  0  0
  -21.3660   -7.0640   23.5840 C   0  0  0  0  0  3  0  0  0  0  0  0
  -21.0560   -6.3690   24.7700 C   0  0  0  0  0  3  0  0  0  0  0  0
  -21.3310   -4.9920   24.8730 C   0  0  0  0  0  0  0  0  0  0  0  0
  -21.9200   -4.3090   23.7940 C   0  0  0  0  0  3  0  0  0  0  0  0
  -22.2310   -5.0010   22.6100 C   0  0  0  0  0  0  0  0  0  0  0  0
  -22.7790   -4.3340   21.5660 F   0  0  0  0  0  0  0  0  0  0  0  0
  -21.0270   -4.3220   26.0090 F   0  0  0  0  0  0  0  0  0  0  0  0
  -23.5380  -13.6090   21.3560 C   0  0  0  0  0  0  0  0  0  0  0  0
  -22.8960  -12.9040   22.2800 N   0  0  0  0  0  0  0  0  0  0  0  0
  -23.0740  -14.6650   20.9270 O   0  0  0  0  0  0  0  0  0  0  0  0
  -23.2840  -12.0510   22.6530 H   0  0  0  0  0  0  0  0  0  0  0  0
  -22.0000  -13.2240   22.6210 H   0  0  0  0  0  0  0  0  0  0  0  0
  -26.0880  -15.2370   20.3290 N   0  0  0  0  0  0  0  0  0  0  0  0
  -25.3320  -15.8820   20.5320 H   0  0  0  0  0  0  0  0  0  0  0  0
  -26.8670  -15.6750   19.8570 H   0  0  0  0  0  0  0  0  0  0  0  0
  -28.9180  -22.3520   19.8830 C   0  0  0  0  0  3  0  0  0  0  0  0
  -29.2640  -23.8480   20.3830 C   0  0  0  0  0  3  0  0  0  0  0  0
  -28.2240  -25.0170   20.0300 C   0  0  0  0  0  3  0  0  0  0  0  0
  -28.4250  -26.4390   20.4420 O   0  0  0  0  0  0  0  0  0  0  0  0
  -24.7060  -31.8830   23.4380 C   0  0  0  0  0  0  0  0  0  0  0  0
  -27.3230  -27.3190   20.3710 C   0  0  0  0  0  0  0  0  0  0  0  0
  -23.5140  -30.5110   21.7690 C   0  0  0  0  0  3  0  0  0  0  0  0
  -24.9710  -28.9670   20.3440 C   0  0  0  0  0  0  0  0  0  0  0  0
  -26.0610  -30.8070   21.6240 C   0  0  0  0  0  2  0  0  0  0  0  0
  -26.1380  -29.4340   20.9630 C   0  0  0  0  0  0  0  0  0  0  0  0
  -27.3150  -28.6230   20.9670 C   0  0  0  0  0  3  0  0  0  0  0  0
  -26.1320  -26.9190   19.7190 C   0  0  0  0  0  3  0  0  0  0  0  0
  -24.9730  -27.7170   19.7110 C   0  0  0  0  0  3  0  0  0  0  0  0
  -23.7400  -29.8500   20.3850 C   0  0  0  0  0  2  0  0  0  0  0  0
  -24.7790  -31.0850   22.3340 N   0  0  0  0  0  0  0  0  0  0  0  0
  -23.6170  -32.1650   23.9610 O   0  0  0  0  0  0  0  0  0  0  0  0
  -22.8300  -29.4900   22.7110 C   0  0  0  0  0  0  0  0  0  0  0  0
  -21.5160  -29.2830   22.5270 N   0  0  0  0  0  0  0  0  0  0  0  0
  -23.4850  -28.8880   23.5670 O   0  0  0  0  0  0  0  0  0  0  0  0
  -21.0460  -29.8210   21.8110 H   0  0  0  0  0  0  0  0  0  0  0  0
  -18.1460  -28.0160   22.8850 C   0  0  0  0  0  0  0  0  0  0  0  0
  -20.6820  -28.3360   23.2710 C   0  0  0  0  0  3  0  0  0  0  0  0
  -20.8420  -26.9010   22.7200 C   0  0  0  0  0  2  0  0  0  0  0  0
  -19.7970  -26.5400   21.6610 C   0  0  0  0  0  2  0  0  0  0  0  0
  -18.3830  -26.6640   22.2370 C   0  0  0  0  0  2  0  0  0  0  0  0
  -19.2260  -28.8090   23.3570 C   0  0  0  0  0  0  0  0  0  0  0  0
  -18.9530  -30.0730   23.9220 C   0  0  0  0  0  3  0  0  0  0  0  0
  -17.6310  -30.5470   24.0200 C   0  0  0  0  0  3  0  0  0  0  0  0
  -16.5640  -29.7530   23.5670 C   0  0  0  0  0  3  0  0  0  0  0  0
  -16.8220  -28.4890   23.0050 C   0  0  0  0  0  3  0  0  0  0  0  0
  -25.9850  -32.5000   24.0830 C   0  0  0  0  0  3  0  0  0  0  0  0
  -25.7170  -33.9250   24.3240 N   0  0  0  0  0  0  0  0  0  0  0  0
  -26.0990  -34.9200   23.5130 C   0  0  0  0  0  0  0  0  0  0  0  0
  -26.7820  -34.7350   22.5020 O   0  0  0  0  0  0  0  0  0  0  0  0
  -25.1150  -34.1460   25.1030 H   0  0  0  0  0  0  0  0  0  0  0  0
  -24.4350  -36.7450   23.0300 C   0  0  0  0  0  1  0  0  0  0  0  0
  -25.6530  -36.3500   23.8810 C   0  0  0  0  0  3  0  0  0  0  0  0
  -27.8000  -37.2200   24.6930 C   0  0  0  0  0  1  0  0  0  0  0  0
  -26.7200  -37.3600   23.7200 N   0  0  0  0  0  0  0  0  0  0  0  0
  -26.3420  -38.3000   23.7990 H   0  0  0  0  0  0  0  0  0  0  0  0
  -26.4130  -31.7820   25.4220 C   0  0  1  0  0  0  0  0  0  0  0  0
  -25.2600  -31.6290   26.4400 C   0  0  0  0  0  1  0  0  0  0  0  0
  -26.9760  -30.3710   25.1300 C   0  0  0  0  0  1  0  0  0  0  0  0
  -27.5490  -32.5800   26.1040 C   0  0  0  0  0  1  0  0  0  0  0  0
  2  5  1  0
  2  3  1  0
  2  1  1  0
  4  2  1  0
  6 12  1  0
  6 18  1  0
  7 12  1  0
  8  9  1  0
  8  7  1  0
 10  9  1  0
 10 22  1  0
 10 11  1  0
 12 11  1  0
 13  6  2  0
 15 14  1  0
 16 14  1  0
 17  5  1  0
 17 18  1  0
 17 15  1  0
 18 16  1  0
 19 20  2  0
 20 39  1  0
 21 20  1  0
 21 24  1  0
 22 23  1  0
 22 19  1  0
 23 21  2  0
 24 25  1  0
 25 26  2  0
 27 30  1  0
 27 26  1  0
 28 27  2  0
 29 28  1  0
 29 24  2  0
 30 31  1  0
 31 36  2  0
 31 32  1  0
 32 33  2  0
 33 34  1  0
 34 38  1  0
 35 34  2  0
 36 35  1  0
 37 36  1  0
 39 40  1  0
 40 43  1  0
 40 42  1  0
 41 39  2  0
 44 19  1  0
 44 45  1  0
 46 44  1  0
 47  1  2  0
 47 48  1  0
 49 48  2  0
 49 50  1  0
 51 62  2  0
 52 50  1  0
 52 57  1  0
 53 61  1  0
 53 63  1  0
 54 60  1  0
 54 56  1  0
 55 61  1  0
 56 57  2  0
 56 55  1  0
 58 52  2  0
 59 58  1  0
 59 54  2  0
 60 53  1  0
 61 51  1  0
 63 65  2  0
 64 63  1  0
 66 64  1  0
 67 76  2  0
 67 72  1  0
 68 64  1  0
 68 72  1  0
 69 68  1  0
 70 71  1  0
 70 69  1  0
 71 67  1  0
 72 73  2  0
 73 74  1  0
 75 74  2  0
 76 75  1  0
 77 51  1  0
 77 78  1  0
 77 87  1  0
 78 81  1  0
 79 83  1  0
 79 78  1  0
 80 79  2  0
 83 82  1  0
 85 86  1  0
 85 83  1  0
 85 84  1  0
 87 90  1  1
 87 88  1  0
 89 87  1  0
M  ISO  4   6 100  18 100  49 101  50 101
M  END
>  <TORSDO>  (82) 
F 21

>  <SCORE>  (82) 
-11.520

>  <name>  (82) 
82

>  <ligand_id>  (82) 
82

>  <original_smiles>  (82) 
[H]c1c([H])c([H])c2c(c1[H])C([H])([H])C([H])([H])C([H])([H])C2([H])N([H])C(=O)C1([H])N(C(=O)C([H])(N([H])C(=O)C([H])(N([H])C([H])([H])[H])C([H])([H])[H])C(C([H])([H])[H])(C([H])([H])[H])C([H])([H])[H])C([H])([H])c2c([H])c(OC([H])([H])C([H])([H])C([H])([H])C([H])([H])[N+]([H])([H])C([H])([H])C3([H])N(C(=O)N4C([H])([H])C([H])([H])C([H])([H])C([H])(n5nc(-c6c([H])c([H])c(Oc7c([H])c([H])c(F)c([H])c7F)c([H])c6[H])c(C(=O)N([H])[H])c5N([H])[H])C4([H])[H])C([H])([H])C([H])([H])C3([H])[H])c([H])c([H])c2C1([H])[H]

>  <smiles>  (82) 
[H]c1c([H])c([H])c2c(c1[H])C([H])([H])C([H])([H])C([H])([H])C2([H])N([H])C(=O)C1([H])N(C(=O)C([H])(N([H])C(=O)C([H])(N([H])C([H])([H])[H])C([H])([H])[H])C(C([H])([H])[H])(C([H])([H])[H])C([H])([H])[H])C([H])([H])c2c([H])c(OC([H])([H])C([H])([H])C([H])([H])C([H])([H])[N+]([H])([H])C([H])([H])C3([H])N(C(=O)N4C([H])([H])C([H])([H])C([H])([H])C([H])(n5nc(-c6c([H])c([H])c(Oc7c([H])c([H])c(F)c([H])c7F)c([H])c6[H])c(C(=O)N([H])[H])c5N([H])[H])C4([H])[H])C([H])([H])C([H])([H])C3([H])[H])c([H])c([H])c2C1([H])[H]

$$$$
84:0:0
     RDKit          3D

 91100  0  0  1  0  0  0  0  0999 V2000
  -31.4170  -20.0670   19.1500 C   0  0  0  0  0  2  0  0  0  0  0  0
  -31.5210  -20.2530   20.6790 C   0  0  0  0  0  2  0  0  0  0  0  0
  -29.5730  -18.2910   19.0050 C   0  0  0  0  0  2  0  0  0  0  0  0
  -29.7530  -18.5510   21.4140 C   0  0  0  0  0  2  0  0  0  0  0  0
  -30.1580  -17.5340   20.2590 C   0  0  0  0  0  3  0  0  0  0  0  0
  -29.9010  -19.8630   18.9210 C   0  0  0  0  0  3  0  0  0  0  0  0
  -30.0570  -20.1240   21.1460 C   0  0  0  0  0  3  0  0  0  0  0  0
  -29.2750  -20.7230   19.9990 N   0  0  1  0  0  4  0  0  0  0  0  0
  -28.2970  -20.4900   20.0860 H   0  0  0  0  0  0  0  0  0  0  0  0
  -30.5850  -14.8570   20.2190 C   0  0  0  0  0  0  0  0  0  0  0  0
  -30.3840  -12.5630   19.2170 C   0  0  0  0  0  2  0  0  0  0  0  0
  -29.4270  -12.6230   18.0060 C   0  0  0  0  0  2  0  0  0  0  0  0
  -27.9650  -12.4360   18.4600 C   0  0  0  0  0  2  0  0  0  0  0  0
  -27.6060  -13.3180   19.6870 C   0  0  0  0  0  3  0  0  0  0  0  0
  -28.6860  -13.2460   20.7890 C   0  0  0  0  0  2  0  0  0  0  0  0
  -29.9620  -13.6230   20.1690 N   0  0  0  0  0  0  0  0  0  0  0  0
  -31.7720  -14.9360   19.8930 O   0  0  0  0  0  0  0  0  0  0  0  0
  -29.8180  -16.0170   20.4150 N   0  0  0  0  0  0  0  0  0  0  0  0
  -28.8560  -15.8230   20.6480 H   0  0  0  0  0  0  0  0  0  0  0  0
  -25.2320  -13.9000   20.4580 C   0  0  0  0  0  0  0  0  0  0  0  0
  -24.1740  -13.1250   20.8430 C   0  0  0  0  0  0  0  0  0  0  0  0
  -24.6380  -11.7740   20.8030 C   0  0  0  0  0  0  0  0  0  0  0  0
  -26.2730  -13.0220   20.2010 N   0  0  0  0  0  0  0  0  0  0  0  0
  -25.9240  -11.7380   20.4730 N   0  0  0  0  0  0  0  0  0  0  0  0
  -23.9140  -10.5110   21.0010 C   0  0  0  0  0  0  0  0  0  0  0  0
  -24.3510   -9.5480   21.9370 C   0  0  0  0  0  3  0  0  0  0  0  0
  -23.6290   -8.3500   22.1230 C   0  0  0  0  0  3  0  0  0  0  0  0
  -22.4540   -8.1070   21.3720 C   0  0  0  0  0  0  0  0  0  0  0  0
  -22.0360   -9.0570   20.4240 C   0  0  0  0  0  3  0  0  0  0  0  0
  -22.7590  -10.2460   20.2360 C   0  0  0  0  0  3  0  0  0  0  0  0
  -21.7030   -6.9610   21.4690 O   0  0  0  0  0  0  0  0  0  0  0  0
  -21.6490   -6.2280   22.6270 C   0  0  0  0  0  0  0  0  0  0  0  0
  -21.1960   -6.7880   23.8420 C   0  0  0  0  0  3  0  0  0  0  0  0
  -21.0920   -5.9810   24.9930 C   0  0  0  0  0  3  0  0  0  0  0  0
  -21.4310   -4.6160   24.9300 C   0  0  0  0  0  0  0  0  0  0  0  0
  -21.8740   -4.0550   23.7190 C   0  0  0  0  0  3  0  0  0  0  0  0
  -21.9790   -4.8590   22.5700 C   0  0  0  0  0  0  0  0  0  0  0  0
  -22.3890   -4.3090   21.4010 F   0  0  0  0  0  0  0  0  0  0  0  0
  -21.3220   -3.8400   26.0320 F   0  0  0  0  0  0  0  0  0  0  0  0
  -22.7810  -13.6010   21.1320 C   0  0  0  0  0  0  0  0  0  0  0  0
  -22.0630  -12.9000   22.0040 N   0  0  0  0  0  0  0  0  0  0  0  0
  -22.3360  -14.6270   20.6190 O   0  0  0  0  0  0  0  0  0  0  0  0
  -22.4360  -12.0720   22.4410 H   0  0  0  0  0  0  0  0  0  0  0  0
  -21.1250  -13.1960   22.2340 H   0  0  0  0  0  0  0  0  0  0  0  0
  -25.3910  -15.2720   20.2790 N   0  0  0  0  0  0  0  0  0  0  0  0
  -24.6190  -15.9200   20.3940 H   0  0  0  0  0  0  0  0  0  0  0  0
  -26.2180  -15.7090   19.8960 H   0  0  0  0  0  0  0  0  0  0  0  0
  -29.3780  -22.2720   19.6770 C   0  0  0  0  0  3  0  0  0  0  0  0
  -28.6000  -23.5170   20.4290 C   0  0  0  0  0  3  0  0  0  0  0  0
  -28.5550  -25.0060   19.7020 C   0  0  0  0  0  2  0  0  0  0  0  0
  -28.3820  -26.3730   20.3550 O   0  0  0  0  0  0  0  0  0  0  0  0
  -24.5940  -31.8690   23.2490 C   0  0  0  0  0  0  0  0  0  0  0  0
  -27.2640  -27.2480   20.2350 C   0  0  0  0  0  0  0  0  0  0  0  0
  -23.4190  -30.4600   21.5950 C   0  0  0  0  0  3  0  0  0  0  0  0
  -24.8950  -28.9020   20.1860 C   0  0  0  0  0  0  0  0  0  0  0  0
  -25.9650  -30.7710   21.4490 C   0  0  0  0  0  2  0  0  0  0  0  0
  -26.0570  -29.3850   20.8000 C   0  0  0  0  0  0  0  0  0  0  0  0
  -27.2370  -28.5680   20.8140 C   0  0  0  0  0  3  0  0  0  0  0  0
  -26.0750  -26.8360   19.5930 C   0  0  0  0  0  3  0  0  0  0  0  0
  -24.9120  -27.6390   19.5720 C   0  0  0  0  0  3  0  0  0  0  0  0
  -23.6540  -29.7770   20.2220 C   0  0  0  0  0  2  0  0  0  0  0  0
  -24.6770  -31.0540   22.1540 N   0  0  0  0  0  0  0  0  0  0  0  0
  -23.5010  -32.1430   23.7690 O   0  0  0  0  0  0  0  0  0  0  0  0
  -22.7420  -29.4490   22.5530 C   0  0  0  0  0  0  0  0  0  0  0  0
  -21.4150  -29.2760   22.4190 N   0  0  0  0  0  0  0  0  0  0  0  0
  -23.4120  -28.8220   23.3770 O   0  0  0  0  0  0  0  0  0  0  0  0
  -20.9330  -29.8340   21.7280 H   0  0  0  0  0  0  0  0  0  0  0  0
  -18.0300  -28.0890   22.9030 C   0  0  0  0  0  0  0  0  0  0  0  0
  -20.5900  -28.3370   23.1800 C   0  0  0  0  0  3  0  0  0  0  0  0
  -20.6870  -26.9090   22.5950 C   0  0  0  0  0  2  0  0  0  0  0  0
  -19.5860  -26.5990   21.5760 C   0  0  0  0  0  2  0  0  0  0  0  0
  -18.2030  -26.7440   22.2180 C   0  0  0  0  0  2  0  0  0  0  0  0
  -19.1520  -28.8450   23.3400 C   0  0  0  0  0  0  0  0  0  0  0  0
  -18.9350  -30.1040   23.9410 C   0  0  0  0  0  3  0  0  0  0  0  0
  -17.6330  -30.6080   24.1090 C   0  0  0  0  0  3  0  0  0  0  0  0
  -16.5260  -29.8500   23.6880 C   0  0  0  0  0  3  0  0  0  0  0  0
  -16.7260  -28.5930   23.0920 C   0  0  0  0  0  3  0  0  0  0  0  0
  -25.8640  -32.5100   23.8870 C   0  0  0  0  0  3  0  0  0  0  0  0
  -26.3520  -31.7570   25.1880 C   0  0  1  0  0  0  0  0  0  0  0  0
  -25.2380  -31.5370   26.2370 C   0  0  0  0  0  1  0  0  0  0  0  0
  -26.9400  -30.3730   24.8300 C   0  0  0  0  0  1  0  0  0  0  0  0
  -27.4870  -32.5630   25.8620 C   0  0  0  0  0  1  0  0  0  0  0  0
  -25.5480  -33.9140   24.1950 N   0  0  0  0  0  0  0  0  0  0  0  0
  -25.8900  -34.9600   23.4330 C   0  0  0  0  0  0  0  0  0  0  0  0
  -26.5710  -34.8460   22.4110 O   0  0  0  0  0  0  0  0  0  0  0  0
  -24.9440  -34.0750   24.9870 H   0  0  0  0  0  0  0  0  0  0  0  0
  -24.1700  -36.7540   23.0370 C   0  0  0  0  0  1  0  0  0  0  0  0
  -25.3980  -36.3530   23.8700 C   0  0  0  0  0  3  0  0  0  0  0  0
  -27.5180  -37.2490   24.7250 C   0  0  0  0  0  1  0  0  0  0  0  0
  -26.4320  -37.4050   23.7610 N   0  0  0  0  0  0  0  0  0  0  0  0
  -26.0240  -38.3280   23.8910 H   0  0  0  0  0  0  0  0  0  0  0  0
  1  2  1  0
  3  5  1  0
  5 18  1  0
  5  4  1  0
  6  3  1  0
  6  1  1  0
  6  8  1  0
  7  2  1  0
  7  4  1  0
  8  9  1  1
  8  7  1  0
 10 18  1  0
 11 16  1  0
 12 13  1  0
 12 11  1  0
 14 13  1  0
 14 23  1  0
 14 15  1  0
 16 10  1  0
 16 15  1  0
 17 10  2  0
 18 19  1  0
 20 21  2  0
 21 40  1  0
 22 21  1  0
 22 25  1  0
 23 20  1  0
 23 24  1  0
 24 22  2  0
 25 26  1  0
 26 27  2  0
 28 31  1  0
 28 27  1  0
 29 28  2  0
 30 29  1  0
 30 25  2  0
 31 32  1  0
 32 33  1  0
 33 34  2  0
 35 34  1  0
 35 39  1  0
 36 35  2  0
 37 32  2  0
 37 36  1  0
 38 37  1  0
 40 41  1  0
 41 44  1  0
 41 43  1  0
 42 40  2  0
 45 46  1  0
 45 20  1  0
 47 45  1  0
 48  8  1  0
 48 49  2  0
 50 51  1  0
 50 49  1  0
 52 63  2  0
 53 51  1  0
 53 58  1  0
 54 62  1  0
 54 64  1  0
 55 61  1  0
 55 57  1  0
 56 62  1  0
 57 58  2  0
 57 56  1  0
 59 53  2  0
 60 59  1  0
 60 55  2  0
 61 54  1  0
 62 52  1  0
 64 66  2  0
 65 64  1  0
 67 65  1  0
 68 77  2  0
 68 73  1  0
 69 65  1  0
 69 73  1  0
 70 69  1  0
 71 72  1  0
 71 70  1  0
 72 68  1  0
 73 74  2  0
 74 75  1  0
 76 75  2  0
 77 76  1  0
 78 52  1  0
 78 83  1  0
 78 79  1  0
 79 82  1  1
 79 80  1  0
 81 79  1  0
 83 86  1  0
 84 88  1  0
 84 83  1  0
 85 84  2  0
 88 87  1  0
 90 88  1  0
 90 91  1  0
 90 89  1  0
M  ISO  4  10 100  18 100  50 101  51 101
M  END
>  <TORSDO>  (83) 
F 19

>  <SCORE>  (83) 
-14.010

>  <name>  (83) 
84

>  <ligand_id>  (83) 
84

>  <original_smiles>  (83) 
[H]c1c([H])c([H])c2c(c1[H])C([H])([H])C([H])([H])C([H])([H])C2([H])N([H])C(=O)C1([H])N(C(=O)C([H])(N([H])C(=O)C([H])(N([H])C([H])([H])[H])C([H])([H])[H])C(C([H])([H])[H])(C([H])([H])[H])C([H])([H])[H])C([H])([H])c2c([H])c(OC([H])([H])C([H])([H])C([H])([H])[N+]3([H])C4([H])C([H])([H])C([H])([H])C3([H])C([H])([H])C([H])(N([H])C(=O)N3C([H])([H])C([H])([H])C([H])([H])C([H])(n5nc(-c6c([H])c([H])c(Oc7c([H])c([H])c(F)c([H])c7F)c([H])c6[H])c(C(=O)N([H])[H])c5N([H])[H])C3([H])[H])C4([H])[H])c([H])c([H])c2C1([H])[H]

>  <smiles>  (83) 
[H]c1c([H])c([H])c2c(c1[H])C([H])([H])C([H])([H])C([H])([H])C2([H])N([H])C(=O)C1([H])N(C(=O)C([H])(N([H])C(=O)C([H])(N([H])C([H])([H])[H])C([H])([H])[H])C(C([H])([H])[H])(C([H])([H])[H])C([H])([H])[H])C([H])([H])c2c([H])c(OC([H])([H])C([H])([H])C([H])([H])[N+]3([H])C4([H])C([H])([H])C([H])([H])C3([H])C([H])([H])C([H])(N([H])C(=O)N3C([H])([H])C([H])([H])C([H])([H])C([H])(n5nc(-c6c([H])c([H])c(Oc7c([H])c([H])c(F)c([H])c7F)c([H])c6[H])c(C(=O)N([H])[H])c5N([H])[H])C3([H])[H])C4([H])[H])c([H])c([H])c2C1([H])[H]

$$$$
85:0:0
     RDKit          3D

 90 99  0  0  1  0  0  0  0  0999 V2000
  -30.5230  -15.1120   20.3590 C   0  0  0  0  0  0  0  0  0  0  0  0
  -30.3790  -12.7350   19.4310 C   0  0  0  0  0  2  0  0  0  0  0  0
  -29.4570  -12.6240   18.1960 C   0  0  0  0  0  2  0  0  0  0  0  0
  -27.9980  -12.3980   18.6310 C   0  0  0  0  0  2  0  0  0  0  0  0
  -27.5730  -13.3450   19.7820 C   0  0  0  0  0  3  0  0  0  0  0  0
  -28.6240  -13.4340   20.9070 C   0  0  0  0  0  2  0  0  0  0  0  0
  -29.8770  -13.8660   20.2750 N   0  0  0  0  0  0  0  0  0  0  0  0
  -31.7500  -15.0670   20.2070 O   0  0  0  0  0  0  0  0  0  0  0  0
  -28.0610  -22.4270   18.9530 C   0  0  0  0  0  2  0  0  0  0  0  0
  -28.6040  -21.0360   18.4230 C   0  0  0  0  0  2  0  0  0  0  0  0
  -29.0780  -18.4110   18.8140 C   0  0  0  0  0  2  0  0  0  0  0  0
  -28.8370  -16.9670   19.5250 C   0  0  0  0  0  2  0  0  0  0  0  0
  -30.4930  -17.6890   21.0770 C   0  0  0  0  0  2  0  0  0  0  0  0
  -29.6210  -19.0390   21.5220 C   0  0  0  0  0  2  0  0  0  0  0  0
  -28.9710  -21.6850   21.1580 C   0  0  0  0  0  2  0  0  0  0  0  0
  -28.8020  -23.0520   20.1800 C   0  0  0  0  0  3  0  0  0  0  0  0
  -28.6200  -19.8320   19.4360 C   0  0  0  0  0  3  0  0  0  0  0  0
  -29.8630  -16.4090   20.4820 N   0  0  0  0  0  0  0  0  0  0  0  0
  -29.4470  -20.2720   20.5870 N   0  0  2  0  0  4  0  0  0  0  0  0
  -30.3710  -20.4520   20.2240 H   0  0  0  0  0  0  0  0  0  0  0  0
  -25.2000  -13.9230   20.5210 C   0  0  0  0  0  0  0  0  0  0  0  0
  -24.1320  -13.1510   20.8840 C   0  0  0  0  0  0  0  0  0  0  0  0
  -24.5950  -11.7990   20.8600 C   0  0  0  0  0  0  0  0  0  0  0  0
  -26.2400  -13.0430   20.2870 N   0  0  0  0  0  0  0  0  0  0  0  0
  -25.8880  -11.7600   20.5600 N   0  0  0  0  0  0  0  0  0  0  0  0
  -23.8630  -10.5400   21.0460 C   0  0  0  0  0  0  0  0  0  0  0  0
  -24.2860   -9.5700   21.9830 C   0  0  0  0  0  3  0  0  0  0  0  0
  -23.5520   -8.3770   22.1570 C   0  0  0  0  0  3  0  0  0  0  0  0
  -22.3820   -8.1450   21.3960 C   0  0  0  0  0  0  0  0  0  0  0  0
  -21.9800   -9.1020   20.4480 C   0  0  0  0  0  3  0  0  0  0  0  0
  -22.7140  -10.2870   20.2710 C   0  0  0  0  0  3  0  0  0  0  0  0
  -21.6210   -7.0040   21.4800 O   0  0  0  0  0  0  0  0  0  0  0  0
  -21.5580   -6.2650   22.6340 C   0  0  0  0  0  0  0  0  0  0  0  0
  -21.1260   -6.8250   23.8560 C   0  0  0  0  0  3  0  0  0  0  0  0
  -21.0100   -6.0120   25.0010 C   0  0  0  0  0  3  0  0  0  0  0  0
  -21.3160   -4.6400   24.9260 C   0  0  0  0  0  0  0  0  0  0  0  0
  -21.7420   -4.0800   23.7090 C   0  0  0  0  0  3  0  0  0  0  0  0
  -21.8600   -4.8900   22.5650 C   0  0  0  0  0  0  0  0  0  0  0  0
  -22.2500   -4.3400   21.3900 F   0  0  0  0  0  0  0  0  0  0  0  0
  -21.1980   -3.8570   26.0240 F   0  0  0  0  0  0  0  0  0  0  0  0
  -22.7350  -13.6330   21.1380 C   0  0  0  0  0  0  0  0  0  0  0  0
  -21.9980  -12.9490   22.0060 N   0  0  0  0  0  0  0  0  0  0  0  0
  -22.3030  -14.6540   20.6030 O   0  0  0  0  0  0  0  0  0  0  0  0
  -22.3600  -12.1230   22.4610 H   0  0  0  0  0  0  0  0  0  0  0  0
  -21.0590  -13.2550   22.2190 H   0  0  0  0  0  0  0  0  0  0  0  0
  -25.3670  -15.2930   20.3430 N   0  0  0  0  0  0  0  0  0  0  0  0
  -24.6030  -15.9500   20.4520 H   0  0  0  0  0  0  0  0  0  0  0  0
  -26.2220  -15.7280   20.0240 H   0  0  0  0  0  0  0  0  0  0  0  0
  -28.1160  -24.5700   20.6940 C   0  0  0  0  0  2  0  0  0  0  0  0
  -28.3370  -26.0960   20.2900 O   0  0  0  0  0  0  0  0  0  0  0  0
  -24.6850  -31.8920   23.2460 C   0  0  0  0  0  0  0  0  0  0  0  0
  -27.2850  -27.1060   20.2760 C   0  0  0  0  0  0  0  0  0  0  0  0
  -23.4980  -30.4730   21.6200 C   0  0  0  0  0  3  0  0  0  0  0  0
  -24.9570  -28.8830   20.2150 C   0  0  0  0  0  0  0  0  0  0  0  0
  -26.0550  -30.7360   21.4590 C   0  0  0  0  0  2  0  0  0  0  0  0
  -26.1370  -29.3310   20.8220 C   0  0  0  0  0  0  0  0  0  0  0  0
  -27.3040  -28.4620   20.8260 C   0  0  0  0  0  3  0  0  0  0  0  0
  -26.0750  -26.7750   19.6300 C   0  0  0  0  0  3  0  0  0  0  0  0
  -24.9420  -27.6200   19.6010 C   0  0  0  0  0  3  0  0  0  0  0  0
  -23.7280  -29.7820   20.2500 C   0  0  0  0  0  2  0  0  0  0  0  0
  -24.7670  -31.0590   22.1620 N   0  0  0  0  0  0  0  0  0  0  0  0
  -23.5960  -32.1750   23.7680 O   0  0  0  0  0  0  0  0  0  0  0  0
  -22.8200  -29.4750   22.5930 C   0  0  0  0  0  0  0  0  0  0  0  0
  -21.4940  -29.2910   22.4630 N   0  0  0  0  0  0  0  0  0  0  0  0
  -23.4920  -28.8660   23.4280 O   0  0  0  0  0  0  0  0  0  0  0  0
  -21.0060  -29.8340   21.7640 H   0  0  0  0  0  0  0  0  0  0  0  0
  -18.1240  -28.0520   22.9620 C   0  0  0  0  0  0  0  0  0  0  0  0
  -20.6780  -28.3550   23.2420 C   0  0  0  0  0  3  0  0  0  0  0  0
  -20.8020  -26.9150   22.6900 C   0  0  0  0  0  2  0  0  0  0  0  0
  -19.7130  -26.5620   21.6730 C   0  0  0  0  0  2  0  0  0  0  0  0
  -18.3240  -26.6970   22.3050 C   0  0  0  0  0  2  0  0  0  0  0  0
  -19.2280  -28.8370   23.3870 C   0  0  0  0  0  0  0  0  0  0  0  0
  -18.9850  -30.1030   23.9630 C   0  0  0  0  0  3  0  0  0  0  0  0
  -17.6720  -30.5850   24.1180 C   0  0  0  0  0  3  0  0  0  0  0  0
  -16.5820  -29.7980   23.7060 C   0  0  0  0  0  3  0  0  0  0  0  0
  -16.8080  -28.5340   23.1350 C   0  0  0  0  0  3  0  0  0  0  0  0
  -25.9560  -32.5450   23.8700 C   0  0  0  0  0  3  0  0  0  0  0  0
  -25.6290  -33.9420   24.2000 N   0  0  0  0  0  0  0  0  0  0  0  0
  -25.9390  -35.0010   23.4410 C   0  0  0  0  0  0  0  0  0  0  0  0
  -26.5970  -34.9060   22.4020 O   0  0  0  0  0  0  0  0  0  0  0  0
  -25.0430  -34.0880   25.0090 H   0  0  0  0  0  0  0  0  0  0  0  0
  -24.1830  -36.7760   23.1220 C   0  0  0  0  0  1  0  0  0  0  0  0
  -25.4450  -36.3850   23.9070 C   0  0  0  0  0  3  0  0  0  0  0  0
  -27.5840  -37.3010   24.6940 C   0  0  0  0  0  1  0  0  0  0  0  0
  -26.4610  -37.4520   23.7720 N   0  0  0  0  0  0  0  0  0  0  0  0
  -26.0470  -38.3670   23.9250 H   0  0  0  0  0  0  0  0  0  0  0  0
  -26.4750  -31.7870   25.1550 C   0  0  1  0  0  0  0  0  0  0  0  0
  -25.3810  -31.5520   26.2240 C   0  0  0  0  0  1  0  0  0  0  0  0
  -27.0670  -30.4100   24.7820 C   0  0  0  0  0  1  0  0  0  0  0  0
  -27.6190  -32.5950   25.8120 C   0  0  0  0  0  1  0  0  0  0  0  0
  1 18  1  0
  2  7  1  0
  3  4  1  0
  3  2  1  0
  5  4  1  0
  5 24  1  0
  5  6  1  0
  7  1  1  0
  7  6  1  0
  8  1  2  0
  9 16  1  0
 10  9  1  0
 11 17  1  0
 11 12  1  0
 12 18  1  0
 13 14  1  0
 16 49  1  0
 16 15  1  0
 17 10  1  0
 17 19  1  0
 18 13  1  0
 19 20  1  6
 19 15  1  0
 19 14  1  0
 21 22  2  0
 22 41  1  0
 23 22  1  0
 23 26  1  0
 24 21  1  0
 24 25  1  0
 25 23  2  0
 26 27  1  0
 27 28  2  0
 29 32  1  0
 29 28  1  0
 30 29  2  0
 31 30  1  0
 31 26  2  0
 32 33  1  0
 33 34  1  0
 34 35  2  0
 36 35  1  0
 36 40  1  0
 37 36  2  0
 38 33  2  0
 38 37  1  0
 39 38  1  0
 41 42  1  0
 42 45  1  0
 42 44  1  0
 43 41  2  0
 46 47  1  0
 46 21  1  0
 48 46  1  0
 50 49  1  0
 51 62  2  0
 52 50  1  0
 52 57  1  0
 53 61  1  0
 53 63  1  0
 54 60  1  0
 54 56  1  0
 55 61  1  0
 56 57  2  0
 56 55  1  0
 58 52  2  0
 59 58  1  0
 59 54  2  0
 60 53  1  0
 61 51  1  0
 63 65  2  0
 64 63  1  0
 66 64  1  0
 67 76  2  0
 67 72  1  0
 68 64  1  0
 68 72  1  0
 69 68  1  0
 70 71  1  0
 70 69  1  0
 71 67  1  0
 72 73  2  0
 73 74  1  0
 75 74  2  0
 76 75  1  0
 77 51  1  0
 77 78  1  0
 77 87  1  0
 78 81  1  0
 79 83  1  0
 79 78  1  0
 80 79  2  0
 83 82  1  0
 85 83  1  0
 85 86  1  0
 85 84  1  0
 87 90  1  1
 87 88  1  0
 89 87  1  0
M  ISO  4   1 100  18 100  49 101  50 101
M  END
>  <TORSDO>  (84) 
F 16

>  <SCORE>  (84) 
-15.927

>  <name>  (84) 
85

>  <ligand_id>  (84) 
85

>  <original_smiles>  (84) 
[H]c1c([H])c([H])c2c(c1[H])C([H])([H])C([H])([H])C([H])([H])C2([H])N([H])C(=O)C1([H])N(C(=O)C([H])(N([H])C(=O)C([H])(N([H])C([H])([H])[H])C([H])([H])[H])C(C([H])([H])[H])(C([H])([H])[H])C([H])([H])[H])C([H])([H])c2c([H])c(OC([H])([H])C3([H])C([H])([H])C([H])([H])C4([H])C([H])([H])C([H])([H])N(C(=O)N5C([H])([H])C([H])([H])C([H])([H])C([H])(n6nc(-c7c([H])c([H])c(Oc8c([H])c([H])c(F)c([H])c8F)c([H])c7[H])c(C(=O)N([H])[H])c6N([H])[H])C5([H])[H])C([H])([H])C([H])([H])[N+]4([H])C3([H])[H])c([H])c([H])c2C1([H])[H]

>  <smiles>  (84) 
[H]c1c([H])c([H])c2c(c1[H])C([H])([H])C([H])([H])C([H])([H])C2([H])N([H])C(=O)C1([H])N(C(=O)C([H])(N([H])C(=O)C([H])(N([H])C([H])([H])[H])C([H])([H])[H])C(C([H])([H])[H])(C([H])([H])[H])C([H])([H])[H])C([H])([H])c2c([H])c(OC([H])([H])C3([H])C([H])([H])C([H])([H])C4([H])C([H])([H])C([H])([H])N(C(=O)N5C([H])([H])C([H])([H])C([H])([H])C([H])(n6nc(-c7c([H])c([H])c(Oc8c([H])c([H])c(F)c([H])c8F)c([H])c7[H])c(C(=O)N([H])[H])c6N([H])[H])C5([H])[H])C([H])([H])C([H])([H])[N+]4([H])C3([H])[H])c([H])c([H])c2C1([H])[H]

$$$$
86:0:0
     RDKit          3D

 92100  0  0  1  0  0  0  0  0999 V2000
  -30.5180  -23.3930   16.3740 C   0  0  0  0  0  2  0  0  0  0  0  0
  -31.4420  -24.1830   17.3190 C   0  0  0  0  0  2  0  0  0  0  0  0
  -30.0940  -22.0150   16.9110 C   0  0  0  0  0  2  0  0  0  0  0  0
  -30.8010  -24.7120   18.6160 C   0  0  0  0  0  2  0  0  0  0  0  0
  -28.6740  -21.9550   17.5040 C   0  0  0  0  0  2  0  0  0  0  0  0
  -30.4910  -23.6290   19.6760 C   0  0  0  0  0  2  0  0  0  0  0  0
  -28.2500  -23.0590   18.5010 C   0  0  0  0  0  2  0  0  0  0  0  0
  -29.0020  -23.2310   19.8530 C   0  0  1  0  0  0  0  0  0  0  0  0
  -28.9760  -21.7140   20.6280 C   0  0  0  0  0  2  0  0  0  0  0  0
  -29.7480  -20.3200   20.1770 C   0  0  0  0  0  3  0  0  0  0  0  0
  -29.4660  -18.9360   20.3580 C   0  0  0  0  0  3  0  0  0  0  0  0
  -30.2840  -17.5700   19.9080 C   0  0  0  0  0  2  0  0  0  0  0  0
  -30.7180  -14.8800   20.0350 C   0  0  0  0  0  0  0  0  0  0  0  0
  -30.4500  -12.5970   18.9450 C   0  0  0  0  0  2  0  0  0  0  0  0
  -29.4410  -12.6520   17.7730 C   0  0  0  0  0  2  0  0  0  0  0  0
  -27.9980  -12.4620   18.2810 C   0  0  0  0  0  2  0  0  0  0  0  0
  -27.7020  -13.3110   19.5440 C   0  0  0  0  0  3  0  0  0  0  0  0
  -28.8230  -13.1900   20.5940 C   0  0  0  0  0  2  0  0  0  0  0  0
  -30.0680  -13.6410   19.9480 N   0  0  0  0  0  0  0  0  0  0  0  0
  -31.8480  -14.9360   19.5350 O   0  0  0  0  0  0  0  0  0  0  0  0
  -29.5220  -16.1300   21.8020 C   0  0  0  0  0  1  0  0  0  0  0  0
  -30.0570  -16.0910   20.4390 N   0  0  0  0  0  0  0  0  0  0  0  0
  -25.3780  -13.9090   20.4300 C   0  0  0  0  0  0  0  0  0  0  0  0
  -24.3230  -13.1400   20.8440 C   0  0  0  0  0  0  0  0  0  0  0  0
  -24.7630  -11.7850   20.7560 C   0  0  0  0  0  0  0  0  0  0  0  0
  -26.3900  -13.0200   20.1090 N   0  0  0  0  0  0  0  0  0  0  0  0
  -26.0340  -11.7360   20.3700 N   0  0  0  0  0  0  0  0  0  0  0  0
  -24.0300  -10.5280   20.9610 C   0  0  0  0  0  0  0  0  0  0  0  0
  -24.4820   -9.5490   21.8730 C   0  0  0  0  0  3  0  0  0  0  0  0
  -23.7490   -8.3580   22.0670 C   0  0  0  0  0  3  0  0  0  0  0  0
  -22.5500   -8.1400   21.3480 C   0  0  0  0  0  0  0  0  0  0  0  0
  -22.1160   -9.1070   20.4240 C   0  0  0  0  0  3  0  0  0  0  0  0
  -22.8500  -10.2890   20.2300 C   0  0  0  0  0  3  0  0  0  0  0  0
  -21.7850   -7.0020   21.4500 O   0  0  0  0  0  0  0  0  0  0  0  0
  -21.7370   -6.2680   22.6080 C   0  0  0  0  0  0  0  0  0  0  0  0
  -21.3280   -6.8380   23.8340 C   0  0  0  0  0  3  0  0  0  0  0  0
  -21.2290   -6.0310   24.9860 C   0  0  0  0  0  3  0  0  0  0  0  0
  -21.5280   -4.6570   24.9140 C   0  0  0  0  0  0  0  0  0  0  0  0
  -21.9300   -4.0880   23.6910 C   0  0  0  0  0  3  0  0  0  0  0  0
  -22.0310   -4.8920   22.5430 C   0  0  0  0  0  0  0  0  0  0  0  0
  -22.3990   -4.3340   21.3640 F   0  0  0  0  0  0  0  0  0  0  0  0
  -21.4260   -3.8800   26.0170 F   0  0  0  0  0  0  0  0  0  0  0  0
  -22.9510  -13.6320   21.2080 C   0  0  0  0  0  0  0  0  0  0  0  0
  -22.2660  -12.9290   22.1040 N   0  0  0  0  0  0  0  0  0  0  0  0
  -22.4980  -14.6730   20.7340 O   0  0  0  0  0  0  0  0  0  0  0  0
  -22.6470  -12.0890   22.5130 H   0  0  0  0  0  0  0  0  0  0  0  0
  -21.3460  -13.2380   22.3860 H   0  0  0  0  0  0  0  0  0  0  0  0
  -25.5550  -15.2800   20.2760 N   0  0  0  0  0  0  0  0  0  0  0  0
  -24.8120  -15.9480   20.4550 H   0  0  0  0  0  0  0  0  0  0  0  0
  -26.4060  -15.7110   19.9390 H   0  0  0  0  0  0  0  0  0  0  0  0
  -28.2610  -24.5870   20.5640 C   0  0  0  0  0  2  0  0  0  0  0  0
  -28.4570  -26.1080   20.2590 O   0  0  0  0  0  0  0  0  0  0  0  0
  -24.5910  -31.7160   23.1400 C   0  0  0  0  0  0  0  0  0  0  0  0
  -27.3690  -27.0530   20.2150 C   0  0  0  0  0  0  0  0  0  0  0  0
  -23.4810  -30.2900   21.4630 C   0  0  0  0  0  3  0  0  0  0  0  0
  -25.0100  -28.7420   20.0980 C   0  0  0  0  0  0  0  0  0  0  0  0
  -26.0320  -30.6110   21.3890 C   0  0  0  0  0  2  0  0  0  0  0  0
  -26.1580  -29.2200   20.7420 C   0  0  0  0  0  0  0  0  0  0  0  0
  -27.3430  -28.3930   20.7770 C   0  0  0  0  0  3  0  0  0  0  0  0
  -26.1940  -26.6710   19.5380 C   0  0  0  0  0  3  0  0  0  0  0  0
  -25.0400  -27.4830   19.4800 C   0  0  0  0  0  3  0  0  0  0  0  0
  -23.7640  -29.6150   20.0970 C   0  0  0  0  0  2  0  0  0  0  0  0
  -24.7190  -30.8950   22.0520 N   0  0  0  0  0  0  0  0  0  0  0  0
  -23.4820  -31.9780   23.6280 O   0  0  0  0  0  0  0  0  0  0  0  0
  -22.7900  -29.2710   22.4040 C   0  0  0  0  0  0  0  0  0  0  0  0
  -21.4650  -29.0930   22.2510 N   0  0  0  0  0  0  0  0  0  0  0  0
  -23.4500  -28.6420   23.2350 O   0  0  0  0  0  0  0  0  0  0  0  0
  -20.9900  -29.6510   21.5550 H   0  0  0  0  0  0  0  0  0  0  0  0
  -18.0790  -27.8850   22.6980 C   0  0  0  0  0  0  0  0  0  0  0  0
  -20.6350  -28.1460   23.0000 C   0  0  0  0  0  3  0  0  0  0  0  0
  -20.7450  -26.7220   22.4080 C   0  0  0  0  0  2  0  0  0  0  0  0
  -19.6560  -26.4120   21.3760 C   0  0  0  0  0  2  0  0  0  0  0  0
  -18.2660  -26.5470   22.0040 C   0  0  0  0  0  2  0  0  0  0  0  0
  -19.1920  -28.6440   23.1510 C   0  0  0  0  0  0  0  0  0  0  0  0
  -18.9630  -29.8960   23.7620 C   0  0  0  0  0  3  0  0  0  0  0  0
  -17.6550  -30.3930   23.9200 C   0  0  0  0  0  3  0  0  0  0  0  0
  -16.5570  -29.6320   23.4820 C   0  0  0  0  0  3  0  0  0  0  0  0
  -16.7700  -28.3800   22.8780 C   0  0  0  0  0  3  0  0  0  0  0  0
  -25.8320  -32.3810   23.8080 C   0  0  0  0  0  3  0  0  0  0  0  0
  -26.3260  -31.6160   25.0980 C   0  0  1  0  0  0  0  0  0  0  0  0
  -25.2050  -31.3440   26.1290 C   0  0  0  0  0  1  0  0  0  0  0  0
  -26.9560  -30.2540   24.7250 C   0  0  0  0  0  1  0  0  0  0  0  0
  -27.4360  -32.4340   25.8000 C   0  0  0  0  0  1  0  0  0  0  0  0
  -25.4710  -33.7680   24.1440 N   0  0  0  0  0  0  0  0  0  0  0  0
  -25.7950  -34.8410   23.4110 C   0  0  0  0  0  0  0  0  0  0  0  0
  -26.4950  -34.7690   22.3980 O   0  0  0  0  0  0  0  0  0  0  0  0
  -24.8470  -33.8930   24.9290 H   0  0  0  0  0  0  0  0  0  0  0  0
  -24.0260  -36.5920   23.0390 C   0  0  0  0  0  1  0  0  0  0  0  0
  -25.2600  -36.2110   23.8740 C   0  0  0  0  0  3  0  0  0  0  0  0
  -27.3490  -37.1440   24.7640 C   0  0  0  0  0  1  0  0  0  0  0  0
  -26.2640  -37.2940   23.7990 N   0  0  0  0  0  0  0  0  0  0  0  0
  -25.8290  -38.1990   23.9520 H   0  0  0  0  0  0  0  0  0  0  0  0
  1  3  1  0
  1  2  1  0
  2  4  1  0
  3  5  1  0
  4  6  1  0
  5  7  1  0
  6  8  1  0
  7  8  1  0
  8 51  1  1
  8  9  1  0
 10 11  2  0
 10  9  1  0
 12 11  1  0
 12 22  1  0
 13 22  1  0
 14 19  1  0
 15 16  1  0
 15 14  1  0
 17 16  1  0
 17 26  1  0
 17 18  1  0
 19 13  1  0
 19 18  1  0
 20 13  2  0
 22 21  1  0
 23 24  2  0
 24 43  1  0
 25 24  1  0
 25 28  1  0
 26 27  1  0
 26 23  1  0
 27 25  2  0
 28 29  1  0
 29 30  2  0
 31 34  1  0
 31 30  1  0
 32 31  2  0
 33 32  1  0
 33 28  2  0
 34 35  1  0
 35 36  1  0
 36 37  2  0
 38 37  1  0
 38 42  1  0
 39 38  2  0
 40 35  2  0
 40 39  1  0
 41 40  1  0
 43 44  1  0
 44 47  1  0
 44 46  1  0
 45 43  2  0
 48 23  1  0
 48 49  1  0
 50 48  1  0
 52 51  1  0
 53 64  2  0
 54 52  1  0
 54 59  1  0
 55 63  1  0
 55 65  1  0
 56 58  1  0
 57 63  1  0
 58 59  2  0
 58 57  1  0
 60 54  2  0
 61 60  1  0
 61 56  2  0
 62 56  1  0
 62 55  1  0
 63 53  1  0
 65 67  2  0
 66 65  1  0
 68 66  1  0
 69 78  2  0
 69 74  1  0
 70 66  1  0
 70 74  1  0
 71 70  1  0
 72 73  1  0
 72 71  1  0
 73 69  1  0
 74 75  2  0
 75 76  1  0
 77 76  2  0
 78 77  1  0
 79 53  1  0
 79 84  1  0
 79 80  1  0
 80 83  1  1
 80 81  1  0
 82 80  1  0
 84 87  1  0
 85 89  1  0
 85 84  1  0
 86 85  2  0
 89 88  1  0
 91 89  1  0
 91 92  1  0
 91 90  1  0
M  ISO  4  13 100  22 100  51 101  52 101
M  END
>  <TORSDO>  (85) 
F 20

>  <SCORE>  (85) 
-14.391

>  <name>  (85) 
86

>  <ligand_id>  (85) 
86

>  <original_smiles>  (85) 
[H]C(=C([H])C([H])([H])C1(C([H])([H])Oc2c([H])c([H])c3c(c2[H])C([H])([H])N(C(=O)C([H])(N([H])C(=O)C([H])(N([H])C([H])([H])[H])C([H])([H])[H])C(C([H])([H])[H])(C([H])([H])[H])C([H])([H])[H])C([H])(C(=O)N([H])C2([H])c4c([H])c([H])c([H])c([H])c4C([H])([H])C([H])([H])C2([H])[H])C3([H])[H])C([H])([H])C([H])([H])C([H])([H])C([H])([H])C([H])([H])C([H])([H])C1([H])[H])C([H])([H])N(C(=O)N1C([H])([H])C([H])([H])C([H])([H])C([H])(n2nc(-c3c([H])c([H])c(Oc4c([H])c([H])c(F)c([H])c4F)c([H])c3[H])c(C(=O)N([H])[H])c2N([H])[H])C1([H])[H])C([H])([H])[H]

>  <smiles>  (85) 
[H]C(=C([H])C([H])([H])C1(C([H])([H])Oc2c([H])c([H])c3c(c2[H])C([H])([H])N(C(=O)C([H])(N([H])C(=O)C([H])(N([H])C([H])([H])[H])C([H])([H])[H])C(C([H])([H])[H])(C([H])([H])[H])C([H])([H])[H])C([H])(C(=O)N([H])C2([H])c4c([H])c([H])c([H])c([H])c4C([H])([H])C([H])([H])C2([H])[H])C3([H])[H])C([H])([H])C([H])([H])C([H])([H])C([H])([H])C([H])([H])C([H])([H])C1([H])[H])C([H])([H])N(C(=O)N1C([H])([H])C([H])([H])C([H])([H])C([H])(n2nc(-c3c([H])c([H])c(Oc4c([H])c([H])c(F)c([H])c4F)c([H])c3[H])c(C(=O)N([H])[H])c2N([H])[H])C1([H])[H])C([H])([H])[H]

$$$$
87:0:0
     RDKit          3D

 89 97  0  0  1  0  0  0  0  0999 V2000
  -29.1700  -22.0110   20.5030 N   0  0  0  0  0  4  0  0  0  0  0  0
  -29.3920  -22.0110   21.4890 H   0  0  0  0  0  0  0  0  0  0  0  0
  -28.1960  -21.7500   20.4430 H   0  0  0  0  0  0  0  0  0  0  0  0
  -29.9770  -20.8060   19.8530 C   0  0  0  0  0  2  0  0  0  0  0  0
  -30.1160  -19.2540   20.5320 C   0  0  0  0  0  2  0  0  0  0  0  0
  -30.5280  -15.0770   20.1360 C   0  0  0  0  0  0  0  0  0  0  0  0
  -30.3960  -12.7270   19.1340 C   0  0  0  0  0  2  0  0  0  0  0  0
  -29.4230  -12.6820   17.9280 C   0  0  0  0  0  2  0  0  0  0  0  0
  -27.9650  -12.4690   18.3920 C   0  0  0  0  0  2  0  0  0  0  0  0
  -27.5990  -13.3370   19.6220 C   0  0  0  0  0  3  0  0  0  0  0  0
  -28.7060  -13.2650   20.7050 C   0  0  0  0  0  2  0  0  0  0  0  0
  -29.9290  -13.7980   20.0750 N   0  0  0  0  0  0  0  0  0  0  0  0
  -31.7080  -15.1110   19.7520 O   0  0  0  0  0  0  0  0  0  0  0  0
  -27.7050  -17.5690   20.2590 C   0  0  0  0  0  2  0  0  0  0  0  0
  -28.5800  -17.9110   19.0670 C   0  0  0  0  0  2  0  0  0  0  0  0
  -28.5010  -16.4730   21.0070 C   0  0  0  0  0  2  0  0  0  0  0  0
  -29.9600  -17.7840   19.6990 C   0  0  0  0  0  3  0  0  0  0  0  0
  -29.8140  -16.3290   20.3400 N   0  0  0  0  0  0  0  0  0  0  0  0
  -25.2130  -13.8900   20.3910 C   0  0  0  0  0  0  0  0  0  0  0  0
  -24.1690  -13.1150   20.7940 C   0  0  0  0  0  0  0  0  0  0  0  0
  -24.6490  -11.7710   20.7600 C   0  0  0  0  0  0  0  0  0  0  0  0
  -26.2700  -13.0290   20.1440 N   0  0  0  0  0  0  0  0  0  0  0  0
  -25.9350  -11.7450   20.4230 N   0  0  0  0  0  0  0  0  0  0  0  0
  -23.9380  -10.5080   20.9700 C   0  0  0  0  0  0  0  0  0  0  0  0
  -24.3900   -9.5500   21.9020 C   0  0  0  0  0  3  0  0  0  0  0  0
  -23.6730   -8.3520   22.0980 C   0  0  0  0  0  3  0  0  0  0  0  0
  -22.4880   -8.1040   21.3630 C   0  0  0  0  0  0  0  0  0  0  0  0
  -22.0560   -9.0520   20.4200 C   0  0  0  0  0  3  0  0  0  0  0  0
  -22.7740  -10.2410   20.2200 C   0  0  0  0  0  3  0  0  0  0  0  0
  -21.7410   -6.9570   21.4710 O   0  0  0  0  0  0  0  0  0  0  0  0
  -21.7100   -6.2260   22.6300 C   0  0  0  0  0  0  0  0  0  0  0  0
  -21.2970   -6.7920   23.8570 C   0  0  0  0  0  3  0  0  0  0  0  0
  -21.2170   -5.9870   25.0110 C   0  0  0  0  0  3  0  0  0  0  0  0
  -21.5380   -4.6180   24.9390 C   0  0  0  0  0  0  0  0  0  0  0  0
  -21.9440   -4.0520   23.7170 C   0  0  0  0  0  3  0  0  0  0  0  0
  -22.0270   -4.8550   22.5660 C   0  0  0  0  0  0  0  0  0  0  0  0
  -22.3990   -4.3030   21.3850 F   0  0  0  0  0  0  0  0  0  0  0  0
  -21.4510   -3.8420   26.0440 F   0  0  0  0  0  0  0  0  0  0  0  0
  -22.7750  -13.5870   21.0930 C   0  0  0  0  0  0  0  0  0  0  0  0
  -22.0740  -12.8940   21.9810 N   0  0  0  0  0  0  0  0  0  0  0  0
  -22.3200  -14.6090   20.5790 O   0  0  0  0  0  0  0  0  0  0  0  0
  -22.4510  -12.0660   22.4180 H   0  0  0  0  0  0  0  0  0  0  0  0
  -21.1400  -13.1930   22.2250 H   0  0  0  0  0  0  0  0  0  0  0  0
  -25.3280  -15.2540   20.1890 N   0  0  0  0  0  0  0  0  0  0  0  0
  -24.5380  -15.8810   20.3010 H   0  0  0  0  0  0  0  0  0  0  0  0
  -26.1470  -15.6990   19.8000 H   0  0  0  0  0  0  0  0  0  0  0  0
  -29.2840  -23.5220   20.0080 C   0  0  0  0  0  3  0  0  0  0  0  0
  -28.2220  -24.7440   20.4910 C   0  0  0  0  0  3  0  0  0  0  0  0
  -28.3720  -26.2810   20.2650 O   0  0  0  0  0  0  0  0  0  0  0  0
  -24.5900  -31.8810   23.2340 C   0  0  0  0  0  0  0  0  0  0  0  0
  -27.2610  -27.2030   20.2420 C   0  0  0  0  0  0  0  0  0  0  0  0
  -23.4150  -30.4700   21.5880 C   0  0  0  0  0  3  0  0  0  0  0  0
  -24.8910  -28.8980   20.1910 C   0  0  0  0  0  0  0  0  0  0  0  0
  -25.9640  -30.7660   21.4400 C   0  0  0  0  0  2  0  0  0  0  0  0
  -26.0600  -29.3710   20.7990 C   0  0  0  0  0  0  0  0  0  0  0  0
  -27.2450  -28.5410   20.8020 C   0  0  0  0  0  3  0  0  0  0  0  0
  -26.0600  -26.8230   19.6000 C   0  0  0  0  0  3  0  0  0  0  0  0
  -24.9020  -27.6350   19.5770 C   0  0  0  0  0  3  0  0  0  0  0  0
  -23.6540  -29.7820   20.2180 C   0  0  0  0  0  2  0  0  0  0  0  0
  -24.6750  -31.0600   22.1450 N   0  0  0  0  0  0  0  0  0  0  0  0
  -23.4960  -32.1580   23.7530 O   0  0  0  0  0  0  0  0  0  0  0  0
  -22.7330  -29.4640   22.5490 C   0  0  0  0  0  0  0  0  0  0  0  0
  -21.4060  -29.2870   22.4120 N   0  0  0  0  0  0  0  0  0  0  0  0
  -23.4020  -28.8440   23.3790 O   0  0  0  0  0  0  0  0  0  0  0  0
  -20.9210  -29.8420   21.7200 H   0  0  0  0  0  0  0  0  0  0  0  0
  -18.0320  -28.0590   22.8850 C   0  0  0  0  0  0  0  0  0  0  0  0
  -20.5850  -28.3470   23.1790 C   0  0  0  0  0  3  0  0  0  0  0  0
  -20.7050  -26.9110   22.6150 C   0  0  0  0  0  2  0  0  0  0  0  0
  -19.6180  -26.5720   21.5890 C   0  0  0  0  0  2  0  0  0  0  0  0
  -18.2270  -26.7100   22.2160 C   0  0  0  0  0  2  0  0  0  0  0  0
  -19.1390  -28.8350   23.3230 C   0  0  0  0  0  0  0  0  0  0  0  0
  -18.9010  -30.0980   23.9080 C   0  0  0  0  0  3  0  0  0  0  0  0
  -17.5900  -30.5870   24.0600 C   0  0  0  0  0  3  0  0  0  0  0  0
  -16.4970  -29.8100   23.6380 C   0  0  0  0  0  3  0  0  0  0  0  0
  -16.7190  -28.5480   23.0570 C   0  0  0  0  0  3  0  0  0  0  0  0
  -25.8580  -32.5290   23.8710 C   0  0  0  0  0  3  0  0  0  0  0  0
  -26.3550  -31.7730   25.1650 C   0  0  1  0  0  0  0  0  0  0  0  0
  -25.2470  -31.5460   26.2190 C   0  0  0  0  0  1  0  0  0  0  0  0
  -26.9470  -30.3940   24.7990 C   0  0  0  0  0  1  0  0  0  0  0  0
  -27.4960  -32.5770   25.8340 C   0  0  0  0  0  1  0  0  0  0  0  0
  -25.5360  -33.9280   24.1870 N   0  0  0  0  0  0  0  0  0  0  0  0
  -25.8760  -34.9800   23.4310 C   0  0  0  0  0  0  0  0  0  0  0  0
  -26.5600  -34.8750   22.4090 O   0  0  0  0  0  0  0  0  0  0  0  0
  -24.9360  -34.0850   24.9830 H   0  0  0  0  0  0  0  0  0  0  0  0
  -24.1510  -36.7730   23.0500 C   0  0  0  0  0  1  0  0  0  0  0  0
  -25.3820  -36.3710   23.8780 C   0  0  0  0  0  3  0  0  0  0  0  0
  -27.5040  -37.2620   24.7340 C   0  0  0  0  0  1  0  0  0  0  0  0
  -26.4140  -37.4250   23.7740 N   0  0  0  0  0  0  0  0  0  0  0  0
  -26.0060  -38.3450   23.9130 H   0  0  0  0  0  0  0  0  0  0  0  0
  1  2  1  0
  3  1  1  0
  4  1  1  0
  4  5  1  0
  6 18  1  0
  7 12  1  0
  8  9  1  0
  8  7  1  0
 10  9  1  0
 10 22  1  0
 10 11  1  0
 12  6  1  0
 12 11  1  0
 13  6  2  0
 14 16  1  0
 15 17  1  0
 15 14  1  0
 17 18  1  0
 17  5  1  0
 18 16  1  0
 19 20  2  0
 20 39  1  0
 21 20  1  0
 21 24  1  0
 22 19  1  0
 22 23  1  0
 23 21  2  0
 24 25  1  0
 25 26  2  0
 27 30  1  0
 27 26  1  0
 28 27  2  0
 29 28  1  0
 29 24  2  0
 30 31  1  0
 31 32  1  0
 32 33  2  0
 34 33  1  0
 34 38  1  0
 35 34  2  0
 36 31  2  0
 36 35  1  0
 37 36  1  0
 39 40  1  0
 40 43  1  0
 40 42  1  0
 41 39  2  0
 44 45  1  0
 44 19  1  0
 46 44  1  0
 47 48  2  0
 47  1  1  0
 49 48  1  0
 50 61  2  0
 51 49  1  0
 51 56  1  0
 52 60  1  0
 52 62  1  0
 53 59  1  0
 53 55  1  0
 54 60  1  0
 55 56  2  0
 55 54  1  0
 57 51  2  0
 58 57  1  0
 58 53  2  0
 59 52  1  0
 60 50  1  0
 62 64  2  0
 63 62  1  0
 65 63  1  0
 66 75  2  0
 66 71  1  0
 67 63  1  0
 67 71  1  0
 68 67  1  0
 69 70  1  0
 69 68  1  0
 70 66  1  0
 71 72  2  0
 72 73  1  0
 74 73  2  0
 75 74  1  0
 76 50  1  0
 76 81  1  0
 76 77  1  0
 77 80  1  1
 77 78  1  0
 79 77  1  0
 81 84  1  0
 82 86  1  0
 82 81  1  0
 83 82  2  0
 86 85  1  0
 88 86  1  0
 88 89  1  0
 88 87  1  0
M  ISO  4   6 100  18 100  48 101  49 101
M  END
>  <TORSDO>  (86) 
F 20

>  <SCORE>  (86) 
-14.644

>  <name>  (86) 
87

>  <ligand_id>  (86) 
87

>  <original_smiles>  (86) 
[H]c1c([H])c([H])c2c(c1[H])C([H])([H])C([H])([H])C([H])([H])C2([H])N([H])C(=O)C1([H])N(C(=O)C([H])(N([H])C(=O)C([H])(N([H])C([H])([H])[H])C([H])([H])[H])C(C([H])([H])[H])(C([H])([H])[H])C([H])([H])[H])C([H])([H])c2c([H])c(OC([H])([H])C([H])([H])[N+]([H])([H])C([H])([H])C([H])([H])C3([H])N(C(=O)N4C([H])([H])C([H])([H])C([H])([H])C([H])(n5nc(-c6c([H])c([H])c(Oc7c([H])c([H])c(F)c([H])c7F)c([H])c6[H])c(C(=O)N([H])[H])c5N([H])[H])C4([H])[H])C([H])([H])C([H])([H])C3([H])[H])c([H])c([H])c2C1([H])[H]

>  <smiles>  (86) 
[H]c1c([H])c([H])c2c(c1[H])C([H])([H])C([H])([H])C([H])([H])C2([H])N([H])C(=O)C1([H])N(C(=O)C([H])(N([H])C(=O)C([H])(N([H])C([H])([H])[H])C([H])([H])[H])C(C([H])([H])[H])(C([H])([H])[H])C([H])([H])[H])C([H])([H])c2c([H])c(OC([H])([H])C([H])([H])[N+]([H])([H])C([H])([H])C([H])([H])C3([H])N(C(=O)N4C([H])([H])C([H])([H])C([H])([H])C([H])(n5nc(-c6c([H])c([H])c(Oc7c([H])c([H])c(F)c([H])c7F)c([H])c6[H])c(C(=O)N([H])[H])c5N([H])[H])C4([H])[H])C([H])([H])C([H])([H])C3([H])[H])c([H])c([H])c2C1([H])[H]

$$$$
88:0:0
     RDKit          3D

 92 99  0  0  1  0  0  0  0  0999 V2000
  -27.6690  -19.9560   19.6020 C   0  0  0  0  0  0  0  0  0  0  0  0
  -28.8270  -20.3010   20.2280 N   0  0  0  0  0  0  0  0  0  0  0  0
  -27.4830  -18.8210   19.1400 O   0  0  0  0  0  0  0  0  0  0  0  0
  -26.5240  -20.9650   19.4330 C   0  0  0  0  0  2  0  0  0  0  0  0
  -25.5250  -20.4690   18.4700 N   0  0  0  0  0  4  0  0  0  0  0  0
  -26.0250  -20.1430   17.6610 H   0  0  0  0  0  0  0  0  0  0  0  0
  -24.8700  -21.1820   18.2040 H   0  0  0  0  0  0  0  0  0  0  0  0
  -25.0340  -19.6840   18.8590 H   0  0  0  0  0  0  0  0  0  0  0  0
  -28.9950  -21.7870   20.7930 C   0  0  0  0  0  2  0  0  0  0  0  0
  -28.7390  -23.2880   20.0200 C   0  0  0  0  0  2  0  0  0  0  0  0
  -28.0960  -24.7030   20.7050 C   0  0  0  0  0  2  0  0  0  0  0  0
  -28.2620  -26.1990   20.2950 O   0  0  0  0  0  0  0  0  0  0  0  0
  -24.5590  -31.8940   23.2350 C   0  0  0  0  0  0  0  0  0  0  0  0
  -27.1790  -27.1520   20.2950 C   0  0  0  0  0  0  0  0  0  0  0  0
  -23.3760  -30.4630   21.6170 C   0  0  0  0  0  3  0  0  0  0  0  0
  -24.8360  -28.8710   20.2290 C   0  0  0  0  0  0  0  0  0  0  0  0
  -25.9280  -30.7480   21.4530 C   0  0  0  0  0  2  0  0  0  0  0  0
  -26.0110  -29.3450   20.8270 C   0  0  0  0  0  0  0  0  0  0  0  0
  -27.1860  -28.5000   20.8390 C   0  0  0  0  0  3  0  0  0  0  0  0
  -25.9750  -26.7730   19.6690 C   0  0  0  0  0  3  0  0  0  0  0  0
  -24.8300  -27.6000   19.6350 C   0  0  0  0  0  3  0  0  0  0  0  0
  -23.6050  -29.7630   20.2520 C   0  0  0  0  0  2  0  0  0  0  0  0
  -24.6410  -31.0590   22.1560 N   0  0  0  0  0  0  0  0  0  0  0  0
  -23.4700  -32.1710   23.7590 O   0  0  0  0  0  0  0  0  0  0  0  0
  -22.7070  -29.4650   22.5960 C   0  0  0  0  0  0  0  0  0  0  0  0
  -21.3850  -29.2580   22.4510 N   0  0  0  0  0  0  0  0  0  0  0  0
  -23.3770  -28.8790   23.4490 O   0  0  0  0  0  0  0  0  0  0  0  0
  -20.8970  -29.7760   21.7340 H   0  0  0  0  0  0  0  0  0  0  0  0
  -18.0210  -28.0060   22.9410 C   0  0  0  0  0  0  0  0  0  0  0  0
  -20.5720  -28.3230   23.2320 C   0  0  0  0  0  3  0  0  0  0  0  0
  -20.7090  -26.8810   22.6900 C   0  0  0  0  0  2  0  0  0  0  0  0
  -19.6260  -26.5140   21.6710 C   0  0  0  0  0  2  0  0  0  0  0  0
  -18.2320  -26.6470   22.2940 C   0  0  0  0  0  2  0  0  0  0  0  0
  -19.1210  -28.7990   23.3650 C   0  0  0  0  0  0  0  0  0  0  0  0
  -18.8680  -30.0690   23.9280 C   0  0  0  0  0  3  0  0  0  0  0  0
  -17.5520  -30.5470   24.0690 C   0  0  0  0  0  3  0  0  0  0  0  0
  -16.4670  -29.7510   23.6590 C   0  0  0  0  0  3  0  0  0  0  0  0
  -16.7030  -28.4810   23.1010 C   0  0  0  0  0  3  0  0  0  0  0  0
  -25.8280  -32.5550   23.8540 C   0  0  0  0  0  3  0  0  0  0  0  0
  -26.3370  -31.8210   25.1580 C   0  0  1  0  0  0  0  0  0  0  0  0
  -25.2310  -31.5920   26.2150 C   0  0  0  0  0  1  0  0  0  0  0  0
  -26.9410  -30.4410   24.8100 C   0  0  0  0  0  1  0  0  0  0  0  0
  -27.4710  -32.6430   25.8150 C   0  0  0  0  0  1  0  0  0  0  0  0
  -25.5050  -33.9590   24.1530 N   0  0  0  0  0  0  0  0  0  0  0  0
  -25.8450  -35.0030   23.3850 C   0  0  0  0  0  0  0  0  0  0  0  0
  -26.5280  -34.8860   22.3660 O   0  0  0  0  0  0  0  0  0  0  0  0
  -24.9040  -34.1260   24.9470 H   0  0  0  0  0  0  0  0  0  0  0  0
  -24.1130  -36.7850   22.9830 C   0  0  0  0  0  1  0  0  0  0  0  0
  -25.3480  -36.3980   23.8140 C   0  0  0  0  0  3  0  0  0  0  0  0
  -27.4690  -37.3100   24.6510 C   0  0  0  0  0  1  0  0  0  0  0  0
  -26.3780  -37.4560   23.6940 N   0  0  0  0  0  0  0  0  0  0  0  0
  -25.9630  -38.3750   23.8170 H   0  0  0  0  0  0  0  0  0  0  0  0
  -29.8500  -19.0800   20.3220 C   0  0  0  0  0  2  0  0  0  0  0  0
  -29.6510  -17.6560   21.2210 C   0  0  0  0  0  2  0  0  0  0  0  0
  -30.4560  -15.0070   20.7800 C   0  0  0  0  0  0  0  0  0  0  0  0
  -30.4570  -12.6500   19.8430 C   0  0  0  0  0  2  0  0  0  0  0  0
  -29.5850  -12.5790   18.5670 C   0  0  0  0  0  2  0  0  0  0  0  0
  -28.1030  -12.3550   18.9280 C   0  0  0  0  0  2  0  0  0  0  0  0
  -27.6200  -13.2870   20.0700 C   0  0  0  0  0  3  0  0  0  0  0  0
  -28.6130  -13.3060   21.2470 C   0  0  0  0  0  2  0  0  0  0  0  0
  -29.9010  -13.7370   20.6920 N   0  0  0  0  0  0  0  0  0  0  0  0
  -31.6840  -15.1080   20.6920 O   0  0  0  0  0  0  0  0  0  0  0  0
  -29.6070  -16.1460   20.7400 N   0  0  0  0  0  0  0  0  0  0  0  0
  -28.6590  -15.8510   20.5550 H   0  0  0  0  0  0  0  0  0  0  0  0
  -25.2080  -13.8500   20.7140 C   0  0  0  0  0  0  0  0  0  0  0  0
  -24.1260  -13.0680   21.0060 C   0  0  0  0  0  0  0  0  0  0  0  0
  -24.5900  -11.7170   20.9430 C   0  0  0  0  0  0  0  0  0  0  0  0
  -26.2620  -12.9770   20.4940 N   0  0  0  0  0  0  0  0  0  0  0  0
  -25.8940  -11.6860   20.6980 N   0  0  0  0  0  0  0  0  0  0  0  0
  -23.8530  -10.4530   21.0380 C   0  0  0  0  0  0  0  0  0  0  0  0
  -24.2500   -9.4320   21.9300 C   0  0  0  0  0  3  0  0  0  0  0  0
  -23.5140   -8.2320   22.0170 C   0  0  0  0  0  3  0  0  0  0  0  0
  -22.3630   -8.0450   21.2120 C   0  0  0  0  0  0  0  0  0  0  0  0
  -21.9870   -9.0540   20.3080 C   0  0  0  0  0  3  0  0  0  0  0  0
  -22.7260  -10.2450   20.2180 C   0  0  0  0  0  3  0  0  0  0  0  0
  -21.5970   -6.9030   21.2150 O   0  0  0  0  0  0  0  0  0  0  0  0
  -21.5230   -6.0880   22.3160 C   0  0  0  0  0  0  0  0  0  0  0  0
  -21.0620   -6.5620   23.5640 C   0  0  0  0  0  3  0  0  0  0  0  0
  -20.9360   -5.6750   24.6510 C   0  0  0  0  0  3  0  0  0  0  0  0
  -21.2580   -4.3130   24.4910 C   0  0  0  0  0  0  0  0  0  0  0  0
  -21.7140   -3.8390   23.2480 C   0  0  0  0  0  3  0  0  0  0  0  0
  -21.8420   -4.7240   22.1620 C   0  0  0  0  0  0  0  0  0  0  0  0
  -22.2600   -4.2560   20.9620 F   0  0  0  0  0  0  0  0  0  0  0  0
  -21.1290   -3.4580   25.5320 F   0  0  0  0  0  0  0  0  0  0  0  0
  -22.7190  -13.5380   21.2260 C   0  0  0  0  0  0  0  0  0  0  0  0
  -21.9510  -12.8110   22.0290 N   0  0  0  0  0  0  0  0  0  0  0  0
  -22.3100  -14.5840   20.7220 O   0  0  0  0  0  0  0  0  0  0  0  0
  -22.3000  -11.9660   22.4570 H   0  0  0  0  0  0  0  0  0  0  0  0
  -21.0030  -13.1030   22.2220 H   0  0  0  0  0  0  0  0  0  0  0  0
  -25.3790  -15.2240   20.5830 N   0  0  0  0  0  0  0  0  0  0  0  0
  -24.5880  -15.8570   20.6180 H   0  0  0  0  0  0  0  0  0  0  0  0
  -26.2080  -15.6520   20.1950 H   0  0  0  0  0  0  0  0  0  0  0  0
  1  2  1  0
  2 53  1  0
  2  9  1  0
  3  1  2  0
  4  1  1  0
  5  8  1  0
  5  4  1  0
  6  5  1  0
  7  5  1  0
 10 11  1  0
 10  9  1  0
 12 11  1  0
 13 24  2  0
 14 12  1  0
 14 19  1  0
 15 23  1  0
 15 25  1  0
 16 22  1  0
 16 18  1  0
 17 23  1  0
 18 19  2  0
 18 17  1  0
 20 14  2  0
 21 20  1  0
 21 16  2  0
 22 15  1  0
 23 13  1  0
 25 27  2  0
 26 25  1  0
 28 26  1  0
 29 38  2  0
 29 34  1  0
 30 26  1  0
 30 34  1  0
 31 30  1  0
 32 33  1  0
 32 31  1  0
 33 29  1  0
 34 35  2  0
 35 36  1  0
 37 36  2  0
 38 37  1  0
 39 13  1  0
 39 44  1  0
 39 40  1  0
 40 43  1  1
 40 41  1  0
 42 40  1  0
 44 47  1  0
 45 49  1  0
 45 44  1  0
 46 45  2  0
 49 48  1  0
 51 49  1  0
 51 52  1  0
 51 50  1  0
 53 54  1  0
 56 61  1  0
 57 58  1  0
 57 56  1  0
 59 58  1  0
 59 68  1  0
 59 60  1  0
 61 55  1  0
 61 60  1  0
 62 55  2  0
 63 55  1  0
 63 54  1  0
 64 63  1  0
 65 66  2  0
 66 85  1  0
 67 66  1  0
 67 70  1  0
 68 69  1  0
 68 65  1  0
 69 67  2  0
 70 71  1  0
 71 72  2  0
 73 76  1  0
 73 72  1  0
 74 73  2  0
 75 74  1  0
 75 70  2  0
 76 77  1  0
 77 78  1  0
 78 79  2  0
 80 79  1  0
 80 84  1  0
 81 80  2  0
 82 77  2  0
 82 81  1  0
 83 82  1  0
 85 86  1  0
 86 89  1  0
 86 88  1  0
 87 85  2  0
 90 91  1  0
 90 65  1  0
 92 90  1  0
M  ISO  4  11 101  12 101  55 100  63 100
M  END
>  <TORSDO>  (87) 
F 23

>  <SCORE>  (87) 
-14.042

>  <name>  (87) 
88

>  <ligand_id>  (87) 
88

>  <original_smiles>  (87) 
[H]c1c([H])c([H])c2c(c1[H])C([H])([H])C([H])([H])C([H])([H])C2([H])N([H])C(=O)C1([H])N(C(=O)C([H])(N([H])C(=O)C([H])(N([H])C([H])([H])[H])C([H])([H])[H])C(C([H])([H])[H])(C([H])([H])[H])C([H])([H])[H])C([H])([H])c2c([H])c(OC([H])([H])C([H])([H])C([H])([H])N(C(=O)C([H])([H])[N+]([H])([H])[H])C([H])([H])C([H])([H])N([H])C(=O)N3C([H])([H])C([H])([H])C([H])([H])C([H])(n4nc(-c5c([H])c([H])c(Oc6c([H])c([H])c(F)c([H])c6F)c([H])c5[H])c(C(=O)N([H])[H])c4N([H])[H])C3([H])[H])c([H])c([H])c2C1([H])[H]

>  <smiles>  (87) 
[H]c1c([H])c([H])c2c(c1[H])C([H])([H])C([H])([H])C([H])([H])C2([H])N([H])C(=O)C1([H])N(C(=O)C([H])(N([H])C(=O)C([H])(N([H])C([H])([H])[H])C([H])([H])[H])C(C([H])([H])[H])(C([H])([H])[H])C([H])([H])[H])C([H])([H])c2c([H])c(OC([H])([H])C([H])([H])C([H])([H])N(C(=O)C([H])([H])[N+]([H])([H])[H])C([H])([H])C([H])([H])N([H])C(=O)N3C([H])([H])C([H])([H])C([H])([H])C([H])(n4nc(-c5c([H])c([H])c(Oc6c([H])c([H])c(F)c([H])c6F)c([H])c5[H])c(C(=O)N([H])[H])c4N([H])[H])C3([H])[H])c([H])c([H])c2C1([H])[H]

$$$$
89:0:0
     RDKit          3D

 89 97  0  0  1  0  0  0  0  0999 V2000
  -28.7040  -22.9690   20.5890 C   0  0  0  0  0  3  0  0  0  0  0  0
  -31.2320  -23.4800   20.4020 C   0  0  0  0  0  1  0  0  0  0  0  0
  -30.0350  -23.2250   21.3210 C   0  0  0  0  0  2  0  0  0  0  0  0
  -28.7440  -21.3890   19.8370 C   0  0  0  0  0  2  0  0  0  0  0  0
  -30.5590  -15.1820   20.1630 C   0  0  0  0  0  0  0  0  0  0  0  0
  -30.3770  -12.7890   19.2540 C   0  0  0  0  0  2  0  0  0  0  0  0
  -29.4520  -12.6470   18.0290 C   0  0  0  0  0  2  0  0  0  0  0  0
  -28.0090  -12.3940   18.4920 C   0  0  0  0  0  2  0  0  0  0  0  0
  -27.5810  -13.3600   19.6270 C   0  0  0  0  0  3  0  0  0  0  0  0
  -28.6470  -13.5000   20.7350 C   0  0  0  0  0  2  0  0  0  0  0  0
  -29.8790  -13.9480   20.0750 N   0  0  0  0  0  0  0  0  0  0  0  0
  -31.7790  -15.0650   19.9780 O   0  0  0  0  0  0  0  0  0  0  0  0
  -30.8950  -17.7850   20.4060 C   0  0  0  0  0  2  0  0  0  0  0  0
  -28.6140  -17.1610   20.1900 C   0  0  0  0  0  2  0  0  0  0  0  0
  -30.4570  -19.2530   19.8240 C   0  0  0  0  0  2  0  0  0  0  0  0
  -28.2570  -18.7540   20.5780 C   0  0  0  0  0  2  0  0  0  0  0  0
  -30.0090  -16.5440   20.2720 N   0  0  0  0  0  0  0  0  0  0  0  0
  -29.2420  -19.9390   20.4280 N   0  0  2  0  0  4  0  0  0  0  0  0
  -29.5160  -20.1390   21.3800 H   0  0  0  0  0  0  0  0  0  0  0  0
  -25.2200  -13.9060   20.4160 C   0  0  0  0  0  0  0  0  0  0  0  0
  -24.1690  -13.1210   20.8060 C   0  0  0  0  0  0  0  0  0  0  0  0
  -24.6470  -11.7760   20.7710 C   0  0  0  0  0  0  0  0  0  0  0  0
  -26.2660  -13.0380   20.1640 N   0  0  0  0  0  0  0  0  0  0  0  0
  -25.9370  -11.7500   20.4510 N   0  0  0  0  0  0  0  0  0  0  0  0
  -23.9310  -10.5080   20.9740 C   0  0  0  0  0  0  0  0  0  0  0  0
  -24.3760   -9.5480   21.9110 C   0  0  0  0  0  3  0  0  0  0  0  0
  -23.6580   -8.3480   22.1010 C   0  0  0  0  0  3  0  0  0  0  0  0
  -22.4790   -8.0990   21.3570 C   0  0  0  0  0  0  0  0  0  0  0  0
  -22.0560   -9.0450   20.4090 C   0  0  0  0  0  3  0  0  0  0  0  0
  -22.7730  -10.2380   20.2140 C   0  0  0  0  0  3  0  0  0  0  0  0
  -21.7300   -6.9510   21.4600 O   0  0  0  0  0  0  0  0  0  0  0  0
  -21.6920   -6.2180   22.6180 C   0  0  0  0  0  0  0  0  0  0  0  0
  -21.2670   -6.7770   23.8440 C   0  0  0  0  0  3  0  0  0  0  0  0
  -21.1770   -5.9670   24.9940 C   0  0  0  0  0  3  0  0  0  0  0  0
  -21.5040   -4.6000   24.9200 C   0  0  0  0  0  0  0  0  0  0  0  0
  -21.9220   -4.0400   23.7000 C   0  0  0  0  0  3  0  0  0  0  0  0
  -22.0160   -4.8460   22.5520 C   0  0  0  0  0  0  0  0  0  0  0  0
  -22.3970   -4.2970   21.3750 F   0  0  0  0  0  0  0  0  0  0  0  0
  -21.4110   -3.8190   26.0220 F   0  0  0  0  0  0  0  0  0  0  0  0
  -22.7720  -13.5880   21.0810 C   0  0  0  0  0  0  0  0  0  0  0  0
  -22.0550  -12.8960   21.9610 N   0  0  0  0  0  0  0  0  0  0  0  0
  -22.3220  -14.6010   20.5480 O   0  0  0  0  0  0  0  0  0  0  0  0
  -22.4320  -12.0760   22.4150 H   0  0  0  0  0  0  0  0  0  0  0  0
  -21.1130  -13.1910   22.1800 H   0  0  0  0  0  0  0  0  0  0  0  0
  -25.3690  -15.2740   20.2200 N   0  0  0  0  0  0  0  0  0  0  0  0
  -24.5980  -15.9250   20.3270 H   0  0  0  0  0  0  0  0  0  0  0  0
  -26.1900  -15.6960   19.8080 H   0  0  0  0  0  0  0  0  0  0  0  0
  -28.1410  -24.4830   19.8970 C   0  0  0  0  0  2  0  0  0  0  0  0
  -28.2150  -26.0300   20.3540 O   0  0  0  0  0  0  0  0  0  0  0  0
  -24.6260  -31.8840   23.2510 C   0  0  0  0  0  0  0  0  0  0  0  0
  -27.1890  -27.0770   20.2300 C   0  0  0  0  0  0  0  0  0  0  0  0
  -23.4280  -30.4880   21.6120 C   0  0  0  0  0  3  0  0  0  0  0  0
  -24.8780  -28.9010   20.1830 C   0  0  0  0  0  0  0  0  0  0  0  0
  -25.9850  -30.7290   21.4490 C   0  0  0  0  0  2  0  0  0  0  0  0
  -26.0610  -29.3240   20.8010 C   0  0  0  0  0  0  0  0  0  0  0  0
  -27.2100  -28.4290   20.8090 C   0  0  0  0  0  3  0  0  0  0  0  0
  -25.9790  -26.7870   19.5600 C   0  0  0  0  0  3  0  0  0  0  0  0
  -24.8560  -27.6510   19.5470 C   0  0  0  0  0  3  0  0  0  0  0  0
  -23.6520  -29.8060   20.2340 C   0  0  0  0  0  2  0  0  0  0  0  0
  -24.7000  -31.0580   22.1610 N   0  0  0  0  0  0  0  0  0  0  0  0
  -23.5370  -32.1770   23.7750 O   0  0  0  0  0  0  0  0  0  0  0  0
  -22.7420  -29.4880   22.5760 C   0  0  0  0  0  0  0  0  0  0  0  0
  -21.4130  -29.3240   22.4530 N   0  0  0  0  0  0  0  0  0  0  0  0
  -23.4110  -28.8600   23.3990 O   0  0  0  0  0  0  0  0  0  0  0  0
  -20.9310  -29.8800   21.7590 H   0  0  0  0  0  0  0  0  0  0  0  0
  -18.0270  -28.1300   22.9510 C   0  0  0  0  0  0  0  0  0  0  0  0
  -20.5870  -28.3900   23.2240 C   0  0  0  0  0  3  0  0  0  0  0  0
  -20.6860  -26.9560   22.6500 C   0  0  0  0  0  2  0  0  0  0  0  0
  -19.5840  -26.6350   21.6350 C   0  0  0  0  0  2  0  0  0  0  0  0
  -18.2030  -26.7800   22.2780 C   0  0  0  0  0  2  0  0  0  0  0  0
  -19.1450  -28.8910   23.3840 C   0  0  0  0  0  0  0  0  0  0  0  0
  -18.9220  -30.1520   23.9790 C   0  0  0  0  0  3  0  0  0  0  0  0
  -17.6160  -30.6480   24.1460 C   0  0  0  0  0  3  0  0  0  0  0  0
  -16.5140  -29.8850   23.7300 C   0  0  0  0  0  3  0  0  0  0  0  0
  -16.7200  -28.6270   23.1340 C   0  0  0  0  0  3  0  0  0  0  0  0
  -25.9000  -32.5190   23.8820 C   0  0  0  0  0  3  0  0  0  0  0  0
  -26.3920  -31.7550   25.1740 C   0  0  1  0  0  0  0  0  0  0  0  0
  -25.2850  -31.5400   26.2350 C   0  0  0  0  0  1  0  0  0  0  0  0
  -26.9670  -30.3690   24.8020 C   0  0  0  0  0  1  0  0  0  0  0  0
  -27.5450  -32.5430   25.8400 C   0  0  0  0  0  1  0  0  0  0  0  0
  -25.5890  -33.9200   24.2080 N   0  0  0  0  0  0  0  0  0  0  0  0
  -25.9180  -34.9730   23.4480 C   0  0  0  0  0  0  0  0  0  0  0  0
  -26.5780  -34.8640   22.4120 O   0  0  0  0  0  0  0  0  0  0  0  0
  -24.9810  -34.0700   25.0000 H   0  0  0  0  0  0  0  0  0  0  0  0
  -24.1850  -36.7700   23.1190 C   0  0  0  0  0  1  0  0  0  0  0  0
  -25.4390  -36.3640   23.9080 C   0  0  0  0  0  3  0  0  0  0  0  0
  -27.5870  -37.2600   24.6910 C   0  0  0  0  0  1  0  0  0  0  0  0
  -26.4660  -37.4190   23.7700 N   0  0  0  0  0  0  0  0  0  0  0  0
  -26.0590  -38.3390   23.9150 H   0  0  0  0  0  0  0  0  0  0  0  0
  1  4  1  0
  1  3  1  0
  2  3  1  0
  4 18  1  0
  5 17  1  0
  6 11  1  0
  7  8  1  0
  7  6  1  0
  9  8  1  0
  9 23  1  0
  9 10  1  0
 11  5  1  0
 11 10  1  0
 12  5  2  0
 14 17  1  0
 14 16  1  0
 15 13  1  0
 15 18  1  0
 17 13  1  0
 18 16  1  0
 18 19  1  1
 20 21  2  0
 21 40  1  0
 22 21  1  0
 22 25  1  0
 23 20  1  0
 23 24  1  0
 24 22  2  0
 25 26  1  0
 26 27  2  0
 28 31  1  0
 28 27  1  0
 29 28  2  0
 30 29  1  0
 30 25  2  0
 31 32  1  0
 32 33  1  0
 33 34  2  0
 35 34  1  0
 35 39  1  0
 36 35  2  0
 37 32  2  0
 37 36  1  0
 38 37  1  0
 40 41  1  0
 41 44  1  0
 41 43  1  0
 42 40  2  0
 45 46  1  0
 45 20  1  0
 47 45  1  0
 48 49  1  0
 48  1  1  0
 50 61  2  0
 51 49  1  0
 51 56  1  0
 52 60  1  0
 52 62  1  0
 53 59  1  0
 53 55  1  0
 54 60  1  0
 55 56  2  0
 55 54  1  0
 57 51  2  0
 58 57  1  0
 58 53  2  0
 59 52  1  0
 60 50  1  0
 62 64  2  0
 63 62  1  0
 65 63  1  0
 66 75  2  0
 66 71  1  0
 67 63  1  0
 67 71  1  0
 68 67  1  0
 69 70  1  0
 69 68  1  0
 70 66  1  0
 71 72  2  0
 72 73  1  0
 74 73  2  0
 75 74  1  0
 76 50  1  0
 76 81  1  0
 76 77  1  0
 77 80  1  1
 77 78  1  0
 79 77  1  0
 81 84  1  0
 82 86  1  0
 82 81  1  0
 83 82  2  0
 86 85  1  0
 88 86  1  0
 88 89  1  0
 88 87  1  0
M  ISO  4   5 100  17 100  48 101  49 101
M  END
>  <TORSDO>  (88) 
F 19

>  <SCORE>  (88) 
-15.745

>  <name>  (88) 
89

>  <ligand_id>  (88) 
89

>  <original_smiles>  (88) 
[H]c1c([H])c([H])c2c(c1[H])C([H])([H])C([H])([H])C([H])([H])C2([H])N([H])C(=O)C1([H])N(C(=O)C([H])(N([H])C(=O)C([H])(N([H])C([H])([H])[H])C([H])([H])[H])C(C([H])([H])[H])(C([H])([H])[H])C([H])([H])[H])C([H])([H])c2c([H])c(OC([H])([H])C([H])(C([H])([H])C([H])([H])[H])C([H])([H])[N+]3([H])C([H])([H])C([H])([H])N(C(=O)N4C([H])([H])C([H])([H])C([H])([H])C([H])(n5nc(-c6c([H])c([H])c(Oc7c([H])c([H])c(F)c([H])c7F)c([H])c6[H])c(C(=O)N([H])[H])c5N([H])[H])C4([H])[H])C([H])([H])C3([H])[H])c([H])c([H])c2C1([H])[H]

>  <smiles>  (88) 
[H]c1c([H])c([H])c2c(c1[H])C([H])([H])C([H])([H])C([H])([H])C2([H])N([H])C(=O)C1([H])N(C(=O)C([H])(N([H])C(=O)C([H])(N([H])C([H])([H])[H])C([H])([H])[H])C(C([H])([H])[H])(C([H])([H])[H])C([H])([H])[H])C([H])([H])c2c([H])c(OC([H])([H])C([H])(C([H])([H])C([H])([H])[H])C([H])([H])[N+]3([H])C([H])([H])C([H])([H])N(C(=O)N4C([H])([H])C([H])([H])C([H])([H])C([H])(n5nc(-c6c([H])c([H])c(Oc7c([H])c([H])c(F)c([H])c7F)c([H])c6[H])c(C(=O)N([H])[H])c5N([H])[H])C4([H])[H])C([H])([H])C3([H])[H])c([H])c([H])c2C1([H])[H]

$$$$
90:0:0
     RDKit          3D

107115  0  0  1  0  0  0  0  0999 V2000
  -29.4330  -18.1700   19.3050 C   0  0  0  0  0  3  0  0  0  0  0  0
  -29.4330  -21.1490   21.8330 C   0  0  0  0  0  2  0  0  0  0  0  0
  -29.9910  -21.9480   19.6730 C   0  0  0  0  0  2  0  0  0  0  0  0
  -29.0240  -19.7620   21.2620 C   0  0  0  0  0  2  0  0  0  0  0  0
  -29.5140  -20.6380   19.0350 C   0  0  0  0  0  2  0  0  0  0  0  0
  -29.1810  -22.2310   20.8630 N   0  0  0  0  0  0  0  0  0  0  0  0
  -29.7010  -19.4900   19.9620 N   0  0  2  0  0  4  0  0  0  0  0  0
  -30.6880  -19.4780   20.1690 H   0  0  0  0  0  0  0  0  0  0  0  0
  -29.5330  -23.5390   21.4420 C   0  0  0  0  0  2  0  0  0  0  0  0
  -29.0540  -24.7360   20.5790 C   0  0  0  0  0  2  0  0  0  0  0  0
  -29.2190  -26.1080   21.2600 C   0  0  0  0  0  2  0  0  0  0  0  0
  -29.0880  -27.1610   20.3020 O   0  0  0  0  0  0  0  0  0  0  0  0
  -24.6400  -31.8840   23.2020 C   0  0  0  0  0  0  0  0  0  0  0  0
  -27.8570  -27.7620   20.2610 C   0  0  0  0  0  0  0  0  0  0  0  0
  -23.6690  -30.4090   21.4680 C   0  0  0  0  0  3  0  0  0  0  0  0
  -25.3410  -29.0240   20.1290 C   0  0  0  0  0  0  0  0  0  0  0  0
  -26.1570  -30.9960   21.4390 C   0  0  0  0  0  2  0  0  0  0  0  0
  -26.4050  -29.6510   20.7920 C   0  0  0  0  0  0  0  0  0  0  0  0
  -27.6700  -29.0290   20.8510 C   0  0  0  0  0  3  0  0  0  0  0  0
  -26.7840  -27.1400   19.5910 C   0  0  0  0  0  3  0  0  0  0  0  0
  -25.5250  -27.7680   19.5230 C   0  0  0  0  0  3  0  0  0  0  0  0
  -24.0240  -29.7690   20.0990 C   0  0  0  0  0  2  0  0  0  0  0  0
  -24.8360  -31.1130   22.0960 N   0  0  0  0  0  0  0  0  0  0  0  0
  -23.5070  -32.0510   23.6750 O   0  0  0  0  0  0  0  0  0  0  0  0
  -23.0520  -29.3210   22.3750 C   0  0  0  0  0  0  0  0  0  0  0  0
  -21.7440  -29.0700   22.2030 N   0  0  0  0  0  0  0  0  0  0  0  0
  -23.7460  -28.7040   23.1880 O   0  0  0  0  0  0  0  0  0  0  0  0
  -21.2440  -29.6210   21.5190 H   0  0  0  0  0  0  0  0  0  0  0  0
  -18.4090  -27.7490   22.6320 C   0  0  0  0  0  0  0  0  0  0  0  0
  -20.9590  -28.0640   22.9150 C   0  0  0  0  0  3  0  0  0  0  0  0
  -21.1020  -26.6770   22.2520 C   0  0  0  0  0  2  0  0  0  0  0  0
  -20.0060  -26.3850   21.2210 C   0  0  0  0  0  2  0  0  0  0  0  0
  -18.6230  -26.4510   21.8740 C   0  0  0  0  0  2  0  0  0  0  0  0
  -19.5070  -28.5150   23.1080 C   0  0  0  0  0  0  0  0  0  0  0  0
  -19.2540  -29.7330   23.7750 C   0  0  0  0  0  3  0  0  0  0  0  0
  -17.9360  -30.1860   23.9730 C   0  0  0  0  0  3  0  0  0  0  0  0
  -16.8520  -29.4160   23.5140 C   0  0  0  0  0  3  0  0  0  0  0  0
  -17.0900  -28.1990   22.8490 C   0  0  0  0  0  3  0  0  0  0  0  0
  -25.8250  -32.6120   23.9130 C   0  0  0  0  0  3  0  0  0  0  0  0
  -25.3920  -33.9870   24.1950 N   0  0  0  0  0  0  0  0  0  0  0  0
  -25.6950  -35.0490   23.4370 C   0  0  0  0  0  0  0  0  0  0  0  0
  -26.4350  -34.9820   22.4540 O   0  0  0  0  0  0  0  0  0  0  0  0
  -24.7350  -34.1060   24.9510 H   0  0  0  0  0  0  0  0  0  0  0  0
  -23.8540  -36.6910   22.9470 C   0  0  0  0  0  1  0  0  0  0  0  0
  -25.0740  -36.4030   23.8340 C   0  0  0  0  0  3  0  0  0  0  0  0
  -27.0880  -37.4640   24.7570 C   0  0  0  0  0  1  0  0  0  0  0  0
  -26.0260  -37.5320   23.7560 N   0  0  0  0  0  0  0  0  0  0  0  0
  -25.5440  -38.4190   23.8640 H   0  0  0  0  0  0  0  0  0  0  0  0
  -26.2970  -31.8930   25.2350 C   0  0  1  0  0  0  0  0  0  0  0  0
  -25.1380  -31.5260   26.1930 C   0  0  0  0  0  1  0  0  0  0  0  0
  -27.0660  -30.5920   24.9050 C   0  0  0  0  0  1  0  0  0  0  0  0
  -27.2810  -32.8070   26.0030 C   0  0  0  0  0  1  0  0  0  0  0  0
  -30.5160  -17.0640   19.5650 C   0  0  0  0  0  0  0  0  0  0  0  0
  -30.9570  -14.8120   20.5250 C   0  0  0  0  0  0  0  0  0  0  0  0
  -30.7110  -12.5790   19.5780 C   0  0  0  0  0  2  0  0  0  0  0  0
  -29.8610  -12.7260   18.3010 C   0  0  0  0  0  2  0  0  0  0  0  0
  -28.3610  -12.6060   18.6380 C   0  0  0  0  0  2  0  0  0  0  0  0
  -27.9380  -13.4920   19.8460 C   0  0  0  0  0  3  0  0  0  0  0  0
  -28.9320  -13.3870   21.0280 C   0  0  0  0  0  2  0  0  0  0  0  0
  -30.2800  -13.6370   20.5040 N   0  0  0  0  0  0  0  0  0  0  0  0
  -32.1520  -14.8680   20.2420 O   0  0  0  0  0  0  0  0  0  0  0  0
  -30.2000  -15.9380   20.4890 N   0  0  0  0  0  4  0  0  0  0  0  0
  -29.2370  -15.8240   20.7720 H   0  0  0  0  0  0  0  0  0  0  0  0
  -25.5100  -14.0870   20.4540 C   0  0  0  0  0  0  0  0  0  0  0  0
  -24.4330  -13.3140   20.7810 C   0  0  0  0  0  0  0  0  0  0  0  0
  -24.9010  -11.9670   20.7730 C   0  0  0  0  0  0  0  0  0  0  0  0
  -26.5710  -13.2120   20.2660 N   0  0  0  0  0  0  0  0  0  0  0  0
  -26.2020  -11.9310   20.5180 N   0  0  0  0  0  0  0  0  0  0  0  0
  -24.1690  -10.7060   20.9350 C   0  0  0  0  0  0  0  0  0  0  0  0
  -24.5460   -9.7560   21.9090 C   0  0  0  0  0  3  0  0  0  0  0  0
  -23.8150   -8.5580   22.0610 C   0  0  0  0  0  3  0  0  0  0  0  0
  -22.6920   -8.3040   21.2380 C   0  0  0  0  0  0  0  0  0  0  0  0
  -22.3340   -9.2450   20.2540 C   0  0  0  0  0  3  0  0  0  0  0  0
  -23.0660  -10.4350   20.1010 C   0  0  0  0  0  3  0  0  0  0  0  0
  -21.9360   -7.1600   21.2970 O   0  0  0  0  0  0  0  0  0  0  0  0
  -21.7930   -6.4520   22.4620 C   0  0  0  0  0  0  0  0  0  0  0  0
  -21.2580   -7.0350   23.6300 C   0  0  0  0  0  3  0  0  0  0  0  0
  -21.0640   -6.2530   24.7850 C   0  0  0  0  0  3  0  0  0  0  0  0
  -21.3980   -4.8850   24.7690 C   0  0  0  0  0  0  0  0  0  0  0  0
  -21.9200   -4.2980   23.6050 C   0  0  0  0  0  3  0  0  0  0  0  0
  -22.1150   -5.0790   22.4530 C   0  0  0  0  0  0  0  0  0  0  0  0
  -22.6020   -4.5060   21.3290 F   0  0  0  0  0  0  0  0  0  0  0  0
  -21.2050   -4.1300   25.8750 F   0  0  0  0  0  0  0  0  0  0  0  0
  -23.0260  -13.7940   20.9880 C   0  0  0  0  0  0  0  0  0  0  0  0
  -22.2730  -13.1320   21.8610 N   0  0  0  0  0  0  0  0  0  0  0  0
  -22.6010  -14.7930   20.4090 O   0  0  0  0  0  0  0  0  0  0  0  0
  -22.6300  -12.3280   22.3550 H   0  0  0  0  0  0  0  0  0  0  0  0
  -21.3240  -13.4370   22.0380 H   0  0  0  0  0  0  0  0  0  0  0  0
  -25.6650  -15.4550   20.2890 N   0  0  0  0  0  0  0  0  0  0  0  0
  -24.8810  -16.0920   20.3660 H   0  0  0  0  0  0  0  0  0  0  0  0
  -26.5100  -15.8950   19.9570 H   0  0  0  0  0  0  0  0  0  0  0  0
  -31.9800  -17.6110   19.5900 C   0  0  0  0  0  2  0  0  0  0  0  0
  -32.5630  -17.6860   18.1630 C   0  0  0  0  0  2  0  0  0  0  0  0
  -34.0870  -17.8730   18.1260 C   0  0  0  0  0  2  0  0  0  0  0  0
  -34.6610  -18.0480   16.7050 C   0  0  0  0  0  2  0  0  0  0  0  0
  -34.4060  -16.8900   15.8290 N   0  0  0  0  0  4  0  0  0  0  0  0
  -34.7850  -16.0480   16.2240 H   0  0  0  0  0  0  0  0  0  0  0  0
  -34.8450  -17.0440   14.9400 H   0  0  0  0  0  0  0  0  0  0  0  0
  -33.4250  -16.7550   15.6660 H   0  0  0  0  0  0  0  0  0  0  0  0
  -27.9460  -17.7270   19.3180 C   0  0  0  0  0  2  0  0  0  0  0  0
  -27.2340  -17.8310   17.9460 C   0  0  0  0  0  2  0  0  0  0  0  0
  -27.3180  -19.2300   17.2810 C   0  0  0  0  0  2  0  0  0  0  0  0
  -26.6230  -20.3760   18.0550 C   0  0  0  0  0  2  0  0  0  0  0  0
  -25.2530  -20.6340   17.5840 N   0  0  0  0  0  4  0  0  0  0  0  0
  -25.2580  -20.9550   16.6330 H   0  0  0  0  0  0  0  0  0  0  0  0
  -24.8340  -21.3530   18.1460 H   0  0  0  0  0  0  0  0  0  0  0  0
  -24.6810  -19.8120   17.6460 H   0  0  0  0  0  0  0  0  0  0  0  0
  1100  1  0
  1 53  1  0
  1  7  1  0
  3  6  1  0
  4  2  1  0
  5  3  1  0
  5  7  1  0
  6  9  1  0
  6  2  1  0
  7  8  1  1
  7  4  1  0
 10 11  1  0
 10  9  1  0
 12 11  1  0
 13 24  2  0
 14 12  1  0
 14 19  1  0
 15 23  1  0
 15 25  1  0
 16 18  1  0
 17 23  1  0
 18 19  2  0
 18 17  1  0
 20 14  2  0
 21 20  1  0
 21 16  2  0
 22 16  1  0
 22 15  1  0
 23 13  1  0
 25 27  2  0
 26 25  1  0
 28 26  1  0
 29 38  2  0
 29 34  1  0
 30 26  1  0
 30 34  1  0
 31 30  1  0
 32 33  1  0
 32 31  1  0
 33 29  1  0
 34 35  2  0
 35 36  1  0
 37 36  2  0
 38 37  1  0
 39 13  1  0
 39 40  1  0
 39 49  1  0
 40 43  1  0
 41 45  1  0
 41 40  1  0
 42 41  2  0
 45 44  1  0
 47 45  1  0
 47 48  1  0
 47 46  1  0
 49 52  1  1
 49 50  1  0
 51 49  1  0
 53 92  1  0
 53 62  2  0
 55 60  1  0
 56 57  1  0
 56 55  1  0
 58 57  1  0
 58 67  1  0
 58 59  1  0
 60 54  1  0
 60 59  1  0
 61 54  2  0
 62 54  1  0
 62 63  1  0
 64 65  2  0
 65 84  1  0
 66 65  1  0
 66 69  1  0
 67 64  1  0
 67 68  1  0
 68 66  2  0
 69 70  1  0
 70 71  2  0
 72 75  1  0
 72 71  1  0
 73 72  2  0
 74 73  1  0
 74 69  2  0
 75 76  1  0
 76 77  1  0
 77 78  2  0
 79 78  1  0
 79 83  1  0
 80 79  2  0
 81 76  2  0
 81 80  1  0
 82 81  1  0
 84 85  1  0
 85 88  1  0
 85 87  1  0
 86 84  2  0
 89 90  1  0
 89 64  1  0
 91 89  1  0
 93 92  1  0
 94 93  1  0
 95 94  1  0
 96 97  1  0
 96 95  1  0
 98 96  1  0
 99 96  1  0
101100  1  0
102101  1  0
102103  1  0
104107  1  0
104103  1  0
104106  1  0
105104  1  0
M  ISO  4  11 101  12 101  54 100  62 100
M  END
>  <TORSDO>  (89) 
F 31

>  <SCORE>  (89) 
-10.134

>  <name>  (89) 
90

>  <ligand_id>  (89) 
90

>  <original_smiles>  (89) 
[H]c1c([H])c([H])c2c(c1[H])C([H])([H])C([H])([H])C([H])([H])C2([H])N([H])C(=O)C1([H])N(C(=O)C([H])(N([H])C(=O)C([H])(N([H])C([H])([H])[H])C([H])([H])[H])C(C([H])([H])[H])(C([H])([H])[H])C([H])([H])[H])C([H])([H])c2c([H])c(OC([H])([H])C([H])([H])C([H])([H])N3C([H])([H])C([H])([H])[N+]([H])(C([H])(C([H])([H])C([H])([H])C([H])([H])C([H])([H])[N+]([H])([H])[H])C([H])(N([H])C(=O)N4C([H])([H])C([H])([H])C([H])([H])C([H])(n5nc(-c6c([H])c([H])c(Oc7c([H])c([H])c(F)c([H])c7F)c([H])c6[H])c(C(=O)N([H])[H])c5N([H])[H])C4([H])[H])C([H])([H])C([H])([H])C([H])([H])C([H])([H])[N+]([H])([H])[H])C([H])([H])C3([H])[H])c([H])c([H])c2C1([H])[H]

>  <smiles>  (89) 
[H]c1c([H])c([H])c2c(c1[H])C([H])([H])C([H])([H])C([H])([H])C2([H])N([H])C(=O)C1([H])N(C(=O)C([H])(N([H])C(=O)C([H])(N([H])C([H])([H])[H])C([H])([H])[H])C(C([H])([H])[H])(C([H])([H])[H])C([H])([H])[H])C([H])([H])c2c([H])c(OC([H])([H])C([H])([H])C([H])([H])N3C([H])([H])C([H])([H])[N+]([H])(C([H])(C([H])([H])C([H])([H])C([H])([H])C([H])([H])[N+]([H])([H])[H])C([H])(N([H])C(=O)N4C([H])([H])C([H])([H])C([H])([H])C([H])(n5nc(-c6c([H])c([H])c(Oc7c([H])c([H])c(F)c([H])c7F)c([H])c6[H])c(C(=O)N([H])[H])c5N([H])[H])C4([H])[H])C([H])([H])C([H])([H])C([H])([H])C([H])([H])[N+]([H])([H])[H])C([H])([H])C3([H])[H])c([H])c([H])c2C1([H])[H]

$$$$
91:0:0
     RDKit          3D

 99106  0  0  1  0  0  0  0  0999 V2000
  -29.6900  -21.5210   19.8850 C   0  0  0  0  0  3  0  0  0  0  0  0
  -29.3770  -22.7040   20.7660 N   0  0  0  0  0  4  0  0  0  0  0  0
  -28.4230  -22.6160   21.0760 H   0  0  0  0  0  0  0  0  0  0  0  0
  -29.9400  -22.6040   21.5970 H   0  0  0  0  0  0  0  0  0  0  0  0
  -29.6140  -24.1100   20.2430 C   0  0  0  0  0  2  0  0  0  0  0  0
  -28.3350  -25.0170   20.1310 C   0  0  0  0  0  2  0  0  0  0  0  0
  -28.5260  -26.4730   20.1470 O   0  0  0  0  0  0  0  0  0  0  0  0
  -24.7010  -31.7270   23.2420 C   0  0  0  0  0  0  0  0  0  0  0  0
  -27.3790  -27.2740   20.1180 C   0  0  0  0  0  0  0  0  0  0  0  0
  -23.5220  -30.3560   21.5590 C   0  0  0  0  0  3  0  0  0  0  0  0
  -24.9960  -28.8450   20.1250 C   0  0  0  0  0  0  0  0  0  0  0  0
  -26.0600  -30.6970   21.4130 C   0  0  0  0  0  2  0  0  0  0  0  0
  -26.1540  -29.3360   20.7400 C   0  0  0  0  0  0  0  0  0  0  0  0
  -27.3500  -28.5630   20.7280 C   0  0  0  0  0  3  0  0  0  0  0  0
  -26.1930  -26.8270   19.4880 C   0  0  0  0  0  3  0  0  0  0  0  0
  -25.0160  -27.5940   19.4920 C   0  0  0  0  0  3  0  0  0  0  0  0
  -23.7550  -29.7090   20.1690 C   0  0  0  0  0  2  0  0  0  0  0  0
  -24.7800  -30.9420   22.1280 N   0  0  0  0  0  0  0  0  0  0  0  0
  -23.6110  -31.9910   23.7660 O   0  0  0  0  0  0  0  0  0  0  0  0
  -22.8530  -29.3180   22.4890 C   0  0  0  0  0  0  0  0  0  0  0  0
  -21.5330  -29.1230   22.3250 N   0  0  0  0  0  0  0  0  0  0  0  0
  -23.5210  -28.6910   23.3160 O   0  0  0  0  0  0  0  0  0  0  0  0
  -21.0560  -29.6830   21.6330 H   0  0  0  0  0  0  0  0  0  0  0  0
  -18.1650  -27.8620   22.6980 C   0  0  0  0  0  0  0  0  0  0  0  0
  -20.7060  -28.1670   23.0620 C   0  0  0  0  0  3  0  0  0  0  0  0
  -20.8560  -26.7400   22.4860 C   0  0  0  0  0  2  0  0  0  0  0  0
  -19.7980  -26.4010   21.4320 C   0  0  0  0  0  2  0  0  0  0  0  0
  -18.3910  -26.5170   22.0260 C   0  0  0  0  0  2  0  0  0  0  0  0
  -19.2530  -28.6430   23.1700 C   0  0  0  0  0  0  0  0  0  0  0  0
  -18.9890  -29.9000   23.7560 C   0  0  0  0  0  3  0  0  0  0  0  0
  -17.6700  -30.3770   23.8750 C   0  0  0  0  0  3  0  0  0  0  0  0
  -16.5960  -29.5920   23.4210 C   0  0  0  0  0  3  0  0  0  0  0  0
  -16.8440  -28.3370   22.8380 C   0  0  0  0  0  3  0  0  0  0  0  0
  -25.9750  -32.3490   23.8930 C   0  0  0  0  0  3  0  0  0  0  0  0
  -25.6500  -33.7310   24.2690 N   0  0  0  0  0  0  0  0  0  0  0  0
  -25.9790  -34.8140   23.5510 C   0  0  0  0  0  0  0  0  0  0  0  0
  -26.6590  -34.7530   22.5230 O   0  0  0  0  0  0  0  0  0  0  0  0
  -25.0480  -33.8510   25.0710 H   0  0  0  0  0  0  0  0  0  0  0  0
  -24.2430  -36.6060   23.2400 C   0  0  0  0  0  1  0  0  0  0  0  0
  -25.4750  -36.1800   24.0540 C   0  0  0  0  0  3  0  0  0  0  0  0
  -27.5920  -37.0480   24.9460 C   0  0  0  0  0  1  0  0  0  0  0  0
  -26.5010  -37.2440   23.9950 N   0  0  0  0  0  0  0  0  0  0  0  0
  -26.0860  -38.1550   24.1710 H   0  0  0  0  0  0  0  0  0  0  0  0
  -26.4920  -31.5380   25.1440 C   0  0  1  0  0  0  0  0  0  0  0  0
  -25.3970  -31.2560   26.1990 C   0  0  0  0  0  1  0  0  0  0  0  0
  -27.0850  -30.1780   24.7060 C   0  0  0  0  0  1  0  0  0  0  0  0
  -27.6340  -32.3170   25.8360 C   0  0  0  0  0  1  0  0  0  0  0  0
  -28.4230  -20.7330   19.4830 C   0  0  0  0  0  2  0  0  0  0  0  0
  -27.4790  -21.5020   18.5370 C   0  0  0  0  0  2  0  0  0  0  0  0
  -26.2490  -20.6740   18.1230 C   0  0  0  0  0  2  0  0  0  0  0  0
  -25.3440  -21.4160   17.1200 C   0  0  0  0  0  2  0  0  0  0  0  0
  -24.2010  -20.5930   16.6860 N   0  0  0  0  0  4  0  0  0  0  0  0
  -24.5150  -19.7590   16.2240 H   0  0  0  0  0  0  0  0  0  0  0  0
  -23.6380  -21.1120   16.0350 H   0  0  0  0  0  0  0  0  0  0  0  0
  -23.6230  -20.3370   17.4660 H   0  0  0  0  0  0  0  0  0  0  0  0
  -30.8400  -20.5700   20.4030 C   0  0  0  0  0  2  0  0  0  0  0  0
  -30.7020  -18.0180   20.4320 C   0  0  0  0  0  0  0  0  0  0  0  0
  -30.5230  -19.2410   21.0000 N   0  0  0  0  0  0  0  0  0  0  0  0
  -30.7650  -17.8630   19.2120 O   0  0  0  0  0  0  0  0  0  0  0  0
  -30.4270  -19.2330   22.0080 H   0  0  0  0  0  0  0  0  0  0  0  0
  -30.9320  -16.8070   21.3810 C   0  0  0  0  0  2  0  0  0  0  0  0
  -31.2060  -14.4000   20.5200 C   0  0  0  0  0  0  0  0  0  0  0  0
  -30.8970  -12.1870   19.4410 C   0  0  0  0  0  2  0  0  0  0  0  0
  -29.9740  -12.3440   18.2130 C   0  0  0  0  0  2  0  0  0  0  0  0
  -28.4900  -12.2580   18.6220 C   0  0  0  0  0  2  0  0  0  0  0  0
  -28.1520  -13.1590   19.8410 C   0  0  0  0  0  3  0  0  0  0  0  0
  -29.1840  -12.9560   20.9730 C   0  0  0  0  0  2  0  0  0  0  0  0
  -30.5170  -13.2260   20.4100 N   0  0  0  0  0  0  0  0  0  0  0  0
  -32.3730  -14.5230   20.1380 O   0  0  0  0  0  0  0  0  0  0  0  0
  -30.4830  -15.4540   20.9640 N   0  0  0  0  0  0  0  0  0  0  0  0
  -29.5140  -15.2490   21.1540 H   0  0  0  0  0  0  0  0  0  0  0  0
  -25.7950  -13.8860   20.5730 C   0  0  0  0  0  0  0  0  0  0  0  0
  -24.6790  -13.1690   20.9070 C   0  0  0  0  0  0  0  0  0  0  0  0
  -25.0550  -11.7920   20.8240 C   0  0  0  0  0  0  0  0  0  0  0  0
  -26.7840  -12.9500   20.3070 N   0  0  0  0  0  0  0  0  0  0  0  0
  -26.3420  -11.6840   20.5190 N   0  0  0  0  0  0  0  0  0  0  0  0
  -24.2500  -10.5720   20.9600 C   0  0  0  0  0  0  0  0  0  0  0  0
  -24.6110   -9.5460   21.8610 C   0  0  0  0  0  3  0  0  0  0  0  0
  -23.8110   -8.3900   21.9870 C   0  0  0  0  0  3  0  0  0  0  0  0
  -22.6350   -8.2520   21.2100 C   0  0  0  0  0  0  0  0  0  0  0  0
  -22.2950   -9.2660   20.2970 C   0  0  0  0  0  3  0  0  0  0  0  0
  -23.0950  -10.4130   20.1690 C   0  0  0  0  0  3  0  0  0  0  0  0
  -21.8110   -7.1540   21.2470 O   0  0  0  0  0  0  0  0  0  0  0  0
  -21.6770   -6.3910   22.3800 C   0  0  0  0  0  0  0  0  0  0  0  0
  -21.2570   -6.9500   23.6070 C   0  0  0  0  0  3  0  0  0  0  0  0
  -21.0660   -6.1190   24.7280 C   0  0  0  0  0  3  0  0  0  0  0  0
  -21.2830   -4.7310   24.6230 C   0  0  0  0  0  0  0  0  0  0  0  0
  -21.6940   -4.1730   23.4000 C   0  0  0  0  0  3  0  0  0  0  0  0
  -21.8880   -5.0020   22.2810 C   0  0  0  0  0  0  0  0  0  0  0  0
  -22.2640   -4.4550   21.1000 F   0  0  0  0  0  0  0  0  0  0  0  0
  -21.0900   -3.9320   25.6980 F   0  0  0  0  0  0  0  0  0  0  0  0
  -23.3120  -13.7220   21.1930 C   0  0  0  0  0  0  0  0  0  0  0  0
  -22.5420  -13.0470   22.0380 N   0  0  0  0  0  0  0  0  0  0  0  0
  -22.9380  -14.7850   20.7010 O   0  0  0  0  0  0  0  0  0  0  0  0
  -22.8590  -12.1860   22.4610 H   0  0  0  0  0  0  0  0  0  0  0  0
  -21.6220  -13.3960   22.2680 H   0  0  0  0  0  0  0  0  0  0  0  0
  -26.0470  -15.2500   20.4510 N   0  0  0  0  0  0  0  0  0  0  0  0
  -25.3200  -15.9440   20.5820 H   0  0  0  0  0  0  0  0  0  0  0  0
  -26.9170  -15.6460   20.1190 H   0  0  0  0  0  0  0  0  0  0  0  0
  1 48  1  0
  1 56  1  0
  1  2  1  0
  2  3  1  0
  2  4  1  0
  5  2  1  0
  6  7  1  0
  6  5  1  0
  8 19  2  0
  9  7  1  0
  9 14  1  0
 10 18  1  0
 10 20  1  0
 11 17  1  0
 11 13  1  0
 12 18  1  0
 13 12  1  0
 14 13  2  0
 15 16  1  0
 15  9  2  0
 16 11  2  0
 17 10  1  0
 18  8  1  0
 20 22  2  0
 21 20  1  0
 23 21  1  0
 24 33  2  0
 24 29  1  0
 25 21  1  0
 25 29  1  0
 26 25  1  0
 27 28  1  0
 27 26  1  0
 28 24  1  0
 29 30  2  0
 30 31  1  0
 32 31  2  0
 33 32  1  0
 34  8  1  0
 34 35  1  0
 34 44  1  0
 35 38  1  0
 36 40  1  0
 36 35  1  0
 37 36  2  0
 40 39  1  0
 42 40  1  0
 42 43  1  0
 42 41  1  0
 44 47  1  1
 44 45  1  0
 46 44  1  0
 49 48  1  0
 50 49  1  0
 51 50  1  0
 52 51  1  0
 52 55  1  0
 53 52  1  0
 54 52  1  0
 56 58  1  0
 57 58  1  0
 57 61  1  0
 58 60  1  0
 59 57  2  0
 62 70  1  0
 63 68  1  0
 64 65  1  0
 64 63  1  0
 66 65  1  0
 66 75  1  0
 66 67  1  0
 68 62  1  0
 68 67  1  0
 69 62  2  0
 70 71  1  0
 70 61  1  0
 72 73  2  0
 73 92  1  0
 74 73  1  0
 74 77  1  0
 75 76  1  0
 75 72  1  0
 76 74  2  0
 77 78  1  0
 78 79  2  0
 80 83  1  0
 80 79  1  0
 81 80  2  0
 82 81  1  0
 82 77  2  0
 83 84  1  0
 84 85  1  0
 85 86  2  0
 87 86  1  0
 87 91  1  0
 88 87  2  0
 89 84  2  0
 89 88  1  0
 90 89  1  0
 92 93  1  0
 93 96  1  0
 93 95  1  0
 94 92  2  0
 97 72  1  0
 97 98  1  0
 99 97  1  0
M  ISO  4   6 101   7 101  62 100  70 100
M  END
>  <TORSDO>  (90) 
F 27

>  <SCORE>  (90) 
-11.523

>  <name>  (90) 
91

>  <ligand_id>  (90) 
91

>  <original_smiles>  (90) 
[H]c1c([H])c([H])c2c(c1[H])C([H])([H])C([H])([H])C([H])([H])C2([H])N([H])C(=O)C1([H])N(C(=O)C([H])(N([H])C(=O)C([H])(N([H])C([H])([H])[H])C([H])([H])[H])C(C([H])([H])[H])(C([H])([H])[H])C([H])([H])[H])C([H])([H])c2c([H])c(OC([H])([H])C([H])([H])[N+]([H])([H])C([H])(C([H])([H])N([H])C(=O)C([H])([H])N([H])C(=O)N3C([H])([H])C([H])([H])C([H])([H])C([H])(n4nc(-c5c([H])c([H])c(Oc6c([H])c([H])c(F)c([H])c6F)c([H])c5[H])c(C(=O)N([H])[H])c4N([H])[H])C3([H])[H])C([H])([H])C([H])([H])C([H])([H])C([H])([H])[N+]([H])([H])[H])c([H])c([H])c2C1([H])[H]

>  <smiles>  (90) 
[H]c1c([H])c([H])c2c(c1[H])C([H])([H])C([H])([H])C([H])([H])C2([H])N([H])C(=O)C1([H])N(C(=O)C([H])(N([H])C(=O)C([H])(N([H])C([H])([H])[H])C([H])([H])[H])C(C([H])([H])[H])(C([H])([H])[H])C([H])([H])[H])C([H])([H])c2c([H])c(OC([H])([H])C([H])([H])[N+]([H])([H])C([H])(C([H])([H])N([H])C(=O)C([H])([H])N([H])C(=O)N3C([H])([H])C([H])([H])C([H])([H])C([H])(n4nc(-c5c([H])c([H])c(Oc6c([H])c([H])c(F)c([H])c6F)c([H])c5[H])c(C(=O)N([H])[H])c4N([H])[H])C3([H])[H])C([H])([H])C([H])([H])C([H])([H])C([H])([H])[N+]([H])([H])[H])c([H])c([H])c2C1([H])[H]

$$$$
92:0:0
     RDKit          3D

105112  0  0  1  0  0  0  0  0999 V2000
  -29.0140  -21.9030   21.3100 C   0  0  0  0  0  3  0  0  0  0  0  0
  -27.8460  -22.9800   21.3270 C   0  0  0  0  0  2  0  0  0  0  0  0
  -28.0320  -24.5530   21.4220 C   0  0  0  0  0  3  0  0  0  0  0  0
  -28.7600  -25.0350   22.6130 N   0  0  0  0  0  4  0  0  0  0  0  0
  -28.5760  -26.0190   22.7200 H   0  0  0  0  0  0  0  0  0  0  0  0
  -29.7570  -24.9480   22.5170 H   0  0  0  0  0  0  0  0  0  0  0  0
  -28.4270  -24.6010   23.4560 H   0  0  0  0  0  0  0  0  0  0  0  0
  -28.4700  -25.3170   20.1230 C   0  0  0  0  0  2  0  0  0  0  0  0
  -28.4640  -26.7650   20.2150 O   0  0  0  0  0  0  0  0  0  0  0  0
  -24.6130  -31.9070   23.2580 C   0  0  0  0  0  0  0  0  0  0  0  0
  -27.2830  -27.4890   20.1470 C   0  0  0  0  0  0  0  0  0  0  0  0
  -23.4130  -30.4930   21.6210 C   0  0  0  0  0  3  0  0  0  0  0  0
  -24.8740  -28.9870   20.1700 C   0  0  0  0  0  0  0  0  0  0  0  0
  -25.9300  -30.8890   21.3950 C   0  0  0  0  0  2  0  0  0  0  0  0
  -26.0320  -29.5200   20.7500 C   0  0  0  0  0  0  0  0  0  0  0  0
  -27.2390  -28.7820   20.7280 C   0  0  0  0  0  3  0  0  0  0  0  0
  -26.1120  -26.9860   19.5370 C   0  0  0  0  0  3  0  0  0  0  0  0
  -24.9130  -27.7250   19.5560 C   0  0  0  0  0  3  0  0  0  0  0  0
  -23.6180  -29.8240   20.2340 C   0  0  0  0  0  2  0  0  0  0  0  0
  -24.6730  -31.1090   22.1520 N   0  0  0  0  0  0  0  0  0  0  0  0
  -23.5330  -32.1610   23.8070 O   0  0  0  0  0  0  0  0  0  0  0  0
  -22.7870  -29.4560   22.5810 C   0  0  0  0  0  0  0  0  0  0  0  0
  -21.4770  -29.2090   22.4220 N   0  0  0  0  0  0  0  0  0  0  0  0
  -23.4790  -28.8750   23.4210 O   0  0  0  0  0  0  0  0  0  0  0  0
  -20.9780  -29.7320   21.7150 H   0  0  0  0  0  0  0  0  0  0  0  0
  -18.1650  -27.8120   22.7990 C   0  0  0  0  0  0  0  0  0  0  0  0
  -20.6860  -28.2450   23.1840 C   0  0  0  0  0  3  0  0  0  0  0  0
  -20.9060  -26.8040   22.6630 C   0  0  0  0  0  2  0  0  0  0  0  0
  -19.8790  -26.3790   21.6090 C   0  0  0  0  0  2  0  0  0  0  0  0
  -18.4610  -26.4550   22.1810 C   0  0  0  0  0  2  0  0  0  0  0  0
  -19.2100  -28.6580   23.2560 C   0  0  0  0  0  0  0  0  0  0  0  0
  -18.8820  -29.9240   23.7890 C   0  0  0  0  0  3  0  0  0  0  0  0
  -17.5410  -30.3460   23.8710 C   0  0  0  0  0  3  0  0  0  0  0  0
  -16.5110  -29.4960   23.4330 C   0  0  0  0  0  3  0  0  0  0  0  0
  -16.8220  -28.2320   22.9040 C   0  0  0  0  0  3  0  0  0  0  0  0
  -25.8970  -32.5530   23.8690 C   0  0  0  0  0  3  0  0  0  0  0  0
  -25.5740  -33.9500   24.1920 N   0  0  0  0  0  0  0  0  0  0  0  0
  -25.8970  -35.0010   23.4280 C   0  0  0  0  0  0  0  0  0  0  0  0
  -26.5690  -34.8980   22.3980 O   0  0  0  0  0  0  0  0  0  0  0  0
  -24.9700  -34.1030   24.9870 H   0  0  0  0  0  0  0  0  0  0  0  0
  -24.1560  -36.7820   23.0540 C   0  0  0  0  0  1  0  0  0  0  0  0
  -25.3950  -36.3860   23.8730 C   0  0  0  0  0  3  0  0  0  0  0  0
  -27.5080  -37.2910   24.7270 C   0  0  0  0  0  1  0  0  0  0  0  0
  -26.4200  -37.4450   23.7660 N   0  0  0  0  0  0  0  0  0  0  0  0
  -26.0090  -38.3630   23.9010 H   0  0  0  0  0  0  0  0  0  0  0  0
  -26.4300  -31.7880   25.1430 C   0  0  1  0  0  0  0  0  0  0  0  0
  -25.3470  -31.5220   26.2130 C   0  0  0  0  0  1  0  0  0  0  0  0
  -27.0460  -30.4280   24.7420 C   0  0  0  0  0  1  0  0  0  0  0  0
  -27.5580  -32.6020   25.8170 C   0  0  0  0  0  1  0  0  0  0  0  0
  -29.5450  -21.5740   22.7470 C   0  0  0  0  0  2  0  0  0  0  0  0
  -30.9620  -21.9180   23.0030 N   0  0  0  0  0  4  0  0  0  0  0  0
  -31.5980  -21.5210   22.3360 H   0  0  0  0  0  0  0  0  0  0  0  0
  -31.2300  -21.5460   23.8990 H   0  0  0  0  0  0  0  0  0  0  0  0
  -31.1330  -22.9030   23.0550 H   0  0  0  0  0  0  0  0  0  0  0  0
  -28.4220  -20.5730   20.6630 C   0  0  0  0  0  2  0  0  0  0  0  0
  -29.3080  -19.5820   19.9350 N   0  0  1  0  0  4  0  0  0  0  0  0
  -28.6750  -19.1960   19.2510 H   0  0  0  0  0  0  0  0  0  0  0  0
  -30.3970  -20.1550   19.0950 C   0  0  0  0  0  2  0  0  0  0  0  0
  -29.9480  -20.4080   17.6310 C   0  0  0  0  0  2  0  0  0  0  0  0
  -30.9460  -21.2630   16.8230 C   0  0  0  0  0  2  0  0  0  0  0  0
  -30.5140  -21.4820   15.3530 C   0  0  0  0  0  2  0  0  0  0  0  0
  -31.5120  -22.2410   14.5840 N   0  0  0  0  0  4  0  0  0  0  0  0
  -32.3340  -21.6850   14.4350 H   0  0  0  0  0  0  0  0  0  0  0  0
  -31.7730  -23.0790   15.0720 H   0  0  0  0  0  0  0  0  0  0  0  0
  -31.1400  -22.4950   13.6850 H   0  0  0  0  0  0  0  0  0  0  0  0
  -29.6740  -18.3330   20.7050 C   0  0  0  0  0  2  0  0  0  0  0  0
  -30.2460  -17.1790   19.7990 C   0  0  0  0  0  2  0  0  0  0  0  0
  -30.7130  -14.7150   19.8040 C   0  0  0  0  0  0  0  0  0  0  0  0
  -30.4980  -12.4150   18.9310 C   0  0  0  0  0  2  0  0  0  0  0  0
  -29.4730  -12.4020   17.7770 C   0  0  0  0  0  2  0  0  0  0  0  0
  -28.0370  -12.2300   18.3190 C   0  0  0  0  0  2  0  0  0  0  0  0
  -27.7190  -13.2000   19.4880 C   0  0  0  0  0  3  0  0  0  0  0  0
  -28.8480  -13.1920   20.5430 C   0  0  0  0  0  2  0  0  0  0  0  0
  -30.1150  -13.4930   19.8630 N   0  0  0  0  0  0  0  0  0  0  0  0
  -31.7950  -14.8870   19.2390 O   0  0  0  0  0  0  0  0  0  0  0  0
  -29.9730  -15.7780   20.2130 N   0  0  0  0  0  0  0  0  0  0  0  0
  -29.1010  -15.5830   20.6810 H   0  0  0  0  0  0  0  0  0  0  0  0
  -25.4240  -13.7930   20.4860 C   0  0  0  0  0  0  0  0  0  0  0  0
  -24.3850  -13.0120   20.9260 C   0  0  0  0  0  0  0  0  0  0  0  0
  -24.8160  -11.6600   20.7670 C   0  0  0  0  0  0  0  0  0  0  0  0
  -26.4200  -12.9120   20.0920 N   0  0  0  0  0  0  0  0  0  0  0  0
  -26.0660  -11.6230   20.3170 N   0  0  0  0  0  0  0  0  0  0  0  0
  -24.0910  -10.3980   20.9590 C   0  0  0  0  0  0  0  0  0  0  0  0
  -24.5350   -9.4160   21.8720 C   0  0  0  0  0  3  0  0  0  0  0  0
  -23.8040   -8.2210   22.0490 C   0  0  0  0  0  3  0  0  0  0  0  0
  -22.6140   -8.0000   21.3160 C   0  0  0  0  0  0  0  0  0  0  0  0
  -22.1920   -8.9710   20.3890 C   0  0  0  0  0  3  0  0  0  0  0  0
  -22.9240  -10.1560   20.2090 C   0  0  0  0  0  3  0  0  0  0  0  0
  -21.8530   -6.8600   21.4060 O   0  0  0  0  0  0  0  0  0  0  0  0
  -21.7480   -6.1550   22.5800 C   0  0  0  0  0  0  0  0  0  0  0  0
  -21.2220   -6.7370   23.7540 C   0  0  0  0  0  3  0  0  0  0  0  0
  -21.0630   -5.9560   24.9170 C   0  0  0  0  0  3  0  0  0  0  0  0
  -21.4250   -4.5960   24.9050 C   0  0  0  0  0  0  0  0  0  0  0  0
  -21.9460   -4.0150   23.7380 C   0  0  0  0  0  3  0  0  0  0  0  0
  -22.1050   -4.7930   22.5760 C   0  0  0  0  0  0  0  0  0  0  0  0
  -22.5860   -4.2200   21.4470 F   0  0  0  0  0  0  0  0  0  0  0  0
  -21.2690   -3.8430   26.0210 F   0  0  0  0  0  0  0  0  0  0  0  0
  -23.0340  -13.4950   21.3660 C   0  0  0  0  0  0  0  0  0  0  0  0
  -22.3820  -12.7590   22.2590 N   0  0  0  0  0  0  0  0  0  0  0  0
  -22.5700  -14.5580   20.9580 O   0  0  0  0  0  0  0  0  0  0  0  0
  -22.7660  -11.8990   22.6200 H   0  0  0  0  0  0  0  0  0  0  0  0
  -21.4770  -13.0640   22.5880 H   0  0  0  0  0  0  0  0  0  0  0  0
  -25.5950  -15.1670   20.3690 N   0  0  0  0  0  0  0  0  0  0  0  0
  -24.8530  -15.8250   20.5850 H   0  0  0  0  0  0  0  0  0  0  0  0
  -26.4030  -15.6080   19.9460 H   0  0  0  0  0  0  0  0  0  0  0  0
  1 55  1  0
  1  2  1  0
  1 50  1  0
  2  3  1  0
  3  8  1  0
  3  4  1  0
  4  5  1  0
  4  7  1  0
  6  4  1  0
  8  9  1  0
 10 21  2  0
 11  9  1  0
 11 16  1  0
 12 20  1  0
 12 22  1  0
 13 19  1  0
 13 15  1  0
 14 20  1  0
 15 14  1  0
 16 15  2  0
 17 18  1  0
 17 11  2  0
 18 13  2  0
 19 12  1  0
 20 10  1  0
 22 24  2  0
 23 22  1  0
 25 23  1  0
 26 35  2  0
 26 31  1  0
 27 23  1  0
 27 31  1  0
 28 27  1  0
 29 30  1  0
 29 28  1  0
 30 26  1  0
 31 32  2  0
 32 33  1  0
 34 33  2  0
 35 34  1  0
 36 10  1  0
 36 37  1  0
 36 46  1  0
 37 40  1  0
 38 42  1  0
 38 37  1  0
 39 38  2  0
 42 41  1  0
 44 42  1  0
 44 45  1  0
 44 43  1  0
 46 49  1  1
 46 47  1  0
 48 46  1  0
 50 51  1  0
 51 54  1  0
 51 53  1  0
 52 51  1  0
 56 55  1  0
 56 66  1  0
 56 57  1  6
 58 56  1  0
 59 58  1  0
 60 59  1  0
 61 60  1  0
 62 64  1  0
 62 61  1  0
 63 62  1  0
 65 62  1  0
 67 76  1  0
 67 66  1  0
 68 74  1  0
 68 76  1  0
 69 74  1  0
 70 71  1  0
 70 69  1  0
 72 71  1  0
 72 81  1  0
 72 73  1  0
 74 73  1  0
 75 68  2  0
 76 77  1  0
 78 79  2  0
 79 98  1  0
 80 79  1  0
 80 83  1  0
 81 82  1  0
 81 78  1  0
 82 80  2  0
 83 84  1  0
 84 85  2  0
 86 89  1  0
 86 85  1  0
 87 86  2  0
 88 87  1  0
 88 83  2  0
 89 90  1  0
 90 91  1  0
 91 92  2  0
 93 92  1  0
 93 97  1  0
 94 93  2  0
 95 90  2  0
 95 94  1  0
 96 95  1  0
 98 99  1  0
 99102  1  0
 99101  1  0
100 98  2  0
103 78  1  0
103104  1  0
105103  1  0
M  ISO  4   8 101   9 101  68 100  76 100
M  END
>  <TORSDO>  (91) 
F 31

>  <SCORE>  (91) 
-11.119

>  <name>  (91) 
92

>  <ligand_id>  (91) 
92

>  <original_smiles>  (91) 
[H]c1c([H])c([H])c2c(c1[H])C([H])([H])C([H])([H])C([H])([H])C2([H])N([H])C(=O)C1([H])N(C(=O)C([H])(N([H])C(=O)C([H])(N([H])C([H])([H])[H])C([H])([H])[H])C(C([H])([H])[H])(C([H])([H])[H])C([H])([H])[H])C([H])([H])c2c([H])c(OC([H])([H])C([H])(C([H])([H])C([H])(C([H])([H])[N+]([H])([H])[H])C([H])([H])[N+]([H])(C([H])([H])C([H])([H])N([H])C(=O)N3C([H])([H])C([H])([H])C([H])([H])C([H])(n4nc(-c5c([H])c([H])c(Oc6c([H])c([H])c(F)c([H])c6F)c([H])c5[H])c(C(=O)N([H])[H])c4N([H])[H])C3([H])[H])C([H])([H])C([H])([H])C([H])([H])C([H])([H])[N+]([H])([H])[H])[N+]([H])([H])[H])c([H])c([H])c2C1([H])[H]

>  <smiles>  (91) 
[H]c1c([H])c([H])c2c(c1[H])C([H])([H])C([H])([H])C([H])([H])C2([H])N([H])C(=O)C1([H])N(C(=O)C([H])(N([H])C(=O)C([H])(N([H])C([H])([H])[H])C([H])([H])[H])C(C([H])([H])[H])(C([H])([H])[H])C([H])([H])[H])C([H])([H])c2c([H])c(OC([H])([H])C([H])(C([H])([H])C([H])(C([H])([H])[N+]([H])([H])[H])C([H])([H])[N+]([H])(C([H])([H])C([H])([H])N([H])C(=O)N3C([H])([H])C([H])([H])C([H])([H])C([H])(n4nc(-c5c([H])c([H])c(Oc6c([H])c([H])c(F)c([H])c6F)c([H])c5[H])c(C(=O)N([H])[H])c4N([H])[H])C3([H])[H])C([H])([H])C([H])([H])C([H])([H])C([H])([H])[N+]([H])([H])[H])[N+]([H])([H])[H])c([H])c([H])c2C1([H])[H]

$$$$
93:0:0
     RDKit          3D

 92101  0  0  1  0  0  0  0  0999 V2000
  -30.7810  -14.6430   20.3000 C   0  0  0  0  0  0  0  0  0  0  0  0
  -30.5130  -12.3570   19.3900 C   0  0  0  0  0  2  0  0  0  0  0  0
  -29.5960  -12.4070   18.1490 C   0  0  0  0  0  2  0  0  0  0  0  0
  -28.1140  -12.2980   18.5630 C   0  0  0  0  0  2  0  0  0  0  0  0
  -27.7400  -13.2510   19.7280 C   0  0  0  0  0  3  0  0  0  0  0  0
  -28.7850  -13.1930   20.8650 C   0  0  0  0  0  2  0  0  0  0  0  0
  -30.1050  -13.4520   20.2800 N   0  0  0  0  0  0  0  0  0  0  0  0
  -31.9600  -14.7280   19.9560 O   0  0  0  0  0  0  0  0  0  0  0  0
  -29.2670  -17.8600   21.7580 C   0  0  0  0  0  2  0  0  0  0  0  0
  -30.0310  -16.5030   21.7590 C   0  0  0  0  0  2  0  0  0  0  0  0
  -29.3330  -16.4570   19.3380 C   0  0  0  0  0  2  0  0  0  0  0  0
  -30.1020  -21.2010   19.1170 C   0  0  0  0  0  2  0  0  0  0  0  0
  -29.0670  -20.3360   21.0630 C   0  0  0  0  0  2  0  0  0  0  0  0
  -29.8750  -17.8340   18.7880 C   0  0  0  0  0  2  0  0  0  0  0  0
  -31.1170  -20.0230   19.1300 C   0  0  0  0  0  2  0  0  0  0  0  0
  -29.9780  -19.0590   21.0730 C   0  0  0  0  0  3  0  0  0  0  0  0
  -30.0350  -15.7820   20.4680 N   0  0  0  0  0  0  0  0  0  0  0  0
  -29.6990  -21.5520   20.4850 N   0  0  0  0  0  0  0  0  0  0  0  0
  -30.5800  -18.7630   19.7380 N   0  0  1  0  0  4  0  0  0  0  0  0
  -31.4240  -18.2510   19.9520 H   0  0  0  0  0  0  0  0  0  0  0  0
  -25.3840  -13.9260   20.4920 C   0  0  0  0  0  0  0  0  0  0  0  0
  -24.2840  -13.1910   20.8260 C   0  0  0  0  0  0  0  0  0  0  0  0
  -24.6870  -11.8210   20.7400 C   0  0  0  0  0  0  0  0  0  0  0  0
  -26.3860  -13.0150   20.2160 N   0  0  0  0  0  0  0  0  0  0  0  0
  -25.9750  -11.7400   20.4330 N   0  0  0  0  0  0  0  0  0  0  0  0
  -23.9090  -10.5880   20.8780 C   0  0  0  0  0  0  0  0  0  0  0  0
  -24.3170   -9.5550   21.7500 C   0  0  0  0  0  3  0  0  0  0  0  0
  -23.5400   -8.3840   21.8790 C   0  0  0  0  0  3  0  0  0  0  0  0
  -22.3410   -8.2410   21.1390 C   0  0  0  0  0  0  0  0  0  0  0  0
  -21.9520   -9.2640   20.2560 C   0  0  0  0  0  3  0  0  0  0  0  0
  -22.7300  -10.4260   20.1250 C   0  0  0  0  0  3  0  0  0  0  0  0
  -21.5370   -7.1270   21.1830 O   0  0  0  0  0  0  0  0  0  0  0  0
  -21.4940   -6.3110   22.2870 C   0  0  0  0  0  0  0  0  0  0  0  0
  -21.1370   -6.8040   23.5600 C   0  0  0  0  0  3  0  0  0  0  0  0
  -21.0330   -5.9220   24.6530 C   0  0  0  0  0  3  0  0  0  0  0  0
  -21.2830   -4.5480   24.4780 C   0  0  0  0  0  0  0  0  0  0  0  0
  -21.6310   -4.0520   23.2080 C   0  0  0  0  0  3  0  0  0  0  0  0
  -21.7330   -4.9320   22.1140 C   0  0  0  0  0  0  0  0  0  0  0  0
  -22.0450   -4.4440   20.8910 F   0  0  0  0  0  0  0  0  0  0  0  0
  -21.1770   -3.7040   25.5290 F   0  0  0  0  0  0  0  0  0  0  0  0
  -22.9070  -13.7150   21.1230 C   0  0  0  0  0  0  0  0  0  0  0  0
  -22.1590  -13.0240   21.9750 N   0  0  0  0  0  0  0  0  0  0  0  0
  -22.5140  -14.7780   20.6400 O   0  0  0  0  0  0  0  0  0  0  0  0
  -22.4980  -12.1570   22.3690 H   0  0  0  0  0  0  0  0  0  0  0  0
  -21.2440  -13.3590   22.2380 H   0  0  0  0  0  0  0  0  0  0  0  0
  -25.6190  -15.2930   20.3680 N   0  0  0  0  0  0  0  0  0  0  0  0
  -24.8950  -15.9860   20.5240 H   0  0  0  0  0  0  0  0  0  0  0  0
  -26.5200  -15.6840   20.1390 H   0  0  0  0  0  0  0  0  0  0  0  0
  -28.7510  -22.7020   20.5100 C   0  0  0  0  0  2  0  0  0  0  0  0
  -29.2840  -24.1590   20.1720 C   0  0  0  0  0  2  0  0  0  0  0  0
  -28.2940  -25.1380   19.4330 C   0  0  0  0  0  2  0  0  0  0  0  0
  -28.4890  -26.5770   19.6780 O   0  0  0  0  0  0  0  0  0  0  0  0
  -24.6510  -31.6460   23.0420 C   0  0  0  0  0  0  0  0  0  0  0  0
  -27.3530  -27.3890   19.6650 C   0  0  0  0  0  0  0  0  0  0  0  0
  -23.4660  -30.3080   21.3370 C   0  0  0  0  0  3  0  0  0  0  0  0
  -24.9410  -28.9040   19.7860 C   0  0  0  0  0  0  0  0  0  0  0  0
  -25.9900  -30.7140   21.1460 C   0  0  0  0  0  2  0  0  0  0  0  0
  -26.0970  -29.3820   20.4150 C   0  0  0  0  0  0  0  0  0  0  0  0
  -27.3040  -28.6320   20.3600 C   0  0  0  0  0  3  0  0  0  0  0  0
  -26.1910  -26.9840   18.9710 C   0  0  0  0  0  3  0  0  0  0  0  0
  -24.9920  -27.7150   19.0430 C   0  0  0  0  0  3  0  0  0  0  0  0
  -23.6770  -29.7290   19.9120 C   0  0  0  0  0  2  0  0  0  0  0  0
  -24.7220  -30.9000   21.8990 N   0  0  0  0  0  0  0  0  0  0  0  0
  -23.5670  -31.8580   23.6020 O   0  0  0  0  0  0  0  0  0  0  0  0
  -22.8510  -29.2150   22.2400 C   0  0  0  0  0  0  0  0  0  0  0  0
  -21.5240  -29.0270   22.1370 N   0  0  0  0  0  0  0  0  0  0  0  0
  -23.5620  -28.5450   22.9900 O   0  0  0  0  0  0  0  0  0  0  0  0
  -21.0060  -29.6270   21.5100 H   0  0  0  0  0  0  0  0  0  0  0  0
  -18.1750  -27.7650   22.6510 C   0  0  0  0  0  0  0  0  0  0  0  0
  -20.7390  -28.0280   22.8600 C   0  0  0  0  0  3  0  0  0  0  0  0
  -20.8350  -26.6440   22.1740 C   0  0  0  0  0  2  0  0  0  0  0  0
  -19.7040  -26.3880   21.1740 C   0  0  0  0  0  2  0  0  0  0  0  0
  -18.3420  -26.4700   21.8690 C   0  0  0  0  0  2  0  0  0  0  0  0
  -19.3010  -28.5030   23.1000 C   0  0  0  0  0  0  0  0  0  0  0  0
  -19.0940  -29.7220   23.7860 C   0  0  0  0  0  3  0  0  0  0  0  0
  -17.7920  -30.1910   24.0380 C   0  0  0  0  0  3  0  0  0  0  0  0
  -16.6800  -29.4480   23.6060 C   0  0  0  0  0  3  0  0  0  0  0  0
  -16.8730  -28.2370   22.9150 C   0  0  0  0  0  3  0  0  0  0  0  0
  -25.9240  -32.2780   23.6830 C   0  0  0  0  0  3  0  0  0  0  0  0
  -25.5880  -33.6540   24.0770 N   0  0  0  0  0  0  0  0  0  0  0  0
  -25.8740  -34.7430   23.3510 C   0  0  0  0  0  0  0  0  0  0  0  0
  -26.5210  -34.7000   22.3020 O   0  0  0  0  0  0  0  0  0  0  0  0
  -25.0270  -33.7650   24.9090 H   0  0  0  0  0  0  0  0  0  0  0  0
  -24.0830  -36.4930   23.1170 C   0  0  0  0  0  1  0  0  0  0  0  0
  -25.3610  -36.0990   23.8750 C   0  0  0  0  0  3  0  0  0  0  0  0
  -27.4980  -37.0200   24.6630 C   0  0  0  0  0  1  0  0  0  0  0  0
  -26.3550  -37.1890   23.7690 N   0  0  0  0  0  0  0  0  0  0  0  0
  -25.9230  -38.0870   23.9740 H   0  0  0  0  0  0  0  0  0  0  0  0
  -26.4620  -31.4600   24.9230 C   0  0  1  0  0  0  0  0  0  0  0  0
  -25.3800  -31.1650   25.9890 C   0  0  0  0  0  1  0  0  0  0  0  0
  -27.0550  -30.1060   24.4660 C   0  0  0  0  0  1  0  0  0  0  0  0
  -27.6100  -32.2370   25.6090 C   0  0  0  0  0  1  0  0  0  0  0  0
  1 17  1  0
  2  7  1  0
  3  4  1  0
  3  2  1  0
  5  4  1  0
  5 24  1  0
  5  6  1  0
  7  1  1  0
  7  6  1  0
  8  1  2  0
  9 10  1  0
 11 17  1  0
 12 15  1  0
 12 18  1  0
 14 11  1  0
 14 19  1  0
 15 19  1  0
 16 13  1  0
 16  9  1  0
 17 10  1  0
 18 49  1  0
 18 13  1  0
 19 20  1  1
 19 16  1  0
 21 22  2  0
 22 41  1  0
 23 22  1  0
 23 26  1  0
 24 25  1  0
 24 21  1  0
 25 23  2  0
 26 27  1  0
 27 28  2  0
 29 32  1  0
 29 28  1  0
 30 29  2  0
 31 30  1  0
 31 26  2  0
 32 33  1  0
 33 34  1  0
 34 35  2  0
 36 35  1  0
 36 40  1  0
 37 36  2  0
 38 33  2  0
 38 37  1  0
 39 38  1  0
 41 42  1  0
 42 45  1  0
 42 44  1  0
 43 41  2  0
 46 21  1  0
 46 47  1  0
 48 46  1  0
 50 49  1  0
 51 52  1  0
 51 50  1  0
 53 64  2  0
 54 52  1  0
 54 59  1  0
 55 63  1  0
 55 65  1  0
 56 62  1  0
 56 58  1  0
 57 63  1  0
 58 57  1  0
 59 58  2  0
 60 61  1  0
 60 54  2  0
 61 56  2  0
 62 55  1  0
 63 53  1  0
 65 67  2  0
 66 65  1  0
 68 66  1  0
 69 78  2  0
 69 74  1  0
 70 66  1  0
 70 74  1  0
 71 70  1  0
 72 73  1  0
 72 71  1  0
 73 69  1  0
 74 75  2  0
 75 76  1  0
 77 76  2  0
 78 77  1  0
 79 53  1  0
 79 80  1  0
 79 89  1  0
 80 83  1  0
 81 85  1  0
 81 80  1  0
 82 81  2  0
 85 84  1  0
 87 85  1  0
 87 88  1  0
 87 86  1  0
 89 92  1  1
 89 90  1  0
 91 89  1  0
M  ISO  4   1 100  17 100  51 101  52 101
M  END
>  <TORSDO>  (92) 
F 18

>  <SCORE>  (92) 
-13.176

>  <name>  (92) 
93

>  <ligand_id>  (92) 
93

>  <original_smiles>  (92) 
[H]c1c([H])c([H])c2c(c1[H])C([H])([H])C([H])([H])C([H])([H])C2([H])N([H])C(=O)C1([H])N(C(=O)C([H])(N([H])C(=O)C([H])(N([H])C([H])([H])[H])C([H])([H])[H])C(C([H])([H])[H])(C([H])([H])[H])C([H])([H])[H])C([H])([H])c2c([H])c(OC([H])([H])C([H])([H])C([H])([H])N3C([H])([H])C([H])([H])[N+]4([H])C([H])([H])C([H])([H])N(C(=O)N5C([H])([H])C([H])([H])C([H])([H])C([H])(n6nc(-c7c([H])c([H])c(Oc8c([H])c([H])c(F)c([H])c8F)c([H])c7[H])c(C(=O)N([H])[H])c6N([H])[H])C5([H])[H])C([H])([H])C([H])([H])C4([H])C3([H])[H])c([H])c([H])c2C1([H])[H]

>  <smiles>  (92) 
[H]c1c([H])c([H])c2c(c1[H])C([H])([H])C([H])([H])C([H])([H])C2([H])N([H])C(=O)C1([H])N(C(=O)C([H])(N([H])C(=O)C([H])(N([H])C([H])([H])[H])C([H])([H])[H])C(C([H])([H])[H])(C([H])([H])[H])C([H])([H])[H])C([H])([H])c2c([H])c(OC([H])([H])C([H])([H])C([H])([H])N3C([H])([H])C([H])([H])[N+]4([H])C([H])([H])C([H])([H])N(C(=O)N5C([H])([H])C([H])([H])C([H])([H])C([H])(n6nc(-c7c([H])c([H])c(Oc8c([H])c([H])c(F)c([H])c8F)c([H])c7[H])c(C(=O)N([H])[H])c6N([H])[H])C5([H])[H])C([H])([H])C([H])([H])C4([H])C3([H])[H])c([H])c([H])c2C1([H])[H]

$$$$
94:0:0
     RDKit          3D

101108  0  0  1  0  0  0  0  0999 V2000
  -29.3050  -18.0510   20.3370 C   0  0  0  0  0  3  0  0  0  0  0  0
  -28.6980  -17.6930   21.6390 N   0  0  0  0  0  4  0  0  0  0  0  0
  -29.3810  -17.7730   22.3730 H   0  0  0  0  0  0  0  0  0  0  0  0
  -28.3410  -16.7550   21.6370 H   0  0  0  0  0  0  0  0  0  0  0  0
  -27.9250  -18.3010   21.8540 H   0  0  0  0  0  0  0  0  0  0  0  0
  -29.8120  -19.5280   20.3800 C   0  0  0  0  0  2  0  0  0  0  0  0
  -28.7160  -20.6200   20.3140 C   0  0  0  0  0  2  0  0  0  0  0  0
  -29.2790  -22.0590   20.1860 C   0  0  0  0  0  2  0  0  0  0  0  0
  -28.1940  -23.0500   19.9830 N   0  0  0  0  0  4  0  0  0  0  0  0
  -27.6290  -23.0960   20.8190 H   0  0  0  0  0  0  0  0  0  0  0  0
  -27.6020  -22.6990   19.2430 H   0  0  0  0  0  0  0  0  0  0  0  0
  -28.6120  -24.4260   19.5920 C   0  0  0  0  0  2  0  0  0  0  0  0
  -28.5260  -25.4300   20.7650 C   0  0  0  0  0  2  0  0  0  0  0  0
  -28.5850  -26.7920   20.3150 O   0  0  0  0  0  0  0  0  0  0  0  0
  -24.6640  -31.9270   23.2950 C   0  0  0  0  0  0  0  0  0  0  0  0
  -27.3930  -27.4850   20.2990 C   0  0  0  0  0  0  0  0  0  0  0  0
  -23.4980  -30.5040   21.6470 C   0  0  0  0  0  3  0  0  0  0  0  0
  -24.9790  -28.9620   20.2650 C   0  0  0  0  0  0  0  0  0  0  0  0
  -26.0180  -30.8810   21.4840 C   0  0  0  0  0  2  0  0  0  0  0  0
  -26.1260  -29.5070   20.8570 C   0  0  0  0  0  0  0  0  0  0  0  0
  -27.3370  -28.7810   20.8630 C   0  0  0  0  0  3  0  0  0  0  0  0
  -26.2230  -26.9450   19.7220 C   0  0  0  0  0  3  0  0  0  0  0  0
  -25.0210  -27.6800   19.6960 C   0  0  0  0  0  3  0  0  0  0  0  0
  -23.7300  -29.8120   20.2810 C   0  0  0  0  0  2  0  0  0  0  0  0
  -24.7470  -31.1230   22.2020 N   0  0  0  0  0  0  0  0  0  0  0  0
  -23.5730  -32.1950   23.8160 O   0  0  0  0  0  0  0  0  0  0  0  0
  -22.8400  -29.4850   22.6020 C   0  0  0  0  0  0  0  0  0  0  0  0
  -21.5160  -29.2990   22.4580 N   0  0  0  0  0  0  0  0  0  0  0  0
  -23.5110  -28.8650   23.4320 O   0  0  0  0  0  0  0  0  0  0  0  0
  -21.0320  -29.8500   21.7630 H   0  0  0  0  0  0  0  0  0  0  0  0
  -18.1350  -28.1180   22.9200 C   0  0  0  0  0  0  0  0  0  0  0  0
  -20.6880  -28.3670   23.2230 C   0  0  0  0  0  3  0  0  0  0  0  0
  -20.7930  -26.9340   22.6520 C   0  0  0  0  0  2  0  0  0  0  0  0
  -19.7040  -26.6120   21.6240 C   0  0  0  0  0  2  0  0  0  0  0  0
  -18.3120  -26.7670   22.2490 C   0  0  0  0  0  2  0  0  0  0  0  0
  -19.2500  -28.8760   23.3640 C   0  0  0  0  0  0  0  0  0  0  0  0
  -19.0270  -30.1430   23.9480 C   0  0  0  0  0  3  0  0  0  0  0  0
  -17.7220  -30.6470   24.0960 C   0  0  0  0  0  3  0  0  0  0  0  0
  -16.6210  -29.8840   23.6720 C   0  0  0  0  0  3  0  0  0  0  0  0
  -16.8280  -28.6220   23.0880 C   0  0  0  0  0  3  0  0  0  0  0  0
  -25.9360  -32.5700   23.9360 C   0  0  0  0  0  3  0  0  0  0  0  0
  -25.6190  -33.9720   24.2380 N   0  0  0  0  0  0  0  0  0  0  0  0
  -25.9600  -35.0130   23.4650 C   0  0  0  0  0  0  0  0  0  0  0  0
  -26.6480  -34.8920   22.4480 O   0  0  0  0  0  0  0  0  0  0  0  0
  -25.0130  -34.1410   25.0260 H   0  0  0  0  0  0  0  0  0  0  0  0
  -24.2300  -36.7870   23.0520 C   0  0  0  0  0  1  0  0  0  0  0  0
  -25.4620  -36.4050   23.8900 C   0  0  0  0  0  3  0  0  0  0  0  0
  -27.5800  -37.3130   24.7350 C   0  0  0  0  0  1  0  0  0  0  0  0
  -26.4910  -37.4610   23.7740 N   0  0  0  0  0  0  0  0  0  0  0  0
  -26.0810  -38.3830   23.8980 H   0  0  0  0  0  0  0  0  0  0  0  0
  -26.4340  -31.8140   25.2310 C   0  0  1  0  0  0  0  0  0  0  0  0
  -25.3230  -31.5850   26.2830 C   0  0  0  0  0  1  0  0  0  0  0  0
  -27.0250  -30.4340   24.8620 C   0  0  0  0  0  1  0  0  0  0  0  0
  -27.5700  -32.6220   25.9030 C   0  0  0  0  0  1  0  0  0  0  0  0
  -30.4070  -16.9990   19.9240 C   0  0  0  0  0  3  0  0  0  0  0  0
  -30.7090  -14.4880   20.1460 C   0  0  0  0  0  0  0  0  0  0  0  0
  -30.3320  -12.3220   19.0560 C   0  0  0  0  0  2  0  0  0  0  0  0
  -29.3570  -12.5630   17.8810 C   0  0  0  0  0  2  0  0  0  0  0  0
  -27.9000  -12.4430   18.3680 C   0  0  0  0  0  2  0  0  0  0  0  0
  -27.6220  -13.2750   19.6420 C   0  0  0  0  0  3  0  0  0  0  0  0
  -28.7170  -13.0540   20.7120 C   0  0  0  0  0  2  0  0  0  0  0  0
  -30.0180  -13.3240   20.0840 N   0  0  0  0  0  0  0  0  0  0  0  0
  -31.9070  -14.5770   19.8810 O   0  0  0  0  0  0  0  0  0  0  0  0
  -29.9390  -15.6020   20.1670 N   0  0  0  0  0  0  0  0  0  0  0  0
  -28.9460  -15.4220   20.1480 H   0  0  0  0  0  0  0  0  0  0  0  0
  -25.2470  -13.9020   20.3870 C   0  0  0  0  0  0  0  0  0  0  0  0
  -24.1840  -13.1430   20.7900 C   0  0  0  0  0  0  0  0  0  0  0  0
  -24.6340  -11.7880   20.7620 C   0  0  0  0  0  0  0  0  0  0  0  0
  -26.2830  -13.0090   20.1580 N   0  0  0  0  0  0  0  0  0  0  0  0
  -25.9220  -11.7340   20.4400 N   0  0  0  0  0  0  0  0  0  0  0  0
  -23.9040  -10.5290   20.9640 C   0  0  0  0  0  0  0  0  0  0  0  0
  -24.3410   -9.5680   21.9040 C   0  0  0  0  0  3  0  0  0  0  0  0
  -23.6180   -8.3700   22.0840 C   0  0  0  0  0  3  0  0  0  0  0  0
  -22.4370   -8.1310   21.3370 C   0  0  0  0  0  0  0  0  0  0  0  0
  -22.0200   -9.0870   20.3940 C   0  0  0  0  0  3  0  0  0  0  0  0
  -22.7420  -10.2760   20.2100 C   0  0  0  0  0  3  0  0  0  0  0  0
  -21.6750   -6.9920   21.4390 O   0  0  0  0  0  0  0  0  0  0  0  0
  -21.6190   -6.2650   22.6030 C   0  0  0  0  0  0  0  0  0  0  0  0
  -21.1850   -6.8360   23.8230 C   0  0  0  0  0  3  0  0  0  0  0  0
  -21.0750   -6.0330   24.9750 C   0  0  0  0  0  3  0  0  0  0  0  0
  -21.3910   -4.6630   24.9160 C   0  0  0  0  0  0  0  0  0  0  0  0
  -21.8170   -4.0940   23.7020 C   0  0  0  0  0  3  0  0  0  0  0  0
  -21.9240   -4.8920   22.5510 C   0  0  0  0  0  0  0  0  0  0  0  0
  -22.3160   -4.3320   21.3810 F   0  0  0  0  0  0  0  0  0  0  0  0
  -21.2720   -3.8910   26.0230 F   0  0  0  0  0  0  0  0  0  0  0  0
  -22.7980  -13.6310   21.0920 C   0  0  0  0  0  0  0  0  0  0  0  0
  -22.0910  -12.9350   21.9740 N   0  0  0  0  0  0  0  0  0  0  0  0
  -22.3570  -14.6560   20.5750 O   0  0  0  0  0  0  0  0  0  0  0  0
  -22.4740  -12.1050   22.4030 H   0  0  0  0  0  0  0  0  0  0  0  0
  -21.1580  -13.2340   22.2320 H   0  0  0  0  0  0  0  0  0  0  0  0
  -25.4270  -15.2660   20.1680 N   0  0  0  0  0  0  0  0  0  0  0  0
  -26.2130  -15.5410   19.5940 H   0  0  0  0  0  0  0  0  0  0  0  0
  -24.5980  -15.7960   19.9160 H   0  0  0  0  0  0  0  0  0  0  0  0
  -30.8530  -17.1880   18.4330 C   0  0  0  0  0  2  0  0  0  0  0  0
  -32.0180  -18.1850   18.1680 C   0  0  0  0  0  2  0  0  0  0  0  0
  -31.6770  -19.2330   17.0810 C   0  0  0  0  0  2  0  0  0  0  0  0
  -32.7730  -20.2950   16.8500 C   0  0  0  0  0  2  0  0  0  0  0  0
  -32.3680  -21.2570   15.8120 N   0  0  0  0  0  4  0  0  0  0  0  0
  -32.2820  -20.7890   14.9290 H   0  0  0  0  0  0  0  0  0  0  0  0
  -33.0560  -21.9820   15.7150 H   0  0  0  0  0  0  0  0  0  0  0  0
  -31.4850  -21.6770   16.0440 H   0  0  0  0  0  0  0  0  0  0  0  0
  1  6  1  0
  1  2  1  0
  2  5  1  0
  2  3  1  0
  4  2  1  0
  7  6  1  0
  8  7  1  0
  9  8  1  0
  9 10  1  0
 11  9  1  0
 12  9  1  0
 12 13  1  0
 14 13  1  0
 15 26  2  0
 16 14  1  0
 16 21  1  0
 17 25  1  0
 17 27  1  0
 18 24  1  0
 18 20  1  0
 19 25  1  0
 20 21  2  0
 20 19  1  0
 22 16  2  0
 23 22  1  0
 23 18  2  0
 24 17  1  0
 25 15  1  0
 27 29  2  0
 28 27  1  0
 30 28  1  0
 31 40  2  0
 31 36  1  0
 32 28  1  0
 32 36  1  0
 33 32  1  0
 34 35  1  0
 34 33  1  0
 35 31  1  0
 36 37  2  0
 37 38  1  0
 39 38  2  0
 40 39  1  0
 41 15  1  0
 41 42  1  0
 41 51  1  0
 42 45  1  0
 43 47  1  0
 43 42  1  0
 44 43  2  0
 47 46  1  0
 49 47  1  0
 49 50  1  0
 49 48  1  0
 51 54  1  1
 51 52  1  0
 53 51  1  0
 55 94  1  0
 55 64  1  0
 55  1  1  0
 56 64  1  0
 57 62  1  0
 58 59  1  0
 58 57  1  0
 60 59  1  0
 60 69  1  0
 60 61  1  0
 62 56  1  0
 62 61  1  0
 63 56  2  0
 65 64  1  0
 66 67  2  0
 67 86  1  0
 68 67  1  0
 68 71  1  0
 69 66  1  0
 69 70  1  0
 70 68  2  0
 71 72  1  0
 72 73  2  0
 74 77  1  0
 74 73  1  0
 75 74  2  0
 76 75  1  0
 76 71  2  0
 77 78  1  0
 78 79  1  0
 79 80  2  0
 81 80  1  0
 81 85  1  0
 82 81  2  0
 83 78  2  0
 83 82  1  0
 84 83  1  0
 86 87  1  0
 87 90  1  0
 87 89  1  0
 88 86  2  0
 91 66  1  0
 92 91  1  0
 93 91  1  0
 95 94  1  0
 96 95  1  0
 97 96  1  0
 98101  1  0
 98 97  1  0
 99 98  1  0
100 98  1  0
M  ISO  4  13 101  14 101  56 100  64 100
M  END
>  <TORSDO>  (93) 
F 29

>  <SCORE>  (93) 
-10.839

>  <name>  (93) 
94

>  <ligand_id>  (93) 
94

>  <original_smiles>  (93) 
[H]c1c([H])c([H])c2c(c1[H])C([H])([H])C([H])([H])C([H])([H])C2([H])N([H])C(=O)C1([H])N(C(=O)C([H])(N([H])C(=O)C([H])(N([H])C([H])([H])[H])C([H])([H])[H])C(C([H])([H])[H])(C([H])([H])[H])C([H])([H])[H])C([H])([H])c2c([H])c(OC([H])([H])C([H])([H])[N+]([H])([H])C([H])([H])C([H])([H])C([H])([H])C([H])(C([H])(N([H])C(=O)N3C([H])([H])C([H])([H])C([H])([H])C([H])(n4nc(-c5c([H])c([H])c(Oc6c([H])c([H])c(F)c([H])c6F)c([H])c5[H])c(C(=O)N([H])[H])c4N([H])[H])C3([H])[H])C([H])([H])C([H])([H])C([H])([H])C([H])([H])[N+]([H])([H])[H])[N+]([H])([H])[H])c([H])c([H])c2C1([H])[H]

>  <smiles>  (93) 
[H]c1c([H])c([H])c2c(c1[H])C([H])([H])C([H])([H])C([H])([H])C2([H])N([H])C(=O)C1([H])N(C(=O)C([H])(N([H])C(=O)C([H])(N([H])C([H])([H])[H])C([H])([H])[H])C(C([H])([H])[H])(C([H])([H])[H])C([H])([H])[H])C([H])([H])c2c([H])c(OC([H])([H])C([H])([H])[N+]([H])([H])C([H])([H])C([H])([H])C([H])([H])C([H])(C([H])(N([H])C(=O)N3C([H])([H])C([H])([H])C([H])([H])C([H])(n4nc(-c5c([H])c([H])c(Oc6c([H])c([H])c(F)c([H])c6F)c([H])c5[H])c(C(=O)N([H])[H])c4N([H])[H])C3([H])[H])C([H])([H])C([H])([H])C([H])([H])C([H])([H])[N+]([H])([H])[H])[N+]([H])([H])[H])c([H])c([H])c2C1([H])[H]

$$$$
95:0:0
     RDKit          3D

 90 98  0  0  1  0  0  0  0  0999 V2000
  -28.6550  -21.9140   20.3800 N   0  0  0  0  0  4  0  0  0  0  0  0
  -28.0410  -21.7660   21.1660 H   0  0  0  0  0  0  0  0  0  0  0  0
  -28.0940  -21.7330   19.5630 H   0  0  0  0  0  0  0  0  0  0  0  0
  -29.7170  -20.7400   20.4320 C   0  0  0  0  0  2  0  0  0  0  0  0
  -29.2770  -19.1420   20.5460 C   0  0  0  0  0  0  0  0  0  0  0  0
  -28.0910  -18.9190   20.8090 O   0  0  0  0  0  0  0  0  0  0  0  0
  -30.6020  -15.1050   20.6350 C   0  0  0  0  0  0  0  0  0  0  0  0
  -30.5680  -12.6930   19.8580 C   0  0  0  0  0  2  0  0  0  0  0  0
  -29.7160  -12.4790   18.5830 C   0  0  0  0  0  2  0  0  0  0  0  0
  -28.2250  -12.3050   18.9320 C   0  0  0  0  0  2  0  0  0  0  0  0
  -27.7230  -13.2990   20.0110 C   0  0  0  0  0  3  0  0  0  0  0  0
  -28.7080  -13.4480   21.1870 C   0  0  0  0  0  2  0  0  0  0  0  0
  -29.9970  -13.8470   20.6050 N   0  0  0  0  0  0  0  0  0  0  0  0
  -31.8360  -15.1240   20.6790 O   0  0  0  0  0  0  0  0  0  0  0  0
  -29.9070  -17.4470   18.0460 C   0  0  0  0  0  2  0  0  0  0  0  0
  -30.9860  -18.0340   18.9350 C   0  0  0  0  0  2  0  0  0  0  0  0
  -29.5360  -16.1620   18.7910 C   0  0  0  0  0  2  0  0  0  0  0  0
  -30.3330  -17.8310   20.3000 C   0  0  0  0  0  3  0  0  0  0  0  0
  -29.8980  -16.2960   20.2320 N   0  0  0  0  0  0  0  0  0  0  0  0
  -25.3050  -13.8870   20.5940 C   0  0  0  0  0  0  0  0  0  0  0  0
  -24.2210  -13.1130   20.9040 C   0  0  0  0  0  0  0  0  0  0  0  0
  -24.6950  -11.7660   20.9350 C   0  0  0  0  0  0  0  0  0  0  0  0
  -26.3650  -13.0100   20.4440 N   0  0  0  0  0  0  0  0  0  0  0  0
  -26.0040  -11.7310   20.7190 N   0  0  0  0  0  0  0  0  0  0  0  0
  -23.9680  -10.5020   21.0990 C   0  0  0  0  0  0  0  0  0  0  0  0
  -24.3500   -9.5510   22.0710 C   0  0  0  0  0  3  0  0  0  0  0  0
  -23.6220   -8.3520   22.2230 C   0  0  0  0  0  3  0  0  0  0  0  0
  -22.4980   -8.0960   21.4020 C   0  0  0  0  0  0  0  0  0  0  0  0
  -22.1360   -9.0360   20.4210 C   0  0  0  0  0  3  0  0  0  0  0  0
  -22.8660  -10.2260   20.2670 C   0  0  0  0  0  3  0  0  0  0  0  0
  -21.7450   -6.9480   21.4630 O   0  0  0  0  0  0  0  0  0  0  0  0
  -21.6340   -6.2200   22.6210 C   0  0  0  0  0  0  0  0  0  0  0  0
  -21.1190   -6.7840   23.8080 C   0  0  0  0  0  3  0  0  0  0  0  0
  -20.9570   -5.9820   24.9550 C   0  0  0  0  0  3  0  0  0  0  0  0
  -21.3000   -4.6170   24.9150 C   0  0  0  0  0  0  0  0  0  0  0  0
  -21.8090   -4.0530   23.7330 C   0  0  0  0  0  3  0  0  0  0  0  0
  -21.9730   -4.8530   22.5870 C   0  0  0  0  0  0  0  0  0  0  0  0
  -22.4430   -4.3000   21.4440 F   0  0  0  0  0  0  0  0  0  0  0  0
  -21.1380   -3.8450   26.0150 F   0  0  0  0  0  0  0  0  0  0  0  0
  -22.8060  -13.5860   21.0650 C   0  0  0  0  0  0  0  0  0  0  0  0
  -22.0280  -12.9110   21.9030 N   0  0  0  0  0  0  0  0  0  0  0  0
  -22.3970  -14.5880   20.4810 O   0  0  0  0  0  0  0  0  0  0  0  0
  -22.3710  -12.1010   22.3980 H   0  0  0  0  0  0  0  0  0  0  0  0
  -21.0740  -13.2110   22.0550 H   0  0  0  0  0  0  0  0  0  0  0  0
  -25.4740  -15.2560   20.4020 N   0  0  0  0  0  0  0  0  0  0  0  0
  -24.7040  -15.9120   20.4690 H   0  0  0  0  0  0  0  0  0  0  0  0
  -26.3560  -15.7040   20.1840 H   0  0  0  0  0  0  0  0  0  0  0  0
  -29.0630  -23.4550   20.3560 C   0  0  0  0  0  3  0  0  0  0  0  0
  -27.9680  -24.7220   20.1590 C   0  0  0  0  0  3  0  0  0  0  0  0
  -28.2430  -26.2570   20.2360 O   0  0  0  0  0  0  0  0  0  0  0  0
  -24.6140  -31.9190   23.2570 C   0  0  0  0  0  0  0  0  0  0  0  0
  -27.1780  -27.2300   20.1840 C   0  0  0  0  0  0  0  0  0  0  0  0
  -23.4040  -30.5280   21.6200 C   0  0  0  0  0  3  0  0  0  0  0  0
  -24.8440  -28.9660   20.1780 C   0  0  0  0  0  0  0  0  0  0  0  0
  -25.9560  -30.8020   21.4360 C   0  0  0  0  0  2  0  0  0  0  0  0
  -26.0280  -29.4140   20.7770 C   0  0  0  0  0  0  0  0  0  0  0  0
  -27.1960  -28.5640   20.7610 C   0  0  0  0  0  3  0  0  0  0  0  0
  -25.9650  -26.8820   19.5470 C   0  0  0  0  0  3  0  0  0  0  0  0
  -24.8250  -27.7130   19.5480 C   0  0  0  0  0  3  0  0  0  0  0  0
  -23.6150  -29.8590   20.2380 C   0  0  0  0  0  2  0  0  0  0  0  0
  -24.6780  -31.1040   22.1590 N   0  0  0  0  0  0  0  0  0  0  0  0
  -23.5320  -32.1990   23.7940 O   0  0  0  0  0  0  0  0  0  0  0  0
  -22.7360  -29.5140   22.5830 C   0  0  0  0  0  0  0  0  0  0  0  0
  -21.4100  -29.3310   22.4570 N   0  0  0  0  0  0  0  0  0  0  0  0
  -23.4140  -28.8940   23.4070 O   0  0  0  0  0  0  0  0  0  0  0  0
  -20.9190  -29.8830   21.7680 H   0  0  0  0  0  0  0  0  0  0  0  0
  -18.0400  -28.0950   22.9560 C   0  0  0  0  0  0  0  0  0  0  0  0
  -20.5960  -28.3870   23.2290 C   0  0  0  0  0  3  0  0  0  0  0  0
  -20.7160  -26.9550   22.6610 C   0  0  0  0  0  2  0  0  0  0  0  0
  -19.6210  -26.6140   21.6450 C   0  0  0  0  0  2  0  0  0  0  0  0
  -18.2360  -26.7450   22.2840 C   0  0  0  0  0  2  0  0  0  0  0  0
  -19.1490  -28.8730   23.3850 C   0  0  0  0  0  0  0  0  0  0  0  0
  -18.9120  -30.1330   23.9740 C   0  0  0  0  0  3  0  0  0  0  0  0
  -17.6010  -30.6170   24.1370 C   0  0  0  0  0  3  0  0  0  0  0  0
  -16.5080  -29.8380   23.7220 C   0  0  0  0  0  3  0  0  0  0  0  0
  -16.7280  -28.5770   23.1380 C   0  0  0  0  0  3  0  0  0  0  0  0
  -25.8960  -32.5540   23.8760 C   0  0  0  0  0  3  0  0  0  0  0  0
  -26.4110  -31.7890   25.1570 C   0  0  1  0  0  0  0  0  0  0  0  0
  -25.3170  -31.5610   26.2270 C   0  0  0  0  0  1  0  0  0  0  0  0
  -26.9900  -30.4060   24.7780 C   0  0  0  0  0  1  0  0  0  0  0  0
  -27.5630  -32.5830   25.8140 C   0  0  0  0  0  1  0  0  0  0  0  0
  -25.5870  -33.9550   24.2060 N   0  0  0  0  0  0  0  0  0  0  0  0
  -25.9060  -35.0080   23.4420 C   0  0  0  0  0  0  0  0  0  0  0  0
  -26.5600  -34.9030   22.4010 O   0  0  0  0  0  0  0  0  0  0  0  0
  -25.0050  -34.1100   25.0160 H   0  0  0  0  0  0  0  0  0  0  0  0
  -24.1700  -36.8020   23.1220 C   0  0  0  0  0  1  0  0  0  0  0  0
  -25.4280  -36.3990   23.9080 C   0  0  0  0  0  3  0  0  0  0  0  0
  -27.5770  -37.2910   24.6940 C   0  0  0  0  0  1  0  0  0  0  0  0
  -26.4580  -37.4520   23.7710 N   0  0  0  0  0  0  0  0  0  0  0  0
  -26.0540  -38.3730   23.9200 H   0  0  0  0  0  0  0  0  0  0  0  0
  1  4  1  0
  1  2  1  0
  3  1  1  0
  4  5  1  0
  5  6  2  0
  7 14  2  0
  8 13  1  0
  9 10  1  0
  9  8  1  0
 11 10  1  0
 11 23  1  0
 11 12  1  0
 13  7  1  0
 13 12  1  0
 15 17  1  0
 15 16  1  0
 16 18  1  0
 17 19  1  0
 18  5  1  0
 19 18  1  0
 19  7  1  0
 20 21  2  0
 21 22  1  0
 21 40  1  0
 22 25  1  0
 23 20  1  0
 23 24  1  0
 24 22  2  0
 25 26  1  0
 26 27  2  0
 28 31  1  0
 28 27  1  0
 29 28  2  0
 30 29  1  0
 30 25  2  0
 31 32  1  0
 32 33  1  0
 33 34  2  0
 35 34  1  0
 35 39  1  0
 36 35  2  0
 37 32  2  0
 37 36  1  0
 38 37  1  0
 40 41  1  0
 41 44  1  0
 41 43  1  0
 42 40  2  0
 45 46  1  0
 45 20  1  0
 47 45  1  0
 48  1  1  0
 49 50  1  0
 49 48  2  0
 51 62  2  0
 52 50  1  0
 52 57  1  0
 53 61  1  0
 53 63  1  0
 54 60  1  0
 54 56  1  0
 55 61  1  0
 56 55  1  0
 57 56  2  0
 58 59  1  0
 58 52  2  0
 59 54  2  0
 60 53  1  0
 61 51  1  0
 63 65  2  0
 64 63  1  0
 66 64  1  0
 67 76  2  0
 67 72  1  0
 68 64  1  0
 68 72  1  0
 69 68  1  0
 70 71  1  0
 70 69  1  0
 71 67  1  0
 72 73  2  0
 73 74  1  0
 75 74  2  0
 76 75  1  0
 77 51  1  0
 77 82  1  0
 77 78  1  0
 78 81  1  1
 78 79  1  0
 80 78  1  0
 82 85  1  0
 83 87  1  0
 83 82  1  0
 84 83  2  0
 87 86  1  0
 89 87  1  0
 89 90  1  0
 89 88  1  0
M  ISO  4   7 100  19 100  49 101  50 101
M  END
>  <TORSDO>  (94) 
F 20

>  <SCORE>  (94) 
-13.458

>  <name>  (94) 
95

>  <ligand_id>  (94) 
95

>  <original_smiles>  (94) 
[H]c1c([H])c([H])c2c(c1[H])C([H])([H])C([H])([H])C([H])([H])C2([H])N([H])C(=O)C1([H])N(C(=O)C([H])(N([H])C(=O)C([H])(N([H])C([H])([H])[H])C([H])([H])[H])C(C([H])([H])[H])(C([H])([H])[H])C([H])([H])[H])C([H])([H])c2c([H])c(OC([H])([H])C([H])([H])[N+]([H])([H])C([H])([H])C(=O)C3([H])N(C(=O)N4C([H])([H])C([H])([H])C([H])([H])C([H])(n5nc(-c6c([H])c([H])c(Oc7c([H])c([H])c(F)c([H])c7F)c([H])c6[H])c(C(=O)N([H])[H])c5N([H])[H])C4([H])[H])C([H])([H])C([H])([H])C3([H])[H])c([H])c([H])c2C1([H])[H]

>  <smiles>  (94) 
[H]c1c([H])c([H])c2c(c1[H])C([H])([H])C([H])([H])C([H])([H])C2([H])N([H])C(=O)C1([H])N(C(=O)C([H])(N([H])C(=O)C([H])(N([H])C([H])([H])[H])C([H])([H])[H])C(C([H])([H])[H])(C([H])([H])[H])C([H])([H])[H])C([H])([H])c2c([H])c(OC([H])([H])C([H])([H])[N+]([H])([H])C([H])([H])C(=O)C3([H])N(C(=O)N4C([H])([H])C([H])([H])C([H])([H])C([H])(n5nc(-c6c([H])c([H])c(Oc7c([H])c([H])c(F)c([H])c7F)c([H])c6[H])c(C(=O)N([H])[H])c5N([H])[H])C4([H])[H])C([H])([H])C([H])([H])C3([H])[H])c([H])c([H])c2C1([H])[H]

$$$$
96:0:0
     RDKit          3D

107114  0  0  1  0  0  0  0  0999 V2000
  -28.7800  -20.9240   20.2900 C   0  0  0  0  0  2  0  0  0  0  0  0
  -29.4970  -19.6210   19.7060 N   0  0  1  0  0  4  0  0  0  0  0  0
  -29.2590  -19.6760   18.7290 H   0  0  0  0  0  0  0  0  0  0  0  0
  -30.9940  -19.7850   19.7790 C   0  0  0  0  0  2  0  0  0  0  0  0
  -31.7670  -19.1550   20.9800 C   0  0  0  0  0  2  0  0  0  0  0  0
  -31.4340  -19.6630   22.4090 C   0  0  0  0  0  2  0  0  0  0  0  0
  -31.3620  -18.5120   23.4420 C   0  0  0  0  0  2  0  0  0  0  0  0
  -30.8290  -18.9400   24.7500 N   0  0  0  0  0  4  0  0  0  0  0  0
  -31.3950  -19.6630   25.1550 H   0  0  0  0  0  0  0  0  0  0  0  0
  -30.8220  -18.1640   25.3920 H   0  0  0  0  0  0  0  0  0  0  0  0
  -29.8850  -19.2720   24.6700 H   0  0  0  0  0  0  0  0  0  0  0  0
  -29.0270  -18.1550   20.1010 C   0  0  0  0  0  2  0  0  0  0  0  0
  -29.5180  -16.7350   19.3480 C   0  0  0  0  0  3  0  0  0  0  0  0
  -30.3920  -15.4570   19.9340 C   0  0  0  0  0  0  0  0  0  0  0  0
  -30.4370  -13.0270   19.3220 C   0  0  0  0  0  2  0  0  0  0  0  0
  -29.5070  -12.7930   18.1110 C   0  0  0  0  0  2  0  0  0  0  0  0
  -28.0680  -12.5090   18.5850 C   0  0  0  0  0  2  0  0  0  0  0  0
  -27.5810  -13.5230   19.6480 C   0  0  0  0  0  3  0  0  0  0  0  0
  -28.6340  -13.7890   20.7430 C   0  0  0  0  0  2  0  0  0  0  0  0
  -29.8900  -14.1750   20.0900 N   0  0  0  0  0  0  0  0  0  0  0  0
  -31.6170  -15.5610   19.8140 O   0  0  0  0  0  0  0  0  0  0  0  0
  -25.2460  -14.0030   20.5820 C   0  0  0  0  0  0  0  0  0  0  0  0
  -24.2180  -13.1820   20.9530 C   0  0  0  0  0  0  0  0  0  0  0  0
  -24.7010  -11.8470   20.7920 C   0  0  0  0  0  0  0  0  0  0  0  0
  -26.2840  -13.1650   20.2100 N   0  0  0  0  0  0  0  0  0  0  0  0
  -25.9710  -11.8610   20.4040 N   0  0  0  0  0  0  0  0  0  0  0  0
  -24.0080  -10.5590   20.9260 C   0  0  0  0  0  0  0  0  0  0  0  0
  -24.3760   -9.6210   21.9160 C   0  0  0  0  0  3  0  0  0  0  0  0
  -23.6810   -8.3980   22.0350 C   0  0  0  0  0  3  0  0  0  0  0  0
  -22.6060   -8.1040   21.1640 C   0  0  0  0  0  0  0  0  0  0  0  0
  -22.2590   -9.0320   20.1670 C   0  0  0  0  0  3  0  0  0  0  0  0
  -22.9530  -10.2460   20.0440 C   0  0  0  0  0  3  0  0  0  0  0  0
  -21.8900   -6.9320   21.1910 O   0  0  0  0  0  0  0  0  0  0  0  0
  -21.5930   -6.2960   22.3700 C   0  0  0  0  0  0  0  0  0  0  0  0
  -20.8150   -6.9160   23.3730 C   0  0  0  0  0  3  0  0  0  0  0  0
  -20.4730   -6.2020   24.5380 C   0  0  0  0  0  3  0  0  0  0  0  0
  -20.8960   -4.8690   24.7000 C   0  0  0  0  0  0  0  0  0  0  0  0
  -21.6650   -4.2490   23.7000 C   0  0  0  0  0  3  0  0  0  0  0  0
  -22.0080   -4.9600   22.5350 C   0  0  0  0  0  0  0  0  0  0  0  0
  -22.7320   -4.3500   21.5640 F   0  0  0  0  0  0  0  0  0  0  0  0
  -20.5610   -4.1800   25.8160 F   0  0  0  0  0  0  0  0  0  0  0  0
  -22.8310  -13.6100   21.3370 C   0  0  0  0  0  0  0  0  0  0  0  0
  -22.1600  -12.8270   22.1740 N   0  0  0  0  0  0  0  0  0  0  0  0
  -22.3540  -14.6690   20.9300 O   0  0  0  0  0  0  0  0  0  0  0  0
  -22.5600  -11.9690   22.5210 H   0  0  0  0  0  0  0  0  0  0  0  0
  -21.2320  -13.0890   22.4720 H   0  0  0  0  0  0  0  0  0  0  0  0
  -25.3790  -15.3870   20.5050 N   0  0  0  0  0  0  0  0  0  0  0  0
  -24.6070  -16.0130   20.7110 H   0  0  0  0  0  0  0  0  0  0  0  0
  -26.1840  -15.8670   20.1290 H   0  0  0  0  0  0  0  0  0  0  0  0
  -29.8950  -16.9710   17.8460 C   0  0  0  0  0  2  0  0  0  0  0  0
  -31.3300  -17.2380   17.5470 N   0  0  0  0  0  4  0  0  0  0  0  0
  -31.6980  -18.0700   17.9640 H   0  0  0  0  0  0  0  0  0  0  0  0
  -31.4630  -17.3220   16.5520 H   0  0  0  0  0  0  0  0  0  0  0  0
  -31.8990  -16.4690   17.8670 H   0  0  0  0  0  0  0  0  0  0  0  0
  -28.6130  -22.4210   19.4870 C   0  0  0  0  0  3  0  0  0  0  0  0
  -29.6750  -22.6090   18.3610 C   0  0  0  0  0  2  0  0  0  0  0  0
  -30.9550  -23.2100   18.7990 N   0  0  0  0  0  4  0  0  0  0  0  0
  -31.6460  -23.0870   18.0780 H   0  0  0  0  0  0  0  0  0  0  0  0
  -31.3250  -22.8090   19.6420 H   0  0  0  0  0  0  0  0  0  0  0  0
  -30.8640  -24.2020   18.9320 H   0  0  0  0  0  0  0  0  0  0  0  0
  -28.2660  -23.9130   20.2360 C   0  0  0  0  0  3  0  0  0  0  0  0
  -27.1130  -23.7650   21.1590 N   0  0  0  0  0  4  0  0  0  0  0  0
  -26.2640  -23.5110   20.6800 H   0  0  0  0  0  0  0  0  0  0  0  0
  -26.9430  -24.6440   21.6210 H   0  0  0  0  0  0  0  0  0  0  0  0
  -27.2760  -23.0840   21.8810 H   0  0  0  0  0  0  0  0  0  0  0  0
  -28.0250  -25.3550   19.4070 C   0  0  0  0  0  2  0  0  0  0  0  0
  -28.0260  -26.7920   19.9740 O   0  0  0  0  0  0  0  0  0  0  0  0
  -24.6650  -32.2690   23.4520 C   0  0  0  0  0  0  0  0  0  0  0  0
  -26.9380  -27.7290   19.9910 C   0  0  0  0  0  0  0  0  0  0  0  0
  -23.3230  -30.9870   21.8280 C   0  0  0  0  0  3  0  0  0  0  0  0
  -24.6330  -29.4770   20.2150 C   0  0  0  0  0  0  0  0  0  0  0  0
  -25.8570  -31.2410   21.4870 C   0  0  0  0  0  2  0  0  0  0  0  0
  -25.8560  -29.8870   20.7580 C   0  0  0  0  0  0  0  0  0  0  0  0
  -27.0060  -29.0270   20.6320 C   0  0  0  0  0  3  0  0  0  0  0  0
  -25.6840  -27.4040   19.4240 C   0  0  0  0  0  3  0  0  0  0  0  0
  -24.5550  -28.2500   19.5350 C   0  0  0  0  0  3  0  0  0  0  0  0
  -23.4290  -30.3900   20.4000 C   0  0  0  0  0  2  0  0  0  0  0  0
  -24.6390  -31.5160   22.3110 N   0  0  0  0  0  0  0  0  0  0  0  0
  -23.6240  -32.5460   24.0700 O   0  0  0  0  0  0  0  0  0  0  0  0
  -22.7000  -29.9370   22.7800 C   0  0  0  0  0  0  0  0  0  0  0  0
  -21.3940  -29.6650   22.6180 N   0  0  0  0  0  0  0  0  0  0  0  0
  -23.3930  -29.3710   23.6290 O   0  0  0  0  0  0  0  0  0  0  0  0
  -20.8840  -30.1890   21.9210 H   0  0  0  0  0  0  0  0  0  0  0  0
  -18.1410  -28.0990   22.9260 C   0  0  0  0  0  0  0  0  0  0  0  0
  -20.6240  -28.6750   23.3740 C   0  0  0  0  0  3  0  0  0  0  0  0
  -20.9330  -27.2400   22.8860 C   0  0  0  0  0  2  0  0  0  0  0  0
  -19.9620  -26.7430   21.8120 C   0  0  0  0  0  2  0  0  0  0  0  0
  -18.5250  -26.7510   22.3400 C   0  0  0  0  0  2  0  0  0  0  0  0
  -19.1270  -29.0090   23.3960 C   0  0  0  0  0  0  0  0  0  0  0  0
  -18.7170  -30.2590   23.9030 C   0  0  0  0  0  3  0  0  0  0  0  0
  -17.3540  -30.6060   23.9490 C   0  0  0  0  0  3  0  0  0  0  0  0
  -16.3820  -29.7010   23.4910 C   0  0  0  0  0  3  0  0  0  0  0  0
  -16.7760  -28.4490   22.9850 C   0  0  0  0  0  3  0  0  0  0  0  0
  -25.9980  -32.8490   24.0150 C   0  0  0  0  0  3  0  0  0  0  0  0
  -26.5330  -32.0620   25.2770 C   0  0  1  0  0  0  0  0  0  0  0  0
  -25.4640  -31.8570   26.3770 C   0  0  0  0  0  1  0  0  0  0  0  0
  -27.0660  -30.6670   24.8720 C   0  0  0  0  0  1  0  0  0  0  0  0
  -27.7210  -32.8270   25.9040 C   0  0  0  0  0  1  0  0  0  0  0  0
  -25.7670  -34.2620   24.3550 N   0  0  0  0  0  0  0  0  0  0  0  0
  -26.1210  -35.2990   23.5860 C   0  0  0  0  0  0  0  0  0  0  0  0
  -26.7420  -35.1650   22.5300 O   0  0  0  0  0  0  0  0  0  0  0  0
  -25.2070  -34.4420   25.1750 H   0  0  0  0  0  0  0  0  0  0  0  0
  -24.4690  -37.1810   23.3100 C   0  0  0  0  0  1  0  0  0  0  0  0
  -25.7210  -36.7080   24.0670 C   0  0  0  0  0  3  0  0  0  0  0  0
  -27.9210  -37.5040   24.8160 C   0  0  0  0  0  1  0  0  0  0  0  0
  -26.7950  -37.7110   23.9100 N   0  0  0  0  0  0  0  0  0  0  0  0
  -26.4340  -38.6480   24.0630 H   0  0  0  0  0  0  0  0  0  0  0  0
  2  4  1  0
  2 12  1  0
  2  1  1  0
  2  3  1  6
  4  5  1  0
  5  6  1  0
  6  7  1  0
  7  8  1  0
  8  9  1  0
  8 10  1  0
 11  8  1  0
 13 50  1  0
 13 14  1  0
 13 12  1  0
 14 20  1  0
 15 20  1  0
 16 17  1  0
 16 15  1  0
 18 17  1  0
 18 25  1  0
 18 19  1  0
 20 19  1  0
 21 14  2  0
 22 23  2  0
 23 42  1  0
 24 27  1  0
 24 23  1  0
 25 26  1  0
 25 22  1  0
 26 24  2  0
 27 28  1  0
 28 29  2  0
 30 33  1  0
 30 29  1  0
 31 30  2  0
 32 31  1  0
 32 27  2  0
 33 34  1  0
 34 39  2  0
 34 35  1  0
 35 36  2  0
 36 37  1  0
 37 41  1  0
 38 37  2  0
 39 38  1  0
 40 39  1  0
 42 43  1  0
 43 46  1  0
 43 45  1  0
 44 42  2  0
 47 22  1  0
 47 48  1  0
 49 47  1  0
 51 50  1  0
 51 54  1  0
 51 52  1  0
 53 51  1  0
 55 56  1  0
 55 61  1  0
 55  1  1  0
 56 57  1  0
 57 60  1  0
 57 59  1  0
 58 57  1  0
 61 66  1  0
 61 62  1  0
 62 64  1  0
 62 65  1  0
 63 62  1  0
 66 67  1  0
 67 69  1  0
 68 79  2  0
 69 74  1  0
 70 78  1  0
 70 80  1  0
 71 77  1  0
 71 73  1  0
 72 78  1  0
 73 72  1  0
 74 73  2  0
 75 76  1  0
 75 69  2  0
 76 71  2  0
 77 70  1  0
 78 68  1  0
 80 82  2  0
 81 80  1  0
 83 81  1  0
 84 93  2  0
 84 89  1  0
 85 81  1  0
 85 89  1  0
 86 85  1  0
 87 88  1  0
 87 86  1  0
 88 84  1  0
 89 90  2  0
 90 91  1  0
 92 91  2  0
 93 92  1  0
 94 68  1  0
 94 99  1  0
 94 95  1  0
 95 98  1  1
 95 96  1  0
 97 95  1  0
 99102  1  0
100104  1  0
100 99  1  0
101100  2  0
104103  1  0
106107  1  0
106104  1  0
106105  1  0
M  ISO  4  13 100  14 100  66 101  67 101
M  END
>  <TORSDO>  (95) 
F 32

>  <SCORE>  (95) 
-10.076

>  <name>  (95) 
96

>  <ligand_id>  (95) 
96

>  <original_smiles>  (95) 
[H]c1c([H])c([H])c2c(c1[H])C([H])([H])C([H])([H])C([H])([H])C2([H])N([H])C(=O)C1([H])N(C(=O)C([H])(N([H])C(=O)C([H])(N([H])C([H])([H])[H])C([H])([H])[H])C(C([H])([H])[H])(C([H])([H])[H])C([H])([H])[H])C([H])([H])c2c([H])c(OC([H])([H])C([H])(C([H])(C([H])([H])[N+]([H])([H])[H])C([H])([H])[N+]([H])(C([H])([H])C([H])([H])C([H])([H])C([H])([H])[N+]([H])([H])[H])C([H])([H])C([H])(C(=O)N3C([H])([H])C([H])([H])C([H])([H])C([H])(n4nc(-c5c([H])c([H])c(Oc6c([H])c([H])c(F)c([H])c6F)c([H])c5[H])c(C(=O)N([H])[H])c4N([H])[H])C3([H])[H])C([H])([H])[N+]([H])([H])[H])[N+]([H])([H])[H])c([H])c([H])c2C1([H])[H]

>  <smiles>  (95) 
[H]c1c([H])c([H])c2c(c1[H])C([H])([H])C([H])([H])C([H])([H])C2([H])N([H])C(=O)C1([H])N(C(=O)C([H])(N([H])C(=O)C([H])(N([H])C([H])([H])[H])C([H])([H])[H])C(C([H])([H])[H])(C([H])([H])[H])C([H])([H])[H])C([H])([H])c2c([H])c(OC([H])([H])C([H])(C([H])(C([H])([H])[N+]([H])([H])[H])C([H])([H])[N+]([H])(C([H])([H])C([H])([H])C([H])([H])C([H])([H])[N+]([H])([H])[H])C([H])([H])C([H])(C(=O)N3C([H])([H])C([H])([H])C([H])([H])C([H])(n4nc(-c5c([H])c([H])c(Oc6c([H])c([H])c(F)c([H])c6F)c([H])c5[H])c(C(=O)N([H])[H])c4N([H])[H])C3([H])[H])C([H])([H])[N+]([H])([H])[H])[N+]([H])([H])[H])c([H])c([H])c2C1([H])[H]

$$$$
