0:0:0
     RDKit          3D

 93100  0  0  1  0  0  0  0  0999 V2000
  -29.7460  -21.1620   20.3220 N   0  0  0  0  0  4  0  0  0  0  0  0
  -30.0690  -21.2650   21.2720 H   0  0  0  0  0  0  0  0  0  0  0  0
  -30.5390  -21.2950   19.7170 H   0  0  0  0  0  0  0  0  0  0  0  0
  -28.7590  -22.2980   20.0230 C   0  0  0  0  0  2  0  0  0  0  0  0
  -29.2070  -23.8360   20.2960 C   0  0  0  0  0  3  0  0  0  0  0  0
  -31.2800  -25.3690   20.0310 C   0  0  0  0  0  1  0  0  0  0  0  0
  -30.5050  -24.1450   19.5180 C   0  0  0  0  0  2  0  0  0  0  0  0
  -28.0970  -24.9750   19.9970 C   0  0  0  0  0  2  0  0  0  0  0  0
  -28.3030  -26.4310   20.2920 O   0  0  0  0  0  0  0  0  0  0  0  0
  -24.6190  -31.9220   23.2670 C   0  0  0  0  0  0  0  0  0  0  0  0
  -27.1960  -27.3090   20.2290 C   0  0  0  0  0  0  0  0  0  0  0  0
  -23.4090  -30.5290   21.6310 C   0  0  0  0  0  3  0  0  0  0  0  0
  -24.8480  -28.9630   20.2070 C   0  0  0  0  0  0  0  0  0  0  0  0
  -25.9540  -30.8170   21.4540 C   0  0  0  0  0  2  0  0  0  0  0  0
  -26.0220  -29.4360   20.8070 C   0  0  0  0  0  0  0  0  0  0  0  0
  -27.1990  -28.6220   20.8050 C   0  0  0  0  0  3  0  0  0  0  0  0
  -25.9950  -26.8990   19.6040 C   0  0  0  0  0  3  0  0  0  0  0  0
  -24.8390  -27.7000   19.6000 C   0  0  0  0  0  3  0  0  0  0  0  0
  -23.6190  -29.8490   20.2510 C   0  0  0  0  0  2  0  0  0  0  0  0
  -24.6800  -31.1090   22.1720 N   0  0  0  0  0  0  0  0  0  0  0  0
  -23.5370  -32.2080   23.7980 O   0  0  0  0  0  0  0  0  0  0  0  0
  -22.7350  -29.5200   22.5920 C   0  0  0  0  0  0  0  0  0  0  0  0
  -21.4090  -29.3540   22.4630 N   0  0  0  0  0  0  0  0  0  0  0  0
  -23.4080  -28.8900   23.4130 O   0  0  0  0  0  0  0  0  0  0  0  0
  -20.9260  -29.9080   21.7680 H   0  0  0  0  0  0  0  0  0  0  0  0
  -18.0210  -28.1930   22.9690 C   0  0  0  0  0  0  0  0  0  0  0  0
  -20.5800  -28.4280   23.2380 C   0  0  0  0  0  3  0  0  0  0  0  0
  -20.6690  -26.9960   22.6660 C   0  0  0  0  0  2  0  0  0  0  0  0
  -19.5640  -26.6800   21.6530 C   0  0  0  0  0  2  0  0  0  0  0  0
  -18.1830  -26.8410   22.2960 C   0  0  0  0  0  2  0  0  0  0  0  0
  -19.1450  -28.9470   23.3960 C   0  0  0  0  0  0  0  0  0  0  0  0
  -18.9390  -30.2120   23.9840 C   0  0  0  0  0  3  0  0  0  0  0  0
  -17.6380  -30.7260   24.1510 C   0  0  0  0  0  3  0  0  0  0  0  0
  -16.5270  -29.9710   23.7380 C   0  0  0  0  0  3  0  0  0  0  0  0
  -16.7180  -28.7060   23.1530 C   0  0  0  0  0  3  0  0  0  0  0  0
  -25.9050  -32.5470   23.8900 C   0  0  0  0  0  3  0  0  0  0  0  0
  -26.4180  -31.7720   25.1660 C   0  0  1  0  0  0  0  0  0  0  0  0
  -25.3240  -31.5380   26.2330 C   0  0  0  0  0  1  0  0  0  0  0  0
  -26.9920  -30.3910   24.7730 C   0  0  0  0  0  1  0  0  0  0  0  0
  -27.5770  -32.5590   25.8250 C   0  0  0  0  0  1  0  0  0  0  0  0
  -25.6030  -33.9470   24.2220 N   0  0  0  0  0  0  0  0  0  0  0  0
  -25.9250  -34.9980   23.4560 C   0  0  0  0  0  0  0  0  0  0  0  0
  -26.5790  -34.8910   22.4140 O   0  0  0  0  0  0  0  0  0  0  0  0
  -25.0270  -34.1070   25.0350 H   0  0  0  0  0  0  0  0  0  0  0  0
  -24.1850  -36.7840   23.1400 C   0  0  0  0  0  1  0  0  0  0  0  0
  -25.4490  -36.3880   23.9180 C   0  0  0  0  0  3  0  0  0  0  0  0
  -27.6040  -37.2780   24.6890 C   0  0  0  0  0  1  0  0  0  0  0  0
  -26.4770  -37.4430   23.7740 N   0  0  0  0  0  0  0  0  0  0  0  0
  -26.0720  -38.3620   23.9290 H   0  0  0  0  0  0  0  0  0  0  0  0
  -29.2760  -19.7180   20.1140 C   0  0  0  0  0  2  0  0  0  0  0  0
  -30.6490  -18.5220   21.9540 C   0  0  0  0  0  1  0  0  0  0  0  0
  -30.2340  -18.4500   20.4690 C   0  0  2  0  0  0  0  0  0  0  0  0
  -32.3440  -19.6860   19.4530 C   0  0  0  0  0  1  0  0  0  0  0  0
  -31.4900  -18.4050   19.5470 C   0  0  0  0  0  2  0  0  0  0  0  0
  -29.4760  -17.0430   20.2380 C   0  0  0  0  0  2  0  0  0  0  0  0
  -30.6010  -14.6680   20.3660 C   0  0  0  0  0  0  0  0  0  0  0  0
  -30.3710  -12.4070   19.3360 C   0  0  0  0  0  2  0  0  0  0  0  0
  -29.4380  -12.5570   18.1110 C   0  0  0  0  0  2  0  0  0  0  0  0
  -27.9640  -12.4080   18.5320 C   0  0  0  0  0  2  0  0  0  0  0  0
  -27.6150  -13.2700   19.7740 C   0  0  0  0  0  3  0  0  0  0  0  0
  -28.6700  -13.1030   20.8930 C   0  0  0  0  0  2  0  0  0  0  0  0
  -29.9880  -13.4360   20.3280 N   0  0  0  0  0  0  0  0  0  0  0  0
  -31.7020  -14.8450   19.8400 O   0  0  0  0  0  0  0  0  0  0  0  0
  -29.8740  -15.7160   20.8670 N   0  0  0  0  0  0  0  0  0  0  0  0
  -29.1690  -15.3910   21.5120 H   0  0  0  0  0  0  0  0  0  0  0  0
  -25.2200  -13.8850   20.4730 C   0  0  0  0  0  0  0  0  0  0  0  0
  -24.1460  -13.1240   20.8440 C   0  0  0  0  0  0  0  0  0  0  0  0
  -24.5990  -11.7680   20.8260 C   0  0  0  0  0  0  0  0  0  0  0  0
  -26.2610  -12.9980   20.2510 N   0  0  0  0  0  0  0  0  0  0  0  0
  -25.8900  -11.7200   20.5170 N   0  0  0  0  0  0  0  0  0  0  0  0
  -23.8610  -10.5140   21.0230 C   0  0  0  0  0  0  0  0  0  0  0  0
  -24.2950   -9.5420   21.9530 C   0  0  0  0  0  3  0  0  0  0  0  0
  -23.5630   -8.3500   22.1380 C   0  0  0  0  0  3  0  0  0  0  0  0
  -22.3810   -8.1220   21.3980 C   0  0  0  0  0  0  0  0  0  0  0  0
  -21.9660   -9.0800   20.4550 C   0  0  0  0  0  3  0  0  0  0  0  0
  -22.6980  -10.2630   20.2680 C   0  0  0  0  0  3  0  0  0  0  0  0
  -21.6180   -6.9820   21.4910 O   0  0  0  0  0  0  0  0  0  0  0  0
  -21.5800   -6.2360   22.6400 C   0  0  0  0  0  0  0  0  0  0  0  0
  -21.1850   -6.7910   23.8770 C   0  0  0  0  0  3  0  0  0  0  0  0
  -21.0950   -5.9700   25.0210 C   0  0  0  0  0  3  0  0  0  0  0  0
  -21.3900   -4.5960   24.9270 C   0  0  0  0  0  0  0  0  0  0  0  0
  -21.7800   -4.0410   23.6960 C   0  0  0  0  0  3  0  0  0  0  0  0
  -21.8720   -4.8600   22.5550 C   0  0  0  0  0  0  0  0  0  0  0  0
  -22.2290   -4.3160   21.3670 F   0  0  0  0  0  0  0  0  0  0  0  0
  -21.2980   -3.8070   26.0230 F   0  0  0  0  0  0  0  0  0  0  0  0
  -22.7550  -13.6110   21.1150 C   0  0  0  0  0  0  0  0  0  0  0  0
  -22.0280  -12.9250   21.9890 N   0  0  0  0  0  0  0  0  0  0  0  0
  -22.3220  -14.6350   20.5880 O   0  0  0  0  0  0  0  0  0  0  0  0
  -22.4020  -12.0980   22.4360 H   0  0  0  0  0  0  0  0  0  0  0  0
  -21.0880  -13.2270   22.2100 H   0  0  0  0  0  0  0  0  0  0  0  0
  -25.4000  -15.2530   20.2780 N   0  0  0  0  0  0  0  0  0  0  0  0
  -24.6360  -15.9170   20.3440 H   0  0  0  0  0  0  0  0  0  0  0  0
  -26.2510  -15.6570   19.9120 H   0  0  0  0  0  0  0  0  0  0  0  0
  1  2  1  0
  3  1  1  0
  4  5  1  0
  4  1  1  0
  5  7  1  0
  7  6  1  0
  8  9  1  0
  8  5  1  0
 10 21  2  0
 11  9  1  0
 11 16  1  0
 12 20  1  0
 12 22  1  0
 13 19  1  0
 13 15  1  0
 14 20  1  0
 15 14  1  0
 16 15  2  0
 17 11  2  0
 18 17  1  0
 18 13  2  0
 19 12  1  0
 20 10  1  0
 22 24  2  0
 23 22  1  0
 25 23  1  0
 26 35  2  0
 26 31  1  0
 27 23  1  0
 27 31  1  0
 28 27  1  0
 29 30  1  0
 29 28  1  0
 30 26  1  0
 31 32  2  0
 32 33  1  0
 34 33  2  0
 35 34  1  0
 36 10  1  0
 36 41  1  0
 36 37  1  0
 37 40  1  1
 37 38  1  0
 39 37  1  0
 41 44  1  0
 42 46  1  0
 42 41  1  0
 43 42  2  0
 46 45  1  0
 48 46  1  0
 48 49  1  0
 48 47  1  0
 50  1  1  0
 50 52  1  0
 52 51  1  1
 53 54  1  0
 54 52  1  0
 55 52  1  0
 55 64  1  0
 56 64  1  0
 57 62  1  0
 58 59  1  0
 58 57  1  0
 60 59  1  0
 60 69  1  0
 60 61  1  0
 62 56  1  0
 62 61  1  0
 63 56  2  0
 64 65  1  0
 66 67  2  0
 67 86  1  0
 68 67  1  0
 68 71  1  0
 69 66  1  0
 69 70  1  0
 70 68  2  0
 71 72  1  0
 72 73  2  0
 74 77  1  0
 74 73  1  0
 75 74  2  0
 76 75  1  0
 76 71  2  0
 77 78  1  0
 78 79  1  0
 79 80  2  0
 81 80  1  0
 81 85  1  0
 82 81  2  0
 83 78  2  0
 83 82  1  0
 84 83  1  0
 86 87  1  0
 87 90  1  0
 87 89  1  0
 88 86  2  0
 91 92  1  0
 91 66  1  0
 93 91  1  0
M  ISO  4   8 101   9 101  56 100  64 100
M  END
>  <TORSDO>  (1) 
F 24

>  <SCORE>  (1) 
-12.416

>  <name>  (1) 
0

>  <ligand_id>  (1) 
0

>  <original_smiles>  (1) 
[H]c1c([H])c([H])c2c(c1[H])C([H])([H])C([H])([H])C([H])([H])C2([H])N([H])C(=O)C1([H])N(C(=O)C([H])(N([H])C(=O)C([H])(N([H])C([H])([H])[H])C([H])([H])[H])C(C([H])([H])[H])(C([H])([H])[H])C([H])([H])[H])C([H])([H])c2c([H])c(OC([H])([H])C([H])(C([H])([H])C([H])([H])[H])C([H])([H])[N+]([H])([H])C([H])([H])C(C([H])([H])[H])(C([H])([H])N([H])C(=O)N3C([H])([H])C([H])([H])C([H])([H])C([H])(n4nc(-c5c([H])c([H])c(Oc6c([H])c([H])c(F)c([H])c6F)c([H])c5[H])c(C(=O)N([H])[H])c4N([H])[H])C3([H])[H])C([H])([H])C([H])([H])[H])c([H])c([H])c2C1([H])[H]

>  <smiles>  (1) 
[H]c1c([H])c([H])c2c(c1[H])C([H])([H])C([H])([H])C([H])([H])C2([H])N([H])C(=O)C1([H])N(C(=O)C([H])(N([H])C(=O)C([H])(N([H])C([H])([H])[H])C([H])([H])[H])C(C([H])([H])[H])(C([H])([H])[H])C([H])([H])[H])C([H])([H])c2c([H])c(OC([H])([H])C([H])(C([H])([H])C([H])([H])[H])C([H])([H])[N+]([H])([H])C([H])([H])C(C([H])([H])[H])(C([H])([H])N([H])C(=O)N3C([H])([H])C([H])([H])C([H])([H])C([H])(n4nc(-c5c([H])c([H])c(Oc6c([H])c([H])c(F)c([H])c6F)c([H])c5[H])c(C(=O)N([H])[H])c4N([H])[H])C3([H])[H])C([H])([H])C([H])([H])[H])c([H])c([H])c2C1([H])[H]

$$$$
1:0:0
     RDKit          3D

 91 99  0  0  1  0  0  0  0  0999 V2000
  -28.5600  -18.7630   20.1200 C   0  0  0  0  0  2  0  0  0  0  0  0
  -27.9350  -20.1360   20.5220 C   0  0  0  0  0  2  0  0  0  0  0  0
  -30.1150  -20.8200   21.3580 C   0  0  0  0  0  2  0  0  0  0  0  0
  -29.7650  -18.3700   21.0070 C   0  0  0  0  0  3  0  0  0  0  0  0
  -30.6720  -19.5250   20.9060 N   0  0  0  0  0  0  0  0  0  0  0  0
  -28.9300  -21.2540   20.5580 N   0  0  2  0  0  4  0  0  0  0  0  0
  -31.5030  -19.3380   21.4630 H   0  0  0  0  0  0  0  0  0  0  0  0
  -29.2410  -21.3910   19.6070 H   0  0  0  0  0  0  0  0  0  0  0  0
  -30.5770  -17.0810   20.5760 C   0  0  0  0  0  2  0  0  0  0  0  0
  -30.6830  -14.5880   20.3760 C   0  0  0  0  0  0  0  0  0  0  0  0
  -30.3790  -12.3940   19.2710 C   0  0  0  0  0  2  0  0  0  0  0  0
  -29.4430  -12.5710   18.0560 C   0  0  0  0  0  2  0  0  0  0  0  0
  -27.9720  -12.4240   18.4860 C   0  0  0  0  0  2  0  0  0  0  0  0
  -27.6290  -13.2720   19.7430 C   0  0  0  0  0  3  0  0  0  0  0  0
  -28.6870  -13.0990   20.8550 C   0  0  0  0  0  2  0  0  0  0  0  0
  -29.9970  -13.4090   20.2710 N   0  0  0  0  0  0  0  0  0  0  0  0
  -31.8460  -14.6840   19.9770 O   0  0  0  0  0  0  0  0  0  0  0  0
  -29.9960  -15.7120   20.7290 N   0  0  0  0  0  0  0  0  0  0  0  0
  -29.0350  -15.6210   21.0200 H   0  0  0  0  0  0  0  0  0  0  0  0
  -25.2330  -13.8690   20.4490 C   0  0  0  0  0  0  0  0  0  0  0  0
  -24.1660  -13.0960   20.8190 C   0  0  0  0  0  0  0  0  0  0  0  0
  -24.6320  -11.7460   20.7990 C   0  0  0  0  0  0  0  0  0  0  0  0
  -26.2800  -12.9900   20.2250 N   0  0  0  0  0  0  0  0  0  0  0  0
  -25.9230  -11.7090   20.4970 N   0  0  0  0  0  0  0  0  0  0  0  0
  -23.9070  -10.4840   20.9940 C   0  0  0  0  0  0  0  0  0  0  0  0
  -24.3350   -9.5260   21.9400 C   0  0  0  0  0  3  0  0  0  0  0  0
  -23.6110   -8.3280   22.1250 C   0  0  0  0  0  3  0  0  0  0  0  0
  -22.4450   -8.0790   21.3630 C   0  0  0  0  0  0  0  0  0  0  0  0
  -22.0370   -9.0260   20.4050 C   0  0  0  0  0  3  0  0  0  0  0  0
  -22.7620  -10.2140   20.2190 C   0  0  0  0  0  3  0  0  0  0  0  0
  -21.6930   -6.9340   21.4530 O   0  0  0  0  0  0  0  0  0  0  0  0
  -21.6310   -6.2040   22.6130 C   0  0  0  0  0  0  0  0  0  0  0  0
  -21.1840   -6.7700   23.8270 C   0  0  0  0  0  3  0  0  0  0  0  0
  -21.0720   -5.9670   24.9790 C   0  0  0  0  0  3  0  0  0  0  0  0
  -21.3960   -4.5980   24.9180 C   0  0  0  0  0  0  0  0  0  0  0  0
  -21.8350   -4.0320   23.7080 C   0  0  0  0  0  3  0  0  0  0  0  0
  -21.9490   -4.8320   22.5590 C   0  0  0  0  0  0  0  0  0  0  0  0
  -22.3530   -4.2770   21.3900 F   0  0  0  0  0  0  0  0  0  0  0  0
  -21.2810   -3.8230   26.0220 F   0  0  0  0  0  0  0  0  0  0  0  0
  -22.7680  -13.5730   21.0830 C   0  0  0  0  0  0  0  0  0  0  0  0
  -22.0390  -12.8800   21.9500 N   0  0  0  0  0  0  0  0  0  0  0  0
  -22.3310  -14.5950   20.5560 O   0  0  0  0  0  0  0  0  0  0  0  0
  -22.4060  -12.0520   22.3950 H   0  0  0  0  0  0  0  0  0  0  0  0
  -21.0990  -13.1810   22.1700 H   0  0  0  0  0  0  0  0  0  0  0  0
  -25.3960  -15.2400   20.2620 N   0  0  0  0  0  0  0  0  0  0  0  0
  -24.6240  -15.8900   20.3530 H   0  0  0  0  0  0  0  0  0  0  0  0
  -26.2390  -15.6720   19.9050 H   0  0  0  0  0  0  0  0  0  0  0  0
  -28.3280  -22.5740   21.0160 C   0  0  0  0  0  2  0  0  0  0  0  0
  -28.8340  -23.9200   20.3500 C   0  0  0  0  0  2  0  0  0  0  0  0
  -28.1490  -25.2240   20.9230 C   0  0  0  0  0  2  0  0  0  0  0  0
  -28.3930  -26.5240   20.2780 O   0  0  0  0  0  0  0  0  0  0  0  0
  -24.6280  -31.8740   23.2430 C   0  0  0  0  0  0  0  0  0  0  0  0
  -27.2860  -27.3650   20.2180 C   0  0  0  0  0  0  0  0  0  0  0  0
  -23.4410  -30.4660   21.5960 C   0  0  0  0  0  3  0  0  0  0  0  0
  -24.9110  -28.9290   20.1790 C   0  0  0  0  0  0  0  0  0  0  0  0
  -25.9750  -30.8140   21.4240 C   0  0  0  0  0  2  0  0  0  0  0  0
  -26.0690  -29.4390   20.7820 C   0  0  0  0  0  0  0  0  0  0  0  0
  -27.2640  -28.6660   20.7910 C   0  0  0  0  0  3  0  0  0  0  0  0
  -26.1140  -26.9020   19.5810 C   0  0  0  0  0  3  0  0  0  0  0  0
  -24.9340  -27.6660   19.5690 C   0  0  0  0  0  3  0  0  0  0  0  0
  -23.6650  -29.7890   20.2180 C   0  0  0  0  0  2  0  0  0  0  0  0
  -24.7000  -31.0680   22.1460 N   0  0  0  0  0  0  0  0  0  0  0  0
  -23.5410  -32.1440   23.7730 O   0  0  0  0  0  0  0  0  0  0  0  0
  -22.7800  -29.4470   22.5530 C   0  0  0  0  0  0  0  0  0  0  0  0
  -21.4540  -29.2710   22.4260 N   0  0  0  0  0  0  0  0  0  0  0  0
  -23.4590  -28.8160   23.3680 O   0  0  0  0  0  0  0  0  0  0  0  0
  -20.9670  -29.8290   21.7390 H   0  0  0  0  0  0  0  0  0  0  0  0
  -18.0730  -28.0940   22.9330 C   0  0  0  0  0  0  0  0  0  0  0  0
  -20.6340  -28.3350   23.1940 C   0  0  0  0  0  3  0  0  0  0  0  0
  -20.7250  -26.9050   22.6100 C   0  0  0  0  0  2  0  0  0  0  0  0
  -19.6160  -26.5950   21.5990 C   0  0  0  0  0  2  0  0  0  0  0  0
  -18.2370  -26.7480   22.2470 C   0  0  0  0  0  2  0  0  0  0  0  0
  -19.1980  -28.8460   23.3630 C   0  0  0  0  0  0  0  0  0  0  0  0
  -18.9900  -30.1080   23.9620 C   0  0  0  0  0  3  0  0  0  0  0  0
  -17.6890  -30.6160   24.1380 C   0  0  0  0  0  3  0  0  0  0  0  0
  -16.5780  -29.8600   23.7240 C   0  0  0  0  0  3  0  0  0  0  0  0
  -16.7710  -28.6010   23.1280 C   0  0  0  0  0  3  0  0  0  0  0  0
  -25.9050  -32.5130   23.8710 C   0  0  0  0  0  3  0  0  0  0  0  0
  -26.4160  -31.7490   25.1540 C   0  0  1  0  0  0  0  0  0  0  0  0
  -25.3180  -31.5080   26.2170 C   0  0  0  0  0  1  0  0  0  0  0  0
  -27.0090  -30.3720   24.7730 C   0  0  0  0  0  1  0  0  0  0  0  0
  -27.5600  -32.5500   25.8200 C   0  0  0  0  0  1  0  0  0  0  0  0
  -25.5880  -33.9110   24.1940 N   0  0  0  0  0  0  0  0  0  0  0  0
  -25.9160  -34.9620   23.4310 C   0  0  0  0  0  0  0  0  0  0  0  0
  -26.5890  -34.8580   22.4020 O   0  0  0  0  0  0  0  0  0  0  0  0
  -24.9970  -34.0670   24.9970 H   0  0  0  0  0  0  0  0  0  0  0  0
  -24.1810  -36.7460   23.0610 C   0  0  0  0  0  1  0  0  0  0  0  0
  -25.4200  -36.3500   23.8810 C   0  0  0  0  0  3  0  0  0  0  0  0
  -27.5480  -37.2460   24.7170 C   0  0  0  0  0  1  0  0  0  0  0  0
  -26.4470  -37.4100   23.7720 N   0  0  0  0  0  0  0  0  0  0  0  0
  -26.0350  -38.3250   23.9230 H   0  0  0  0  0  0  0  0  0  0  0  0
  1  2  1  0
  1  4  1  0
  2  6  1  0
  4  9  1  0
  5  4  1  0
  5  3  1  0
  5  7  1  0
  6 48  1  0
  6  3  1  0
  6  8  1  6
  9 18  1  0
 10 18  1  0
 11 16  1  0
 12 13  1  0
 12 11  1  0
 14 13  1  0
 14 23  1  0
 14 15  1  0
 16 10  1  0
 16 15  1  0
 17 10  2  0
 18 19  1  0
 20 21  2  0
 21 40  1  0
 22 21  1  0
 22 25  1  0
 23 20  1  0
 23 24  1  0
 24 22  2  0
 25 26  1  0
 26 27  2  0
 28 31  1  0
 28 27  1  0
 29 28  2  0
 30 29  1  0
 30 25  2  0
 31 32  1  0
 32 33  1  0
 33 34  2  0
 35 34  1  0
 35 39  1  0
 36 35  2  0
 37 32  2  0
 37 36  1  0
 38 37  1  0
 40 41  1  0
 41 44  1  0
 41 43  1  0
 42 40  2  0
 45 46  1  0
 45 20  1  0
 47 45  1  0
 49 50  1  0
 49 48  1  0
 51 50  1  0
 52 63  2  0
 53 51  1  0
 53 58  1  0
 54 62  1  0
 54 64  1  0
 55 61  1  0
 55 57  1  0
 56 62  1  0
 57 58  2  0
 57 56  1  0
 59 53  2  0
 60 59  1  0
 60 55  2  0
 61 54  1  0
 62 52  1  0
 64 66  2  0
 65 64  1  0
 67 65  1  0
 68 77  2  0
 68 73  1  0
 69 65  1  0
 69 73  1  0
 70 69  1  0
 71 72  1  0
 71 70  1  0
 72 68  1  0
 73 74  2  0
 74 75  1  0
 76 75  2  0
 77 76  1  0
 78 52  1  0
 78 83  1  0
 78 79  1  0
 79 82  1  1
 79 80  1  0
 81 79  1  0
 83 86  1  0
 84 88  1  0
 84 83  1  0
 85 84  2  0
 88 87  1  0
 90 88  1  0
 90 91  1  0
 90 89  1  0
M  ISO  4  10 100  18 100  50 101  51 101
M  END
>  <TORSDO>  (2) 
F 20

>  <SCORE>  (2) 
-13.763

>  <name>  (2) 
1

>  <ligand_id>  (2) 
1

>  <original_smiles>  (2) 
[H]c1c([H])c([H])c2c(c1[H])C([H])([H])C([H])([H])C([H])([H])C2([H])N([H])C(=O)C1([H])N(C(=O)C([H])(N([H])C(=O)C([H])(N([H])C([H])([H])[H])C([H])([H])[H])C(C([H])([H])[H])(C([H])([H])[H])C([H])([H])[H])C([H])([H])c2c([H])c(OC([H])([H])C([H])([H])C([H])([H])[N+]3([H])C([H])([H])N([H])C([H])(C([H])([H])N([H])C(=O)N4C([H])([H])C([H])([H])C([H])([H])C([H])(n5nc(-c6c([H])c([H])c(Oc7c([H])c([H])c(F)c([H])c7F)c([H])c6[H])c(C(=O)N([H])[H])c5N([H])[H])C4([H])[H])C([H])([H])C3([H])[H])c([H])c([H])c2C1([H])[H]

>  <smiles>  (2) 
[H]c1c([H])c([H])c2c(c1[H])C([H])([H])C([H])([H])C([H])([H])C2([H])N([H])C(=O)C1([H])N(C(=O)C([H])(N([H])C(=O)C([H])(N([H])C([H])([H])[H])C([H])([H])[H])C(C([H])([H])[H])(C([H])([H])[H])C([H])([H])[H])C([H])([H])c2c([H])c(OC([H])([H])C([H])([H])C([H])([H])[N+]3([H])C([H])([H])N([H])C([H])(C([H])([H])N([H])C(=O)N4C([H])([H])C([H])([H])C([H])([H])C([H])(n5nc(-c6c([H])c([H])c(Oc7c([H])c([H])c(F)c([H])c7F)c([H])c6[H])c(C(=O)N([H])[H])c5N([H])[H])C4([H])[H])C([H])([H])C3([H])[H])c([H])c([H])c2C1([H])[H]

$$$$
2:0:0
     RDKit          3D

 89 97  0  0  1  0  0  0  0  0999 V2000
  -31.0420  -22.5570   19.6440 C   0  0  0  0  0  2  0  0  0  0  0  0
  -30.9670  -22.2900   21.1640 C   0  0  0  0  0  2  0  0  0  0  0  0
  -29.6910  -22.8940   18.9850 C   0  0  0  0  0  2  0  0  0  0  0  0
  -29.8610  -21.3190   21.6260 C   0  0  0  0  0  2  0  0  0  0  0  0
  -28.4930  -22.6420   19.9110 C   0  0  0  0  0  3  0  0  0  0  0  0
  -28.7700  -21.1600   20.6380 N   0  0  1  0  0  4  0  0  0  0  0  0
  -27.9560  -21.0360   21.2240 H   0  0  0  0  0  0  0  0  0  0  0  0
  -28.0540  -24.2410   20.6460 C   0  0  0  0  0  2  0  0  0  0  0  0
  -28.1920  -25.8500   20.2450 O   0  0  0  0  0  0  0  0  0  0  0  0
  -24.6360  -31.8570   23.2060 C   0  0  0  0  0  0  0  0  0  0  0  0
  -27.1740  -26.9410   20.2460 C   0  0  0  0  0  0  0  0  0  0  0  0
  -23.4430  -30.4490   21.5790 C   0  0  0  0  0  3  0  0  0  0  0  0
  -24.8920  -28.8340   20.1730 C   0  0  0  0  0  0  0  0  0  0  0  0
  -26.0100  -30.6610   21.4290 C   0  0  0  0  0  2  0  0  0  0  0  0
  -26.0810  -29.2430   20.7870 C   0  0  0  0  0  0  0  0  0  0  0  0
  -27.2220  -28.3180   20.7950 C   0  0  0  0  0  3  0  0  0  0  0  0
  -25.9580  -26.6840   19.5810 C   0  0  0  0  0  3  0  0  0  0  0  0
  -24.8540  -27.5750   19.5500 C   0  0  0  0  0  3  0  0  0  0  0  0
  -23.6750  -29.7580   20.2080 C   0  0  0  0  0  2  0  0  0  0  0  0
  -24.7180  -31.0170   22.1250 N   0  0  0  0  0  0  0  0  0  0  0  0
  -23.5460  -32.1490   23.7240 O   0  0  0  0  0  0  0  0  0  0  0  0
  -22.7530  -29.4570   22.5510 C   0  0  0  0  0  0  0  0  0  0  0  0
  -21.4220  -29.2930   22.4320 N   0  0  0  0  0  0  0  0  0  0  0  0
  -23.4240  -28.8350   23.3790 O   0  0  0  0  0  0  0  0  0  0  0  0
  -20.9360  -29.8470   21.7400 H   0  0  0  0  0  0  0  0  0  0  0  0
  -18.0410  -28.0860   22.9570 C   0  0  0  0  0  0  0  0  0  0  0  0
  -20.6010  -28.3580   23.2110 C   0  0  0  0  0  3  0  0  0  0  0  0
  -20.7040  -26.9230   22.6430 C   0  0  0  0  0  2  0  0  0  0  0  0
  -19.5990  -26.5930   21.6350 C   0  0  0  0  0  2  0  0  0  0  0  0
  -18.2190  -26.7360   22.2840 C   0  0  0  0  0  2  0  0  0  0  0  0
  -19.1590  -28.8540   23.3790 C   0  0  0  0  0  0  0  0  0  0  0  0
  -18.9360  -30.1160   23.9700 C   0  0  0  0  0  3  0  0  0  0  0  0
  -17.6290  -30.6090   24.1440 C   0  0  0  0  0  3  0  0  0  0  0  0
  -16.5270  -29.8380   23.7370 C   0  0  0  0  0  3  0  0  0  0  0  0
  -16.7340  -28.5780   23.1490 C   0  0  0  0  0  3  0  0  0  0  0  0
  -25.9060  -32.5080   23.8330 C   0  0  0  0  0  3  0  0  0  0  0  0
  -26.4220  -31.7450   25.1170 C   0  0  1  0  0  0  0  0  0  0  0  0
  -25.3260  -31.5130   26.1850 C   0  0  0  0  0  1  0  0  0  0  0  0
  -27.0100  -30.3660   24.7450 C   0  0  0  0  0  1  0  0  0  0  0  0
  -27.5700  -32.5470   25.7760 C   0  0  0  0  0  1  0  0  0  0  0  0
  -25.5820  -33.9060   24.1690 N   0  0  0  0  0  0  0  0  0  0  0  0
  -25.9100  -34.9690   23.4250 C   0  0  0  0  0  0  0  0  0  0  0  0
  -26.5790  -34.8770   22.3930 O   0  0  0  0  0  0  0  0  0  0  0  0
  -24.9860  -34.0510   24.9720 H   0  0  0  0  0  0  0  0  0  0  0  0
  -24.1770  -36.7660   23.0960 C   0  0  0  0  0  1  0  0  0  0  0  0
  -25.4220  -36.3540   23.8970 C   0  0  0  0  0  3  0  0  0  0  0  0
  -27.5560  -37.2420   24.7290 C   0  0  0  0  0  1  0  0  0  0  0  0
  -26.4510  -37.4130   23.7900 N   0  0  0  0  0  0  0  0  0  0  0  0
  -26.0420  -38.3290   23.9440 H   0  0  0  0  0  0  0  0  0  0  0  0
  -28.8630  -19.6290   19.9630 C   0  0  0  0  0  3  0  0  0  0  0  0
  -29.5690  -18.1150   20.6530 C   0  0  0  0  0  3  0  0  0  0  0  0
  -30.3380  -15.2710   20.2410 C   0  0  0  0  0  0  0  0  0  0  0  0
  -30.3730  -12.8360   19.3410 C   0  0  0  0  0  2  0  0  0  0  0  0
  -29.4430  -12.6390   18.1190 C   0  0  0  0  0  2  0  0  0  0  0  0
  -27.9960  -12.3650   18.5720 C   0  0  0  0  0  2  0  0  0  0  0  0
  -27.5510  -13.3090   19.7190 C   0  0  0  0  0  3  0  0  0  0  0  0
  -28.6100  -13.4360   20.8290 C   0  0  0  0  0  2  0  0  0  0  0  0
  -29.8140  -13.9580   20.1720 N   0  0  0  0  0  0  0  0  0  0  0  0
  -31.5690  -15.3160   20.0930 O   0  0  0  0  0  0  0  0  0  0  0  0
  -29.4950  -16.4890   20.2790 N   0  0  0  0  0  0  0  0  0  0  0  0
  -28.5300  -16.1970   20.2030 H   0  0  0  0  0  0  0  0  0  0  0  0
  -25.1870  -13.8600   20.4980 C   0  0  0  0  0  0  0  0  0  0  0  0
  -24.1310  -13.0780   20.8790 C   0  0  0  0  0  0  0  0  0  0  0  0
  -24.6050  -11.7310   20.8400 C   0  0  0  0  0  0  0  0  0  0  0  0
  -26.2310  -12.9890   20.2430 N   0  0  0  0  0  0  0  0  0  0  0  0
  -25.8930  -11.7010   20.5200 N   0  0  0  0  0  0  0  0  0  0  0  0
  -23.8850  -10.4650   21.0320 C   0  0  0  0  0  0  0  0  0  0  0  0
  -24.3320   -9.4950   21.9550 C   0  0  0  0  0  3  0  0  0  0  0  0
  -23.6130   -8.2940   22.1360 C   0  0  0  0  0  3  0  0  0  0  0  0
  -22.4320   -8.0540   21.3950 C   0  0  0  0  0  0  0  0  0  0  0  0
  -22.0060   -9.0110   20.4590 C   0  0  0  0  0  3  0  0  0  0  0  0
  -22.7240  -10.2050   20.2760 C   0  0  0  0  0  3  0  0  0  0  0  0
  -21.6800   -6.9060   21.4860 O   0  0  0  0  0  0  0  0  0  0  0  0
  -21.6570   -6.1530   22.6330 C   0  0  0  0  0  0  0  0  0  0  0  0
  -21.2510   -6.6950   23.8710 C   0  0  0  0  0  3  0  0  0  0  0  0
  -21.1750   -5.8690   25.0100 C   0  0  0  0  0  3  0  0  0  0  0  0
  -21.4900   -4.5000   24.9100 C   0  0  0  0  0  0  0  0  0  0  0  0
  -21.8870   -3.9580   23.6760 C   0  0  0  0  0  3  0  0  0  0  0  0
  -21.9690   -4.7830   22.5400 C   0  0  0  0  0  0  0  0  0  0  0  0
  -22.3300   -4.2500   21.3480 F   0  0  0  0  0  0  0  0  0  0  0  0
  -21.4090   -3.7030   26.0020 F   0  0  0  0  0  0  0  0  0  0  0  0
  -22.7370  -13.5490   21.1580 C   0  0  0  0  0  0  0  0  0  0  0  0
  -22.0160  -12.8450   22.0260 N   0  0  0  0  0  0  0  0  0  0  0  0
  -22.2900  -14.5720   20.6410 O   0  0  0  0  0  0  0  0  0  0  0  0
  -22.3900  -12.0180   22.4660 H   0  0  0  0  0  0  0  0  0  0  0  0
  -21.0770  -13.1400   22.2500 H   0  0  0  0  0  0  0  0  0  0  0  0
  -25.3400  -15.2320   20.3150 N   0  0  0  0  0  0  0  0  0  0  0  0
  -24.5720  -15.8850   20.4090 H   0  0  0  0  0  0  0  0  0  0  0  0
  -26.1630  -15.6580   19.9090 H   0  0  0  0  0  0  0  0  0  0  0  0
  1  2  1  0
  2  4  1  0
  3  1  1  0
  3  5  1  0
  5  6  1  0
  5  8  1  0
  6  7  1  1
  6  4  1  0
  9 11  1  0
  9  8  1  0
 10 21  2  0
 11 16  1  0
 12 20  1  0
 12 22  1  0
 13 19  1  0
 13 15  1  0
 14 20  1  0
 15 16  2  0
 15 14  1  0
 17 11  2  0
 18 17  1  0
 18 13  2  0
 19 12  1  0
 20 10  1  0
 22 24  2  0
 23 22  1  0
 25 23  1  0
 26 35  2  0
 26 31  1  0
 27 23  1  0
 27 31  1  0
 28 27  1  0
 29 30  1  0
 29 28  1  0
 30 26  1  0
 31 32  2  0
 32 33  1  0
 34 33  2  0
 35 34  1  0
 36 10  1  0
 36 41  1  0
 36 37  1  0
 37 40  1  1
 37 38  1  0
 39 37  1  0
 41 44  1  0
 42 46  1  0
 42 41  1  0
 43 42  2  0
 46 45  1  0
 48 46  1  0
 48 49  1  0
 48 47  1  0
 50  6  1  0
 50 51  2  0
 52 60  1  0
 53 58  1  0
 54 55  1  0
 54 53  1  0
 56 55  1  0
 56 65  1  0
 56 57  1  0
 58 52  1  0
 58 57  1  0
 59 52  2  0
 60 51  1  0
 61 60  1  0
 62 63  2  0
 63 82  1  0
 64 63  1  0
 64 67  1  0
 65 62  1  0
 65 66  1  0
 66 64  2  0
 67 68  1  0
 68 69  2  0
 70 73  1  0
 70 69  1  0
 71 70  2  0
 72 71  1  0
 72 67  2  0
 73 74  1  0
 74 75  1  0
 75 76  2  0
 77 76  1  0
 77 81  1  0
 78 77  2  0
 79 74  2  0
 79 78  1  0
 80 79  1  0
 82 83  1  0
 83 86  1  0
 83 85  1  0
 84 82  2  0
 87 88  1  0
 87 62  1  0
 89 87  1  0
M  ISO  4   8 101   9 101  52 100  60 100
M  END
>  <TORSDO>  (3) 
F 19

>  <SCORE>  (3) 
-16.475

>  <name>  (3) 
2

>  <ligand_id>  (3) 
2

>  <original_smiles>  (3) 
[H]c1c([H])c([H])c2c(c1[H])C([H])([H])C([H])([H])C([H])([H])C2([H])N([H])C(=O)C1([H])N(C(=O)C([H])(N([H])C(=O)C([H])(N([H])C([H])([H])[H])C([H])([H])[H])C(C([H])([H])[H])(C([H])([H])[H])C([H])([H])[H])C([H])([H])c2c([H])c(OC([H])([H])C3([H])C([H])([H])C([H])([H])C([H])([H])C([H])([H])[N+]3([H])C([H])([H])C([H])([H])N([H])C(=O)N3C([H])([H])C([H])([H])C([H])([H])C([H])(n4nc(-c5c([H])c([H])c(Oc6c([H])c([H])c(F)c([H])c6F)c([H])c5[H])c(C(=O)N([H])[H])c4N([H])[H])C3([H])[H])c([H])c([H])c2C1([H])[H]

>  <smiles>  (3) 
[H]c1c([H])c([H])c2c(c1[H])C([H])([H])C([H])([H])C([H])([H])C2([H])N([H])C(=O)C1([H])N(C(=O)C([H])(N([H])C(=O)C([H])(N([H])C([H])([H])[H])C([H])([H])[H])C(C([H])([H])[H])(C([H])([H])[H])C([H])([H])[H])C([H])([H])c2c([H])c(OC([H])([H])C3([H])C([H])([H])C([H])([H])C([H])([H])C([H])([H])[N+]3([H])C([H])([H])C([H])([H])N([H])C(=O)N3C([H])([H])C([H])([H])C([H])([H])C([H])(n4nc(-c5c([H])c([H])c(Oc6c([H])c([H])c(F)c([H])c6F)c([H])c5[H])c(C(=O)N([H])[H])c4N([H])[H])C3([H])[H])c([H])c([H])c2C1([H])[H]

$$$$
3:0:0
     RDKit          3D

 96103  0  0  1  0  0  0  0  0999 V2000
  -28.6950  -23.4970   20.5150 C   0  0  0  0  0  3  0  0  0  0  0  0
  -28.7460  -21.9390   19.8670 C   0  0  0  0  0  3  0  0  0  0  0  0
  -29.3760  -20.5650   20.6050 C   0  0  0  0  0  3  0  0  0  0  0  0
  -29.1680  -18.9770   20.1080 C   0  0  0  0  0  3  0  0  0  0  0  0
  -30.1060  -17.6950   20.6370 C   0  0  0  0  0  3  0  0  0  0  0  0
  -30.5360  -15.0170   20.3170 C   0  0  0  0  0  0  0  0  0  0  0  0
  -30.4130  -12.6940   19.3360 C   0  0  0  0  0  2  0  0  0  0  0  0
  -29.4630  -12.6830   18.1160 C   0  0  0  0  0  2  0  0  0  0  0  0
  -28.0050  -12.4690   18.5620 C   0  0  0  0  0  2  0  0  0  0  0  0
  -27.6120  -13.3680   19.7660 C   0  0  0  0  0  3  0  0  0  0  0  0
  -28.6830  -13.3430   20.8770 C   0  0  0  0  0  2  0  0  0  0  0  0
  -29.9440  -13.7630   20.2580 N   0  0  0  0  0  0  0  0  0  0  0  0
  -31.7350  -15.1070   20.0330 O   0  0  0  0  0  0  0  0  0  0  0  0
  -29.7450  -16.1740   20.4980 N   0  0  0  0  0  0  0  0  0  0  0  0
  -28.7680  -15.9630   20.6460 H   0  0  0  0  0  0  0  0  0  0  0  0
  -25.2350  -13.9200   20.5350 C   0  0  0  0  0  0  0  0  0  0  0  0
  -24.1830  -13.1300   20.9100 C   0  0  0  0  0  0  0  0  0  0  0  0
  -24.6580  -11.7840   20.8530 C   0  0  0  0  0  0  0  0  0  0  0  0
  -26.2840  -13.0530   20.2720 N   0  0  0  0  0  0  0  0  0  0  0  0
  -25.9450  -11.7630   20.5270 N   0  0  0  0  0  0  0  0  0  0  0  0
  -23.9470  -10.5120   21.0290 C   0  0  0  0  0  0  0  0  0  0  0  0
  -24.4020   -9.5290   21.9350 C   0  0  0  0  0  3  0  0  0  0  0  0
  -23.6860   -8.3260   22.1020 C   0  0  0  0  0  3  0  0  0  0  0  0
  -22.5020   -8.0930   21.3630 C   0  0  0  0  0  0  0  0  0  0  0  0
  -22.0680   -9.0640   20.4430 C   0  0  0  0  0  3  0  0  0  0  0  0
  -22.7830  -10.2590   20.2760 C   0  0  0  0  0  3  0  0  0  0  0  0
  -21.7570   -6.9420   21.4420 O   0  0  0  0  0  0  0  0  0  0  0  0
  -21.7390   -6.1740   22.5780 C   0  0  0  0  0  0  0  0  0  0  0  0
  -21.3450   -6.6990   23.8280 C   0  0  0  0  0  3  0  0  0  0  0  0
  -21.2750   -5.8560   24.9560 C   0  0  0  0  0  3  0  0  0  0  0  0
  -21.5860   -4.4890   24.8340 C   0  0  0  0  0  0  0  0  0  0  0  0
  -21.9730   -3.9630   23.5890 C   0  0  0  0  0  3  0  0  0  0  0  0
  -22.0450   -4.8030   22.4620 C   0  0  0  0  0  0  0  0  0  0  0  0
  -22.3960   -4.2870   21.2600 F   0  0  0  0  0  0  0  0  0  0  0  0
  -21.5090   -3.6760   25.9130 F   0  0  0  0  0  0  0  0  0  0  0  0
  -22.7850  -13.5900   21.2000 C   0  0  0  0  0  0  0  0  0  0  0  0
  -22.0710  -12.8730   22.0600 N   0  0  0  0  0  0  0  0  0  0  0  0
  -22.3340  -14.6200   20.6980 O   0  0  0  0  0  0  0  0  0  0  0  0
  -22.4500  -12.0390   22.4850 H   0  0  0  0  0  0  0  0  0  0  0  0
  -21.1310  -13.1600   22.2960 H   0  0  0  0  0  0  0  0  0  0  0  0
  -25.3810  -15.2940   20.3670 N   0  0  0  0  0  0  0  0  0  0  0  0
  -24.5940  -15.9280   20.4610 H   0  0  0  0  0  0  0  0  0  0  0  0
  -26.1970  -15.7380   19.9640 H   0  0  0  0  0  0  0  0  0  0  0  0
  -28.4150  -24.8600   19.5760 C   0  0  0  0  0  2  0  0  0  0  0  0
  -28.4630  -26.3460   20.0190 O   0  0  0  0  0  0  0  0  0  0  0  0
  -24.6630  -31.8370   23.0880 C   0  0  0  0  0  0  0  0  0  0  0  0
  -27.3650  -27.2770   19.9470 C   0  0  0  0  0  0  0  0  0  0  0  0
  -23.5030  -30.4560   21.4110 C   0  0  0  0  0  3  0  0  0  0  0  0
  -24.9930  -28.9550   19.9550 C   0  0  0  0  0  0  0  0  0  0  0  0
  -26.0520  -30.7840   21.2690 C   0  0  0  0  0  2  0  0  0  0  0  0
  -26.1580  -29.4150   20.5820 C   0  0  0  0  0  0  0  0  0  0  0  0
  -27.3400  -28.5890   20.5670 C   0  0  0  0  0  3  0  0  0  0  0  0
  -26.1740  -26.9260   19.2730 C   0  0  0  0  0  3  0  0  0  0  0  0
  -25.0130  -27.7220   19.2900 C   0  0  0  0  0  3  0  0  0  0  0  0
  -23.7450  -29.8200   20.0170 C   0  0  0  0  0  2  0  0  0  0  0  0
  -24.7570  -31.0470   21.9770 N   0  0  0  0  0  0  0  0  0  0  0  0
  -23.5690  -32.0850   23.6180 O   0  0  0  0  0  0  0  0  0  0  0  0
  -22.8440  -29.4080   22.3430 C   0  0  0  0  0  0  0  0  0  0  0  0
  -21.5160  -29.2350   22.2260 N   0  0  0  0  0  0  0  0  0  0  0  0
  -23.5320  -28.7540   23.1320 O   0  0  0  0  0  0  0  0  0  0  0  0
  -21.0210  -29.8090   21.5590 H   0  0  0  0  0  0  0  0  0  0  0  0
  -18.1400  -28.0420   22.7660 C   0  0  0  0  0  0  0  0  0  0  0  0
  -20.7070  -28.2700   22.9760 C   0  0  0  0  0  3  0  0  0  0  0  0
  -20.7810  -26.8660   22.3320 C   0  0  0  0  0  2  0  0  0  0  0  0
  -19.6490  -26.5990   21.3360 C   0  0  0  0  0  2  0  0  0  0  0  0
  -18.2860  -26.7250   22.0220 C   0  0  0  0  0  2  0  0  0  0  0  0
  -19.2770  -28.7740   23.2010 C   0  0  0  0  0  0  0  0  0  0  0  0
  -19.0860  -30.0080   23.8610 C   0  0  0  0  0  3  0  0  0  0  0  0
  -17.7920  -30.5090   24.0880 C   0  0  0  0  0  3  0  0  0  0  0  0
  -16.6690  -29.7730   23.6720 C   0  0  0  0  0  3  0  0  0  0  0  0
  -16.8440  -28.5400   23.0160 C   0  0  0  0  0  3  0  0  0  0  0  0
  -25.9240  -32.4860   23.7360 C   0  0  0  0  0  3  0  0  0  0  0  0
  -26.4430  -31.7030   25.0050 C   0  0  1  0  0  0  0  0  0  0  0  0
  -25.3400  -31.4330   26.0560 C   0  0  0  0  0  1  0  0  0  0  0  0
  -27.0540  -30.3400   24.6050 C   0  0  0  0  0  1  0  0  0  0  0  0
  -27.5730  -32.5080   25.6890 C   0  0  0  0  0  1  0  0  0  0  0  0
  -25.5800  -33.8710   24.0920 N   0  0  0  0  0  0  0  0  0  0  0  0
  -25.9050  -34.9510   23.3680 C   0  0  0  0  0  0  0  0  0  0  0  0
  -26.5930  -34.8870   22.3450 O   0  0  0  0  0  0  0  0  0  0  0  0
  -24.9650  -33.9970   24.8820 H   0  0  0  0  0  0  0  0  0  0  0  0
  -24.1430  -36.7210   23.0420 C   0  0  0  0  0  1  0  0  0  0  0  0
  -25.3840  -36.3170   23.8560 C   0  0  0  0  0  3  0  0  0  0  0  0
  -27.4910  -37.2250   24.7290 C   0  0  0  0  0  1  0  0  0  0  0  0
  -26.3940  -37.3940   23.7820 N   0  0  0  0  0  0  0  0  0  0  0  0
  -25.9680  -38.3000   23.9470 H   0  0  0  0  0  0  0  0  0  0  0  0
  -27.7120  -23.5000   21.7280 C   0  0  0  0  0  3  0  0  0  0  0  0
  -28.1940  -24.4360   22.8750 C   0  0  0  0  0  2  0  0  0  0  0  0
  -29.3570  -23.9110   23.6170 N   0  0  0  0  0  4  0  0  0  0  0  0
  -29.1260  -23.0620   24.1040 H   0  0  0  0  0  0  0  0  0  0  0  0
  -29.6450  -24.5850   24.3050 H   0  0  0  0  0  0  0  0  0  0  0  0
  -30.1420  -23.7330   23.0180 H   0  0  0  0  0  0  0  0  0  0  0  0
  -26.2570  -23.8350   21.2840 C   0  0  0  0  0  2  0  0  0  0  0  0
  -25.2220  -23.3870   22.2380 N   0  0  0  0  0  4  0  0  0  0  0  0
  -25.3080  -22.4060   22.4420 H   0  0  0  0  0  0  0  0  0  0  0  0
  -24.3110  -23.5280   21.8360 H   0  0  0  0  0  0  0  0  0  0  0  0
  -25.2500  -23.9010   23.1000 H   0  0  0  0  0  0  0  0  0  0  0  0
  1 44  1  0
  1 86  1  0
  2  1  1  0
  2  3  2  0
  4  3  1  0
  4  5  2  0
  6 14  1  0
  7 12  1  0
  8  9  1  0
  8  7  1  0
 10  9  1  0
 10 19  1  0
 10 11  1  0
 12  6  1  0
 12 11  1  0
 13  6  2  0
 14  5  1  0
 14 15  1  0
 16 17  2  0
 17 36  1  0
 18 17  1  0
 18 21  1  0
 19 20  1  0
 19 16  1  0
 20 18  2  0
 21 22  1  0
 22 23  2  0
 24 27  1  0
 24 23  1  0
 25 24  2  0
 26 25  1  0
 26 21  2  0
 27 28  1  0
 28 29  1  0
 29 30  2  0
 31 30  1  0
 31 35  1  0
 32 31  2  0
 33 28  2  0
 33 32  1  0
 34 33  1  0
 36 37  1  0
 37 40  1  0
 37 39  1  0
 38 36  2  0
 41 42  1  0
 41 16  1  0
 43 41  1  0
 44 45  1  0
 46 57  2  0
 47 45  1  0
 47 52  1  0
 48 56  1  0
 48 58  1  0
 49 55  1  0
 49 51  1  0
 50 56  1  0
 51 50  1  0
 52 51  2  0
 53 54  1  0
 53 47  2  0
 54 49  2  0
 55 48  1  0
 56 46  1  0
 58 60  2  0
 59 58  1  0
 61 59  1  0
 62 71  2  0
 62 67  1  0
 63 59  1  0
 63 67  1  0
 64 63  1  0
 65 66  1  0
 65 64  1  0
 66 62  1  0
 67 68  2  0
 68 69  1  0
 70 69  2  0
 71 70  1  0
 72 46  1  0
 72 77  1  0
 72 73  1  0
 73 76  1  1
 73 74  1  0
 75 73  1  0
 77 80  1  0
 78 82  1  0
 78 77  1  0
 79 78  2  0
 82 81  1  0
 84 82  1  0
 84 85  1  0
 84 83  1  0
 86 87  1  0
 87 88  1  0
 88 89  1  0
 88 90  1  0
 91 88  1  0
 92 86  1  0
 92 93  1  0
 93 94  1  0
 93 96  1  0
 95 93  1  0
M  ISO  4   6 100  14 100  44 101  45 101
M  END
>  <TORSDO>  (4) 
F 26

>  <SCORE>  (4) 
-12.198

>  <name>  (4) 
3

>  <ligand_id>  (4) 
3

>  <original_smiles>  (4) 
[H]c1c([H])c([H])c2c(c1[H])C([H])([H])C([H])([H])C([H])([H])C2([H])N([H])C(=O)C1([H])N(C(=O)C([H])(N([H])C(=O)C([H])(N([H])C([H])([H])[H])C([H])([H])[H])C(C([H])([H])[H])(C([H])([H])[H])C([H])([H])[H])C([H])([H])c2c([H])c(OC([H])([H])C([H])(C([H])([H])C([H])([H])C([H])([H])C([H])([H])N([H])C(=O)N3C([H])([H])C([H])([H])C([H])([H])C([H])(n4nc(-c5c([H])c([H])c(Oc6c([H])c([H])c(F)c([H])c6F)c([H])c5[H])c(C(=O)N([H])[H])c4N([H])[H])C3([H])[H])C([H])(C([H])([H])[N+]([H])([H])[H])C([H])([H])[N+]([H])([H])[H])c([H])c([H])c2C1([H])[H]

>  <smiles>  (4) 
[H]c1c([H])c([H])c2c(c1[H])C([H])([H])C([H])([H])C([H])([H])C2([H])N([H])C(=O)C1([H])N(C(=O)C([H])(N([H])C(=O)C([H])(N([H])C([H])([H])[H])C([H])([H])[H])C(C([H])([H])[H])(C([H])([H])[H])C([H])([H])[H])C([H])([H])c2c([H])c(OC([H])([H])C([H])(C([H])([H])C([H])([H])C([H])([H])C([H])([H])N([H])C(=O)N3C([H])([H])C([H])([H])C([H])([H])C([H])(n4nc(-c5c([H])c([H])c(Oc6c([H])c([H])c(F)c([H])c6F)c([H])c5[H])c(C(=O)N([H])[H])c4N([H])[H])C3([H])[H])C([H])(C([H])([H])[N+]([H])([H])[H])C([H])([H])[N+]([H])([H])[H])c([H])c([H])c2C1([H])[H]

$$$$
4:0:0
     RDKit          3D

109117  0  0  1  0  0  0  0  0999 V2000
  -30.3210  -20.2260   19.8130 N   0  0  2  0  0  4  0  0  0  0  0  0
  -29.4890  -20.2420   19.2460 H   0  0  0  0  0  0  0  0  0  0  0  0
  -31.4850  -20.1550   18.8620 C   0  0  0  0  0  2  0  0  0  0  0  0
  -31.9670  -21.9940   14.8370 C   0  0  0  0  0  2  0  0  0  0  0  0
  -33.0460  -22.2010   15.9070 C   0  0  0  0  0  2  0  0  0  0  0  0
  -30.5700  -22.0320   15.4690 C   0  0  0  0  0  2  0  0  0  0  0  0
  -32.9090  -21.1480   17.0140 C   0  0  0  0  0  2  0  0  0  0  0  0
  -30.4400  -21.0390   16.6350 C   0  0  0  0  0  2  0  0  0  0  0  0
  -31.5350  -21.2160   17.7200 C   0  0  0  0  0  3  0  0  0  0  0  0
  -30.3580  -21.5570   20.6000 C   0  0  0  0  0  2  0  0  0  0  0  0
  -29.1530  -22.6430   20.5620 C   0  0  0  0  0  3  0  0  0  0  0  0
  -29.5780  -24.2190   20.6280 C   0  0  0  0  0  3  0  0  0  0  0  0
  -30.5150  -24.5260   21.7400 N   0  0  0  0  0  4  0  0  0  0  0  0
  -30.1410  -24.2990   22.6490 H   0  0  0  0  0  0  0  0  0  0  0  0
  -30.7070  -25.5140   21.7420 H   0  0  0  0  0  0  0  0  0  0  0  0
  -31.4090  -24.0740   21.6410 H   0  0  0  0  0  0  0  0  0  0  0  0
  -28.3870  -25.2750   20.6860 C   0  0  0  0  0  2  0  0  0  0  0  0
  -28.6210  -26.7240   20.5050 O   0  0  0  0  0  0  0  0  0  0  0  0
  -24.7540  -32.0670   23.4450 C   0  0  0  0  0  0  0  0  0  0  0  0
  -27.4850  -27.5490   20.4440 C   0  0  0  0  0  0  0  0  0  0  0  0
  -23.5940  -30.6430   21.7960 C   0  0  0  0  0  3  0  0  0  0  0  0
  -25.0890  -29.1160   20.4020 C   0  0  0  0  0  0  0  0  0  0  0  0
  -26.1320  -31.0030   21.6530 C   0  0  0  0  0  2  0  0  0  0  0  0
  -26.2410  -29.6240   21.0130 C   0  0  0  0  0  0  0  0  0  0  0  0
  -27.4410  -28.8500   21.0330 C   0  0  0  0  0  3  0  0  0  0  0  0
  -26.3020  -27.1040   19.7980 C   0  0  0  0  0  3  0  0  0  0  0  0
  -25.1210  -27.8600   19.7870 C   0  0  0  0  0  3  0  0  0  0  0  0
  -23.8390  -29.9660   20.4240 C   0  0  0  0  0  2  0  0  0  0  0  0
  -24.8420  -31.2560   22.3530 N   0  0  0  0  0  0  0  0  0  0  0  0
  -23.6590  -32.3350   23.9620 O   0  0  0  0  0  0  0  0  0  0  0  0
  -22.9360  -29.6180   22.7540 C   0  0  0  0  0  0  0  0  0  0  0  0
  -21.6370  -29.3440   22.5460 N   0  0  0  0  0  0  0  0  0  0  0  0
  -23.5970  -29.0720   23.6420 O   0  0  0  0  0  0  0  0  0  0  0  0
  -21.1630  -29.8430   21.8060 H   0  0  0  0  0  0  0  0  0  0  0  0
  -18.3290  -27.9080   22.8330 C   0  0  0  0  0  0  0  0  0  0  0  0
  -20.8260  -28.3860   23.3000 C   0  0  0  0  0  3  0  0  0  0  0  0
  -21.0870  -26.9390   22.8220 C   0  0  0  0  0  2  0  0  0  0  0  0
  -20.1070  -26.4740   21.7400 C   0  0  0  0  0  2  0  0  0  0  0  0
  -18.6670  -26.5420   22.2570 C   0  0  0  0  0  2  0  0  0  0  0  0
  -19.3440  -28.7800   23.3080 C   0  0  0  0  0  0  0  0  0  0  0  0
  -18.9770  -30.0500   23.8000 C   0  0  0  0  0  3  0  0  0  0  0  0
  -17.6290  -30.4530   23.8230 C   0  0  0  0  0  3  0  0  0  0  0  0
  -16.6280  -29.5790   23.3660 C   0  0  0  0  0  3  0  0  0  0  0  0
  -16.9770  -28.3070   22.8770 C   0  0  0  0  0  3  0  0  0  0  0  0
  -26.0200  -32.7240   24.0800 C   0  0  0  0  0  3  0  0  0  0  0  0
  -25.6850  -34.1210   24.3930 N   0  0  0  0  0  0  0  0  0  0  0  0
  -25.9950  -35.1690   23.6190 C   0  0  0  0  0  0  0  0  0  0  0  0
  -26.6620  -35.0630   22.5860 O   0  0  0  0  0  0  0  0  0  0  0  0
  -25.0930  -34.2730   25.1960 H   0  0  0  0  0  0  0  0  0  0  0  0
  -24.2210  -36.9160   23.2620 C   0  0  0  0  0  1  0  0  0  0  0  0
  -25.4820  -36.5520   24.0610 C   0  0  0  0  0  3  0  0  0  0  0  0
  -27.6040  -37.5000   24.8560 C   0  0  0  0  0  1  0  0  0  0  0  0
  -26.4900  -37.6250   23.9180 N   0  0  0  0  0  0  0  0  0  0  0  0
  -26.0640  -38.5380   24.0530 H   0  0  0  0  0  0  0  0  0  0  0  0
  -26.5300  -31.9700   25.3700 C   0  0  1  0  0  0  0  0  0  0  0  0
  -25.4070  -31.6400   26.3810 C   0  0  0  0  0  1  0  0  0  0  0  0
  -27.2300  -30.6440   24.9930 C   0  0  0  0  0  1  0  0  0  0  0  0
  -27.5890  -32.8350   26.0950 C   0  0  0  0  0  1  0  0  0  0  0  0
  -28.1390  -22.3690   19.3950 C   0  0  0  0  0  2  0  0  0  0  0  0
  -26.7080  -22.5260   19.7500 N   0  0  0  0  0  4  0  0  0  0  0  0
  -26.4730  -22.0370   20.5960 H   0  0  0  0  0  0  0  0  0  0  0  0
  -26.1390  -22.1360   19.0180 H   0  0  0  0  0  0  0  0  0  0  0  0
  -26.4220  -23.4830   19.8390 H   0  0  0  0  0  0  0  0  0  0  0  0
  -30.2120  -18.9430   20.6620 C   0  0  0  0  0  2  0  0  0  0  0  0
  -29.9190  -17.4930   19.9790 C   0  0  0  0  0  3  0  0  0  0  0  0
  -28.7230  -17.4290   18.9650 C   0  0  0  0  0  3  0  0  0  0  0  0
  -27.4060  -17.1720   19.5910 N   0  0  0  0  0  4  0  0  0  0  0  0
  -27.2060  -16.1870   19.7630 H   0  0  0  0  0  0  0  0  0  0  0  0
  -26.6750  -17.4490   18.9560 H   0  0  0  0  0  0  0  0  0  0  0  0
  -27.2490  -17.6660   20.4500 H   0  0  0  0  0  0  0  0  0  0  0  0
  -27.3810  -18.4980   17.0590 C   0  0  0  0  0  1  0  0  0  0  0  0
  -28.6250  -18.5920   17.9600 C   0  0  0  0  0  2  0  0  0  0  0  0
  -29.7860  -16.2390   20.9740 C   0  0  0  0  0  2  0  0  0  0  0  0
  -30.5580  -14.9060   20.5890 C   0  0  0  0  0  0  0  0  0  0  0  0
  -30.4510  -12.6260   19.6100 C   0  0  0  0  0  2  0  0  0  0  0  0
  -29.5250  -12.6600   18.3740 C   0  0  0  0  0  2  0  0  0  0  0  0
  -28.0580  -12.4410   18.7880 C   0  0  0  0  0  2  0  0  0  0  0  0
  -27.6310  -13.3280   19.9860 C   0  0  0  0  0  3  0  0  0  0  0  0
  -28.6740  -13.2910   21.1260 C   0  0  0  0  0  2  0  0  0  0  0  0
  -29.9760  -13.6650   20.5550 N   0  0  0  0  0  0  0  0  0  0  0  0
  -31.7190  -15.0530   20.2000 O   0  0  0  0  0  0  0  0  0  0  0  0
  -25.2330  -13.8770   20.7090 C   0  0  0  0  0  0  0  0  0  0  0  0
  -24.1670  -13.0820   21.0090 C   0  0  0  0  0  0  0  0  0  0  0  0
  -24.6490  -11.7370   20.9480 C   0  0  0  0  0  0  0  0  0  0  0  0
  -26.2860  -13.0160   20.4490 N   0  0  0  0  0  0  0  0  0  0  0  0
  -25.9410  -11.7220   20.6550 N   0  0  0  0  0  0  0  0  0  0  0  0
  -23.9460  -10.4620   21.1080 C   0  0  0  0  0  0  0  0  0  0  0  0
  -24.3350   -9.5290   22.0960 C   0  0  0  0  0  3  0  0  0  0  0  0
  -23.6380   -8.3130   22.2460 C   0  0  0  0  0  3  0  0  0  0  0  0
  -22.5380   -8.0190   21.4040 C   0  0  0  0  0  0  0  0  0  0  0  0
  -22.1700   -8.9400   20.4090 C   0  0  0  0  0  3  0  0  0  0  0  0
  -22.8680  -10.1510   20.2590 C   0  0  0  0  0  3  0  0  0  0  0  0
  -21.8150   -6.8530   21.4590 O   0  0  0  0  0  0  0  0  0  0  0  0
  -21.6410   -6.1700   22.6360 C   0  0  0  0  0  0  0  0  0  0  0  0
  -20.9890   -6.7480   23.7460 C   0  0  0  0  0  3  0  0  0  0  0  0
  -20.7700   -5.9830   24.9080 C   0  0  0  0  0  3  0  0  0  0  0  0
  -21.1900   -4.6400   24.9620 C   0  0  0  0  0  0  0  0  0  0  0  0
  -21.8400   -4.0650   23.8560 C   0  0  0  0  0  3  0  0  0  0  0  0
  -22.0630   -4.8260   22.6950 C   0  0  0  0  0  0  0  0  0  0  0  0
  -22.6680   -4.2600   21.6250 F   0  0  0  0  0  0  0  0  0  0  0  0
  -20.9760   -3.9030   26.0770 F   0  0  0  0  0  0  0  0  0  0  0  0
  -22.7600  -13.5290   21.2760 C   0  0  0  0  0  0  0  0  0  0  0  0
  -22.0300  -12.7950   22.1060 N   0  0  0  0  0  0  0  0  0  0  0  0
  -22.3240  -14.5660   20.7770 O   0  0  0  0  0  0  0  0  0  0  0  0
  -22.3990  -11.9560   22.5320 H   0  0  0  0  0  0  0  0  0  0  0  0
  -21.0830  -13.0720   22.3170 H   0  0  0  0  0  0  0  0  0  0  0  0
  -25.4020  -15.2590   20.6450 N   0  0  0  0  0  0  0  0  0  0  0  0
  -24.4730  -15.6390   20.4740 H   0  0  0  0  0  0  0  0  0  0  0  0
  -25.5450  -15.4960   21.6260 H   0  0  0  0  0  0  0  0  0  0  0  0
  1 10  1  0
  1 64  1  0
  1  2  1  6
  3  1  1  0
  4  6  1  0
  4  5  1  0
  5  7  1  0
  6  8  1  0
  7  9  1  0
  8  9  1  0
  9  3  1  0
 11 59  1  0
 11 10  1  0
 11 12  1  0
 12 17  1  0
 12 13  1  0
 13 15  1  0
 13 14  1  0
 16 13  1  0
 18 17  1  0
 19 30  2  0
 20 18  1  0
 20 25  1  0
 21 29  1  0
 21 31  1  0
 22 28  1  0
 22 24  1  0
 23 29  1  0
 24 25  2  0
 24 23  1  0
 26 20  2  0
 27 26  1  0
 27 22  2  0
 28 21  1  0
 29 19  1  0
 31 33  2  0
 32 31  1  0
 34 32  1  0
 35 44  2  0
 35 40  1  0
 36 32  1  0
 36 40  1  0
 37 36  1  0
 38 39  1  0
 38 37  1  0
 39 35  1  0
 40 41  2  0
 41 42  1  0
 43 42  2  0
 44 43  1  0
 45 19  1  0
 45 46  1  0
 45 55  1  0
 46 49  1  0
 47 51  1  0
 47 46  1  0
 48 47  2  0
 51 50  1  0
 53 54  1  0
 53 51  1  0
 53 52  1  0
 55 58  1  1
 55 56  1  0
 57 55  1  0
 59 60  1  0
 60 63  1  0
 60 61  1  0
 62 60  1  0
 65 64  1  0
 65 73  1  0
 66 72  1  0
 66 67  1  0
 66 65  1  0
 67 68  1  0
 67 70  1  0
 69 67  1  0
 71 72  1  0
 74 73  1  0
 75 80  1  0
 76 77  1  0
 76 75  1  0
 78 77  1  0
 78 85  1  0
 78 79  1  0
 80 74  1  0
 80 79  1  0
 81 74  2  0
 82 83  2  0
 83102  1  0
 84 83  1  0
 84 87  1  0
 85 86  1  0
 85 82  1  0
 86 84  2  0
 87 88  1  0
 88 89  2  0
 90 93  1  0
 90 89  1  0
 91 90  2  0
 92 91  1  0
 92 87  2  0
 93 94  1  0
 94 99  2  0
 94 95  1  0
 95 96  2  0
 96 97  1  0
 97101  1  0
 98 97  2  0
 99 98  1  0
100 99  1  0
102103  1  0
103106  1  0
103105  1  0
104102  2  0
107 82  1  0
107109  1  0
108107  1  0
M  ISO  4  17 101  18 101  73 100  74 100
M  END
>  <TORSDO>  (5) 
F 31

>  <SCORE>  (5) 
-11.061

>  <name>  (5) 
4

>  <ligand_id>  (5) 
4

>  <original_smiles>  (5) 
[H]c1c([H])c([H])c2c(c1[H])C([H])([H])C([H])([H])C([H])([H])C2([H])N([H])C(=O)C1([H])N(C(=O)C([H])(N([H])C(=O)C([H])(N([H])C([H])([H])[H])C([H])([H])[H])C(C([H])([H])[H])(C([H])([H])[H])C([H])([H])[H])C([H])([H])c2c([H])c(OC([H])([H])C([H])(C([H])(C([H])([H])[N+]([H])([H])[H])C([H])([H])[N+]([H])(C([H])([H])C3([H])C([H])([H])C([H])([H])C([H])([H])C([H])([H])C3([H])[H])C([H])([H])C([H])(C([H])([H])C(=O)N3C([H])([H])C([H])([H])C([H])([H])C([H])(n4nc(-c5c([H])c([H])c(Oc6c([H])c([H])c(F)c([H])c6F)c([H])c5[H])c(C(=O)N([H])[H])c4N([H])[H])C3([H])[H])C([H])(C([H])([H])C([H])([H])[H])[N+]([H])([H])[H])[N+]([H])([H])[H])c([H])c([H])c2C1([H])[H]

>  <smiles>  (5) 
[H]c1c([H])c([H])c2c(c1[H])C([H])([H])C([H])([H])C([H])([H])C2([H])N([H])C(=O)C1([H])N(C(=O)C([H])(N([H])C(=O)C([H])(N([H])C([H])([H])[H])C([H])([H])[H])C(C([H])([H])[H])(C([H])([H])[H])C([H])([H])[H])C([H])([H])c2c([H])c(OC([H])([H])C([H])(C([H])(C([H])([H])[N+]([H])([H])[H])C([H])([H])[N+]([H])(C([H])([H])C3([H])C([H])([H])C([H])([H])C([H])([H])C([H])([H])C3([H])[H])C([H])([H])C([H])(C([H])([H])C(=O)N3C([H])([H])C([H])([H])C([H])([H])C([H])(n4nc(-c5c([H])c([H])c(Oc6c([H])c([H])c(F)c([H])c6F)c([H])c5[H])c(C(=O)N([H])[H])c4N([H])[H])C3([H])[H])C([H])(C([H])([H])C([H])([H])[H])[N+]([H])([H])[H])[N+]([H])([H])[H])c([H])c([H])c2C1([H])[H]

$$$$
5:0:0
     RDKit          3D

100109  0  0  1  0  0  0  0  0999 V2000
  -28.9980  -20.6970   20.6550 C   0  0  0  0  0  2  0  0  0  0  0  0
  -28.7890  -22.1520   19.9840 N   0  0  1  0  0  4  0  0  0  0  0  0
  -29.7290  -22.4290   19.7290 H   0  0  0  0  0  0  0  0  0  0  0  0
  -28.0120  -22.1070   18.7060 C   0  0  0  0  0  2  0  0  0  0  0  0
  -26.6460  -21.3870   18.7960 C   0  0  0  0  0  2  0  0  0  0  0  0
  -24.4670  -20.9120   17.5230 C   0  0  0  0  0  1  0  0  0  0  0  0
  -25.9300  -21.3600   17.4360 C   0  0  0  0  0  2  0  0  0  0  0  0
  -28.2340  -23.4040   20.7880 C   0  0  0  0  0  2  0  0  0  0  0  0
  -28.7600  -25.0120   20.7180 C   0  0  0  0  0  2  0  0  0  0  0  0
  -28.4440  -26.3010   19.9200 O   0  0  0  0  0  0  0  0  0  0  0  0
  -24.6190  -31.7850   23.1040 C   0  0  0  0  0  0  0  0  0  0  0  0
  -27.3250  -27.1860   20.0500 C   0  0  0  0  0  0  0  0  0  0  0  0
  -23.4640  -30.3890   21.4320 C   0  0  0  0  0  3  0  0  0  0  0  0
  -24.9590  -28.8610   20.0080 C   0  0  0  0  0  0  0  0  0  0  0  0
  -26.0090  -30.7200   21.2870 C   0  0  0  0  0  2  0  0  0  0  0  0
  -26.1210  -29.3340   20.6340 C   0  0  0  0  0  0  0  0  0  0  0  0
  -27.3080  -28.5150   20.6330 C   0  0  0  0  0  3  0  0  0  0  0  0
  -26.1400  -26.8050   19.3900 C   0  0  0  0  0  3  0  0  0  0  0  0
  -24.9800  -27.6110   19.3690 C   0  0  0  0  0  3  0  0  0  0  0  0
  -23.7150  -29.7350   20.0460 C   0  0  0  0  0  2  0  0  0  0  0  0
  -24.7170  -30.9860   21.9980 N   0  0  0  0  0  0  0  0  0  0  0  0
  -23.5230  -32.0340   23.6290 O   0  0  0  0  0  0  0  0  0  0  0  0
  -22.8030  -29.3500   22.3730 C   0  0  0  0  0  0  0  0  0  0  0  0
  -21.4770  -29.1640   22.2440 N   0  0  0  0  0  0  0  0  0  0  0  0
  -23.4850  -28.7120   23.1800 O   0  0  0  0  0  0  0  0  0  0  0  0
  -20.9830  -29.7330   21.5710 H   0  0  0  0  0  0  0  0  0  0  0  0
  -18.1070  -27.9340   22.7480 C   0  0  0  0  0  0  0  0  0  0  0  0
  -20.6680  -28.1980   22.9940 C   0  0  0  0  0  3  0  0  0  0  0  0
  -20.7670  -26.7850   22.3720 C   0  0  0  0  0  2  0  0  0  0  0  0
  -19.6540  -26.4920   21.3610 C   0  0  0  0  0  2  0  0  0  0  0  0
  -18.2810  -26.6100   22.0260 C   0  0  0  0  0  2  0  0  0  0  0  0
  -19.2280  -28.6880   23.1900 C   0  0  0  0  0  0  0  0  0  0  0  0
  -19.0110  -29.9280   23.8270 C   0  0  0  0  0  3  0  0  0  0  0  0
  -17.7050  -30.4160   24.0280 C   0  0  0  0  0  3  0  0  0  0  0  0
  -16.5990  -29.6590   23.6010 C   0  0  0  0  0  3  0  0  0  0  0  0
  -16.8010  -28.4200   22.9680 C   0  0  0  0  0  3  0  0  0  0  0  0
  -25.8770  -32.4390   23.7520 C   0  0  0  0  0  3  0  0  0  0  0  0
  -26.3850  -31.6670   25.0320 C   0  0  1  0  0  0  0  0  0  0  0  0
  -25.2800  -31.4020   26.0820 C   0  0  0  0  0  1  0  0  0  0  0  0
  -26.9950  -30.3010   24.6410 C   0  0  0  0  0  1  0  0  0  0  0  0
  -27.5160  -32.4740   25.7150 C   0  0  0  0  0  1  0  0  0  0  0  0
  -25.5350  -33.8290   24.0930 N   0  0  0  0  0  0  0  0  0  0  0  0
  -25.8580  -34.8990   23.3540 C   0  0  0  0  0  0  0  0  0  0  0  0
  -26.5460  -34.8200   22.3310 O   0  0  0  0  0  0  0  0  0  0  0  0
  -24.9250  -33.9640   24.8860 H   0  0  0  0  0  0  0  0  0  0  0  0
  -24.1170  -36.6780   22.9840 C   0  0  0  0  0  1  0  0  0  0  0  0
  -25.3420  -36.2740   23.8200 C   0  0  0  0  0  3  0  0  0  0  0  0
  -27.4380  -37.1800   24.7250 C   0  0  0  0  0  1  0  0  0  0  0  0
  -26.3630  -37.3430   23.7500 N   0  0  0  0  0  0  0  0  0  0  0  0
  -25.9400  -38.2550   23.8970 H   0  0  0  0  0  0  0  0  0  0  0  0
  -29.6060  -19.3340   19.8130 C   0  0  0  0  0  3  0  0  0  0  0  0
  -30.5100  -14.9980   20.3600 C   0  0  0  0  0  0  0  0  0  0  0  0
  -30.3720  -12.6360   19.4520 C   0  0  0  0  0  2  0  0  0  0  0  0
  -29.4360  -12.4810   18.2350 C   0  0  0  0  0  2  0  0  0  0  0  0
  -27.9770  -12.2830   18.6860 C   0  0  0  0  0  2  0  0  0  0  0  0
  -27.5570  -13.2290   19.8430 C   0  0  0  0  0  3  0  0  0  0  0  0
  -28.6250  -13.3430   20.9450 C   0  0  0  0  0  2  0  0  0  0  0  0
  -29.8530  -13.7700   20.2710 N   0  0  0  0  0  0  0  0  0  0  0  0
  -31.7370  -14.8880   20.4140 O   0  0  0  0  0  0  0  0  0  0  0  0
  -32.0750  -17.2110   18.6600 C   0  0  0  0  0  2  0  0  0  0  0  0
  -30.7970  -16.8790   17.8240 C   0  0  0  0  0  2  0  0  0  0  0  0
  -31.7920  -17.7790   20.0940 C   0  0  0  0  0  2  0  0  0  0  0  0
  -29.5660  -16.3710   18.6320 C   0  0  0  0  0  2  0  0  0  0  0  0
  -30.2690  -17.8110   20.4330 C   0  0  0  0  0  3  0  0  0  0  0  0
  -29.8740  -16.2820   20.0630 N   0  0  0  0  0  0  0  0  0  0  0  0
  -25.1960  -13.7630   20.6550 C   0  0  0  0  0  0  0  0  0  0  0  0
  -24.1440  -12.9700   21.0210 C   0  0  0  0  0  0  0  0  0  0  0  0
  -24.6210  -11.6230   20.9510 C   0  0  0  0  0  0  0  0  0  0  0  0
  -26.2410  -12.9010   20.3740 N   0  0  0  0  0  0  0  0  0  0  0  0
  -25.9080  -11.6080   20.6220 N   0  0  0  0  0  0  0  0  0  0  0  0
  -23.9070  -10.3510   21.1170 C   0  0  0  0  0  0  0  0  0  0  0  0
  -24.3250   -9.3870   22.0590 C   0  0  0  0  0  3  0  0  0  0  0  0
  -23.6100   -8.1800   22.2150 C   0  0  0  0  0  3  0  0  0  0  0  0
  -22.4600   -7.9290   21.4280 C   0  0  0  0  0  0  0  0  0  0  0  0
  -22.0620   -8.8820   20.4740 C   0  0  0  0  0  3  0  0  0  0  0  0
  -22.7790  -10.0800   20.3170 C   0  0  0  0  0  3  0  0  0  0  0  0
  -21.7160   -6.7760   21.4930 O   0  0  0  0  0  0  0  0  0  0  0  0
  -21.6090   -6.0510   22.6530 C   0  0  0  0  0  0  0  0  0  0  0  0
  -21.0450   -6.6020   23.8240 C   0  0  0  0  0  3  0  0  0  0  0  0
  -20.8890   -5.8020   24.9740 C   0  0  0  0  0  3  0  0  0  0  0  0
  -21.2880   -4.4510   24.9540 C   0  0  0  0  0  0  0  0  0  0  0  0
  -21.8440   -3.9010   23.7860 C   0  0  0  0  0  3  0  0  0  0  0  0
  -22.0010   -4.6980   22.6380 C   0  0  0  0  0  0  0  0  0  0  0  0
  -22.5180   -4.1560   21.5100 F   0  0  0  0  0  0  0  0  0  0  0  0
  -21.1330   -3.6800   26.0560 F   0  0  0  0  0  0  0  0  0  0  0  0
  -22.7470  -13.4280   21.3200 C   0  0  0  0  0  0  0  0  0  0  0  0
  -22.0350  -12.7060   22.1760 N   0  0  0  0  0  0  0  0  0  0  0  0
  -22.2970  -14.4620   20.8280 O   0  0  0  0  0  0  0  0  0  0  0  0
  -22.4140  -11.8690   22.5960 H   0  0  0  0  0  0  0  0  0  0  0  0
  -21.0990  -12.9970   22.4200 H   0  0  0  0  0  0  0  0  0  0  0  0
  -25.3500  -15.1400   20.5090 N   0  0  0  0  0  0  0  0  0  0  0  0
  -24.5850  -15.7910   20.6510 H   0  0  0  0  0  0  0  0  0  0  0  0
  -26.2020  -15.5890   20.1990 H   0  0  0  0  0  0  0  0  0  0  0  0
  -30.5520  -20.0030   18.7400 C   0  0  0  0  0  2  0  0  0  0  0  0
  -33.8730  -22.5030   20.0890 C   0  0  0  0  0  3  0  0  0  0  0  0
  -33.4640  -21.4110   20.8750 C   0  0  0  0  0  3  0  0  0  0  0  0
  -33.2130  -22.7800   18.8770 C   0  0  0  0  0  3  0  0  0  0  0  0
  -32.3990  -20.5980   20.4500 C   0  0  0  0  0  3  0  0  0  0  0  0
  -32.1400  -21.9670   18.4550 C   0  0  0  0  0  3  0  0  0  0  0  0
  -31.7150  -20.8730   19.2390 C   0  0  0  0  0  0  0  0  0  0  0  0
  2  1  1  0
  2  8  1  0
  2  3  1  6
  4  5  1  0
  4  2  1  0
  7  6  1  0
  7  5  1  0
  9  8  1  0
 10 12  1  0
 10  9  1  0
 11 22  2  0
 12 17  1  0
 13 21  1  0
 13 23  1  0
 14 20  1  0
 14 16  1  0
 15 21  1  0
 16 15  1  0
 17 16  2  0
 18 12  2  0
 19 18  1  0
 19 14  2  0
 20 13  1  0
 21 11  1  0
 23 25  2  0
 24 23  1  0
 26 24  1  0
 27 36  2  0
 27 32  1  0
 28 24  1  0
 28 32  1  0
 29 28  1  0
 30 31  1  0
 30 29  1  0
 31 27  1  0
 32 33  2  0
 33 34  1  0
 35 34  2  0
 36 35  1  0
 37 11  1  0
 37 42  1  0
 37 38  1  0
 38 41  1  1
 38 39  1  0
 40 38  1  0
 42 45  1  0
 43 47  1  0
 43 42  1  0
 44 43  2  0
 47 46  1  0
 49 47  1  0
 49 50  1  0
 49 48  1  0
 51 94  1  0
 51  1  1  0
 52 59  2  0
 53 58  1  0
 54 55  1  0
 54 53  1  0
 56 55  1  0
 56 69  1  0
 56 57  1  0
 58 52  1  0
 58 57  1  0
 60 62  1  0
 61 63  1  0
 61 60  1  0
 62 64  1  0
 63 65  1  0
 64 51  1  0
 65 52  1  0
 65 64  1  0
 66 67  2  0
 67 86  1  0
 68 67  1  0
 68 71  1  0
 69 70  1  0
 69 66  1  0
 70 68  2  0
 71 72  1  0
 72 73  2  0
 74 77  1  0
 74 73  1  0
 75 74  2  0
 76 75  1  0
 76 71  2  0
 77 78  1  0
 78 79  1  0
 79 80  2  0
 81 80  1  0
 81 85  1  0
 82 81  2  0
 83 78  2  0
 83 82  1  0
 84 83  1  0
 86 87  1  0
 87 90  1  0
 87 89  1  0
 88 86  2  0
 91 92  1  0
 91 66  1  0
 93 91  1  0
 94100  1  0
 95 96  1  0
 97 95  2  0
 98 96  2  0
 99 97  1  0
 99100  2  0
100 98  1  0
M  ISO  4   9 101  10 101  52 100  65 100
M  END
>  <TORSDO>  (6) 
F 25

>  <SCORE>  (6) 
-12.550

>  <name>  (6) 
5

>  <ligand_id>  (6) 
5

>  <original_smiles>  (6) 
[H]c1c([H])c([H])c(C([H])([H])C([H])(C2([H])N(C(=O)N3C([H])([H])C([H])([H])C([H])([H])C([H])(n4nc(-c5c([H])c([H])c(Oc6c([H])c([H])c(F)c([H])c6F)c([H])c5[H])c(C(=O)N([H])[H])c4N([H])[H])C3([H])[H])C([H])([H])C([H])([H])C([H])([H])C2([H])[H])C([H])([H])[N+]([H])(C([H])([H])C([H])([H])Oc2c([H])c([H])c3c(c2[H])C([H])([H])N(C(=O)C([H])(N([H])C(=O)C([H])(N([H])C([H])([H])[H])C([H])([H])[H])C(C([H])([H])[H])(C([H])([H])[H])C([H])([H])[H])C([H])(C(=O)N([H])C2([H])c4c([H])c([H])c([H])c([H])c4C([H])([H])C([H])([H])C2([H])[H])C3([H])[H])C([H])([H])C([H])([H])C([H])([H])C([H])([H])[H])c([H])c1[H]

>  <smiles>  (6) 
[H]c1c([H])c([H])c(C([H])([H])C([H])(C2([H])N(C(=O)N3C([H])([H])C([H])([H])C([H])([H])C([H])(n4nc(-c5c([H])c([H])c(Oc6c([H])c([H])c(F)c([H])c6F)c([H])c5[H])c(C(=O)N([H])[H])c4N([H])[H])C3([H])[H])C([H])([H])C([H])([H])C([H])([H])C2([H])[H])C([H])([H])[N+]([H])(C([H])([H])C([H])([H])Oc2c([H])c([H])c3c(c2[H])C([H])([H])N(C(=O)C([H])(N([H])C(=O)C([H])(N([H])C([H])([H])[H])C([H])([H])[H])C(C([H])([H])[H])(C([H])([H])[H])C([H])([H])[H])C([H])(C(=O)N([H])C2([H])c4c([H])c([H])c([H])c([H])c4C([H])([H])C([H])([H])C2([H])[H])C3([H])[H])C([H])([H])C([H])([H])C([H])([H])C([H])([H])[H])c([H])c1[H]

$$$$
6:0:0
     RDKit          3D

 92100  0  0  1  0  0  0  0  0999 V2000
  -28.7790  -21.1860   20.4400 C   0  0  0  0  0  2  0  0  0  0  0  0
  -29.6760  -19.6930   20.0310 C   0  0  0  0  0  3  0  0  0  0  0  0
  -33.8620  -20.8660   20.1320 C   0  0  0  0  0  3  0  0  0  0  0  0
  -33.2970  -20.4090   18.9240 C   0  0  0  0  0  3  0  0  0  0  0  0
  -33.0640  -20.9590   21.2880 C   0  0  0  0  0  3  0  0  0  0  0  0
  -31.9400  -20.0270   18.8730 C   0  0  0  0  0  3  0  0  0  0  0  0
  -31.7110  -20.5790   21.2390 C   0  0  0  0  0  3  0  0  0  0  0  0
  -31.1420  -20.1070   20.0360 C   0  0  0  0  0  0  0  0  0  0  0  0
  -29.6670  -18.0620   20.7580 C   0  0  0  0  0  2  0  0  0  0  0  0
  -30.4360  -15.2430   20.2140 C   0  0  0  0  0  0  0  0  0  0  0  0
  -30.3820  -12.8330   19.2670 C   0  0  0  0  0  2  0  0  0  0  0  0
  -29.4240  -12.6360   18.0690 C   0  0  0  0  0  2  0  0  0  0  0  0
  -27.9850  -12.3680   18.5440 C   0  0  0  0  0  2  0  0  0  0  0  0
  -27.5610  -13.3240   19.6840 C   0  0  0  0  0  3  0  0  0  0  0  0
  -28.6380  -13.4550   20.7790 C   0  0  0  0  0  2  0  0  0  0  0  0
  -29.8520  -13.9560   20.1130 N   0  0  0  0  0  0  0  0  0  0  0  0
  -31.6670  -15.2450   20.0900 O   0  0  0  0  0  0  0  0  0  0  0  0
  -29.6520  -16.4890   20.2260 N   0  0  0  0  0  0  0  0  0  0  0  0
  -28.6950  -16.2310   20.0400 H   0  0  0  0  0  0  0  0  0  0  0  0
  -25.1980  -13.8720   20.4800 C   0  0  0  0  0  0  0  0  0  0  0  0
  -24.1460  -13.0880   20.8590 C   0  0  0  0  0  0  0  0  0  0  0  0
  -24.6220  -11.7410   20.8200 C   0  0  0  0  0  0  0  0  0  0  0  0
  -26.2440  -13.0040   20.2210 N   0  0  0  0  0  0  0  0  0  0  0  0
  -25.9100  -11.7160   20.4960 N   0  0  0  0  0  0  0  0  0  0  0  0
  -23.9050  -10.4730   21.0140 C   0  0  0  0  0  0  0  0  0  0  0  0
  -24.3480   -9.5070   21.9440 C   0  0  0  0  0  3  0  0  0  0  0  0
  -23.6280   -8.3070   22.1280 C   0  0  0  0  0  3  0  0  0  0  0  0
  -22.4500   -8.0640   21.3810 C   0  0  0  0  0  0  0  0  0  0  0  0
  -22.0260   -9.0180   20.4400 C   0  0  0  0  0  3  0  0  0  0  0  0
  -22.7470  -10.2100   20.2550 C   0  0  0  0  0  3  0  0  0  0  0  0
  -21.7010   -6.9150   21.4750 O   0  0  0  0  0  0  0  0  0  0  0  0
  -21.6610   -6.1740   22.6280 C   0  0  0  0  0  0  0  0  0  0  0  0
  -21.2380   -6.7270   23.8560 C   0  0  0  0  0  3  0  0  0  0  0  0
  -21.1460   -5.9120   25.0010 C   0  0  0  0  0  3  0  0  0  0  0  0
  -21.4670   -4.5440   24.9200 C   0  0  0  0  0  0  0  0  0  0  0  0
  -21.8840   -3.9900   23.6980 C   0  0  0  0  0  3  0  0  0  0  0  0
  -21.9780   -4.8020   22.5540 C   0  0  0  0  0  0  0  0  0  0  0  0
  -22.3590   -4.2580   21.3740 F   0  0  0  0  0  0  0  0  0  0  0  0
  -21.3720   -3.7600   26.0190 F   0  0  0  0  0  0  0  0  0  0  0  0
  -22.7490  -13.5550   21.1440 C   0  0  0  0  0  0  0  0  0  0  0  0
  -22.0330  -12.8510   22.0130 N   0  0  0  0  0  0  0  0  0  0  0  0
  -22.3010  -14.5790   20.6290 O   0  0  0  0  0  0  0  0  0  0  0  0
  -22.4080  -12.0210   22.4470 H   0  0  0  0  0  0  0  0  0  0  0  0
  -21.0980  -13.1490   22.2540 H   0  0  0  0  0  0  0  0  0  0  0  0
  -25.3490  -15.2450   20.3050 N   0  0  0  0  0  0  0  0  0  0  0  0
  -24.5790  -15.8970   20.4340 H   0  0  0  0  0  0  0  0  0  0  0  0
  -26.1980  -15.6980   19.9930 H   0  0  0  0  0  0  0  0  0  0  0  0
  -29.0760  -22.9290   20.1760 C   0  0  0  0  0  3  0  0  0  0  0  0
  -28.8850  -22.7130   17.6140 C   0  0  0  0  0  1  0  0  0  0  0  0
  -29.7620  -23.1080   18.8090 C   0  0  0  0  0  2  0  0  0  0  0  0
  -28.0210  -24.3480   20.3730 C   0  0  0  0  0  2  0  0  0  0  0  0
  -28.2550  -25.9580   20.2890 O   0  0  0  0  0  0  0  0  0  0  0  0
  -24.6320  -31.8600   23.2160 C   0  0  0  0  0  0  0  0  0  0  0  0
  -27.2140  -27.0090   20.2450 C   0  0  0  0  0  0  0  0  0  0  0  0
  -23.4410  -30.4520   21.5820 C   0  0  0  0  0  3  0  0  0  0  0  0
  -24.8980  -28.8440   20.1810 C   0  0  0  0  0  0  0  0  0  0  0  0
  -26.0050  -30.6810   21.4380 C   0  0  0  0  0  2  0  0  0  0  0  0
  -26.0820  -29.2710   20.7920 C   0  0  0  0  0  0  0  0  0  0  0  0
  -27.2380  -28.3760   20.7950 C   0  0  0  0  0  3  0  0  0  0  0  0
  -25.9960  -26.7160   19.5920 C   0  0  0  0  0  3  0  0  0  0  0  0
  -24.8730  -27.5840   19.5630 C   0  0  0  0  0  3  0  0  0  0  0  0
  -23.6750  -29.7570   20.2130 C   0  0  0  0  0  2  0  0  0  0  0  0
  -24.7120  -31.0230   22.1320 N   0  0  0  0  0  0  0  0  0  0  0  0
  -23.5420  -32.1530   23.7320 O   0  0  0  0  0  0  0  0  0  0  0  0
  -22.7460  -29.4590   22.5530 C   0  0  0  0  0  0  0  0  0  0  0  0
  -21.4170  -29.2980   22.4300 N   0  0  0  0  0  0  0  0  0  0  0  0
  -23.4100  -28.8330   23.3840 O   0  0  0  0  0  0  0  0  0  0  0  0
  -20.9340  -29.8590   21.7410 H   0  0  0  0  0  0  0  0  0  0  0  0
  -18.0290  -28.1110   22.9480 C   0  0  0  0  0  0  0  0  0  0  0  0
  -20.5910  -28.3670   23.2070 C   0  0  0  0  0  3  0  0  0  0  0  0
  -20.6830  -26.9300   22.6390 C   0  0  0  0  0  2  0  0  0  0  0  0
  -19.5780  -26.6080   21.6290 C   0  0  0  0  0  2  0  0  0  0  0  0
  -18.1980  -26.7590   22.2770 C   0  0  0  0  0  2  0  0  0  0  0  0
  -19.1520  -28.8720   23.3700 C   0  0  0  0  0  0  0  0  0  0  0  0
  -18.9380  -30.1330   23.9650 C   0  0  0  0  0  3  0  0  0  0  0  0
  -17.6350  -30.6360   24.1390 C   0  0  0  0  0  3  0  0  0  0  0  0
  -16.5260  -29.8720   23.7340 C   0  0  0  0  0  3  0  0  0  0  0  0
  -16.7240  -28.6120   23.1420 C   0  0  0  0  0  3  0  0  0  0  0  0
  -25.9000  -32.5070   23.8470 C   0  0  0  0  0  3  0  0  0  0  0  0
  -25.5790  -33.9070   24.1750 N   0  0  0  0  0  0  0  0  0  0  0  0
  -25.9160  -34.9670   23.4280 C   0  0  0  0  0  0  0  0  0  0  0  0
  -26.5870  -34.8690   22.3980 O   0  0  0  0  0  0  0  0  0  0  0  0
  -24.9820  -34.0560   24.9740 H   0  0  0  0  0  0  0  0  0  0  0  0
  -24.1860  -36.7650   23.0870 C   0  0  0  0  0  1  0  0  0  0  0  0
  -25.4270  -36.3530   23.8960 C   0  0  0  0  0  3  0  0  0  0  0  0
  -27.5640  -37.2320   24.7300 C   0  0  0  0  0  1  0  0  0  0  0  0
  -26.4590  -37.4090   23.7920 N   0  0  0  0  0  0  0  0  0  0  0  0
  -26.0520  -38.3280   23.9520 H   0  0  0  0  0  0  0  0  0  0  0  0
  -26.4080  -31.7490   25.1360 C   0  0  1  0  0  0  0  0  0  0  0  0
  -25.3070  -31.5210   26.1980 C   0  0  0  0  0  1  0  0  0  0  0  0
  -26.9960  -30.3660   24.7680 C   0  0  0  0  0  1  0  0  0  0  0  0
  -27.5560  -32.5480   25.7940 C   0  0  0  0  0  1  0  0  0  0  0  0
  2  8  1  0
  2  1  1  0
  2  9  1  0
  3  5  1  0
  4  3  2  0
  6  4  1  0
  6  8  2  0
  7  5  2  0
  8  7  1  0
 10 18  1  0
 11 16  1  0
 12 13  1  0
 12 11  1  0
 14 13  1  0
 14 23  1  0
 14 15  1  0
 16 10  1  0
 16 15  1  0
 17 10  2  0
 18  9  1  0
 19 18  1  0
 20 21  2  0
 21 40  1  0
 22 21  1  0
 22 25  1  0
 23 20  1  0
 23 24  1  0
 24 22  2  0
 25 26  1  0
 26 27  2  0
 28 31  1  0
 28 27  1  0
 29 28  2  0
 30 29  1  0
 30 25  2  0
 31 32  1  0
 32 33  1  0
 33 34  2  0
 35 34  1  0
 35 39  1  0
 36 35  2  0
 37 32  2  0
 37 36  1  0
 38 37  1  0
 40 41  1  0
 41 44  1  0
 41 43  1  0
 42 40  2  0
 45 46  1  0
 45 20  1  0
 47 45  1  0
 48 50  1  0
 48 51  1  0
 48  1  1  0
 49 50  1  0
 52 51  1  0
 53 64  2  0
 54 52  1  0
 54 59  1  0
 55 63  1  0
 55 65  1  0
 56 62  1  0
 56 58  1  0
 57 63  1  0
 58 59  2  0
 58 57  1  0
 60 54  2  0
 61 60  1  0
 61 56  2  0
 62 55  1  0
 63 53  1  0
 65 67  2  0
 66 65  1  0
 68 66  1  0
 69 78  2  0
 69 74  1  0
 70 66  1  0
 70 74  1  0
 71 70  1  0
 72 73  1  0
 72 71  1  0
 73 69  1  0
 74 75  2  0
 75 76  1  0
 77 76  2  0
 78 77  1  0
 79 53  1  0
 79 80  1  0
 79 89  1  0
 80 83  1  0
 81 85  1  0
 81 80  1  0
 82 81  2  0
 85 84  1  0
 87 85  1  0
 87 88  1  0
 87 86  1  0
 89 92  1  1
 89 90  1  0
 91 89  1  0
M  ISO  4  10 100  18 100  51 101  52 101
M  END
>  <TORSDO>  (7) 
F 22

>  <SCORE>  (7) 
-15.622

>  <name>  (7) 
6

>  <ligand_id>  (7) 
6

>  <original_smiles>  (7) 
[H]c1c([H])c([H])c(C([H])(C([H])([H])N([H])C(=O)N2C([H])([H])C([H])([H])C([H])([H])C([H])(n3nc(-c4c([H])c([H])c(Oc5c([H])c([H])c(F)c([H])c5F)c([H])c4[H])c(C(=O)N([H])[H])c3N([H])[H])C2([H])[H])C([H])([H])C([H])(C([H])([H])Oc2c([H])c([H])c3c(c2[H])C([H])([H])N(C(=O)C([H])(N([H])C(=O)C([H])(N([H])C([H])([H])[H])C([H])([H])[H])C(C([H])([H])[H])(C([H])([H])[H])C([H])([H])[H])C([H])(C(=O)N([H])C2([H])c4c([H])c([H])c([H])c([H])c4C([H])([H])C([H])([H])C2([H])[H])C3([H])[H])C([H])([H])C([H])([H])[H])c([H])c1[H]

>  <smiles>  (7) 
[H]c1c([H])c([H])c(C([H])(C([H])([H])N([H])C(=O)N2C([H])([H])C([H])([H])C([H])([H])C([H])(n3nc(-c4c([H])c([H])c(Oc5c([H])c([H])c(F)c([H])c5F)c([H])c4[H])c(C(=O)N([H])[H])c3N([H])[H])C2([H])[H])C([H])([H])C([H])(C([H])([H])Oc2c([H])c([H])c3c(c2[H])C([H])([H])N(C(=O)C([H])(N([H])C(=O)C([H])(N([H])C([H])([H])[H])C([H])([H])[H])C(C([H])([H])[H])(C([H])([H])[H])C([H])([H])[H])C([H])(C(=O)N([H])C2([H])c4c([H])c([H])c([H])c([H])c4C([H])([H])C([H])([H])C2([H])[H])C3([H])[H])C([H])([H])C([H])([H])[H])c([H])c1[H]

$$$$
7:0:0
     RDKit          3D

 85 89  0  0  1  0  0  0  0  0999 V2000
  -29.0120  -21.5490   20.4470 C   0  0  0  0  0  2  0  0  0  0  0  0
  -29.8260  -21.7440   21.3540 O   0  0  0  0  0  0  0  0  0  0  0  0
  -30.1510  -16.1430   20.2330 C   0  0  0  0  0  0  0  0  0  0  0  0
  -30.4260  -13.4850   19.4750 C   0  0  0  0  0  2  0  0  0  0  0  0
  -29.5980  -12.8560   18.3000 C   0  0  0  0  0  2  0  0  0  0  0  0
  -28.2120  -12.3880   18.7630 C   0  0  0  0  0  2  0  0  0  0  0  0
  -27.6150  -13.4130   19.7420 C   0  0  0  0  0  3  0  0  0  0  0  0
  -28.6040  -13.9120   20.8380 C   0  0  0  0  0  2  0  0  0  0  0  0
  -29.7070  -14.6870   20.1690 N   0  0  0  0  0  0  0  0  0  0  0  0
  -31.3980  -16.0340   20.1150 O   0  0  0  0  0  0  0  0  0  0  0  0
  -27.0060  -18.1710   19.5360 C   0  0  0  0  0  2  0  0  0  0  0  0
  -27.5140  -19.4670   20.0680 C   0  0  0  0  0  2  0  0  0  0  0  0
  -27.9520  -17.0920   20.0260 C   0  0  0  0  0  2  0  0  0  0  0  0
  -29.0330  -19.4950   19.8760 C   0  0  0  0  0  1  0  0  0  0  0  0
  -29.3210  -17.5930   20.2220 N   0  0  0  0  0  2  0  0  0  0  0  0
  -25.2330  -13.8940   20.4630 C   0  0  0  0  0  0  0  0  0  0  0  0
  -24.1810  -13.1050   20.8180 C   0  0  0  0  0  0  0  0  0  0  0  0
  -24.6740  -11.7640   20.8080 C   0  0  0  0  0  0  0  0  0  0  0  0
  -26.3010  -13.0440   20.2520 N   0  0  0  0  0  0  0  0  0  0  0  0
  -25.9770  -11.7510   20.5220 N   0  0  0  0  0  0  0  0  0  0  0  0
  -23.9580  -10.4970   20.9940 C   0  0  0  0  0  0  0  0  0  0  0  0
  -24.3730   -9.5460   21.9520 C   0  0  0  0  0  3  0  0  0  0  0  0
  -23.6490   -8.3480   22.1310 C   0  0  0  0  0  3  0  0  0  0  0  0
  -22.4970   -8.0910   21.3510 C   0  0  0  0  0  0  0  0  0  0  0  0
  -22.1000   -9.0300   20.3830 C   0  0  0  0  0  3  0  0  0  0  0  0
  -22.8240  -10.2200   20.2030 C   0  0  0  0  0  3  0  0  0  0  0  0
  -21.7480   -6.9420   21.4370 O   0  0  0  0  0  0  0  0  0  0  0  0
  -21.6680   -6.2210   22.6020 C   0  0  0  0  0  0  0  0  0  0  0  0
  -21.1710   -6.7870   23.7960 C   0  0  0  0  0  3  0  0  0  0  0  0
  -21.0420   -5.9910   24.9520 C   0  0  0  0  0  3  0  0  0  0  0  0
  -21.3980   -4.6300   24.9140 C   0  0  0  0  0  0  0  0  0  0  0  0
  -21.8880   -4.0630   23.7240 C   0  0  0  0  0  3  0  0  0  0  0  0
  -22.0200   -4.8560   22.5700 C   0  0  0  0  0  0  0  0  0  0  0  0
  -22.4730   -4.3000   21.4210 F   0  0  0  0  0  0  0  0  0  0  0  0
  -21.2670   -3.8630   26.0210 F   0  0  0  0  0  0  0  0  0  0  0  0
  -22.7730  -13.5690   21.0450 C   0  0  0  0  0  0  0  0  0  0  0  0
  -22.0360  -12.8870   21.9140 N   0  0  0  0  0  0  0  0  0  0  0  0
  -22.3350  -14.5760   20.4900 O   0  0  0  0  0  0  0  0  0  0  0  0
  -22.4050  -12.0740   22.3860 H   0  0  0  0  0  0  0  0  0  0  0  0
  -21.0910  -13.1830   22.1110 H   0  0  0  0  0  0  0  0  0  0  0  0
  -25.3530  -15.2620   20.2630 N   0  0  0  0  0  0  0  0  0  0  0  0
  -24.5520  -15.8790   20.3360 H   0  0  0  0  0  0  0  0  0  0  0  0
  -26.1760  -15.7180   19.8960 H   0  0  0  0  0  0  0  0  0  0  0  0
  -28.1110  -23.2970   20.0130 C   0  0  0  0  0 15  0  0  0  0  0  0
  -28.1780  -25.1680   20.3430 O   0  0  0  0  0  1  0  0  0  0  0  0
  -24.6820  -31.8150   23.1690 C   0  0  0  0  0  0  0  0  0  0  0  0
  -27.2380  -26.5020   20.2520 C   0  0  0  0  0  0  0  0  0  0  0  0
  -23.5180  -30.3960   21.5380 C   0  0  0  0  0  3  0  0  0  0  0  0
  -24.9840  -28.6920   20.1600 C   0  0  0  0  0  0  0  0  0  0  0  0
  -26.1080  -30.4700   21.4630 C   0  0  0  0  0  2  0  0  0  0  0  0
  -26.1780  -29.0050   20.8160 C   0  0  0  0  0  0  0  0  0  0  0  0
  -27.2740  -27.9470   20.8250 C   0  0  0  0  0  3  0  0  0  0  0  0
  -26.0050  -26.4690   19.5290 C   0  0  0  0  0  3  0  0  0  0  0  0
  -24.9520  -27.4520   19.4920 C   0  0  0  0  0  3  0  0  0  0  0  0
  -23.7830  -29.6690   20.1830 C   0  0  0  0  0  2  0  0  0  0  0  0
  -24.7970  -30.9330   22.1080 N   0  0  0  0  0  0  0  0  0  0  0  0
  -23.5800  -32.1270   23.6570 O   0  0  0  0  0  0  0  0  0  0  0  0
  -22.7740  -29.4480   22.5190 C   0  0  0  0  0  0  0  0  0  0  0  0
  -21.4380  -29.3110   22.3950 N   0  0  0  0  0  0  0  0  0  0  0  0
  -23.4150  -28.8290   23.3710 O   0  0  0  0  0  0  0  0  0  0  0  0
  -20.9660  -29.8590   21.6890 H   0  0  0  0  0  0  0  0  0  0  0  0
  -18.0380  -28.1210   22.9260 C   0  0  0  0  0  0  0  0  0  0  0  0
  -20.6020  -28.3830   23.1710 C   0  0  0  0  0  3  0  0  0  0  0  0
  -20.6920  -26.9470   22.6020 C   0  0  0  0  0  2  0  0  0  0  0  0
  -19.5860  -26.6290   21.5910 C   0  0  0  0  0  2  0  0  0  0  0  0
  -18.2070  -26.7750   22.2410 C   0  0  0  0  0  2  0  0  0  0  0  0
  -19.1610  -28.8830   23.3470 C   0  0  0  0  0  0  0  0  0  0  0  0
  -18.9430  -30.1380   23.9560 C   0  0  0  0  0  3  0  0  0  0  0  0
  -17.6390  -30.6330   24.1420 C   0  0  0  0  0  3  0  0  0  0  0  0
  -16.5320  -29.8710   23.7310 C   0  0  0  0  0  3  0  0  0  0  0  0
  -16.7330  -28.6150   23.1290 C   0  0  0  0  0  3  0  0  0  0  0  0
  -25.9280  -32.4860   23.8240 C   0  0  0  0  0  3  0  0  0  0  0  0
  -25.5920  -33.8910   24.1450 N   0  0  0  0  0  0  0  0  0  0  0  0
  -25.9290  -34.9600   23.4100 C   0  0  0  0  0  0  0  0  0  0  0  0
  -26.6070  -34.8670   22.3830 O   0  0  0  0  0  0  0  0  0  0  0  0
  -24.9880  -34.0340   24.9410 H   0  0  0  0  0  0  0  0  0  0  0  0
  -24.2010  -36.7670   23.0810 C   0  0  0  0  0  1  0  0  0  0  0  0
  -25.4450  -36.3490   23.8810 C   0  0  0  0  0  3  0  0  0  0  0  0
  -27.5780  -37.2440   24.7160 C   0  0  0  0  0  1  0  0  0  0  0  0
  -26.4760  -37.4060   23.7710 N   0  0  0  0  0  0  0  0  0  0  0  0
  -26.0680  -38.3260   23.9160 H   0  0  0  0  0  0  0  0  0  0  0  0
  -26.4070  -31.7490   25.1360 C   0  0  1  0  0  0  0  0  0  0  0  0
  -25.2840  -31.5370   26.1800 C   0  0  0  0  0  1  0  0  0  0  0  0
  -27.0010  -30.3610   24.8130 C   0  0  0  0  0  1  0  0  0  0  0  0
  -27.5400  -32.5590   25.8100 C   0  0  0  0  0  1  0  0  0  0  0  0
  1  2  2  0
  4  9  1  0
  5  6  1  0
  5  4  1  0
  7  6  1  0
  7 19  1  0
  7  8  1  0
  9  3  1  0
  9  8  1  0
 10  3  2  0
 11 13  1  0
 11 12  1  0
 13 15  1  0
 14 12  1  0
 15  3  1  0
 16 17  2  0
 17 36  1  0
 18 17  1  0
 18 21  1  0
 19 16  1  0
 19 20  1  0
 20 18  2  0
 21 22  1  0
 22 23  2  0
 24 27  1  0
 24 23  1  0
 25 24  2  0
 26 25  1  0
 26 21  2  0
 27 28  1  0
 28 29  1  0
 29 30  2  0
 31 30  1  0
 31 35  1  0
 32 31  2  0
 33 28  2  0
 33 32  1  0
 34 33  1  0
 36 37  1  0
 37 40  1  0
 37 39  1  0
 38 36  2  0
 41 42  1  0
 41 16  1  0
 43 41  1  0
 46 57  2  0
 47 45  1  0
 47 52  1  0
 48 56  1  0
 48 58  1  0
 49 55  1  0
 49 51  1  0
 50 56  1  0
 51 52  2  0
 51 50  1  0
 53 47  2  0
 54 53  1  0
 54 49  2  0
 55 48  1  0
 56 46  1  0
 58 60  2  0
 59 58  1  0
 61 59  1  0
 62 71  2  0
 62 67  1  0
 63 59  1  0
 63 67  1  0
 64 63  1  0
 65 66  1  0
 65 64  1  0
 66 62  1  0
 67 68  2  0
 68 69  1  0
 70 69  2  0
 71 70  1  0
 72 46  1  0
 72 73  1  0
 72 82  1  0
 73 76  1  0
 74 78  1  0
 74 73  1  0
 75 74  2  0
 78 77  1  0
 80 78  1  0
 80 81  1  0
 80 79  1  0
 82 85  1  1
 82 83  1  0
 84 82  1  0
M  ISO  4   3 100  15 100  44 101  45 101
M  END
>  <TORSDO>  (8) 
F 17

>  <SCORE>  (8) 
-16.299

>  <name>  (8) 
7

>  <ligand_id>  (8) 
7

>  <original_smiles>  (8) 
[H]c1c([H])c([H])c2c(c1[H])C([H])([H])C([H])([H])C([H])([H])C2([H])N([H])C(=O)C1([H])N(C(=O)C([H])(N([H])C(=O)C([H])(N([H])C([H])([H])[H])C([H])([H])[H])C(C([H])([H])[H])(C([H])([H])[H])C([H])([H])[H])C([H])([H])c2c([H])c(OC([H])([H])C(=O)C3([H])N(C(=O)N4C([H])([H])C([H])([H])C([H])([H])C([H])(n5nc(-c6c([H])c([H])c(Oc7c([H])c([H])c(F)c([H])c7F)c([H])c6[H])c(C(=O)N([H])[H])c5N([H])[H])C4([H])[H])C([H])([H])C([H])([H])C3([H])[H])c([H])c([H])c2C1([H])[H]

>  <smiles>  (8) 
[H]c1c([H])c([H])c2c(c1[H])C([H])([H])C([H])([H])C([H])([H])C2([H])N([H])C(=O)C1([H])N(C(=O)C([H])(N([H])C(=O)C([H])(N([H])C([H])([H])[H])C([H])([H])[H])C(C([H])([H])[H])(C([H])([H])[H])C([H])([H])[H])C([H])([H])c2c([H])c(OC([H])([H])C(=O)C3([H])N(C(=O)N4C([H])([H])C([H])([H])C([H])([H])C([H])(n5nc(-c6c([H])c([H])c(Oc7c([H])c([H])c(F)c([H])c7F)c([H])c6[H])c(C(=O)N([H])[H])c5N([H])[H])C4([H])[H])C([H])([H])C([H])([H])C3([H])[H])c([H])c([H])c2C1([H])[H]

$$$$
8:0:0
     RDKit          3D

105115  0  0  1  0  0  0  0  0999 V2000
  -29.8390  -18.5110   20.4140 C   0  0  0  0  0  3  0  0  0  0  0  0
  -30.2280  -22.8260   22.9790 C   0  0  0  0  0  2  0  0  0  0  0  0
  -31.0910  -20.4500   22.7660 C   0  0  0  0  0  2  0  0  0  0  0  0
  -29.3140  -23.8900   22.3630 C   0  0  0  0  0  2  0  0  0  0  0  0
  -31.6810  -20.1500   21.3940 C   0  0  0  0  0  2  0  0  0  0  0  0
  -29.5630  -22.6070   20.1500 C   0  0  0  0  0  2  0  0  0  0  0  0
  -29.9140  -21.3970   22.4910 C   0  0  0  0  0  3  0  0  0  0  0  0
  -29.5650  -21.2330   20.9830 C   0  0  0  0  0  3  0  0  0  0  0  0
  -29.6180  -24.0350   20.8710 C   0  0  0  0  0  3  0  0  0  0  0  0
  -30.4670  -20.0120   20.4640 C   0  0  0  0  0  3  0  0  0  0  0  0
  -28.7480  -25.1960   20.2210 C   0  0  0  0  0  2  0  0  0  0  0  0
  -28.8240  -26.5910   20.7250 O   0  0  0  0  0  0  0  0  0  0  0  0
  -24.7380  -31.9660   23.3450 C   0  0  0  0  0  0  0  0  0  0  0  0
  -27.6860  -27.4070   20.5870 C   0  0  0  0  0  0  0  0  0  0  0  0
  -23.6860  -30.4770   21.6790 C   0  0  0  0  0  3  0  0  0  0  0  0
  -25.2740  -28.9380   20.3940 C   0  0  0  0  0  0  0  0  0  0  0  0
  -26.2210  -30.8710   21.6490 C   0  0  0  0  0  2  0  0  0  0  0  0
  -26.3880  -29.4780   21.0510 C   0  0  0  0  0  0  0  0  0  0  0  0
  -27.5960  -28.7210   21.1430 C   0  0  0  0  0  3  0  0  0  0  0  0
  -26.5450  -26.9260   19.8990 C   0  0  0  0  0  3  0  0  0  0  0  0
  -25.3540  -27.6650   19.8130 C   0  0  0  0  0  3  0  0  0  0  0  0
  -24.0100  -29.7700   20.3390 C   0  0  0  0  0  2  0  0  0  0  0  0
  -24.8960  -31.1240   22.2830 N   0  0  0  0  0  0  0  0  0  0  0  0
  -23.6150  -32.2260   23.8000 O   0  0  0  0  0  0  0  0  0  0  0  0
  -22.9970  -29.4680   22.6280 C   0  0  0  0  0  0  0  0  0  0  0  0
  -21.6780  -29.2780   22.4510 N   0  0  0  0  0  0  0  0  0  0  0  0
  -23.6480  -28.8570   23.4790 O   0  0  0  0  0  0  0  0  0  0  0  0
  -21.2140  -29.8250   21.7400 H   0  0  0  0  0  0  0  0  0  0  0  0
  -18.2700  -28.1580   22.9260 C   0  0  0  0  0  0  0  0  0  0  0  0
  -20.8350  -28.3460   23.2030 C   0  0  0  0  0  3  0  0  0  0  0  0
  -20.9010  -26.9250   22.5990 C   0  0  0  0  0  2  0  0  0  0  0  0
  -19.7930  -26.6490   21.5780 C   0  0  0  0  0  2  0  0  0  0  0  0
  -18.4130  -26.8170   22.2230 C   0  0  0  0  0  2  0  0  0  0  0  0
  -19.4080  -28.8830   23.3700 C   0  0  0  0  0  0  0  0  0  0  0  0
  -19.2230  -30.1370   23.9890 C   0  0  0  0  0  3  0  0  0  0  0  0
  -17.9320  -30.6710   24.1620 C   0  0  0  0  0  3  0  0  0  0  0  0
  -16.8090  -29.9430   23.7360 C   0  0  0  0  0  3  0  0  0  0  0  0
  -16.9780  -28.6870   23.1240 C   0  0  0  0  0  3  0  0  0  0  0  0
  -25.9600  -32.6590   24.0250 C   0  0  0  0  0  3  0  0  0  0  0  0
  -26.4010  -31.9560   25.3680 C   0  0  1  0  0  0  0  0  0  0  0  0
  -25.2340  -31.6980   26.3490 C   0  0  0  0  0  1  0  0  0  0  0  0
  -27.0850  -30.6000   25.0780 C   0  0  0  0  0  1  0  0  0  0  0  0
  -27.4510  -32.8310   26.0960 C   0  0  0  0  0  1  0  0  0  0  0  0
  -25.5920  -34.0590   24.2710 N   0  0  0  0  0  0  0  0  0  0  0  0
  -25.9230  -35.0840   23.4740 C   0  0  0  0  0  0  0  0  0  0  0  0
  -26.6300  -34.9520   22.4710 O   0  0  0  0  0  0  0  0  0  0  0  0
  -24.9640  -34.2330   25.0410 H   0  0  0  0  0  0  0  0  0  0  0  0
  -24.1420  -36.7920   22.9770 C   0  0  0  0  0  1  0  0  0  0  0  0
  -25.3730  -36.4760   23.8410 C   0  0  0  0  0  3  0  0  0  0  0  0
  -27.4460  -37.4850   24.6860 C   0  0  0  0  0  1  0  0  0  0  0  0
  -26.3700  -37.5590   23.7020 N   0  0  0  0  0  0  0  0  0  0  0  0
  -25.9260  -38.4690   23.7870 H   0  0  0  0  0  0  0  0  0  0  0  0
  -29.0230  -18.2500   19.1130 C   0  0  0  0  0  2  0  0  0  0  0  0
  -28.2300  -19.3980   18.4470 C   0  0  0  0  0  2  0  0  0  0  0  0
  -27.3700  -20.2540   19.3910 C   0  0  0  0  0  2  0  0  0  0  0  0
  -26.0050  -23.5330   17.9470 C   0  0  0  0  0  3  0  0  0  0  0  0
  -24.8330  -23.1190   17.2940 C   0  0  0  0  0  3  0  0  0  0  0  0
  -26.8100  -22.5850   18.6060 C   0  0  0  0  0  3  0  0  0  0  0  0
  -24.4840  -21.7550   17.2780 C   0  0  0  0  0  3  0  0  0  0  0  0
  -26.4570  -21.2150   18.6270 C   0  0  0  0  0  0  0  0  0  0  0  0
  -25.2850  -20.7920   17.9380 C   0  0  0  0  0  0  0  0  0  0  0  0
  -24.8400  -19.3310   17.8800 C   0  0  0  0  0  2  0  0  0  0  0  0
  -24.3150  -18.8930   19.1800 N   0  0  0  0  0  4  0  0  0  0  0  0
  -24.9800  -19.0970   19.9010 H   0  0  0  0  0  0  0  0  0  0  0  0
  -24.1140  -17.9060   19.1750 H   0  0  0  0  0  0  0  0  0  0  0  0
  -23.4660  -19.3870   19.3850 H   0  0  0  0  0  0  0  0  0  0  0  0
  -30.8550  -17.2720   20.5630 C   0  0  0  0  0  2  0  0  0  0  0  0
  -30.9940  -14.7300   20.1500 C   0  0  0  0  0  0  0  0  0  0  0  0
  -30.5720  -12.6130   18.9210 C   0  0  0  0  0  2  0  0  0  0  0  0
  -29.5790  -12.8960   17.7730 C   0  0  0  0  0  2  0  0  0  0  0  0
  -28.1270  -12.7610   18.2710 C   0  0  0  0  0  2  0  0  0  0  0  0
  -27.8790  -13.5290   19.5960 C   0  0  0  0  0  3  0  0  0  0  0  0
  -28.9870  -13.2520   20.6360 C   0  0  0  0  0  2  0  0  0  0  0  0
  -30.2750  -13.5700   20.0070 N   0  0  0  0  0  0  0  0  0  0  0  0
  -32.1500  -14.8120   19.7270 O   0  0  0  0  0  0  0  0  0  0  0  0
  -30.3290  -15.8530   20.5760 N   0  0  0  0  0  0  0  0  0  0  0  0
  -29.3900  -15.7170   20.9190 H   0  0  0  0  0  0  0  0  0  0  0  0
  -25.5420  -14.1570   20.4500 C   0  0  0  0  0  0  0  0  0  0  0  0
  -24.4690  -13.4000   20.8340 C   0  0  0  0  0  0  0  0  0  0  0  0
  -24.8940  -12.0380   20.7420 C   0  0  0  0  0  0  0  0  0  0  0  0
  -26.5480  -13.2590   20.1330 N   0  0  0  0  0  0  0  0  0  0  0  0
  -26.1690  -11.9790   20.3760 N   0  0  0  0  0  0  0  0  0  0  0  0
  -24.1470  -10.7880   20.9280 C   0  0  0  0  0  0  0  0  0  0  0  0
  -24.5310   -9.8320   21.8960 C   0  0  0  0  0  3  0  0  0  0  0  0
  -23.7850   -8.6470   22.0690 C   0  0  0  0  0  3  0  0  0  0  0  0
  -22.6410   -8.4060   21.2700 C   0  0  0  0  0  0  0  0  0  0  0  0
  -22.2760   -9.3480   20.2930 C   0  0  0  0  0  3  0  0  0  0  0  0
  -23.0220  -10.5260   20.1200 C   0  0  0  0  0  3  0  0  0  0  0  0
  -21.8710   -7.2700   21.3480 O   0  0  0  0  0  0  0  0  0  0  0  0
  -21.6780   -6.6110   22.5340 C   0  0  0  0  0  0  0  0  0  0  0  0
  -21.1000   -7.2470   23.6550 C   0  0  0  0  0  3  0  0  0  0  0  0
  -20.8540   -6.5120   24.8320 C   0  0  0  0  0  3  0  0  0  0  0  0
  -21.1800   -5.1430   24.8900 C   0  0  0  0  0  0  0  0  0  0  0  0
  -21.7530   -4.5080   23.7750 C   0  0  0  0  0  3  0  0  0  0  0  0
  -21.9990   -5.2400   22.5990 C   0  0  0  0  0  0  0  0  0  0  0  0
  -22.5290   -4.6170   21.5200 F   0  0  0  0  0  0  0  0  0  0  0  0
  -20.9390   -4.4370   26.0190 F   0  0  0  0  0  0  0  0  0  0  0  0
  -23.0980  -13.9100   21.1730 C   0  0  0  0  0  0  0  0  0  0  0  0
  -22.3860  -13.2130   22.0500 N   0  0  0  0  0  0  0  0  0  0  0  0
  -22.6780  -14.9660   20.6940 O   0  0  0  0  0  0  0  0  0  0  0  0
  -22.7450  -12.3610   22.4560 H   0  0  0  0  0  0  0  0  0  0  0  0
  -21.4670  -13.5350   22.3200 H   0  0  0  0  0  0  0  0  0  0  0  0
  -25.7390  -15.5300   20.3270 N   0  0  0  0  0  0  0  0  0  0  0  0
  -25.1840  -16.1330   20.9190 H   0  0  0  0  0  0  0  0  0  0  0  0
  -26.6720  -15.8890   20.1830 H   0  0  0  0  0  0  0  0  0  0  0  0
  1 53  1  0
  1 67  1  0
  4  2  1  0
  5  3  1  0
  6  9  1  0
  7  3  1  0
  7  2  1  0
  8  6  1  0
  8  7  1  0
  9 11  1  0
  9  4  1  0
 10  1  1  0
 10  8  1  0
 10  5  1  0
 11 12  1  0
 13 24  2  0
 14 12  1  0
 14 19  1  0
 15 23  1  0
 15 25  1  0
 16 18  1  0
 17 23  1  0
 18 19  2  0
 18 17  1  0
 20 14  2  0
 21 20  1  0
 21 16  2  0
 22 16  1  0
 22 15  1  0
 23 13  1  0
 25 27  2  0
 26 25  1  0
 28 26  1  0
 29 38  2  0
 29 34  1  0
 30 26  1  0
 30 34  1  0
 31 30  1  0
 32 33  1  0
 32 31  1  0
 33 29  1  0
 34 35  2  0
 35 36  1  0
 37 36  2  0
 38 37  1  0
 39 13  1  0
 39 44  1  0
 39 40  1  0
 40 43  1  1
 40 41  1  0
 42 40  1  0
 44 47  1  0
 45 49  1  0
 45 44  1  0
 46 45  2  0
 49 48  1  0
 51 52  1  0
 51 49  1  0
 51 50  1  0
 54 53  1  0
 54 55  1  0
 56 58  1  0
 57 56  2  0
 58 60  2  0
 59 57  1  0
 59 61  2  0
 60 55  1  0
 61 60  1  0
 62 61  1  0
 62 63  1  0
 63 66  1  0
 63 64  1  0
 65 63  1  0
 67 76  1  0
 68 76  1  0
 69 74  1  0
 70 71  1  0
 70 69  1  0
 72 71  1  0
 72 81  1  0
 72 73  1  0
 74 68  1  0
 74 73  1  0
 75 68  2  0
 76 77  1  0
 78 79  2  0
 79 98  1  0
 80 79  1  0
 80 83  1  0
 81 82  1  0
 81 78  1  0
 82 80  2  0
 83 84  1  0
 84 85  2  0
 86 89  1  0
 86 85  1  0
 87 86  2  0
 88 87  1  0
 88 83  2  0
 89 90  1  0
 90 95  2  0
 90 91  1  0
 91 92  2  0
 92 93  1  0
 93 97  1  0
 94 93  2  0
 95 94  1  0
 96 95  1  0
 98 99  1  0
 99102  1  0
 99101  1  0
100 98  2  0
103 78  1  0
103104  1  0
105103  1  0
M  ISO  4  11 101  12 101  68 100  76 100
M  END
>  <TORSDO>  (9) 
F 25

>  <SCORE>  (9) 
-11.427

>  <name>  (9) 
8

>  <ligand_id>  (9) 
8

>  <original_smiles>  (9) 
[H]c1c([H])c([H])c2c(c1[H])C([H])([H])C([H])([H])C([H])([H])C2([H])N([H])C(=O)C1([H])N(C(=O)C([H])(N([H])C(=O)C([H])(N([H])C([H])([H])[H])C([H])([H])[H])C(C([H])([H])[H])(C([H])([H])[H])C([H])([H])[H])C([H])([H])c2c([H])c(OC([H])([H])C3([H])C([H])([H])C([H])([H])C4([H])C([H])([H])C([H])([H])C([H])(C([H])(C([H])([H])N([H])C(=O)N5C([H])([H])C([H])([H])C([H])([H])C([H])(n6nc(-c7c([H])c([H])c(Oc8c([H])c([H])c(F)c([H])c8F)c([H])c7[H])c(C(=O)N([H])[H])c6N([H])[H])C5([H])[H])C([H])([H])C([H])([H])C([H])([H])c5c([H])c([H])c([H])c([H])c5C([H])([H])[N+]([H])([H])[H])C4([H])C3([H])[H])c([H])c([H])c2C1([H])[H]

>  <smiles>  (9) 
[H]c1c([H])c([H])c2c(c1[H])C([H])([H])C([H])([H])C([H])([H])C2([H])N([H])C(=O)C1([H])N(C(=O)C([H])(N([H])C(=O)C([H])(N([H])C([H])([H])[H])C([H])([H])[H])C(C([H])([H])[H])(C([H])([H])[H])C([H])([H])[H])C([H])([H])c2c([H])c(OC([H])([H])C3([H])C([H])([H])C([H])([H])C4([H])C([H])([H])C([H])([H])C([H])(C([H])(C([H])([H])N([H])C(=O)N5C([H])([H])C([H])([H])C([H])([H])C([H])(n6nc(-c7c([H])c([H])c(Oc8c([H])c([H])c(F)c([H])c8F)c([H])c7[H])c(C(=O)N([H])[H])c6N([H])[H])C5([H])[H])C([H])([H])C([H])([H])C([H])([H])c5c([H])c([H])c([H])c([H])c5C([H])([H])[N+]([H])([H])[H])C4([H])C3([H])[H])c([H])c([H])c2C1([H])[H]

$$$$
9:0:0
     RDKit          3D

 99107  0  0  1  0  0  0  0  0999 V2000
  -30.9420  -21.4490   19.1610 C   0  0  0  0  0  2  0  0  0  0  0  0
  -28.6410  -21.3010   19.8530 C   0  0  0  0  0  2  0  0  0  0  0  0
  -31.2240  -20.0340   19.7290 C   0  0  0  0  0  2  0  0  0  0  0  0
  -28.9110  -19.8830   20.4230 C   0  0  0  0  0  2  0  0  0  0  0  0
  -29.8520  -22.1420   19.8750 N   0  0  0  0  0  0  0  0  0  0  0  0
  -29.9860  -19.2300   19.6330 N   0  0  2  0  0  4  0  0  0  0  0  0
  -29.7000  -19.3660   18.6760 H   0  0  0  0  0  0  0  0  0  0  0  0
  -29.6080  -23.4310   19.1970 C   0  0  0  0  0  2  0  0  0  0  0  0
  -28.8350  -24.4870   20.0280 C   0  0  0  0  0  2  0  0  0  0  0  0
  -28.7730  -25.8550   19.2990 C   0  0  0  0  0  2  0  0  0  0  0  0
  -28.5220  -26.9580   20.1800 O   0  0  0  0  0  0  0  0  0  0  0  0
  -24.6340  -31.9810   23.3650 C   0  0  0  0  0  0  0  0  0  0  0  0
  -27.3130  -27.6280   20.1730 C   0  0  0  0  0  0  0  0  0  0  0  0
  -23.4320  -30.6060   21.6950 C   0  0  0  0  0  3  0  0  0  0  0  0
  -24.8940  -29.1050   20.2360 C   0  0  0  0  0  0  0  0  0  0  0  0
  -25.9540  -30.9860   21.5000 C   0  0  0  0  0  2  0  0  0  0  0  0
  -26.0470  -29.6270   20.8330 C   0  0  0  0  0  0  0  0  0  0  0  0
  -27.2530  -28.8920   20.8050 C   0  0  0  0  0  3  0  0  0  0  0  0
  -26.1340  -27.1080   19.5890 C   0  0  0  0  0  3  0  0  0  0  0  0
  -24.9320  -27.8430   19.6160 C   0  0  0  0  0  3  0  0  0  0  0  0
  -23.6430  -29.9530   20.3030 C   0  0  0  0  0  2  0  0  0  0  0  0
  -24.6910  -31.2050   22.2460 N   0  0  0  0  0  0  0  0  0  0  0  0
  -23.5520  -32.2350   23.9140 O   0  0  0  0  0  0  0  0  0  0  0  0
  -22.7920  -29.5610   22.6370 C   0  0  0  0  0  0  0  0  0  0  0  0
  -21.4720  -29.3560   22.4940 N   0  0  0  0  0  0  0  0  0  0  0  0
  -23.4780  -28.9380   23.4510 O   0  0  0  0  0  0  0  0  0  0  0  0
  -20.9790  -29.9130   21.8100 H   0  0  0  0  0  0  0  0  0  0  0  0
  -18.1170  -28.0910   22.9330 C   0  0  0  0  0  0  0  0  0  0  0  0
  -20.6660  -28.3940   23.2420 C   0  0  0  0  0  3  0  0  0  0  0  0
  -20.8040  -26.9730   22.6510 C   0  0  0  0  0  2  0  0  0  0  0  0
  -19.7210  -26.6410   21.6180 C   0  0  0  0  0  2  0  0  0  0  0  0
  -18.3280  -26.7530   22.2440 C   0  0  0  0  0  2  0  0  0  0  0  0
  -19.2150  -28.8690   23.3880 C   0  0  0  0  0  0  0  0  0  0  0  0
  -18.9650  -30.1210   23.9890 C   0  0  0  0  0  3  0  0  0  0  0  0
  -17.6500  -30.5970   24.1420 C   0  0  0  0  0  3  0  0  0  0  0  0
  -16.5660  -29.8160   23.7050 C   0  0  0  0  0  3  0  0  0  0  0  0
  -16.8000  -28.5650   23.1060 C   0  0  0  0  0  3  0  0  0  0  0  0
  -25.9170  -32.6080   23.9950 C   0  0  0  0  0  3  0  0  0  0  0  0
  -26.4490  -31.8090   25.2480 C   0  0  1  0  0  0  0  0  0  0  0  0
  -25.3590  -31.5150   26.3050 C   0  0  0  0  0  1  0  0  0  0  0  0
  -27.0630  -30.4580   24.8130 C   0  0  0  0  0  1  0  0  0  0  0  0
  -27.5810  -32.6080   25.9360 C   0  0  0  0  0  1  0  0  0  0  0  0
  -25.5990  -33.9950   24.3600 N   0  0  0  0  0  0  0  0  0  0  0  0
  -25.9260  -35.0680   23.6270 C   0  0  0  0  0  0  0  0  0  0  0  0
  -26.5980  -34.9950   22.5940 O   0  0  0  0  0  0  0  0  0  0  0  0
  -24.9990  -34.1260   25.1610 H   0  0  0  0  0  0  0  0  0  0  0  0
  -24.1810  -36.8530   23.3170 C   0  0  0  0  0  1  0  0  0  0  0  0
  -25.4270  -36.4410   24.1180 C   0  0  0  0  0  3  0  0  0  0  0  0
  -27.5560  -37.3210   24.9650 C   0  0  0  0  0  1  0  0  0  0  0  0
  -26.4500  -37.5050   24.0290 N   0  0  0  0  0  0  0  0  0  0  0  0
  -26.0370  -38.4180   24.2020 H   0  0  0  0  0  0  0  0  0  0  0  0
  -30.1310  -17.7400   19.7290 C   0  0  0  0  0  3  0  0  0  0  0  0
  -29.1230  -17.0400   18.7820 C   0  0  0  0  0  2  0  0  0  0  0  0
  -28.6210  -17.8560   17.5700 C   0  0  0  0  0  2  0  0  0  0  0  0
  -29.7470  -18.4750   16.7200 C   0  0  0  0  0  2  0  0  0  0  0  0
  -29.2060  -19.3130   15.5440 C   0  0  0  0  0  2  0  0  0  0  0  0
  -30.2830  -19.8970   14.7260 N   0  0  0  0  0  4  0  0  0  0  0  0
  -30.8570  -20.5170   15.2690 H   0  0  0  0  0  0  0  0  0  0  0  0
  -29.8850  -20.4240   13.9690 H   0  0  0  0  0  0  0  0  0  0  0  0
  -30.8640  -19.1790   14.3290 H   0  0  0  0  0  0  0  0  0  0  0  0
  -30.0970  -17.1720   21.1890 C   0  0  0  0  0  2  0  0  0  0  0  0
  -30.7260  -14.7330   20.8120 C   0  0  0  0  0  0  0  0  0  0  0  0
  -30.5480  -12.5740   19.6360 C   0  0  0  0  0  2  0  0  0  0  0  0
  -29.6520  -12.7790   18.3960 C   0  0  0  0  0  2  0  0  0  0  0  0
  -28.1590  -12.6170   18.7540 C   0  0  0  0  0  2  0  0  0  0  0  0
  -27.7540  -13.4170   20.0210 C   0  0  0  0  0  3  0  0  0  0  0  0
  -28.7650  -13.1870   21.1670 C   0  0  0  0  0  2  0  0  0  0  0  0
  -30.1090  -13.5290   20.6640 N   0  0  0  0  0  0  0  0  0  0  0  0
  -31.8570  -14.9790   20.3880 O   0  0  0  0  0  0  0  0  0  0  0  0
  -29.9220  -15.7090   21.2720 N   0  0  0  0  0  0  0  0  0  0  0  0
  -29.0270  -15.3910   21.6110 H   0  0  0  0  0  0  0  0  0  0  0  0
  -25.3110  -13.9940   20.5910 C   0  0  0  0  0  0  0  0  0  0  0  0
  -24.2390  -13.2070   20.9100 C   0  0  0  0  0  0  0  0  0  0  0  0
  -24.7240  -11.8640   20.9130 C   0  0  0  0  0  0  0  0  0  0  0  0
  -26.3820  -13.1290   20.4260 N   0  0  0  0  0  0  0  0  0  0  0  0
  -26.0280  -11.8430   20.6740 N   0  0  0  0  0  0  0  0  0  0  0  0
  -24.0130  -10.5910   21.0730 C   0  0  0  0  0  0  0  0  0  0  0  0
  -24.4120   -9.6400   22.0370 C   0  0  0  0  0  3  0  0  0  0  0  0
  -23.7000   -8.4290   22.1850 C   0  0  0  0  0  3  0  0  0  0  0  0
  -22.5770   -8.1630   21.3670 C   0  0  0  0  0  0  0  0  0  0  0  0
  -22.1990   -9.1030   20.3930 C   0  0  0  0  0  3  0  0  0  0  0  0
  -22.9110  -10.3040   20.2430 C   0  0  0  0  0  3  0  0  0  0  0  0
  -21.8420   -7.0030   21.4230 O   0  0  0  0  0  0  0  0  0  0  0  0
  -21.7300   -6.2770   22.5810 C   0  0  0  0  0  0  0  0  0  0  0  0
  -21.2150   -6.8420   23.7670 C   0  0  0  0  0  3  0  0  0  0  0  0
  -21.0530   -6.0410   24.9160 C   0  0  0  0  0  3  0  0  0  0  0  0
  -21.3970   -4.6760   24.8770 C   0  0  0  0  0  0  0  0  0  0  0  0
  -21.9050   -4.1110   23.6940 C   0  0  0  0  0  3  0  0  0  0  0  0
  -22.0690   -4.9100   22.5480 C   0  0  0  0  0  0  0  0  0  0  0  0
  -22.5400   -4.3550   21.4050 F   0  0  0  0  0  0  0  0  0  0  0  0
  -21.2330   -3.9040   25.9760 F   0  0  0  0  0  0  0  0  0  0  0  0
  -22.8220  -13.6610   21.1070 C   0  0  0  0  0  0  0  0  0  0  0  0
  -22.0680  -12.9660   21.9520 N   0  0  0  0  0  0  0  0  0  0  0  0
  -22.3880  -14.6690   20.5490 O   0  0  0  0  0  0  0  0  0  0  0  0
  -22.4310  -12.1510   22.4250 H   0  0  0  0  0  0  0  0  0  0  0  0
  -21.1150  -13.2520   22.1290 H   0  0  0  0  0  0  0  0  0  0  0  0
  -25.4600  -15.3670   20.4100 N   0  0  0  0  0  0  0  0  0  0  0  0
  -24.6710  -16.0020   20.4660 H   0  0  0  0  0  0  0  0  0  0  0  0
  -26.3110  -15.8160   20.1020 H   0  0  0  0  0  0  0  0  0  0  0  0
  1  3  1  0
  1  5  1  0
  2  5  1  0
  2  4  1  0
  6 52  1  0
  6  3  1  0
  6  4  1  0
  6  7  1  6
  8  5  1  0
  8  9  1  0
 10  9  1  0
 10 11  1  0
 12 23  2  0
 13 11  1  0
 13 18  1  0
 14 22  1  0
 14 24  1  0
 15 21  1  0
 15 17  1  0
 16 22  1  0
 17 16  1  0
 18 17  2  0
 19 20  1  0
 19 13  2  0
 20 15  2  0
 21 14  1  0
 22 12  1  0
 24 26  2  0
 25 24  1  0
 27 25  1  0
 28 37  2  0
 28 33  1  0
 29 25  1  0
 29 33  1  0
 30 29  1  0
 31 32  1  0
 31 30  1  0
 32 28  1  0
 33 34  2  0
 34 35  1  0
 36 35  2  0
 37 36  1  0
 38 12  1  0
 38 43  1  0
 38 39  1  0
 39 42  1  1
 39 40  1  0
 41 39  1  0
 43 46  1  0
 44 48  1  0
 44 43  1  0
 45 44  2  0
 48 47  1  0
 50 48  1  0
 50 51  1  0
 50 49  1  0
 52 53  1  0
 52 61  1  0
 54 53  1  0
 55 54  1  0
 56 55  1  0
 57 58  1  0
 57 56  1  0
 59 57  1  0
 60 57  1  0
 61 70  1  0
 62 70  1  0
 63 68  1  0
 64 65  1  0
 64 63  1  0
 66 65  1  0
 66 75  1  0
 66 67  1  0
 68 62  1  0
 68 67  1  0
 69 62  2  0
 70 71  1  0
 72 73  2  0
 73 74  1  0
 73 92  1  0
 74 77  1  0
 75 72  1  0
 75 76  1  0
 76 74  2  0
 77 78  1  0
 78 79  2  0
 80 83  1  0
 80 79  1  0
 81 80  2  0
 82 81  1  0
 82 77  2  0
 83 84  1  0
 84 85  1  0
 85 86  2  0
 87 86  1  0
 87 91  1  0
 88 87  2  0
 89 84  2  0
 89 88  1  0
 90 89  1  0
 92 93  1  0
 93 96  1  0
 93 95  1  0
 94 92  2  0
 97 98  1  0
 97 72  1  0
 99 97  1  0
M  ISO  4  10 101  11 101  62 100  70 100
M  END
>  <TORSDO>  (10) 
F 26

>  <SCORE>  (10) 
-12.060

>  <name>  (10) 
9

>  <ligand_id>  (10) 
9

>  <original_smiles>  (10) 
[H]c1c([H])c([H])c2c(c1[H])C([H])([H])C([H])([H])C([H])([H])C2([H])N([H])C(=O)C1([H])N(C(=O)C([H])(N([H])C(=O)C([H])(N([H])C([H])([H])[H])C([H])([H])[H])C(C([H])([H])[H])(C([H])([H])[H])C([H])([H])[H])C([H])([H])c2c([H])c(OC([H])([H])C([H])([H])C([H])([H])N3C([H])([H])C([H])([H])[N+]([H])(C([H])(C([H])([H])N([H])C(=O)N4C([H])([H])C([H])([H])C([H])([H])C([H])(n5nc(-c6c([H])c([H])c(Oc7c([H])c([H])c(F)c([H])c7F)c([H])c6[H])c(C(=O)N([H])[H])c5N([H])[H])C4([H])[H])C([H])([H])C([H])([H])C([H])([H])C([H])([H])[N+]([H])([H])[H])C([H])([H])C3([H])[H])c([H])c([H])c2C1([H])[H]

>  <smiles>  (10) 
[H]c1c([H])c([H])c2c(c1[H])C([H])([H])C([H])([H])C([H])([H])C2([H])N([H])C(=O)C1([H])N(C(=O)C([H])(N([H])C(=O)C([H])(N([H])C([H])([H])[H])C([H])([H])[H])C(C([H])([H])[H])(C([H])([H])[H])C([H])([H])[H])C([H])([H])c2c([H])c(OC([H])([H])C([H])([H])C([H])([H])N3C([H])([H])C([H])([H])[N+]([H])(C([H])(C([H])([H])N([H])C(=O)N4C([H])([H])C([H])([H])C([H])([H])C([H])(n5nc(-c6c([H])c([H])c(Oc7c([H])c([H])c(F)c([H])c7F)c([H])c6[H])c(C(=O)N([H])[H])c5N([H])[H])C4([H])[H])C([H])([H])C([H])([H])C([H])([H])C([H])([H])[N+]([H])([H])[H])C([H])([H])C3([H])[H])c([H])c([H])c2C1([H])[H]

$$$$
10:0:0
     RDKit          3D

 94101  0  0  1  0  0  0  0  0999 V2000
  -28.6110  -23.0920   20.3850 C   0  0  0  0  0  3  0  0  0  0  0  0
  -29.3430  -21.5420   19.8570 C   0  0  0  0  0  2  0  0  0  0  0  0
  -29.2130  -19.8290   20.3820 C   0  0  0  0  0  2  0  0  0  0  0  0
  -30.3220  -18.4270   20.3510 C   0  0  0  0  0  3  0  0  0  0  0  0
  -30.7370  -15.5440   20.2340 C   0  0  0  0  0  0  0  0  0  0  0  0
  -30.6860  -13.1200   19.3480 C   0  0  0  0  0  2  0  0  0  0  0  0
  -29.7700  -12.9410   18.1160 C   0  0  0  0  0  2  0  0  0  0  0  0
  -28.3170  -12.6800   18.5550 C   0  0  0  0  0  2  0  0  0  0  0  0
  -27.8710  -13.6380   19.6950 C   0  0  0  0  0  3  0  0  0  0  0  0
  -28.9250  -13.7670   20.8170 C   0  0  0  0  0  2  0  0  0  0  0  0
  -30.1560  -14.2530   20.1810 N   0  0  0  0  0  0  0  0  0  0  0  0
  -31.9520  -15.5550   20.0110 O   0  0  0  0  0  0  0  0  0  0  0  0
  -29.9770  -16.8040   20.3420 N   0  0  0  0  0  0  0  0  0  0  0  0
  -28.9900  -16.6190   20.4190 H   0  0  0  0  0  0  0  0  0  0  0  0
  -25.5030  -14.1720   20.4760 C   0  0  0  0  0  0  0  0  0  0  0  0
  -24.4490  -13.3880   20.8490 C   0  0  0  0  0  0  0  0  0  0  0  0
  -24.9250  -12.0410   20.8050 C   0  0  0  0  0  0  0  0  0  0  0  0
  -26.5500  -13.3090   20.2140 N   0  0  0  0  0  0  0  0  0  0  0  0
  -26.2130  -12.0190   20.4800 N   0  0  0  0  0  0  0  0  0  0  0  0
  -24.2040  -10.7730   20.9900 C   0  0  0  0  0  0  0  0  0  0  0  0
  -24.6120   -9.8230   21.9520 C   0  0  0  0  0  3  0  0  0  0  0  0
  -23.8890   -8.6220   22.1210 C   0  0  0  0  0  3  0  0  0  0  0  0
  -22.7450   -8.3620   21.3290 C   0  0  0  0  0  0  0  0  0  0  0  0
  -22.3570   -9.3040   20.3590 C   0  0  0  0  0  3  0  0  0  0  0  0
  -23.0810  -10.4950   20.1860 C   0  0  0  0  0  3  0  0  0  0  0  0
  -21.9930   -7.2140   21.4090 O   0  0  0  0  0  0  0  0  0  0  0  0
  -21.8810   -6.5100   22.5830 C   0  0  0  0  0  0  0  0  0  0  0  0
  -21.3250   -7.0840   23.7480 C   0  0  0  0  0  3  0  0  0  0  0  0
  -21.1640   -6.3020   24.9100 C   0  0  0  0  0  3  0  0  0  0  0  0
  -21.5460   -4.9470   24.9080 C   0  0  0  0  0  0  0  0  0  0  0  0
  -22.0970   -4.3740   23.7470 C   0  0  0  0  0  3  0  0  0  0  0  0
  -22.2590   -5.1530   22.5890 C   0  0  0  0  0  0  0  0  0  0  0  0
  -22.7700   -4.5880   21.4680 F   0  0  0  0  0  0  0  0  0  0  0  0
  -21.3840   -4.1950   26.0220 F   0  0  0  0  0  0  0  0  0  0  0  0
  -23.0500  -13.8560   21.1270 C   0  0  0  0  0  0  0  0  0  0  0  0
  -22.3300  -13.1610   21.9990 N   0  0  0  0  0  0  0  0  0  0  0  0
  -22.6070  -14.8790   20.6060 O   0  0  0  0  0  0  0  0  0  0  0  0
  -22.7000  -12.3370   22.4510 H   0  0  0  0  0  0  0  0  0  0  0  0
  -21.3910  -13.4580   22.2220 H   0  0  0  0  0  0  0  0  0  0  0  0
  -25.6490  -15.5450   20.3030 N   0  0  0  0  0  0  0  0  0  0  0  0
  -24.8600  -16.1730   20.3940 H   0  0  0  0  0  0  0  0  0  0  0  0
  -26.4600  -15.9860   19.8870 H   0  0  0  0  0  0  0  0  0  0  0  0
  -31.2570  -18.5950   21.5850 C   0  0  0  0  0  2  0  0  0  0  0  0
  -31.9320  -20.4450   23.0810 C   0  0  0  0  0  1  0  0  0  0  0  0
  -33.2390  -19.9730   21.0620 C   0  0  0  0  0  1  0  0  0  0  0  0
  -31.8980  -19.9310   21.6880 N   0  0  1  0  0  4  0  0  0  0  0  0
  -31.3020  -20.5570   21.1690 H   0  0  0  0  0  0  0  0  0  0  0  0
  -27.0980  -22.8490   20.6130 C   0  0  0  0  0  2  0  0  0  0  0  0
  -26.7830  -21.9770   21.7600 N   0  0  0  0  0  4  0  0  0  0  0  0
  -27.2180  -21.0770   21.6750 H   0  0  0  0  0  0  0  0  0  0  0  0
  -25.7880  -21.8300   21.7950 H   0  0  0  0  0  0  0  0  0  0  0  0
  -27.0670  -22.4060   22.6210 H   0  0  0  0  0  0  0  0  0  0  0  0
  -28.6290  -24.7170   19.6420 C   0  0  0  0  0  2  0  0  0  0  0  0
  -28.5160  -26.2680   20.1530 O   0  0  0  0  0  0  0  0  0  0  0  0
  -24.7610  -31.9910   23.1860 C   0  0  0  0  0  0  0  0  0  0  0  0
  -27.4550  -27.2960   20.0490 C   0  0  0  0  0  0  0  0  0  0  0  0
  -23.6020  -30.5960   21.5170 C   0  0  0  0  0  3  0  0  0  0  0  0
  -25.0920  -29.0700   20.0540 C   0  0  0  0  0  0  0  0  0  0  0  0
  -26.1560  -30.8960   21.3700 C   0  0  0  0  0  2  0  0  0  0  0  0
  -26.2650  -29.5090   20.6810 C   0  0  0  0  0  0  0  0  0  0  0  0
  -27.4370  -28.6370   20.6600 C   0  0  0  0  0  3  0  0  0  0  0  0
  -26.2520  -26.9950   19.3760 C   0  0  0  0  0  3  0  0  0  0  0  0
  -25.1060  -27.8360   19.3830 C   0  0  0  0  0  3  0  0  0  0  0  0
  -23.8480  -29.9500   20.1250 C   0  0  0  0  0  2  0  0  0  0  0  0
  -24.8580  -31.1880   22.0790 N   0  0  0  0  0  0  0  0  0  0  0  0
  -23.6680  -32.2340   23.7210 O   0  0  0  0  0  0  0  0  0  0  0  0
  -22.9470  -29.5590   22.4660 C   0  0  0  0  0  0  0  0  0  0  0  0
  -21.6200  -29.3580   22.3450 N   0  0  0  0  0  0  0  0  0  0  0  0
  -23.6350  -28.9380   23.2800 O   0  0  0  0  0  0  0  0  0  0  0  0
  -21.1180  -29.9090   21.6640 H   0  0  0  0  0  0  0  0  0  0  0  0
  -18.2770  -28.0530   22.8680 C   0  0  0  0  0  0  0  0  0  0  0  0
  -20.8310  -28.3820   23.1060 C   0  0  0  0  0  3  0  0  0  0  0  0
  -20.9660  -26.9680   22.4970 C   0  0  0  0  0  2  0  0  0  0  0  0
  -19.8590  -26.6400   21.4900 C   0  0  0  0  0  2  0  0  0  0  0  0
  -18.4820  -26.7300   22.1510 C   0  0  0  0  0  2  0  0  0  0  0  0
  -19.3790  -28.8370   23.3040 C   0  0  0  0  0  0  0  0  0  0  0  0
  -19.1310  -30.0720   23.9410 C   0  0  0  0  0  3  0  0  0  0  0  0
  -17.8150  -30.5270   24.1400 C   0  0  0  0  0  3  0  0  0  0  0  0
  -16.7280  -29.7420   23.7140 C   0  0  0  0  0  3  0  0  0  0  0  0
  -16.9600  -28.5060   23.0840 C   0  0  0  0  0  3  0  0  0  0  0  0
  -26.0170  -32.6590   23.8250 C   0  0  0  0  0  3  0  0  0  0  0  0
  -26.5260  -31.9070   25.1190 C   0  0  1  0  0  0  0  0  0  0  0  0
  -25.4150  -31.6550   26.1640 C   0  0  0  0  0  1  0  0  0  0  0  0
  -27.1490  -30.5400   24.7560 C   0  0  0  0  0  1  0  0  0  0  0  0
  -27.6440  -32.7310   25.7980 C   0  0  0  0  0  1  0  0  0  0  0  0
  -25.6750  -34.0510   24.1570 N   0  0  0  0  0  0  0  0  0  0  0  0
  -25.9830  -35.1160   23.4060 C   0  0  0  0  0  0  0  0  0  0  0  0
  -26.6520  -35.0300   22.3720 O   0  0  0  0  0  0  0  0  0  0  0  0
  -25.0850  -34.1910   24.9620 H   0  0  0  0  0  0  0  0  0  0  0  0
  -24.2140  -36.8780   23.0770 C   0  0  0  0  0  1  0  0  0  0  0  0
  -25.4720  -36.4960   23.8720 C   0  0  0  0  0  3  0  0  0  0  0  0
  -27.5890  -37.4340   24.6890 C   0  0  0  0  0  1  0  0  0  0  0  0
  -26.4810  -37.5720   23.7490 N   0  0  0  0  0  0  0  0  0  0  0  0
  -26.0540  -38.4820   23.8960 H   0  0  0  0  0  0  0  0  0  0  0  0
  1 53  1  0
  1 48  1  0
  2  3  1  0
  2  1  1  0
  4  3  1  0
  4 43  1  0
  5 13  1  0
  6 11  1  0
  7  8  1  0
  7  6  1  0
  9  8  1  0
  9 18  1  0
  9 10  1  0
 11  5  1  0
 11 10  1  0
 12  5  2  0
 13  4  1  0
 13 14  1  0
 15 16  2  0
 16 35  1  0
 17 16  1  0
 17 20  1  0
 18 15  1  0
 18 19  1  0
 19 17  2  0
 20 21  1  0
 21 22  2  0
 23 26  1  0
 23 22  1  0
 24 23  2  0
 25 24  1  0
 25 20  2  0
 26 27  1  0
 27 32  2  0
 27 28  1  0
 28 29  2  0
 30 29  1  0
 30 34  1  0
 31 30  2  0
 32 31  1  0
 33 32  1  0
 35 36  1  0
 36 39  1  0
 36 38  1  0
 37 35  2  0
 40 41  1  0
 40 15  1  0
 42 40  1  0
 43 46  1  0
 45 46  1  0
 46 44  1  0
 46 47  1  6
 48 49  1  0
 49 51  1  0
 49 52  1  0
 50 49  1  0
 53 54  1  0
 55 66  2  0
 56 54  1  0
 56 61  1  0
 57 65  1  0
 57 67  1  0
 58 64  1  0
 58 60  1  0
 59 65  1  0
 60 59  1  0
 61 60  2  0
 62 63  1  0
 62 56  2  0
 63 58  2  0
 64 57  1  0
 65 55  1  0
 67 69  2  0
 68 67  1  0
 70 68  1  0
 71 80  2  0
 71 76  1  0
 72 68  1  0
 72 76  1  0
 73 72  1  0
 74 75  1  0
 74 73  1  0
 75 71  1  0
 76 77  2  0
 77 78  1  0
 79 78  2  0
 80 79  1  0
 81 55  1  0
 81 86  1  0
 81 82  1  0
 82 85  1  1
 82 83  1  0
 84 82  1  0
 86 89  1  0
 87 91  1  0
 87 86  1  0
 88 87  2  0
 91 90  1  0
 93 91  1  0
 93 94  1  0
 93 92  1  0
M  ISO  4   5 100  13 100  53 101  54 101
M  END
>  <TORSDO>  (11) 
F 24

>  <SCORE>  (11) 
-13.787

>  <name>  (11) 
10

>  <ligand_id>  (11) 
10

>  <original_smiles>  (11) 
[H]c1c([H])c([H])c2c(c1[H])C([H])([H])C([H])([H])C([H])([H])C2([H])N([H])C(=O)C1([H])N(C(=O)C([H])(N([H])C(=O)C([H])(N([H])C([H])([H])[H])C([H])([H])[H])C(C([H])([H])[H])(C([H])([H])[H])C([H])([H])[H])C([H])([H])c2c([H])c(OC([H])([H])C([H])(C([H])([H])C([H])([H])C([H])(N([H])C(=O)N3C([H])([H])C([H])([H])C([H])([H])C([H])(n4nc(-c5c([H])c([H])c(Oc6c([H])c([H])c(F)c([H])c6F)c([H])c5[H])c(C(=O)N([H])[H])c4N([H])[H])C3([H])[H])C([H])([H])[N+]([H])(C([H])([H])[H])C([H])([H])[H])C([H])([H])[N+]([H])([H])[H])c([H])c([H])c2C1([H])[H]

>  <smiles>  (11) 
[H]c1c([H])c([H])c2c(c1[H])C([H])([H])C([H])([H])C([H])([H])C2([H])N([H])C(=O)C1([H])N(C(=O)C([H])(N([H])C(=O)C([H])(N([H])C([H])([H])[H])C([H])([H])[H])C(C([H])([H])[H])(C([H])([H])[H])C([H])([H])[H])C([H])([H])c2c([H])c(OC([H])([H])C([H])(C([H])([H])C([H])([H])C([H])(N([H])C(=O)N3C([H])([H])C([H])([H])C([H])([H])C([H])(n4nc(-c5c([H])c([H])c(Oc6c([H])c([H])c(F)c([H])c6F)c([H])c5[H])c(C(=O)N([H])[H])c4N([H])[H])C3([H])[H])C([H])([H])[N+]([H])(C([H])([H])[H])C([H])([H])[H])C([H])([H])[N+]([H])([H])[H])c([H])c([H])c2C1([H])[H]

$$$$
11:0:0
     RDKit          3D

 91 98  0  0  1  0  0  0  0  0999 V2000
  -29.5800  -20.4360   20.4170 C   0  0  0  0  0  0  0  0  0  0  0  0
  -29.7400  -20.0840   19.1290 N   0  0  0  0  0  4  0  0  0  0  0  0
  -29.2020  -21.7020   20.7520 N   0  0  0  0  0  0  0  0  0  0  0  0
  -30.0580  -19.1530   18.8920 H   0  0  0  0  0  0  0  0  0  0  0  0
  -29.6050  -20.7190   18.3560 H   0  0  0  0  0  0  0  0  0  0  0  0
  -29.1350  -21.9160   21.7390 H   0  0  0  0  0  0  0  0  0  0  0  0
  -29.8760  -19.4060   21.5020 C   0  0  0  0  0  2  0  0  0  0  0  0
  -29.3960  -17.9470   21.1770 C   0  0  0  0  0  2  0  0  0  0  0  0
  -30.5190  -16.8680   21.1290 C   0  0  0  0  0  2  0  0  0  0  0  0
  -30.7120  -14.4710   20.3650 C   0  0  0  0  0  0  0  0  0  0  0  0
  -30.3880  -12.3240   19.1820 C   0  0  0  0  0  2  0  0  0  0  0  0
  -29.4380  -12.5450   17.9860 C   0  0  0  0  0  2  0  0  0  0  0  0
  -27.9630  -12.4220   18.4220 C   0  0  0  0  0  2  0  0  0  0  0  0
  -27.6480  -13.2440   19.7020 C   0  0  0  0  0  3  0  0  0  0  0  0
  -28.7100  -12.9880   20.7950 C   0  0  0  0  0  2  0  0  0  0  0  0
  -30.0300  -13.3000   20.2220 N   0  0  0  0  0  0  0  0  0  0  0  0
  -31.8350  -14.6500   19.8850 O   0  0  0  0  0  0  0  0  0  0  0  0
  -30.0310  -15.4850   20.9410 N   0  0  0  0  0  0  0  0  0  0  0  0
  -29.1050  -15.2680   21.2760 H   0  0  0  0  0  0  0  0  0  0  0  0
  -25.2610  -13.8840   20.4290 C   0  0  0  0  0  0  0  0  0  0  0  0
  -24.1870  -13.1260   20.8090 C   0  0  0  0  0  0  0  0  0  0  0  0
  -24.6300  -11.7680   20.7770 C   0  0  0  0  0  0  0  0  0  0  0  0
  -26.2940  -12.9900   20.1890 N   0  0  0  0  0  0  0  0  0  0  0  0
  -25.9170  -11.7110   20.4560 N   0  0  0  0  0  0  0  0  0  0  0  0
  -23.8900  -10.5150   20.9750 C   0  0  0  0  0  0  0  0  0  0  0  0
  -24.3090   -9.5530   21.9200 C   0  0  0  0  0  3  0  0  0  0  0  0
  -23.5720   -8.3630   22.1040 C   0  0  0  0  0  3  0  0  0  0  0  0
  -22.4020   -8.1280   21.3420 C   0  0  0  0  0  0  0  0  0  0  0  0
  -22.0050   -9.0790   20.3860 C   0  0  0  0  0  3  0  0  0  0  0  0
  -22.7420  -10.2600   20.2010 C   0  0  0  0  0  3  0  0  0  0  0  0
  -21.6390   -6.9890   21.4340 O   0  0  0  0  0  0  0  0  0  0  0  0
  -21.5590   -6.2690   22.5980 C   0  0  0  0  0  0  0  0  0  0  0  0
  -21.0900   -6.8440   23.8000 C   0  0  0  0  0  3  0  0  0  0  0  0
  -20.9560   -6.0480   24.9550 C   0  0  0  0  0  3  0  0  0  0  0  0
  -21.2840   -4.6800   24.9110 C   0  0  0  0  0  0  0  0  0  0  0  0
  -21.7490   -4.1050   23.7150 C   0  0  0  0  0  3  0  0  0  0  0  0
  -21.8820   -4.8980   22.5610 C   0  0  0  0  0  0  0  0  0  0  0  0
  -22.3080   -4.3340   21.4040 F   0  0  0  0  0  0  0  0  0  0  0  0
  -21.1510   -3.9140   26.0180 F   0  0  0  0  0  0  0  0  0  0  0  0
  -22.8000  -13.6210   21.0940 C   0  0  0  0  0  0  0  0  0  0  0  0
  -22.0690  -12.9340   21.9650 N   0  0  0  0  0  0  0  0  0  0  0  0
  -22.3710  -14.6520   20.5770 O   0  0  0  0  0  0  0  0  0  0  0  0
  -22.4270  -12.1010   22.4100 H   0  0  0  0  0  0  0  0  0  0  0  0
  -21.1360  -13.2480   22.1910 H   0  0  0  0  0  0  0  0  0  0  0  0
  -25.4430  -15.2520   20.2460 N   0  0  0  0  0  0  0  0  0  0  0  0
  -24.6770  -15.9100   20.3260 H   0  0  0  0  0  0  0  0  0  0  0  0
  -26.2860  -15.6750   19.8790 H   0  0  0  0  0  0  0  0  0  0  0  0
  -28.8980  -22.8420   19.8440 C   0  0  0  0  0  2  0  0  0  0  0  0
  -28.6700  -24.2100   20.5640 C   0  0  0  0  0  2  0  0  0  0  0  0
  -28.7090  -25.4430   19.6100 C   0  0  0  0  0  2  0  0  0  0  0  0
  -28.5260  -26.7280   20.2510 O   0  0  0  0  0  0  0  0  0  0  0  0
  -24.6610  -31.9180   23.2390 C   0  0  0  0  0  0  0  0  0  0  0  0
  -27.3230  -27.4220   20.2140 C   0  0  0  0  0  0  0  0  0  0  0  0
  -23.4610  -30.4980   21.6060 C   0  0  0  0  0  3  0  0  0  0  0  0
  -24.9180  -28.9380   20.2020 C   0  0  0  0  0  0  0  0  0  0  0  0
  -25.9870  -30.8490   21.4130 C   0  0  0  0  0  2  0  0  0  0  0  0
  -26.0740  -29.4690   20.7870 C   0  0  0  0  0  0  0  0  0  0  0  0
  -27.2730  -28.7180   20.7870 C   0  0  0  0  0  3  0  0  0  0  0  0
  -26.1370  -26.9040   19.6400 C   0  0  0  0  0  3  0  0  0  0  0  0
  -24.9470  -27.6570   19.6280 C   0  0  0  0  0  3  0  0  0  0  0  0
  -23.6750  -29.7990   20.2340 C   0  0  0  0  0  2  0  0  0  0  0  0
  -24.7210  -31.1070   22.1420 N   0  0  0  0  0  0  0  0  0  0  0  0
  -23.5790  -32.1960   23.7730 O   0  0  0  0  0  0  0  0  0  0  0  0
  -22.8030  -29.4930   22.5800 C   0  0  0  0  0  0  0  0  0  0  0  0
  -21.4780  -29.3110   22.4490 N   0  0  0  0  0  0  0  0  0  0  0  0
  -23.4830  -28.8790   23.4050 O   0  0  0  0  0  0  0  0  0  0  0  0
  -20.9910  -29.8610   21.7570 H   0  0  0  0  0  0  0  0  0  0  0  0
  -18.1030  -28.1210   22.9500 C   0  0  0  0  0  0  0  0  0  0  0  0
  -20.6590  -28.3800   23.2260 C   0  0  0  0  0  3  0  0  0  0  0  0
  -20.7620  -26.9440   22.6620 C   0  0  0  0  0  2  0  0  0  0  0  0
  -19.6620  -26.6130   21.6480 C   0  0  0  0  0  2  0  0  0  0  0  0
  -18.2790  -26.7650   22.2880 C   0  0  0  0  0  2  0  0  0  0  0  0
  -19.2200  -28.8850   23.3770 C   0  0  0  0  0  0  0  0  0  0  0  0
  -19.0020  -30.1530   23.9560 C   0  0  0  0  0  3  0  0  0  0  0  0
  -17.6960  -30.6580   24.1140 C   0  0  0  0  0  3  0  0  0  0  0  0
  -16.5920  -29.8900   23.7040 C   0  0  0  0  0  3  0  0  0  0  0  0
  -16.7960  -28.6240   23.1260 C   0  0  0  0  0  3  0  0  0  0  0  0
  -25.9450  -32.5540   23.8570 C   0  0  0  0  0  3  0  0  0  0  0  0
  -25.6300  -33.9490   24.1950 N   0  0  0  0  0  0  0  0  0  0  0  0
  -25.9490  -35.0060   23.4380 C   0  0  0  0  0  0  0  0  0  0  0  0
  -26.6130  -34.9120   22.4010 O   0  0  0  0  0  0  0  0  0  0  0  0
  -25.0380  -34.0960   25.0000 H   0  0  0  0  0  0  0  0  0  0  0  0
  -24.2090  -36.7890   23.1030 C   0  0  0  0  0  1  0  0  0  0  0  0
  -25.4580  -36.3890   23.9060 C   0  0  0  0  0  3  0  0  0  0  0  0
  -27.5900  -37.2860   24.7290 C   0  0  0  0  0  1  0  0  0  0  0  0
  -26.4840  -37.4480   23.7880 N   0  0  0  0  0  0  0  0  0  0  0  0
  -26.0730  -38.3650   23.9370 H   0  0  0  0  0  0  0  0  0  0  0  0
  -26.4720  -31.7810   25.1280 C   0  0  1  0  0  0  0  0  0  0  0  0
  -25.3860  -31.5300   26.2000 C   0  0  0  0  0  1  0  0  0  0  0  0
  -27.0640  -30.4100   24.7250 C   0  0  0  0  0  1  0  0  0  0  0  0
  -27.6210  -32.5810   25.7880 C   0  0  0  0  0  1  0  0  0  0  0  0
  1  3  1  0
  1  7  1  0
  2  1  2  0
  3  6  1  0
  4  2  1  0
  5  2  1  0
  8  7  1  0
  9  8  1  0
 10 18  1  0
 11 16  1  0
 12 13  1  0
 12 11  1  0
 14 13  1  0
 14 23  1  0
 14 15  1  0
 16 10  1  0
 16 15  1  0
 17 10  2  0
 18  9  1  0
 18 19  1  0
 20 21  2  0
 21 40  1  0
 22 21  1  0
 22 25  1  0
 23 20  1  0
 23 24  1  0
 24 22  2  0
 25 26  1  0
 26 27  2  0
 28 31  1  0
 28 27  1  0
 29 28  2  0
 30 29  1  0
 30 25  2  0
 31 32  1  0
 32 33  1  0
 33 34  2  0
 35 34  1  0
 35 39  1  0
 36 35  2  0
 37 32  2  0
 37 36  1  0
 38 37  1  0
 40 41  1  0
 41 44  1  0
 41 43  1  0
 42 40  2  0
 45 46  1  0
 45 20  1  0
 47 45  1  0
 48 49  1  0
 48  3  1  0
 50 51  1  0
 50 49  1  0
 52 63  2  0
 53 51  1  0
 53 58  1  0
 54 62  1  0
 54 64  1  0
 55 61  1  0
 55 57  1  0
 56 62  1  0
 57 58  2  0
 57 56  1  0
 59 53  2  0
 60 59  1  0
 60 55  2  0
 61 54  1  0
 62 52  1  0
 64 66  2  0
 65 64  1  0
 67 65  1  0
 68 77  2  0
 68 73  1  0
 69 65  1  0
 69 73  1  0
 70 69  1  0
 71 72  1  0
 71 70  1  0
 72 68  1  0
 73 74  2  0
 74 75  1  0
 76 75  2  0
 77 76  1  0
 78 52  1  0
 78 79  1  0
 78 88  1  0
 79 82  1  0
 80 84  1  0
 80 79  1  0
 81 80  2  0
 84 83  1  0
 86 84  1  0
 86 87  1  0
 86 85  1  0
 88 91  1  1
 88 89  1  0
 90 88  1  0
M  ISO  4  10 100  18 100  50 101  51 101
M  END
>  <TORSDO>  (12) 
F 22

>  <SCORE>  (12) 
-12.655

>  <name>  (12) 
11

>  <ligand_id>  (12) 
11

>  <original_smiles>  (12) 
[H]c1c([H])c([H])c2c(c1[H])C([H])([H])C([H])([H])C([H])([H])C2([H])N([H])C(=O)C1([H])N(C(=O)C([H])(N([H])C(=O)C([H])(N([H])C([H])([H])[H])C([H])([H])[H])C(C([H])([H])[H])(C([H])([H])[H])C([H])([H])[H])C([H])([H])c2c([H])c(OC([H])([H])C([H])([H])C([H])([H])[N+]([H])=C(N([H])[H])C([H])([H])C([H])([H])C([H])([H])N([H])C(=O)N3C([H])([H])C([H])([H])C([H])([H])C([H])(n4nc(-c5c([H])c([H])c(Oc6c([H])c([H])c(F)c([H])c6F)c([H])c5[H])c(C(=O)N([H])[H])c4N([H])[H])C3([H])[H])c([H])c([H])c2C1([H])[H]

>  <smiles>  (12) 
[H]c1c([H])c([H])c2c(c1[H])C([H])([H])C([H])([H])C([H])([H])C2([H])N([H])C(=O)C1([H])N(C(=O)C([H])(N([H])C(=O)C([H])(N([H])C([H])([H])[H])C([H])([H])[H])C(C([H])([H])[H])(C([H])([H])[H])C([H])([H])[H])C([H])([H])c2c([H])c(OC([H])([H])C([H])([H])C([H])([H])[N+]([H])=C(N([H])[H])C([H])([H])C([H])([H])C([H])([H])N([H])C(=O)N3C([H])([H])C([H])([H])C([H])([H])C([H])(n4nc(-c5c([H])c([H])c(Oc6c([H])c([H])c(F)c([H])c6F)c([H])c5[H])c(C(=O)N([H])[H])c4N([H])[H])C3([H])[H])c([H])c([H])c2C1([H])[H]

$$$$
12:0:0
     RDKit          3D

 99107  0  0  1  0  0  0  0  0999 V2000
  -30.0790  -21.2140   20.3760 N   0  0  1  0  0  4  0  0  0  0  0  0
  -29.2870  -20.8280   20.8650 H   0  0  0  0  0  0  0  0  0  0  0  0
  -31.2060  -21.3520   21.3620 C   0  0  0  0  0  2  0  0  0  0  0  0
  -31.2950  -18.3240   24.5010 C   0  0  0  0  0  3  0  0  0  0  0  0
  -30.4470  -19.4390   24.6230 C   0  0  0  0  0  3  0  0  0  0  0  0
  -32.1270  -18.2000   23.3720 C   0  0  0  0  0  3  0  0  0  0  0  0
  -30.4250  -20.4270   23.6190 C   0  0  0  0  0  3  0  0  0  0  0  0
  -32.0930  -19.1800   22.3610 C   0  0  0  0  0  3  0  0  0  0  0  0
  -31.2350  -20.3000   22.4700 C   0  0  0  0  0  0  0  0  0  0  0  0
  -29.6230  -22.5980   19.8660 C   0  0  0  0  0  2  0  0  0  0  0  0
  -29.4790  -23.9670   22.1550 C   0  0  0  0  0  1  0  0  0  0  0  0
  -28.7800  -23.6060   20.8150 C   0  0  0  0  0  3  0  0  0  0  0  0
  -28.2030  -24.9740   20.1500 C   0  0  0  0  0  2  0  0  0  0  0  0
  -28.3220  -26.4330   20.4630 O   0  0  0  0  0  0  0  0  0  0  0  0
  -24.6550  -31.9110   23.3030 C   0  0  0  0  0  0  0  0  0  0  0  0
  -27.2290  -27.3100   20.3180 C   0  0  0  0  0  0  0  0  0  0  0  0
  -23.4480  -30.5270   21.6530 C   0  0  0  0  0  3  0  0  0  0  0  0
  -24.8900  -28.9520   20.2430 C   0  0  0  0  0  0  0  0  0  0  0  0
  -25.9890  -30.8100   21.4930 C   0  0  0  0  0  2  0  0  0  0  0  0
  -26.0570  -29.4280   20.8550 C   0  0  0  0  0  0  0  0  0  0  0  0
  -27.2300  -28.6230   20.8790 C   0  0  0  0  0  3  0  0  0  0  0  0
  -26.0520  -26.8890   19.6620 C   0  0  0  0  0  3  0  0  0  0  0  0
  -24.8920  -27.6870   19.6300 C   0  0  0  0  0  3  0  0  0  0  0  0
  -23.6650  -29.8440   20.2740 C   0  0  0  0  0  2  0  0  0  0  0  0
  -24.7180  -31.0990   22.2070 N   0  0  0  0  0  0  0  0  0  0  0  0
  -23.5720  -32.2040   23.8270 O   0  0  0  0  0  0  0  0  0  0  0  0
  -22.7620  -29.5230   22.6090 C   0  0  0  0  0  0  0  0  0  0  0  0
  -21.4430  -29.3280   22.4350 N   0  0  0  0  0  0  0  0  0  0  0  0
  -23.4120  -28.9250   23.4680 O   0  0  0  0  0  0  0  0  0  0  0  0
  -20.9770  -29.8590   21.7160 H   0  0  0  0  0  0  0  0  0  0  0  0
  -18.0730  -28.0720   22.7950 C   0  0  0  0  0  0  0  0  0  0  0  0
  -20.6060  -28.4000   23.1970 C   0  0  0  0  0  3  0  0  0  0  0  0
  -20.7720  -26.9520   22.6840 C   0  0  0  0  0  2  0  0  0  0  0  0
  -19.7360  -26.5660   21.6220 C   0  0  0  0  0  2  0  0  0  0  0  0
  -18.3170  -26.7040   22.1810 C   0  0  0  0  0  2  0  0  0  0  0  0
  -19.1490  -28.8770   23.2570 C   0  0  0  0  0  0  0  0  0  0  0  0
  -18.8700  -30.1550   23.7860 C   0  0  0  0  0  3  0  0  0  0  0  0
  -17.5480  -30.6310   23.8610 C   0  0  0  0  0  3  0  0  0  0  0  0
  -16.4850  -29.8260   23.4130 C   0  0  0  0  0  3  0  0  0  0  0  0
  -16.7490  -28.5490   22.8880 C   0  0  0  0  0  3  0  0  0  0  0  0
  -25.9420  -32.5260   23.9330 C   0  0  0  0  0  3  0  0  0  0  0  0
  -26.4660  -31.7170   25.1840 C   0  0  1  0  0  0  0  0  0  0  0  0
  -25.3640  -31.4040   26.2240 C   0  0  0  0  0  1  0  0  0  0  0  0
  -27.0930  -30.3750   24.7410 C   0  0  0  0  0  1  0  0  0  0  0  0
  -27.5870  -32.5140   25.8920 C   0  0  0  0  0  1  0  0  0  0  0  0
  -25.6350  -33.9150   24.3080 N   0  0  0  0  0  0  0  0  0  0  0  0
  -25.9570  -34.9910   23.5770 C   0  0  0  0  0  0  0  0  0  0  0  0
  -26.6150  -34.9190   22.5350 O   0  0  0  0  0  0  0  0  0  0  0  0
  -25.0460  -34.0440   25.1170 H   0  0  0  0  0  0  0  0  0  0  0  0
  -24.2160  -36.7850   23.3030 C   0  0  0  0  0  1  0  0  0  0  0  0
  -25.4730  -36.3640   24.0810 C   0  0  0  0  0  3  0  0  0  0  0  0
  -27.6190  -37.2330   24.9010 C   0  0  0  0  0  1  0  0  0  0  0  0
  -26.5010  -37.4240   23.9790 N   0  0  0  0  0  0  0  0  0  0  0  0
  -26.0940  -38.3380   24.1590 H   0  0  0  0  0  0  0  0  0  0  0  0
  -30.4510  -20.1860   19.2830 C   0  0  0  0  0  2  0  0  0  0  0  0
  -29.8020  -18.6880   19.2400 C   0  0  1  0  0  0  0  0  0  0  0  0
  -27.8780  -17.2650   20.4100 C   0  0  0  0  0  1  0  0  0  0  0  0
  -28.7980  -18.4960   20.4090 C   0  0  0  0  0  2  0  0  0  0  0  0
  -28.0290  -19.5830   17.5030 C   0  0  0  0  0  1  0  0  0  0  0  0
  -29.0870  -18.5200   17.8650 C   0  0  0  0  0  2  0  0  0  0  0  0
  -30.9290  -17.5300   19.3350 C   0  0  0  0  0  2  0  0  0  0  0  0
  -31.3960  -15.0270   19.8100 C   0  0  0  0  0  0  0  0  0  0  0  0
  -31.2860  -12.5860   19.3420 C   0  0  0  0  0  2  0  0  0  0  0  0
  -30.3530  -12.3570   18.1340 C   0  0  0  0  0  2  0  0  0  0  0  0
  -28.8810  -12.2590   18.5820 C   0  0  0  0  0  2  0  0  0  0  0  0
  -28.4730  -13.3770   19.5790 C   0  0  0  0  0  3  0  0  0  0  0  0
  -29.5290  -13.5610   20.6910 C   0  0  0  0  0  2  0  0  0  0  0  0
  -30.8170  -13.8030   20.0360 N   0  0  0  0  0  0  0  0  0  0  0  0
  -32.5690  -15.1150   19.4410 O   0  0  0  0  0  0  0  0  0  0  0  0
  -30.5730  -16.1260   19.7880 N   0  0  0  0  0  0  0  0  0  0  0  0
  -29.6120  -15.9650   20.0510 H   0  0  0  0  0  0  0  0  0  0  0  0
  -26.1670  -14.0920   20.4530 C   0  0  0  0  0  0  0  0  0  0  0  0
  -25.0670  -13.3760   20.8390 C   0  0  0  0  0  0  0  0  0  0  0  0
  -25.4290  -12.0010   20.7110 C   0  0  0  0  0  0  0  0  0  0  0  0
  -27.1340  -13.1590   20.1180 N   0  0  0  0  0  0  0  0  0  0  0  0
  -26.6980  -11.8910   20.3340 N   0  0  0  0  0  0  0  0  0  0  0  0
  -24.6200  -10.7840   20.8690 C   0  0  0  0  0  0  0  0  0  0  0  0
  -24.9580   -9.7930   21.8160 C   0  0  0  0  0  3  0  0  0  0  0  0
  -24.1570   -8.6400   21.9680 C   0  0  0  0  0  3  0  0  0  0  0  0
  -23.0010   -8.4710   21.1690 C   0  0  0  0  0  0  0  0  0  0  0  0
  -22.6790   -9.4490   20.2100 C   0  0  0  0  0  3  0  0  0  0  0  0
  -23.4820  -10.5930   20.0590 C   0  0  0  0  0  3  0  0  0  0  0  0
  -22.1760   -7.3730   21.2250 O   0  0  0  0  0  0  0  0  0  0  0  0
  -21.9470   -6.7050   22.4020 C   0  0  0  0  0  0  0  0  0  0  0  0
  -21.3990   -7.3510   23.5310 C   0  0  0  0  0  3  0  0  0  0  0  0
  -21.1170   -6.6100   24.6970 C   0  0  0  0  0  3  0  0  0  0  0  0
  -21.3740   -5.2270   24.7330 C   0  0  0  0  0  0  0  0  0  0  0  0
  -21.9170   -4.5830   23.6070 C   0  0  0  0  0  3  0  0  0  0  0  0
  -22.2020   -5.3210   22.4460 C   0  0  0  0  0  0  0  0  0  0  0  0
  -22.7040   -4.6920   21.3560 F   0  0  0  0  0  0  0  0  0  0  0  0
  -21.0980   -4.5120   25.8480 F   0  0  0  0  0  0  0  0  0  0  0  0
  -23.7220  -13.9330   21.2060 C   0  0  0  0  0  0  0  0  0  0  0  0
  -22.9950  -13.2580   22.0890 N   0  0  0  0  0  0  0  0  0  0  0  0
  -23.3270  -15.0030   20.7440 O   0  0  0  0  0  0  0  0  0  0  0  0
  -23.3270  -12.3910   22.4890 H   0  0  0  0  0  0  0  0  0  0  0  0
  -22.0890  -13.6080   22.3660 H   0  0  0  0  0  0  0  0  0  0  0  0
  -26.4130  -15.4560   20.3290 N   0  0  0  0  0  0  0  0  0  0  0  0
  -25.6930  -16.1450   20.5150 H   0  0  0  0  0  0  0  0  0  0  0  0
  -27.2340  -15.8500   19.8900 H   0  0  0  0  0  0  0  0  0  0  0  0
  1  2  1  1
  1  3  1  0
  3  9  1  0
  4  5  1  0
  6  4  2  0
  7  5  2  0
  8  9  2  0
  8  6  1  0
  9  7  1  0
 10  1  1  0
 10 12  1  0
 12 11  1  0
 13 14  1  0
 13 12  1  0
 15 26  2  0
 16 14  1  0
 16 21  1  0
 17 25  1  0
 17 27  1  0
 18 24  1  0
 18 20  1  0
 19 25  1  0
 20 21  2  0
 20 19  1  0
 22 16  2  0
 23 22  1  0
 23 18  2  0
 24 17  1  0
 25 15  1  0
 27 29  2  0
 28 27  1  0
 30 28  1  0
 31 40  2  0
 31 36  1  0
 32 28  1  0
 32 36  1  0
 33 32  1  0
 34 35  1  0
 34 33  1  0
 35 31  1  0
 36 37  2  0
 37 38  1  0
 39 38  2  0
 40 39  1  0
 41 15  1  0
 41 46  1  0
 41 42  1  0
 42 45  1  1
 42 43  1  0
 44 42  1  0
 46 49  1  0
 47 51  1  0
 47 46  1  0
 48 47  2  0
 51 50  1  0
 53 51  1  0
 53 54  1  0
 53 52  1  0
 55  1  1  0
 56 55  1  6
 56 61  1  0
 56 58  1  0
 58 57  1  0
 59 60  1  0
 60 56  1  0
 61 70  1  0
 62 68  1  0
 63 68  1  0
 64 65  1  0
 64 63  1  0
 66 65  1  0
 66 75  1  0
 66 67  1  0
 68 67  1  0
 69 62  2  0
 70 62  1  0
 70 71  1  0
 72 73  2  0
 73 92  1  0
 74 73  1  0
 74 77  1  0
 75 76  1  0
 75 72  1  0
 76 74  2  0
 77 78  1  0
 78 79  2  0
 80 83  1  0
 80 79  1  0
 81 80  2  0
 82 81  1  0
 82 77  2  0
 83 84  1  0
 84 89  2  0
 84 85  1  0
 85 86  2  0
 86 87  1  0
 87 91  1  0
 88 87  2  0
 89 88  1  0
 90 89  1  0
 92 93  1  0
 93 96  1  0
 93 95  1  0
 94 92  2  0
 97 72  1  0
 97 98  1  0
 99 97  1  0
M  ISO  4  13 101  14 101  62 100  70 100
M  END
>  <TORSDO>  (13) 
F 26

>  <SCORE>  (13) 
-8.019

>  <name>  (13) 
12

>  <ligand_id>  (13) 
12

>  <original_smiles>  (13) 
[H]c1c([H])c([H])c(C([H])([H])[N+]([H])(C([H])([H])C([H])(C([H])([H])[H])C([H])([H])Oc2c([H])c([H])c3c(c2[H])C([H])([H])N(C(=O)C([H])(N([H])C(=O)C([H])(N([H])C([H])([H])[H])C([H])([H])[H])C(C([H])([H])[H])(C([H])([H])[H])C([H])([H])[H])C([H])(C(=O)N([H])C2([H])c4c([H])c([H])c([H])c([H])c4C([H])([H])C([H])([H])C2([H])[H])C3([H])[H])C([H])([H])C(C([H])([H])N([H])C(=O)N2C([H])([H])C([H])([H])C([H])([H])C([H])(n3nc(-c4c([H])c([H])c(Oc5c([H])c([H])c(F)c([H])c5F)c([H])c4[H])c(C(=O)N([H])[H])c3N([H])[H])C2([H])[H])(C([H])([H])C([H])([H])[H])C([H])([H])C([H])([H])[H])c([H])c1[H]

>  <smiles>  (13) 
[H]c1c([H])c([H])c(C([H])([H])[N+]([H])(C([H])([H])C([H])(C([H])([H])[H])C([H])([H])Oc2c([H])c([H])c3c(c2[H])C([H])([H])N(C(=O)C([H])(N([H])C(=O)C([H])(N([H])C([H])([H])[H])C([H])([H])[H])C(C([H])([H])[H])(C([H])([H])[H])C([H])([H])[H])C([H])(C(=O)N([H])C2([H])c4c([H])c([H])c([H])c([H])c4C([H])([H])C([H])([H])C2([H])[H])C3([H])[H])C([H])([H])C(C([H])([H])N([H])C(=O)N2C([H])([H])C([H])([H])C([H])([H])C([H])(n3nc(-c4c([H])c([H])c(Oc5c([H])c([H])c(F)c([H])c5F)c([H])c4[H])c(C(=O)N([H])[H])c3N([H])[H])C2([H])[H])(C([H])([H])C([H])([H])[H])C([H])([H])C([H])([H])[H])c([H])c1[H]

$$$$
13:0:0
     RDKit          3D

 89 97  0  0  1  0  0  0  0  0999 V2000
  -28.9810  -20.4010   19.7320 C   0  0  0  0  0  3  0  0  0  0  0  0
  -25.8250  -21.0800   17.7690 C   0  0  0  0  0  2  0  0  0  0  0  0
  -26.4340  -20.0010   16.8740 C   0  0  0  0  0  2  0  0  0  0  0  0
  -26.3970  -20.8110   19.1730 C   0  0  0  0  0  2  0  0  0  0  0  0
  -27.8470  -19.8300   17.4370 C   0  0  0  0  0  2  0  0  0  0  0  0
  -27.6870  -19.9810   18.9650 C   0  0  0  0  0  3  0  0  0  0  0  0
  -28.9060  -22.2630   20.2360 C   0  0  0  0  0  2  0  0  0  0  0  0
  -28.2670  -23.9650   18.1910 C   0  0  0  0  0  1  0  0  0  0  0  0
  -28.1330  -23.9470   19.7190 C   0  0  0  0  0  3  0  0  0  0  0  0
  -28.2600  -25.6480   20.0750 O   0  0  0  0  0  0  0  0  0  0  0  0
  -24.6440  -31.8040   23.0640 C   0  0  0  0  0  0  0  0  0  0  0  0
  -27.2690  -26.8330   20.0220 C   0  0  0  0  0  0  0  0  0  0  0  0
  -23.4880  -30.3890   21.4260 C   0  0  0  0  0  3  0  0  0  0  0  0
  -24.9690  -28.8040   19.9900 C   0  0  0  0  0  0  0  0  0  0  0  0
  -26.0650  -30.6010   21.2980 C   0  0  0  0  0  2  0  0  0  0  0  0
  -26.1570  -29.1820   20.6240 C   0  0  0  0  0  0  0  0  0  0  0  0
  -27.2990  -28.2250   20.6020 C   0  0  0  0  0  3  0  0  0  0  0  0
  -26.0320  -26.6480   19.3560 C   0  0  0  0  0  3  0  0  0  0  0  0
  -24.9430  -27.5670   19.3290 C   0  0  0  0  0  3  0  0  0  0  0  0
  -23.7380  -29.7210   20.0460 C   0  0  0  0  0  2  0  0  0  0  0  0
  -24.7560  -30.9600   21.9820 N   0  0  0  0  0  0  0  0  0  0  0  0
  -23.5450  -32.0790   23.5720 O   0  0  0  0  0  0  0  0  0  0  0  0
  -22.8020  -29.3800   22.3840 C   0  0  0  0  0  0  0  0  0  0  0  0
  -21.4690  -29.2140   22.2750 N   0  0  0  0  0  0  0  0  0  0  0  0
  -23.4790  -28.7490   23.2000 O   0  0  0  0  0  0  0  0  0  0  0  0
  -20.9760  -29.7760   21.5950 H   0  0  0  0  0  0  0  0  0  0  0  0
  -18.0940  -28.0020   22.8470 C   0  0  0  0  0  0  0  0  0  0  0  0
  -20.6590  -28.2650   23.0450 C   0  0  0  0  0  3  0  0  0  0  0  0
  -20.7450  -26.8460   22.4380 C   0  0  0  0  0  2  0  0  0  0  0  0
  -19.6200  -26.5500   21.4420 C   0  0  0  0  0  2  0  0  0  0  0  0
  -18.2550  -26.6760   22.1270 C   0  0  0  0  0  2  0  0  0  0  0  0
  -19.2230  -28.7580   23.2620 C   0  0  0  0  0  0  0  0  0  0  0  0
  -19.0170  -29.9990   23.9030 C   0  0  0  0  0  3  0  0  0  0  0  0
  -17.7160  -30.4890   24.1230 C   0  0  0  0  0  3  0  0  0  0  0  0
  -16.6020  -29.7310   23.7220 C   0  0  0  0  0  3  0  0  0  0  0  0
  -16.7920  -28.4880   23.0930 C   0  0  0  0  0  3  0  0  0  0  0  0
  -25.8930  -32.4760   23.7080 C   0  0  0  0  0  3  0  0  0  0  0  0
  -26.4180  -31.7170   24.9920 C   0  0  1  0  0  0  0  0  0  0  0  0
  -25.3190  -31.4520   26.0470 C   0  0  0  0  0  1  0  0  0  0  0  0
  -27.0300  -30.3510   24.6170 C   0  0  0  0  0  1  0  0  0  0  0  0
  -27.5540  -32.5330   25.6560 C   0  0  0  0  0  1  0  0  0  0  0  0
  -25.5370  -33.8670   24.0580 N   0  0  0  0  0  0  0  0  0  0  0  0
  -25.8650  -34.9510   23.3430 C   0  0  0  0  0  0  0  0  0  0  0  0
  -26.5550  -34.8880   22.3240 O   0  0  0  0  0  0  0  0  0  0  0  0
  -24.9240  -33.9890   24.8500 H   0  0  0  0  0  0  0  0  0  0  0  0
  -24.1000  -36.7200   23.0230 C   0  0  0  0  0  1  0  0  0  0  0  0
  -25.3440  -36.3190   23.8320 C   0  0  0  0  0  3  0  0  0  0  0  0
  -27.4480  -37.2300   24.7090 C   0  0  0  0  0  1  0  0  0  0  0  0
  -26.3540  -37.3970   23.7560 N   0  0  0  0  0  0  0  0  0  0  0  0
  -25.9270  -38.3040   23.9270 H   0  0  0  0  0  0  0  0  0  0  0  0
  -29.6820  -18.7570   20.4480 C   0  0  0  0  0  2  0  0  0  0  0  0
  -30.2830  -15.6620   20.1960 C   0  0  0  0  0  0  0  0  0  0  0  0
  -30.3480  -13.1510   19.3210 C   0  0  0  0  0  2  0  0  0  0  0  0
  -29.4310  -12.7910   18.1190 C   0  0  0  0  0  2  0  0  0  0  0  0
  -27.9970  -12.4820   18.5750 C   0  0  0  0  0  2  0  0  0  0  0  0
  -27.5290  -13.4490   19.6850 C   0  0  0  0  0  3  0  0  0  0  0  0
  -28.5830  -13.7060   20.7820 C   0  0  0  0  0  2  0  0  0  0  0  0
  -29.7430  -14.3150   20.1010 N   0  0  0  0  0  0  0  0  0  0  0  0
  -31.5210  -15.6060   20.0850 O   0  0  0  0  0  0  0  0  0  0  0  0
  -29.5200  -17.0130   20.2250 N   0  0  0  0  0  0  0  0  0  0  0  0
  -28.5400  -16.7960   20.1260 H   0  0  0  0  0  0  0  0  0  0  0  0
  -25.1830  -13.9890   20.4980 C   0  0  0  0  0  0  0  0  0  0  0  0
  -24.1220  -13.2110   20.8650 C   0  0  0  0  0  0  0  0  0  0  0  0
  -24.5850  -11.8580   20.8050 C   0  0  0  0  0  0  0  0  0  0  0  0
  -26.2170  -13.1140   20.2230 N   0  0  0  0  0  0  0  0  0  0  0  0
  -25.8730  -11.8230   20.4730 N   0  0  0  0  0  0  0  0  0  0  0  0
  -23.8530  -10.5970   20.9820 C   0  0  0  0  0  0  0  0  0  0  0  0
  -24.2960   -9.6060   21.8830 C   0  0  0  0  0  3  0  0  0  0  0  0
  -23.5610   -8.4120   22.0510 C   0  0  0  0  0  3  0  0  0  0  0  0
  -22.3680   -8.2040   21.3190 C   0  0  0  0  0  0  0  0  0  0  0  0
  -21.9440   -9.1860   20.4060 C   0  0  0  0  0  3  0  0  0  0  0  0
  -22.6800  -10.3690   20.2370 C   0  0  0  0  0  3  0  0  0  0  0  0
  -21.6060   -7.0640   21.4000 O   0  0  0  0  0  0  0  0  0  0  0  0
  -21.5930   -6.2780   22.5250 C   0  0  0  0  0  0  0  0  0  0  0  0
  -21.2340   -6.7920   23.7910 C   0  0  0  0  0  3  0  0  0  0  0  0
  -21.1710   -5.9360   24.9070 C   0  0  0  0  0  3  0  0  0  0  0  0
  -21.4580   -4.5660   24.7600 C   0  0  0  0  0  0  0  0  0  0  0  0
  -21.8080   -4.0500   23.4990 C   0  0  0  0  0  3  0  0  0  0  0  0
  -21.8720   -4.9040   22.3860 C   0  0  0  0  0  0  0  0  0  0  0  0
  -22.1910   -4.3980   21.1690 F   0  0  0  0  0  0  0  0  0  0  0  0
  -21.3880   -3.7400   25.8310 F   0  0  0  0  0  0  0  0  0  0  0  0
  -22.7320  -13.6920   21.1480 C   0  0  0  0  0  0  0  0  0  0  0  0
  -22.0060  -12.9940   22.0120 N   0  0  0  0  0  0  0  0  0  0  0  0
  -22.3010  -14.7280   20.6390 O   0  0  0  0  0  0  0  0  0  0  0  0
  -22.3640  -12.1530   22.4440 H   0  0  0  0  0  0  0  0  0  0  0  0
  -21.0740  -13.3070   22.2420 H   0  0  0  0  0  0  0  0  0  0  0  0
  -25.3530  -15.3630   20.3430 N   0  0  0  0  0  0  0  0  0  0  0  0
  -24.5950  -16.0180   20.4800 H   0  0  0  0  0  0  0  0  0  0  0  0
  -26.1870  -15.7990   19.9750 H   0  0  0  0  0  0  0  0  0  0  0  0
  1  7  1  0
  1 51  1  0
  2  4  1  0
  3  5  1  0
  3  2  1  0
  5  6  1  0
  6  4  1  0
  6  1  1  0
  9  8  1  0
  9 10  1  0
  9  7  1  0
 11 22  2  0
 12 10  1  0
 12 17  1  0
 13 21  1  0
 13 23  1  0
 14 20  1  0
 14 16  1  0
 15 21  1  0
 16 15  1  0
 17 16  2  0
 18 12  2  0
 19 18  1  0
 19 14  2  0
 20 13  1  0
 21 11  1  0
 23 25  2  0
 24 23  1  0
 26 24  1  0
 27 36  2  0
 27 32  1  0
 28 24  1  0
 28 32  1  0
 29 28  1  0
 30 31  1  0
 30 29  1  0
 31 27  1  0
 32 33  2  0
 33 34  1  0
 35 34  2  0
 36 35  1  0
 37 11  1  0
 37 42  1  0
 37 38  1  0
 38 41  1  1
 38 39  1  0
 40 38  1  0
 42 45  1  0
 43 47  1  0
 43 42  1  0
 44 43  2  0
 47 46  1  0
 49 47  1  0
 49 50  1  0
 49 48  1  0
 52 60  1  0
 53 58  1  0
 54 55  1  0
 54 53  1  0
 56 55  1  0
 56 65  1  0
 56 57  1  0
 58 52  1  0
 58 57  1  0
 59 52  2  0
 60 51  1  0
 61 60  1  0
 62 63  2  0
 63 82  1  0
 64 63  1  0
 64 67  1  0
 65 66  1  0
 65 62  1  0
 66 64  2  0
 67 68  1  0
 68 69  2  0
 70 73  1  0
 70 69  1  0
 71 70  2  0
 72 71  1  0
 72 67  2  0
 73 74  1  0
 74 75  1  0
 75 76  2  0
 77 76  1  0
 77 81  1  0
 78 77  2  0
 79 74  2  0
 79 78  1  0
 80 79  1  0
 82 83  1  0
 83 86  1  0
 83 85  1  0
 84 82  2  0
 87 88  1  0
 87 62  1  0
 89 87  1  0
M  ISO  4   9 101  10 101  52 100  60 100
M  END
>  <TORSDO>  (14) 
F 20

>  <SCORE>  (14) 
-15.859

>  <name>  (14) 
13

>  <ligand_id>  (14) 
13

>  <original_smiles>  (14) 
[H]c1c([H])c([H])c2c(c1[H])C([H])([H])C([H])([H])C([H])([H])C2([H])N([H])C(=O)C1([H])N(C(=O)C([H])(N([H])C(=O)C([H])(N([H])C([H])([H])[H])C([H])([H])[H])C(C([H])([H])[H])(C([H])([H])[H])C([H])([H])[H])C([H])([H])c2c([H])c(OC([H])(C([H])([H])[H])C([H])([H])C([H])(C([H])([H])N([H])C(=O)N3C([H])([H])C([H])([H])C([H])([H])C([H])(n4nc(-c5c([H])c([H])c(Oc6c([H])c([H])c(F)c([H])c6F)c([H])c5[H])c(C(=O)N([H])[H])c4N([H])[H])C3([H])[H])C3([H])C([H])([H])C([H])([H])C([H])([H])C3([H])[H])c([H])c([H])c2C1([H])[H]

>  <smiles>  (14) 
[H]c1c([H])c([H])c2c(c1[H])C([H])([H])C([H])([H])C([H])([H])C2([H])N([H])C(=O)C1([H])N(C(=O)C([H])(N([H])C(=O)C([H])(N([H])C([H])([H])[H])C([H])([H])[H])C(C([H])([H])[H])(C([H])([H])[H])C([H])([H])[H])C([H])([H])c2c([H])c(OC([H])(C([H])([H])[H])C([H])([H])C([H])(C([H])([H])N([H])C(=O)N3C([H])([H])C([H])([H])C([H])([H])C([H])(n4nc(-c5c([H])c([H])c(Oc6c([H])c([H])c(F)c([H])c6F)c([H])c5[H])c(C(=O)N([H])[H])c4N([H])[H])C3([H])[H])C3([H])C([H])([H])C([H])([H])C([H])([H])C3([H])[H])c([H])c([H])c2C1([H])[H]

$$$$
14:0:0
     RDKit          3D

 92100  0  0  1  0  0  0  0  0999 V2000
  -28.9330  -22.5510   20.2100 C   0  0  0  0  0  3  0  0  0  0  0  0
  -30.5700  -24.1260   18.8530 C   0  0  0  0  0  1  0  0  0  0  0  0
  -29.3860  -24.1060   19.8320 C   0  0  0  0  0  3  0  0  0  0  0  0
  -28.3440  -25.2990   19.4190 C   0  0  0  0  0  2  0  0  0  0  0  0
  -28.5850  -26.7710   19.7000 O   0  0  0  0  0  0  0  0  0  0  0  0
  -24.7080  -31.8120   23.2740 C   0  0  0  0  0  0  0  0  0  0  0  0
  -27.4700  -27.6510   19.7420 C   0  0  0  0  0  0  0  0  0  0  0  0
  -23.5600  -30.5590   21.4890 C   0  0  0  0  0  3  0  0  0  0  0  0
  -25.0650  -29.2280   19.9050 C   0  0  0  0  0  0  0  0  0  0  0  0
  -26.0940  -30.9690   21.3550 C   0  0  0  0  0  2  0  0  0  0  0  0
  -26.2240  -29.6720   20.5550 C   0  0  0  0  0  0  0  0  0  0  0  0
  -27.4300  -28.8990   20.4610 C   0  0  0  0  0  3  0  0  0  0  0  0
  -26.2800  -27.2880   19.0710 C   0  0  0  0  0  3  0  0  0  0  0  0
  -25.1000  -28.0450   19.1530 C   0  0  0  0  0  3  0  0  0  0  0  0
  -23.8020  -30.0530   20.0450 C   0  0  0  0  0  2  0  0  0  0  0  0
  -24.8070  -31.1270   22.0960 N   0  0  0  0  0  0  0  0  0  0  0  0
  -23.6130  -31.9920   23.8280 O   0  0  0  0  0  0  0  0  0  0  0  0
  -22.9310  -29.4190   22.3280 C   0  0  0  0  0  0  0  0  0  0  0  0
  -21.6150  -29.2000   22.1660 N   0  0  0  0  0  0  0  0  0  0  0  0
  -23.6280  -28.7410   23.0870 O   0  0  0  0  0  0  0  0  0  0  0  0
  -21.1090  -29.8020   21.5330 H   0  0  0  0  0  0  0  0  0  0  0  0
  -18.2870  -27.8190   22.5050 C   0  0  0  0  0  0  0  0  0  0  0  0
  -20.8310  -28.1540   22.8260 C   0  0  0  0  0  3  0  0  0  0  0  0
  -20.9970  -26.7970   22.1010 C   0  0  0  0  0  2  0  0  0  0  0  0
  -19.9140  -26.5380   21.0500 C   0  0  0  0  0  2  0  0  0  0  0  0
  -18.5230  -26.5570   21.6910 C   0  0  0  0  0  2  0  0  0  0  0  0
  -19.3700  -28.5760   23.0230 C   0  0  0  0  0  0  0  0  0  0  0  0
  -19.0960  -29.7560   23.7450 C   0  0  0  0  0  3  0  0  0  0  0  0
  -17.7700  -30.1810   23.9550 C   0  0  0  0  0  3  0  0  0  0  0  0
  -16.7000  -29.4200   23.4530 C   0  0  0  0  0  3  0  0  0  0  0  0
  -16.9600  -28.2410   22.7320 C   0  0  0  0  0  3  0  0  0  0  0  0
  -25.9610  -32.4240   23.9690 C   0  0  0  0  0  3  0  0  0  0  0  0
  -25.6260  -33.8010   24.3620 N   0  0  0  0  0  0  0  0  0  0  0  0
  -25.9430  -34.8940   23.6550 C   0  0  0  0  0  0  0  0  0  0  0  0
  -26.6150  -34.8510   22.6220 O   0  0  0  0  0  0  0  0  0  0  0  0
  -25.0280  -33.9080   25.1670 H   0  0  0  0  0  0  0  0  0  0  0  0
  -24.1720  -36.6640   23.4020 C   0  0  0  0  0  1  0  0  0  0  0  0
  -25.4330  -36.2510   24.1790 C   0  0  0  0  0  3  0  0  0  0  0  0
  -27.5560  -37.1490   25.0230 C   0  0  0  0  0  1  0  0  0  0  0  0
  -26.4400  -37.3300   24.0980 N   0  0  0  0  0  0  0  0  0  0  0  0
  -26.0180  -38.2360   24.2850 H   0  0  0  0  0  0  0  0  0  0  0  0
  -26.4400  -31.5930   25.2220 C   0  0  1  0  0  0  0  0  0  0  0  0
  -25.3140  -31.2980   26.2410 C   0  0  0  0  0  1  0  0  0  0  0  0
  -27.0410  -30.2370   24.7830 C   0  0  0  0  0  1  0  0  0  0  0  0
  -27.5650  -32.3570   25.9580 C   0  0  0  0  0  1  0  0  0  0  0  0
  -29.5460  -21.2310   19.4690 C   0  0  0  0  0  2  0  0  0  0  0  0
  -30.9920  -15.2960   20.6930 C   0  0  0  0  0  0  0  0  0  0  0  0
  -30.8100  -12.9440   19.8610 C   0  0  0  0  0  2  0  0  0  0  0  0
  -29.9910  -12.8480   18.5600 C   0  0  0  0  0  2  0  0  0  0  0  0
  -28.4960  -12.6840   18.8850 C   0  0  0  0  0  2  0  0  0  0  0  0
  -28.0000  -13.6830   19.9670 C   0  0  0  0  0  3  0  0  0  0  0  0
  -28.9660  -13.7760   21.1680 C   0  0  0  0  0  2  0  0  0  0  0  0
  -30.2820  -14.1120   20.6140 N   0  0  0  0  0  0  0  0  0  0  0  0
  -32.2210  -15.1980   20.6160 O   0  0  0  0  0  0  0  0  0  0  0  0
  -30.8500  -18.9470   19.2890 C   0  0  0  0  0  2  0  0  0  0  0  0
  -28.7980  -18.7000   20.4830 C   0  0  0  0  0  2  0  0  0  0  0  0
  -31.3990  -17.6150   19.9120 C   0  0  0  0  0  2  0  0  0  0  0  0
  -29.2820  -17.2710   21.0550 C   0  0  0  0  0  2  0  0  0  0  0  0
  -29.8920  -19.7870   20.1760 C   0  0  0  0  0  3  0  0  0  0  0  0
  -30.4390  -16.5690   20.4030 N   0  0  0  0  0  0  0  0  0  0  0  0
  -25.5800  -14.2830   20.5480 C   0  0  0  0  0  0  0  0  0  0  0  0
  -24.4850  -13.5160   20.8320 C   0  0  0  0  0  0  0  0  0  0  0  0
  -24.9370  -12.1600   20.8180 C   0  0  0  0  0  0  0  0  0  0  0  0
  -26.6300  -13.3970   20.3760 N   0  0  0  0  0  0  0  0  0  0  0  0
  -26.2470  -12.1130   20.6060 N   0  0  0  0  0  0  0  0  0  0  0  0
  -24.1860  -10.9040   20.9370 C   0  0  0  0  0  0  0  0  0  0  0  0
  -24.5380   -9.9180   21.8860 C   0  0  0  0  0  3  0  0  0  0  0  0
  -23.7850   -8.7280   21.9960 C   0  0  0  0  0  3  0  0  0  0  0  0
  -22.6640   -8.5180   21.1570 C   0  0  0  0  0  0  0  0  0  0  0  0
  -22.3330   -9.4910   20.1980 C   0  0  0  0  0  3  0  0  0  0  0  0
  -23.0860  -10.6720   20.0870 C   0  0  0  0  0  3  0  0  0  0  0  0
  -21.8890   -7.3830   21.1770 O   0  0  0  0  0  0  0  0  0  0  0  0
  -21.7390   -6.6340   22.3160 C   0  0  0  0  0  0  0  0  0  0  0  0
  -21.2160   -7.1840   23.5060 C   0  0  0  0  0  3  0  0  0  0  0  0
  -21.0130   -6.3610   24.6320 C   0  0  0  0  0  3  0  0  0  0  0  0
  -21.3220   -4.9900   24.5690 C   0  0  0  0  0  0  0  0  0  0  0  0
  -21.8380   -4.4400   23.3820 C   0  0  0  0  0  3  0  0  0  0  0  0
  -22.0420   -5.2590   22.2590 C   0  0  0  0  0  0  0  0  0  0  0  0
  -22.5190   -4.7180   21.1120 F   0  0  0  0  0  0  0  0  0  0  0  0
  -21.1210   -4.1980   25.6480 F   0  0  0  0  0  0  0  0  0  0  0  0
  -23.0770  -14.0050   21.0060 C   0  0  0  0  0  0  0  0  0  0  0  0
  -22.2870  -13.3180   21.8250 N   0  0  0  0  0  0  0  0  0  0  0  0
  -22.6840  -15.0310   20.4530 O   0  0  0  0  0  0  0  0  0  0  0  0
  -22.6180  -12.4890   22.2940 H   0  0  0  0  0  0  0  0  0  0  0  0
  -21.3380  -13.6260   21.9840 H   0  0  0  0  0  0  0  0  0  0  0  0
  -25.7680  -15.6550   20.3950 N   0  0  0  0  0  0  0  0  0  0  0  0
  -25.0000  -16.3140   20.4650 H   0  0  0  0  0  0  0  0  0  0  0  0
  -26.6420  -16.0910   20.1310 H   0  0  0  0  0  0  0  0  0  0  0  0
  -27.3970  -22.3980   20.2900 C   0  0  0  0  0  2  0  0  0  0  0  0
  -26.7510  -23.8430   22.2980 C   0  0  0  0  0  1  0  0  0  0  0  0
  -25.1520  -23.5720   20.3630 C   0  0  0  0  0  1  0  0  0  0  0  0
  -26.6310  -23.6480   20.7770 C   0  0  0  0  0  3  0  0  0  0  0  0
  1 46  1  0
  1 89  1  0
  3  2  1  0
  3  1  1  0
  4  5  1  0
  4  3  1  0
  5  7  1  0
  6 17  2  0
  7 12  1  0
  8 16  1  0
  8 18  1  0
  9 15  1  0
  9 11  1  0
 10 16  1  0
 11 10  1  0
 12 11  2  0
 13 14  1  0
 13  7  2  0
 14  9  2  0
 15  8  1  0
 16  6  1  0
 18 20  2  0
 19 18  1  0
 21 19  1  0
 22 31  2  0
 22 27  1  0
 23 19  1  0
 23 27  1  0
 24 23  1  0
 25 26  1  0
 25 24  1  0
 26 22  1  0
 27 28  2  0
 28 29  1  0
 30 29  2  0
 31 30  1  0
 32  6  1  0
 32 33  1  0
 32 42  1  0
 33 36  1  0
 34 38  1  0
 34 33  1  0
 35 34  2  0
 38 37  1  0
 40 38  1  0
 40 41  1  0
 40 39  1  0
 42 45  1  1
 42 43  1  0
 44 42  1  0
 48 53  1  0
 49 50  1  0
 49 48  1  0
 51 50  1  0
 51 64  1  0
 51 52  1  0
 53 47  1  0
 53 52  1  0
 54 47  2  0
 55 57  1  0
 55 59  1  0
 56 58  1  0
 57 60  1  0
 59 46  1  0
 59 56  1  0
 60 47  1  0
 60 58  1  0
 61 62  2  0
 62 81  1  0
 63 62  1  0
 63 66  1  0
 64 61  1  0
 64 65  1  0
 65 63  2  0
 66 67  1  0
 67 68  2  0
 69 72  1  0
 69 68  1  0
 70 69  2  0
 71 70  1  0
 71 66  2  0
 72 73  1  0
 73 74  1  0
 74 75  2  0
 76 75  1  0
 76 80  1  0
 77 76  2  0
 78 73  2  0
 78 77  1  0
 79 78  1  0
 81 82  1  0
 82 85  1  0
 82 84  1  0
 83 81  2  0
 86 87  1  0
 86 61  1  0
 88 86  1  0
 89 92  1  0
 91 92  1  0
 92 90  1  0
M  ISO  4   4 101   5 101  47 100  60 100
M  END
>  <TORSDO>  (15) 
F 21

>  <SCORE>  (15) 
-12.426

>  <name>  (15) 
14

>  <ligand_id>  (15) 
14

>  <original_smiles>  (15) 
[H]c1c([H])c([H])c2c(c1[H])C([H])([H])C([H])([H])C([H])([H])C2([H])N([H])C(=O)C1([H])N(C(=O)C([H])(N([H])C(=O)C([H])(N([H])C([H])([H])[H])C([H])([H])[H])C(C([H])([H])[H])(C([H])([H])[H])C([H])([H])[H])C([H])([H])c2c([H])c(OC([H])([H])C([H])(C([H])([H])[H])C([H])(C([H])([H])C([H])(C([H])([H])[H])C([H])([H])[H])C([H])([H])C3([H])C([H])([H])C([H])([H])N(C(=O)N4C([H])([H])C([H])([H])C([H])([H])C([H])(n5nc(-c6c([H])c([H])c(Oc7c([H])c([H])c(F)c([H])c7F)c([H])c6[H])c(C(=O)N([H])[H])c5N([H])[H])C4([H])[H])C([H])([H])C3([H])[H])c([H])c([H])c2C1([H])[H]

>  <smiles>  (15) 
[H]c1c([H])c([H])c2c(c1[H])C([H])([H])C([H])([H])C([H])([H])C2([H])N([H])C(=O)C1([H])N(C(=O)C([H])(N([H])C(=O)C([H])(N([H])C([H])([H])[H])C([H])([H])[H])C(C([H])([H])[H])(C([H])([H])[H])C([H])([H])[H])C([H])([H])c2c([H])c(OC([H])([H])C([H])(C([H])([H])[H])C([H])(C([H])([H])C([H])(C([H])([H])[H])C([H])([H])[H])C([H])([H])C3([H])C([H])([H])C([H])([H])N(C(=O)N4C([H])([H])C([H])([H])C([H])([H])C([H])(n5nc(-c6c([H])c([H])c(Oc7c([H])c([H])c(F)c([H])c7F)c([H])c6[H])c(C(=O)N([H])[H])c5N([H])[H])C4([H])[H])C([H])([H])C3([H])[H])c([H])c([H])c2C1([H])[H]

$$$$
15:0:0
     RDKit          3D

 93101  0  0  1  0  0  0  0  0999 V2000
  -29.4460  -22.6130   21.2710 C   0  0  0  0  0  2  0  0  0  0  0  0
  -27.5930  -22.4320   19.6960 C   0  0  0  0  0  2  0  0  0  0  0  0
  -29.8960  -21.1020   20.9230 C   0  0  0  0  0  2  0  0  0  0  0  0
  -28.0710  -20.9460   19.3570 C   0  0  0  0  0  2  0  0  0  0  0  0
  -28.6530  -23.4820   20.1980 C   0  0  0  0  0  3  0  0  0  0  0  0
  -28.7700  -20.2150   20.4740 N   0  0  1  0  0  4  0  0  0  0  0  0
  -28.1160  -20.3060   21.2380 H   0  0  0  0  0  0  0  0  0  0  0  0
  -27.9960  -24.9190   20.7170 C   0  0  0  0  0  2  0  0  0  0  0  0
  -28.2670  -26.3470   20.2440 O   0  0  0  0  0  0  0  0  0  0  0  0
  -24.5880  -31.9310   23.2480 C   0  0  0  0  0  0  0  0  0  0  0  0
  -27.1950  -27.2860   20.2200 C   0  0  0  0  0  0  0  0  0  0  0  0
  -23.3950  -30.5310   21.6060 C   0  0  0  0  0  3  0  0  0  0  0  0
  -24.8510  -28.9700   20.1850 C   0  0  0  0  0  0  0  0  0  0  0  0
  -25.9420  -30.8250   21.4400 C   0  0  0  0  0  2  0  0  0  0  0  0
  -26.0240  -29.4370   20.7940 C   0  0  0  0  0  0  0  0  0  0  0  0
  -27.2010  -28.6100   20.7980 C   0  0  0  0  0  3  0  0  0  0  0  0
  -26.0050  -26.9070   19.5670 C   0  0  0  0  0  3  0  0  0  0  0  0
  -24.8490  -27.7150   19.5580 C   0  0  0  0  0  3  0  0  0  0  0  0
  -23.6160  -29.8530   20.2280 C   0  0  0  0  0  2  0  0  0  0  0  0
  -24.6610  -31.1150   22.1540 N   0  0  0  0  0  0  0  0  0  0  0  0
  -23.5020  -32.2110   23.7750 O   0  0  0  0  0  0  0  0  0  0  0  0
  -22.7220  -29.5200   22.5670 C   0  0  0  0  0  0  0  0  0  0  0  0
  -21.3950  -29.3410   22.4300 N   0  0  0  0  0  0  0  0  0  0  0  0
  -23.3930  -28.8970   23.3940 O   0  0  0  0  0  0  0  0  0  0  0  0
  -20.9110  -29.8930   21.7370 H   0  0  0  0  0  0  0  0  0  0  0  0
  -18.0160  -28.1330   22.9150 C   0  0  0  0  0  0  0  0  0  0  0  0
  -20.5730  -28.4030   23.1990 C   0  0  0  0  0  3  0  0  0  0  0  0
  -20.6830  -26.9700   22.6280 C   0  0  0  0  0  2  0  0  0  0  0  0
  -19.5870  -26.6410   21.6090 C   0  0  0  0  0  2  0  0  0  0  0  0
  -18.2010  -26.7840   22.2420 C   0  0  0  0  0  2  0  0  0  0  0  0
  -19.1300  -28.9000   23.3510 C   0  0  0  0  0  0  0  0  0  0  0  0
  -18.9020  -30.1640   23.9390 C   0  0  0  0  0  3  0  0  0  0  0  0
  -17.5950  -30.6600   24.0970 C   0  0  0  0  0  3  0  0  0  0  0  0
  -16.4950  -29.8890   23.6790 C   0  0  0  0  0  3  0  0  0  0  0  0
  -16.7080  -28.6280   23.0950 C   0  0  0  0  0  3  0  0  0  0  0  0
  -25.8660  -32.5680   23.8770 C   0  0  0  0  0  3  0  0  0  0  0  0
  -25.5570  -33.9720   24.1900 N   0  0  0  0  0  0  0  0  0  0  0  0
  -25.8990  -35.0180   23.4250 C   0  0  0  0  0  0  0  0  0  0  0  0
  -26.5770  -34.9010   22.4000 O   0  0  0  0  0  0  0  0  0  0  0  0
  -24.9590  -34.1350   24.9860 H   0  0  0  0  0  0  0  0  0  0  0  0
  -24.1960  -36.8270   23.0260 C   0  0  0  0  0  1  0  0  0  0  0  0
  -25.4150  -36.4140   23.8650 C   0  0  0  0  0  3  0  0  0  0  0  0
  -27.5380  -37.2870   24.7420 C   0  0  0  0  0  1  0  0  0  0  0  0
  -26.4610  -37.4570   23.7700 N   0  0  0  0  0  0  0  0  0  0  0  0
  -26.0580  -38.3810   23.9000 H   0  0  0  0  0  0  0  0  0  0  0  0
  -26.3630  -31.8110   25.1700 C   0  0  1  0  0  0  0  0  0  0  0  0
  -25.2560  -31.5900   26.2270 C   0  0  0  0  0  1  0  0  0  0  0  0
  -26.9460  -30.4250   24.8070 C   0  0  0  0  0  1  0  0  0  0  0  0
  -27.5090  -32.6100   25.8360 C   0  0  0  0  0  1  0  0  0  0  0  0
  -28.8160  -18.6380   20.3810 C   0  0  0  0  0  2  0  0  0  0  0  0
  -30.1100  -17.6280   20.5130 C   0  0  0  0  0  3  0  0  0  0  0  0
  -30.5730  -14.9100   20.4490 C   0  0  0  0  0  0  0  0  0  0  0  0
  -30.4000  -12.6190   19.4370 C   0  0  0  0  0  2  0  0  0  0  0  0
  -29.4860  -12.6730   18.1930 C   0  0  0  0  0  2  0  0  0  0  0  0
  -28.0130  -12.4700   18.5940 C   0  0  0  0  0  2  0  0  0  0  0  0
  -27.6030  -13.3500   19.8080 C   0  0  0  0  0  3  0  0  0  0  0  0
  -28.6450  -13.3010   20.9450 C   0  0  0  0  0  2  0  0  0  0  0  0
  -29.9380  -13.6840   20.3610 N   0  0  0  0  0  0  0  0  0  0  0  0
  -31.7850  -14.9450   20.2490 O   0  0  0  0  0  0  0  0  0  0  0  0
  -29.8070  -16.0850   20.5310 N   0  0  0  0  0  0  0  0  0  0  0  0
  -28.8240  -15.8780   20.6310 H   0  0  0  0  0  0  0  0  0  0  0  0
  -25.2000  -13.9090   20.4930 C   0  0  0  0  0  0  0  0  0  0  0  0
  -24.1350  -13.1240   20.8420 C   0  0  0  0  0  0  0  0  0  0  0  0
  -24.6140  -11.7780   20.8240 C   0  0  0  0  0  0  0  0  0  0  0  0
  -26.2560  -13.0410   20.2780 N   0  0  0  0  0  0  0  0  0  0  0  0
  -25.9120  -11.7540   20.5420 N   0  0  0  0  0  0  0  0  0  0  0  0
  -23.8970  -10.5080   20.9990 C   0  0  0  0  0  0  0  0  0  0  0  0
  -24.3100   -9.5500   21.9520 C   0  0  0  0  0  3  0  0  0  0  0  0
  -23.5890   -8.3480   22.1160 C   0  0  0  0  0  3  0  0  0  0  0  0
  -22.4440   -8.0920   21.3260 C   0  0  0  0  0  0  0  0  0  0  0  0
  -22.0500   -9.0370   20.3630 C   0  0  0  0  0  3  0  0  0  0  0  0
  -22.7710  -10.2320   20.1970 C   0  0  0  0  0  3  0  0  0  0  0  0
  -21.7000   -6.9380   21.3970 O   0  0  0  0  0  0  0  0  0  0  0  0
  -21.6110   -6.2080   22.5550 C   0  0  0  0  0  0  0  0  0  0  0  0
  -21.1050   -6.7650   23.7500 C   0  0  0  0  0  3  0  0  0  0  0  0
  -20.9660   -5.9600   24.8970 C   0  0  0  0  0  3  0  0  0  0  0  0
  -21.3260   -4.6000   24.8530 C   0  0  0  0  0  0  0  0  0  0  0  0
  -21.8240   -4.0420   23.6630 C   0  0  0  0  0  3  0  0  0  0  0  0
  -21.9640   -4.8440   22.5170 C   0  0  0  0  0  0  0  0  0  0  0  0
  -22.4260   -4.2960   21.3660 F   0  0  0  0  0  0  0  0  0  0  0  0
  -21.1830   -3.8250   25.9540 F   0  0  0  0  0  0  0  0  0  0  0  0
  -22.7270  -13.5850   21.0780 C   0  0  0  0  0  0  0  0  0  0  0  0
  -21.9850  -12.8810   21.9250 N   0  0  0  0  0  0  0  0  0  0  0  0
  -22.2920  -14.6070   20.5480 O   0  0  0  0  0  0  0  0  0  0  0  0
  -22.3480  -12.0550   22.3770 H   0  0  0  0  0  0  0  0  0  0  0  0
  -21.0390  -13.1740   22.1260 H   0  0  0  0  0  0  0  0  0  0  0  0
  -25.3510  -15.2820   20.3100 N   0  0  0  0  0  0  0  0  0  0  0  0
  -24.5650  -15.9200   20.3840 H   0  0  0  0  0  0  0  0  0  0  0  0
  -26.1770  -15.7150   19.9200 H   0  0  0  0  0  0  0  0  0  0  0  0
  -30.9380  -17.3800   18.0540 C   0  0  0  0  0  1  0  0  0  0  0  0
  -31.1570  -18.0500   19.4260 C   0  0  0  0  0  3  0  0  0  0  0  0
  -33.5550  -18.9830   19.2050 C   0  0  0  0  0  1  0  0  0  0  0  0
  -32.6320  -17.9630   19.8910 C   0  0  0  0  0  2  0  0  0  0  0  0
  2  5  1  0
  3  1  1  0
  4  2  1  0
  4  6  1  0
  5  8  1  0
  5  1  1  0
  6  3  1  0
  6  7  1  1
  9  8  1  0
 10 21  2  0
 11  9  1  0
 11 16  1  0
 12 20  1  0
 12 22  1  0
 13 19  1  0
 13 15  1  0
 14 20  1  0
 15 16  2  0
 15 14  1  0
 17 11  2  0
 18 17  1  0
 18 13  2  0
 19 12  1  0
 20 10  1  0
 22 24  2  0
 23 22  1  0
 25 23  1  0
 26 35  2  0
 26 31  1  0
 27 23  1  0
 27 31  1  0
 28 27  1  0
 29 30  1  0
 29 28  1  0
 30 26  1  0
 31 32  2  0
 32 33  1  0
 34 33  2  0
 35 34  1  0
 36 10  1  0
 36 37  1  0
 36 46  1  0
 37 40  1  0
 38 42  1  0
 38 37  1  0
 39 38  2  0
 42 41  1  0
 44 42  1  0
 44 45  1  0
 44 43  1  0
 46 49  1  1
 46 47  1  0
 48 46  1  0
 50  6  1  0
 51 50  1  0
 51 60  1  0
 52 60  1  0
 53 58  1  0
 54 55  1  0
 54 53  1  0
 56 55  1  0
 56 65  1  0
 56 57  1  0
 58 52  1  0
 58 57  1  0
 59 52  2  0
 60 61  1  0
 62 63  2  0
 63 82  1  0
 64 63  1  0
 64 67  1  0
 65 62  1  0
 65 66  1  0
 66 64  2  0
 67 68  1  0
 68 69  2  0
 70 73  1  0
 70 69  1  0
 71 70  2  0
 72 71  1  0
 72 67  2  0
 73 74  1  0
 74 75  1  0
 75 76  2  0
 77 76  1  0
 77 81  1  0
 78 77  2  0
 79 74  2  0
 79 78  1  0
 80 79  1  0
 82 83  1  0
 83 86  1  0
 83 85  1  0
 84 82  2  0
 87 88  1  0
 87 62  1  0
 89 87  1  0
 91 90  1  0
 91 93  1  0
 91 51  1  0
 92 93  1  0
M  ISO  4   8 101   9 101  52 100  60 100
M  END
>  <TORSDO>  (16) 
F 21

>  <SCORE>  (16) 
-13.682

>  <name>  (16) 
15

>  <ligand_id>  (16) 
15

>  <original_smiles>  (16) 
[H]c1c([H])c([H])c2c(c1[H])C([H])([H])C([H])([H])C([H])([H])C2([H])N([H])C(=O)C1([H])N(C(=O)C([H])(N([H])C(=O)C([H])(N([H])C([H])([H])[H])C([H])([H])[H])C(C([H])([H])[H])(C([H])([H])[H])C([H])([H])[H])C([H])([H])c2c([H])c(OC([H])([H])C3([H])C([H])([H])C([H])([H])[N+]([H])(C([H])([H])C([H])(N([H])C(=O)N4C([H])([H])C([H])([H])C([H])([H])C([H])(n5nc(-c6c([H])c([H])c(Oc7c([H])c([H])c(F)c([H])c7F)c([H])c6[H])c(C(=O)N([H])[H])c5N([H])[H])C4([H])[H])C([H])(C([H])([H])[H])C([H])([H])C([H])([H])[H])C([H])([H])C3([H])[H])c([H])c([H])c2C1([H])[H]

>  <smiles>  (16) 
[H]c1c([H])c([H])c2c(c1[H])C([H])([H])C([H])([H])C([H])([H])C2([H])N([H])C(=O)C1([H])N(C(=O)C([H])(N([H])C(=O)C([H])(N([H])C([H])([H])[H])C([H])([H])[H])C(C([H])([H])[H])(C([H])([H])[H])C([H])([H])[H])C([H])([H])c2c([H])c(OC([H])([H])C3([H])C([H])([H])C([H])([H])[N+]([H])(C([H])([H])C([H])(N([H])C(=O)N4C([H])([H])C([H])([H])C([H])([H])C([H])(n5nc(-c6c([H])c([H])c(Oc7c([H])c([H])c(F)c([H])c7F)c([H])c6[H])c(C(=O)N([H])[H])c5N([H])[H])C4([H])[H])C([H])(C([H])([H])[H])C([H])([H])C([H])([H])[H])C([H])([H])C3([H])[H])c([H])c([H])c2C1([H])[H]

$$$$
16:0:0
     RDKit          3D

 98105  0  0  1  0  0  0  0  0999 V2000
  -31.0890  -19.2950   20.8010 C   0  0  0  0  0  2  0  0  0  0  0  0
  -31.2820  -17.7450   20.7370 C   0  0  0  0  0  2  0  0  0  0  0  0
  -29.9500  -16.9490   20.7330 C   0  0  0  0  0  3  0  0  0  0  0  0
  -30.7660  -14.5450   20.2720 C   0  0  0  0  0  0  0  0  0  0  0  0
  -30.4200  -12.4550   19.0080 C   0  0  0  0  0  2  0  0  0  0  0  0
  -29.4160  -12.7600   17.8760 C   0  0  0  0  0  2  0  0  0  0  0  0
  -27.9610  -12.6210   18.3690 C   0  0  0  0  0  2  0  0  0  0  0  0
  -27.7060  -13.3580   19.7110 C   0  0  0  0  0  3  0  0  0  0  0  0
  -28.8140  -13.0210   20.7370 C   0  0  0  0  0  2  0  0  0  0  0  0
  -30.1160  -13.3570   20.1300 N   0  0  0  0  0  0  0  0  0  0  0  0
  -31.8460  -14.7930   19.7300 O   0  0  0  0  0  0  0  0  0  0  0  0
  -30.0300  -15.4840   20.8970 N   0  0  0  0  0  0  0  0  0  0  0  0
  -29.2260  -15.0880   21.3620 H   0  0  0  0  0  0  0  0  0  0  0  0
  -25.3380  -13.9580   20.5240 C   0  0  0  0  0  0  0  0  0  0  0  0
  -24.2830  -13.1820   20.9180 C   0  0  0  0  0  0  0  0  0  0  0  0
  -24.7360  -11.8310   20.8310 C   0  0  0  0  0  0  0  0  0  0  0  0
  -26.3710  -13.0790   20.2330 N   0  0  0  0  0  0  0  0  0  0  0  0
  -26.0130  -11.7930   20.4740 N   0  0  0  0  0  0  0  0  0  0  0  0
  -24.0090  -10.5700   21.0170 C   0  0  0  0  0  0  0  0  0  0  0  0
  -24.4520   -9.5950   21.9390 C   0  0  0  0  0  3  0  0  0  0  0  0
  -23.7270   -8.3970   22.1140 C   0  0  0  0  0  3  0  0  0  0  0  0
  -22.5470   -8.1660   21.3700 C   0  0  0  0  0  0  0  0  0  0  0  0
  -22.1230   -9.1300   20.4390 C   0  0  0  0  0  3  0  0  0  0  0  0
  -22.8480  -10.3200   20.2600 C   0  0  0  0  0  3  0  0  0  0  0  0
  -21.7940   -7.0190   21.4560 O   0  0  0  0  0  0  0  0  0  0  0  0
  -21.7440   -6.2780   22.6080 C   0  0  0  0  0  0  0  0  0  0  0  0
  -21.2830   -6.8230   23.8270 C   0  0  0  0  0  3  0  0  0  0  0  0
  -21.1800   -6.0060   24.9700 C   0  0  0  0  0  3  0  0  0  0  0  0
  -21.5280   -4.6440   24.8960 C   0  0  0  0  0  0  0  0  0  0  0  0
  -21.9820   -4.0980   23.6820 C   0  0  0  0  0  3  0  0  0  0  0  0
  -22.0860   -4.9130   22.5410 C   0  0  0  0  0  0  0  0  0  0  0  0
  -22.5040   -4.3760   21.3690 F   0  0  0  0  0  0  0  0  0  0  0  0
  -21.4210   -3.8570   25.9910 F   0  0  0  0  0  0  0  0  0  0  0  0
  -22.9010  -13.6600   21.2600 C   0  0  0  0  0  0  0  0  0  0  0  0
  -22.2040  -12.9450   22.1350 N   0  0  0  0  0  0  0  0  0  0  0  0
  -22.4500  -14.7040   20.7890 O   0  0  0  0  0  0  0  0  0  0  0  0
  -22.5820  -12.0990   22.5360 H   0  0  0  0  0  0  0  0  0  0  0  0
  -21.2790  -13.2480   22.4040 H   0  0  0  0  0  0  0  0  0  0  0  0
  -25.4910  -15.3290   20.3710 N   0  0  0  0  0  0  0  0  0  0  0  0
  -24.7220  -15.9610   20.5540 H   0  0  0  0  0  0  0  0  0  0  0  0
  -26.3260  -15.7850   20.0320 H   0  0  0  0  0  0  0  0  0  0  0  0
  -29.0340  -17.3040   19.5340 C   0  0  0  0  0  2  0  0  0  0  0  0
  -27.9330  -18.3080   19.9220 C   0  0  0  0  0  2  0  0  0  0  0  0
  -27.2250  -18.9500   18.7160 C   0  0  0  0  0  2  0  0  0  0  0  0
  -26.2330  -20.0530   19.1370 C   0  0  0  0  0  2  0  0  0  0  0  0
  -25.6340  -20.7440   17.9810 N   0  0  0  0  0  4  0  0  0  0  0  0
  -26.3370  -21.1910   17.4190 H   0  0  0  0  0  0  0  0  0  0  0  0
  -24.9980  -21.4520   18.3030 H   0  0  0  0  0  0  0  0  0  0  0  0
  -25.1190  -20.1030   17.4040 H   0  0  0  0  0  0  0  0  0  0  0  0
  -31.1840  -20.0590   19.4500 C   0  0  0  0  0  2  0  0  0  0  0  0
  -29.9630  -20.9370   19.0600 C   0  0  0  0  0  2  0  0  0  0  0  0
  -30.0270  -22.3580   19.4980 N   0  0  0  0  0  4  0  0  0  0  0  0
  -30.8750  -22.7620   19.1370 H   0  0  0  0  0  0  0  0  0  0  0  0
  -30.0670  -22.4000   20.5020 H   0  0  0  0  0  0  0  0  0  0  0  0
  -28.8730  -23.1650   19.0060 C   0  0  0  0  0  2  0  0  0  0  0  0
  -29.0510  -24.7050   19.0820 C   0  0  0  0  0  2  0  0  0  0  0  0
  -28.5720  -25.3640   20.3900 C   0  0  0  0  0  2  0  0  0  0  0  0
  -28.5930  -26.7960   20.2880 O   0  0  0  0  0  0  0  0  0  0  0  0
  -24.6380  -31.9030   23.2500 C   0  0  0  0  0  0  0  0  0  0  0  0
  -27.3910  -27.4740   20.2510 C   0  0  0  0  0  0  0  0  0  0  0  0
  -23.4740  -30.4770   21.5980 C   0  0  0  0  0  3  0  0  0  0  0  0
  -24.9680  -28.9410   20.2100 C   0  0  0  0  0  0  0  0  0  0  0  0
  -25.9970  -30.8640   21.4360 C   0  0  0  0  0  2  0  0  0  0  0  0
  -26.1090  -29.4880   20.8110 C   0  0  0  0  0  0  0  0  0  0  0  0
  -27.3210  -28.7640   20.8240 C   0  0  0  0  0  3  0  0  0  0  0  0
  -26.2320  -26.9370   19.6430 C   0  0  0  0  0  3  0  0  0  0  0  0
  -25.0260  -27.6650   19.6210 C   0  0  0  0  0  3  0  0  0  0  0  0
  -23.7140  -29.7860   20.2290 C   0  0  0  0  0  2  0  0  0  0  0  0
  -24.7200  -31.0970   22.1540 N   0  0  0  0  0  0  0  0  0  0  0  0
  -23.5460  -32.1670   23.7730 O   0  0  0  0  0  0  0  0  0  0  0  0
  -22.8180  -29.4560   22.5560 C   0  0  0  0  0  0  0  0  0  0  0  0
  -21.4950  -29.2760   22.4210 N   0  0  0  0  0  0  0  0  0  0  0  0
  -23.4970  -28.8300   23.3730 O   0  0  0  0  0  0  0  0  0  0  0  0
  -21.0080  -29.8350   21.7340 H   0  0  0  0  0  0  0  0  0  0  0  0
  -18.1120  -28.1120   22.9250 C   0  0  0  0  0  0  0  0  0  0  0  0
  -20.6740  -28.3370   23.1850 C   0  0  0  0  0  3  0  0  0  0  0  0
  -20.7560  -26.9110   22.5910 C   0  0  0  0  0  2  0  0  0  0  0  0
  -19.6450  -26.6140   21.5800 C   0  0  0  0  0  2  0  0  0  0  0  0
  -18.2690  -26.7670   22.2340 C   0  0  0  0  0  2  0  0  0  0  0  0
  -19.2420  -28.8560   23.3580 C   0  0  0  0  0  0  0  0  0  0  0  0
  -19.0420  -30.1150   23.9630 C   0  0  0  0  0  3  0  0  0  0  0  0
  -17.7450  -30.6310   24.1430 C   0  0  0  0  0  3  0  0  0  0  0  0
  -16.6290  -29.8840   23.7260 C   0  0  0  0  0  3  0  0  0  0  0  0
  -16.8130  -28.6270   23.1230 C   0  0  0  0  0  3  0  0  0  0  0  0
  -25.9070  -32.5530   23.8860 C   0  0  0  0  0  3  0  0  0  0  0  0
  -25.5810  -33.9490   24.1990 N   0  0  0  0  0  0  0  0  0  0  0  0
  -25.9200  -34.9980   23.4370 C   0  0  0  0  0  0  0  0  0  0  0  0
  -26.6100  -34.8920   22.4200 O   0  0  0  0  0  0  0  0  0  0  0  0
  -24.9710  -34.1060   24.9870 H   0  0  0  0  0  0  0  0  0  0  0  0
  -24.1900  -36.7770   23.0240 C   0  0  0  0  0  1  0  0  0  0  0  0
  -25.4110  -36.3860   23.8720 C   0  0  0  0  0  3  0  0  0  0  0  0
  -27.5120  -37.2950   24.7600 C   0  0  0  0  0  1  0  0  0  0  0  0
  -26.4390  -37.4440   23.7810 N   0  0  0  0  0  0  0  0  0  0  0  0
  -26.0230  -38.3640   23.9050 H   0  0  0  0  0  0  0  0  0  0  0  0
  -26.4130  -31.7950   25.1760 C   0  0  1  0  0  0  0  0  0  0  0  0
  -25.3050  -31.5410   26.2240 C   0  0  0  0  0  1  0  0  0  0  0  0
  -27.0290  -30.4280   24.7960 C   0  0  0  0  0  1  0  0  0  0  0  0
  -27.5370  -32.6120   25.8560 C   0  0  0  0  0  1  0  0  0  0  0  0
  2  1  1  0
  3 42  1  0
  3  2  1  0
  3 12  1  0
  4 12  1  0
  5 10  1  0
  6  7  1  0
  6  5  1  0
  8  7  1  0
  8 17  1  0
  8  9  1  0
 10  4  1  0
 10  9  1  0
 11  4  2  0
 12 13  1  0
 14 15  2  0
 15 34  1  0
 16 15  1  0
 16 19  1  0
 17 18  1  0
 17 14  1  0
 18 16  2  0
 19 20  1  0
 20 21  2  0
 22 25  1  0
 22 21  1  0
 23 22  2  0
 24 23  1  0
 24 19  2  0
 25 26  1  0
 26 27  1  0
 27 28  2  0
 29 28  1  0
 29 33  1  0
 30 29  2  0
 31 26  2  0
 31 30  1  0
 32 31  1  0
 34 35  1  0
 35 38  1  0
 35 37  1  0
 36 34  2  0
 39 14  1  0
 39 40  1  0
 41 39  1  0
 42 43  1  0
 44 45  1  0
 44 43  1  0
 46 48  1  0
 46 45  1  0
 47 46  1  0
 49 46  1  0
 50  1  1  0
 51 50  1  0
 51 52  1  0
 52 54  1  0
 53 52  1  0
 55 56  1  0
 55 52  1  0
 56 57  1  0
 58 57  1  0
 59 70  2  0
 60 58  1  0
 60 65  1  0
 61 69  1  0
 61 71  1  0
 62 68  1  0
 62 64  1  0
 63 69  1  0
 64 65  2  0
 64 63  1  0
 66 60  2  0
 67 66  1  0
 67 62  2  0
 68 61  1  0
 69 59  1  0
 71 73  2  0
 72 71  1  0
 74 72  1  0
 75 84  2  0
 75 80  1  0
 76 72  1  0
 76 80  1  0
 77 76  1  0
 78 79  1  0
 78 77  1  0
 79 75  1  0
 80 81  2  0
 81 82  1  0
 83 82  2  0
 84 83  1  0
 85 59  1  0
 85 86  1  0
 85 95  1  0
 86 89  1  0
 87 91  1  0
 87 86  1  0
 88 87  2  0
 91 90  1  0
 93 91  1  0
 93 94  1  0
 93 92  1  0
 95 98  1  1
 95 96  1  0
 97 95  1  0
M  ISO  4   4 100  12 100  57 101  58 101
M  END
>  <TORSDO>  (17) 
F 29

>  <SCORE>  (17) 
-11.185

>  <name>  (17) 
16

>  <ligand_id>  (17) 
16

>  <original_smiles>  (17) 
[H]c1c([H])c([H])c2c(c1[H])C([H])([H])C([H])([H])C([H])([H])C2([H])N([H])C(=O)C1([H])N(C(=O)C([H])(N([H])C(=O)C([H])(N([H])C([H])([H])[H])C([H])([H])[H])C(C([H])([H])[H])(C([H])([H])[H])C([H])([H])[H])C([H])([H])c2c([H])c(OC([H])([H])C([H])([H])C([H])([H])[N+]([H])([H])C([H])([H])C([H])([H])C([H])([H])C([H])([H])C([H])(N([H])C(=O)N3C([H])([H])C([H])([H])C([H])([H])C([H])(n4nc(-c5c([H])c([H])c(Oc6c([H])c([H])c(F)c([H])c6F)c([H])c5[H])c(C(=O)N([H])[H])c4N([H])[H])C3([H])[H])C([H])([H])C([H])([H])C([H])([H])C([H])([H])[N+]([H])([H])[H])c([H])c([H])c2C1([H])[H]

>  <smiles>  (17) 
[H]c1c([H])c([H])c2c(c1[H])C([H])([H])C([H])([H])C([H])([H])C2([H])N([H])C(=O)C1([H])N(C(=O)C([H])(N([H])C(=O)C([H])(N([H])C([H])([H])[H])C([H])([H])[H])C(C([H])([H])[H])(C([H])([H])[H])C([H])([H])[H])C([H])([H])c2c([H])c(OC([H])([H])C([H])([H])C([H])([H])[N+]([H])([H])C([H])([H])C([H])([H])C([H])([H])C([H])([H])C([H])(N([H])C(=O)N3C([H])([H])C([H])([H])C([H])([H])C([H])(n4nc(-c5c([H])c([H])c(Oc6c([H])c([H])c(F)c([H])c6F)c([H])c5[H])c(C(=O)N([H])[H])c4N([H])[H])C3([H])[H])C([H])([H])C([H])([H])C([H])([H])C([H])([H])[N+]([H])([H])[H])c([H])c([H])c2C1([H])[H]

$$$$
17:0:0
     RDKit          3D

 89 96  0  0  1  0  0  0  0  0999 V2000
  -28.3820  -22.1000   20.1660 C   0  0  0  0  0  3  0  0  0  0  0  0
  -26.6420  -20.6590   18.8790 C   0  0  0  0  0  1  0  0  0  0  0  0
  -27.3670  -22.0090   19.0070 C   0  0  0  0  0  2  0  0  0  0  0  0
  -28.3260  -23.9690   20.6630 C   0  0  0  0  0  2  0  0  0  0  0  0
  -28.2650  -25.6640   20.2450 O   0  0  0  0  0  0  0  0  0  0  0  0
  -24.6250  -31.8760   23.1780 C   0  0  0  0  0  0  0  0  0  0  0  0
  -27.2430  -26.8180   20.2970 C   0  0  0  0  0  0  0  0  0  0  0  0
  -23.4770  -30.4600   21.5290 C   0  0  0  0  0  3  0  0  0  0  0  0
  -24.9580  -28.8090   20.1720 C   0  0  0  0  0  0  0  0  0  0  0  0
  -26.0540  -30.6270   21.4540 C   0  0  0  0  0  2  0  0  0  0  0  0
  -26.1400  -29.1890   20.8210 C   0  0  0  0  0  0  0  0  0  0  0  0
  -27.2720  -28.2240   20.8430 C   0  0  0  0  0  3  0  0  0  0  0  0
  -26.0240  -26.6330   19.5990 C   0  0  0  0  0  3  0  0  0  0  0  0
  -24.9360  -27.5550   19.5380 C   0  0  0  0  0  3  0  0  0  0  0  0
  -23.7470  -29.7520   20.1720 C   0  0  0  0  0  2  0  0  0  0  0  0
  -24.7410  -31.0210   22.1070 N   0  0  0  0  0  0  0  0  0  0  0  0
  -23.5200  -32.1730   23.6650 O   0  0  0  0  0  0  0  0  0  0  0  0
  -22.7480  -29.4840   22.4920 C   0  0  0  0  0  0  0  0  0  0  0  0
  -21.4140  -29.3490   22.3640 N   0  0  0  0  0  0  0  0  0  0  0  0
  -23.3950  -28.8450   23.3250 O   0  0  0  0  0  0  0  0  0  0  0  0
  -20.9430  -29.9150   21.6720 H   0  0  0  0  0  0  0  0  0  0  0  0
  -18.0030  -28.2200   22.8990 C   0  0  0  0  0  0  0  0  0  0  0  0
  -20.5730  -28.4200   23.1290 C   0  0  0  0  0  3  0  0  0  0  0  0
  -20.6300  -26.9970   22.5280 C   0  0  0  0  0  2  0  0  0  0  0  0
  -19.5060  -26.7210   21.5230 C   0  0  0  0  0  2  0  0  0  0  0  0
  -18.1370  -26.8830   22.1890 C   0  0  0  0  0  2  0  0  0  0  0  0
  -19.1450  -28.9490   23.3260 C   0  0  0  0  0  0  0  0  0  0  0  0
  -18.9610  -30.1990   23.9550 C   0  0  0  0  0  3  0  0  0  0  0  0
  -17.6700  -30.7210   24.1580 C   0  0  0  0  0  3  0  0  0  0  0  0
  -16.5430  -29.9900   23.7440 C   0  0  0  0  0  3  0  0  0  0  0  0
  -16.7100  -28.7410   23.1210 C   0  0  0  0  0  3  0  0  0  0  0  0
  -25.8720  -32.5370   23.8400 C   0  0  0  0  0  3  0  0  0  0  0  0
  -25.5390  -33.9410   24.1510 N   0  0  0  0  0  0  0  0  0  0  0  0
  -25.8920  -35.0000   23.4100 C   0  0  0  0  0  0  0  0  0  0  0  0
  -26.5910  -34.8990   22.3990 O   0  0  0  0  0  0  0  0  0  0  0  0
  -24.9230  -34.0920   24.9360 H   0  0  0  0  0  0  0  0  0  0  0  0
  -24.1800  -36.8070   23.0120 C   0  0  0  0  0  1  0  0  0  0  0  0
  -25.3960  -36.3910   23.8580 C   0  0  0  0  0  3  0  0  0  0  0  0
  -27.5010  -37.2770   24.7620 C   0  0  0  0  0  1  0  0  0  0  0  0
  -26.4330  -37.4430   23.7800 N   0  0  0  0  0  0  0  0  0  0  0  0
  -26.0240  -38.3640   23.9100 H   0  0  0  0  0  0  0  0  0  0  0  0
  -26.3380  -31.7960   25.1540 C   0  0  1  0  0  0  0  0  0  0  0  0
  -25.2050  -31.5790   26.1850 C   0  0  0  0  0  1  0  0  0  0  0  0
  -26.9390  -30.4100   24.8250 C   0  0  0  0  0  1  0  0  0  0  0  0
  -27.4620  -32.6070   25.8420 C   0  0  0  0  0  1  0  0  0  0  0  0
  -29.4730  -20.5140   20.0460 C   0  0  0  0  0  3  0  0  0  0  0  0
  -30.8210  -20.9810   20.4000 N   0  0  0  0  0  4  0  0  0  0  0  0
  -30.8860  -21.1630   21.3850 H   0  0  0  0  0  0  0  0  0  0  0  0
  -31.0440  -21.8250   19.9030 H   0  0  0  0  0  0  0  0  0  0  0  0
  -31.5050  -20.2850   20.1600 H   0  0  0  0  0  0  0  0  0  0  0  0
  -29.4590  -18.6780   20.6150 C   0  0  0  0  0  2  0  0  0  0  0  0
  -30.3750  -15.6640   20.0760 C   0  0  0  0  0  0  0  0  0  0  0  0
  -30.4400  -13.1700   19.1460 C   0  0  0  0  0  2  0  0  0  0  0  0
  -29.5000  -12.8060   17.9640 C   0  0  0  0  0  2  0  0  0  0  0  0
  -28.0860  -12.4580   18.4610 C   0  0  0  0  0  2  0  0  0  0  0  0
  -27.6190  -13.4320   19.5660 C   0  0  0  0  0  3  0  0  0  0  0  0
  -28.6930  -13.6940   20.6440 C   0  0  0  0  0  2  0  0  0  0  0  0
  -29.8390  -14.3200   19.9460 N   0  0  0  0  0  0  0  0  0  0  0  0
  -31.6150  -15.6160   19.9860 O   0  0  0  0  0  0  0  0  0  0  0  0
  -29.5930  -16.9970   20.0800 N   0  0  0  0  0  0  0  0  0  0  0  0
  -28.6550  -16.7210   19.8300 H   0  0  0  0  0  0  0  0  0  0  0  0
  -25.2720  -13.9430   20.3980 C   0  0  0  0  0  0  0  0  0  0  0  0
  -24.2300  -13.1520   20.7890 C   0  0  0  0  0  0  0  0  0  0  0  0
  -24.7150  -11.8080   20.7440 C   0  0  0  0  0  0  0  0  0  0  0  0
  -26.3200  -13.0840   20.1240 N   0  0  0  0  0  0  0  0  0  0  0  0
  -26.0010  -11.7920   20.4010 N   0  0  0  0  0  0  0  0  0  0  0  0
  -24.0070  -10.5360   20.9470 C   0  0  0  0  0  0  0  0  0  0  0  0
  -24.4510   -9.5840   21.8910 C   0  0  0  0  0  3  0  0  0  0  0  0
  -23.7390   -8.3810   22.0840 C   0  0  0  0  0  3  0  0  0  0  0  0
  -22.5700   -8.1200   21.3330 C   0  0  0  0  0  0  0  0  0  0  0  0
  -22.1440   -9.0600   20.3780 C   0  0  0  0  0  3  0  0  0  0  0  0
  -22.8560  -10.2560   20.1840 C   0  0  0  0  0  3  0  0  0  0  0  0
  -21.8290   -6.9670   21.4350 O   0  0  0  0  0  0  0  0  0  0  0  0
  -21.7720   -6.2470   22.6020 C   0  0  0  0  0  0  0  0  0  0  0  0
  -21.2960   -6.8140   23.8040 C   0  0  0  0  0  3  0  0  0  0  0  0
  -21.1910   -6.0200   24.9640 C   0  0  0  0  0  3  0  0  0  0  0  0
  -21.5500   -4.6590   24.9210 C   0  0  0  0  0  0  0  0  0  0  0  0
  -22.0190   -4.0920   23.7230 C   0  0  0  0  0  3  0  0  0  0  0  0
  -22.1270   -4.8840   22.5660 C   0  0  0  0  0  0  0  0  0  0  0  0
  -22.5590   -4.3270   21.4080 F   0  0  0  0  0  0  0  0  0  0  0  0
  -21.4420   -3.8940   26.0320 F   0  0  0  0  0  0  0  0  0  0  0  0
  -22.8330  -13.6110   21.0850 C   0  0  0  0  0  0  0  0  0  0  0  0
  -22.1280  -12.9060   21.9630 N   0  0  0  0  0  0  0  0  0  0  0  0
  -22.3760  -14.6320   20.5730 O   0  0  0  0  0  0  0  0  0  0  0  0
  -22.5130  -12.0820   22.3990 H   0  0  0  0  0  0  0  0  0  0  0  0
  -21.1920  -13.1960   22.2040 H   0  0  0  0  0  0  0  0  0  0  0  0
  -25.4100  -15.3170   20.2180 N   0  0  0  0  0  0  0  0  0  0  0  0
  -24.6330  -15.9570   20.3460 H   0  0  0  0  0  0  0  0  0  0  0  0
  -26.2370  -15.7650   19.8480 H   0  0  0  0  0  0  0  0  0  0  0  0
  1  3  1  0
  1  4  1  0
  2  3  1  0
  5  7  1  0
  5  4  1  0
  6 17  2  0
  7 12  1  0
  8 16  1  0
  8 18  1  0
  9 11  1  0
 10 16  1  0
 11 12  2  0
 11 10  1  0
 13  7  2  0
 14 13  1  0
 14  9  2  0
 15  9  1  0
 15  8  1  0
 16  6  1  0
 18 20  2  0
 19 18  1  0
 21 19  1  0
 22 31  2  0
 22 27  1  0
 23 19  1  0
 23 27  1  0
 24 23  1  0
 25 26  1  0
 25 24  1  0
 26 22  1  0
 27 28  2  0
 28 29  1  0
 30 29  2  0
 31 30  1  0
 32  6  1  0
 32 33  1  0
 32 42  1  0
 33 36  1  0
 34 38  1  0
 34 33  1  0
 35 34  2  0
 38 37  1  0
 40 38  1  0
 40 41  1  0
 40 39  1  0
 42 45  1  1
 42 43  1  0
 44 42  1  0
 46  1  1  0
 46 47  1  0
 46 51  1  0
 47 48  1  0
 49 47  1  0
 50 47  1  0
 52 60  1  0
 53 58  1  0
 54 55  1  0
 54 53  1  0
 56 55  1  0
 56 65  1  0
 56 57  1  0
 58 52  1  0
 58 57  1  0
 59 52  2  0
 60 51  1  0
 61 60  1  0
 62 63  2  0
 63 82  1  0
 64 63  1  0
 64 67  1  0
 65 62  1  0
 65 66  1  0
 66 64  2  0
 67 68  1  0
 68 69  2  0
 70 73  1  0
 70 69  1  0
 71 70  2  0
 72 71  1  0
 72 67  2  0
 73 74  1  0
 74 75  1  0
 75 76  2  0
 77 76  1  0
 77 81  1  0
 78 77  2  0
 79 74  2  0
 79 78  1  0
 80 79  1  0
 82 83  1  0
 83 86  1  0
 83 85  1  0
 84 82  2  0
 87 88  1  0
 87 62  1  0
 89 87  1  0
M  ISO  4   4 101   5 101  52 100  60 100
M  END
>  <TORSDO>  (18) 
F 21

>  <SCORE>  (18) 
-16.054

>  <name>  (18) 
17

>  <ligand_id>  (18) 
17

>  <original_smiles>  (18) 
[H]c1c([H])c([H])c2c(c1[H])C([H])([H])C([H])([H])C([H])([H])C2([H])N([H])C(=O)C1([H])N(C(=O)C([H])(N([H])C(=O)C([H])(N([H])C([H])([H])[H])C([H])([H])[H])C(C([H])([H])[H])(C([H])([H])[H])C([H])([H])[H])C([H])([H])c2c([H])c(OC([H])([H])C([H])(C([H])([H])C([H])([H])[H])C([H])(C([H])([H])N([H])C(=O)N3C([H])([H])C([H])([H])C([H])([H])C([H])(n4nc(-c5c([H])c([H])c(Oc6c([H])c([H])c(F)c([H])c6F)c([H])c5[H])c(C(=O)N([H])[H])c4N([H])[H])C3([H])[H])[N+]([H])([H])[H])c([H])c([H])c2C1([H])[H]

>  <smiles>  (18) 
[H]c1c([H])c([H])c2c(c1[H])C([H])([H])C([H])([H])C([H])([H])C2([H])N([H])C(=O)C1([H])N(C(=O)C([H])(N([H])C(=O)C([H])(N([H])C([H])([H])[H])C([H])([H])[H])C(C([H])([H])[H])(C([H])([H])[H])C([H])([H])[H])C([H])([H])c2c([H])c(OC([H])([H])C([H])(C([H])([H])C([H])([H])[H])C([H])(C([H])([H])N([H])C(=O)N3C([H])([H])C([H])([H])C([H])([H])C([H])(n4nc(-c5c([H])c([H])c(Oc6c([H])c([H])c(F)c([H])c6F)c([H])c5[H])c(C(=O)N([H])[H])c4N([H])[H])C3([H])[H])[N+]([H])([H])[H])c([H])c([H])c2C1([H])[H]

$$$$
18:0:0
     RDKit          3D

 90 97  0  0  1  0  0  0  0  0999 V2000
  -30.7050  -21.4070   20.0940 C   0  0  0  0  0  1  0  0  0  0  0  0
  -29.2450  -21.1940   20.1640 N   0  0  1  0  0  4  0  0  0  0  0  0
  -29.0560  -21.2350   21.1550 H   0  0  0  0  0  0  0  0  0  0  0  0
  -28.4720  -22.5840   19.6220 C   0  0  0  0  0  2  0  0  0  0  0  0
  -28.2590  -24.2150   20.3790 C   0  0  0  0  0  2  0  0  0  0  0  0
  -28.2630  -25.8210   19.9670 O   0  0  0  0  0  0  0  0  0  0  0  0
  -24.6480  -31.7140   23.0870 C   0  0  0  0  0  0  0  0  0  0  0  0
  -27.2130  -26.8760   20.0310 C   0  0  0  0  0  0  0  0  0  0  0  0
  -23.4590  -30.3380   21.4300 C   0  0  0  0  0  3  0  0  0  0  0  0
  -24.9080  -28.7500   19.9950 C   0  0  0  0  0  0  0  0  0  0  0  0
  -26.0260  -30.5560   21.2870 C   0  0  0  0  0  2  0  0  0  0  0  0
  -26.0960  -29.1530   20.6200 C   0  0  0  0  0  0  0  0  0  0  0  0
  -27.2450  -28.2420   20.6030 C   0  0  0  0  0  3  0  0  0  0  0  0
  -25.9920  -26.6180   19.3710 C   0  0  0  0  0  3  0  0  0  0  0  0
  -24.8820  -27.5040   19.3480 C   0  0  0  0  0  3  0  0  0  0  0  0
  -23.6880  -29.6690   20.0460 C   0  0  0  0  0  2  0  0  0  0  0  0
  -24.7330  -30.8970   21.9870 N   0  0  0  0  0  0  0  0  0  0  0  0
  -23.5580  -31.9940   23.6100 O   0  0  0  0  0  0  0  0  0  0  0  0
  -22.7650  -29.3280   22.3810 C   0  0  0  0  0  0  0  0  0  0  0  0
  -21.4290  -29.1960   22.2800 N   0  0  0  0  0  0  0  0  0  0  0  0
  -23.4350  -28.6650   23.1750 O   0  0  0  0  0  0  0  0  0  0  0  0
  -20.9420  -29.7790   21.6130 H   0  0  0  0  0  0  0  0  0  0  0  0
  -18.0290  -28.0630   22.8500 C   0  0  0  0  0  0  0  0  0  0  0  0
  -20.6030  -28.2520   23.0400 C   0  0  0  0  0  3  0  0  0  0  0  0
  -20.6460  -26.8400   22.4080 C   0  0  0  0  0  2  0  0  0  0  0  0
  -19.5040  -26.5880   21.4190 C   0  0  0  0  0  2  0  0  0  0  0  0
  -18.1470  -26.7410   22.1110 C   0  0  0  0  0  2  0  0  0  0  0  0
  -19.1820  -28.7810   23.2710 C   0  0  0  0  0  0  0  0  0  0  0  0
  -19.0130  -30.0200   23.9250 C   0  0  0  0  0  3  0  0  0  0  0  0
  -17.7260  -30.5430   24.1600 C   0  0  0  0  0  3  0  0  0  0  0  0
  -16.5900  -29.8220   23.7540 C   0  0  0  0  0  3  0  0  0  0  0  0
  -16.7420  -28.5840   23.1050 C   0  0  0  0  0  3  0  0  0  0  0  0
  -25.9180  -32.3490   23.7310 C   0  0  0  0  0  3  0  0  0  0  0  0
  -25.5960  -33.7410   24.0960 N   0  0  0  0  0  0  0  0  0  0  0  0
  -25.9190  -34.8210   23.3720 C   0  0  0  0  0  0  0  0  0  0  0  0
  -26.5870  -34.7500   22.3370 O   0  0  0  0  0  0  0  0  0  0  0  0
  -25.0020  -33.8700   24.9020 H   0  0  0  0  0  0  0  0  0  0  0  0
  -24.1740  -36.6130   23.0950 C   0  0  0  0  0  1  0  0  0  0  0  0
  -25.4310  -36.1960   23.8730 C   0  0  0  0  0  3  0  0  0  0  0  0
  -27.5740  -37.0740   24.6900 C   0  0  0  0  0  1  0  0  0  0  0  0
  -26.4550  -37.2590   23.7700 N   0  0  0  0  0  0  0  0  0  0  0  0
  -26.0460  -38.1730   23.9480 H   0  0  0  0  0  0  0  0  0  0  0  0
  -26.4270  -31.5610   25.0010 C   0  0  1  0  0  0  0  0  0  0  0  0
  -25.3300  -31.3120   26.0620 C   0  0  0  0  0  1  0  0  0  0  0  0
  -27.0090  -30.1860   24.6030 C   0  0  0  0  0  1  0  0  0  0  0  0
  -27.5770  -32.3450   25.6740 C   0  0  0  0  0  1  0  0  0  0  0  0
  -28.9430  -19.5680   19.8740 C   0  0  0  0  0  3  0  0  0  0  0  0
  -28.0630  -19.4070   18.6150 C   0  0  0  0  0  2  0  0  0  0  0  0
  -26.1060  -18.0780   19.6200 C   0  0  0  0  0  1  0  0  0  0  0  0
  -25.7300  -19.5510   17.6000 C   0  0  0  0  0  1  0  0  0  0  0  0
  -26.5360  -19.3680   18.8960 C   0  0  0  0  0  3  0  0  0  0  0  0
  -30.0120  -18.1170   20.0620 C   0  0  0  0  0  2  0  0  0  0  0  0
  -30.4710  -15.1990   20.1430 C   0  0  0  0  0  0  0  0  0  0  0  0
  -30.4300  -12.7180   19.3700 C   0  0  0  0  0  2  0  0  0  0  0  0
  -29.5040  -12.4800   18.1510 C   0  0  0  0  0  2  0  0  0  0  0  0
  -28.0530  -12.2400   18.6050 C   0  0  0  0  0  2  0  0  0  0  0  0
  -27.6200  -13.2440   19.7050 C   0  0  0  0  0  3  0  0  0  0  0  0
  -28.6760  -13.4170   20.8160 C   0  0  0  0  0  2  0  0  0  0  0  0
  -29.9020  -13.8950   20.1560 N   0  0  0  0  0  0  0  0  0  0  0  0
  -31.6850  -15.1910   19.8930 O   0  0  0  0  0  0  0  0  0  0  0  0
  -29.7120  -16.4740   20.2110 N   0  0  0  0  0  0  0  0  0  0  0  0
  -28.7380  -16.2830   20.3970 H   0  0  0  0  0  0  0  0  0  0  0  0
  -25.2750  -13.8520   20.4920 C   0  0  0  0  0  0  0  0  0  0  0  0
  -24.2040  -13.1030   20.8880 C   0  0  0  0  0  0  0  0  0  0  0  0
  -24.6390  -11.7420   20.8460 C   0  0  0  0  0  0  0  0  0  0  0  0
  -26.2950  -12.9560   20.2350 N   0  0  0  0  0  0  0  0  0  0  0  0
  -25.9250  -11.6790   20.5130 N   0  0  0  0  0  0  0  0  0  0  0  0
  -23.8860  -10.4990   21.0440 C   0  0  0  0  0  0  0  0  0  0  0  0
  -24.3260   -9.5050   21.9440 C   0  0  0  0  0  3  0  0  0  0  0  0
  -23.5730   -8.3270   22.1340 C   0  0  0  0  0  3  0  0  0  0  0  0
  -22.3640   -8.1350   21.4240 C   0  0  0  0  0  0  0  0  0  0  0  0
  -21.9410   -9.1170   20.5100 C   0  0  0  0  0  3  0  0  0  0  0  0
  -22.6940  -10.2880   20.3200 C   0  0  0  0  0  3  0  0  0  0  0  0
  -21.5810   -7.0110   21.5250 O   0  0  0  0  0  0  0  0  0  0  0  0
  -21.5710   -6.2390   22.6590 C   0  0  0  0  0  0  0  0  0  0  0  0
  -21.2500   -6.7780   23.9240 C   0  0  0  0  0  3  0  0  0  0  0  0
  -21.1870   -5.9380   25.0530 C   0  0  0  0  0  3  0  0  0  0  0  0
  -21.4310   -4.5580   24.9170 C   0  0  0  0  0  0  0  0  0  0  0  0
  -21.7470   -4.0180   23.6580 C   0  0  0  0  0  3  0  0  0  0  0  0
  -21.8140   -4.8560   22.5310 C   0  0  0  0  0  0  0  0  0  0  0  0
  -22.0960   -4.3290   21.3170 F   0  0  0  0  0  0  0  0  0  0  0  0
  -21.3620   -3.7480   25.9990 F   0  0  0  0  0  0  0  0  0  0  0  0
  -22.8240  -13.6140   21.1810 C   0  0  0  0  0  0  0  0  0  0  0  0
  -22.0990  -12.9440   22.0680 N   0  0  0  0  0  0  0  0  0  0  0  0
  -22.4020  -14.6460   20.6610 O   0  0  0  0  0  0  0  0  0  0  0  0
  -22.4570  -12.1120   22.5120 H   0  0  0  0  0  0  0  0  0  0  0  0
  -21.1690  -13.2640   22.3020 H   0  0  0  0  0  0  0  0  0  0  0  0
  -25.4550  -15.2130   20.2890 N   0  0  0  0  0  0  0  0  0  0  0  0
  -24.6870  -15.8690   20.3780 H   0  0  0  0  0  0  0  0  0  0  0  0
  -26.2580  -15.6100   19.8210 H   0  0  0  0  0  0  0  0  0  0  0  0
  1  2  1  0
  2  3  1  1
  4  2  1  0
  4  5  1  0
  6  8  1  0
  6  5  1  0
  7 18  2  0
  8 13  1  0
  9 17  1  0
  9 19  1  0
 10 16  1  0
 10 12  1  0
 11 17  1  0
 12 11  1  0
 13 12  2  0
 14  8  2  0
 15 14  1  0
 15 10  2  0
 16  9  1  0
 17  7  1  0
 19 21  2  0
 20 19  1  0
 22 20  1  0
 23 32  2  0
 23 28  1  0
 24 20  1  0
 24 28  1  0
 25 24  1  0
 26 27  1  0
 26 25  1  0
 27 23  1  0
 28 29  2  0
 29 30  1  0
 31 30  2  0
 32 31  1  0
 33  7  1  0
 33 34  1  0
 33 43  1  0
 34 37  1  0
 35 39  1  0
 35 34  1  0
 36 35  2  0
 39 38  1  0
 41 39  1  0
 41 42  1  0
 41 40  1  0
 43 46  1  1
 43 44  1  0
 45 43  1  0
 47 48  1  0
 47 52  1  0
 47  2  1  0
 48 51  1  0
 50 51  1  0
 51 49  1  0
 52 61  1  0
 53 59  1  0
 53 61  1  0
 54 59  1  0
 55 56  1  0
 55 54  1  0
 57 56  1  0
 57 66  1  0
 57 58  1  0
 59 58  1  0
 60 53  2  0
 61 62  1  0
 63 64  2  0
 64 83  1  0
 65 64  1  0
 65 68  1  0
 66 63  1  0
 66 67  1  0
 67 65  2  0
 68 69  1  0
 69 70  2  0
 71 74  1  0
 71 70  1  0
 72 71  2  0
 73 72  1  0
 73 68  2  0
 74 75  1  0
 75 76  1  0
 76 77  2  0
 78 77  1  0
 78 82  1  0
 79 78  2  0
 80 75  2  0
 80 79  1  0
 81 80  1  0
 83 84  1  0
 84 87  1  0
 84 86  1  0
 85 83  2  0
 88 89  1  0
 88 63  1  0
 90 88  1  0
M  ISO  4   5 101   6 101  53 100  61 100
M  END
>  <TORSDO>  (19) 
F 22

>  <SCORE>  (19) 
-14.586

>  <name>  (19) 
18

>  <ligand_id>  (19) 
18

>  <original_smiles>  (19) 
[H]c1c([H])c([H])c2c(c1[H])C([H])([H])C([H])([H])C([H])([H])C2([H])N([H])C(=O)C1([H])N(C(=O)C([H])(N([H])C(=O)C([H])(N([H])C([H])([H])[H])C([H])([H])[H])C(C([H])([H])[H])(C([H])([H])[H])C([H])([H])[H])C([H])([H])c2c([H])c(OC([H])([H])C([H])([H])[N+]([H])(C([H])([H])[H])C([H])(C([H])([H])N([H])C(=O)N3C([H])([H])C([H])([H])C([H])([H])C([H])(n4nc(-c5c([H])c([H])c(Oc6c([H])c([H])c(F)c([H])c6F)c([H])c5[H])c(C(=O)N([H])[H])c4N([H])[H])C3([H])[H])C([H])([H])C([H])(C([H])([H])[H])C([H])([H])[H])c([H])c([H])c2C1([H])[H]

>  <smiles>  (19) 
[H]c1c([H])c([H])c2c(c1[H])C([H])([H])C([H])([H])C([H])([H])C2([H])N([H])C(=O)C1([H])N(C(=O)C([H])(N([H])C(=O)C([H])(N([H])C([H])([H])[H])C([H])([H])[H])C(C([H])([H])[H])(C([H])([H])[H])C([H])([H])[H])C([H])([H])c2c([H])c(OC([H])([H])C([H])([H])[N+]([H])(C([H])([H])[H])C([H])(C([H])([H])N([H])C(=O)N3C([H])([H])C([H])([H])C([H])([H])C([H])(n4nc(-c5c([H])c([H])c(Oc6c([H])c([H])c(F)c([H])c6F)c([H])c5[H])c(C(=O)N([H])[H])c4N([H])[H])C3([H])[H])C([H])([H])C([H])(C([H])([H])[H])C([H])([H])[H])c([H])c([H])c2C1([H])[H]

$$$$
19:0:0
     RDKit          3D

 91100  0  0  1  0  0  0  0  0999 V2000
  -27.6610  -23.7680   22.0630 C   0  0  0  0  0  3  0  0  0  0  0  0
  -27.9110  -22.4290   22.3120 C   0  0  0  0  0  3  0  0  0  0  0  0
  -28.6980  -20.2910   21.8490 C   0  0  0  0  0  3  0  0  0  0  0  0
  -28.0590  -24.3130   20.8500 C   0  0  0  0  0  3  0  0  0  0  0  0
  -29.3190  -19.2630   21.1400 C   0  0  0  0  0  3  0  0  0  0  0  0
  -29.7050  -20.9200   19.3730 C   0  0  0  0  0  3  0  0  0  0  0  0
  -28.5650  -21.6150   21.3710 C   0  0  0  0  0  0  0  0  0  0  0  0
  -29.0340  -22.0880   20.0850 C   0  0  0  0  0  0  0  0  0  0  0  0
  -29.8720  -19.4860   19.8790 C   0  0  0  0  0  0  0  0  0  0  0  0
  -28.7260  -23.5970   19.8230 C   0  0  0  0  0  0  0  0  0  0  0  0
  -30.6410  -18.1170   19.2810 C   0  0  0  0  0  2  0  0  0  0  0  0
  -31.2420  -15.3690   19.6160 C   0  0  0  0  0  0  0  0  0  0  0  0
  -31.1020  -12.9200   18.8940 C   0  0  0  0  0  2  0  0  0  0  0  0
  -30.0700  -12.7370   17.7550 C   0  0  0  0  0  2  0  0  0  0  0  0
  -28.6560  -12.5370   18.3310 C   0  0  0  0  0  2  0  0  0  0  0  0
  -28.3330  -13.5500   19.4580 C   0  0  0  0  0  3  0  0  0  0  0  0
  -29.4800  -13.6860   20.4820 C   0  0  0  0  0  2  0  0  0  0  0  0
  -30.6750  -14.0880   19.7300 N   0  0  0  0  0  0  0  0  0  0  0  0
  -32.4080  -15.4000   19.2020 O   0  0  0  0  0  0  0  0  0  0  0  0
  -30.4710  -16.5810   19.7600 N   0  0  0  0  0  0  0  0  0  0  0  0
  -29.5470  -16.3910   20.1190 H   0  0  0  0  0  0  0  0  0  0  0  0
  -26.1470  -14.1830   20.6210 C   0  0  0  0  0  0  0  0  0  0  0  0
  -25.0670  -13.4460   21.0200 C   0  0  0  0  0  0  0  0  0  0  0  0
  -25.3810  -12.0860   20.7130 C   0  0  0  0  0  0  0  0  0  0  0  0
  -27.0520  -13.2760   20.0970 N   0  0  0  0  0  0  0  0  0  0  0  0
  -26.6100  -11.9970   20.2150 N   0  0  0  0  0  0  0  0  0  0  0  0
  -24.5570  -10.8730   20.8110 C   0  0  0  0  0  0  0  0  0  0  0  0
  -24.9050   -9.8100   21.6720 C   0  0  0  0  0  3  0  0  0  0  0  0
  -24.0850   -8.6640   21.7630 C   0  0  0  0  0  3  0  0  0  0  0  0
  -22.9010   -8.5760   20.9920 C   0  0  0  0  0  0  0  0  0  0  0  0
  -22.5710   -9.6280   20.1200 C   0  0  0  0  0  3  0  0  0  0  0  0
  -23.3910  -10.7640   20.0250 C   0  0  0  0  0  3  0  0  0  0  0  0
  -22.0570   -7.4910   20.9970 O   0  0  0  0  0  0  0  0  0  0  0  0
  -21.7950   -6.7890   22.1460 C   0  0  0  0  0  0  0  0  0  0  0  0
  -21.2930   -7.4180   23.3060 C   0  0  0  0  0  3  0  0  0  0  0  0
  -20.9710   -6.6480   24.4420 C   0  0  0  0  0  3  0  0  0  0  0  0
  -21.1400   -5.2510   24.4170 C   0  0  0  0  0  0  0  0  0  0  0  0
  -21.6340   -4.6220   23.2610 C   0  0  0  0  0  3  0  0  0  0  0  0
  -21.9570   -5.3880   22.1270 C   0  0  0  0  0  0  0  0  0  0  0  0
  -22.4130   -4.7750   21.0080 F   0  0  0  0  0  0  0  0  0  0  0  0
  -20.8240   -4.5100   25.5040 F   0  0  0  0  0  0  0  0  0  0  0  0
  -23.7750  -13.9840   21.5600 C   0  0  0  0  0  0  0  0  0  0  0  0
  -23.1360  -13.2510   22.4640 N   0  0  0  0  0  0  0  0  0  0  0  0
  -23.3500  -15.0880   21.2180 O   0  0  0  0  0  0  0  0  0  0  0  0
  -23.4960  -12.3560   22.7590 H   0  0  0  0  0  0  0  0  0  0  0  0
  -22.2740  -13.5900   22.8680 H   0  0  0  0  0  0  0  0  0  0  0  0
  -26.4270  -15.5460   20.6340 N   0  0  0  0  0  0  0  0  0  0  0  0
  -25.7470  -16.2290   20.9520 H   0  0  0  0  0  0  0  0  0  0  0  0
  -27.2470  -15.9700   20.2200 H   0  0  0  0  0  0  0  0  0  0  0  0
  -28.8650  -24.7350   18.6210 C   0  0  0  0  0  2  0  0  0  0  0  0
  -28.7640  -26.3190   18.8350 O   0  0  0  0  0  0  0  0  0  0  0  0
  -24.9480  -31.2060   22.8930 C   0  0  0  0  0  0  0  0  0  0  0  0
  -27.6080  -27.1950   18.9800 C   0  0  0  0  0  0  0  0  0  0  0  0
  -23.7170  -29.9490   21.1650 C   0  0  0  0  0  3  0  0  0  0  0  0
  -25.1480  -28.7310   19.4000 C   0  0  0  0  0  0  0  0  0  0  0  0
  -26.2160  -30.4670   20.8320 C   0  0  0  0  0  2  0  0  0  0  0  0
  -26.3410  -29.1900   19.9720 C   0  0  0  0  0  0  0  0  0  0  0  0
  -27.5620  -28.4410   19.7450 C   0  0  0  0  0  3  0  0  0  0  0  0
  -26.3750  -26.8470   18.3890 C   0  0  0  0  0  3  0  0  0  0  0  0
  -25.1790  -27.5800   18.5940 C   0  0  0  0  0  3  0  0  0  0  0  0
  -23.8610  -29.4960   19.6870 C   0  0  0  0  0  2  0  0  0  0  0  0
  -24.9840  -30.5590   21.6870 N   0  0  0  0  0  0  0  0  0  0  0  0
  -23.8970  -31.3050   23.5460 O   0  0  0  0  0  0  0  0  0  0  0  0
  -23.2180  -28.7570   22.0220 C   0  0  0  0  0  0  0  0  0  0  0  0
  -21.9490  -28.3520   21.8320 N   0  0  0  0  0  0  0  0  0  0  0  0
  -23.9760  -28.2030   22.8210 O   0  0  0  0  0  0  0  0  0  0  0  0
  -21.3820  -28.8610   21.1680 H   0  0  0  0  0  0  0  0  0  0  0  0
  -18.9290  -26.3530   21.9460 C   0  0  0  0  0  0  0  0  0  0  0  0
  -21.3060  -27.2140   22.4950 C   0  0  0  0  0  3  0  0  0  0  0  0
  -21.8110  -25.8730   21.9140 C   0  0  0  0  0  2  0  0  0  0  0  0
  -20.9320  -25.3370   20.7800 C   0  0  0  0  0  2  0  0  0  0  0  0
  -19.4970  -25.1170   21.2700 C   0  0  0  0  0  2  0  0  0  0  0  0
  -19.7770  -27.3450   22.5070 C   0  0  0  0  0  0  0  0  0  0  0  0
  -19.1950  -28.4900   23.0940 C   0  0  0  0  0  3  0  0  0  0  0  0
  -17.7970  -28.6500   23.1280 C   0  0  0  0  0  3  0  0  0  0  0  0
  -16.9620  -27.6600   22.5830 C   0  0  0  0  0  3  0  0  0  0  0  0
  -17.5270  -26.5120   21.9990 C   0  0  0  0  0  3  0  0  0  0  0  0
  -26.2210  -31.8670   23.5050 C   0  0  0  0  0  3  0  0  0  0  0  0
  -25.8320  -33.1830   24.0400 N   0  0  0  0  0  0  0  0  0  0  0  0
  -26.0530  -34.3540   23.4300 C   0  0  0  0  0  0  0  0  0  0  0  0
  -26.6720  -34.4450   22.3660 O   0  0  0  0  0  0  0  0  0  0  0  0
  -25.2740  -33.1800   24.8800 H   0  0  0  0  0  0  0  0  0  0  0  0
  -24.2010  -36.0590   23.4120 C   0  0  0  0  0  1  0  0  0  0  0  0
  -25.5030  -35.6270   24.1040 C   0  0  0  0  0  3  0  0  0  0  0  0
  -27.6140  -36.5360   24.9740 C   0  0  0  0  0  1  0  0  0  0  0  0
  -26.4600  -36.7560   24.1050 N   0  0  0  0  0  0  0  0  0  0  0  0
  -26.0040  -37.6160   24.3950 H   0  0  0  0  0  0  0  0  0  0  0  0
  -26.8920  -30.9940   24.6350 C   0  0  1  0  0  0  0  0  0  0  0  0
  -25.9040  -30.5200   25.7260 C   0  0  0  0  0  1  0  0  0  0  0  0
  -27.5650  -29.7380   24.0350 C   0  0  0  0  0  1  0  0  0  0  0  0
  -28.0140  -31.8050   25.3270 C   0  0  0  0  0  1  0  0  0  0  0  0
  1  2  1  0
  4  1  2  0
  5  3  2  0
  6  9  2  0
  6  8  1  0
  7  3  1  0
  7  2  2  0
  8  7  1  0
  9  5  1  0
 10  8  2  0
 10  4  1  0
 11 20  1  0
 11  9  1  0
 12 18  1  0
 12 20  1  0
 13 18  1  0
 14 15  1  0
 14 13  1  0
 16 15  1  0
 16 25  1  0
 16 17  1  0
 18 17  1  0
 19 12  2  0
 20 21  1  0
 22 47  1  0
 22 23  2  0
 23 42  1  0
 24 27  1  0
 24 23  1  0
 25 26  1  0
 25 22  1  0
 26 24  2  0
 27 28  1  0
 28 29  2  0
 30 33  1  0
 30 29  1  0
 31 30  2  0
 32 31  1  0
 32 27  2  0
 33 34  1  0
 34 35  1  0
 35 36  2  0
 37 36  1  0
 37 41  1  0
 38 37  2  0
 39 34  2  0
 39 38  1  0
 40 39  1  0
 42 43  1  0
 43 45  1  0
 43 46  1  0
 44 42  2  0
 47 48  1  0
 49 47  1  0
 50 51  1  0
 50 10  1  0
 51 53  1  0
 52 63  2  0
 53 58  1  0
 54 62  1  0
 54 64  1  0
 55 61  1  0
 55 57  1  0
 56 62  1  0
 57 56  1  0
 58 57  2  0
 59 60  1  0
 59 53  2  0
 60 55  2  0
 61 54  1  0
 62 52  1  0
 64 66  2  0
 65 64  1  0
 67 65  1  0
 68 77  2  0
 68 73  1  0
 69 65  1  0
 69 73  1  0
 70 69  1  0
 71 72  1  0
 71 70  1  0
 72 68  1  0
 73 74  2  0
 74 75  1  0
 76 75  2  0
 77 76  1  0
 78 52  1  0
 78 79  1  0
 78 88  1  0
 79 82  1  0
 80 79  1  0
 80 84  1  0
 81 80  2  0
 84 83  1  0
 84 86  1  0
 86 87  1  0
 86 85  1  0
 88 91  1  1
 88 89  1  0
 90 88  1  0
M  ISO  4  12 100  20 100  50 101  51 101
M  END
>  <TORSDO>  (20) 
F 18

>  <SCORE>  (20) 
-8.636

>  <name>  (20) 
19

>  <ligand_id>  (20) 
19

>  <original_smiles>  (20) 
[H]c1c([H])c([H])c2c(c1[H])C([H])([H])C([H])([H])C([H])([H])C2([H])N([H])C(=O)C1([H])N(C(=O)C([H])(N([H])C(=O)C([H])(N([H])C([H])([H])[H])C([H])([H])[H])C(C([H])([H])[H])(C([H])([H])[H])C([H])([H])[H])C([H])([H])c2c([H])c(OC([H])([H])c3c([H])c([H])c([H])c4c([H])c([H])c(C([H])([H])N([H])C(=O)N5C([H])([H])C([H])([H])C([H])([H])C([H])(n6nc(-c7c([H])c([H])c(Oc8c([H])c([H])c(F)c([H])c8F)c([H])c7[H])c(C(=O)N([H])[H])c6N([H])[H])C5([H])[H])c([H])c34)c([H])c([H])c2C1([H])[H]

>  <smiles>  (20) 
[H]c1c([H])c([H])c2c(c1[H])C([H])([H])C([H])([H])C([H])([H])C2([H])N([H])C(=O)C1([H])N(C(=O)C([H])(N([H])C(=O)C([H])(N([H])C([H])([H])[H])C([H])([H])[H])C(C([H])([H])[H])(C([H])([H])[H])C([H])([H])[H])C([H])([H])c2c([H])c(OC([H])([H])c3c([H])c([H])c([H])c4c([H])c([H])c(C([H])([H])N([H])C(=O)N5C([H])([H])C([H])([H])C([H])([H])C([H])(n6nc(-c7c([H])c([H])c(Oc8c([H])c([H])c(F)c([H])c8F)c([H])c7[H])c(C(=O)N([H])[H])c6N([H])[H])C5([H])[H])c([H])c34)c([H])c([H])c2C1([H])[H]

$$$$
20:0:0
     RDKit          3D

 87 94  0  0  1  0  0  0  0  0999 V2000
  -28.5220  -21.7500   20.2540 C   0  0  0  0  0  2  0  0  0  0  0  0
  -29.5170  -20.5230   20.4220 N   0  0  0  0  0  4  0  0  0  0  0  0
  -29.9910  -20.6580   21.3000 H   0  0  0  0  0  0  0  0  0  0  0  0
  -30.2160  -20.6240   19.7060 H   0  0  0  0  0  0  0  0  0  0  0  0
  -29.0630  -19.0020   20.3950 C   0  0  0  0  0  3  0  0  0  0  0  0
  -30.1450  -17.7070   20.4720 C   0  0  0  0  0  3  0  0  0  0  0  0
  -30.5220  -14.9900   20.3310 C   0  0  0  0  0  0  0  0  0  0  0  0
  -30.3840  -12.6560   19.3600 C   0  0  0  0  0  2  0  0  0  0  0  0
  -29.4330  -12.6330   18.1400 C   0  0  0  0  0  2  0  0  0  0  0  0
  -27.9760  -12.4160   18.5900 C   0  0  0  0  0  2  0  0  0  0  0  0
  -27.5850  -13.3230   19.7860 C   0  0  0  0  0  3  0  0  0  0  0  0
  -28.6560  -13.3210   20.8970 C   0  0  0  0  0  2  0  0  0  0  0  0
  -29.9180  -13.7370   20.2750 N   0  0  0  0  0  0  0  0  0  0  0  0
  -31.7200  -15.0580   20.0380 O   0  0  0  0  0  0  0  0  0  0  0  0
  -29.7570  -16.1740   20.5080 N   0  0  0  0  0  0  0  0  0  0  0  0
  -28.7800  -15.9960   20.6900 H   0  0  0  0  0  0  0  0  0  0  0  0
  -25.2100  -13.8810   20.5610 C   0  0  0  0  0  0  0  0  0  0  0  0
  -24.1560  -13.0970   20.9370 C   0  0  0  0  0  0  0  0  0  0  0  0
  -24.6280  -11.7480   20.8880 C   0  0  0  0  0  0  0  0  0  0  0  0
  -26.2560  -13.0120   20.3000 N   0  0  0  0  0  0  0  0  0  0  0  0
  -25.9160  -11.7230   20.5620 N   0  0  0  0  0  0  0  0  0  0  0  0
  -23.9110  -10.4800   21.0740 C   0  0  0  0  0  0  0  0  0  0  0  0
  -24.3580   -9.5070   21.9940 C   0  0  0  0  0  3  0  0  0  0  0  0
  -23.6380   -8.3040   22.1690 C   0  0  0  0  0  3  0  0  0  0  0  0
  -22.4590   -8.0670   21.4240 C   0  0  0  0  0  0  0  0  0  0  0  0
  -22.0320   -9.0300   20.4930 C   0  0  0  0  0  3  0  0  0  0  0  0
  -22.7510  -10.2230   20.3160 C   0  0  0  0  0  3  0  0  0  0  0  0
  -21.7100   -6.9180   21.5090 O   0  0  0  0  0  0  0  0  0  0  0  0
  -21.6740   -6.1660   22.6560 C   0  0  0  0  0  0  0  0  0  0  0  0
  -21.2360   -6.7030   23.8860 C   0  0  0  0  0  3  0  0  0  0  0  0
  -21.1490   -5.8760   25.0240 C   0  0  0  0  0  3  0  0  0  0  0  0
  -21.4900   -4.5140   24.9330 C   0  0  0  0  0  0  0  0  0  0  0  0
  -21.9220   -3.9760   23.7080 C   0  0  0  0  0  3  0  0  0  0  0  0
  -22.0110   -4.7990   22.5720 C   0  0  0  0  0  0  0  0  0  0  0  0
  -22.4070   -4.2720   21.3890 F   0  0  0  0  0  0  0  0  0  0  0  0
  -21.4000   -3.7170   26.0240 F   0  0  0  0  0  0  0  0  0  0  0  0
  -22.7590  -13.5630   21.2260 C   0  0  0  0  0  0  0  0  0  0  0  0
  -22.0470  -12.8610   22.1000 N   0  0  0  0  0  0  0  0  0  0  0  0
  -22.3080  -14.5850   20.7130 O   0  0  0  0  0  0  0  0  0  0  0  0
  -22.4250  -12.0330   22.5370 H   0  0  0  0  0  0  0  0  0  0  0  0
  -21.1090  -13.1550   22.3360 H   0  0  0  0  0  0  0  0  0  0  0  0
  -25.3610  -15.2550   20.3910 N   0  0  0  0  0  0  0  0  0  0  0  0
  -24.5830  -15.8960   20.5070 H   0  0  0  0  0  0  0  0  0  0  0  0
  -26.1840  -15.6990   20.0050 H   0  0  0  0  0  0  0  0  0  0  0  0
  -28.9710  -23.3770   20.3780 C   0  0  0  0  0  3  0  0  0  0  0  0
  -27.9480  -24.6940   20.1210 C   0  0  0  0  0  3  0  0  0  0  0  0
  -28.2380  -26.2180   20.2810 O   0  0  0  0  0  0  0  0  0  0  0  0
  -24.6310  -31.9220   23.2470 C   0  0  0  0  0  0  0  0  0  0  0  0
  -27.1850  -27.2020   20.2140 C   0  0  0  0  0  0  0  0  0  0  0  0
  -23.4240  -30.5330   21.6080 C   0  0  0  0  0  3  0  0  0  0  0  0
  -24.8630  -28.9540   20.1820 C   0  0  0  0  0  0  0  0  0  0  0  0
  -25.9790  -30.7880   21.4410 C   0  0  0  0  0  2  0  0  0  0  0  0
  -26.0460  -29.3970   20.7880 C   0  0  0  0  0  0  0  0  0  0  0  0
  -27.2070  -28.5370   20.7860 C   0  0  0  0  0  3  0  0  0  0  0  0
  -25.9740  -26.8610   19.5690 C   0  0  0  0  0  3  0  0  0  0  0  0
  -24.8410  -27.7000   19.5570 C   0  0  0  0  0  3  0  0  0  0  0  0
  -23.6400  -29.8560   20.2290 C   0  0  0  0  0  2  0  0  0  0  0  0
  -24.6980  -31.1030   22.1540 N   0  0  0  0  0  0  0  0  0  0  0  0
  -23.5470  -32.2130   23.7750 O   0  0  0  0  0  0  0  0  0  0  0  0
  -22.7420  -29.5290   22.5700 C   0  0  0  0  0  0  0  0  0  0  0  0
  -21.4130  -29.3630   22.4430 N   0  0  0  0  0  0  0  0  0  0  0  0
  -23.4090  -28.9010   23.3950 O   0  0  0  0  0  0  0  0  0  0  0  0
  -20.9300  -29.9200   21.7520 H   0  0  0  0  0  0  0  0  0  0  0  0
  -18.0250  -28.1790   22.9430 C   0  0  0  0  0  0  0  0  0  0  0  0
  -20.5860  -28.4310   23.2130 C   0  0  0  0  0  3  0  0  0  0  0  0
  -20.6820  -26.9980   22.6420 C   0  0  0  0  0  2  0  0  0  0  0  0
  -19.5800  -26.6770   21.6270 C   0  0  0  0  0  2  0  0  0  0  0  0
  -18.1980  -26.8280   22.2690 C   0  0  0  0  0  2  0  0  0  0  0  0
  -19.1470  -28.9390   23.3730 C   0  0  0  0  0  0  0  0  0  0  0  0
  -18.9310  -30.2010   23.9640 C   0  0  0  0  0  3  0  0  0  0  0  0
  -17.6260  -30.7060   24.1300 C   0  0  0  0  0  3  0  0  0  0  0  0
  -16.5210  -29.9450   23.7160 C   0  0  0  0  0  3  0  0  0  0  0  0
  -16.7210  -28.6820   23.1290 C   0  0  0  0  0  3  0  0  0  0  0  0
  -25.9140  -32.5520   23.8720 C   0  0  0  0  0  3  0  0  0  0  0  0
  -25.6040  -33.9490   24.2140 N   0  0  0  0  0  0  0  0  0  0  0  0
  -25.9130  -35.0090   23.4530 C   0  0  0  0  0  0  0  0  0  0  0  0
  -26.5540  -34.9120   22.4030 O   0  0  0  0  0  0  0  0  0  0  0  0
  -25.0320  -34.0990   25.0310 H   0  0  0  0  0  0  0  0  0  0  0  0
  -24.1600  -36.7930   23.1730 C   0  0  0  0  0  1  0  0  0  0  0  0
  -25.4360  -36.3940   23.9320 C   0  0  0  0  0  3  0  0  0  0  0  0
  -27.5970  -37.2980   24.6760 C   0  0  0  0  0  1  0  0  0  0  0  0
  -26.4570  -37.4540   23.7750 N   0  0  0  0  0  0  0  0  0  0  0  0
  -26.0500  -38.3720   23.9340 H   0  0  0  0  0  0  0  0  0  0  0  0
  -26.4250  -31.7760   25.1490 C   0  0  1  0  0  0  0  0  0  0  0  0
  -25.3300  -31.5370   26.2140 C   0  0  0  0  0  1  0  0  0  0  0  0
  -27.0050  -30.3960   24.7570 C   0  0  0  0  0  1  0  0  0  0  0  0
  -27.5770  -32.5650   25.8140 C   0  0  0  0  0  1  0  0  0  0  0  0
  1 45  1  0
  1  2  1  0
  2  3  1  0
  4  2  1  0
  5  2  1  0
  5  6  2  0
  6 15  1  0
  7 15  1  0
  8 13  1  0
  9 10  1  0
  9  8  1  0
 11 10  1  0
 11 20  1  0
 11 12  1  0
 13  7  1  0
 13 12  1  0
 14  7  2  0
 15 16  1  0
 17 18  2  0
 18 37  1  0
 19 18  1  0
 19 22  1  0
 20 17  1  0
 20 21  1  0
 21 19  2  0
 22 23  1  0
 23 24  2  0
 25 28  1  0
 25 24  1  0
 26 25  2  0
 27 26  1  0
 27 22  2  0
 28 29  1  0
 29 30  1  0
 30 31  2  0
 32 31  1  0
 32 36  1  0
 33 32  2  0
 34 29  2  0
 34 33  1  0
 35 34  1  0
 37 38  1  0
 38 41  1  0
 38 40  1  0
 39 37  2  0
 42 43  1  0
 42 17  1  0
 44 42  1  0
 46 47  1  0
 46 45  2  0
 48 59  2  0
 49 47  1  0
 49 54  1  0
 50 58  1  0
 50 60  1  0
 51 57  1  0
 51 53  1  0
 52 58  1  0
 53 52  1  0
 54 53  2  0
 55 49  2  0
 56 55  1  0
 56 51  2  0
 57 50  1  0
 58 48  1  0
 60 62  2  0
 61 60  1  0
 63 61  1  0
 64 73  2  0
 64 69  1  0
 65 61  1  0
 65 69  1  0
 66 65  1  0
 67 68  1  0
 67 66  1  0
 68 64  1  0
 69 70  2  0
 70 71  1  0
 72 71  2  0
 73 72  1  0
 74 48  1  0
 74 75  1  0
 74 84  1  0
 75 78  1  0
 76 80  1  0
 76 75  1  0
 77 76  2  0
 80 79  1  0
 82 80  1  0
 82 83  1  0
 82 81  1  0
 84 87  1  1
 84 85  1  0
 86 84  1  0
M  ISO  4   7 100  15 100  46 101  47 101
M  END
>  <TORSDO>  (21) 
F 21

>  <SCORE>  (21) 
-13.207

>  <name>  (21) 
20

>  <ligand_id>  (21) 
20

>  <original_smiles>  (21) 
[H]c1c([H])c([H])c2c(c1[H])C([H])([H])C([H])([H])C([H])([H])C2([H])N([H])C(=O)C1([H])N(C(=O)C([H])(N([H])C(=O)C([H])(N([H])C([H])([H])[H])C([H])([H])[H])C(C([H])([H])[H])(C([H])([H])[H])C([H])([H])[H])C([H])([H])c2c([H])c(OC([H])([H])C([H])([H])C([H])([H])[N+]([H])([H])C([H])([H])C([H])([H])N([H])C(=O)N3C([H])([H])C([H])([H])C([H])([H])C([H])(n4nc(-c5c([H])c([H])c(Oc6c([H])c([H])c(F)c([H])c6F)c([H])c5[H])c(C(=O)N([H])[H])c4N([H])[H])C3([H])[H])c([H])c([H])c2C1([H])[H]

>  <smiles>  (21) 
[H]c1c([H])c([H])c2c(c1[H])C([H])([H])C([H])([H])C([H])([H])C2([H])N([H])C(=O)C1([H])N(C(=O)C([H])(N([H])C(=O)C([H])(N([H])C([H])([H])[H])C([H])([H])[H])C(C([H])([H])[H])(C([H])([H])[H])C([H])([H])[H])C([H])([H])c2c([H])c(OC([H])([H])C([H])([H])C([H])([H])[N+]([H])([H])C([H])([H])C([H])([H])N([H])C(=O)N3C([H])([H])C([H])([H])C([H])([H])C([H])(n4nc(-c5c([H])c([H])c(Oc6c([H])c([H])c(F)c([H])c6F)c([H])c5[H])c(C(=O)N([H])[H])c4N([H])[H])C3([H])[H])c([H])c([H])c2C1([H])[H]

$$$$
21:0:0
     RDKit          3D

 97104  0  0  1  0  0  0  0  0999 V2000
  -29.9390  -20.8130   19.8960 C   0  0  0  0  0  2  0  0  0  0  0  0
  -29.0980  -22.0830   20.3660 N   0  0  2  0  0  4  0  0  0  0  0  0
  -28.1410  -21.7700   20.3640 H   0  0  0  0  0  0  0  0  0  0  0  0
  -29.1130  -23.4510   19.5410 C   0  0  0  0  0  2  0  0  0  0  0  0
  -28.0360  -24.7310   19.7770 C   0  0  0  0  0  2  0  0  0  0  0  0
  -28.2680  -26.2560   19.5350 O   0  0  0  0  0  0  0  0  0  0  0  0
  -24.5490  -31.6330   22.9670 C   0  0  0  0  0  0  0  0  0  0  0  0
  -27.1780  -27.1980   19.5870 C   0  0  0  0  0  0  0  0  0  0  0  0
  -23.3470  -30.2930   21.2850 C   0  0  0  0  0  3  0  0  0  0  0  0
  -24.8000  -28.8600   19.7320 C   0  0  0  0  0  0  0  0  0  0  0  0
  -25.8860  -30.6540   21.0690 C   0  0  0  0  0  2  0  0  0  0  0  0
  -25.9820  -29.3080   20.3330 C   0  0  0  0  0  0  0  0  0  0  0  0
  -27.1740  -28.4920   20.2460 C   0  0  0  0  0  3  0  0  0  0  0  0
  -25.9660  -26.8610   18.9430 C   0  0  0  0  0  3  0  0  0  0  0  0
  -24.8010  -27.6500   19.0260 C   0  0  0  0  0  3  0  0  0  0  0  0
  -23.5480  -29.7110   19.8630 C   0  0  0  0  0  2  0  0  0  0  0  0
  -24.6130  -30.8790   21.8280 N   0  0  0  0  0  0  0  0  0  0  0  0
  -23.4690  -31.8510   23.5370 O   0  0  0  0  0  0  0  0  0  0  0  0
  -22.7310  -29.2070   22.2030 C   0  0  0  0  0  0  0  0  0  0  0  0
  -21.4040  -29.0130   22.1140 N   0  0  0  0  0  0  0  0  0  0  0  0
  -23.4480  -28.5470   22.9600 O   0  0  0  0  0  0  0  0  0  0  0  0
  -20.8820  -29.5940   21.4750 H   0  0  0  0  0  0  0  0  0  0  0  0
  -18.0680  -27.7100   22.6670 C   0  0  0  0  0  0  0  0  0  0  0  0
  -20.6300  -28.0110   22.8520 C   0  0  0  0  0  3  0  0  0  0  0  0
  -20.7380  -26.6220   22.1820 C   0  0  0  0  0  2  0  0  0  0  0  0
  -19.6030  -26.3390   21.1940 C   0  0  0  0  0  2  0  0  0  0  0  0
  -18.2440  -26.4130   21.8950 C   0  0  0  0  0  2  0  0  0  0  0  0
  -19.1880  -28.4680   23.1010 C   0  0  0  0  0  0  0  0  0  0  0  0
  -18.9640  -29.6840   23.7840 C   0  0  0  0  0  3  0  0  0  0  0  0
  -17.6560  -30.1390   24.0370 C   0  0  0  0  0  3  0  0  0  0  0  0
  -16.5520  -29.3780   23.6140 C   0  0  0  0  0  3  0  0  0  0  0  0
  -16.7590  -28.1640   22.9350 C   0  0  0  0  0  3  0  0  0  0  0  0
  -25.8240  -32.2710   23.5950 C   0  0  0  0  0  3  0  0  0  0  0  0
  -26.3880  -31.4470   24.8170 C   0  0  1  0  0  0  0  0  0  0  0  0
  -25.3250  -31.1350   25.8970 C   0  0  0  0  0  1  0  0  0  0  0  0
  -26.9890  -30.1030   24.3460 C   0  0  0  0  0  1  0  0  0  0  0  0
  -27.5460  -32.2300   25.4820 C   0  0  0  0  0  1  0  0  0  0  0  0
  -25.4780  -33.6380   24.0120 N   0  0  0  0  0  0  0  0  0  0  0  0
  -25.7670  -34.7450   23.3170 C   0  0  0  0  0  0  0  0  0  0  0  0
  -26.4180  -34.7220   22.2680 O   0  0  0  0  0  0  0  0  0  0  0  0
  -24.8900  -33.7240   24.8270 H   0  0  0  0  0  0  0  0  0  0  0  0
  -23.9740  -36.5010   23.1140 C   0  0  0  0  0  1  0  0  0  0  0  0
  -25.2510  -36.0920   23.8660 C   0  0  0  0  0  3  0  0  0  0  0  0
  -27.3790  -36.9950   24.6930 C   0  0  0  0  0  1  0  0  0  0  0  0
  -26.2480  -37.1810   23.7870 N   0  0  0  0  0  0  0  0  0  0  0  0
  -25.8220  -38.0800   23.9930 H   0  0  0  0  0  0  0  0  0  0  0  0
  -29.4890  -22.3600   21.7810 C   0  0  0  0  0  2  0  0  0  0  0  0
  -29.2350  -24.6150   22.9870 C   0  0  0  0  0  1  0  0  0  0  0  0
  -28.5450  -23.3140   22.5360 C   0  0  0  0  0  2  0  0  0  0  0  0
  -29.4040  -19.1980   19.8910 C   0  0  0  0  0  3  0  0  0  0  0  0
  -30.3280  -17.8840   20.4380 C   0  0  0  0  0  2  0  0  0  0  0  0
  -30.6700  -15.1530   20.3340 C   0  0  0  0  0  0  0  0  0  0  0  0
  -30.5200  -12.8030   19.3940 C   0  0  0  0  0  2  0  0  0  0  0  0
  -29.6260  -12.8090   18.1340 C   0  0  0  0  0  2  0  0  0  0  0  0
  -28.1400  -12.6430   18.5130 C   0  0  0  0  0  2  0  0  0  0  0  0
  -27.7320  -13.5460   19.7050 C   0  0  0  0  0  3  0  0  0  0  0  0
  -28.7600  -13.5150   20.8510 C   0  0  0  0  0  2  0  0  0  0  0  0
  -30.0520  -13.9070   20.2740 N   0  0  0  0  0  0  0  0  0  0  0  0
  -31.8850  -15.1910   20.1060 O   0  0  0  0  0  0  0  0  0  0  0  0
  -29.9110  -16.3520   20.4420 N   0  0  0  0  0  0  0  0  0  0  0  0
  -28.9210  -16.1880   20.5380 H   0  0  0  0  0  0  0  0  0  0  0  0
  -25.3690  -14.1670   20.4460 C   0  0  0  0  0  0  0  0  0  0  0  0
  -24.2740  -13.4160   20.7650 C   0  0  0  0  0  0  0  0  0  0  0  0
  -24.6890  -12.0530   20.6650 C   0  0  0  0  0  0  0  0  0  0  0  0
  -26.3810  -13.2660   20.1690 N   0  0  0  0  0  0  0  0  0  0  0  0
  -25.9820  -11.9840   20.3700 N   0  0  0  0  0  0  0  0  0  0  0  0
  -23.9090  -10.8140   20.7780 C   0  0  0  0  0  0  0  0  0  0  0  0
  -24.3620   -9.7280   21.5600 C   0  0  0  0  0  3  0  0  0  0  0  0
  -23.5860   -8.5530   21.6700 C   0  0  0  0  0  3  0  0  0  0  0  0
  -22.3440   -8.4590   20.9960 C   0  0  0  0  0  0  0  0  0  0  0  0
  -21.9070   -9.5330   20.2040 C   0  0  0  0  0  3  0  0  0  0  0  0
  -22.6820  -10.7000   20.0910 C   0  0  0  0  0  3  0  0  0  0  0  0
  -21.5350   -7.3470   21.0280 O   0  0  0  0  0  0  0  0  0  0  0  0
  -21.6350   -6.4080   22.0220 C   0  0  0  0  0  0  0  0  0  0  0  0
  -21.5080   -6.7490   23.3860 C   0  0  0  0  0  3  0  0  0  0  0  0
  -21.5520   -5.7420   24.3710 C   0  0  0  0  0  3  0  0  0  0  0  0
  -21.7120   -4.3940   23.9940 C   0  0  0  0  0  0  0  0  0  0  0  0
  -21.8330   -4.0530   22.6360 C   0  0  0  0  0  3  0  0  0  0  0  0
  -21.7920   -5.0560   21.6530 C   0  0  0  0  0  0  0  0  0  0  0  0
  -21.8900   -4.7210   20.3440 F   0  0  0  0  0  0  0  0  0  0  0  0
  -21.7440   -3.4240   24.9370 F   0  0  0  0  0  0  0  0  0  0  0  0
  -22.8920  -13.9330   21.0380 C   0  0  0  0  0  0  0  0  0  0  0  0
  -22.1350  -13.2500   21.8880 N   0  0  0  0  0  0  0  0  0  0  0  0
  -22.4930  -14.9820   20.5310 O   0  0  0  0  0  0  0  0  0  0  0  0
  -22.4650  -12.4010   22.3200 H   0  0  0  0  0  0  0  0  0  0  0  0
  -21.2090  -13.5850   22.1110 H   0  0  0  0  0  0  0  0  0  0  0  0
  -25.5700  -15.5370   20.3430 N   0  0  0  0  0  0  0  0  0  0  0  0
  -24.7930  -16.1770   20.4420 H   0  0  0  0  0  0  0  0  0  0  0  0
  -26.4090  -15.9720   19.9850 H   0  0  0  0  0  0  0  0  0  0  0  0
  -27.9120  -19.0500   20.3000 C   0  0  0  0  0  2  0  0  0  0  0  0
  -26.9750  -18.8120   19.0960 C   0  0  0  0  0  2  0  0  0  0  0  0
  -27.0860  -19.8830   17.9810 C   0  0  0  0  0  2  0  0  0  0  0  0
  -26.3650  -21.2090   18.3030 C   0  0  0  0  0  2  0  0  0  0  0  0
  -24.9090  -21.0350   18.4570 N   0  0  0  0  0  4  0  0  0  0  0  0
  -24.5160  -20.6390   17.6220 H   0  0  0  0  0  0  0  0  0  0  0  0
  -24.4670  -21.9220   18.6260 H   0  0  0  0  0  0  0  0  0  0  0  0
  -24.6870  -20.4380   19.2350 H   0  0  0  0  0  0  0  0  0  0  0  0
  1  2  1  0
  2 47  1  0
  2  3  1  1
  4  5  1  0
  4  2  1  0
  6  8  1  0
  6  5  1  0
  7 18  2  0
  8 13  1  0
  9 17  1  0
  9 19  1  0
 10 16  1  0
 10 12  1  0
 11 17  1  0
 12 11  1  0
 13 12  2  0
 14 15  1  0
 14  8  2  0
 15 10  2  0
 16  9  1  0
 17  7  1  0
 19 21  2  0
 20 19  1  0
 22 20  1  0
 23 32  2  0
 23 28  1  0
 24 20  1  0
 24 28  1  0
 25 24  1  0
 26 27  1  0
 26 25  1  0
 27 23  1  0
 28 29  2  0
 29 30  1  0
 31 30  2  0
 32 31  1  0
 33  7  1  0
 33 38  1  0
 33 34  1  0
 34 37  1  1
 34 35  1  0
 36 34  1  0
 38 41  1  0
 39 43  1  0
 39 38  1  0
 40 39  2  0
 43 42  1  0
 45 43  1  0
 45 46  1  0
 45 44  1  0
 47 49  1  0
 49 48  1  0
 50  1  1  0
 50 90  1  0
 50 51  1  0
 51 60  1  0
 52 60  1  0
 53 58  1  0
 54 55  1  0
 54 53  1  0
 56 55  1  0
 56 65  1  0
 56 57  1  0
 58 52  1  0
 58 57  1  0
 59 52  2  0
 60 61  1  0
 62 63  2  0
 63 82  1  0
 64 63  1  0
 64 67  1  0
 65 66  1  0
 65 62  1  0
 66 64  2  0
 67 68  1  0
 68 69  2  0
 70 73  1  0
 70 69  1  0
 71 70  2  0
 72 71  1  0
 72 67  2  0
 73 74  1  0
 74 75  1  0
 75 76  2  0
 77 76  1  0
 77 81  1  0
 78 77  2  0
 79 74  2  0
 79 78  1  0
 80 79  1  0
 82 83  1  0
 83 86  1  0
 83 85  1  0
 84 82  2  0
 87 88  1  0
 87 62  1  0
 89 87  1  0
 91 90  1  0
 92 93  1  0
 92 91  1  0
 93 94  1  0
 94 96  1  0
 94 97  1  0
 95 94  1  0
M  ISO  4   5 101   6 101  52 100  60 100
M  END
>  <TORSDO>  (22) 
F 28

>  <SCORE>  (22) 
-11.933

>  <name>  (22) 
21

>  <ligand_id>  (22) 
21

>  <original_smiles>  (22) 
[H]c1c([H])c([H])c2c(c1[H])C([H])([H])C([H])([H])C([H])([H])C2([H])N([H])C(=O)C1([H])N(C(=O)C([H])(N([H])C(=O)C([H])(N([H])C([H])([H])[H])C([H])([H])[H])C(C([H])([H])[H])(C([H])([H])[H])C([H])([H])[H])C([H])([H])c2c([H])c(OC([H])([H])C([H])([H])[N+]([H])(C([H])([H])C([H])([H])C([H])([H])[H])C([H])([H])C([H])(C([H])([H])N([H])C(=O)N3C([H])([H])C([H])([H])C([H])([H])C([H])(n4nc(-c5c([H])c([H])c(Oc6c([H])c([H])c(F)c([H])c6F)c([H])c5[H])c(C(=O)N([H])[H])c4N([H])[H])C3([H])[H])C([H])([H])C([H])([H])C([H])([H])C([H])([H])[N+]([H])([H])[H])c([H])c([H])c2C1([H])[H]

>  <smiles>  (22) 
[H]c1c([H])c([H])c2c(c1[H])C([H])([H])C([H])([H])C([H])([H])C2([H])N([H])C(=O)C1([H])N(C(=O)C([H])(N([H])C(=O)C([H])(N([H])C([H])([H])[H])C([H])([H])[H])C(C([H])([H])[H])(C([H])([H])[H])C([H])([H])[H])C([H])([H])c2c([H])c(OC([H])([H])C([H])([H])[N+]([H])(C([H])([H])C([H])([H])C([H])([H])[H])C([H])([H])C([H])(C([H])([H])N([H])C(=O)N3C([H])([H])C([H])([H])C([H])([H])C([H])(n4nc(-c5c([H])c([H])c(Oc6c([H])c([H])c(F)c([H])c6F)c([H])c5[H])c(C(=O)N([H])[H])c4N([H])[H])C3([H])[H])C([H])([H])C([H])([H])C([H])([H])C([H])([H])[N+]([H])([H])[H])c([H])c([H])c2C1([H])[H]

$$$$
22:0:0
     RDKit          3D

 95102  0  0  1  0  0  0  0  0999 V2000
  -26.7830  -17.0890   20.1270 N   0  0  2  0  0  4  0  0  0  0  0  0
  -26.5860  -17.2390   21.0980 H   0  0  0  0  0  0  0  0  0  0  0  0
  -24.1960  -16.6030   20.2340 C   0  0  0  0  0  1  0  0  0  0  0  0
  -25.4450  -16.8650   19.4080 C   0  0  0  0  0  2  0  0  0  0  0  0
  -27.2570  -18.7320   19.4450 C   0  0  0  0  0  1  0  0  0  0  0  0
  -27.3730  -20.6830   19.7980 C   0  0  0  0  0 15  0  0  0  0  0  0
  -28.2010  -22.3750   19.1210 C   0  0  0  0  0  1  0  0  0  0  0  0
  -28.6090  -24.1120   19.4560 O   0  0  0  0  0  0  0  0  0  0  0  0
  -32.1300  -29.2600   14.7420 C   0  0  0  0  0  0  0  0  0  0  0  0
  -29.7810  -25.0200   18.9660 C   0  0  0  0  0  0  0  0  0  0  0  0
  -33.1490  -27.1450   15.4230 C   0  0  0  0  0  3  0  0  0  0  0  0
  -32.2490  -26.0010   17.5710 C   0  0  0  0  0  0  0  0  0  0  0  0
  -31.5490  -28.3270   17.0780 C   0  0  0  0  0  2  0  0  0  0  0  0
  -31.2160  -26.9260   17.7450 C   0  0  0  0  0  0  0  0  0  0  0  0
  -29.9940  -26.4450   18.4720 C   0  0  0  0  0  3  0  0  0  0  0  0
  -30.9830  -24.3190   18.8710 C   0  0  0  0  0  3  0  0  0  0  0  0
  -32.1380  -24.7500   18.1760 C   0  0  0  0  0  3  0  0  0  0  0  0
  -33.4670  -26.3530   16.7150 C   0  0  0  0  0  2  0  0  0  0  0  0
  -32.2480  -28.3030   15.7220 N   0  0  0  0  0  0  0  0  0  0  0  0
  -32.7170  -29.1550   13.6510 O   0  0  0  0  0  0  0  0  0  0  0  0
  -32.5750  -26.1940   14.3410 C   0  0  0  0  0  0  0  0  0  0  0  0
  -33.4420  -25.5780   13.5180 N   0  0  0  0  0  0  0  0  0  0  0  0
  -31.3570  -26.0270   14.2520 O   0  0  0  0  0  0  0  0  0  0  0  0
  -34.4260  -25.7780   13.6240 H   0  0  0  0  0  0  0  0  0  0  0  0
  -34.7540  -23.5640   10.7940 C   0  0  0  0  0  0  0  0  0  0  0  0
  -33.0860  -24.6060   12.4770 C   0  0  0  0  0  3  0  0  0  0  0  0
  -32.9550  -23.1810   13.0620 C   0  0  0  0  0  2  0  0  0  0  0  0
  -34.2490  -22.3650   12.9650 C   0  0  0  0  0  2  0  0  0  0  0  0
  -34.6830  -22.2220   11.5040 C   0  0  0  0  0  2  0  0  0  0  0  0
  -34.0170  -24.6870   11.2590 C   0  0  0  0  0  0  0  0  0  0  0  0
  -34.1440  -25.9180   10.5780 C   0  0  0  0  0  3  0  0  0  0  0  0
  -34.9870  -26.0370    9.4570 C   0  0  0  0  0  3  0  0  0  0  0  0
  -35.7060  -24.9210    8.9950 C   0  0  0  0  0  3  0  0  0  0  0  0
  -35.5840  -23.6870    9.6590 C   0  0  0  0  0  3  0  0  0  0  0  0
  -31.2700  -30.5420   14.9390 C   0  0  0  0  0  3  0  0  0  0  0  0
  -32.1130  -31.7110   14.6190 N   0  0  0  0  0  0  0  0  0  0  0  0
  -32.2260  -32.8170   15.3670 C   0  0  0  0  0  0  0  0  0  0  0  0
  -31.5780  -32.9820   16.4020 O   0  0  0  0  0  0  0  0  0  0  0  0
  -32.7130  -31.6220   13.8120 H   0  0  0  0  0  0  0  0  0  0  0  0
  -34.2700  -34.1630   15.9810 C   0  0  0  0  0  1  0  0  0  0  0  0
  -33.2090  -33.9130   14.8960 C   0  0  0  0  0  3  0  0  0  0  0  0
  -31.8030  -35.1420   13.3000 C   0  0  0  0  0  1  0  0  0  0  0  0
  -32.5490  -35.1920   14.5530 N   0  0  0  0  0  0  0  0  0  0  0  0
  -33.2310  -35.9430   14.4870 H   0  0  0  0  0  0  0  0  0  0  0  0
  -29.9750  -30.5580   14.0350 C   0  0  1  0  0  0  0  0  0  0  0  0
  -30.2610  -30.3770   12.5260 C   0  0  0  0  0  1  0  0  0  0  0  0
  -28.9900  -29.4470   14.4580 C   0  0  0  0  0  1  0  0  0  0  0  0
  -29.2280  -31.9000   14.2160 C   0  0  0  0  0  1  0  0  0  0  0  0
  -27.4330  -15.3720   20.1010 C   0  0  0  0  0  1  0  0  0  0  0  0
  -27.1080  -13.3570   19.8000 C   0  0  0  0  0  2  0  0  0  0  0  0
  -23.8640  -13.7610   19.7420 C   0  0  0  0  0  0  0  0  0  0  0  0
  -22.7220  -12.5420   21.5490 C   0  0  0  0  0  2  0  0  0  0  0  0
  -23.8620  -12.8550   22.4900 C   0  0  0  0  0  2  0  0  0  0  0  0
  -25.0800  -12.1010   21.9560 C   0  0  0  0  0  2  0  0  0  0  0  0
  -24.9330  -11.3750   20.4820 C   0  0  0  0  0  3  0  0  0  0  0  0
  -23.7470  -11.4410   19.6600 C   0  0  0  0  0  2  0  0  0  0  0  0
  -23.2770  -12.6330   20.1840 N   0  0  0  0  0  0  0  0  0  0  0  0
  -22.9010  -14.5650   19.5910 O   0  0  0  0  0  0  0  0  0  0  0  0
  -25.3900  -13.9720   19.7740 N   0  0  0  0  0  0  0  0  0  0  0  0
  -25.4680  -14.9710   19.5860 H   0  0  0  0  0  0  0  0  0  0  0  0
  -27.1590  -11.9700   17.9940 C   0  0  0  0  0  2  0  0  0  0  0  0
  -28.7020  -12.1100   18.8020 C   0  0  0  0  0  3  0  0  0  0  0  0
  -28.6280  -11.5690   20.4380 C   0  0  1  0  0  0  0  0  0  0  0  0
  -26.0190  -11.4660   19.6220 N   0  0  0  0  0  2  0  0  0  0  0  0
  -27.1360  -11.4280   20.8670 N   0  0  1  0  0  4  0  0  0  0  0  0
  -29.3270  -10.1950   20.9970 C   0  0  0  0  0  0  0  0  0  0  0  0
  -28.7810   -8.8350   21.1070 C   0  0  0  0  0  3  0  0  0  0  0  0
  -29.4710   -7.7000   21.6960 C   0  0  0  0  0  3  0  0  0  0  0  0
  -30.7850   -7.8500   22.2150 C   0  0  0  0  0  0  0  0  0  0  0  0
  -31.3280   -9.1370   22.1010 C   0  0  0  0  0  3  0  0  0  0  0  0
  -30.6360  -10.2450   21.5180 C   0  0  0  0  0  3  0  0  0  0  0  0
  -31.5540   -6.9110   22.9170 O   0  0  0  0  0  0  0  0  0  0  0  0
  -31.2300   -5.5880   23.1540 C   0  0  0  0  0  0  0  0  0  0  0  0
  -30.7970   -4.7200   22.1250 C   0  0  0  0  0  3  0  0  0  0  0  0
  -30.5450   -3.3560   22.3940 C   0  0  0  0  0  3  0  0  0  0  0  0
  -30.7290   -2.8400   23.6890 C   0  0  0  0  0  0  0  0  0  0  0  0
  -31.1770   -3.6830   24.7190 C   0  0  0  0  0  3  0  0  0  0  0  0
  -31.4360   -5.0470   24.4480 C   0  0  0  0  0  0  0  0  0  0  0  0
  -31.9120   -5.8250   25.4490 F   0  0  0  0  0  0  0  0  0  0  0  0
  -30.4610   -1.5360   23.9500 F   0  0  0  0  0  0  0  0  0  0  0  0
  -30.0660  -11.9190   18.2340 C   0  0  0  0  0  0  0  0  0  0  0  0
  -30.6840  -10.7520   18.3550 N   0  0  0  0  0  0  0  0  0  0  0  0
  -30.6290  -12.8990   17.7590 O   0  0  0  0  0  0  0  0  0  0  0  0
  -31.6180  -10.6370   17.9710 H   0  0  0  0  0  0  0  0  0  0  0  0
  -30.2430   -9.9780   18.8320 H   0  0  0  0  0  0  0  0  0  0  0  0
  -26.6990  -12.6420   16.9180 N   0  0  0  0  0  0  0  0  0  0  0  0
  -27.2080  -12.4190   16.0670 H   0  0  0  0  0  0  0  0  0  0  0  0
  -25.7280  -12.3890   16.7750 H   0  0  0  0  0  0  0  0  0  0  0  0
  -27.7080  -12.9530   21.2830 C   0  0  0  0  0  3  0  0  0  0  0  0
  -27.4930   -9.7560   24.3510 C   0  0  0  0  0  3  0  0  0  0  0  0
  -27.5310  -11.1170   24.6840 C   0  0  0  0  0  3  0  0  0  0  0  0
  -27.4540   -9.3940   22.9990 C   0  0  0  0  0  2  0  0  0  0  0  0
  -27.5100  -12.1010   23.6750 C   0  0  0  0  0  2  0  0  0  0  0  0
  -27.4800  -10.3700   21.9940 C   0  0  0  0  0  3  0  0  0  0  0  0
  -27.4830  -11.7670   22.2910 C   0  0  1  0  0  0  0  0  0  0  0  0
  1  2  1  1
  4  1  1  0
  4  3  1  0
  5  1  1  0
  7  8  1  0
  9 19  1  0
 10  8  1  0
 11 21  1  0
 11 19  1  0
 11 18  1  0
 12 14  2  0
 12 17  1  0
 13 14  1  0
 14 15  1  0
 15 10  2  0
 16 10  1  0
 17 16  2  0
 18 12  1  0
 19 13  1  0
 20  9  2  0
 22 24  1  0
 22 21  1  0
 23 21  2  0
 25 30  1  0
 25 29  1  0
 26 27  1  0
 26 22  1  0
 28 27  1  0
 29 28  1  0
 30 26  1  0
 31 30  2  0
 32 31  1  0
 33 32  2  0
 33 34  1  0
 34 25  2  0
 35  9  1  0
 36 35  1  0
 36 37  1  0
 37 38  2  0
 39 36  1  0
 41 37  1  0
 41 40  1  0
 42 43  1  0
 43 41  1  0
 44 43  1  0
 45 48  1  6
 45 47  1  0
 45 35  1  0
 46 45  1  0
 49  1  1  0
 51 59  1  0
 51 57  1  0
 52 53  1  0
 54 53  1  0
 55 56  1  0
 55 54  1  0
 56 57  1  0
 57 52  1  0
 58 51  2  0
 59 50  1  0
 60 59  1  0
 62 61  1  0
 63 62  1  6
 63 65  1  0
 63 66  1  0
 63 89  1  0
 64 55  1  0
 65 64  1  6
 65 94  1  0
 65 95  1  0
 66 67  2  0
 66 71  1  0
 67 68  1  0
 68 69  2  0
 69 72  1  0
 70 69  1  0
 71 70  2  0
 72 73  1  0
 73 78  1  0
 74 75  1  0
 74 73  2  0
 75 76  2  0
 76 80  1  0
 76 77  1  0
 78 77  2  0
 78 79  1  0
 81 82  1  0
 81 62  1  0
 82 85  1  0
 83 81  2  0
 84 82  1  0
 86 61  1  0
 87 86  1  0
 88 86  1  0
 89 50  1  0
 89 95  1  0
 90 91  2  0
 92 90  1  0
 93 91  1  0
 94 95  1  0
 94 92  1  0
 95 93  1  1
M  ISO  4   7 101   8 101  51 100  59 100
M  END
>  <TORSDO>  (23) 
F 24

>  <SCORE>  (23) 
11.737

>  <name>  (23) 
22

>  <ligand_id>  (23) 
22

>  <original_smiles>  (23) 
[H]c1c([H])c([H])c(C([H])([H])C([H])(N([H])C(=O)N2C([H])([H])C([H])([H])C([H])([H])C([H])(n3nc(-c4c([H])c([H])c(Oc5c([H])c([H])c(F)c([H])c5F)c([H])c4[H])c(C(=O)N([H])[H])c3N([H])[H])C2([H])[H])C([H])([H])[N+]([H])(C([H])([H])C([H])([H])[H])C([H])([H])C([H])([H])C([H])([H])Oc2c([H])c([H])c3c(c2[H])C([H])([H])N(C(=O)C([H])(N([H])C(=O)C([H])(N([H])C([H])([H])[H])C([H])([H])[H])C(C([H])([H])[H])(C([H])([H])[H])C([H])([H])[H])C([H])(C(=O)N([H])C2([H])c4c([H])c([H])c([H])c([H])c4C([H])([H])C([H])([H])C2([H])[H])C3([H])[H])c([H])c1[H]

>  <smiles>  (23) 
[H]c1c([H])c([H])c(C([H])([H])C([H])(N([H])C(=O)N2C([H])([H])C([H])([H])C([H])([H])C([H])(n3nc(-c4c([H])c([H])c(Oc5c([H])c([H])c(F)c([H])c5F)c([H])c4[H])c(C(=O)N([H])[H])c3N([H])[H])C2([H])[H])C([H])([H])[N+]([H])(C([H])([H])C([H])([H])[H])C([H])([H])C([H])([H])C([H])([H])Oc2c([H])c([H])c3c(c2[H])C([H])([H])N(C(=O)C([H])(N([H])C(=O)C([H])(N([H])C([H])([H])[H])C([H])([H])[H])C(C([H])([H])[H])(C([H])([H])[H])C([H])([H])[H])C([H])(C(=O)N([H])C2([H])c4c([H])c([H])c([H])c([H])c4C([H])([H])C([H])([H])C2([H])[H])C3([H])[H])c([H])c1[H]

$$$$
23:0:0
     RDKit          3D

 91 98  0  0  1  0  0  0  0  0999 V2000
  -28.5710  -21.9640   20.3990 N   0  0  0  0  0  4  0  0  0  0  0  0
  -28.1230  -21.8540   21.2950 H   0  0  0  0  0  0  0  0  0  0  0  0
  -27.8480  -21.8250   19.7100 H   0  0  0  0  0  0  0  0  0  0  0  0
  -29.5720  -20.7480   20.2330 C   0  0  0  0  0  3  0  0  0  0  0  0
  -29.1860  -19.1160   20.4950 C   0  0  0  0  0  3  0  0  0  0  0  0
  -30.2240  -17.8190   20.1440 C   0  0  1  0  0  0  0  0  0  0  0  0
  -30.5930  -15.0660   20.3620 C   0  0  0  0  0  0  0  0  0  0  0  0
  -30.4250  -12.7380   19.3960 C   0  0  0  0  0  2  0  0  0  0  0  0
  -29.5030  -12.7310   18.1570 C   0  0  0  0  0  2  0  0  0  0  0  0
  -28.0370  -12.5230   18.5800 C   0  0  0  0  0  2  0  0  0  0  0  0
  -27.6300  -13.4280   19.7730 C   0  0  0  0  0  3  0  0  0  0  0  0
  -28.6810  -13.4310   20.9040 C   0  0  0  0  0  2  0  0  0  0  0  0
  -29.9560  -13.8290   20.2980 N   0  0  0  0  0  0  0  0  0  0  0  0
  -31.8030  -15.0620   20.1250 O   0  0  0  0  0  0  0  0  0  0  0  0
  -29.8600  -16.2920   20.4490 N   0  0  0  0  0  0  0  0  0  0  0  0
  -28.8800  -16.1420   20.6330 H   0  0  0  0  0  0  0  0  0  0  0  0
  -25.2400  -13.9870   20.4970 C   0  0  0  0  0  0  0  0  0  0  0  0
  -24.1790  -13.2040   20.8570 C   0  0  0  0  0  0  0  0  0  0  0  0
  -24.6540  -11.8570   20.8310 C   0  0  0  0  0  0  0  0  0  0  0  0
  -26.2920  -13.1170   20.2640 N   0  0  0  0  0  0  0  0  0  0  0  0
  -25.9490  -11.8310   20.5320 N   0  0  0  0  0  0  0  0  0  0  0  0
  -23.9340  -10.5890   21.0130 C   0  0  0  0  0  0  0  0  0  0  0  0
  -24.3560   -9.6280   21.9590 C   0  0  0  0  0  3  0  0  0  0  0  0
  -23.6360   -8.4270   22.1300 C   0  0  0  0  0  3  0  0  0  0  0  0
  -22.4780   -8.1770   21.3550 C   0  0  0  0  0  0  0  0  0  0  0  0
  -22.0740   -9.1270   20.4000 C   0  0  0  0  0  3  0  0  0  0  0  0
  -22.7960  -10.3200   20.2270 C   0  0  0  0  0  3  0  0  0  0  0  0
  -21.7300   -7.0280   21.4340 O   0  0  0  0  0  0  0  0  0  0  0  0
  -21.6570   -6.2950   22.5910 C   0  0  0  0  0  0  0  0  0  0  0  0
  -21.1660   -6.8490   23.7950 C   0  0  0  0  0  3  0  0  0  0  0  0
  -21.0430   -6.0410   24.9420 C   0  0  0  0  0  3  0  0  0  0  0  0
  -21.3990   -4.6800   24.8870 C   0  0  0  0  0  0  0  0  0  0  0  0
  -21.8830   -4.1250   23.6890 C   0  0  0  0  0  3  0  0  0  0  0  0
  -22.0070   -4.9310   22.5440 C   0  0  0  0  0  0  0  0  0  0  0  0
  -22.4530   -4.3860   21.3860 F   0  0  0  0  0  0  0  0  0  0  0  0
  -21.2740   -3.9020   25.9890 F   0  0  0  0  0  0  0  0  0  0  0  0
  -22.7760  -13.6720   21.1120 C   0  0  0  0  0  0  0  0  0  0  0  0
  -22.0440  -12.9770   21.9750 N   0  0  0  0  0  0  0  0  0  0  0  0
  -22.3370  -14.6900   20.5820 O   0  0  0  0  0  0  0  0  0  0  0  0
  -22.4110  -12.1540   22.4300 H   0  0  0  0  0  0  0  0  0  0  0  0
  -21.1020  -13.2750   22.1870 H   0  0  0  0  0  0  0  0  0  0  0  0
  -25.3930  -15.3590   20.3190 N   0  0  0  0  0  0  0  0  0  0  0  0
  -24.6140  -16.0010   20.4220 H   0  0  0  0  0  0  0  0  0  0  0  0
  -26.2310  -15.8040   19.9690 H   0  0  0  0  0  0  0  0  0  0  0  0
  -31.3430  -16.9940   17.8620 C   0  0  0  0  0  1  0  0  0  0  0  0
  -30.4050  -17.9620   18.6010 C   0  0  0  0  0  2  0  0  0  0  0  0
  -31.5140  -18.0870   22.3860 C   0  0  0  0  0  1  0  0  0  0  0  0
  -31.5670  -18.1510   20.8520 C   0  0  0  0  0  2  0  0  0  0  0  0
  -29.0180  -23.4870   20.3010 C   0  0  0  0  0  3  0  0  0  0  0  0
  -27.9280  -24.7650   20.2030 C   0  0  0  0  0  3  0  0  0  0  0  0
  -28.2170  -26.2970   20.2520 O   0  0  0  0  0  0  0  0  0  0  0  0
  -24.6050  -31.9630   23.2800 C   0  0  0  0  0  0  0  0  0  0  0  0
  -27.1550  -27.2700   20.2070 C   0  0  0  0  0  0  0  0  0  0  0  0
  -23.3890  -30.5720   21.6490 C   0  0  0  0  0  3  0  0  0  0  0  0
  -24.8230  -29.0070   20.2060 C   0  0  0  0  0  0  0  0  0  0  0  0
  -25.9410  -30.8440   21.4570 C   0  0  0  0  0  2  0  0  0  0  0  0
  -26.0090  -29.4550   20.8000 C   0  0  0  0  0  0  0  0  0  0  0  0
  -27.1770  -28.6040   20.7820 C   0  0  0  0  0  3  0  0  0  0  0  0
  -25.9390  -26.9250   19.5740 C   0  0  0  0  0  3  0  0  0  0  0  0
  -24.8010  -27.7560   19.5760 C   0  0  0  0  0  3  0  0  0  0  0  0
  -23.5960  -29.9010   20.2660 C   0  0  0  0  0  2  0  0  0  0  0  0
  -24.6660  -31.1480   22.1830 N   0  0  0  0  0  0  0  0  0  0  0  0
  -23.5230  -32.2460   23.8180 O   0  0  0  0  0  0  0  0  0  0  0  0
  -22.7200  -29.5610   22.6140 C   0  0  0  0  0  0  0  0  0  0  0  0
  -21.3960  -29.3730   22.4830 N   0  0  0  0  0  0  0  0  0  0  0  0
  -23.3970  -28.9480   23.4440 O   0  0  0  0  0  0  0  0  0  0  0  0
  -20.9060  -29.9190   21.7880 H   0  0  0  0  0  0  0  0  0  0  0  0
  -18.0280  -28.1250   22.9690 C   0  0  0  0  0  0  0  0  0  0  0  0
  -20.5810  -28.4320   23.2560 C   0  0  0  0  0  3  0  0  0  0  0  0
  -20.7100  -26.9950   22.6970 C   0  0  0  0  0  2  0  0  0  0  0  0
  -19.6210  -26.6450   21.6780 C   0  0  0  0  0  2  0  0  0  0  0  0
  -18.2310  -26.7730   22.3060 C   0  0  0  0  0  2  0  0  0  0  0  0
  -19.1310  -28.9110   23.4000 C   0  0  0  0  0  0  0  0  0  0  0  0
  -18.8840  -30.1740   23.9780 C   0  0  0  0  0  3  0  0  0  0  0  0
  -17.5690  -30.6540   24.1310 C   0  0  0  0  0  3  0  0  0  0  0  0
  -16.4810  -29.8650   23.7150 C   0  0  0  0  0  3  0  0  0  0  0  0
  -16.7130  -28.6030   23.1390 C   0  0  0  0  0  3  0  0  0  0  0  0
  -25.8880  -32.5960   23.8970 C   0  0  0  0  0  3  0  0  0  0  0  0
  -26.3960  -31.8360   25.1840 C   0  0  1  0  0  0  0  0  0  0  0  0
  -25.3000  -31.6170   26.2530 C   0  0  0  0  0  1  0  0  0  0  0  0
  -26.9710  -30.4490   24.8130 C   0  0  0  0  0  1  0  0  0  0  0  0
  -27.5510  -32.6300   25.8390 C   0  0  0  0  0  1  0  0  0  0  0  0
  -25.5850  -34.0000   24.2180 N   0  0  0  0  0  0  0  0  0  0  0  0
  -25.9150  -35.0480   23.4490 C   0  0  0  0  0  0  0  0  0  0  0  0
  -26.5730  -34.9330   22.4110 O   0  0  0  0  0  0  0  0  0  0  0  0
  -25.0000  -34.1630   25.0230 H   0  0  0  0  0  0  0  0  0  0  0  0
  -24.1950  -36.8510   23.1030 C   0  0  0  0  0  1  0  0  0  0  0  0
  -25.4420  -36.4430   23.9030 C   0  0  0  0  0  3  0  0  0  0  0  0
  -27.5880  -37.3260   24.7080 C   0  0  0  0  0  1  0  0  0  0  0  0
  -26.4800  -37.4880   23.7700 N   0  0  0  0  0  0  0  0  0  0  0  0
  -26.0810  -38.4130   23.9060 H   0  0  0  0  0  0  0  0  0  0  0  0
  1  2  1  0
  3  1  1  0
  4  1  1  0
  4  5  2  0
  6 15  1  0
  6  5  1  0
  6 48  1  1
  7 15  1  0
  8 13  1  0
  9 10  1  0
  9  8  1  0
 11 10  1  0
 11 20  1  0
 11 12  1  0
 13  7  1  0
 13 12  1  0
 14  7  2  0
 15 16  1  0
 17 18  2  0
 18 37  1  0
 19 18  1  0
 19 22  1  0
 20 17  1  0
 20 21  1  0
 21 19  2  0
 22 23  1  0
 23 24  2  0
 25 28  1  0
 25 24  1  0
 26 25  2  0
 27 26  1  0
 27 22  2  0
 28 29  1  0
 29 30  1  0
 30 31  2  0
 32 31  1  0
 32 36  1  0
 33 32  2  0
 34 29  2  0
 34 33  1  0
 35 34  1  0
 37 38  1  0
 38 41  1  0
 38 40  1  0
 39 37  2  0
 42 43  1  0
 42 17  1  0
 44 42  1  0
 45 46  1  0
 46  6  1  0
 48 47  1  0
 49  1  1  0
 50 51  1  0
 50 49  2  0
 52 63  2  0
 53 51  1  0
 53 58  1  0
 54 62  1  0
 54 64  1  0
 55 61  1  0
 55 57  1  0
 56 62  1  0
 57 56  1  0
 58 57  2  0
 59 60  1  0
 59 53  2  0
 60 55  2  0
 61 54  1  0
 62 52  1  0
 64 66  2  0
 65 64  1  0
 67 65  1  0
 68 77  2  0
 68 73  1  0
 69 65  1  0
 69 73  1  0
 70 69  1  0
 71 72  1  0
 71 70  1  0
 72 68  1  0
 73 74  2  0
 74 75  1  0
 76 75  2  0
 77 76  1  0
 78 52  1  0
 78 83  1  0
 78 79  1  0
 79 82  1  1
 79 80  1  0
 81 79  1  0
 83 86  1  0
 84 88  1  0
 84 83  1  0
 85 84  2  0
 88 87  1  0
 90 88  1  0
 90 91  1  0
 90 89  1  0
M  ISO  4   7 100  15 100  50 101  51 101
M  END
>  <TORSDO>  (24) 
F 23

>  <SCORE>  (24) 
-13.332

>  <name>  (24) 
23

>  <ligand_id>  (24) 
23

>  <original_smiles>  (24) 
[H]c1c([H])c([H])c2c(c1[H])C([H])([H])C([H])([H])C([H])([H])C2([H])N([H])C(=O)C1([H])N(C(=O)C([H])(N([H])C(=O)C([H])(N([H])C([H])([H])[H])C([H])([H])[H])C(C([H])([H])[H])(C([H])([H])[H])C([H])([H])[H])C([H])([H])c2c([H])c(OC([H])([H])C([H])([H])[N+]([H])([H])C([H])([H])C([H])([H])C(N([H])C(=O)N3C([H])([H])C([H])([H])C([H])([H])C([H])(n4nc(-c5c([H])c([H])c(Oc6c([H])c([H])c(F)c([H])c6F)c([H])c5[H])c(C(=O)N([H])[H])c4N([H])[H])C3([H])[H])(C([H])([H])C([H])([H])[H])C([H])([H])C([H])([H])[H])c([H])c([H])c2C1([H])[H]

>  <smiles>  (24) 
[H]c1c([H])c([H])c2c(c1[H])C([H])([H])C([H])([H])C([H])([H])C2([H])N([H])C(=O)C1([H])N(C(=O)C([H])(N([H])C(=O)C([H])(N([H])C([H])([H])[H])C([H])([H])[H])C(C([H])([H])[H])(C([H])([H])[H])C([H])([H])[H])C([H])([H])c2c([H])c(OC([H])([H])C([H])([H])[N+]([H])([H])C([H])([H])C([H])([H])C(N([H])C(=O)N3C([H])([H])C([H])([H])C([H])([H])C([H])(n4nc(-c5c([H])c([H])c(Oc6c([H])c([H])c(F)c([H])c6F)c([H])c5[H])c(C(=O)N([H])[H])c4N([H])[H])C3([H])[H])(C([H])([H])C([H])([H])[H])C([H])([H])C([H])([H])[H])c([H])c([H])c2C1([H])[H]

$$$$
24:0:0
     RDKit          3D

100108  0  0  1  0  0  0  0  0999 V2000
  -30.0780  -18.3310   21.1970 C   0  0  0  0  0  3  0  0  0  0  0  0
  -32.4240  -18.1190   22.3060 C   0  0  0  0  0  1  0  0  0  0  0  0
  -30.8980  -18.1790   22.4980 C   0  0  0  0  0  2  0  0  0  0  0  0
  -30.2680  -17.1570   20.1680 C   0  0  0  0  0  3  0  0  0  0  0  0
  -31.0110  -14.7490   20.4080 C   0  0  0  0  0  0  0  0  0  0  0  0
  -30.7160  -12.5980   19.2480 C   0  0  0  0  0  2  0  0  0  0  0  0
  -29.7860  -12.8430   18.0420 C   0  0  0  0  0  2  0  0  0  0  0  0
  -28.3080  -12.6990   18.4560 C   0  0  0  0  0  2  0  0  0  0  0  0
  -27.9730  -13.4870   19.7500 C   0  0  0  0  0  3  0  0  0  0  0  0
  -29.0220  -13.2540   20.8610 C   0  0  0  0  0  2  0  0  0  0  0  0
  -30.3500  -13.5620   20.3040 N   0  0  0  0  0  0  0  0  0  0  0  0
  -32.1450  -14.9120   19.9540 O   0  0  0  0  0  0  0  0  0  0  0  0
  -30.2540  -15.8060   20.7960 N   0  0  0  0  0  0  0  0  0  0  0  0
  -29.4090  -15.5740   21.2900 H   0  0  0  0  0  0  0  0  0  0  0  0
  -25.5800  -14.1640   20.3970 C   0  0  0  0  0  0  0  0  0  0  0  0
  -24.4900  -13.4150   20.7590 C   0  0  0  0  0  0  0  0  0  0  0  0
  -24.9300  -12.0590   20.7530 C   0  0  0  0  0  0  0  0  0  0  0  0
  -26.6090  -13.2550   20.2010 N   0  0  0  0  0  0  0  0  0  0  0  0
  -26.2240  -11.9860   20.4680 N   0  0  0  0  0  0  0  0  0  0  0  0
  -24.1860  -10.8110   20.9430 C   0  0  0  0  0  0  0  0  0  0  0  0
  -24.5830   -9.8590   21.9050 C   0  0  0  0  0  3  0  0  0  0  0  0
  -23.8440   -8.6700   22.0780 C   0  0  0  0  0  3  0  0  0  0  0  0
  -22.6950   -8.4320   21.2880 C   0  0  0  0  0  0  0  0  0  0  0  0
  -22.3190   -9.3740   20.3140 C   0  0  0  0  0  3  0  0  0  0  0  0
  -23.0580  -10.5540   20.1400 C   0  0  0  0  0  3  0  0  0  0  0  0
  -21.9260   -7.2980   21.3730 O   0  0  0  0  0  0  0  0  0  0  0  0
  -21.8160   -6.5890   22.5420 C   0  0  0  0  0  0  0  0  0  0  0  0
  -21.3400   -7.1830   23.7310 C   0  0  0  0  0  3  0  0  0  0  0  0
  -21.1800   -6.4020   24.8930 C   0  0  0  0  0  3  0  0  0  0  0  0
  -21.4840   -5.0280   24.8660 C   0  0  0  0  0  0  0  0  0  0  0  0
  -21.9540   -4.4340   23.6810 C   0  0  0  0  0  3  0  0  0  0  0  0
  -22.1190   -5.2120   22.5230 C   0  0  0  0  0  0  0  0  0  0  0  0
  -22.5530   -4.6290   21.3780 F   0  0  0  0  0  0  0  0  0  0  0  0
  -21.3230   -4.2760   25.9800 F   0  0  0  0  0  0  0  0  0  0  0  0
  -23.0980  -13.9240   21.0000 C   0  0  0  0  0  0  0  0  0  0  0  0
  -22.3570  -13.2770   21.8940 N   0  0  0  0  0  0  0  0  0  0  0  0
  -22.6740  -14.9290   20.4340 O   0  0  0  0  0  0  0  0  0  0  0  0
  -22.7130  -12.4640   22.3760 H   0  0  0  0  0  0  0  0  0  0  0  0
  -21.4220  -13.6030   22.0970 H   0  0  0  0  0  0  0  0  0  0  0  0
  -25.7710  -15.5270   20.2050 N   0  0  0  0  0  0  0  0  0  0  0  0
  -25.0090  -16.1900   20.3010 H   0  0  0  0  0  0  0  0  0  0  0  0
  -26.6260  -15.9500   19.8720 H   0  0  0  0  0  0  0  0  0  0  0  0
  -29.1420  -17.1380   19.0790 C   0  0  0  0  0  2  0  0  0  0  0  0
  -27.7600  -18.0090   17.1440 C   0  0  0  0  0  2  0  0  0  0  0  0
  -30.2080  -18.6250   17.3170 C   0  0  0  0  0  2  0  0  0  0  0  0
  -27.5870  -19.1370   16.1090 C   0  0  0  0  0  2  0  0  0  0  0  0
  -29.9780  -19.7020   16.2450 C   0  0  0  0  0  2  0  0  0  0  0  0
  -28.9250  -18.3200   18.1150 C   0  0  0  0  0  3  0  0  0  0  0  0
  -28.8470  -19.3420   15.3640 N   0  0  0  0  0  4  0  0  0  0  0  0
  -28.7160  -20.0700   14.6810 H   0  0  0  0  0  0  0  0  0  0  0  0
  -29.0790  -18.5000   14.8610 H   0  0  0  0  0  0  0  0  0  0  0  0
  -30.3300  -19.7420   20.5820 C   0  0  0  0  0  2  0  0  0  0  0  0
  -29.4750  -20.8850   21.1580 C   0  0  0  0  0  2  0  0  0  0  0  0
  -29.4960  -22.1430   20.2570 C   0  0  0  0  0  2  0  0  0  0  0  0
  -28.6530  -23.2370   20.7870 N   0  0  0  0  0  4  0  0  0  0  0  0
  -28.9970  -23.4780   21.7030 H   0  0  0  0  0  0  0  0  0  0  0  0
  -27.7110  -22.8940   20.9030 H   0  0  0  0  0  0  0  0  0  0  0  0
  -28.6180  -24.4640   19.9470 C   0  0  0  0  0  2  0  0  0  0  0  0
  -28.4170  -25.7180   20.8170 C   0  0  0  0  0  2  0  0  0  0  0  0
  -28.4130  -26.9050   20.0250 O   0  0  0  0  0  0  0  0  0  0  0  0
  -24.5790  -31.9280   23.2370 C   0  0  0  0  0  0  0  0  0  0  0  0
  -27.2340  -27.5990   20.0530 C   0  0  0  0  0  0  0  0  0  0  0  0
  -23.3670  -30.5560   21.5680 C   0  0  0  0  0  3  0  0  0  0  0  0
  -24.8220  -29.0490   20.1110 C   0  0  0  0  0  0  0  0  0  0  0  0
  -25.8850  -30.9430   21.3590 C   0  0  0  0  0  2  0  0  0  0  0  0
  -25.9750  -29.5840   20.6980 C   0  0  0  0  0  0  0  0  0  0  0  0
  -27.1890  -28.8700   20.6570 C   0  0  0  0  0  3  0  0  0  0  0  0
  -26.0650  -27.0590   19.4740 C   0  0  0  0  0  3  0  0  0  0  0  0
  -24.8580  -27.7840   19.4940 C   0  0  0  0  0  3  0  0  0  0  0  0
  -23.5710  -29.8940   20.1770 C   0  0  0  0  0  2  0  0  0  0  0  0
  -24.6290  -31.1540   22.1150 N   0  0  0  0  0  0  0  0  0  0  0  0
  -23.5020  -32.1810   23.7900 O   0  0  0  0  0  0  0  0  0  0  0  0
  -22.7300  -29.5120   22.5140 C   0  0  0  0  0  0  0  0  0  0  0  0
  -21.4120  -29.3040   22.3720 N   0  0  0  0  0  0  0  0  0  0  0  0
  -23.4200  -28.8920   23.3260 O   0  0  0  0  0  0  0  0  0  0  0  0
  -20.9070  -29.8680   21.7000 H   0  0  0  0  0  0  0  0  0  0  0  0
  -18.0620  -28.0510   22.8440 C   0  0  0  0  0  0  0  0  0  0  0  0
  -20.6110  -28.3430   23.1290 C   0  0  0  0  0  3  0  0  0  0  0  0
  -20.7360  -26.9220   22.5340 C   0  0  0  0  0  2  0  0  0  0  0  0
  -19.6450  -26.5980   21.5080 C   0  0  0  0  0  2  0  0  0  0  0  0
  -18.2600  -26.7140   22.1500 C   0  0  0  0  0  2  0  0  0  0  0  0
  -19.1650  -28.8230   23.2910 C   0  0  0  0  0  0  0  0  0  0  0  0
  -18.9270  -30.0770   23.8960 C   0  0  0  0  0  3  0  0  0  0  0  0
  -17.6150  -30.5580   24.0590 C   0  0  0  0  0  3  0  0  0  0  0  0
  -16.5240  -29.7840   23.6280 C   0  0  0  0  0  3  0  0  0  0  0  0
  -16.7480  -28.5310   23.0290 C   0  0  0  0  0  3  0  0  0  0  0  0
  -25.8690  -32.5560   23.8560 C   0  0  0  0  0  3  0  0  0  0  0  0
  -26.3790  -31.7840   25.1350 C   0  0  1  0  0  0  0  0  0  0  0  0
  -25.2770  -31.5060   26.1830 C   0  0  0  0  0  1  0  0  0  0  0  0
  -27.0080  -30.4270   24.7370 C   0  0  0  0  0  1  0  0  0  0  0  0
  -27.4850  -32.6050   25.8370 C   0  0  0  0  0  1  0  0  0  0  0  0
  -25.5690  -33.9550   24.1800 N   0  0  0  0  0  0  0  0  0  0  0  0
  -25.9240  -35.0040   23.4240 C   0  0  0  0  0  0  0  0  0  0  0  0
  -26.6090  -34.8920   22.4040 O   0  0  0  0  0  0  0  0  0  0  0  0
  -24.9680  -34.1140   24.9750 H   0  0  0  0  0  0  0  0  0  0  0  0
  -24.2280  -36.8150   23.0190 C   0  0  0  0  0  1  0  0  0  0  0  0
  -25.4380  -36.3940   23.8700 C   0  0  0  0  0  3  0  0  0  0  0  0
  -27.5580  -37.2510   24.7660 C   0  0  0  0  0  1  0  0  0  0  0  0
  -26.4840  -37.4360   23.7920 N   0  0  0  0  0  0  0  0  0  0  0  0
  -26.0820  -38.3580   23.9350 H   0  0  0  0  0  0  0  0  0  0  0  0
  1 52  1  0
  1  3  1  0
  2  3  1  0
  4 43  1  0
  4 13  1  0
  4  1  1  0
  5 13  1  0
  6 11  1  0
  7  8  1  0
  7  6  1  0
  9  8  1  0
  9 18  1  0
  9 10  1  0
 11  5  1  0
 11 10  1  0
 12  5  2  0
 13 14  1  0
 15 16  2  0
 16 35  1  0
 17 16  1  0
 17 20  1  0
 18 15  1  0
 18 19  1  0
 19 17  2  0
 20 21  1  0
 21 22  2  0
 23 26  1  0
 23 22  1  0
 24 23  2  0
 25 24  1  0
 25 20  2  0
 26 27  1  0
 27 28  1  0
 28 29  2  0
 30 29  1  0
 30 34  1  0
 31 30  2  0
 32 27  2  0
 32 31  1  0
 33 32  1  0
 35 36  1  0
 36 39  1  0
 36 38  1  0
 37 35  2  0
 40 41  1  0
 40 15  1  0
 42 40  1  0
 44 48  1  0
 45 48  1  0
 46 44  1  0
 47 45  1  0
 48 43  1  0
 49 46  1  0
 49 47  1  0
 50 49  1  0
 51 49  1  0
 52 53  1  0
 54 55  1  0
 54 53  1  0
 55 57  1  0
 55 56  1  0
 58 55  1  0
 58 59  1  0
 60 62  1  0
 60 59  1  0
 61 72  2  0
 62 67  1  0
 63 71  1  0
 63 73  1  0
 64 70  1  0
 64 66  1  0
 65 71  1  0
 66 65  1  0
 67 66  2  0
 68 69  1  0
 68 62  2  0
 69 64  2  0
 70 63  1  0
 71 61  1  0
 73 75  2  0
 74 73  1  0
 76 74  1  0
 77 86  2  0
 77 82  1  0
 78 74  1  0
 78 82  1  0
 79 78  1  0
 80 81  1  0
 80 79  1  0
 81 77  1  0
 82 83  2  0
 83 84  1  0
 85 84  2  0
 86 85  1  0
 87 61  1  0
 87 92  1  0
 87 88  1  0
 88 91  1  1
 88 89  1  0
 90 88  1  0
 92 95  1  0
 93 97  1  0
 93 92  1  0
 94 93  2  0
 97 96  1  0
 99 97  1  0
 99100  1  0
 99 98  1  0
M  ISO  4   5 100  13 100  59 101  60 101
M  END
>  <TORSDO>  (25) 
F 26

>  <SCORE>  (25) 
-10.324

>  <name>  (25) 
24

>  <ligand_id>  (25) 
24

>  <original_smiles>  (25) 
[H]c1c([H])c([H])c2c(c1[H])C([H])([H])C([H])([H])C([H])([H])C2([H])N([H])C(=O)C1([H])N(C(=O)C([H])(N([H])C(=O)C([H])(N([H])C([H])([H])[H])C([H])([H])[H])C(C([H])([H])[H])(C([H])([H])[H])C([H])([H])[H])C([H])([H])c2c([H])c(OC([H])([H])C([H])([H])[N+]([H])([H])C([H])([H])C([H])([H])C([H])([H])C([H])(C([H])([H])C([H])([H])[H])C([H])(N([H])C(=O)N3C([H])([H])C([H])([H])C([H])([H])C([H])(n4nc(-c5c([H])c([H])c(Oc6c([H])c([H])c(F)c([H])c6F)c([H])c5[H])c(C(=O)N([H])[H])c4N([H])[H])C3([H])[H])C([H])([H])C3([H])C([H])([H])C([H])([H])[N+]([H])([H])C([H])([H])C3([H])[H])c([H])c([H])c2C1([H])[H]

>  <smiles>  (25) 
[H]c1c([H])c([H])c2c(c1[H])C([H])([H])C([H])([H])C([H])([H])C2([H])N([H])C(=O)C1([H])N(C(=O)C([H])(N([H])C(=O)C([H])(N([H])C([H])([H])[H])C([H])([H])[H])C(C([H])([H])[H])(C([H])([H])[H])C([H])([H])[H])C([H])([H])c2c([H])c(OC([H])([H])C([H])([H])[N+]([H])([H])C([H])([H])C([H])([H])C([H])([H])C([H])(C([H])([H])C([H])([H])[H])C([H])(N([H])C(=O)N3C([H])([H])C([H])([H])C([H])([H])C([H])(n4nc(-c5c([H])c([H])c(Oc6c([H])c([H])c(F)c([H])c6F)c([H])c5[H])c(C(=O)N([H])[H])c4N([H])[H])C3([H])[H])C([H])([H])C3([H])C([H])([H])C([H])([H])[N+]([H])([H])C([H])([H])C3([H])[H])c([H])c([H])c2C1([H])[H]

$$$$
25:0:0
     RDKit          3D

 85 93  0  0  1  0  0  0  0  0999 V2000
  -28.9040  -22.5320   20.3660 C   0  0  0  0  0  3  0  0  0  0  0  0
  -30.4260  -15.5300   20.0610 C   0  0  0  0  0  0  0  0  0  0  0  0
  -30.3600  -13.0510   19.2020 C   0  0  0  0  0  2  0  0  0  0  0  0
  -29.4280  -12.7440   18.0030 C   0  0  0  0  0  2  0  0  0  0  0  0
  -28.0090  -12.4310   18.4970 C   0  0  0  0  0  2  0  0  0  0  0  0
  -27.5570  -13.4170   19.6030 C   0  0  0  0  0  3  0  0  0  0  0  0
  -28.6270  -13.6750   20.6880 C   0  0  0  0  0  2  0  0  0  0  0  0
  -29.8030  -14.2310   19.9900 N   0  0  0  0  0  0  0  0  0  0  0  0
  -31.6440  -15.3990   19.8390 O   0  0  0  0  0  0  0  0  0  0  0  0
  -28.3480  -19.3880   20.7820 C   0  0  0  0  0  2  0  0  0  0  0  0
  -30.3450  -19.8460   19.8660 C   0  0  0  0  0  2  0  0  0  0  0  0
  -28.5350  -17.7050   20.4350 C   0  0  0  0  0  2  0  0  0  0  0  0
  -30.5650  -18.2090   19.4690 C   0  0  0  0  0  2  0  0  0  0  0  0
  -28.9390  -20.7010   19.9390 C   0  0  0  0  0  3  0  0  0  0  0  0
  -29.8530  -16.9530   20.0620 N   0  0  0  0  0  0  0  0  0  0  0  0
  -25.2190  -13.9350   20.4490 C   0  0  0  0  0  0  0  0  0  0  0  0
  -24.1740  -13.1450   20.8360 C   0  0  0  0  0  0  0  0  0  0  0  0
  -24.6490  -11.7980   20.7730 C   0  0  0  0  0  0  0  0  0  0  0  0
  -26.2580  -13.0720   20.1600 N   0  0  0  0  0  0  0  0  0  0  0  0
  -25.9330  -11.7790   20.4240 N   0  0  0  0  0  0  0  0  0  0  0  0
  -23.9350  -10.5290   20.9650 C   0  0  0  0  0  0  0  0  0  0  0  0
  -24.3720   -9.5680   21.9040 C   0  0  0  0  0  3  0  0  0  0  0  0
  -23.6530   -8.3680   22.0870 C   0  0  0  0  0  3  0  0  0  0  0  0
  -22.4840   -8.1180   21.3300 C   0  0  0  0  0  0  0  0  0  0  0  0
  -22.0670   -9.0660   20.3800 C   0  0  0  0  0  3  0  0  0  0  0  0
  -22.7860  -10.2580   20.1950 C   0  0  0  0  0  3  0  0  0  0  0  0
  -21.7360   -6.9680   21.4220 O   0  0  0  0  0  0  0  0  0  0  0  0
  -21.6520   -6.2550   22.5920 C   0  0  0  0  0  0  0  0  0  0  0  0
  -21.1480   -6.8290   23.7790 C   0  0  0  0  0  3  0  0  0  0  0  0
  -21.0140   -6.0410   24.9400 C   0  0  0  0  0  3  0  0  0  0  0  0
  -21.3730   -4.6810   24.9140 C   0  0  0  0  0  0  0  0  0  0  0  0
  -21.8700   -4.1060   23.7300 C   0  0  0  0  0  3  0  0  0  0  0  0
  -22.0050   -4.8910   22.5720 C   0  0  0  0  0  0  0  0  0  0  0  0
  -22.4650   -4.3270   21.4290 F   0  0  0  0  0  0  0  0  0  0  0  0
  -21.2380   -3.9220   26.0260 F   0  0  0  0  0  0  0  0  0  0  0  0
  -22.7820  -13.6090   21.1450 C   0  0  0  0  0  0  0  0  0  0  0  0
  -22.0820  -12.9040   22.0240 N   0  0  0  0  0  0  0  0  0  0  0  0
  -22.3260  -14.6360   20.6430 O   0  0  0  0  0  0  0  0  0  0  0  0
  -22.4660  -12.0730   22.4520 H   0  0  0  0  0  0  0  0  0  0  0  0
  -21.1490  -13.1980   22.2780 H   0  0  0  0  0  0  0  0  0  0  0  0
  -25.3670  -15.3100   20.2840 N   0  0  0  0  0  0  0  0  0  0  0  0
  -24.6010  -15.9580   20.4330 H   0  0  0  0  0  0  0  0  0  0  0  0
  -26.2050  -15.7580   19.9410 H   0  0  0  0  0  0  0  0  0  0  0  0
  -27.9840  -24.1150   19.9990 C   0  0  0  0  0  3  0  0  0  0  0  0
  -28.1630  -25.7820   20.2860 O   0  0  0  0  0  0  0  0  0  0  0  0
  -24.6520  -31.8790   23.2550 C   0  0  0  0  0  0  0  0  0  0  0  0
  -27.1750  -26.9330   20.2130 C   0  0  0  0  0  0  0  0  0  0  0  0
  -23.4540  -30.4980   21.6080 C   0  0  0  0  0  3  0  0  0  0  0  0
  -24.8970  -28.8820   20.1740 C   0  0  0  0  0  0  0  0  0  0  0  0
  -26.0260  -30.6750   21.4710 C   0  0  0  0  0  2  0  0  0  0  0  0
  -26.0890  -29.2610   20.8030 C   0  0  0  0  0  0  0  0  0  0  0  0
  -27.2190  -28.3100   20.7950 C   0  0  0  0  0  3  0  0  0  0  0  0
  -25.9540  -26.7310   19.5290 C   0  0  0  0  0  3  0  0  0  0  0  0
  -24.8600  -27.6420   19.5150 C   0  0  0  0  0  3  0  0  0  0  0  0
  -23.6850  -29.8180   20.2290 C   0  0  0  0  0  2  0  0  0  0  0  0
  -24.7340  -31.0470   22.1640 N   0  0  0  0  0  0  0  0  0  0  0  0
  -23.5610  -32.1720   23.7750 O   0  0  0  0  0  0  0  0  0  0  0  0
  -22.7510  -29.5040   22.5710 C   0  0  0  0  0  0  0  0  0  0  0  0
  -21.4210  -29.3390   22.4390 N   0  0  0  0  0  0  0  0  0  0  0  0
  -23.4100  -28.8800   23.4060 O   0  0  0  0  0  0  0  0  0  0  0  0
  -20.9400  -29.8920   21.7440 H   0  0  0  0  0  0  0  0  0  0  0  0
  -18.0400  -28.1070   22.9280 C   0  0  0  0  0  0  0  0  0  0  0  0
  -20.5970  -28.3960   23.2060 C   0  0  0  0  0  3  0  0  0  0  0  0
  -20.7120  -26.9640   22.6340 C   0  0  0  0  0  2  0  0  0  0  0  0
  -19.6190  -26.6320   21.6120 C   0  0  0  0  0  2  0  0  0  0  0  0
  -18.2330  -26.7630   22.2470 C   0  0  0  0  0  2  0  0  0  0  0  0
  -19.1490  -28.8810   23.3630 C   0  0  0  0  0  0  0  0  0  0  0  0
  -18.9120  -30.1370   23.9630 C   0  0  0  0  0  3  0  0  0  0  0  0
  -17.6010  -30.6210   24.1290 C   0  0  0  0  0  3  0  0  0  0  0  0
  -16.5060  -29.8460   23.7070 C   0  0  0  0  0  3  0  0  0  0  0  0
  -16.7270  -28.5910   23.1120 C   0  0  0  0  0  3  0  0  0  0  0  0
  -25.9220  -32.5180   23.8940 C   0  0  0  0  0  3  0  0  0  0  0  0
  -25.6110  -33.9230   24.2170 N   0  0  0  0  0  0  0  0  0  0  0  0
  -25.9250  -34.9780   23.4520 C   0  0  0  0  0  0  0  0  0  0  0  0
  -26.5650  -34.8700   22.4030 O   0  0  0  0  0  0  0  0  0  0  0  0
  -25.0380  -34.0800   25.0340 H   0  0  0  0  0  0  0  0  0  0  0  0
  -24.1740  -36.7680   23.1730 C   0  0  0  0  0  1  0  0  0  0  0  0
  -25.4570  -36.3720   23.9210 C   0  0  0  0  0  3  0  0  0  0  0  0
  -27.6230  -37.2830   24.6380 C   0  0  0  0  0  1  0  0  0  0  0  0
  -26.4780  -37.4280   23.7430 N   0  0  0  0  0  0  0  0  0  0  0  0
  -26.0740  -38.3490   23.8920 H   0  0  0  0  0  0  0  0  0  0  0  0
  -26.4070  -31.7620   25.1920 C   0  0  1  0  0  0  0  0  0  0  0  0
  -25.2940  -31.5510   26.2460 C   0  0  0  0  0  1  0  0  0  0  0  0
  -26.9860  -30.3720   24.8410 C   0  0  0  0  0  1  0  0  0  0  0  0
  -27.5540  -32.5560   25.8620 C   0  0  0  0  0  1  0  0  0  0  0  0
  2 15  1  0
  3  8  1  0
  4  5  1  0
  4  3  1  0
  6  5  1  0
  6 19  1  0
  6  7  1  0
  8  2  1  0
  8  7  1  0
  9  2  2  0
 11 14  1  0
 12 10  1  0
 13 11  1  0
 13 15  1  0
 14  1  1  0
 14 10  1  0
 15 12  1  0
 16 17  2  0
 17 36  1  0
 18 17  1  0
 18 21  1  0
 19 20  1  0
 19 16  1  0
 20 18  2  0
 21 22  1  0
 22 23  2  0
 24 27  1  0
 24 23  1  0
 25 24  2  0
 26 25  1  0
 26 21  2  0
 27 28  1  0
 28 29  1  0
 29 30  2  0
 31 30  1  0
 31 35  1  0
 32 31  2  0
 33 28  2  0
 33 32  1  0
 34 33  1  0
 36 37  1  0
 37 40  1  0
 37 39  1  0
 38 36  2  0
 41 42  1  0
 41 16  1  0
 43 41  1  0
 44 45  1  0
 44  1  2  0
 46 57  2  0
 47 45  1  0
 47 52  1  0
 48 56  1  0
 48 58  1  0
 49 55  1  0
 49 51  1  0
 50 56  1  0
 51 50  1  0
 52 51  2  0
 53 47  2  0
 54 53  1  0
 54 49  2  0
 55 48  1  0
 56 46  1  0
 58 60  2  0
 59 58  1  0
 61 59  1  0
 62 71  2  0
 62 67  1  0
 63 59  1  0
 63 67  1  0
 64 63  1  0
 65 66  1  0
 65 64  1  0
 66 62  1  0
 67 68  2  0
 68 69  1  0
 70 69  2  0
 71 70  1  0
 72 46  1  0
 72 73  1  0
 72 82  1  0
 73 76  1  0
 74 78  1  0
 74 73  1  0
 75 74  2  0
 78 77  1  0
 80 81  1  0
 80 78  1  0
 80 79  1  0
 82 85  1  1
 82 83  1  0
 84 82  1  0
M  ISO  4   2 100  15 100  44 101  45 101
M  END
>  <TORSDO>  (26) 
F 17

>  <SCORE>  (26) 
-16.380

>  <name>  (26) 
25

>  <ligand_id>  (26) 
25

>  <original_smiles>  (26) 
[H]c1c([H])c([H])c2c(c1[H])C([H])([H])C([H])([H])C([H])([H])C2([H])N([H])C(=O)C1([H])N(C(=O)C([H])(N([H])C(=O)C([H])(N([H])C([H])([H])[H])C([H])([H])[H])C(C([H])([H])[H])(C([H])([H])[H])C([H])([H])[H])C([H])([H])c2c([H])c(OC([H])([H])C([H])([H])C3([H])C([H])([H])C([H])([H])N(C(=O)N4C([H])([H])C([H])([H])C([H])([H])C([H])(n5nc(-c6c([H])c([H])c(Oc7c([H])c([H])c(F)c([H])c7F)c([H])c6[H])c(C(=O)N([H])[H])c5N([H])[H])C4([H])[H])C([H])([H])C3([H])[H])c([H])c([H])c2C1([H])[H]

>  <smiles>  (26) 
[H]c1c([H])c([H])c2c(c1[H])C([H])([H])C([H])([H])C([H])([H])C2([H])N([H])C(=O)C1([H])N(C(=O)C([H])(N([H])C(=O)C([H])(N([H])C([H])([H])[H])C([H])([H])[H])C(C([H])([H])[H])(C([H])([H])[H])C([H])([H])[H])C([H])([H])c2c([H])c(OC([H])([H])C([H])([H])C3([H])C([H])([H])C([H])([H])N(C(=O)N4C([H])([H])C([H])([H])C([H])([H])C([H])(n5nc(-c6c([H])c([H])c(Oc7c([H])c([H])c(F)c([H])c7F)c([H])c6[H])c(C(=O)N([H])[H])c5N([H])[H])C4([H])[H])C([H])([H])C3([H])[H])c([H])c([H])c2C1([H])[H]

$$$$
27:0:0
     RDKit          3D

 97105  0  0  1  0  0  0  0  0999 V2000
  -27.4600  -21.0460   18.8660 C   0  0  0  0  0  2  0  0  0  0  0  0
  -29.6000  -20.0620   18.3200 C   0  0  0  0  0  2  0  0  0  0  0  0
  -28.3780  -21.2960   20.0650 C   0  0  0  0  0  3  0  0  0  0  0  0
  -29.4070  -19.8670   19.8390 C   0  0  0  0  0  3  0  0  0  0  0  0
  -28.3210  -20.5610   17.7680 N   0  0  0  0  0  4  0  0  0  0  0  0
  -28.5110  -21.2990   17.1090 H   0  0  0  0  0  0  0  0  0  0  0  0
  -27.8410  -19.8260   17.2740 H   0  0  0  0  0  0  0  0  0  0  0  0
  -28.7980  -23.0150   20.0760 C   0  0  0  0  0  0  0  0  0  0  0  0
  -30.0350  -23.2710   20.1530 N   0  0  0  0  0  0  0  0  0  0  0  0
  -30.6040  -22.4340   20.2100 H   0  0  0  0  0  0  0  0  0  0  0  0
  -27.7580  -24.4320   19.9930 C   0  0  0  0  0  2  0  0  0  0  0  0
  -28.1120  -26.0230   20.1140 O   0  0  0  0  0  0  0  0  0  0  0  0
  -24.6410  -31.9410   23.2080 C   0  0  0  0  0  0  0  0  0  0  0  0
  -27.1140  -27.1180   20.0850 C   0  0  0  0  0  0  0  0  0  0  0  0
  -23.4070  -30.5590   21.5890 C   0  0  0  0  0  3  0  0  0  0  0  0
  -24.8180  -28.9790   20.1130 C   0  0  0  0  0  0  0  0  0  0  0  0
  -25.9680  -30.7810   21.3780 C   0  0  0  0  0  2  0  0  0  0  0  0
  -26.0210  -29.3820   20.7070 C   0  0  0  0  0  0  0  0  0  0  0  0
  -27.1660  -28.4720   20.6700 C   0  0  0  0  0  3  0  0  0  0  0  0
  -25.8810  -26.8610   19.4450 C   0  0  0  0  0  3  0  0  0  0  0  0
  -24.7710  -27.7370   19.4620 C   0  0  0  0  0  3  0  0  0  0  0  0
  -23.6010  -29.8930   20.2000 C   0  0  0  0  0  2  0  0  0  0  0  0
  -24.6950  -31.1200   22.1110 N   0  0  0  0  0  0  0  0  0  0  0  0
  -23.5650  -32.2250   23.7580 O   0  0  0  0  0  0  0  0  0  0  0  0
  -22.7420  -29.5490   22.5610 C   0  0  0  0  0  0  0  0  0  0  0  0
  -21.4150  -29.3600   22.4460 N   0  0  0  0  0  0  0  0  0  0  0  0
  -23.4270  -28.9380   23.3850 O   0  0  0  0  0  0  0  0  0  0  0  0
  -20.9160  -29.9050   21.7560 H   0  0  0  0  0  0  0  0  0  0  0  0
  -18.0620  -28.0750   22.9650 C   0  0  0  0  0  0  0  0  0  0  0  0
  -20.6140  -28.4100   23.2260 C   0  0  0  0  0  3  0  0  0  0  0  0
  -20.7520  -26.9750   22.6680 C   0  0  0  0  0  2  0  0  0  0  0  0
  -19.6600  -26.6130   21.6570 C   0  0  0  0  0  2  0  0  0  0  0  0
  -18.2740  -26.7270   22.3000 C   0  0  0  0  0  2  0  0  0  0  0  0
  -19.1600  -28.8730   23.3860 C   0  0  0  0  0  0  0  0  0  0  0  0
  -18.9060  -30.1320   23.9720 C   0  0  0  0  0  3  0  0  0  0  0  0
  -17.5870  -30.5970   24.1380 C   0  0  0  0  0  3  0  0  0  0  0  0
  -16.5040  -29.7970   23.7310 C   0  0  0  0  0  3  0  0  0  0  0  0
  -16.7420  -28.5390   23.1520 C   0  0  0  0  0  3  0  0  0  0  0  0
  -25.9270  -32.5780   23.8140 C   0  0  0  0  0  3  0  0  0  0  0  0
  -26.4620  -31.8060   25.0830 C   0  0  1  0  0  0  0  0  0  0  0  0
  -25.3860  -31.5710   26.1700 C   0  0  0  0  0  1  0  0  0  0  0  0
  -27.0360  -30.4260   24.6900 C   0  0  0  0  0  1  0  0  0  0  0  0
  -27.6260  -32.5980   25.7240 C   0  0  0  0  0  1  0  0  0  0  0  0
  -25.6170  -33.9760   24.1650 N   0  0  0  0  0  0  0  0  0  0  0  0
  -25.9290  -35.0420   23.4160 C   0  0  0  0  0  0  0  0  0  0  0  0
  -26.5720  -34.9540   22.3680 O   0  0  0  0  0  0  0  0  0  0  0  0
  -25.0410  -34.1170   24.9820 H   0  0  0  0  0  0  0  0  0  0  0  0
  -24.1860  -36.8400   23.1450 C   0  0  0  0  0  1  0  0  0  0  0  0
  -25.4550  -36.4260   23.9080 C   0  0  0  0  0  3  0  0  0  0  0  0
  -27.6160  -37.3090   24.6730 C   0  0  0  0  0  1  0  0  0  0  0  0
  -26.4810  -37.4840   23.7700 N   0  0  0  0  0  0  0  0  0  0  0  0
  -26.0780  -38.4010   23.9410 H   0  0  0  0  0  0  0  0  0  0  0  0
  -29.2050  -18.0810   20.0840 C   0  0  0  0  0  2  0  0  0  0  0  0
  -30.6990  -15.4120   20.1460 C   0  0  0  0  0  0  0  0  0  0  0  0
  -30.5060  -12.9810   19.3200 C   0  0  0  0  0  2  0  0  0  0  0  0
  -29.5930  -12.6620   18.1230 C   0  0  0  0  0  2  0  0  0  0  0  0
  -28.1720  -12.3750   18.6190 C   0  0  0  0  0  2  0  0  0  0  0  0
  -27.7070  -13.4020   19.6830 C   0  0  0  0  0  3  0  0  0  0  0  0
  -28.7710  -13.7170   20.7610 C   0  0  0  0  0  2  0  0  0  0  0  0
  -29.9570  -14.2040   20.0310 N   0  0  0  0  0  0  0  0  0  0  0  0
  -31.9040  -15.1230   20.0850 O   0  0  0  0  0  0  0  0  0  0  0  0
  -30.3630  -16.8870   20.0660 N   0  0  0  0  0  0  0  0  0  0  0  0
  -25.3660  -13.9240   20.5250 C   0  0  0  0  0  0  0  0  0  0  0  0
  -24.3180  -13.1320   20.8970 C   0  0  0  0  0  0  0  0  0  0  0  0
  -24.7930  -11.7840   20.8290 C   0  0  0  0  0  0  0  0  0  0  0  0
  -26.4070  -13.0620   20.2400 N   0  0  0  0  0  0  0  0  0  0  0  0
  -26.0780  -11.7670   20.4920 N   0  0  0  0  0  0  0  0  0  0  0  0
  -24.0780  -10.5130   21.0050 C   0  0  0  0  0  0  0  0  0  0  0  0
  -24.4980   -9.5520   21.9500 C   0  0  0  0  0  3  0  0  0  0  0  0
  -23.7780   -8.3490   22.1170 C   0  0  0  0  0  3  0  0  0  0  0  0
  -22.6230   -8.0980   21.3390 C   0  0  0  0  0  0  0  0  0  0  0  0
  -22.2220   -9.0490   20.3840 C   0  0  0  0  0  3  0  0  0  0  0  0
  -22.9420  -10.2430   20.2140 C   0  0  0  0  0  3  0  0  0  0  0  0
  -21.8760   -6.9480   21.4160 O   0  0  0  0  0  0  0  0  0  0  0  0
  -21.7590   -6.2420   22.5860 C   0  0  0  0  0  0  0  0  0  0  0  0
  -21.2540   -6.8320   23.7650 C   0  0  0  0  0  3  0  0  0  0  0  0
  -21.0850   -6.0520   24.9260 C   0  0  0  0  0  3  0  0  0  0  0  0
  -21.4120   -4.6840   24.9100 C   0  0  0  0  0  0  0  0  0  0  0  0
  -21.9090   -4.0930   23.7350 C   0  0  0  0  0  3  0  0  0  0  0  0
  -22.0800   -4.8690   22.5760 C   0  0  0  0  0  0  0  0  0  0  0  0
  -22.5390   -4.2900   21.4410 F   0  0  0  0  0  0  0  0  0  0  0  0
  -21.2430   -3.9320   26.0220 F   0  0  0  0  0  0  0  0  0  0  0  0
  -22.9230  -13.5930   21.2010 C   0  0  0  0  0  0  0  0  0  0  0  0
  -22.2220  -12.8890   22.0830 N   0  0  0  0  0  0  0  0  0  0  0  0
  -22.4660  -14.6160   20.6920 O   0  0  0  0  0  0  0  0  0  0  0  0
  -22.6090  -12.0640   22.5160 H   0  0  0  0  0  0  0  0  0  0  0  0
  -21.2870  -13.1810   22.3270 H   0  0  0  0  0  0  0  0  0  0  0  0
  -25.5170  -15.3000   20.3720 N   0  0  0  0  0  0  0  0  0  0  0  0
  -24.7510  -15.9480   20.5200 H   0  0  0  0  0  0  0  0  0  0  0  0
  -26.3650  -15.7510   20.0540 H   0  0  0  0  0  0  0  0  0  0  0  0
  -31.6090  -17.7100   20.0750 C   0  0  0  0  0  2  0  0  0  0  0  0
  -31.7740  -18.4890   21.4000 C   0  0  0  0  0  2  0  0  0  0  0  0
  -32.8700  -19.5720   21.3230 C   0  0  0  0  0  2  0  0  0  0  0  0
  -32.9050  -20.4160   22.5300 N   0  0  0  0  0  4  0  0  0  0  0  0
  -32.0310  -20.8940   22.6610 H   0  0  0  0  0  0  0  0  0  0  0  0
  -33.6260  -21.1090   22.4410 H   0  0  0  0  0  0  0  0  0  0  0  0
  -33.1010  -19.8670   23.3480 H   0  0  0  0  0  0  0  0  0  0  0  0
  1  3  1  0
  2  4  1  0
  3  8  1  0
  4  3  1  0
  4 53  1  0
  5  2  1  0
  5  1  1  0
  6  5  1  0
  7  5  1  0
  8  9  2  0
  9 10  1  0
 11  8  1  0
 11 12  1  0
 13 24  2  0
 14 12  1  0
 14 19  1  0
 15 23  1  0
 15 25  1  0
 16 22  1  0
 16 18  1  0
 17 23  1  0
 18 17  1  0
 19 18  2  0
 20 21  1  0
 20 14  2  0
 21 16  2  0
 22 15  1  0
 23 13  1  0
 25 27  2  0
 26 25  1  0
 28 26  1  0
 29 38  2  0
 29 34  1  0
 30 26  1  0
 30 34  1  0
 31 30  1  0
 32 33  1  0
 32 31  1  0
 33 29  1  0
 34 35  2  0
 35 36  1  0
 37 36  2  0
 38 37  1  0
 39 13  1  0
 39 44  1  0
 39 40  1  0
 40 43  1  1
 40 41  1  0
 42 40  1  0
 44 47  1  0
 45 49  1  0
 45 44  1  0
 46 45  2  0
 49 48  1  0
 51 49  1  0
 51 52  1  0
 51 50  1  0
 55 60  1  0
 56 57  1  0
 56 55  1  0
 58 57  1  0
 58 66  1  0
 58 59  1  0
 60 54  1  0
 60 59  1  0
 61 54  2  0
 62 91  1  0
 62 53  1  0
 62 54  1  0
 63 64  2  0
 64 83  1  0
 65 64  1  0
 65 68  1  0
 66 67  1  0
 66 63  1  0
 67 65  2  0
 68 69  1  0
 69 70  2  0
 71 74  1  0
 71 70  1  0
 72 71  2  0
 73 72  1  0
 73 68  2  0
 74 75  1  0
 75 76  1  0
 76 77  2  0
 78 77  1  0
 78 82  1  0
 79 78  2  0
 80 75  2  0
 80 79  1  0
 81 80  1  0
 83 84  1  0
 84 87  1  0
 84 86  1  0
 85 83  2  0
 88 89  1  0
 88 63  1  0
 90 88  1  0
 91 92  1  0
 93 92  1  0
 93 94  1  0
 94 95  1  0
 94 97  1  0
 96 94  1  0
M  ISO  4  11 101  12 101  54 100  62 100
M  END
>  <TORSDO>  (27) 
F 23

>  <SCORE>  (27) 
-14.704

>  <name>  (27) 
27

>  <ligand_id>  (27) 
27

>  <original_smiles>  (27) 
[H]N=C(C([H])([H])Oc1c([H])c([H])c2c(c1[H])C([H])([H])N(C(=O)C([H])(N([H])C(=O)C([H])(N([H])C([H])([H])[H])C([H])([H])[H])C(C([H])([H])[H])(C([H])([H])[H])C([H])([H])[H])C([H])(C(=O)N([H])C1([H])c3c([H])c([H])c([H])c([H])c3C([H])([H])C([H])([H])C1([H])[H])C2([H])[H])C1([H])C([H])(C([H])([H])N(C(=O)N2C([H])([H])C([H])([H])C([H])([H])C([H])(n3nc(-c4c([H])c([H])c(Oc5c([H])c([H])c(F)c([H])c5F)c([H])c4[H])c(C(=O)N([H])[H])c3N([H])[H])C2([H])[H])C([H])([H])C([H])([H])C([H])([H])[N+]([H])([H])[H])C([H])([H])[N+]([H])([H])C1([H])[H]

>  <smiles>  (27) 
[H]N=C(C([H])([H])Oc1c([H])c([H])c2c(c1[H])C([H])([H])N(C(=O)C([H])(N([H])C(=O)C([H])(N([H])C([H])([H])[H])C([H])([H])[H])C(C([H])([H])[H])(C([H])([H])[H])C([H])([H])[H])C([H])(C(=O)N([H])C1([H])c3c([H])c([H])c([H])c([H])c3C([H])([H])C([H])([H])C1([H])[H])C2([H])[H])C1([H])C([H])(C([H])([H])N(C(=O)N2C([H])([H])C([H])([H])C([H])([H])C([H])(n3nc(-c4c([H])c([H])c(Oc5c([H])c([H])c(F)c([H])c5F)c([H])c4[H])c(C(=O)N([H])[H])c3N([H])[H])C2([H])[H])C([H])([H])C([H])([H])C([H])([H])[N+]([H])([H])[H])C([H])([H])[N+]([H])([H])C1([H])[H]

$$$$
28:0:0
     RDKit          3D

103111  0  0  1  0  0  0  0  0999 V2000
  -29.4090  -22.6270   19.5780 C   0  0  0  0  0  3  0  0  0  0  0  0
  -30.7950  -22.8350   20.2100 C   0  0  0  0  0  2  0  0  0  0  0  0
  -31.9760  -22.4870   19.2770 C   0  0  0  0  0  2  0  0  0  0  0  0
  -32.7740  -23.7380   19.0010 C   0  0  0  0  0  3  0  0  0  0  0  0
  -31.0660  -27.0400   16.9500 C   0  0  0  0  0  2  0  0  0  0  0  0
  -30.3050  -25.7200   17.1620 C   0  0  0  0  0  2  0  0  0  0  0  0
  -32.1910  -27.1540   17.9860 C   0  0  0  0  0  2  0  0  0  0  0  0
  -31.2600  -24.5110   17.1340 C   0  0  0  0  0  2  0  0  0  0  0  0
  -33.1350  -25.9420   17.8930 C   0  0  0  0  0  2  0  0  0  0  0  0
  -32.3860  -24.6780   18.0870 N   0  0  0  0  0  0  0  0  0  0  0  0
  -33.8970  -23.8950   19.7290 N   0  0  0  0  0  0  0  0  0  0  0  0
  -34.2140  -23.1760   20.3670 H   0  0  0  0  0  0  0  0  0  0  0  0
  -34.5090  -24.6880   19.6010 H   0  0  0  0  0  0  0  0  0  0  0  0
  -28.4160  -24.2240   19.9660 C   0  0  0  0  0  2  0  0  0  0  0  0
  -28.6040  -25.9540   20.0560 O   0  0  0  0  0  0  0  0  0  0  0  0
  -24.8470  -31.9110   23.2920 C   0  0  0  0  0  0  0  0  0  0  0  0
  -27.6020  -27.1200   20.0790 C   0  0  0  0  0  0  0  0  0  0  0  0
  -23.7550  -30.5920   21.5290 C   0  0  0  0  0  3  0  0  0  0  0  0
  -25.2890  -29.0700   20.0770 C   0  0  0  0  0  0  0  0  0  0  0  0
  -26.3290  -30.8150   21.5040 C   0  0  0  0  0  2  0  0  0  0  0  0
  -26.4550  -29.4290   20.7650 C   0  0  0  0  0  0  0  0  0  0  0  0
  -27.6020  -28.4810   20.7340 C   0  0  0  0  0  3  0  0  0  0  0  0
  -26.3980  -26.9660   19.3490 C   0  0  0  0  0  3  0  0  0  0  0  0
  -25.2950  -27.8710   19.3500 C   0  0  0  0  0  3  0  0  0  0  0  0
  -24.0580  -29.9850   20.1290 C   0  0  0  0  0  2  0  0  0  0  0  0
  -24.9980  -31.1360   22.1650 N   0  0  0  0  0  0  0  0  0  0  0  0
  -23.7290  -32.1460   23.7820 O   0  0  0  0  0  0  0  0  0  0  0  0
  -23.0360  -29.5320   22.4110 C   0  0  0  0  0  0  0  0  0  0  0  0
  -21.7110  -29.3570   22.2340 N   0  0  0  0  0  0  0  0  0  0  0  0
  -23.6820  -28.8670   23.2250 O   0  0  0  0  0  0  0  0  0  0  0  0
  -21.2390  -29.9450   21.5620 H   0  0  0  0  0  0  0  0  0  0  0  0
  -18.3270  -28.0970   22.6100 C   0  0  0  0  0  0  0  0  0  0  0  0
  -20.8800  -28.3580   22.9180 C   0  0  0  0  0  3  0  0  0  0  0  0
  -20.9970  -26.9770   22.2330 C   0  0  0  0  0  2  0  0  0  0  0  0
  -19.9080  -26.7340   21.1830 C   0  0  0  0  0  2  0  0  0  0  0  0
  -18.5200  -26.8120   21.8220 C   0  0  0  0  0  2  0  0  0  0  0  0
  -19.4330  -28.8320   23.1090 C   0  0  0  0  0  0  0  0  0  0  0  0
  -19.1960  -30.0360   23.8100 C   0  0  0  0  0  3  0  0  0  0  0  0
  -17.8850  -30.5030   24.0120 C   0  0  0  0  0  3  0  0  0  0  0  0
  -16.7910  -29.7650   23.5250 C   0  0  0  0  0  3  0  0  0  0  0  0
  -17.0120  -28.5630   22.8300 C   0  0  0  0  0  3  0  0  0  0  0  0
  -26.0700  -32.5550   24.0120 C   0  0  0  0  0  3  0  0  0  0  0  0
  -26.4970  -31.7660   25.3100 C   0  0  1  0  0  0  0  0  0  0  0  0
  -25.3350  -31.5160   26.3010 C   0  0  0  0  0  1  0  0  0  0  0  0
  -27.1080  -30.3930   24.9510 C   0  0  0  0  0  1  0  0  0  0  0  0
  -27.6010  -32.5510   26.0600 C   0  0  0  0  0  1  0  0  0  0  0  0
  -25.7200  -33.9430   24.3640 N   0  0  0  0  0  0  0  0  0  0  0  0
  -26.0430  -35.0250   23.6430 C   0  0  0  0  0  0  0  0  0  0  0  0
  -26.7300  -34.9630   22.6220 O   0  0  0  0  0  0  0  0  0  0  0  0
  -25.1220  -34.0610   25.1680 H   0  0  0  0  0  0  0  0  0  0  0  0
  -24.2870  -36.8020   23.3200 C   0  0  0  0  0  1  0  0  0  0  0  0
  -25.5280  -36.3970   24.1330 C   0  0  0  0  0  3  0  0  0  0  0  0
  -27.6270  -37.3160   25.0190 C   0  0  0  0  0  1  0  0  0  0  0  0
  -26.5420  -37.4740   24.0540 N   0  0  0  0  0  0  0  0  0  0  0  0
  -26.1130  -38.3840   24.2060 H   0  0  0  0  0  0  0  0  0  0  0  0
  -29.1800  -20.7210   19.4380 C   0  0  0  0  0  3  0  0  0  0  0  0
  -27.7740  -20.3690   19.9810 C   0  0  0  0  0  2  0  0  0  0  0  0
  -26.5800  -21.2920   19.6020 C   0  0  0  0  0  2  0  0  0  0  0  0
  -26.1500  -21.3730   18.1150 C   0  0  0  0  0  2  0  0  0  0  0  0
  -25.6530  -20.0670   17.4580 C   0  0  0  0  0  2  0  0  0  0  0  0
  -24.5200  -19.4530   18.1680 N   0  0  0  0  0  4  0  0  0  0  0  0
  -24.7250  -19.3500   19.1440 H   0  0  0  0  0  0  0  0  0  0  0  0
  -24.3380  -18.5290   17.7950 H   0  0  0  0  0  0  0  0  0  0  0  0
  -23.6870  -20.0050   18.0660 H   0  0  0  0  0  0  0  0  0  0  0  0
  -30.2290  -19.1380   19.7460 C   0  0  0  0  0  2  0  0  0  0  0  0
  -30.8090  -16.0410   19.8320 C   0  0  0  0  0  0  0  0  0  0  0  0
  -30.8950  -13.4940   19.0870 C   0  0  0  0  0  2  0  0  0  0  0  0
  -29.9860  -13.0770   17.9000 C   0  0  0  0  0  2  0  0  0  0  0  0
  -28.5630  -12.7560   18.3850 C   0  0  0  0  0  2  0  0  0  0  0  0
  -28.0700  -13.7820   19.4290 C   0  0  0  0  0  3  0  0  0  0  0  0
  -29.1180  -14.1050   20.5170 C   0  0  0  0  0  2  0  0  0  0  0  0
  -30.2820  -14.6860   19.8140 N   0  0  0  0  0  0  0  0  0  0  0  0
  -32.0450  -15.9850   19.6860 O   0  0  0  0  0  0  0  0  0  0  0  0
  -30.0360  -17.3860   19.8200 N   0  0  0  0  0  0  0  0  0  0  0  0
  -29.0490  -17.1660   19.8480 H   0  0  0  0  0  0  0  0  0  0  0  0
  -25.7370  -14.3370   20.2610 C   0  0  0  0  0  0  0  0  0  0  0  0
  -24.6710  -13.5690   20.6390 C   0  0  0  0  0  0  0  0  0  0  0  0
  -25.1290  -12.2160   20.5990 C   0  0  0  0  0  0  0  0  0  0  0  0
  -26.7600  -13.4570   19.9780 N   0  0  0  0  0  0  0  0  0  0  0  0
  -26.4150  -12.1740   20.2610 N   0  0  0  0  0  0  0  0  0  0  0  0
  -24.3940  -10.9630   20.8090 C   0  0  0  0  0  0  0  0  0  0  0  0
  -24.7850  -10.0310   21.7950 C   0  0  0  0  0  3  0  0  0  0  0  0
  -24.0440   -8.8450   21.9920 C   0  0  0  0  0  3  0  0  0  0  0  0
  -22.8970   -8.5830   21.2050 C   0  0  0  0  0  0  0  0  0  0  0  0
  -22.5230   -9.5070   20.2120 C   0  0  0  0  0  3  0  0  0  0  0  0
  -23.2660  -10.6820   20.0150 C   0  0  0  0  0  3  0  0  0  0  0  0
  -22.1350   -7.4450   21.3050 O   0  0  0  0  0  0  0  0  0  0  0  0
  -21.9690   -6.7970   22.5000 C   0  0  0  0  0  0  0  0  0  0  0  0
  -21.3650   -7.4280   23.6120 C   0  0  0  0  0  3  0  0  0  0  0  0
  -21.1440   -6.7020   24.7990 C   0  0  0  0  0  3  0  0  0  0  0  0
  -21.5170   -5.3450   24.8760 C   0  0  0  0  0  0  0  0  0  0  0  0
  -22.1110   -4.7160   23.7700 C   0  0  0  0  0  3  0  0  0  0  0  0
  -22.3350   -5.4400   22.5840 C   0  0  0  0  0  0  0  0  0  0  0  0
  -22.8870   -4.8220   21.5120 F   0  0  0  0  0  0  0  0  0  0  0  0
  -21.2980   -4.6470   26.0150 F   0  0  0  0  0  0  0  0  0  0  0  0
  -23.2870  -14.0650   20.9310 C   0  0  0  0  0  0  0  0  0  0  0  0
  -22.5730  -13.4030   21.8310 N   0  0  0  0  0  0  0  0  0  0  0  0
  -22.8550  -15.0900   20.4040 O   0  0  0  0  0  0  0  0  0  0  0  0
  -22.9360  -12.5810   22.2920 H   0  0  0  0  0  0  0  0  0  0  0  0
  -21.6470  -13.7300   22.0710 H   0  0  0  0  0  0  0  0  0  0  0  0
  -25.9090  -15.7110   20.1380 N   0  0  0  0  0  0  0  0  0  0  0  0
  -25.3170  -16.1140   20.8560 H   0  0  0  0  0  0  0  0  0  0  0  0
  -26.8760  -15.9670   20.2850 H   0  0  0  0  0  0  0  0  0  0  0  0
  1 14  1  0
  1  2  1  0
  3  2  1  0
  4  3  1  0
  4 11  1  0
  5  6  1  0
  5  7  1  0
  8  6  1  0
  8 10  1  0
  9  7  1  0
  9 10  1  0
 10  4  1  0
 11 12  1  0
 13 11  1  0
 14 15  1  0
 15 17  1  0
 16 27  2  0
 17 22  1  0
 18 26  1  0
 18 28  1  0
 19 25  1  0
 19 21  1  0
 20 26  1  0
 21 20  1  0
 22 21  2  0
 23 24  1  0
 23 17  2  0
 24 19  2  0
 25 18  1  0
 26 16  1  0
 28 30  2  0
 29 28  1  0
 31 29  1  0
 32 41  2  0
 32 37  1  0
 33 29  1  0
 33 37  1  0
 34 33  1  0
 35 36  1  0
 35 34  1  0
 36 32  1  0
 37 38  2  0
 38 39  1  0
 40 39  2  0
 41 40  1  0
 42 16  1  0
 42 47  1  0
 42 43  1  0
 43 46  1  1
 43 44  1  0
 45 43  1  0
 47 50  1  0
 48 52  1  0
 48 47  1  0
 49 48  2  0
 52 51  1  0
 54 52  1  0
 54 55  1  0
 54 53  1  0
 56  1  1  0
 56 65  1  0
 56 57  1  0
 58 57  1  0
 59 58  1  0
 60 59  1  0
 60 61  1  0
 61 62  1  0
 63 61  1  0
 64 61  1  0
 65 74  1  0
 67 72  1  0
 68 69  1  0
 68 67  1  0
 70 69  1  0
 70 79  1  0
 70 71  1  0
 72 66  1  0
 72 71  1  0
 73 66  2  0
 74 66  1  0
 74 75  1  0
 76 77  2  0
 77 96  1  0
 78 77  1  0
 78 81  1  0
 79 80  1  0
 79 76  1  0
 80 78  2  0
 81 82  1  0
 82 83  2  0
 84 87  1  0
 84 83  1  0
 85 84  2  0
 86 85  1  0
 86 81  2  0
 87 88  1  0
 88 93  2  0
 88 89  1  0
 89 90  2  0
 90 91  1  0
 91 95  1  0
 92 91  2  0
 93 92  1  0
 94 93  1  0
 96 97  1  0
 97100  1  0
 97 99  1  0
 98 96  2  0
101 76  1  0
101103  1  0
101102  1  0
M  ISO  4  14 101  15 101  66 100  74 100
M  END
>  <TORSDO>  (28) 
F 27

>  <SCORE>  (28) 
-11.886

>  <name>  (28) 
28

>  <ligand_id>  (28) 
28

>  <original_smiles>  (28) 
[H]c1c([H])c([H])c2c(c1[H])C([H])([H])C([H])([H])C([H])([H])C2([H])N([H])C(=O)C1([H])N(C(=O)C([H])(N([H])C(=O)C([H])(N([H])C([H])([H])[H])C([H])([H])[H])C(C([H])([H])[H])(C([H])([H])[H])C([H])([H])[H])C([H])([H])c2c([H])c(OC([H])([H])C([H])(C([H])([H])C([H])([H])C(N3C([H])([H])C([H])([H])C([H])([H])C([H])([H])C3([H])[H])=[N+]([H])[H])C([H])(C([H])([H])N([H])C(=O)N3C([H])([H])C([H])([H])C([H])([H])C([H])(n4nc(-c5c([H])c([H])c(Oc6c([H])c([H])c(F)c([H])c6F)c([H])c5[H])c(C(=O)N([H])[H])c4N([H])[H])C3([H])[H])C([H])([H])C([H])([H])C([H])([H])C([H])([H])[N+]([H])([H])[H])c([H])c([H])c2C1([H])[H]

>  <smiles>  (28) 
[H]c1c([H])c([H])c2c(c1[H])C([H])([H])C([H])([H])C([H])([H])C2([H])N([H])C(=O)C1([H])N(C(=O)C([H])(N([H])C(=O)C([H])(N([H])C([H])([H])[H])C([H])([H])[H])C(C([H])([H])[H])(C([H])([H])[H])C([H])([H])[H])C([H])([H])c2c([H])c(OC([H])([H])C([H])(C([H])([H])C([H])([H])C(N3C([H])([H])C([H])([H])C([H])([H])C([H])([H])C3([H])[H])=[N+]([H])[H])C([H])(C([H])([H])N([H])C(=O)N3C([H])([H])C([H])([H])C([H])([H])C([H])(n4nc(-c5c([H])c([H])c(Oc6c([H])c([H])c(F)c([H])c6F)c([H])c5[H])c(C(=O)N([H])[H])c4N([H])[H])C3([H])[H])C([H])([H])C([H])([H])C([H])([H])C([H])([H])[N+]([H])([H])[H])c([H])c([H])c2C1([H])[H]

$$$$
29:0:0
     RDKit          3D

 98105  0  0  1  0  0  0  0  0999 V2000
  -30.1470  -19.6390   19.6300 C   0  0  0  0  0  3  0  0  0  0  0  0
  -29.5190  -21.2050   19.0280 C   0  0  0  0  0  2  0  0  0  0  0  0
  -29.1510  -22.7930   19.7640 C   0  0  0  0  0  3  0  0  0  0  0  0
  -28.4720  -24.3220   19.1440 C   0  0  0  0  0  3  0  0  0  0  0  0
  -28.4020  -25.8760   19.6430 O   0  0  0  0  0  0  0  0  0  0  0  0
  -24.6170  -31.4460   22.9160 C   0  0  0  0  0  0  0  0  0  0  0  0
  -27.3320  -26.8990   19.5870 C   0  0  0  0  0  0  0  0  0  0  0  0
  -23.4600  -30.1080   21.2030 C   0  0  0  0  0  3  0  0  0  0  0  0
  -24.9550  -28.6590   19.6670 C   0  0  0  0  0  0  0  0  0  0  0  0
  -26.0110  -30.4380   21.0500 C   0  0  0  0  0  2  0  0  0  0  0  0
  -26.1270  -29.0780   20.3080 C   0  0  0  0  0  0  0  0  0  0  0  0
  -27.3050  -28.2170   20.2510 C   0  0  0  0  0  3  0  0  0  0  0  0
  -26.1290  -26.6250   18.8980 C   0  0  0  0  0  3  0  0  0  0  0  0
  -24.9780  -27.4550   18.9440 C   0  0  0  0  0  3  0  0  0  0  0  0
  -23.7000  -29.5210   19.7830 C   0  0  0  0  0  2  0  0  0  0  0  0
  -24.7170  -30.6870   21.7790 N   0  0  0  0  0  0  0  0  0  0  0  0
  -23.5240  -31.6600   23.4660 O   0  0  0  0  0  0  0  0  0  0  0  0
  -22.8200  -29.0260   22.1080 C   0  0  0  0  0  0  0  0  0  0  0  0
  -21.5030  -28.7910   21.9540 N   0  0  0  0  0  0  0  0  0  0  0  0
  -23.5100  -28.4030   22.9170 O   0  0  0  0  0  0  0  0  0  0  0  0
  -20.9980  -29.3460   21.2770 H   0  0  0  0  0  0  0  0  0  0  0  0
  -18.1980  -27.3390   22.3210 C   0  0  0  0  0  0  0  0  0  0  0  0
  -20.7260  -27.7710   22.6680 C   0  0  0  0  0  3  0  0  0  0  0  0
  -20.9430  -26.3710   22.0460 C   0  0  0  0  0  2  0  0  0  0  0  0
  -19.8920  -26.0100   20.9910 C   0  0  0  0  0  2  0  0  0  0  0  0
  -18.4870  -26.0330   21.5980 C   0  0  0  0  0  2  0  0  0  0  0  0
  -19.2490  -28.1610   22.8100 C   0  0  0  0  0  0  0  0  0  0  0  0
  -18.9250  -29.3780   23.4460 C   0  0  0  0  0  3  0  0  0  0  0  0
  -17.5840  -29.7760   23.6000 C   0  0  0  0  0  3  0  0  0  0  0  0
  -16.5480  -28.9520   23.1280 C   0  0  0  0  0  3  0  0  0  0  0  0
  -16.8550  -27.7360   22.4920 C   0  0  0  0  0  3  0  0  0  0  0  0
  -25.8710  -32.0970   23.5760 C   0  0  0  0  0  3  0  0  0  0  0  0
  -26.4140  -31.2760   24.8110 C   0  0  1  0  0  0  0  0  0  0  0  0
  -25.3320  -30.9540   25.8690 C   0  0  0  0  0  1  0  0  0  0  0  0
  -27.0350  -29.9360   24.3580 C   0  0  0  0  0  1  0  0  0  0  0  0
  -27.5410  -32.0710   25.5110 C   0  0  0  0  0  1  0  0  0  0  0  0
  -25.5030  -33.4610   23.9930 N   0  0  0  0  0  0  0  0  0  0  0  0
  -25.8110  -34.5790   23.3210 C   0  0  0  0  0  0  0  0  0  0  0  0
  -26.4970  -34.5700   22.2950 O   0  0  0  0  0  0  0  0  0  0  0  0
  -24.8900  -33.5360   24.7920 H   0  0  0  0  0  0  0  0  0  0  0  0
  -24.0350  -36.3470   23.0800 C   0  0  0  0  0  1  0  0  0  0  0  0
  -25.2770  -35.9160   23.8750 C   0  0  0  0  0  3  0  0  0  0  0  0
  -27.3670  -36.8090   24.8030 C   0  0  0  0  0  1  0  0  0  0  0  0
  -26.2760  -37.0040   23.8530 N   0  0  0  0  0  0  0  0  0  0  0  0
  -25.8380  -37.8990   24.0540 H   0  0  0  0  0  0  0  0  0  0  0  0
  -31.5670  -19.8640   20.2250 C   0  0  0  0  0  2  0  0  0  0  0  0
  -31.9400  -21.3210   20.6440 C   0  0  0  0  0  3  0  0  0  0  0  0
  -32.0020  -21.5190   22.1790 C   0  0  0  0  0  2  0  0  0  0  0  0
  -30.6460  -21.5260   22.9010 C   0  0  0  0  0  2  0  0  0  0  0  0
  -30.7780  -22.1210   24.3160 C   0  0  0  0  0  2  0  0  0  0  0  0
  -29.5120  -22.0830   25.0620 N   0  0  0  0  0  4  0  0  0  0  0  0
  -28.7900  -22.5500   24.5410 H   0  0  0  0  0  0  0  0  0  0  0  0
  -29.6270  -22.5480   25.9460 H   0  0  0  0  0  0  0  0  0  0  0  0
  -29.2390  -21.1350   25.2410 H   0  0  0  0  0  0  0  0  0  0  0  0
  -33.2570  -21.8450   20.0160 C   0  0  0  0  0  2  0  0  0  0  0  0
  -34.3960  -20.9200   20.1770 N   0  0  0  0  0  4  0  0  0  0  0  0
  -34.5560  -20.7110   21.1460 H   0  0  0  0  0  0  0  0  0  0  0  0
  -35.2320  -21.3500   19.8190 H   0  0  0  0  0  0  0  0  0  0  0  0
  -34.2510  -20.0610   19.6790 H   0  0  0  0  0  0  0  0  0  0  0  0
  -30.1970  -18.0510   18.8220 C   0  0  0  0  0  2  0  0  0  0  0  0
  -30.8400  -15.2720   19.3890 C   0  0  0  0  0  0  0  0  0  0  0  0
  -30.8090  -12.7320   18.9130 C   0  0  0  0  0  2  0  0  0  0  0  0
  -29.8080  -12.3550   17.7910 C   0  0  0  0  0  2  0  0  0  0  0  0
  -28.4000  -12.1430   18.3750 C   0  0  0  0  0  2  0  0  0  0  0  0
  -28.0130  -13.2650   19.3710 C   0  0  0  0  0  3  0  0  0  0  0  0
  -29.1340  -13.5820   20.3850 C   0  0  0  0  0  2  0  0  0  0  0  0
  -30.3120  -13.9740   19.6030 N   0  0  0  0  0  0  0  0  0  0  0  0
  -32.0210  -15.2710   19.0170 O   0  0  0  0  0  0  0  0  0  0  0  0
  -30.0430  -16.5080   19.3960 N   0  0  0  0  0  0  0  0  0  0  0  0
  -29.1070  -16.3230   19.7260 H   0  0  0  0  0  0  0  0  0  0  0  0
  -25.8330  -13.9440   20.5080 C   0  0  0  0  0  0  0  0  0  0  0  0
  -24.7450  -13.2310   20.9240 C   0  0  0  0  0  0  0  0  0  0  0  0
  -25.0490  -11.8600   20.6680 C   0  0  0  0  0  0  0  0  0  0  0  0
  -26.7310  -13.0150   20.0170 N   0  0  0  0  0  0  0  0  0  0  0  0
  -26.2810  -11.7440   20.1840 N   0  0  0  0  0  0  0  0  0  0  0  0
  -24.2160  -10.6580   20.8100 C   0  0  0  0  0  0  0  0  0  0  0  0
  -24.6080   -9.5810   21.6350 C   0  0  0  0  0  3  0  0  0  0  0  0
  -23.7790   -8.4470   21.7710 C   0  0  0  0  0  3  0  0  0  0  0  0
  -22.5450   -8.3810   21.0810 C   0  0  0  0  0  0  0  0  0  0  0  0
  -22.1700   -9.4480   20.2440 C   0  0  0  0  0  3  0  0  0  0  0  0
  -22.9980  -10.5750   20.1060 C   0  0  0  0  0  3  0  0  0  0  0  0
  -21.6900   -7.3090   21.1300 O   0  0  0  0  0  0  0  0  0  0  0  0
  -21.6090   -6.5020   22.2370 C   0  0  0  0  0  0  0  0  0  0  0  0
  -21.1970   -6.9990   23.4930 C   0  0  0  0  0  3  0  0  0  0  0  0
  -21.0610   -6.1220   24.5880 C   0  0  0  0  0  3  0  0  0  0  0  0
  -21.3270   -4.7480   24.4270 C   0  0  0  0  0  0  0  0  0  0  0  0
  -21.7320   -4.2510   23.1760 C   0  0  0  0  0  3  0  0  0  0  0  0
  -21.8690   -5.1240   22.0830 C   0  0  0  0  0  0  0  0  0  0  0  0
  -22.2390   -4.6370   20.8740 F   0  0  0  0  0  0  0  0  0  0  0  0
  -21.1900   -3.9030   25.4750 F   0  0  0  0  0  0  0  0  0  0  0  0
  -23.4540  -13.8020   21.4350 C   0  0  0  0  0  0  0  0  0  0  0  0
  -22.7750  -13.0820   22.3200 N   0  0  0  0  0  0  0  0  0  0  0  0
  -23.0710  -14.9210   21.0940 O   0  0  0  0  0  0  0  0  0  0  0  0
  -23.0930  -12.1700   22.6120 H   0  0  0  0  0  0  0  0  0  0  0  0
  -21.9150  -13.4450   22.7060 H   0  0  0  0  0  0  0  0  0  0  0  0
  -26.1370  -15.3020   20.5020 N   0  0  0  0  0  0  0  0  0  0  0  0
  -25.3910  -15.9760   20.6450 H   0  0  0  0  0  0  0  0  0  0  0  0
  -26.8860  -15.6780   19.9370 H   0  0  0  0  0  0  0  0  0  0  0  0
  1 60  1  0
  1 46  1  0
  2  1  1  0
  2  3  1  0
  4  5  1  0
  4  3  2  0
  6 17  2  0
  7  5  1  0
  7 12  1  0
  8 16  1  0
  8 18  1  0
  9 15  1  0
  9 11  1  0
 10 16  1  0
 11 10  1  0
 12 11  2  0
 13 14  1  0
 13  7  2  0
 14  9  2  0
 15  8  1  0
 16  6  1  0
 18 20  2  0
 19 18  1  0
 21 19  1  0
 22 31  2  0
 22 27  1  0
 23 19  1  0
 23 27  1  0
 24 23  1  0
 25 26  1  0
 25 24  1  0
 26 22  1  0
 27 28  2  0
 28 29  1  0
 30 29  2  0
 31 30  1  0
 32  6  1  0
 32 37  1  0
 32 33  1  0
 33 36  1  1
 33 34  1  0
 35 33  1  0
 37 40  1  0
 38 42  1  0
 38 37  1  0
 39 38  2  0
 42 41  1  0
 44 42  1  0
 44 45  1  0
 44 43  1  0
 46 47  1  0
 47 55  1  0
 47 48  1  0
 48 49  1  0
 49 50  1  0
 50 51  1  0
 51 54  1  0
 51 53  1  0
 52 51  1  0
 55 56  1  0
 56 57  1  0
 58 56  1  0
 59 56  1  0
 60 69  1  0
 61 69  1  0
 61 67  1  0
 62 67  1  0
 63 64  1  0
 63 62  1  0
 65 64  1  0
 65 74  1  0
 65 66  1  0
 67 66  1  0
 68 61  2  0
 69 70  1  0
 71 72  2  0
 72 91  1  0
 73 76  1  0
 73 72  1  0
 74 75  1  0
 74 71  1  0
 75 73  2  0
 76 77  1  0
 77 78  2  0
 79 82  1  0
 79 78  1  0
 80 79  2  0
 81 80  1  0
 81 76  2  0
 82 83  1  0
 83 84  1  0
 84 85  2  0
 86 85  1  0
 86 90  1  0
 87 86  2  0
 88 83  2  0
 88 87  1  0
 89 88  1  0
 91 92  1  0
 92 94  1  0
 92 95  1  0
 93 91  2  0
 96 71  1  0
 96 97  1  0
 98 96  1  0
M  ISO  4   4 101   5 101  61 100  69 100
M  END
>  <TORSDO>  (29) 
F 28

>  <SCORE>  (29) 
-11.403

>  <name>  (29) 
29

>  <ligand_id>  (29) 
29

>  <original_smiles>  (29) 
[H]c1c([H])c([H])c2c(c1[H])C([H])([H])C([H])([H])C([H])([H])C2([H])N([H])C(=O)C1([H])N(C(=O)C([H])(N([H])C(=O)C([H])(N([H])C([H])([H])[H])C([H])([H])[H])C(C([H])([H])[H])(C([H])([H])[H])C([H])([H])[H])C([H])([H])c2c([H])c(OC([H])([H])C([H])([H])C([H])([H])C([H])(C([H])([H])N([H])C(=O)N3C([H])([H])C([H])([H])C([H])([H])C([H])(n4nc(-c5c([H])c([H])c(Oc6c([H])c([H])c(F)c([H])c6F)c([H])c5[H])c(C(=O)N([H])[H])c4N([H])[H])C3([H])[H])C([H])([H])C([H])(C([H])([H])C([H])([H])C([H])([H])[N+]([H])([H])[H])C([H])([H])[N+]([H])([H])[H])c([H])c([H])c2C1([H])[H]

>  <smiles>  (29) 
[H]c1c([H])c([H])c2c(c1[H])C([H])([H])C([H])([H])C([H])([H])C2([H])N([H])C(=O)C1([H])N(C(=O)C([H])(N([H])C(=O)C([H])(N([H])C([H])([H])[H])C([H])([H])[H])C(C([H])([H])[H])(C([H])([H])[H])C([H])([H])[H])C([H])([H])c2c([H])c(OC([H])([H])C([H])([H])C([H])([H])C([H])(C([H])([H])N([H])C(=O)N3C([H])([H])C([H])([H])C([H])([H])C([H])(n4nc(-c5c([H])c([H])c(Oc6c([H])c([H])c(F)c([H])c6F)c([H])c5[H])c(C(=O)N([H])[H])c4N([H])[H])C3([H])[H])C([H])([H])C([H])(C([H])([H])C([H])([H])C([H])([H])[N+]([H])([H])[H])C([H])([H])[N+]([H])([H])[H])c([H])c([H])c2C1([H])[H]

$$$$
30:0:0
     RDKit          3D

 93100  0  0  1  0  0  0  0  0999 V2000
  -28.6310  -22.3380   20.0450 C   0  0  0  0  0  2  0  0  0  0  0  0
  -29.5750  -21.1270   20.1190 N   0  0  0  0  0  4  0  0  0  0  0  0
  -29.9180  -20.9490   19.1890 H   0  0  0  0  0  0  0  0  0  0  0  0
  -30.3760  -21.3790   20.6740 H   0  0  0  0  0  0  0  0  0  0  0  0
  -29.0720  -19.7940   20.6840 C   0  0  0  0  0  2  0  0  0  0  0  0
  -28.1770  -17.7980   19.3490 C   0  0  0  0  0  1  0  0  0  0  0  0
  -30.4620  -18.6040   18.8320 C   0  0  0  0  0  1  0  0  0  0  0  0
  -29.4650  -18.3760   19.9800 C   0  0  1  0  0  0  0  0  0  0  0  0
  -30.0790  -17.2340   20.9480 C   0  0  0  0  0  2  0  0  0  0  0  0
  -30.6080  -14.6990   20.3550 C   0  0  0  0  0  0  0  0  0  0  0  0
  -30.4000  -12.4610   19.2720 C   0  0  0  0  0  2  0  0  0  0  0  0
  -29.4620  -12.5970   18.0530 C   0  0  0  0  0  2  0  0  0  0  0  0
  -27.9900  -12.4300   18.4770 C   0  0  0  0  0  2  0  0  0  0  0  0
  -27.6230  -13.2890   19.7170 C   0  0  0  0  0  3  0  0  0  0  0  0
  -28.6770  -13.1400   20.8370 C   0  0  0  0  0  2  0  0  0  0  0  0
  -29.9870  -13.4810   20.2580 N   0  0  0  0  0  0  0  0  0  0  0  0
  -31.7810  -14.8530   20.0020 O   0  0  0  0  0  0  0  0  0  0  0  0
  -29.8050  -15.7630   20.6830 N   0  0  0  0  0  0  0  0  0  0  0  0
  -28.8590  -15.4800   20.8870 H   0  0  0  0  0  0  0  0  0  0  0  0
  -25.2210  -13.8830   20.4090 C   0  0  0  0  0  0  0  0  0  0  0  0
  -24.1560  -13.1100   20.7790 C   0  0  0  0  0  0  0  0  0  0  0  0
  -24.6250  -11.7610   20.7690 C   0  0  0  0  0  0  0  0  0  0  0  0
  -26.2730  -13.0070   20.1940 N   0  0  0  0  0  0  0  0  0  0  0  0
  -25.9190  -11.7250   20.4740 N   0  0  0  0  0  0  0  0  0  0  0  0
  -23.9060  -10.4970   20.9680 C   0  0  0  0  0  0  0  0  0  0  0  0
  -24.3330   -9.5490   21.9240 C   0  0  0  0  0  3  0  0  0  0  0  0
  -23.6130   -8.3490   22.1110 C   0  0  0  0  0  3  0  0  0  0  0  0
  -22.4520   -8.0900   21.3430 C   0  0  0  0  0  0  0  0  0  0  0  0
  -22.0440   -9.0290   20.3800 C   0  0  0  0  0  3  0  0  0  0  0  0
  -22.7640  -10.2200   20.1900 C   0  0  0  0  0  3  0  0  0  0  0  0
  -21.7040   -6.9420   21.4370 O   0  0  0  0  0  0  0  0  0  0  0  0
  -21.6360   -6.2200   22.6030 C   0  0  0  0  0  0  0  0  0  0  0  0
  -21.1750   -6.7920   23.8090 C   0  0  0  0  0  3  0  0  0  0  0  0
  -21.0590   -5.9980   24.9650 C   0  0  0  0  0  3  0  0  0  0  0  0
  -21.3920   -4.6290   24.9190 C   0  0  0  0  0  0  0  0  0  0  0  0
  -21.8450   -4.0570   23.7170 C   0  0  0  0  0  3  0  0  0  0  0  0
  -21.9650   -4.8500   22.5630 C   0  0  0  0  0  0  0  0  0  0  0  0
  -22.3820   -4.2890   21.4030 F   0  0  0  0  0  0  0  0  0  0  0  0
  -21.2710   -3.8640   26.0280 F   0  0  0  0  0  0  0  0  0  0  0  0
  -22.7550  -13.5830   21.0360 C   0  0  0  0  0  0  0  0  0  0  0  0
  -22.0270  -12.8900   21.9030 N   0  0  0  0  0  0  0  0  0  0  0  0
  -22.3160  -14.6020   20.5020 O   0  0  0  0  0  0  0  0  0  0  0  0
  -22.3990  -12.0650   22.3480 H   0  0  0  0  0  0  0  0  0  0  0  0
  -21.0860  -13.1840   22.1260 H   0  0  0  0  0  0  0  0  0  0  0  0
  -25.3820  -15.2510   20.2100 N   0  0  0  0  0  0  0  0  0  0  0  0
  -24.6160  -15.9070   20.3180 H   0  0  0  0  0  0  0  0  0  0  0  0
  -26.2190  -15.6700   19.8230 H   0  0  0  0  0  0  0  0  0  0  0  0
  -30.3120  -24.0710   19.1340 C   0  0  0  0  0  1  0  0  0  0  0  0
  -29.2030  -23.8580   20.1900 C   0  0  2  0  0  0  0  0  0  0  0  0
  -28.8380  -24.0750   22.7940 C   0  0  0  0  0  1  0  0  0  0  0  0
  -29.8170  -24.0730   21.6010 C   0  0  0  0  0  2  0  0  0  0  0  0
  -28.0890  -24.9970   19.9300 C   0  0  0  0  0  2  0  0  0  0  0  0
  -28.3290  -26.4610   20.1360 O   0  0  0  0  0  0  0  0  0  0  0  0
  -24.6050  -31.8650   23.2190 C   0  0  0  0  0  0  0  0  0  0  0  0
  -27.2160  -27.3310   20.0960 C   0  0  0  0  0  0  0  0  0  0  0  0
  -23.4000  -30.4870   21.5600 C   0  0  0  0  0  3  0  0  0  0  0  0
  -24.8540  -28.9580   20.1110 C   0  0  0  0  0  0  0  0  0  0  0  0
  -25.9440  -30.8040   21.3830 C   0  0  0  0  0  2  0  0  0  0  0  0
  -26.0240  -29.4330   20.7170 C   0  0  0  0  0  0  0  0  0  0  0  0
  -27.2090  -28.6330   20.6960 C   0  0  0  0  0  3  0  0  0  0  0  0
  -26.0160  -26.9190   19.4660 C   0  0  0  0  0  3  0  0  0  0  0  0
  -24.8560  -27.7110   19.4710 C   0  0  0  0  0  3  0  0  0  0  0  0
  -23.6180  -29.8320   20.1690 C   0  0  0  0  0  2  0  0  0  0  0  0
  -24.6690  -31.0690   22.1100 N   0  0  0  0  0  0  0  0  0  0  0  0
  -23.5200  -32.1340   23.7560 O   0  0  0  0  0  0  0  0  0  0  0  0
  -22.7340  -29.4580   22.5080 C   0  0  0  0  0  0  0  0  0  0  0  0
  -21.4060  -29.2890   22.3860 N   0  0  0  0  0  0  0  0  0  0  0  0
  -23.4130  -28.8210   23.3150 O   0  0  0  0  0  0  0  0  0  0  0  0
  -20.9160  -29.8650   21.7150 H   0  0  0  0  0  0  0  0  0  0  0  0
  -18.0290  -28.0920   22.8990 C   0  0  0  0  0  0  0  0  0  0  0  0
  -20.5880  -28.3470   23.1530 C   0  0  0  0  0  3  0  0  0  0  0  0
  -20.6820  -26.9190   22.5690 C   0  0  0  0  0  2  0  0  0  0  0  0
  -19.5750  -26.5980   21.5600 C   0  0  0  0  0  2  0  0  0  0  0  0
  -18.1970  -26.7480   22.2130 C   0  0  0  0  0  2  0  0  0  0  0  0
  -19.1520  -28.8500   23.3280 C   0  0  0  0  0  0  0  0  0  0  0  0
  -18.9390  -30.1100   23.9300 C   0  0  0  0  0  3  0  0  0  0  0  0
  -17.6360  -30.6130   24.1020 C   0  0  0  0  0  3  0  0  0  0  0  0
  -16.5280  -29.8510   23.6920 C   0  0  0  0  0  3  0  0  0  0  0  0
  -16.7270  -28.5930   23.0980 C   0  0  0  0  0  3  0  0  0  0  0  0
  -25.8850  -32.4960   23.8480 C   0  0  0  0  0  3  0  0  0  0  0  0
  -25.5750  -33.8940   24.1790 N   0  0  0  0  0  0  0  0  0  0  0  0
  -25.9120  -34.9480   23.4240 C   0  0  0  0  0  0  0  0  0  0  0  0
  -26.5780  -34.8440   22.3910 O   0  0  0  0  0  0  0  0  0  0  0  0
  -24.9790  -34.0470   24.9810 H   0  0  0  0  0  0  0  0  0  0  0  0
  -24.1890  -36.7490   23.0750 C   0  0  0  0  0  1  0  0  0  0  0  0
  -25.4300  -36.3370   23.8850 C   0  0  0  0  0  3  0  0  0  0  0  0
  -27.5680  -37.2100   24.7190 C   0  0  0  0  0  1  0  0  0  0  0  0
  -26.4670  -37.3850   23.7760 N   0  0  0  0  0  0  0  0  0  0  0  0
  -26.0670  -38.3070   23.9250 H   0  0  0  0  0  0  0  0  0  0  0  0
  -26.3960  -31.7200   25.1220 C   0  0  1  0  0  0  0  0  0  0  0  0
  -25.3010  -31.4810   26.1880 C   0  0  0  0  0  1  0  0  0  0  0  0
  -26.9740  -30.3410   24.7290 C   0  0  0  0  0  1  0  0  0  0  0  0
  -27.5480  -32.5070   25.7870 C   0  0  0  0  0  1  0  0  0  0  0  0
  1  2  1  0
  1 49  1  0
  2  4  1  0
  2  5  1  0
  3  2  1  0
  8  6  1  6
  7  8  1  0
  8  5  1  0
  8  9  1  0
 10 18  1  0
 11 16  1  0
 12 13  1  0
 12 11  1  0
 14 13  1  0
 14 23  1  0
 14 15  1  0
 16 10  1  0
 16 15  1  0
 17 10  2  0
 18 19  1  0
 18  9  1  0
 20 21  2  0
 21 40  1  0
 22 21  1  0
 22 25  1  0
 23 20  1  0
 23 24  1  0
 24 22  2  0
 25 26  1  0
 26 27  2  0
 28 31  1  0
 28 27  1  0
 29 28  2  0
 30 29  1  0
 30 25  2  0
 31 32  1  0
 32 33  1  0
 33 34  2  0
 35 34  1  0
 35 39  1  0
 36 35  2  0
 37 32  2  0
 37 36  1  0
 38 37  1  0
 40 41  1  0
 41 44  1  0
 41 43  1  0
 42 40  2  0
 45 46  1  0
 45 20  1  0
 47 45  1  0
 49 48  1  6
 49 51  1  0
 51 50  1  0
 52 53  1  0
 52 49  1  0
 54 65  2  0
 55 53  1  0
 55 60  1  0
 56 64  1  0
 56 66  1  0
 57 63  1  0
 57 59  1  0
 58 64  1  0
 59 58  1  0
 60 59  2  0
 61 62  1  0
 61 55  2  0
 62 57  2  0
 63 56  1  0
 64 54  1  0
 66 68  2  0
 67 66  1  0
 69 67  1  0
 70 79  2  0
 70 75  1  0
 71 67  1  0
 71 75  1  0
 72 71  1  0
 73 74  1  0
 73 72  1  0
 74 70  1  0
 75 76  2  0
 76 77  1  0
 78 77  2  0
 79 78  1  0
 80 54  1  0
 80 81  1  0
 80 90  1  0
 81 84  1  0
 82 86  1  0
 82 81  1  0
 83 82  2  0
 86 85  1  0
 88 86  1  0
 88 89  1  0
 88 87  1  0
 90 93  1  1
 90 91  1  0
 92 90  1  0
M  ISO  4  10 100  18 100  52 101  53 101
M  END
>  <TORSDO>  (30) 
F 23

>  <SCORE>  (30) 
-12.748

>  <name>  (30) 
30

>  <ligand_id>  (30) 
30

>  <original_smiles>  (30) 
[H]c1c([H])c([H])c2c(c1[H])C([H])([H])C([H])([H])C([H])([H])C2([H])N([H])C(=O)C1([H])N(C(=O)C([H])(N([H])C(=O)C([H])(N([H])C([H])([H])[H])C([H])([H])[H])C(C([H])([H])[H])(C([H])([H])[H])C([H])([H])[H])C([H])([H])c2c([H])c(OC([H])([H])C(C([H])([H])[H])(C([H])([H])C([H])([H])[H])C([H])([H])[N+]([H])([H])C([H])([H])C(C([H])([H])[H])(C([H])([H])[H])C([H])([H])N([H])C(=O)N3C([H])([H])C([H])([H])C([H])([H])C([H])(n4nc(-c5c([H])c([H])c(Oc6c([H])c([H])c(F)c([H])c6F)c([H])c5[H])c(C(=O)N([H])[H])c4N([H])[H])C3([H])[H])c([H])c([H])c2C1([H])[H]

>  <smiles>  (30) 
[H]c1c([H])c([H])c2c(c1[H])C([H])([H])C([H])([H])C([H])([H])C2([H])N([H])C(=O)C1([H])N(C(=O)C([H])(N([H])C(=O)C([H])(N([H])C([H])([H])[H])C([H])([H])[H])C(C([H])([H])[H])(C([H])([H])[H])C([H])([H])[H])C([H])([H])c2c([H])c(OC([H])([H])C(C([H])([H])[H])(C([H])([H])C([H])([H])[H])C([H])([H])[N+]([H])([H])C([H])([H])C(C([H])([H])[H])(C([H])([H])[H])C([H])([H])N([H])C(=O)N3C([H])([H])C([H])([H])C([H])([H])C([H])(n4nc(-c5c([H])c([H])c(Oc6c([H])c([H])c(F)c([H])c6F)c([H])c5[H])c(C(=O)N([H])[H])c4N([H])[H])C3([H])[H])c([H])c([H])c2C1([H])[H]

$$$$
31:0:0
     RDKit          3D

 87 95  0  0  1  0  0  0  0  0999 V2000
  -29.2150  -21.3140   20.6950 C   0  0  0  0  0  2  0  0  0  0  0  0
  -28.9440  -19.6240   20.3830 C   0  0  0  0  0  0  0  0  0  0  0  0
  -27.7550  -19.3600   20.1930 O   0  0  0  0  0  0  0  0  0  0  0  0
  -30.4650  -15.3230   20.4390 C   0  0  0  0  0  0  0  0  0  0  0  0
  -30.4580  -12.8860   19.5770 C   0  0  0  0  0  2  0  0  0  0  0  0
  -29.5730  -12.6570   18.3270 C   0  0  0  0  0  2  0  0  0  0  0  0
  -28.1060  -12.4110   18.7260 C   0  0  0  0  0  2  0  0  0  0  0  0
  -27.6230  -13.3800   19.8340 C   0  0  0  0  0  3  0  0  0  0  0  0
  -28.6410  -13.5410   20.9800 C   0  0  0  0  0  2  0  0  0  0  0  0
  -29.8810  -14.0320   20.3590 N   0  0  0  0  0  0  0  0  0  0  0  0
  -31.7040  -15.2970   20.4440 O   0  0  0  0  0  0  0  0  0  0  0  0
  -29.8700  -17.8420   17.9990 C   0  0  0  0  0  2  0  0  0  0  0  0
  -30.8300  -18.4820   18.9920 C   0  0  0  0  0  2  0  0  0  0  0  0
  -29.4940  -16.5090   18.6610 C   0  0  0  0  0  2  0  0  0  0  0  0
  -30.0680  -18.2260   20.2820 C   0  0  0  0  0  3  0  0  0  0  0  0
  -29.7540  -16.5930   20.1280 N   0  0  0  0  0  0  0  0  0  0  0  0
  -25.2250  -13.9330   20.5010 C   0  0  0  0  0  0  0  0  0  0  0  0
  -24.1560  -13.1510   20.8380 C   0  0  0  0  0  0  0  0  0  0  0  0
  -24.6340  -11.8050   20.8440 C   0  0  0  0  0  0  0  0  0  0  0  0
  -26.2820  -13.0620   20.3090 N   0  0  0  0  0  0  0  0  0  0  0  0
  -25.9380  -11.7780   20.5840 N   0  0  0  0  0  0  0  0  0  0  0  0
  -23.9130  -10.5390   21.0210 C   0  0  0  0  0  0  0  0  0  0  0  0
  -24.3170   -9.5840   21.9800 C   0  0  0  0  0  3  0  0  0  0  0  0
  -23.5920   -8.3840   22.1460 C   0  0  0  0  0  3  0  0  0  0  0  0
  -22.4480   -8.1310   21.3540 C   0  0  0  0  0  0  0  0  0  0  0  0
  -22.0630   -9.0730   20.3840 C   0  0  0  0  0  3  0  0  0  0  0  0
  -22.7880  -10.2640   20.2160 C   0  0  0  0  0  3  0  0  0  0  0  0
  -21.6970   -6.9820   21.4290 O   0  0  0  0  0  0  0  0  0  0  0  0
  -21.6140   -6.2500   22.5860 C   0  0  0  0  0  0  0  0  0  0  0  0
  -21.1280   -6.8090   23.7880 C   0  0  0  0  0  3  0  0  0  0  0  0
  -20.9940   -6.0020   24.9360 C   0  0  0  0  0  3  0  0  0  0  0  0
  -21.3350   -4.6380   24.8830 C   0  0  0  0  0  0  0  0  0  0  0  0
  -21.8140   -4.0780   23.6850 C   0  0  0  0  0  3  0  0  0  0  0  0
  -21.9500   -4.8820   22.5390 C   0  0  0  0  0  0  0  0  0  0  0  0
  -22.3920   -4.3330   21.3830 F   0  0  0  0  0  0  0  0  0  0  0  0
  -21.1990   -3.8610   25.9820 F   0  0  0  0  0  0  0  0  0  0  0  0
  -22.7450  -13.6190   21.0440 C   0  0  0  0  0  0  0  0  0  0  0  0
  -21.9910  -12.9310   21.8930 N   0  0  0  0  0  0  0  0  0  0  0  0
  -22.3200  -14.6300   20.4860 O   0  0  0  0  0  0  0  0  0  0  0  0
  -22.3470  -12.1120   22.3620 H   0  0  0  0  0  0  0  0  0  0  0  0
  -21.0420  -13.2260   22.0740 H   0  0  0  0  0  0  0  0  0  0  0  0
  -25.3850  -15.3030   20.3140 N   0  0  0  0  0  0  0  0  0  0  0  0
  -24.6150  -15.9570   20.4050 H   0  0  0  0  0  0  0  0  0  0  0  0
  -26.2530  -15.7510   20.0470 H   0  0  0  0  0  0  0  0  0  0  0  0
  -28.5980  -22.8470   20.0030 C   0  0  0  0  0  2  0  0  0  0  0  0
  -28.1280  -24.4330   20.6840 C   0  0  0  0  0  2  0  0  0  0  0  0
  -28.2340  -26.0070   20.2520 O   0  0  0  0  0  0  0  0  0  0  0  0
  -24.6190  -31.9200   23.2420 C   0  0  0  0  0  0  0  0  0  0  0  0
  -27.1850  -27.0540   20.2720 C   0  0  0  0  0  0  0  0  0  0  0  0
  -23.4220  -30.5050   21.6210 C   0  0  0  0  0  3  0  0  0  0  0  0
  -24.8710  -28.8920   20.2160 C   0  0  0  0  0  0  0  0  0  0  0  0
  -25.9850  -30.7370   21.4570 C   0  0  0  0  0  2  0  0  0  0  0  0
  -26.0600  -29.3210   20.8200 C   0  0  0  0  0  0  0  0  0  0  0  0
  -27.2160  -28.4250   20.8170 C   0  0  0  0  0  3  0  0  0  0  0  0
  -25.9640  -26.7590   19.6320 C   0  0  0  0  0  3  0  0  0  0  0  0
  -24.8440  -27.6290   19.6020 C   0  0  0  0  0  3  0  0  0  0  0  0
  -23.6480  -29.8060   20.2520 C   0  0  0  0  0  2  0  0  0  0  0  0
  -24.6970  -31.0810   22.1600 N   0  0  0  0  0  0  0  0  0  0  0  0
  -23.5310  -32.2090   23.7660 O   0  0  0  0  0  0  0  0  0  0  0  0
  -22.7390  -29.5140   22.5980 C   0  0  0  0  0  0  0  0  0  0  0  0
  -21.4110  -29.3350   22.4730 N   0  0  0  0  0  0  0  0  0  0  0  0
  -23.4090  -28.9050   23.4350 O   0  0  0  0  0  0  0  0  0  0  0  0
  -20.9220  -29.8760   21.7720 H   0  0  0  0  0  0  0  0  0  0  0  0
  -18.0410  -28.0950   22.9840 C   0  0  0  0  0  0  0  0  0  0  0  0
  -20.5960  -28.4000   23.2550 C   0  0  0  0  0  3  0  0  0  0  0  0
  -20.7190  -26.9600   22.7060 C   0  0  0  0  0  2  0  0  0  0  0  0
  -19.6260  -26.6050   21.6920 C   0  0  0  0  0  2  0  0  0  0  0  0
  -18.2390  -26.7390   22.3280 C   0  0  0  0  0  2  0  0  0  0  0  0
  -19.1470  -28.8810   23.4060 C   0  0  0  0  0  0  0  0  0  0  0  0
  -18.9050  -30.1460   23.9840 C   0  0  0  0  0  3  0  0  0  0  0  0
  -17.5920  -30.6280   24.1420 C   0  0  0  0  0  3  0  0  0  0  0  0
  -16.5010  -29.8400   23.7330 C   0  0  0  0  0  3  0  0  0  0  0  0
  -16.7260  -28.5760   23.1620 C   0  0  0  0  0  3  0  0  0  0  0  0
  -25.8910  -32.5730   23.8640 C   0  0  0  0  0  3  0  0  0  0  0  0
  -26.4020  -31.8240   25.1560 C   0  0  1  0  0  0  0  0  0  0  0  0
  -25.3040  -31.6020   26.2250 C   0  0  0  0  0  1  0  0  0  0  0  0
  -26.9900  -30.4400   24.7980 C   0  0  0  0  0  1  0  0  0  0  0  0
  -27.5480  -32.6300   25.8110 C   0  0  0  0  0  1  0  0  0  0  0  0
  -25.5690  -33.9740   24.1840 N   0  0  0  0  0  0  0  0  0  0  0  0
  -25.9070  -35.0300   23.4320 C   0  0  0  0  0  0  0  0  0  0  0  0
  -26.5850  -34.9270   22.4070 O   0  0  0  0  0  0  0  0  0  0  0  0
  -24.9660  -34.1270   24.9790 H   0  0  0  0  0  0  0  0  0  0  0  0
  -24.1920  -36.8370   23.0610 C   0  0  0  0  0  1  0  0  0  0  0  0
  -25.4180  -36.4200   23.8880 C   0  0  0  0  0  3  0  0  0  0  0  0
  -27.5400  -37.3000   24.7600 C   0  0  0  0  0  1  0  0  0  0  0  0
  -26.4570  -37.4710   23.7960 N   0  0  0  0  0  0  0  0  0  0  0  0
  -26.0510  -38.3930   23.9350 H   0  0  0  0  0  0  0  0  0  0  0  0
  2  1  1  0
  3  2  2  0
  4 11  2  0
  5 10  1  0
  6  7  1  0
  6  5  1  0
  8  7  1  0
  8 20  1  0
  8  9  1  0
 10  4  1  0
 10  9  1  0
 12 14  1  0
 12 13  1  0
 13 15  1  0
 14 16  1  0
 15  2  1  0
 16 15  1  0
 16  4  1  0
 17 18  2  0
 18 19  1  0
 18 37  1  0
 19 22  1  0
 20 17  1  0
 20 21  1  0
 21 19  2  0
 22 23  1  0
 23 24  2  0
 25 28  1  0
 25 24  1  0
 26 25  2  0
 27 26  1  0
 27 22  2  0
 28 29  1  0
 29 30  1  0
 30 31  2  0
 32 31  1  0
 32 36  1  0
 33 32  2  0
 34 29  2  0
 34 33  1  0
 35 34  1  0
 37 38  1  0
 38 41  1  0
 38 40  1  0
 39 37  2  0
 42 43  1  0
 42 17  1  0
 44 42  1  0
 45 46  1  0
 45  1  1  0
 47 49  1  0
 47 46  1  0
 48 59  2  0
 49 54  1  0
 50 58  1  0
 50 60  1  0
 51 57  1  0
 51 53  1  0
 52 58  1  0
 53 52  1  0
 54 53  2  0
 55 49  2  0
 56 55  1  0
 56 51  2  0
 57 50  1  0
 58 48  1  0
 60 62  2  0
 61 60  1  0
 63 61  1  0
 64 73  2  0
 64 69  1  0
 65 61  1  0
 65 69  1  0
 66 65  1  0
 67 68  1  0
 67 66  1  0
 68 64  1  0
 69 70  2  0
 70 71  1  0
 72 71  2  0
 73 72  1  0
 74 48  1  0
 74 79  1  0
 74 75  1  0
 75 78  1  1
 75 76  1  0
 77 75  1  0
 79 82  1  0
 80 84  1  0
 80 79  1  0
 81 80  2  0
 84 83  1  0
 86 84  1  0
 86 87  1  0
 86 85  1  0
M  ISO  4   4 100  16 100  46 101  47 101
M  END
>  <TORSDO>  (31) 
F 19

>  <SCORE>  (31) 
-15.716

>  <name>  (31) 
31

>  <ligand_id>  (31) 
31

>  <original_smiles>  (31) 
[H]c1c([H])c([H])c2c(c1[H])C([H])([H])C([H])([H])C([H])([H])C2([H])N([H])C(=O)C1([H])N(C(=O)C([H])(N([H])C(=O)C([H])(N([H])C([H])([H])[H])C([H])([H])[H])C(C([H])([H])[H])(C([H])([H])[H])C([H])([H])[H])C([H])([H])c2c([H])c(OC([H])([H])C([H])([H])C([H])([H])C(=O)C3([H])N(C(=O)N4C([H])([H])C([H])([H])C([H])([H])C([H])(n5nc(-c6c([H])c([H])c(Oc7c([H])c([H])c(F)c([H])c7F)c([H])c6[H])c(C(=O)N([H])[H])c5N([H])[H])C4([H])[H])C([H])([H])C([H])([H])C3([H])[H])c([H])c([H])c2C1([H])[H]

>  <smiles>  (31) 
[H]c1c([H])c([H])c2c(c1[H])C([H])([H])C([H])([H])C([H])([H])C2([H])N([H])C(=O)C1([H])N(C(=O)C([H])(N([H])C(=O)C([H])(N([H])C([H])([H])[H])C([H])([H])[H])C(C([H])([H])[H])(C([H])([H])[H])C([H])([H])[H])C([H])([H])c2c([H])c(OC([H])([H])C([H])([H])C([H])([H])C(=O)C3([H])N(C(=O)N4C([H])([H])C([H])([H])C([H])([H])C([H])(n5nc(-c6c([H])c([H])c(Oc7c([H])c([H])c(F)c([H])c7F)c([H])c6[H])c(C(=O)N([H])[H])c5N([H])[H])C4([H])[H])C([H])([H])C([H])([H])C3([H])[H])c([H])c([H])c2C1([H])[H]

$$$$
32:0:0
     RDKit          3D

 90 97  0  0  1  0  0  0  0  0999 V2000
  -29.1040  -20.1270   20.1800 C   0  0  0  0  0  0  0  0  0  0  0  0
  -29.2430  -21.5400   19.7500 N   0  0  0  0  0  0  0  0  0  0  0  0
  -28.1290  -19.9750   20.9200 O   0  0  0  0  0  0  0  0  0  0  0  0
  -30.0060  -21.6580   19.0930 H   0  0  0  0  0  0  0  0  0  0  0  0
  -28.7050  -23.0470   20.2830 C   0  0  0  0  0  2  0  0  0  0  0  0
  -28.0980  -24.5780   19.5250 C   0  0  0  0  0  2  0  0  0  0  0  0
  -28.1310  -26.1890   19.9270 O   0  0  0  0  0  0  0  0  0  0  0  0
  -24.5740  -31.9670   23.1780 C   0  0  0  0  0  0  0  0  0  0  0  0
  -27.0840  -27.2540   19.8820 C   0  0  0  0  0  0  0  0  0  0  0  0
  -23.3290  -30.6220   21.5310 C   0  0  0  0  0  3  0  0  0  0  0  0
  -24.7460  -29.0950   19.9860 C   0  0  0  0  0  0  0  0  0  0  0  0
  -25.8830  -30.8820   21.2920 C   0  0  0  0  0  2  0  0  0  0  0  0
  -25.9500  -29.5000   20.5740 C   0  0  0  0  0  0  0  0  0  0  0  0
  -27.1080  -28.6040   20.4980 C   0  0  0  0  0  3  0  0  0  0  0  0
  -25.8480  -27.0070   19.2390 C   0  0  0  0  0  3  0  0  0  0  0  0
  -24.7200  -27.8700   19.2950 C   0  0  0  0  0  3  0  0  0  0  0  0
  -23.5130  -29.9900   20.1190 C   0  0  0  0  0  2  0  0  0  0  0  0
  -24.6170  -31.1830   22.0500 N   0  0  0  0  0  0  0  0  0  0  0  0
  -23.5080  -32.2170   23.7590 O   0  0  0  0  0  0  0  0  0  0  0  0
  -22.6910  -29.5780   22.4830 C   0  0  0  0  0  0  0  0  0  0  0  0
  -21.3720  -29.3480   22.3600 N   0  0  0  0  0  0  0  0  0  0  0  0
  -23.3910  -28.9750   23.2980 O   0  0  0  0  0  0  0  0  0  0  0  0
  -20.8590  -29.8830   21.6730 H   0  0  0  0  0  0  0  0  0  0  0  0
  -18.0660  -27.9330   22.8280 C   0  0  0  0  0  0  0  0  0  0  0  0
  -20.6000  -28.3620   23.1240 C   0  0  0  0  0  3  0  0  0  0  0  0
  -20.8010  -26.9410   22.5500 C   0  0  0  0  0  2  0  0  0  0  0  0
  -19.7340  -26.5480   21.5220 C   0  0  0  0  0  2  0  0  0  0  0  0
  -18.3380  -26.6020   22.1470 C   0  0  0  0  0  2  0  0  0  0  0  0
  -19.1260  -28.7670   23.2700 C   0  0  0  0  0  0  0  0  0  0  0  0
  -18.8150  -30.0080   23.8670 C   0  0  0  0  0  3  0  0  0  0  0  0
  -17.4760  -30.4190   24.0160 C   0  0  0  0  0  3  0  0  0  0  0  0
  -16.4320  -29.5850   23.5880 C   0  0  0  0  0  3  0  0  0  0  0  0
  -16.7260  -28.3400   23.0010 C   0  0  0  0  0  3  0  0  0  0  0  0
  -25.8670  -32.5980   23.7810 C   0  0  0  0  0  3  0  0  0  0  0  0
  -25.5690  -33.9980   24.1320 N   0  0  0  0  0  0  0  0  0  0  0  0
  -25.8950  -35.0610   23.3830 C   0  0  0  0  0  0  0  0  0  0  0  0
  -26.5420  -34.9670   22.3380 O   0  0  0  0  0  0  0  0  0  0  0  0
  -24.9970  -34.1450   24.9500 H   0  0  0  0  0  0  0  0  0  0  0  0
  -24.1790  -36.8750   23.0860 C   0  0  0  0  0  1  0  0  0  0  0  0
  -25.4300  -36.4490   23.8710 C   0  0  0  0  0  3  0  0  0  0  0  0
  -27.5780  -37.3110   24.6930 C   0  0  0  0  0  1  0  0  0  0  0  0
  -26.4720  -37.4960   23.7580 N   0  0  0  0  0  0  0  0  0  0  0  0
  -26.0740  -38.4190   23.9160 H   0  0  0  0  0  0  0  0  0  0  0  0
  -26.3960  -31.8280   25.0530 C   0  0  1  0  0  0  0  0  0  0  0  0
  -25.3060  -31.5790   26.1220 C   0  0  0  0  0  1  0  0  0  0  0  0
  -26.9850  -30.4560   24.6610 C   0  0  0  0  0  1  0  0  0  0  0  0
  -27.5470  -32.6280   25.7060 C   0  0  0  0  0  1  0  0  0  0  0  0
  -30.1090  -18.6540   20.0080 C   0  0  0  0  0  3  0  0  0  0  0  0
  -30.5290  -15.6790   19.9990 C   0  0  0  0  0  0  0  0  0  0  0  0
  -30.6310  -13.1610   19.2580 C   0  0  0  0  0  2  0  0  0  0  0  0
  -29.7020  -12.7600   18.0800 C   0  0  0  0  0  2  0  0  0  0  0  0
  -28.2700  -12.4520   18.5590 C   0  0  0  0  0  2  0  0  0  0  0  0
  -27.7950  -13.4750   19.6190 C   0  0  0  0  0  3  0  0  0  0  0  0
  -28.8690  -13.6930   20.7160 C   0  0  0  0  0  2  0  0  0  0  0  0
  -30.0200  -14.3260   20.0230 N   0  0  0  0  0  0  0  0  0  0  0  0
  -31.7420  -15.6770   19.7400 O   0  0  0  0  0  0  0  0  0  0  0  0
  -28.3070  -16.8480   20.2170 C   0  0  0  0  0  1  0  0  0  0  0  0
  -29.7520  -16.9880   20.0740 N   0  0  0  0  0  0  0  0  0  0  0  0
  -25.4340  -14.0310   20.4340 C   0  0  0  0  0  0  0  0  0  0  0  0
  -24.3830  -13.2550   20.8280 C   0  0  0  0  0  0  0  0  0  0  0  0
  -24.8430  -11.9050   20.7540 C   0  0  0  0  0  0  0  0  0  0  0  0
  -26.4750  -13.1610   20.1540 N   0  0  0  0  0  0  0  0  0  0  0  0
  -26.1250  -11.8730   20.4010 N   0  0  0  0  0  0  0  0  0  0  0  0
  -24.1190  -10.6430   20.9420 C   0  0  0  0  0  0  0  0  0  0  0  0
  -24.5360   -9.6870   21.8920 C   0  0  0  0  0  3  0  0  0  0  0  0
  -23.8050   -8.4910   22.0720 C   0  0  0  0  0  3  0  0  0  0  0  0
  -22.6460   -8.2440   21.2970 C   0  0  0  0  0  0  0  0  0  0  0  0
  -22.2460   -9.1930   20.3390 C   0  0  0  0  0  3  0  0  0  0  0  0
  -22.9780  -10.3760   20.1580 C   0  0  0  0  0  3  0  0  0  0  0  0
  -21.8920   -7.0970   21.3800 O   0  0  0  0  0  0  0  0  0  0  0  0
  -21.7620   -6.4040   22.5580 C   0  0  0  0  0  0  0  0  0  0  0  0
  -21.1730   -6.9860   23.6990 C   0  0  0  0  0  3  0  0  0  0  0  0
  -20.9940   -6.2180   24.8680 C   0  0  0  0  0  3  0  0  0  0  0  0
  -21.4000   -4.8710   24.8950 C   0  0  0  0  0  0  0  0  0  0  0  0
  -21.9870   -4.2900   23.7570 C   0  0  0  0  0  3  0  0  0  0  0  0
  -22.1660   -5.0550   22.5910 C   0  0  0  0  0  0  0  0  0  0  0  0
  -22.7130   -4.4870   21.4880 F   0  0  0  0  0  0  0  0  0  0  0  0
  -21.2240   -4.1280   26.0130 F   0  0  0  0  0  0  0  0  0  0  0  0
  -23.0010  -13.7370   21.1520 C   0  0  0  0  0  0  0  0  0  0  0  0
  -22.3010  -13.0370   22.0370 N   0  0  0  0  0  0  0  0  0  0  0  0
  -22.5570  -14.7780   20.6670 O   0  0  0  0  0  0  0  0  0  0  0  0
  -22.6790  -12.2050   22.4630 H   0  0  0  0  0  0  0  0  0  0  0  0
  -21.3800  -13.3490   22.3080 H   0  0  0  0  0  0  0  0  0  0  0  0
  -25.5740  -15.4030   20.2740 N   0  0  0  0  0  0  0  0  0  0  0  0
  -24.7900  -16.0360   20.4070 H   0  0  0  0  0  0  0  0  0  0  0  0
  -26.4090  -15.8540   19.9290 H   0  0  0  0  0  0  0  0  0  0  0  0
  -31.2280  -18.8020   21.1180 C   0  0  0  0  0  2  0  0  0  0  0  0
  -33.3150  -20.1480   20.3070 C   0  0  0  0  0  1  0  0  0  0  0  0
  -32.6530  -20.2570   22.7050 C   0  0  0  0  0  1  0  0  0  0  0  0
  -32.1050  -20.0940   21.2630 C   0  0  0  0  0  3  0  0  0  0  0  0
  1  3  2  0
  2  1  1  0
  2  5  1  0
  4  2  1  0
  6  7  1  0
  6  5  1  0
  8 19  2  0
  9  7  1  0
  9 14  1  0
 10 18  1  0
 10 20  1  0
 11 17  1  0
 11 13  1  0
 12 18  1  0
 13 12  1  0
 14 13  2  0
 15 16  1  0
 15  9  2  0
 16 11  2  0
 17 10  1  0
 18  8  1  0
 20 22  2  0
 21 20  1  0
 23 21  1  0
 24 33  2  0
 24 29  1  0
 25 21  1  0
 25 29  1  0
 26 25  1  0
 27 28  1  0
 27 26  1  0
 28 24  1  0
 29 30  2  0
 30 31  1  0
 32 31  2  0
 33 32  1  0
 34  8  1  0
 34 35  1  0
 34 44  1  0
 35 38  1  0
 36 40  1  0
 36 35  1  0
 37 36  2  0
 40 39  1  0
 42 40  1  0
 42 43  1  0
 42 41  1  0
 44 47  1  1
 44 45  1  0
 46 44  1  0
 48 58  1  0
 48  1  1  0
 48 87  1  0
 49 55  1  0
 49 58  1  0
 50 55  1  0
 51 52  1  0
 51 50  1  0
 53 52  1  0
 53 62  1  0
 53 54  1  0
 55 54  1  0
 56 49  2  0
 58 57  1  0
 59 60  2  0
 60 79  1  0
 61 60  1  0
 61 64  1  0
 62 63  1  0
 62 59  1  0
 63 61  2  0
 64 65  1  0
 65 66  2  0
 67 70  1  0
 67 66  1  0
 68 67  2  0
 69 68  1  0
 69 64  2  0
 70 71  1  0
 71 76  2  0
 71 72  1  0
 72 73  2  0
 73 74  1  0
 74 78  1  0
 75 74  2  0
 76 75  1  0
 77 76  1  0
 79 80  1  0
 80 83  1  0
 80 82  1  0
 81 79  2  0
 84 85  1  0
 84 59  1  0
 86 84  1  0
 87 90  1  0
 88 90  1  0
 90 89  1  0
M  ISO  4   6 101   7 101  49 100  58 100
M  END
>  <TORSDO>  (32) 
F 21

>  <SCORE>  (32) 
-15.971

>  <name>  (32) 
32

>  <ligand_id>  (32) 
32

>  <original_smiles>  (32) 
[H]c1c([H])c([H])c2c(c1[H])C([H])([H])C([H])([H])C([H])([H])C2([H])N([H])C(=O)C1([H])N(C(=O)C([H])(N([H])C(=O)C([H])(N([H])C([H])([H])[H])C([H])([H])[H])C(C([H])([H])[H])(C([H])([H])[H])C([H])([H])[H])C([H])([H])c2c([H])c(OC([H])([H])C([H])([H])N([H])C(=O)C([H])(N(C(=O)N3C([H])([H])C([H])([H])C([H])([H])C([H])(n4nc(-c5c([H])c([H])c(Oc6c([H])c([H])c(F)c([H])c6F)c([H])c5[H])c(C(=O)N([H])[H])c4N([H])[H])C3([H])[H])C([H])([H])[H])C([H])([H])C([H])(C([H])([H])[H])C([H])([H])[H])c([H])c([H])c2C1([H])[H]

>  <smiles>  (32) 
[H]c1c([H])c([H])c2c(c1[H])C([H])([H])C([H])([H])C([H])([H])C2([H])N([H])C(=O)C1([H])N(C(=O)C([H])(N([H])C(=O)C([H])(N([H])C([H])([H])[H])C([H])([H])[H])C(C([H])([H])[H])(C([H])([H])[H])C([H])([H])[H])C([H])([H])c2c([H])c(OC([H])([H])C([H])([H])N([H])C(=O)C([H])(N(C(=O)N3C([H])([H])C([H])([H])C([H])([H])C([H])(n4nc(-c5c([H])c([H])c(Oc6c([H])c([H])c(F)c([H])c6F)c([H])c5[H])c(C(=O)N([H])[H])c4N([H])[H])C3([H])[H])C([H])([H])[H])C([H])([H])C([H])(C([H])([H])[H])C([H])([H])[H])c([H])c([H])c2C1([H])[H]

$$$$
33:0:0
     RDKit          3D

 93100  0  0  1  0  0  0  0  0999 V2000
  -29.2540  -22.0490   20.3110 N   0  0  1  0  0  4  0  0  0  0  0  0
  -29.1900  -22.0880   21.3190 H   0  0  0  0  0  0  0  0  0  0  0  0
  -28.8090  -20.5590   19.9400 C   0  0  0  0  0  2  0  0  0  0  0  0
  -29.5170  -19.1380   20.5680 C   0  0  0  0  0  2  0  0  0  0  0  0
  -29.6250  -17.6290   19.8020 C   0  0  0  0  0  2  0  0  0  0  0  0
  -30.5010  -15.0110   20.2410 C   0  0  0  0  0  0  0  0  0  0  0  0
  -30.4150  -12.6500   19.3310 C   0  0  0  0  0  2  0  0  0  0  0  0
  -29.4760  -12.6090   18.1030 C   0  0  0  0  0  2  0  0  0  0  0  0
  -28.0130  -12.3990   18.5420 C   0  0  0  0  0  2  0  0  0  0  0  0
  -27.6050  -13.3140   19.7300 C   0  0  0  0  0  3  0  0  0  0  0  0
  -28.6700  -13.3080   20.8510 C   0  0  0  0  0  2  0  0  0  0  0  0
  -29.9400  -13.7340   20.2460 N   0  0  0  0  0  0  0  0  0  0  0  0
  -31.6730  -15.1030   19.8650 O   0  0  0  0  0  0  0  0  0  0  0  0
  -29.6960  -16.1720   20.4520 N   0  0  0  0  0  0  0  0  0  0  0  0
  -28.8320  -15.9230   20.9120 H   0  0  0  0  0  0  0  0  0  0  0  0
  -25.2230  -13.8770   20.4880 C   0  0  0  0  0  0  0  0  0  0  0  0
  -24.1650  -13.0940   20.8610 C   0  0  0  0  0  0  0  0  0  0  0  0
  -24.6360  -11.7470   20.8210 C   0  0  0  0  0  0  0  0  0  0  0  0
  -26.2700  -13.0080   20.2340 N   0  0  0  0  0  0  0  0  0  0  0  0
  -25.9260  -11.7190   20.5000 N   0  0  0  0  0  0  0  0  0  0  0  0
  -23.9180  -10.4790   21.0120 C   0  0  0  0  0  0  0  0  0  0  0  0
  -24.3480   -9.5160   21.9520 C   0  0  0  0  0  3  0  0  0  0  0  0
  -23.6240   -8.3180   22.1340 C   0  0  0  0  0  3  0  0  0  0  0  0
  -22.4540   -8.0730   21.3760 C   0  0  0  0  0  0  0  0  0  0  0  0
  -22.0450   -9.0240   20.4240 C   0  0  0  0  0  3  0  0  0  0  0  0
  -22.7710  -10.2120   20.2400 C   0  0  0  0  0  3  0  0  0  0  0  0
  -21.7060   -6.9230   21.4660 O   0  0  0  0  0  0  0  0  0  0  0  0
  -21.6470   -6.1870   22.6240 C   0  0  0  0  0  0  0  0  0  0  0  0
  -21.1960   -6.7460   23.8390 C   0  0  0  0  0  3  0  0  0  0  0  0
  -21.0850   -5.9370   24.9870 C   0  0  0  0  0  3  0  0  0  0  0  0
  -21.4190   -4.5710   24.9220 C   0  0  0  0  0  0  0  0  0  0  0  0
  -21.8670   -4.0130   23.7110 C   0  0  0  0  0  3  0  0  0  0  0  0
  -21.9770   -4.8190   22.5650 C   0  0  0  0  0  0  0  0  0  0  0  0
  -22.3870   -4.2720   21.3940 F   0  0  0  0  0  0  0  0  0  0  0  0
  -21.3070   -3.7920   26.0220 F   0  0  0  0  0  0  0  0  0  0  0  0
  -22.7670  -13.5630   21.1380 C   0  0  0  0  0  0  0  0  0  0  0  0
  -22.0410  -12.8620   22.0020 N   0  0  0  0  0  0  0  0  0  0  0  0
  -22.3240  -14.5880   20.6220 O   0  0  0  0  0  0  0  0  0  0  0  0
  -22.4130  -12.0350   22.4500 H   0  0  0  0  0  0  0  0  0  0  0  0
  -21.1020  -13.1570   22.2220 H   0  0  0  0  0  0  0  0  0  0  0  0
  -25.3730  -15.2500   20.3090 N   0  0  0  0  0  0  0  0  0  0  0  0
  -24.6000  -15.8940   20.4370 H   0  0  0  0  0  0  0  0  0  0  0  0
  -26.1910  -15.6890   19.9100 H   0  0  0  0  0  0  0  0  0  0  0  0
  -30.7180  -22.1470   19.9930 C   0  0  0  0  0  2  0  0  0  0  0  0
  -31.3250  -23.5570   19.7820 C   0  0  0  0  0  2  0  0  0  0  0  0
  -32.7420  -23.4930   19.1630 C   0  0  0  0  0  2  0  0  0  0  0  0
  -33.3050  -24.8270   18.8720 N   0  0  0  0  0  4  0  0  0  0  0  0
  -32.7730  -25.3050   18.1660 H   0  0  0  0  0  0  0  0  0  0  0  0
  -34.2470  -24.7340   18.5300 H   0  0  0  0  0  0  0  0  0  0  0  0
  -33.3310  -25.3900   19.7030 H   0  0  0  0  0  0  0  0  0  0  0  0
  -28.4210  -23.3260   19.8140 C   0  0  0  0  0  2  0  0  0  0  0  0
  -28.3190  -24.7960   20.6520 C   0  0  0  0  0  2  0  0  0  0  0  0
  -28.3420  -26.2750   20.1640 O   0  0  0  0  0  0  0  0  0  0  0  0
  -24.6250  -31.8940   23.2410 C   0  0  0  0  0  0  0  0  0  0  0  0
  -27.2370  -27.1920   20.2220 C   0  0  0  0  0  0  0  0  0  0  0  0
  -23.4320  -30.4940   21.5980 C   0  0  0  0  0  3  0  0  0  0  0  0
  -24.8880  -28.9010   20.2020 C   0  0  0  0  0  0  0  0  0  0  0  0
  -25.9850  -30.7660   21.4400 C   0  0  0  0  0  2  0  0  0  0  0  0
  -26.0660  -29.3690   20.7970 C   0  0  0  0  0  0  0  0  0  0  0  0
  -27.2420  -28.5320   20.7830 C   0  0  0  0  0  3  0  0  0  0  0  0
  -26.0250  -26.8060   19.6150 C   0  0  0  0  0  3  0  0  0  0  0  0
  -24.8760  -27.6310   19.6000 C   0  0  0  0  0  3  0  0  0  0  0  0
  -23.6610  -29.8010   20.2290 C   0  0  0  0  0  2  0  0  0  0  0  0
  -24.7010  -31.0740   22.1490 N   0  0  0  0  0  0  0  0  0  0  0  0
  -23.5390  -32.1800   23.7660 O   0  0  0  0  0  0  0  0  0  0  0  0
  -22.7510  -29.4910   22.5640 C   0  0  0  0  0  0  0  0  0  0  0  0
  -21.4220  -29.3250   22.4360 N   0  0  0  0  0  0  0  0  0  0  0  0
  -23.4200  -28.8650   23.3890 O   0  0  0  0  0  0  0  0  0  0  0  0
  -20.9370  -29.8860   21.7490 H   0  0  0  0  0  0  0  0  0  0  0  0
  -18.0370  -28.1360   22.9390 C   0  0  0  0  0  0  0  0  0  0  0  0
  -20.5970  -28.3890   23.2050 C   0  0  0  0  0  3  0  0  0  0  0  0
  -20.6910  -26.9560   22.6300 C   0  0  0  0  0  2  0  0  0  0  0  0
  -19.5880  -26.6380   21.6160 C   0  0  0  0  0  2  0  0  0  0  0  0
  -18.2060  -26.7870   22.2610 C   0  0  0  0  0  2  0  0  0  0  0  0
  -19.1570  -28.8940   23.3680 C   0  0  0  0  0  0  0  0  0  0  0  0
  -18.9450  -30.1570   23.9630 C   0  0  0  0  0  3  0  0  0  0  0  0
  -17.6400  -30.6590   24.1330 C   0  0  0  0  0  3  0  0  0  0  0  0
  -16.5340  -29.9000   23.7170 C   0  0  0  0  0  3  0  0  0  0  0  0
  -16.7320  -28.6390   23.1260 C   0  0  0  0  0  3  0  0  0  0  0  0
  -25.9040  -32.5320   23.8740 C   0  0  0  0  0  3  0  0  0  0  0  0
  -26.4030  -31.7710   25.1640 C   0  0  1  0  0  0  0  0  0  0  0  0
  -25.3030  -31.5480   26.2280 C   0  0  0  0  0  1  0  0  0  0  0  0
  -26.9850  -30.3870   24.7960 C   0  0  0  0  0  1  0  0  0  0  0  0
  -27.5460  -32.5720   25.8320 C   0  0  0  0  0  1  0  0  0  0  0  0
  -25.5920  -33.9340   24.2000 N   0  0  0  0  0  0  0  0  0  0  0  0
  -25.9300  -34.9870   23.4430 C   0  0  0  0  0  0  0  0  0  0  0  0
  -26.6010  -34.8800   22.4150 O   0  0  0  0  0  0  0  0  0  0  0  0
  -25.0020  -34.0890   25.0050 H   0  0  0  0  0  0  0  0  0  0  0  0
  -24.2110  -36.7910   23.0800 C   0  0  0  0  0  1  0  0  0  0  0  0
  -25.4440  -36.3780   23.9000 C   0  0  0  0  0  3  0  0  0  0  0  0
  -27.5760  -37.2590   24.7460 C   0  0  0  0  0  1  0  0  0  0  0  0
  -26.4820  -37.4280   23.7940 N   0  0  0  0  0  0  0  0  0  0  0  0
  -26.0760  -38.3490   23.9360 H   0  0  0  0  0  0  0  0  0  0  0  0
  1  2  1  1
  3  1  1  0
  3  4  1  0
  5 14  1  0
  5  4  1  0
  6 12  1  0
  6 14  1  0
  7 12  1  0
  8  9  1  0
  8  7  1  0
 10  9  1  0
 10 19  1  0
 10 11  1  0
 12 11  1  0
 13  6  2  0
 14 15  1  0
 16 17  2  0
 17 36  1  0
 18 17  1  0
 18 21  1  0
 19 16  1  0
 19 20  1  0
 20 18  2  0
 21 22  1  0
 22 23  2  0
 24 27  1  0
 24 23  1  0
 25 24  2  0
 26 25  1  0
 26 21  2  0
 27 28  1  0
 28 29  1  0
 29 30  2  0
 31 30  1  0
 31 35  1  0
 32 31  2  0
 33 28  2  0
 33 32  1  0
 34 33  1  0
 36 37  1  0
 37 40  1  0
 37 39  1  0
 38 36  2  0
 41 42  1  0
 41 16  1  0
 43 41  1  0
 44  1  1  0
 45 44  1  0
 46 45  1  0
 47 46  1  0
 47 50  1  0
 48 47  1  0
 49 47  1  0
 51  1  1  0
 51 52  1  0
 53 55  1  0
 53 52  1  0
 54 65  2  0
 55 60  1  0
 56 64  1  0
 56 66  1  0
 57 63  1  0
 57 59  1  0
 58 64  1  0
 59 58  1  0
 60 59  2  0
 61 55  2  0
 62 61  1  0
 62 57  2  0
 63 56  1  0
 64 54  1  0
 66 68  2  0
 67 66  1  0
 69 67  1  0
 70 79  2  0
 70 75  1  0
 71 67  1  0
 71 75  1  0
 72 71  1  0
 73 74  1  0
 73 72  1  0
 74 70  1  0
 75 76  2  0
 76 77  1  0
 78 77  2  0
 79 78  1  0
 80 54  1  0
 80 85  1  0
 80 81  1  0
 81 84  1  1
 81 82  1  0
 83 81  1  0
 85 88  1  0
 86 90  1  0
 86 85  1  0
 87 86  2  0
 90 89  1  0
 92 90  1  0
 92 93  1  0
 92 91  1  0
M  ISO  4   6 100  14 100  52 101  53 101
M  END
>  <TORSDO>  (33) 
F 25

>  <SCORE>  (33) 
-13.828

>  <name>  (33) 
33

>  <ligand_id>  (33) 
33

>  <original_smiles>  (33) 
[H]c1c([H])c([H])c2c(c1[H])C([H])([H])C([H])([H])C([H])([H])C2([H])N([H])C(=O)C1([H])N(C(=O)C([H])(N([H])C(=O)C([H])(N([H])C([H])([H])[H])C([H])([H])[H])C(C([H])([H])[H])(C([H])([H])[H])C([H])([H])[H])C([H])([H])c2c([H])c(OC([H])([H])C([H])([H])[N+]([H])(C([H])([H])C([H])([H])C([H])([H])N([H])C(=O)N3C([H])([H])C([H])([H])C([H])([H])C([H])(n4nc(-c5c([H])c([H])c(Oc6c([H])c([H])c(F)c([H])c6F)c([H])c5[H])c(C(=O)N([H])[H])c4N([H])[H])C3([H])[H])C([H])([H])C([H])([H])C([H])([H])[N+]([H])([H])[H])c([H])c([H])c2C1([H])[H]

>  <smiles>  (33) 
[H]c1c([H])c([H])c2c(c1[H])C([H])([H])C([H])([H])C([H])([H])C2([H])N([H])C(=O)C1([H])N(C(=O)C([H])(N([H])C(=O)C([H])(N([H])C([H])([H])[H])C([H])([H])[H])C(C([H])([H])[H])(C([H])([H])[H])C([H])([H])[H])C([H])([H])c2c([H])c(OC([H])([H])C([H])([H])[N+]([H])(C([H])([H])C([H])([H])C([H])([H])N([H])C(=O)N3C([H])([H])C([H])([H])C([H])([H])C([H])(n4nc(-c5c([H])c([H])c(Oc6c([H])c([H])c(F)c([H])c6F)c([H])c5[H])c(C(=O)N([H])[H])c4N([H])[H])C3([H])[H])C([H])([H])C([H])([H])C([H])([H])[N+]([H])([H])[H])c([H])c([H])c2C1([H])[H]

$$$$
34:0:0
     RDKit          3D

 96103  0  0  1  0  0  0  0  0999 V2000
  -30.0130  -18.4690   19.9010 C   0  0  0  0  0  2  0  0  0  0  0  0
  -29.8490  -19.9090   20.4250 N   0  0  0  0  0  4  0  0  0  0  0  0
  -29.7020  -19.8550   21.4200 H   0  0  0  0  0  0  0  0  0  0  0  0
  -30.7540  -20.3440   20.3000 H   0  0  0  0  0  0  0  0  0  0  0  0
  -28.7960  -20.8860   19.8780 C   0  0  0  0  0  2  0  0  0  0  0  0
  -29.0960  -22.4640   20.0840 C   0  0  0  0  0  2  0  0  0  0  0  0
  -27.9720  -23.6360   20.0780 C   0  0  0  0  0  2  0  0  0  0  0  0
  -28.1500  -24.9870   19.2090 C   0  0  0  0  0  2  0  0  0  0  0  0
  -28.0760  -26.3730   19.7590 O   0  0  0  0  0  0  0  0  0  0  0  0
  -24.5680  -31.7850   22.9820 C   0  0  0  0  0  0  0  0  0  0  0  0
  -26.9450  -27.2090   19.7340 C   0  0  0  0  0  0  0  0  0  0  0  0
  -23.2520  -30.4260   21.3940 C   0  0  0  0  0  3  0  0  0  0  0  0
  -24.6010  -28.8600   19.8700 C   0  0  0  0  0  0  0  0  0  0  0  0
  -25.7830  -30.6990   21.0780 C   0  0  0  0  0  2  0  0  0  0  0  0
  -25.8060  -29.3260   20.4080 C   0  0  0  0  0  0  0  0  0  0  0  0
  -26.9750  -28.5120   20.3290 C   0  0  0  0  0  3  0  0  0  0  0  0
  -25.7160  -26.7900   19.1810 C   0  0  0  0  0  3  0  0  0  0  0  0
  -24.5590  -27.5990   19.2470 C   0  0  0  0  0  3  0  0  0  0  0  0
  -23.3790  -29.7520   20.0000 C   0  0  0  0  0  2  0  0  0  0  0  0
  -24.5570  -30.9880   21.8730 N   0  0  0  0  0  0  0  0  0  0  0  0
  -23.5220  -32.0740   23.5800 O   0  0  0  0  0  0  0  0  0  0  0  0
  -22.6210  -29.4160   22.3830 C   0  0  0  0  0  0  0  0  0  0  0  0
  -21.2920  -29.2400   22.3030 N   0  0  0  0  0  0  0  0  0  0  0  0
  -23.3270  -28.7920   23.1800 O   0  0  0  0  0  0  0  0  0  0  0  0
  -20.7810  -29.7930   21.6290 H   0  0  0  0  0  0  0  0  0  0  0  0
  -17.9380  -28.0320   22.9030 C   0  0  0  0  0  0  0  0  0  0  0  0
  -20.5020  -28.3040   23.1020 C   0  0  0  0  0  3  0  0  0  0  0  0
  -20.5950  -26.8700   22.5310 C   0  0  0  0  0  2  0  0  0  0  0  0
  -19.4670  -26.5400   21.5500 C   0  0  0  0  0  2  0  0  0  0  0  0
  -18.1000  -26.6820   22.2270 C   0  0  0  0  0  2  0  0  0  0  0  0
  -19.0650  -28.8000   23.2980 C   0  0  0  0  0  0  0  0  0  0  0  0
  -18.8570  -30.0670   23.8870 C   0  0  0  0  0  3  0  0  0  0  0  0
  -17.5530  -30.5650   24.0870 C   0  0  0  0  0  3  0  0  0  0  0  0
  -16.4420  -29.7950   23.7040 C   0  0  0  0  0  3  0  0  0  0  0  0
  -16.6360  -28.5290   23.1200 C   0  0  0  0  0  3  0  0  0  0  0  0
  -25.8950  -32.3900   23.5420 C   0  0  0  0  0  3  0  0  0  0  0  0
  -25.5950  -33.7450   24.0260 N   0  0  0  0  0  0  0  0  0  0  0  0
  -25.8720  -34.8740   23.3590 C   0  0  0  0  0  0  0  0  0  0  0  0
  -26.4760  -34.8840   22.2840 O   0  0  0  0  0  0  0  0  0  0  0  0
  -25.0500  -33.8060   24.8730 H   0  0  0  0  0  0  0  0  0  0  0  0
  -24.1210  -36.6820   23.2830 C   0  0  0  0  0  1  0  0  0  0  0  0
  -25.4020  -36.2030   23.9850 C   0  0  0  0  0  3  0  0  0  0  0  0
  -27.5730  -37.0190   24.7950 C   0  0  0  0  0  1  0  0  0  0  0  0
  -26.4230  -37.2740   23.9300 N   0  0  0  0  0  0  0  0  0  0  0  0
  -26.0220  -38.1690   24.1980 H   0  0  0  0  0  0  0  0  0  0  0  0
  -26.5320  -31.5220   24.6950 C   0  0  1  0  0  0  0  0  0  0  0  0
  -25.5330  -31.1320   25.8100 C   0  0  0  0  0  1  0  0  0  0  0  0
  -27.1350  -30.2170   24.1270 C   0  0  0  0  0  1  0  0  0  0  0  0
  -27.6960  -32.2960   25.3540 C   0  0  0  0  0  1  0  0  0  0  0  0
  -30.5680  -17.3630   20.9370 C   0  0  0  0  0  0  0  0  0  0  0  0
  -31.4190  -14.7830   20.5210 C   0  0  0  0  0  0  0  0  0  0  0  0
  -31.2520  -12.4410   19.6370 C   0  0  0  0  0  2  0  0  0  0  0  0
  -30.3710  -12.4480   18.3710 C   0  0  0  0  0  2  0  0  0  0  0  0
  -28.8680  -12.3750   18.7220 C   0  0  0  0  0  2  0  0  0  0  0  0
  -28.4690  -13.3590   19.8520 C   0  0  0  0  0  3  0  0  0  0  0  0
  -29.4610  -13.2660   21.0340 C   0  0  0  0  0  2  0  0  0  0  0  0
  -30.8020  -13.5530   20.5000 N   0  0  0  0  0  0  0  0  0  0  0  0
  -32.6150  -14.9070   20.2400 O   0  0  0  0  0  0  0  0  0  0  0  0
  -30.5630  -15.8500   20.7000 N   0  0  0  0  0  4  0  0  0  0  0  0
  -29.6380  -15.4830   20.8520 H   0  0  0  0  0  0  0  0  0  0  0  0
  -26.1000  -14.1240   20.4850 C   0  0  0  0  0  0  0  0  0  0  0  0
  -24.9610  -13.4260   20.7990 C   0  0  0  0  0  0  0  0  0  0  0  0
  -25.3240  -12.0450   20.7660 C   0  0  0  0  0  0  0  0  0  0  0  0
  -27.0840  -13.1670   20.2800 N   0  0  0  0  0  0  0  0  0  0  0  0
  -26.6200  -11.9150   20.5100 N   0  0  0  0  0  0  0  0  0  0  0  0
  -24.4980  -10.8360   20.9070 C   0  0  0  0  0  0  0  0  0  0  0  0
  -24.8280   -9.8190   21.8310 C   0  0  0  0  0  3  0  0  0  0  0  0
  -24.0090   -8.6760   21.9620 C   0  0  0  0  0  3  0  0  0  0  0  0
  -22.8450   -8.5430   21.1700 C   0  0  0  0  0  0  0  0  0  0  0  0
  -22.5320   -9.5480   20.2400 C   0  0  0  0  0  3  0  0  0  0  0  0
  -23.3490  -10.6840   20.1050 C   0  0  0  0  0  3  0  0  0  0  0  0
  -22.0060   -7.4550   21.2080 O   0  0  0  0  0  0  0  0  0  0  0  0
  -21.8640   -6.6980   22.3430 C   0  0  0  0  0  0  0  0  0  0  0  0
  -21.4360   -7.2630   23.5640 C   0  0  0  0  0  3  0  0  0  0  0  0
  -21.2340   -6.4360   24.6900 C   0  0  0  0  0  3  0  0  0  0  0  0
  -21.4510   -5.0490   24.5920 C   0  0  0  0  0  0  0  0  0  0  0  0
  -21.8750   -4.4860   23.3760 C   0  0  0  0  0  3  0  0  0  0  0  0
  -22.0780   -5.3080   22.2560 C   0  0  0  0  0  0  0  0  0  0  0  0
  -22.4630   -4.7580   21.0780 F   0  0  0  0  0  0  0  0  0  0  0  0
  -21.2520   -4.2530   25.6710 F   0  0  0  0  0  0  0  0  0  0  0  0
  -23.5930  -14.0030   21.0150 C   0  0  0  0  0  0  0  0  0  0  0  0
  -22.7950  -13.3840   21.8820 N   0  0  0  0  0  0  0  0  0  0  0  0
  -23.2350  -15.0370   20.4560 O   0  0  0  0  0  0  0  0  0  0  0  0
  -23.0860  -12.5420   22.3570 H   0  0  0  0  0  0  0  0  0  0  0  0
  -21.8760  -13.7620   22.0690 H   0  0  0  0  0  0  0  0  0  0  0  0
  -26.3720  -15.4800   20.3250 N   0  0  0  0  0  0  0  0  0  0  0  0
  -25.6460  -16.1860   20.3950 H   0  0  0  0  0  0  0  0  0  0  0  0
  -27.2470  -15.8470   19.9730 H   0  0  0  0  0  0  0  0  0  0  0  0
  -31.7670  -17.8040   21.8170 C   0  0  0  0  0  2  0  0  0  0  0  0
  -31.3350  -18.5780   23.0870 C   0  0  0  0  0  2  0  0  0  0  0  0
  -31.1710  -20.1120   22.9000 C   0  0  0  0  0  2  0  0  0  0  0  0
  -30.6760  -20.8310   24.1790 C   0  0  0  0  0  2  0  0  0  0  0  0
  -30.8010  -22.2990   24.1060 N   0  0  0  0  0  4  0  0  0  0  0  0
  -31.7610  -22.5950   24.0690 H   0  0  0  0  0  0  0  0  0  0  0  0
  -30.3910  -22.7120   24.9250 H   0  0  0  0  0  0  0  0  0  0  0  0
  -30.3210  -22.6680   23.3060 H   0  0  0  0  0  0  0  0  0  0  0  0
  1  2  1  0
  1 50  1  0
  2  3  1  0
  4  2  1  0
  5  6  1  0
  5  2  1  0
  7  6  1  0
  8  9  1  0
  8  7  1  0
 10 21  2  0
 11  9  1  0
 11 16  1  0
 12 20  1  0
 12 22  1  0
 13 19  1  0
 13 15  1  0
 14 20  1  0
 15 14  1  0
 16 15  2  0
 17 18  1  0
 17 11  2  0
 18 13  2  0
 19 12  1  0
 20 10  1  0
 22 24  2  0
 23 22  1  0
 25 23  1  0
 26 35  2  0
 26 31  1  0
 27 23  1  0
 27 31  1  0
 28 27  1  0
 29 30  1  0
 29 28  1  0
 30 26  1  0
 31 32  2  0
 32 33  1  0
 34 33  2  0
 35 34  1  0
 36 10  1  0
 36 37  1  0
 36 46  1  0
 37 40  1  0
 38 42  1  0
 38 37  1  0
 39 38  2  0
 42 41  1  0
 44 42  1  0
 44 45  1  0
 44 43  1  0
 46 49  1  1
 46 47  1  0
 48 46  1  0
 50 89  1  0
 51 59  1  0
 52 57  1  0
 53 54  1  0
 53 52  1  0
 55 54  1  0
 55 64  1  0
 55 56  1  0
 57 51  1  0
 57 56  1  0
 58 51  2  0
 59 60  1  0
 59 50  2  0
 61 62  2  0
 62 81  1  0
 63 62  1  0
 63 66  1  0
 64 61  1  0
 64 65  1  0
 65 63  2  0
 66 67  1  0
 67 68  2  0
 69 72  1  0
 69 68  1  0
 70 69  2  0
 71 70  1  0
 71 66  2  0
 72 73  1  0
 73 74  1  0
 74 75  2  0
 76 75  1  0
 76 80  1  0
 77 76  2  0
 78 73  2  0
 78 77  1  0
 79 78  1  0
 81 82  1  0
 82 85  1  0
 82 84  1  0
 83 81  2  0
 86 87  1  0
 86 61  1  0
 88 86  1  0
 89 90  1  0
 91 90  1  0
 91 92  1  0
 93 92  1  0
 93 95  1  0
 94 93  1  0
 96 93  1  0
M  ISO  4   8 101   9 101  51 100  59 100
M  END
>  <TORSDO>  (34) 
F 27

>  <SCORE>  (34) 
-10.759

>  <name>  (34) 
34

>  <ligand_id>  (34) 
34

>  <original_smiles>  (34) 
[H]c1c([H])c([H])c2c(c1[H])C([H])([H])C([H])([H])C([H])([H])C2([H])N([H])C(=O)C1([H])N(C(=O)C([H])(N([H])C(=O)C([H])(N([H])C([H])([H])[H])C([H])([H])[H])C(C([H])([H])[H])(C([H])([H])[H])C([H])([H])[H])C([H])([H])c2c([H])c(OC([H])([H])C([H])([H])C([H])([H])C([H])([H])[N+]([H])([H])C([H])([H])C([H])(N([H])C(=O)N3C([H])([H])C([H])([H])C([H])([H])C([H])(n4nc(-c5c([H])c([H])c(Oc6c([H])c([H])c(F)c([H])c6F)c([H])c5[H])c(C(=O)N([H])[H])c4N([H])[H])C3([H])[H])C([H])([H])C([H])([H])C([H])([H])C([H])([H])[N+]([H])([H])[H])c([H])c([H])c2C1([H])[H]

>  <smiles>  (34) 
[H]c1c([H])c([H])c2c(c1[H])C([H])([H])C([H])([H])C([H])([H])C2([H])N([H])C(=O)C1([H])N(C(=O)C([H])(N([H])C(=O)C([H])(N([H])C([H])([H])[H])C([H])([H])[H])C(C([H])([H])[H])(C([H])([H])[H])C([H])([H])[H])C([H])([H])c2c([H])c(OC([H])([H])C([H])([H])C([H])([H])C([H])([H])[N+]([H])([H])C([H])([H])C([H])(N([H])C(=O)N3C([H])([H])C([H])([H])C([H])([H])C([H])(n4nc(-c5c([H])c([H])c(Oc6c([H])c([H])c(F)c([H])c6F)c([H])c5[H])c(C(=O)N([H])[H])c4N([H])[H])C3([H])[H])C([H])([H])C([H])([H])C([H])([H])C([H])([H])[N+]([H])([H])[H])c([H])c([H])c2C1([H])[H]

$$$$
35:0:0
     RDKit          3D

 88 97  0  0  1  0  0  0  0  0999 V2000
  -30.5510  -15.2150   20.2620 C   0  0  0  0  0  0  0  0  0  0  0  0
  -30.4820  -12.7770   19.4860 C   0  0  0  0  0  2  0  0  0  0  0  0
  -29.6010  -12.4890   18.2540 C   0  0  0  0  0  2  0  0  0  0  0  0
  -28.1510  -12.2270   18.6900 C   0  0  0  0  0  2  0  0  0  0  0  0
  -27.6430  -13.2840   19.6980 C   0  0  0  0  0  3  0  0  0  0  0  0
  -28.6570  -13.5140   20.8390 C   0  0  0  0  0  2  0  0  0  0  0  0
  -29.9130  -13.9620   20.2090 N   0  0  0  0  0  0  0  0  0  0  0  0
  -31.7860  -15.1430   20.1620 O   0  0  0  0  0  0  0  0  0  0  0  0
  -27.8720  -18.1350   20.7600 C   0  0  0  0  0  2  0  0  0  0  0  0
  -27.7230  -19.5180   20.0010 C   0  0  0  0  0  2  0  0  0  0  0  0
  -30.1670  -19.4050   19.5840 C   0  0  0  0  0  2  0  0  0  0  0  0
  -28.6860  -21.7280   18.8390 C   0  0  0  0  0  2  0  0  0  0  0  0
  -29.0000  -21.8350   20.8270 C   0  0  0  0  0  2  0  0  0  0  0  0
  -28.4680  -16.8520   20.0230 C   0  0  0  0  0  2  0  0  0  0  0  0
  -30.5860  -17.9590   20.3720 C   0  0  0  0  0  2  0  0  0  0  0  0
  -28.9420  -23.0380   19.7410 C   0  0  0  0  0  3  0  0  0  0  0  0
  -28.9440  -20.5070   19.8820 C   0  0  1  0  0  0  0  0  0  0  0  0
  -29.9090  -16.5420   20.2350 N   0  0  0  0  0  0  0  0  0  0  0  0
  -25.2400  -13.8660   20.3800 C   0  0  0  0  0  0  0  0  0  0  0  0
  -24.1740  -13.0960   20.7460 C   0  0  0  0  0  0  0  0  0  0  0  0
  -24.6510  -11.7500   20.7770 C   0  0  0  0  0  0  0  0  0  0  0  0
  -26.2980  -12.9920   20.1920 N   0  0  0  0  0  0  0  0  0  0  0  0
  -25.9520  -11.7170   20.5030 N   0  0  0  0  0  0  0  0  0  0  0  0
  -23.9310  -10.4900   20.9910 C   0  0  0  0  0  0  0  0  0  0  0  0
  -24.3480   -9.5600   21.9660 C   0  0  0  0  0  3  0  0  0  0  0  0
  -23.6290   -8.3620   22.1670 C   0  0  0  0  0  3  0  0  0  0  0  0
  -22.4750   -8.0910   21.3900 C   0  0  0  0  0  0  0  0  0  0  0  0
  -22.0810   -9.0100   20.4010 C   0  0  0  0  0  3  0  0  0  0  0  0
  -22.8040  -10.1960   20.2000 C   0  0  0  0  0  3  0  0  0  0  0  0
  -21.7210   -6.9480   21.5000 O   0  0  0  0  0  0  0  0  0  0  0  0
  -21.6390   -6.2480   22.6770 C   0  0  0  0  0  0  0  0  0  0  0  0
  -21.1570   -6.8390   23.8660 C   0  0  0  0  0  3  0  0  0  0  0  0
  -21.0230   -6.0620   25.0350 C   0  0  0  0  0  3  0  0  0  0  0  0
  -21.3580   -4.6940   25.0170 C   0  0  0  0  0  0  0  0  0  0  0  0
  -21.8330   -4.1030   23.8330 C   0  0  0  0  0  3  0  0  0  0  0  0
  -21.9660   -4.8760   22.6650 C   0  0  0  0  0  0  0  0  0  0  0  0
  -22.4010   -4.2920   21.5230 F   0  0  0  0  0  0  0  0  0  0  0  0
  -21.2240   -3.9480   26.1390 F   0  0  0  0  0  0  0  0  0  0  0  0
  -22.7620  -13.5690   20.9480 C   0  0  0  0  0  0  0  0  0  0  0  0
  -22.0140  -12.9100   21.8260 N   0  0  0  0  0  0  0  0  0  0  0  0
  -22.3260  -14.5590   20.3590 O   0  0  0  0  0  0  0  0  0  0  0  0
  -22.3840  -12.1260   22.3410 H   0  0  0  0  0  0  0  0  0  0  0  0
  -21.0680  -13.2140   22.0070 H   0  0  0  0  0  0  0  0  0  0  0  0
  -25.3920  -15.2300   20.1600 N   0  0  0  0  0  0  0  0  0  0  0  0
  -24.6300  -15.8910   20.2690 H   0  0  0  0  0  0  0  0  0  0  0  0
  -26.2480  -15.6630   19.8440 H   0  0  0  0  0  0  0  0  0  0  0  0
  -27.9760  -24.4870   19.7250 C   0  0  0  0  0  2  0  0  0  0  0  0
  -28.2740  -26.0580   19.7950 O   0  0  0  0  0  0  0  0  0  0  0  0
  -24.6770  -31.7330   23.0760 C   0  0  0  0  0  0  0  0  0  0  0  0
  -27.2300  -27.0870   19.8160 C   0  0  0  0  0  0  0  0  0  0  0  0
  -23.4640  -30.4040   21.3910 C   0  0  0  0  0  3  0  0  0  0  0  0
  -24.9070  -28.8810   19.8950 C   0  0  0  0  0  0  0  0  0  0  0  0
  -26.0250  -30.6570   21.2260 C   0  0  0  0  0  2  0  0  0  0  0  0
  -26.0950  -29.2850   20.5120 C   0  0  0  0  0  0  0  0  0  0  0  0
  -27.2550  -28.4070   20.4530 C   0  0  0  0  0  3  0  0  0  0  0  0
  -26.0060  -26.8100   19.1650 C   0  0  0  0  0  3  0  0  0  0  0  0
  -24.8780  -27.6600   19.2070 C   0  0  0  0  0  3  0  0  0  0  0  0
  -23.6830  -29.7830   19.9860 C   0  0  0  0  0  2  0  0  0  0  0  0
  -24.7420  -30.9530   21.9530 N   0  0  0  0  0  0  0  0  0  0  0  0
  -23.5950  -31.9980   23.6230 O   0  0  0  0  0  0  0  0  0  0  0  0
  -22.7870  -29.3630   22.3190 C   0  0  0  0  0  0  0  0  0  0  0  0
  -21.4520  -29.2220   22.2220 N   0  0  0  0  0  0  0  0  0  0  0  0
  -23.4680  -28.6840   23.0930 O   0  0  0  0  0  0  0  0  0  0  0  0
  -20.9550  -29.8250   21.5820 H   0  0  0  0  0  0  0  0  0  0  0  0
  -18.0630  -28.0660   22.7820 C   0  0  0  0  0  0  0  0  0  0  0  0
  -20.6370  -28.2580   22.9650 C   0  0  0  0  0  3  0  0  0  0  0  0
  -20.6800  -26.8590   22.3050 C   0  0  0  0  0  2  0  0  0  0  0  0
  -19.5350  -26.6240   21.3140 C   0  0  0  0  0  2  0  0  0  0  0  0
  -18.1820  -26.7590   22.0180 C   0  0  0  0  0  2  0  0  0  0  0  0
  -19.2150  -28.7780   23.2140 C   0  0  0  0  0  0  0  0  0  0  0  0
  -19.0460  -30.0040   23.8920 C   0  0  0  0  0  3  0  0  0  0  0  0
  -17.7600  -30.5210   24.1420 C   0  0  0  0  0  3  0  0  0  0  0  0
  -16.6240  -29.8030   23.7250 C   0  0  0  0  0  3  0  0  0  0  0  0
  -16.7770  -28.5790   23.0530 C   0  0  0  0  0  3  0  0  0  0  0  0
  -25.9600  -32.3450   23.7200 C   0  0  0  0  0  3  0  0  0  0  0  0
  -25.6370  -33.7160   24.1480 N   0  0  0  0  0  0  0  0  0  0  0  0
  -25.9330  -34.8250   23.4540 C   0  0  0  0  0  0  0  0  0  0  0  0
  -26.5700  -34.8020   22.3980 O   0  0  0  0  0  0  0  0  0  0  0  0
  -25.0700  -33.8080   24.9770 H   0  0  0  0  0  0  0  0  0  0  0  0
  -24.1760  -36.6210   23.2860 C   0  0  0  0  0  1  0  0  0  0  0  0
  -25.4490  -36.1740   24.0220 C   0  0  0  0  0  3  0  0  0  0  0  0
  -27.6000  -37.0370   24.8370 C   0  0  0  0  0  1  0  0  0  0  0  0
  -26.4650  -37.2470   23.9430 N   0  0  0  0  0  0  0  0  0  0  0  0
  -26.0510  -38.1480   24.1660 H   0  0  0  0  0  0  0  0  0  0  0  0
  -26.5070  -31.5030   24.9380 C   0  0  1  0  0  0  0  0  0  0  0  0
  -25.4410  -31.1960   26.0150 C   0  0  0  0  0  1  0  0  0  0  0  0
  -27.0910  -30.1520   24.4630 C   0  0  0  0  0  1  0  0  0  0  0  0
  -27.6660  -32.2680   25.6240 C   0  0  0  0  0  1  0  0  0  0  0  0
  2  7  1  0
  3  4  1  0
  3  2  1  0
  5  4  1  0
  5 22  1  0
  5  6  1  0
  7  1  1  0
  7  6  1  0
  8  1  2  0
 10  9  1  0
 17 11  1  6
 11 15  1  0
 12 16  1  0
 14 18  1  0
 14  9  1  0
 16 47  1  0
 16 13  1  0
 17 12  1  0
 17 10  1  0
 17 13  1  0
 18  1  1  0
 18 15  1  0
 19 20  2  0
 20 21  1  0
 20 39  1  0
 21 24  1  0
 22 19  1  0
 22 23  1  0
 23 21  2  0
 24 25  1  0
 25 26  2  0
 27 30  1  0
 27 26  1  0
 28 27  2  0
 29 28  1  0
 29 24  2  0
 30 31  1  0
 31 32  1  0
 32 33  2  0
 34 33  1  0
 34 38  1  0
 35 34  2  0
 36 31  2  0
 36 35  1  0
 37 36  1  0
 39 40  1  0
 40 43  1  0
 40 42  1  0
 41 39  2  0
 44 45  1  0
 44 19  1  0
 46 44  1  0
 47 48  1  0
 48 50  1  0
 49 60  2  0
 50 55  1  0
 51 59  1  0
 51 61  1  0
 52 58  1  0
 52 54  1  0
 53 59  1  0
 54 53  1  0
 55 54  2  0
 56 57  1  0
 56 50  2  0
 57 52  2  0
 58 51  1  0
 59 49  1  0
 61 63  2  0
 62 61  1  0
 64 62  1  0
 65 74  2  0
 65 70  1  0
 66 62  1  0
 66 70  1  0
 67 66  1  0
 68 69  1  0
 68 67  1  0
 69 65  1  0
 70 71  2  0
 71 72  1  0
 73 72  2  0
 74 73  1  0
 75 49  1  0
 75 76  1  0
 75 85  1  0
 76 79  1  0
 77 81  1  0
 77 76  1  0
 78 77  2  0
 81 80  1  0
 83 81  1  0
 83 84  1  0
 83 82  1  0
 85 88  1  1
 85 86  1  0
 87 85  1  0
M  ISO  4   1 100  18 100  47 101  48 101
M  END
>  <TORSDO>  (35) 
F 16

>  <SCORE>  (35) 
-15.309

>  <name>  (35) 
35

>  <ligand_id>  (35) 
35

>  <original_smiles>  (35) 
[H]c1c([H])c([H])c2c(c1[H])C([H])([H])C([H])([H])C([H])([H])C2([H])N([H])C(=O)C1([H])N(C(=O)C([H])(N([H])C(=O)C([H])(N([H])C([H])([H])[H])C([H])([H])[H])C(C([H])([H])[H])(C([H])([H])[H])C([H])([H])[H])C([H])([H])c2c([H])c(OC([H])([H])C3([H])C([H])([H])C4(C([H])([H])C([H])([H])N(C(=O)N5C([H])([H])C([H])([H])C([H])([H])C([H])(n6nc(-c7c([H])c([H])c(Oc8c([H])c([H])c(F)c([H])c8F)c([H])c7[H])c(C(=O)N([H])[H])c6N([H])[H])C5([H])[H])C([H])([H])C([H])([H])C4([H])[H])C3([H])[H])c([H])c([H])c2C1([H])[H]

>  <smiles>  (35) 
[H]c1c([H])c([H])c2c(c1[H])C([H])([H])C([H])([H])C([H])([H])C2([H])N([H])C(=O)C1([H])N(C(=O)C([H])(N([H])C(=O)C([H])(N([H])C([H])([H])[H])C([H])([H])[H])C(C([H])([H])[H])(C([H])([H])[H])C([H])([H])[H])C([H])([H])c2c([H])c(OC([H])([H])C3([H])C([H])([H])C4(C([H])([H])C([H])([H])N(C(=O)N5C([H])([H])C([H])([H])C([H])([H])C([H])(n6nc(-c7c([H])c([H])c(Oc8c([H])c([H])c(F)c([H])c8F)c([H])c7[H])c(C(=O)N([H])[H])c6N([H])[H])C5([H])[H])C([H])([H])C([H])([H])C4([H])[H])C3([H])[H])c([H])c([H])c2C1([H])[H]

$$$$
36:0:0
     RDKit          3D

 86 94  0  0  1  0  0  0  0  0999 V2000
  -28.9280  -22.4220   20.4370 C   0  0  0  0  0  3  0  0  0  0  0  0
  -30.3970  -15.6130   20.0550 C   0  0  0  0  0  0  0  0  0  0  0  0
  -30.3460  -13.1130   19.2130 C   0  0  0  0  0  2  0  0  0  0  0  0
  -29.4130  -12.7660   18.0250 C   0  0  0  0  0  2  0  0  0  0  0  0
  -28.0010  -12.4430   18.5290 C   0  0  0  0  0  2  0  0  0  0  0  0
  -27.5450  -13.4400   19.6210 C   0  0  0  0  0  3  0  0  0  0  0  0
  -28.6170  -13.7290   20.6970 C   0  0  0  0  0  2  0  0  0  0  0  0
  -29.7790  -14.3040   19.9890 N   0  0  0  0  0  0  0  0  0  0  0  0
  -31.6150  -15.4720   19.8380 O   0  0  0  0  0  0  0  0  0  0  0  0
  -28.5110  -17.8360   20.4010 C   0  0  0  0  0  2  0  0  0  0  0  0
  -30.5540  -18.3250   19.5020 C   0  0  0  0  0  2  0  0  0  0  0  0
  -28.2930  -19.5360   20.7270 C   0  0  0  0  0  2  0  0  0  0  0  0
  -30.3320  -19.9820   19.8790 C   0  0  0  0  0  2  0  0  0  0  0  0
  -29.8290  -17.0540   20.0570 N   0  0  0  0  0  0  0  0  0  0  0  0
  -28.9680  -20.7400   19.9630 N   0  0  2  0  0  4  0  0  0  0  0  0
  -28.5950  -20.7230   19.0250 H   0  0  0  0  0  0  0  0  0  0  0  0
  -25.2180  -13.9680   20.4890 C   0  0  0  0  0  0  0  0  0  0  0  0
  -24.1710  -13.1820   20.8780 C   0  0  0  0  0  0  0  0  0  0  0  0
  -24.6360  -11.8320   20.8020 C   0  0  0  0  0  0  0  0  0  0  0  0
  -26.2490  -13.0990   20.1870 N   0  0  0  0  0  0  0  0  0  0  0  0
  -25.9160  -11.8060   20.4430 N   0  0  0  0  0  0  0  0  0  0  0  0
  -23.9130  -10.5670   20.9900 C   0  0  0  0  0  0  0  0  0  0  0  0
  -24.3460   -9.5980   21.9220 C   0  0  0  0  0  3  0  0  0  0  0  0
  -23.6190   -8.4010   22.1010 C   0  0  0  0  0  3  0  0  0  0  0  0
  -22.4440   -8.1650   21.3490 C   0  0  0  0  0  0  0  0  0  0  0  0
  -22.0300   -9.1220   20.4060 C   0  0  0  0  0  3  0  0  0  0  0  0
  -22.7580  -10.3100   20.2250 C   0  0  0  0  0  3  0  0  0  0  0  0
  -21.6880   -7.0210   21.4370 O   0  0  0  0  0  0  0  0  0  0  0  0
  -21.6050   -6.3010   22.6030 C   0  0  0  0  0  0  0  0  0  0  0  0
  -21.1020   -6.8690   23.7940 C   0  0  0  0  0  3  0  0  0  0  0  0
  -20.9680   -6.0750   24.9510 C   0  0  0  0  0  3  0  0  0  0  0  0
  -21.3280   -4.7150   24.9160 C   0  0  0  0  0  0  0  0  0  0  0  0
  -21.8230   -4.1460   23.7300 C   0  0  0  0  0  3  0  0  0  0  0  0
  -21.9580   -4.9380   22.5760 C   0  0  0  0  0  0  0  0  0  0  0  0
  -22.4170   -4.3790   21.4300 F   0  0  0  0  0  0  0  0  0  0  0  0
  -21.1910   -3.9490   26.0250 F   0  0  0  0  0  0  0  0  0  0  0  0
  -22.7840  -13.6550   21.2010 C   0  0  0  0  0  0  0  0  0  0  0  0
  -22.0860  -12.9480   22.0810 N   0  0  0  0  0  0  0  0  0  0  0  0
  -22.3330  -14.6880   20.7090 O   0  0  0  0  0  0  0  0  0  0  0  0
  -22.4670  -12.1120   22.4990 H   0  0  0  0  0  0  0  0  0  0  0  0
  -21.1570  -13.2480   22.3420 H   0  0  0  0  0  0  0  0  0  0  0  0
  -25.3760  -15.3420   20.3330 N   0  0  0  0  0  0  0  0  0  0  0  0
  -24.6110  -15.9920   20.4820 H   0  0  0  0  0  0  0  0  0  0  0  0
  -26.2090  -15.7840   19.9680 H   0  0  0  0  0  0  0  0  0  0  0  0
  -28.0550  -24.0330   19.9590 C   0  0  0  0  0  3  0  0  0  0  0  0
  -28.1800  -25.7260   20.2860 O   0  0  0  0  0  0  0  0  0  0  0  0
  -24.6740  -31.8880   23.2420 C   0  0  0  0  0  0  0  0  0  0  0  0
  -27.1960  -26.8980   20.2060 C   0  0  0  0  0  0  0  0  0  0  0  0
  -23.4770  -30.4990   21.6020 C   0  0  0  0  0  3  0  0  0  0  0  0
  -24.9190  -28.8760   20.1690 C   0  0  0  0  0  0  0  0  0  0  0  0
  -26.0500  -30.6680   21.4620 C   0  0  0  0  0  2  0  0  0  0  0  0
  -26.1130  -29.2480   20.7980 C   0  0  0  0  0  0  0  0  0  0  0  0
  -27.2390  -28.2830   20.7890 C   0  0  0  0  0  3  0  0  0  0  0  0
  -25.9730  -26.7190   19.5190 C   0  0  0  0  0  3  0  0  0  0  0  0
  -24.8830  -27.6370   19.5060 C   0  0  0  0  0  3  0  0  0  0  0  0
  -23.7080  -29.8150   20.2250 C   0  0  0  0  0  2  0  0  0  0  0  0
  -24.7570  -31.0490   22.1550 N   0  0  0  0  0  0  0  0  0  0  0  0
  -23.5840  -32.1810   23.7630 O   0  0  0  0  0  0  0  0  0  0  0  0
  -22.7740  -29.5100   22.5700 C   0  0  0  0  0  0  0  0  0  0  0  0
  -21.4440  -29.3430   22.4430 N   0  0  0  0  0  0  0  0  0  0  0  0
  -23.4360  -28.8900   23.4060 O   0  0  0  0  0  0  0  0  0  0  0  0
  -20.9600  -29.8950   21.7470 H   0  0  0  0  0  0  0  0  0  0  0  0
  -18.0650  -28.1090   22.9460 C   0  0  0  0  0  0  0  0  0  0  0  0
  -20.6230  -28.4010   23.2130 C   0  0  0  0  0  3  0  0  0  0  0  0
  -20.7360  -26.9690   22.6400 C   0  0  0  0  0  2  0  0  0  0  0  0
  -19.6390  -26.6360   21.6240 C   0  0  0  0  0  2  0  0  0  0  0  0
  -18.2550  -26.7640   22.2660 C   0  0  0  0  0  2  0  0  0  0  0  0
  -19.1750  -28.8860   23.3760 C   0  0  0  0  0  0  0  0  0  0  0  0
  -18.9390  -30.1400   23.9780 C   0  0  0  0  0  3  0  0  0  0  0  0
  -17.6280  -30.6220   24.1490 C   0  0  0  0  0  3  0  0  0  0  0  0
  -16.5330  -29.8460   23.7320 C   0  0  0  0  0  3  0  0  0  0  0  0
  -16.7530  -28.5910   23.1370 C   0  0  0  0  0  3  0  0  0  0  0  0
  -25.9430  -32.5330   23.8780 C   0  0  0  0  0  3  0  0  0  0  0  0
  -25.6300  -33.9390   24.1990 N   0  0  0  0  0  0  0  0  0  0  0  0
  -25.9440  -34.9920   23.4330 C   0  0  0  0  0  0  0  0  0  0  0  0
  -26.5850  -34.8830   22.3850 O   0  0  0  0  0  0  0  0  0  0  0  0
  -25.0550  -34.0960   25.0140 H   0  0  0  0  0  0  0  0  0  0  0  0
  -24.1960  -36.7850   23.1450 C   0  0  0  0  0  1  0  0  0  0  0  0
  -25.4750  -36.3870   23.9000 C   0  0  0  0  0  3  0  0  0  0  0  0
  -27.6370  -37.3000   24.6290 C   0  0  0  0  0  1  0  0  0  0  0  0
  -26.4980  -37.4430   23.7260 N   0  0  0  0  0  0  0  0  0  0  0  0
  -26.0940  -38.3640   23.8700 H   0  0  0  0  0  0  0  0  0  0  0  0
  -26.4300  -31.7820   25.1810 C   0  0  1  0  0  0  0  0  0  0  0  0
  -25.3170  -31.5720   26.2340 C   0  0  0  0  0  1  0  0  0  0  0  0
  -27.0110  -30.3920   24.8340 C   0  0  0  0  0  1  0  0  0  0  0  0
  -27.5750  -32.5810   25.8470 C   0  0  0  0  0  1  0  0  0  0  0  0
  2 14  1  0
  3  8  1  0
  4  5  1  0
  4  3  1  0
  6  5  1  0
  6 20  1  0
  6  7  1  0
  8  2  1  0
  8  7  1  0
  9  2  2  0
 10 12  1  0
 11 13  1  0
 11 14  1  0
 13 15  1  0
 14 10  1  0
 15  1  1  0
 15 12  1  0
 15 16  1  6
 17 18  2  0
 18 37  1  0
 19 18  1  0
 19 22  1  0
 20 21  1  0
 20 17  1  0
 21 19  2  0
 22 23  1  0
 23 24  2  0
 25 28  1  0
 25 24  1  0
 26 25  2  0
 27 26  1  0
 27 22  2  0
 28 29  1  0
 29 30  1  0
 30 31  2  0
 32 31  1  0
 32 36  1  0
 33 32  2  0
 34 29  2  0
 34 33  1  0
 35 34  1  0
 37 38  1  0
 38 41  1  0
 38 40  1  0
 39 37  2  0
 42 43  1  0
 42 17  1  0
 44 42  1  0
 45 46  1  0
 45  1  2  0
 47 58  2  0
 48 46  1  0
 48 53  1  0
 49 57  1  0
 49 59  1  0
 50 56  1  0
 50 52  1  0
 51 57  1  0
 52 51  1  0
 53 52  2  0
 54 48  2  0
 55 54  1  0
 55 50  2  0
 56 49  1  0
 57 47  1  0
 59 61  2  0
 60 59  1  0
 62 60  1  0
 63 72  2  0
 63 68  1  0
 64 60  1  0
 64 68  1  0
 65 64  1  0
 66 67  1  0
 66 65  1  0
 67 63  1  0
 68 69  2  0
 69 70  1  0
 71 70  2  0
 72 71  1  0
 73 47  1  0
 73 74  1  0
 73 83  1  0
 74 77  1  0
 75 79  1  0
 75 74  1  0
 76 75  2  0
 79 78  1  0
 81 82  1  0
 81 79  1  0
 81 80  1  0
 83 86  1  1
 83 84  1  0
 85 83  1  0
M  ISO  4   2 100  14 100  45 101  46 101
M  END
>  <TORSDO>  (36) 
F 17

>  <SCORE>  (36) 
-16.400

>  <name>  (36) 
36

>  <ligand_id>  (36) 
36

>  <original_smiles>  (36) 
[H]c1c([H])c([H])c2c(c1[H])C([H])([H])C([H])([H])C([H])([H])C2([H])N([H])C(=O)C1([H])N(C(=O)C([H])(N([H])C(=O)C([H])(N([H])C([H])([H])[H])C([H])([H])[H])C(C([H])([H])[H])(C([H])([H])[H])C([H])([H])[H])C([H])([H])c2c([H])c(OC([H])([H])C([H])([H])[N+]3([H])C([H])([H])C([H])([H])N(C(=O)N4C([H])([H])C([H])([H])C([H])([H])C([H])(n5nc(-c6c([H])c([H])c(Oc7c([H])c([H])c(F)c([H])c7F)c([H])c6[H])c(C(=O)N([H])[H])c5N([H])[H])C4([H])[H])C([H])([H])C3([H])[H])c([H])c([H])c2C1([H])[H]

>  <smiles>  (36) 
[H]c1c([H])c([H])c2c(c1[H])C([H])([H])C([H])([H])C([H])([H])C2([H])N([H])C(=O)C1([H])N(C(=O)C([H])(N([H])C(=O)C([H])(N([H])C([H])([H])[H])C([H])([H])[H])C(C([H])([H])[H])(C([H])([H])[H])C([H])([H])[H])C([H])([H])c2c([H])c(OC([H])([H])C([H])([H])[N+]3([H])C([H])([H])C([H])([H])N(C(=O)N4C([H])([H])C([H])([H])C([H])([H])C([H])(n5nc(-c6c([H])c([H])c(Oc7c([H])c([H])c(F)c([H])c7F)c([H])c6[H])c(C(=O)N([H])[H])c5N([H])[H])C4([H])[H])C([H])([H])C3([H])[H])c([H])c([H])c2C1([H])[H]

$$$$
37:0:0
     RDKit          3D

 98105  0  0  1  0  0  0  0  0999 V2000
  -28.9860  -21.8710   20.6680 C   0  0  0  0  0  0  0  0  0  0  0  0
  -29.0820  -20.5330   20.1480 N   0  0  0  0  0  0  0  0  0  0  0  0
  -29.3960  -22.0310   21.8170 O   0  0  0  0  0  0  0  0  0  0  0  0
  -28.6480  -20.4310   19.2350 H   0  0  0  0  0  0  0  0  0  0  0  0
  -28.4160  -23.2800   19.9300 C   0  0  0  0  0  3  0  0  0  0  0  0
  -26.9650  -23.1300   19.3610 C   0  0  0  0  0  2  0  0  0  0  0  0
  -26.5980  -21.9200   18.4750 C   0  0  0  0  0  2  0  0  0  0  0  0
  -24.7990  -20.8080   17.0070 C   0  0  0  0  0  1  0  0  0  0  0  0
  -25.1980  -22.0420   17.8340 C   0  0  0  0  0  2  0  0  0  0  0  0
  -28.3830  -24.8000   20.7190 C   0  0  0  0  0  2  0  0  0  0  0  0
  -28.3600  -26.2890   20.2320 O   0  0  0  0  0  0  0  0  0  0  0  0
  -24.6460  -31.9330   23.2580 C   0  0  0  0  0  0  0  0  0  0  0  0
  -27.2660  -27.2260   20.2790 C   0  0  0  0  0  0  0  0  0  0  0  0
  -23.4590  -30.5310   21.6070 C   0  0  0  0  0  3  0  0  0  0  0  0
  -24.9300  -28.9560   20.2080 C   0  0  0  0  0  0  0  0  0  0  0  0
  -26.0110  -30.8090   21.4620 C   0  0  0  0  0  2  0  0  0  0  0  0
  -26.0980  -29.4120   20.8250 C   0  0  0  0  0  0  0  0  0  0  0  0
  -27.2710  -28.5640   20.8370 C   0  0  0  0  0  3  0  0  0  0  0  0
  -26.0730  -26.8650   19.6220 C   0  0  0  0  0  3  0  0  0  0  0  0
  -24.9350  -27.6990   19.5810 C   0  0  0  0  0  3  0  0  0  0  0  0
  -23.6960  -29.8470   20.2320 C   0  0  0  0  0  2  0  0  0  0  0  0
  -24.7210  -31.1170   22.1610 N   0  0  0  0  0  0  0  0  0  0  0  0
  -23.5560  -32.2090   23.7870 O   0  0  0  0  0  0  0  0  0  0  0  0
  -22.7860  -29.5170   22.5700 C   0  0  0  0  0  0  0  0  0  0  0  0
  -21.4590  -29.3360   22.4370 N   0  0  0  0  0  0  0  0  0  0  0  0
  -23.4610  -28.8960   23.3950 O   0  0  0  0  0  0  0  0  0  0  0  0
  -20.9710  -29.8890   21.7480 H   0  0  0  0  0  0  0  0  0  0  0  0
  -18.0860  -28.1250   22.9360 C   0  0  0  0  0  0  0  0  0  0  0  0
  -20.6430  -28.3960   23.2070 C   0  0  0  0  0  3  0  0  0  0  0  0
  -20.7520  -26.9650   22.6330 C   0  0  0  0  0  2  0  0  0  0  0  0
  -19.6510  -26.6420   21.6130 C   0  0  0  0  0  2  0  0  0  0  0  0
  -18.2680  -26.7800   22.2550 C   0  0  0  0  0  2  0  0  0  0  0  0
  -19.2010  -28.8940   23.3680 C   0  0  0  0  0  0  0  0  0  0  0  0
  -18.9730  -30.1550   23.9580 C   0  0  0  0  0  3  0  0  0  0  0  0
  -17.6650  -30.6440   24.1340 C   0  0  0  0  0  3  0  0  0  0  0  0
  -16.5640  -29.8730   23.7190 C   0  0  0  0  0  3  0  0  0  0  0  0
  -16.7770  -28.6180   23.1200 C   0  0  0  0  0  3  0  0  0  0  0  0
  -25.9190  -32.5780   23.8830 C   0  0  0  0  0  3  0  0  0  0  0  0
  -26.4180  -31.8300   25.1820 C   0  0  1  0  0  0  0  0  0  0  0  0
  -25.3150  -31.6080   26.2470 C   0  0  0  0  0  1  0  0  0  0  0  0
  -27.0100  -30.4410   24.8350 C   0  0  0  0  0  1  0  0  0  0  0  0
  -27.5550  -32.6360   25.8540 C   0  0  0  0  0  1  0  0  0  0  0  0
  -25.6020  -33.9810   24.1970 N   0  0  0  0  0  0  0  0  0  0  0  0
  -25.9390  -35.0330   23.4370 C   0  0  0  0  0  0  0  0  0  0  0  0
  -26.6280  -34.9240   22.4190 O   0  0  0  0  0  0  0  0  0  0  0  0
  -25.0120  -34.1310   25.0010 H   0  0  0  0  0  0  0  0  0  0  0  0
  -24.2210  -36.8290   23.0410 C   0  0  0  0  0  1  0  0  0  0  0  0
  -25.4460  -36.4270   23.8790 C   0  0  0  0  0  3  0  0  0  0  0  0
  -27.5680  -37.3200   24.7380 C   0  0  0  0  0  1  0  0  0  0  0  0
  -26.4790  -37.4820   23.7800 N   0  0  0  0  0  0  0  0  0  0  0  0
  -26.0700  -38.4000   23.9150 H   0  0  0  0  0  0  0  0  0  0  0  0
  -29.7230  -19.1620   20.7040 C   0  0  0  0  0  3  0  0  0  0  0  0
  -31.2790  -19.2130   20.5850 C   0  0  0  0  0  2  0  0  0  0  0  0
  -31.9130  -19.6220   23.0200 C   0  0  0  0  0  1  0  0  0  0  0  0
  -32.1060  -20.0840   21.5610 C   0  0  0  0  0  3  0  0  0  0  0  0
  -33.5400  -20.0330   21.1930 N   0  0  0  0  0  4  0  0  0  0  0  0
  -33.8920  -19.0900   21.1850 H   0  0  0  0  0  0  0  0  0  0  0  0
  -34.0940  -20.5680   21.8390 H   0  0  0  0  0  0  0  0  0  0  0  0
  -33.6910  -20.4270   20.2810 H   0  0  0  0  0  0  0  0  0  0  0  0
  -29.3780  -17.6230   20.0660 C   0  0  0  0  0  2  0  0  0  0  0  0
  -30.5050  -15.0420   20.3050 C   0  0  0  0  0  0  0  0  0  0  0  0
  -30.4420  -12.6900   19.3530 C   0  0  0  0  0  2  0  0  0  0  0  0
  -29.5090  -12.6800   18.1190 C   0  0  0  0  0  2  0  0  0  0  0  0
  -28.0510  -12.4330   18.5530 C   0  0  0  0  0  2  0  0  0  0  0  0
  -27.6390  -13.3390   19.7440 C   0  0  0  0  0  3  0  0  0  0  0  0
  -28.6860  -13.3210   20.8750 C   0  0  0  0  0  2  0  0  0  0  0  0
  -29.9650  -13.7550   20.2900 N   0  0  0  0  0  0  0  0  0  0  0  0
  -31.6560  -15.1710   19.8710 O   0  0  0  0  0  0  0  0  0  0  0  0
  -29.6950  -16.1700   20.6500 N   0  0  0  0  0  0  0  0  0  0  0  0
  -28.9200  -15.8460   21.2110 H   0  0  0  0  0  0  0  0  0  0  0  0
  -25.2530  -13.9020   20.4830 C   0  0  0  0  0  0  0  0  0  0  0  0
  -24.1950  -13.1220   20.8620 C   0  0  0  0  0  0  0  0  0  0  0  0
  -24.6700  -11.7740   20.8330 C   0  0  0  0  0  0  0  0  0  0  0  0
  -26.2990  -13.0310   20.2360 N   0  0  0  0  0  0  0  0  0  0  0  0
  -25.9590  -11.7460   20.5100 N   0  0  0  0  0  0  0  0  0  0  0  0
  -23.9530  -10.5070   21.0320 C   0  0  0  0  0  0  0  0  0  0  0  0
  -24.3960   -9.5380   21.9590 C   0  0  0  0  0  3  0  0  0  0  0  0
  -23.6760   -8.3380   22.1400 C   0  0  0  0  0  3  0  0  0  0  0  0
  -22.4980   -8.0980   21.3930 C   0  0  0  0  0  0  0  0  0  0  0  0
  -22.0730   -9.0560   20.4560 C   0  0  0  0  0  3  0  0  0  0  0  0
  -22.7940  -10.2460   20.2710 C   0  0  0  0  0  3  0  0  0  0  0  0
  -21.7500   -6.9480   21.4850 O   0  0  0  0  0  0  0  0  0  0  0  0
  -21.7130   -6.2000   22.6340 C   0  0  0  0  0  0  0  0  0  0  0  0
  -21.3090   -6.7520   23.8690 C   0  0  0  0  0  3  0  0  0  0  0  0
  -21.2180   -5.9310   25.0100 C   0  0  0  0  0  3  0  0  0  0  0  0
  -21.5260   -4.5610   24.9200 C   0  0  0  0  0  0  0  0  0  0  0  0
  -21.9250   -4.0080   23.6930 C   0  0  0  0  0  3  0  0  0  0  0  0
  -22.0160   -4.8250   22.5510 C   0  0  0  0  0  0  0  0  0  0  0  0
  -22.3810   -4.2830   21.3640 F   0  0  0  0  0  0  0  0  0  0  0  0
  -21.4320   -3.7720   26.0180 F   0  0  0  0  0  0  0  0  0  0  0  0
  -22.7950  -13.5940   21.1360 C   0  0  0  0  0  0  0  0  0  0  0  0
  -22.0730  -12.9090   22.0140 N   0  0  0  0  0  0  0  0  0  0  0  0
  -22.3470  -14.6120   20.6070 O   0  0  0  0  0  0  0  0  0  0  0  0
  -22.4360  -12.0880   22.4750 H   0  0  0  0  0  0  0  0  0  0  0  0
  -21.1350  -13.2140   22.2370 H   0  0  0  0  0  0  0  0  0  0  0  0
  -25.4080  -15.2730   20.2990 N   0  0  0  0  0  0  0  0  0  0  0  0
  -24.6370  -15.9220   20.4120 H   0  0  0  0  0  0  0  0  0  0  0  0
  -26.2430  -15.7120   19.9340 H   0  0  0  0  0  0  0  0  0  0  0  0
  1  3  2  0
  2  1  1  0
  2 52  1  0
  4  2  1  0
  5  6  1  0
  5  1  1  0
  5 10  1  0
  7  6  1  0
  8  9  1  0
  9  7  1  0
 11 13  1  0
 11 10  1  0
 12 23  2  0
 13 18  1  0
 14 22  1  0
 14 24  1  0
 15 21  1  0
 15 17  1  0
 16 22  1  0
 17 18  2  0
 17 16  1  0
 19 13  2  0
 20 19  1  0
 20 15  2  0
 21 14  1  0
 22 12  1  0
 24 26  2  0
 25 24  1  0
 27 25  1  0
 28 37  2  0
 28 33  1  0
 29 25  1  0
 29 33  1  0
 30 29  1  0
 31 32  1  0
 31 30  1  0
 32 28  1  0
 33 34  2  0
 34 35  1  0
 36 35  2  0
 37 36  1  0
 38 12  1  0
 38 43  1  0
 38 39  1  0
 39 42  1  1
 39 40  1  0
 41 39  1  0
 43 46  1  0
 44 48  1  0
 44 43  1  0
 45 44  2  0
 48 47  1  0
 50 48  1  0
 50 51  1  0
 50 49  1  0
 52 60  1  0
 53 52  1  0
 53 55  1  0
 55 54  1  0
 56 55  1  0
 56 58  1  0
 57 56  1  0
 59 56  1  0
 60 69  1  0
 61 69  1  0
 62 67  1  0
 63 64  1  0
 63 62  1  0
 65 64  1  0
 65 74  1  0
 65 66  1  0
 67 61  1  0
 67 66  1  0
 68 61  2  0
 69 70  1  0
 71 72  2  0
 72 91  1  0
 73 72  1  0
 73 76  1  0
 74 71  1  0
 74 75  1  0
 75 73  2  0
 76 77  1  0
 77 78  2  0
 79 82  1  0
 79 78  1  0
 80 79  2  0
 81 80  1  0
 81 76  2  0
 82 83  1  0
 83 84  1  0
 84 85  2  0
 86 85  1  0
 86 90  1  0
 87 86  2  0
 88 83  2  0
 88 87  1  0
 89 88  1  0
 91 92  1  0
 92 95  1  0
 92 94  1  0
 93 91  2  0
 96 97  1  0
 96 71  1  0
 98 96  1  0
M  ISO  4  10 101  11 101  61 100  69 100
M  END
>  <TORSDO>  (37) 
F 26

>  <SCORE>  (37) 
-13.391

>  <name>  (37) 
37

>  <ligand_id>  (37) 
37

>  <original_smiles>  (37) 
[H]c1c([H])c([H])c2c(c1[H])C([H])([H])C([H])([H])C([H])([H])C2([H])N([H])C(=O)C1([H])N(C(=O)C([H])(N([H])C(=O)C([H])(N([H])C([H])([H])[H])C([H])([H])[H])C(C([H])([H])[H])(C([H])([H])[H])C([H])([H])[H])C([H])([H])c2c([H])c(OC([H])([H])C([H])(C(=O)N([H])C([H])(C([H])([H])N([H])C(=O)N3C([H])([H])C([H])([H])C([H])([H])C([H])(n4nc(-c5c([H])c([H])c(Oc6c([H])c([H])c(F)c([H])c6F)c([H])c5[H])c(C(=O)N([H])[H])c4N([H])[H])C3([H])[H])C([H])([H])C([H])(C([H])([H])[H])[N+]([H])([H])[H])C([H])([H])C([H])([H])C([H])([H])C([H])([H])[H])c([H])c([H])c2C1([H])[H]

>  <smiles>  (37) 
[H]c1c([H])c([H])c2c(c1[H])C([H])([H])C([H])([H])C([H])([H])C2([H])N([H])C(=O)C1([H])N(C(=O)C([H])(N([H])C(=O)C([H])(N([H])C([H])([H])[H])C([H])([H])[H])C(C([H])([H])[H])(C([H])([H])[H])C([H])([H])[H])C([H])([H])c2c([H])c(OC([H])([H])C([H])(C(=O)N([H])C([H])(C([H])([H])N([H])C(=O)N3C([H])([H])C([H])([H])C([H])([H])C([H])(n4nc(-c5c([H])c([H])c(Oc6c([H])c([H])c(F)c([H])c6F)c([H])c5[H])c(C(=O)N([H])[H])c4N([H])[H])C3([H])[H])C([H])([H])C([H])(C([H])([H])[H])[N+]([H])([H])[H])C([H])([H])C([H])([H])C([H])([H])C([H])([H])[H])c([H])c([H])c2C1([H])[H]

$$$$
38:0:0
     RDKit          3D

 95103  0  0  1  0  0  0  0  0999 V2000
  -29.4400  -24.4680   22.4120 C   0  0  0  0  0  2  0  0  0  0  0  0
  -30.7940  -23.8560   21.9280 C   0  0  0  0  0  2  0  0  0  0  0  0
  -28.1610  -23.7010   22.0140 C   0  0  0  0  0  2  0  0  0  0  0  0
  -30.7690  -22.8500   20.7330 C   0  0  0  0  0  2  0  0  0  0  0  0
  -28.2890  -23.2770   20.5530 C   0  0  0  0  0  3  0  0  0  0  0  0
  -29.4370  -22.1650   20.6320 N   0  0  1  0  0  4  0  0  0  0  0  0
  -29.2690  -21.8820   21.5800 H   0  0  0  0  0  0  0  0  0  0  0  0
  -28.2040  -24.7070   19.6180 C   0  0  0  0  0  2  0  0  0  0  0  0
  -28.1400  -26.2220   20.0500 O   0  0  0  0  0  0  0  0  0  0  0  0
  -24.5400  -31.8750   23.1150 C   0  0  0  0  0  0  0  0  0  0  0  0
  -27.0520  -27.1740   19.9540 C   0  0  0  0  0  0  0  0  0  0  0  0
  -23.3160  -30.5080   21.4730 C   0  0  0  0  0  3  0  0  0  0  0  0
  -24.7200  -28.9230   20.0060 C   0  0  0  0  0  0  0  0  0  0  0  0
  -25.8730  -30.7470   21.2870 C   0  0  0  0  0  2  0  0  0  0  0  0
  -25.9140  -29.3660   20.5990 C   0  0  0  0  0  0  0  0  0  0  0  0
  -27.0570  -28.4800   20.5810 C   0  0  0  0  0  3  0  0  0  0  0  0
  -25.8490  -26.8380   19.3080 C   0  0  0  0  0  3  0  0  0  0  0  0
  -24.6940  -27.6610   19.3680 C   0  0  0  0  0  3  0  0  0  0  0  0
  -23.5080  -29.8430   20.0780 C   0  0  0  0  0  2  0  0  0  0  0  0
  -24.5950  -31.0690   22.0040 N   0  0  0  0  0  0  0  0  0  0  0  0
  -23.4580  -32.1600   23.6530 O   0  0  0  0  0  0  0  0  0  0  0  0
  -22.6550  -29.4920   22.4370 C   0  0  0  0  0  0  0  0  0  0  0  0
  -21.3200  -29.3250   22.3350 N   0  0  0  0  0  0  0  0  0  0  0  0
  -23.3460  -28.8570   23.2330 O   0  0  0  0  0  0  0  0  0  0  0  0
  -20.8150  -29.8750   21.6620 H   0  0  0  0  0  0  0  0  0  0  0  0
  -17.9400  -28.1160   22.9000 C   0  0  0  0  0  0  0  0  0  0  0  0
  -20.5140  -28.3630   23.1120 C   0  0  0  0  0  3  0  0  0  0  0  0
  -20.5980  -26.9360   22.5150 C   0  0  0  0  0  2  0  0  0  0  0  0
  -19.4670  -26.6340   21.5280 C   0  0  0  0  0  2  0  0  0  0  0  0
  -18.0950  -26.7760   22.1970 C   0  0  0  0  0  2  0  0  0  0  0  0
  -19.0740  -28.8590   23.3160 C   0  0  0  0  0  0  0  0  0  0  0  0
  -18.8730  -30.1150   23.9250 C   0  0  0  0  0  3  0  0  0  0  0  0
  -17.5750  -30.6200   24.1360 C   0  0  0  0  0  3  0  0  0  0  0  0
  -16.4590  -29.8660   23.7490 C   0  0  0  0  0  3  0  0  0  0  0  0
  -16.6390  -28.6220   23.1230 C   0  0  0  0  0  3  0  0  0  0  0  0
  -25.8170  -32.5100   23.7390 C   0  0  0  0  0  3  0  0  0  0  0  0
  -25.5020  -33.9050   24.0930 N   0  0  0  0  0  0  0  0  0  0  0  0
  -25.8420  -34.9830   23.3750 C   0  0  0  0  0  0  0  0  0  0  0  0
  -26.5230  -34.9050   22.3440 O   0  0  0  0  0  0  0  0  0  0  0  0
  -24.8770  -34.0230   24.8750 H   0  0  0  0  0  0  0  0  0  0  0  0
  -24.1310  -36.8020   23.0300 C   0  0  0  0  0  1  0  0  0  0  0  0
  -25.3510  -36.3670   23.8630 C   0  0  0  0  0  3  0  0  0  0  0  0
  -27.4810  -37.1860   24.7820 C   0  0  0  0  0  1  0  0  0  0  0  0
  -26.4060  -37.4070   23.8160 N   0  0  0  0  0  0  0  0  0  0  0  0
  -26.0170  -38.3360   23.9600 H   0  0  0  0  0  0  0  0  0  0  0  0
  -26.3400  -31.7330   25.0090 C   0  0  1  0  0  0  0  0  0  0  0  0
  -25.2590  -31.4740   26.0880 C   0  0  0  0  0  1  0  0  0  0  0  0
  -26.9400  -30.3650   24.6280 C   0  0  0  0  0  1  0  0  0  0  0  0
  -27.4980  -32.5240   25.6660 C   0  0  0  0  0  1  0  0  0  0  0  0
  -29.3820  -20.6590   20.0720 C   0  0  0  0  0  2  0  0  0  0  0  0
  -30.1390  -19.2420   20.6830 C   0  0  0  0  0  3  0  0  0  0  0  0
  -29.9110  -19.0420   22.2280 C   0  0  0  0  0  2  0  0  0  0  0  0
  -30.9530  -18.6120   24.5910 C   0  0  0  0  0  1  0  0  0  0  0  0
  -31.1170  -19.2630   23.1980 C   0  0  0  0  0  3  0  0  0  0  0  0
  -30.9790  -21.6050   24.3880 C   0  0  0  0  0  1  0  0  0  0  0  0
  -31.6490  -20.7120   23.3300 C   0  0  0  0  0  2  0  0  0  0  0  0
  -30.0000  -17.7420   19.8460 C   0  0  0  0  0  2  0  0  0  0  0  0
  -30.6830  -15.0590   19.8390 C   0  0  0  0  0  0  0  0  0  0  0  0
  -30.4990  -12.6860   18.9270 C   0  0  0  0  0  2  0  0  0  0  0  0
  -29.5260  -12.6690   17.7170 C   0  0  0  0  0  2  0  0  0  0  0  0
  -28.0810  -12.4520   18.2020 C   0  0  0  0  0  2  0  0  0  0  0  0
  -27.7300  -13.3590   19.4100 C   0  0  0  0  0  3  0  0  0  0  0  0
  -28.8390  -13.3740   20.4950 C   0  0  0  0  0  2  0  0  0  0  0  0
  -30.0970  -13.7860   19.8570 N   0  0  0  0  0  0  0  0  0  0  0  0
  -31.7700  -15.1490   19.2610 O   0  0  0  0  0  0  0  0  0  0  0  0
  -30.0310  -16.2260   20.3400 N   0  0  0  0  0  0  0  0  0  0  0  0
  -29.2790  -15.9890   20.9720 H   0  0  0  0  0  0  0  0  0  0  0  0
  -25.3650  -13.9090   20.2280 C   0  0  0  0  0  0  0  0  0  0  0  0
  -24.3330  -13.1220   20.6590 C   0  0  0  0  0  0  0  0  0  0  0  0
  -24.8140  -11.7760   20.6270 C   0  0  0  0  0  0  0  0  0  0  0  0
  -26.4110  -13.0450   19.9550 N   0  0  0  0  0  0  0  0  0  0  0  0
  -26.0910  -11.7570   20.2610 N   0  0  0  0  0  0  0  0  0  0  0  0
  -24.1130  -10.5080   20.8780 C   0  0  0  0  0  0  0  0  0  0  0  0
  -24.5400   -9.6140   21.8850 C   0  0  0  0  0  3  0  0  0  0  0  0
  -23.8370   -8.4130   22.1220 C   0  0  0  0  0  3  0  0  0  0  0  0
  -22.6970   -8.0930   21.3500 C   0  0  0  0  0  0  0  0  0  0  0  0
  -22.2920   -8.9730   20.3320 C   0  0  0  0  0  3  0  0  0  0  0  0
  -22.9930  -10.1650   20.0910 C   0  0  0  0  0  3  0  0  0  0  0  0
  -21.9700   -6.9360   21.4880 O   0  0  0  0  0  0  0  0  0  0  0  0
  -21.8010   -6.3330   22.7100 C   0  0  0  0  0  0  0  0  0  0  0  0
  -21.2190   -7.0130   23.8020 C   0  0  0  0  0  3  0  0  0  0  0  0
  -21.0000   -6.3360   25.0190 C   0  0  0  0  0  3  0  0  0  0  0  0
  -21.3550   -4.9790   25.1440 C   0  0  0  0  0  0  0  0  0  0  0  0
  -21.9340   -4.2990   24.0590 C   0  0  0  0  0  3  0  0  0  0  0  0
  -22.1550   -4.9740   22.8450 C   0  0  0  0  0  0  0  0  0  0  0  0
  -22.6900   -4.3090   21.7940 F   0  0  0  0  0  0  0  0  0  0  0  0
  -21.1410   -4.3260   26.3110 F   0  0  0  0  0  0  0  0  0  0  0  0
  -22.9440  -13.5810   21.0010 C   0  0  0  0  0  0  0  0  0  0  0  0
  -22.2790  -12.8980   21.9290 N   0  0  0  0  0  0  0  0  0  0  0  0
  -22.4540  -14.5770   20.4710 O   0  0  0  0  0  0  0  0  0  0  0  0
  -22.6910  -12.0910   22.3780 H   0  0  0  0  0  0  0  0  0  0  0  0
  -21.3470  -13.1930   22.1980 H   0  0  0  0  0  0  0  0  0  0  0  0
  -25.4920  -15.2770   20.0190 N   0  0  0  0  0  0  0  0  0  0  0  0
  -24.7100  -15.9160   20.1400 H   0  0  0  0  0  0  0  0  0  0  0  0
  -26.3240  -15.7330   19.6640 H   0  0  0  0  0  0  0  0  0  0  0  0
  2  1  1  0
  3  1  1  0
  4  2  1  0
  5  8  1  0
  5  6  1  0
  5  3  1  0
  6  4  1  0
  6  7  1  1
  8  9  1  0
 10 21  2  0
 11  9  1  0
 11 16  1  0
 12 20  1  0
 12 22  1  0
 13 19  1  0
 13 15  1  0
 14 20  1  0
 15 14  1  0
 16 15  2  0
 17 18  1  0
 17 11  2  0
 18 13  2  0
 19 12  1  0
 20 10  1  0
 22 24  2  0
 23 22  1  0
 25 23  1  0
 26 35  2  0
 26 31  1  0
 27 23  1  0
 27 31  1  0
 28 27  1  0
 29 30  1  0
 29 28  1  0
 30 26  1  0
 31 32  2  0
 32 33  1  0
 34 33  2  0
 35 34  1  0
 36 10  1  0
 36 37  1  0
 36 46  1  0
 37 40  1  0
 38 42  1  0
 38 37  1  0
 39 38  2  0
 42 41  1  0
 44 42  1  0
 44 45  1  0
 44 43  1  0
 46 49  1  1
 46 47  1  0
 48 46  1  0
 50  6  1  0
 50 51  1  0
 51 57  1  0
 51 52  1  0
 52 54  1  0
 54 56  1  0
 54 53  1  0
 56 55  1  0
 57 66  1  0
 58 64  1  0
 58 66  1  0
 59 64  1  0
 60 61  1  0
 60 59  1  0
 62 61  1  0
 62 71  1  0
 62 63  1  0
 64 63  1  0
 65 58  2  0
 66 67  1  0
 68 69  2  0
 69 88  1  0
 70 69  1  0
 70 73  1  0
 71 68  1  0
 71 72  1  0
 72 70  2  0
 73 74  1  0
 74 75  2  0
 76 79  1  0
 76 75  1  0
 77 76  2  0
 78 77  1  0
 78 73  2  0
 79 80  1  0
 80 85  2  0
 80 81  1  0
 81 82  2  0
 82 83  1  0
 83 87  1  0
 84 83  2  0
 85 84  1  0
 86 85  1  0
 88 89  1  0
 89 92  1  0
 89 91  1  0
 90 88  2  0
 93 94  1  0
 93 68  1  0
 95 93  1  0
M  ISO  4   8 101   9 101  58 100  66 100
M  END
>  <TORSDO>  (38) 
F 23

>  <SCORE>  (38) 
-12.277

>  <name>  (38) 
38

>  <ligand_id>  (38) 
38

>  <original_smiles>  (38) 
[H]c1c([H])c([H])c2c(c1[H])C([H])([H])C([H])([H])C([H])([H])C2([H])N([H])C(=O)C1([H])N(C(=O)C([H])(N([H])C(=O)C([H])(N([H])C([H])([H])[H])C([H])([H])[H])C(C([H])([H])[H])(C([H])([H])[H])C([H])([H])[H])C([H])([H])c2c([H])c(OC([H])([H])C3([H])C([H])([H])C([H])([H])C([H])([H])C([H])([H])[N+]3([H])C([H])([H])C([H])(C([H])([H])N([H])C(=O)N3C([H])([H])C([H])([H])C([H])([H])C([H])(n4nc(-c5c([H])c([H])c(Oc6c([H])c([H])c(F)c([H])c6F)c([H])c5[H])c(C(=O)N([H])[H])c4N([H])[H])C3([H])[H])C([H])([H])C([H])(C([H])([H])[H])C([H])([H])C([H])([H])[H])c([H])c([H])c2C1([H])[H]

>  <smiles>  (38) 
[H]c1c([H])c([H])c2c(c1[H])C([H])([H])C([H])([H])C([H])([H])C2([H])N([H])C(=O)C1([H])N(C(=O)C([H])(N([H])C(=O)C([H])(N([H])C([H])([H])[H])C([H])([H])[H])C(C([H])([H])[H])(C([H])([H])[H])C([H])([H])[H])C([H])([H])c2c([H])c(OC([H])([H])C3([H])C([H])([H])C([H])([H])C([H])([H])C([H])([H])[N+]3([H])C([H])([H])C([H])(C([H])([H])N([H])C(=O)N3C([H])([H])C([H])([H])C([H])([H])C([H])(n4nc(-c5c([H])c([H])c(Oc6c([H])c([H])c(F)c([H])c6F)c([H])c5[H])c(C(=O)N([H])[H])c4N([H])[H])C3([H])[H])C([H])([H])C([H])(C([H])([H])[H])C([H])([H])C([H])([H])[H])c([H])c([H])c2C1([H])[H]

$$$$
39:0:0
     RDKit          3D

 91 99  0  0  1  0  0  0  0  0999 V2000
  -29.2040  -22.6040   21.7410 C   0  0  0  0  0  2  0  0  0  0  0  0
  -30.4050  -22.2950   19.7200 C   0  0  0  0  0  2  0  0  0  0  0  0
  -28.8600  -21.0930   21.7960 C   0  0  0  0  0  2  0  0  0  0  0  0
  -30.0810  -20.7750   19.7210 C   0  0  0  0  0  2  0  0  0  0  0  0
  -29.3200  -23.0660   20.3490 N   0  0  0  0  0  0  0  0  0  0  0  0
  -29.8930  -20.2740   21.1080 N   0  0  2  0  0  4  0  0  0  0  0  0
  -30.7540  -20.4580   21.5990 H   0  0  0  0  0  0  0  0  0  0  0  0
  -29.5750  -24.5220   20.2720 C   0  0  0  0  0  2  0  0  0  0  0  0
  -28.2720  -25.3470   20.4320 C   0  0  0  0  0  2  0  0  0  0  0  0
  -28.4380  -26.7630   20.2010 O   0  0  0  0  0  0  0  0  0  0  0  0
  -24.6480  -31.9690   23.2940 C   0  0  0  0  0  0  0  0  0  0  0  0
  -27.2740  -27.5140   20.1950 C   0  0  0  0  0  0  0  0  0  0  0  0
  -23.4350  -30.5710   21.6580 C   0  0  0  0  0  3  0  0  0  0  0  0
  -24.8820  -29.0400   20.2230 C   0  0  0  0  0  0  0  0  0  0  0  0
  -25.9630  -30.9260   21.4490 C   0  0  0  0  0  2  0  0  0  0  0  0
  -26.0460  -29.5560   20.8040 C   0  0  0  0  0  0  0  0  0  0  0  0
  -27.2470  -28.8040   20.7830 C   0  0  0  0  0  3  0  0  0  0  0  0
  -26.0880  -27.0280   19.5960 C   0  0  0  0  0  3  0  0  0  0  0  0
  -24.9000  -27.7770   19.6150 C   0  0  0  0  0  3  0  0  0  0  0  0
  -23.6380  -29.8970   20.2760 C   0  0  0  0  0  2  0  0  0  0  0  0
  -24.7010  -31.1700   22.1910 N   0  0  0  0  0  0  0  0  0  0  0  0
  -23.5700  -32.2400   23.8400 O   0  0  0  0  0  0  0  0  0  0  0  0
  -22.7900  -29.5460   22.6180 C   0  0  0  0  0  0  0  0  0  0  0  0
  -21.4680  -29.3460   22.4820 N   0  0  0  0  0  0  0  0  0  0  0  0
  -23.4750  -28.9330   23.4410 O   0  0  0  0  0  0  0  0  0  0  0  0
  -20.9760  -29.8920   21.7880 H   0  0  0  0  0  0  0  0  0  0  0  0
  -18.1080  -28.1020   22.9510 C   0  0  0  0  0  0  0  0  0  0  0  0
  -20.6580  -28.4030   23.2520 C   0  0  0  0  0  3  0  0  0  0  0  0
  -20.7890  -26.9680   22.6920 C   0  0  0  0  0  2  0  0  0  0  0  0
  -19.7060  -26.6170   21.6680 C   0  0  0  0  0  2  0  0  0  0  0  0
  -18.3130  -26.7490   22.2920 C   0  0  0  0  0  2  0  0  0  0  0  0
  -19.2090  -28.8860   23.3860 C   0  0  0  0  0  0  0  0  0  0  0  0
  -18.9630  -30.1520   23.9610 C   0  0  0  0  0  3  0  0  0  0  0  0
  -17.6490  -30.6370   24.1030 C   0  0  0  0  0  3  0  0  0  0  0  0
  -16.5630  -29.8490   23.6840 C   0  0  0  0  0  3  0  0  0  0  0  0
  -16.7920  -28.5850   23.1150 C   0  0  0  0  0  3  0  0  0  0  0  0
  -25.9360  -32.6020   23.9060 C   0  0  0  0  0  3  0  0  0  0  0  0
  -25.6340  -34.0040   24.2220 N   0  0  0  0  0  0  0  0  0  0  0  0
  -25.9810  -35.0470   23.4550 C   0  0  0  0  0  0  0  0  0  0  0  0
  -26.6590  -34.9280   22.4310 O   0  0  0  0  0  0  0  0  0  0  0  0
  -25.0330  -34.1710   25.0140 H   0  0  0  0  0  0  0  0  0  0  0  0
  -24.2730  -36.8490   23.0560 C   0  0  0  0  0  1  0  0  0  0  0  0
  -25.4970  -36.4420   23.8920 C   0  0  0  0  0  3  0  0  0  0  0  0
  -27.6250  -37.3140   24.7540 C   0  0  0  0  0  1  0  0  0  0  0  0
  -26.5400  -37.4850   23.7900 N   0  0  0  0  0  0  0  0  0  0  0  0
  -26.1400  -38.4110   23.9240 H   0  0  0  0  0  0  0  0  0  0  0  0
  -26.4520  -31.8420   25.1900 C   0  0  1  0  0  0  0  0  0  0  0  0
  -25.3590  -31.6130   26.2590 C   0  0  0  0  0  1  0  0  0  0  0  0
  -27.0350  -30.4600   24.8080 C   0  0  0  0  0  1  0  0  0  0  0  0
  -27.6050  -32.6400   25.8440 C   0  0  0  0  0  1  0  0  0  0  0  0
  -29.6400  -18.8020   21.2220 C   0  0  0  0  0  2  0  0  0  0  0  0
  -30.8690  -17.9160   20.8750 C   0  0  0  0  0  2  0  0  0  0  0  0
  -30.9860  -16.5780   21.6620 C   0  0  0  0  0  2  0  0  0  0  0  0
  -30.7820  -14.5110   20.2620 C   0  0  0  0  0  0  0  0  0  0  0  0
  -30.3970  -12.4000   19.0340 C   0  0  0  0  0  2  0  0  0  0  0  0
  -29.4170  -12.6170   17.8650 C   0  0  0  0  0  2  0  0  0  0  0  0
  -27.9600  -12.4750   18.3420 C   0  0  0  0  0  2  0  0  0  0  0  0
  -27.6670  -13.3050   19.6190 C   0  0  0  0  0  3  0  0  0  0  0  0
  -28.7520  -13.0680   20.6930 C   0  0  0  0  0  2  0  0  0  0  0  0
  -30.0630  -13.3690   20.0920 N   0  0  0  0  0  0  0  0  0  0  0  0
  -31.8440  -14.7280   19.6730 O   0  0  0  0  0  0  0  0  0  0  0  0
  -30.2630  -15.4210   21.1070 N   0  0  0  0  0  0  0  0  0  0  0  0
  -29.3790  -15.1790   21.5300 H   0  0  0  0  0  0  0  0  0  0  0  0
  -25.2900  -13.9170   20.3940 C   0  0  0  0  0  0  0  0  0  0  0  0
  -24.2310  -13.1470   20.7920 C   0  0  0  0  0  0  0  0  0  0  0  0
  -24.6880  -11.7950   20.7480 C   0  0  0  0  0  0  0  0  0  0  0  0
  -26.3260  -13.0350   20.1340 N   0  0  0  0  0  0  0  0  0  0  0  0
  -25.9680  -11.7520   20.4040 N   0  0  0  0  0  0  0  0  0  0  0  0
  -23.9650  -10.5330   20.9560 C   0  0  0  0  0  0  0  0  0  0  0  0
  -24.4130   -9.5700   21.8870 C   0  0  0  0  0  3  0  0  0  0  0  0
  -23.6910   -8.3730   22.0820 C   0  0  0  0  0  3  0  0  0  0  0  0
  -22.5060   -8.1310   21.3480 C   0  0  0  0  0  0  0  0  0  0  0  0
  -22.0760   -9.0830   20.4070 C   0  0  0  0  0  3  0  0  0  0  0  0
  -22.8000  -10.2710   20.2090 C   0  0  0  0  0  3  0  0  0  0  0  0
  -21.7530   -6.9860   21.4540 O   0  0  0  0  0  0  0  0  0  0  0  0
  -21.7140   -6.2550   22.6130 C   0  0  0  0  0  0  0  0  0  0  0  0
  -21.2930   -6.8210   23.8370 C   0  0  0  0  0  3  0  0  0  0  0  0
  -21.2010   -6.0160   24.9900 C   0  0  0  0  0  3  0  0  0  0  0  0
  -21.5210   -4.6470   24.9210 C   0  0  0  0  0  0  0  0  0  0  0  0
  -21.9360   -4.0800   23.7030 C   0  0  0  0  0  3  0  0  0  0  0  0
  -22.0290   -4.8830   22.5520 C   0  0  0  0  0  0  0  0  0  0  0  0
  -22.4090   -4.3290   21.3750 F   0  0  0  0  0  0  0  0  0  0  0  0
  -21.4260   -3.8710   26.0260 F   0  0  0  0  0  0  0  0  0  0  0  0
  -22.8420  -13.6270   21.1060 C   0  0  0  0  0  0  0  0  0  0  0  0
  -22.1380  -12.9300   21.9910 N   0  0  0  0  0  0  0  0  0  0  0  0
  -22.3920  -14.6540   20.6010 O   0  0  0  0  0  0  0  0  0  0  0  0
  -22.5160  -12.0970   22.4200 H   0  0  0  0  0  0  0  0  0  0  0  0
  -21.2080  -13.2310   22.2440 H   0  0  0  0  0  0  0  0  0  0  0  0
  -25.4550  -15.2880   20.2140 N   0  0  0  0  0  0  0  0  0  0  0  0
  -24.6950  -15.9480   20.3420 H   0  0  0  0  0  0  0  0  0  0  0  0
  -26.3010  -15.7200   19.8650 H   0  0  0  0  0  0  0  0  0  0  0  0
  1  3  1  0
  2  4  1  0
  2  5  1  0
  4  6  1  0
  5  1  1  0
  6 51  1  0
  6  7  1  1
  6  3  1  0
  8  5  1  0
  8  9  1  0
 10  9  1  0
 11 22  2  0
 12 10  1  0
 12 17  1  0
 13 21  1  0
 13 23  1  0
 14 20  1  0
 14 16  1  0
 15 21  1  0
 16 15  1  0
 17 16  2  0
 18 19  1  0
 18 12  2  0
 19 14  2  0
 20 13  1  0
 21 11  1  0
 23 25  2  0
 24 23  1  0
 26 24  1  0
 27 36  2  0
 27 32  1  0
 28 24  1  0
 28 32  1  0
 29 28  1  0
 30 31  1  0
 30 29  1  0
 31 27  1  0
 32 33  2  0
 33 34  1  0
 35 34  2  0
 36 35  1  0
 37 11  1  0
 37 38  1  0
 37 47  1  0
 38 41  1  0
 39 43  1  0
 39 38  1  0
 40 39  2  0
 43 42  1  0
 45 43  1  0
 45 46  1  0
 45 44  1  0
 47 50  1  1
 47 48  1  0
 49 47  1  0
 52 51  1  0
 52 53  1  0
 54 62  1  0
 55 60  1  0
 56 57  1  0
 56 55  1  0
 58 57  1  0
 58 67  1  0
 58 59  1  0
 60 54  1  0
 60 59  1  0
 61 54  2  0
 62 63  1  0
 62 53  1  0
 64 65  2  0
 65 84  1  0
 66 65  1  0
 66 69  1  0
 67 64  1  0
 67 68  1  0
 68 66  2  0
 69 70  1  0
 70 71  2  0
 72 75  1  0
 72 71  1  0
 73 72  2  0
 74 73  1  0
 74 69  2  0
 75 76  1  0
 76 77  1  0
 77 78  2  0
 79 78  1  0
 79 83  1  0
 80 79  2  0
 81 76  2  0
 81 80  1  0
 82 81  1  0
 84 85  1  0
 85 88  1  0
 85 87  1  0
 86 84  2  0
 89 90  1  0
 89 64  1  0
 91 89  1  0
M  ISO  4   9 101  10 101  54 100  62 100
M  END
>  <TORSDO>  (39) 
F 21

>  <SCORE>  (39) 
-13.202

>  <name>  (39) 
39

>  <ligand_id>  (39) 
39

>  <original_smiles>  (39) 
[H]c1c([H])c([H])c2c(c1[H])C([H])([H])C([H])([H])C([H])([H])C2([H])N([H])C(=O)C1([H])N(C(=O)C([H])(N([H])C(=O)C([H])(N([H])C([H])([H])[H])C([H])([H])[H])C(C([H])([H])[H])(C([H])([H])[H])C([H])([H])[H])C([H])([H])c2c([H])c(OC([H])([H])C([H])([H])N3C([H])([H])C([H])([H])[N+]([H])(C([H])([H])C([H])([H])C([H])([H])N([H])C(=O)N4C([H])([H])C([H])([H])C([H])([H])C([H])(n5nc(-c6c([H])c([H])c(Oc7c([H])c([H])c(F)c([H])c7F)c([H])c6[H])c(C(=O)N([H])[H])c5N([H])[H])C4([H])[H])C([H])([H])C3([H])[H])c([H])c([H])c2C1([H])[H]

>  <smiles>  (39) 
[H]c1c([H])c([H])c2c(c1[H])C([H])([H])C([H])([H])C([H])([H])C2([H])N([H])C(=O)C1([H])N(C(=O)C([H])(N([H])C(=O)C([H])(N([H])C([H])([H])[H])C([H])([H])[H])C(C([H])([H])[H])(C([H])([H])[H])C([H])([H])[H])C([H])([H])c2c([H])c(OC([H])([H])C([H])([H])N3C([H])([H])C([H])([H])[N+]([H])(C([H])([H])C([H])([H])C([H])([H])N([H])C(=O)N4C([H])([H])C([H])([H])C([H])([H])C([H])(n5nc(-c6c([H])c([H])c(Oc7c([H])c([H])c(F)c([H])c7F)c([H])c6[H])c(C(=O)N([H])[H])c5N([H])[H])C4([H])[H])C([H])([H])C3([H])[H])c([H])c([H])c2C1([H])[H]

$$$$
40:0:0
     RDKit          3D

 94101  0  0  1  0  0  0  0  0999 V2000
  -29.1630  -22.0100   20.1560 N   0  0  0  0  0  0  0  0  0  0  0  0
  -29.0530  -20.5680   20.7900 C   0  0  0  0  0  2  0  0  0  0  0  0
  -29.1710  -19.0290   20.0600 C   0  0  0  0  0  3  0  0  0  0  0  0
  -27.8440  -18.6750   19.5340 N   0  0  0  0  0  4  0  0  0  0  0  0
  -27.1800  -18.5460   20.2770 H   0  0  0  0  0  0  0  0  0  0  0  0
  -27.8930  -17.8420   18.9770 H   0  0  0  0  0  0  0  0  0  0  0  0
  -27.5130  -19.4190   18.9450 H   0  0  0  0  0  0  0  0  0  0  0  0
  -29.8860  -17.6650   20.7780 C   0  0  0  0  0  2  0  0  0  0  0  0
  -30.4570  -14.9770   20.3070 C   0  0  0  0  0  0  0  0  0  0  0  0
  -30.3750  -12.6350   19.3220 C   0  0  0  0  0  2  0  0  0  0  0  0
  -29.4180  -12.5690   18.1070 C   0  0  0  0  0  2  0  0  0  0  0  0
  -27.9560  -12.3740   18.5510 C   0  0  0  0  0  2  0  0  0  0  0  0
  -27.5660  -13.2830   19.7470 C   0  0  0  0  0  3  0  0  0  0  0  0
  -28.6360  -13.2680   20.8570 C   0  0  0  0  0  2  0  0  0  0  0  0
  -29.8870  -13.7100   20.2310 N   0  0  0  0  0  0  0  0  0  0  0  0
  -31.6670  -15.0700   20.0710 O   0  0  0  0  0  0  0  0  0  0  0  0
  -29.6300  -16.1300   20.4520 N   0  0  0  0  0  0  0  0  0  0  0  0
  -28.6610  -15.8660   20.5410 H   0  0  0  0  0  0  0  0  0  0  0  0
  -25.1890  -13.8510   20.5060 C   0  0  0  0  0  0  0  0  0  0  0  0
  -24.1350  -13.0720   20.8860 C   0  0  0  0  0  0  0  0  0  0  0  0
  -24.6060  -11.7230   20.8510 C   0  0  0  0  0  0  0  0  0  0  0  0
  -26.2350  -12.9800   20.2560 N   0  0  0  0  0  0  0  0  0  0  0  0
  -25.8950  -11.6950   20.5310 N   0  0  0  0  0  0  0  0  0  0  0  0
  -23.8880  -10.4580   21.0420 C   0  0  0  0  0  0  0  0  0  0  0  0
  -24.3320   -9.4890   21.9680 C   0  0  0  0  0  3  0  0  0  0  0  0
  -23.6110   -8.2890   22.1500 C   0  0  0  0  0  3  0  0  0  0  0  0
  -22.4330   -8.0490   21.4020 C   0  0  0  0  0  0  0  0  0  0  0  0
  -22.0090   -9.0070   20.4640 C   0  0  0  0  0  3  0  0  0  0  0  0
  -22.7290  -10.1990   20.2800 C   0  0  0  0  0  3  0  0  0  0  0  0
  -21.6840   -6.9010   21.4920 O   0  0  0  0  0  0  0  0  0  0  0  0
  -21.6560   -6.1500   22.6390 C   0  0  0  0  0  0  0  0  0  0  0  0
  -21.2480   -6.6950   23.8760 C   0  0  0  0  0  3  0  0  0  0  0  0
  -21.1680   -5.8710   25.0170 C   0  0  0  0  0  3  0  0  0  0  0  0
  -21.4810   -4.5020   24.9200 C   0  0  0  0  0  0  0  0  0  0  0  0
  -21.8810   -3.9550   23.6870 C   0  0  0  0  0  3  0  0  0  0  0  0
  -21.9650   -4.7770   22.5500 C   0  0  0  0  0  0  0  0  0  0  0  0
  -22.3310   -4.2410   21.3610 F   0  0  0  0  0  0  0  0  0  0  0  0
  -21.3960   -3.7080   26.0120 F   0  0  0  0  0  0  0  0  0  0  0  0
  -22.7350  -13.5400   21.1590 C   0  0  0  0  0  0  0  0  0  0  0  0
  -22.0150  -12.8420   22.0270 N   0  0  0  0  0  0  0  0  0  0  0  0
  -22.2920  -14.5650   20.6400 O   0  0  0  0  0  0  0  0  0  0  0  0
  -22.3900  -12.0140   22.4690 H   0  0  0  0  0  0  0  0  0  0  0  0
  -21.0740  -13.1330   22.2510 H   0  0  0  0  0  0  0  0  0  0  0  0
  -25.3350  -15.2220   20.3180 N   0  0  0  0  0  0  0  0  0  0  0  0
  -24.5290  -15.8340   20.3960 H   0  0  0  0  0  0  0  0  0  0  0  0
  -26.0820  -15.6220   19.7700 H   0  0  0  0  0  0  0  0  0  0  0  0
  -28.1520  -23.2220   20.1730 C   0  0  0  0  0  2  0  0  0  0  0  0
  -28.3930  -24.7960   20.7680 C   0  0  0  0  0  2  0  0  0  0  0  0
  -28.3160  -26.2300   20.1520 O   0  0  0  0  0  0  0  0  0  0  0  0
  -24.6400  -31.8840   23.2220 C   0  0  0  0  0  0  0  0  0  0  0  0
  -27.2160  -27.1570   20.2240 C   0  0  0  0  0  0  0  0  0  0  0  0
  -23.4340  -30.4780   21.5910 C   0  0  0  0  0  3  0  0  0  0  0  0
  -24.8790  -28.8890   20.1800 C   0  0  0  0  0  0  0  0  0  0  0  0
  -25.9820  -30.7530   21.4090 C   0  0  0  0  0  2  0  0  0  0  0  0
  -26.0590  -29.3500   20.7780 C   0  0  0  0  0  0  0  0  0  0  0  0
  -27.2310  -28.5030   20.7740 C   0  0  0  0  0  3  0  0  0  0  0  0
  -26.0090  -26.7870   19.6000 C   0  0  0  0  0  3  0  0  0  0  0  0
  -24.8670  -27.6200   19.5740 C   0  0  0  0  0  3  0  0  0  0  0  0
  -23.6500  -29.7850   20.2190 C   0  0  0  0  0  2  0  0  0  0  0  0
  -24.7050  -31.0610   22.1300 N   0  0  0  0  0  0  0  0  0  0  0  0
  -23.5560  -32.1690   23.7530 O   0  0  0  0  0  0  0  0  0  0  0  0
  -22.7590  -29.4790   22.5620 C   0  0  0  0  0  0  0  0  0  0  0  0
  -21.4300  -29.3090   22.4410 N   0  0  0  0  0  0  0  0  0  0  0  0
  -23.4320  -28.8550   23.3860 O   0  0  0  0  0  0  0  0  0  0  0  0
  -20.9400  -29.8650   21.7530 H   0  0  0  0  0  0  0  0  0  0  0  0
  -18.0500  -28.1120   22.9610 C   0  0  0  0  0  0  0  0  0  0  0  0
  -20.6100  -28.3760   23.2180 C   0  0  0  0  0  3  0  0  0  0  0  0
  -20.7100  -26.9410   22.6490 C   0  0  0  0  0  2  0  0  0  0  0  0
  -19.6050  -26.6130   21.6400 C   0  0  0  0  0  2  0  0  0  0  0  0
  -18.2250  -26.7610   22.2880 C   0  0  0  0  0  2  0  0  0  0  0  0
  -19.1700  -28.8760   23.3830 C   0  0  0  0  0  0  0  0  0  0  0  0
  -18.9520  -30.1390   23.9730 C   0  0  0  0  0  3  0  0  0  0  0  0
  -17.6480  -30.6400   24.1450 C   0  0  0  0  0  3  0  0  0  0  0  0
  -16.5430  -29.8720   23.7380 C   0  0  0  0  0  3  0  0  0  0  0  0
  -16.7450  -28.6110   23.1530 C   0  0  0  0  0  3  0  0  0  0  0  0
  -25.9200  -32.5210   23.8430 C   0  0  0  0  0  3  0  0  0  0  0  0
  -26.4360  -31.7550   25.1230 C   0  0  1  0  0  0  0  0  0  0  0  0
  -25.3420  -31.5270   26.1930 C   0  0  0  0  0  1  0  0  0  0  0  0
  -27.0170  -30.3740   24.7410 C   0  0  0  0  0  1  0  0  0  0  0  0
  -27.5850  -32.5530   25.7850 C   0  0  0  0  0  1  0  0  0  0  0  0
  -25.6060  -33.9200   24.1760 N   0  0  0  0  0  0  0  0  0  0  0  0
  -25.9320  -34.9780   23.4200 C   0  0  0  0  0  0  0  0  0  0  0  0
  -26.5940  -34.8780   22.3840 O   0  0  0  0  0  0  0  0  0  0  0  0
  -25.0180  -34.0710   24.9830 H   0  0  0  0  0  0  0  0  0  0  0  0
  -24.1990  -36.7750   23.0920 C   0  0  0  0  0  1  0  0  0  0  0  0
  -25.4470  -36.3650   23.8880 C   0  0  0  0  0  3  0  0  0  0  0  0
  -27.5900  -37.2510   24.7000 C   0  0  0  0  0  1  0  0  0  0  0  0
  -26.4780  -37.4190   23.7680 N   0  0  0  0  0  0  0  0  0  0  0  0
  -26.0720  -38.3380   23.9240 H   0  0  0  0  0  0  0  0  0  0  0  0
  -29.9290  -22.0120   18.9060 C   0  0  0  0  0  2  0  0  0  0  0  0
  -31.3880  -21.5310   19.0650 C   0  0  0  0  0  2  0  0  0  0  0  0
  -32.0200  -21.2090   17.6990 C   0  0  0  0  0  2  0  0  0  0  0  0
  -34.0530  -20.3340   16.4260 C   0  0  0  0  0  1  0  0  0  0  0  0
  -33.4740  -20.7160   17.7950 C   0  0  0  0  0  2  0  0  0  0  0  0
  1 47  1  0
  1  2  1  0
  3  8  1  0
  3  2  1  0
  4  3  1  0
  4  5  1  0
  6  4  1  0
  7  4  1  0
  9 17  1  0
 10 15  1  0
 11 12  1  0
 11 10  1  0
 13 12  1  0
 13 22  1  0
 13 14  1  0
 15  9  1  0
 15 14  1  0
 16  9  2  0
 17 18  1  0
 17  8  1  0
 19 20  2  0
 20 39  1  0
 21 20  1  0
 21 24  1  0
 22 19  1  0
 22 23  1  0
 23 21  2  0
 24 25  1  0
 25 26  2  0
 27 30  1  0
 27 26  1  0
 28 27  2  0
 29 28  1  0
 29 24  2  0
 30 31  1  0
 31 32  1  0
 32 33  2  0
 34 33  1  0
 34 38  1  0
 35 34  2  0
 36 31  2  0
 36 35  1  0
 37 36  1  0
 39 40  1  0
 40 43  1  0
 40 42  1  0
 41 39  2  0
 44 45  1  0
 44 19  1  0
 46 44  1  0
 47 48  1  0
 49 51  1  0
 49 48  1  0
 50 61  2  0
 51 56  1  0
 52 60  1  0
 52 62  1  0
 53 59  1  0
 53 55  1  0
 54 60  1  0
 55 54  1  0
 56 55  2  0
 57 51  2  0
 58 57  1  0
 58 53  2  0
 59 52  1  0
 60 50  1  0
 62 64  2  0
 63 62  1  0
 65 63  1  0
 66 75  2  0
 66 71  1  0
 67 63  1  0
 67 71  1  0
 68 67  1  0
 69 70  1  0
 69 68  1  0
 70 66  1  0
 71 72  2  0
 72 73  1  0
 74 73  2  0
 75 74  1  0
 76 50  1  0
 76 81  1  0
 76 77  1  0
 77 80  1  1
 77 78  1  0
 79 77  1  0
 81 84  1  0
 82 86  1  0
 82 81  1  0
 83 82  2  0
 86 85  1  0
 88 86  1  0
 88 89  1  0
 88 87  1  0
 90 91  1  0
 90  1  1  0
 92 94  1  0
 92 91  1  0
 93 94  1  0
M  ISO  4   9 100  17 100  48 101  49 101
M  END
>  <TORSDO>  (40) 
F 26

>  <SCORE>  (40) 
-13.832

>  <name>  (40) 
40

>  <ligand_id>  (40) 
40

>  <original_smiles>  (40) 
[H]c1c([H])c([H])c2c(c1[H])C([H])([H])C([H])([H])C([H])([H])C2([H])N([H])C(=O)C1([H])N(C(=O)C([H])(N([H])C(=O)C([H])(N([H])C([H])([H])[H])C([H])([H])[H])C(C([H])([H])[H])(C([H])([H])[H])C([H])([H])[H])C([H])([H])c2c([H])c(OC([H])([H])C([H])([H])N(C([H])([H])C([H])([H])C([H])([H])C([H])([H])C([H])([H])[H])C([H])([H])C([H])(C([H])([H])N([H])C(=O)N3C([H])([H])C([H])([H])C([H])([H])C([H])(n4nc(-c5c([H])c([H])c(Oc6c([H])c([H])c(F)c([H])c6F)c([H])c5[H])c(C(=O)N([H])[H])c4N([H])[H])C3([H])[H])[N+]([H])([H])[H])c([H])c([H])c2C1([H])[H]

>  <smiles>  (40) 
[H]c1c([H])c([H])c2c(c1[H])C([H])([H])C([H])([H])C([H])([H])C2([H])N([H])C(=O)C1([H])N(C(=O)C([H])(N([H])C(=O)C([H])(N([H])C([H])([H])[H])C([H])([H])[H])C(C([H])([H])[H])(C([H])([H])[H])C([H])([H])[H])C([H])([H])c2c([H])c(OC([H])([H])C([H])([H])N(C([H])([H])C([H])([H])C([H])([H])C([H])([H])C([H])([H])[H])C([H])([H])C([H])(C([H])([H])N([H])C(=O)N3C([H])([H])C([H])([H])C([H])([H])C([H])(n4nc(-c5c([H])c([H])c(Oc6c([H])c([H])c(F)c([H])c6F)c([H])c5[H])c(C(=O)N([H])[H])c4N([H])[H])C3([H])[H])[N+]([H])([H])[H])c([H])c([H])c2C1([H])[H]

$$$$
41:0:0
     RDKit          3D

 96103  0  0  1  0  0  0  0  0999 V2000
  -28.9780  -21.1560   19.7510 C   0  0  0  0  0  3  0  0  0  0  0  0
  -27.6740  -20.9830   18.9360 C   0  0  0  0  0  2  0  0  0  0  0  0
  -27.6420  -19.8510   17.8910 C   0  0  0  0  0  2  0  0  0  0  0  0
  -28.7380  -19.9510   16.8120 C   0  0  0  0  0  2  0  0  0  0  0  0
  -28.5840  -18.8800   15.7170 C   0  0  0  0  0  2  0  0  0  0  0  0
  -29.6460  -18.9660   14.7000 N   0  0  0  0  0  4  0  0  0  0  0  0
  -29.6310  -19.8570   14.2380 H   0  0  0  0  0  0  0  0  0  0  0  0
  -29.5080  -18.2540   14.0020 H   0  0  0  0  0  0  0  0  0  0  0  0
  -30.5520  -18.8260   15.1100 H   0  0  0  0  0  0  0  0  0  0  0  0
  -29.3650  -19.5570   20.4510 C   0  0  0  0  0  2  0  0  0  0  0  0
  -30.0240  -18.0320   19.7840 C   0  0  0  0  0  2  0  0  0  0  0  0
  -30.6240  -15.1950   19.9550 C   0  0  0  0  0  0  0  0  0  0  0  0
  -30.4930  -12.8140   18.9450 C   0  0  0  0  0  2  0  0  0  0  0  0
  -29.4820  -12.7150   17.7730 C   0  0  0  0  0  2  0  0  0  0  0  0
  -28.0590  -12.4480   18.2930 C   0  0  0  0  0  2  0  0  0  0  0  0
  -27.7150  -13.3370   19.5140 C   0  0  0  0  0  3  0  0  0  0  0  0
  -28.8440  -13.3440   20.5630 C   0  0  0  0  0  2  0  0  0  0  0  0
  -30.0390  -13.8950   19.8960 N   0  0  0  0  0  0  0  0  0  0  0  0
  -31.7740  -15.2230   19.4910 O   0  0  0  0  0  0  0  0  0  0  0  0
  -29.1290  -16.4400   21.5220 C   0  0  0  0  0  1  0  0  0  0  0  0
  -29.9200  -16.4600   20.2930 N   0  0  0  0  0  0  0  0  0  0  0  0
  -25.3990  -13.8830   20.4360 C   0  0  0  0  0  0  0  0  0  0  0  0
  -24.3610  -13.0990   20.8540 C   0  0  0  0  0  0  0  0  0  0  0  0
  -24.8180  -11.7490   20.7470 C   0  0  0  0  0  0  0  0  0  0  0  0
  -26.4180  -13.0130   20.0950 N   0  0  0  0  0  0  0  0  0  0  0  0
  -26.0850  -11.7210   20.3470 N   0  0  0  0  0  0  0  0  0  0  0  0
  -24.0990  -10.4830   20.9460 C   0  0  0  0  0  0  0  0  0  0  0  0
  -24.5510   -9.5140   21.8670 C   0  0  0  0  0  3  0  0  0  0  0  0
  -23.8290   -8.3140   22.0560 C   0  0  0  0  0  3  0  0  0  0  0  0
  -22.6420   -8.0770   21.3220 C   0  0  0  0  0  0  0  0  0  0  0  0
  -22.2090   -9.0360   20.3900 C   0  0  0  0  0  3  0  0  0  0  0  0
  -22.9310  -10.2270   20.2010 C   0  0  0  0  0  3  0  0  0  0  0  0
  -21.8910   -6.9310   21.4190 O   0  0  0  0  0  0  0  0  0  0  0  0
  -21.8170   -6.2170   22.5880 C   0  0  0  0  0  0  0  0  0  0  0  0
  -21.3280   -6.7910   23.7810 C   0  0  0  0  0  3  0  0  0  0  0  0
  -21.2030   -6.0020   24.9430 C   0  0  0  0  0  3  0  0  0  0  0  0
  -21.5540   -4.6400   24.9100 C   0  0  0  0  0  0  0  0  0  0  0  0
  -22.0340   -4.0650   23.7210 C   0  0  0  0  0  3  0  0  0  0  0  0
  -22.1610   -4.8500   22.5630 C   0  0  0  0  0  0  0  0  0  0  0  0
  -22.6050   -4.2860   21.4130 F   0  0  0  0  0  0  0  0  0  0  0  0
  -21.4260   -3.8790   26.0230 F   0  0  0  0  0  0  0  0  0  0  0  0
  -22.9880  -13.5710   21.2330 C   0  0  0  0  0  0  0  0  0  0  0  0
  -22.3180  -12.8540   22.1270 N   0  0  0  0  0  0  0  0  0  0  0  0
  -22.5220  -14.6130   20.7730 O   0  0  0  0  0  0  0  0  0  0  0  0
  -22.7090  -12.0100   22.5190 H   0  0  0  0  0  0  0  0  0  0  0  0
  -21.4000  -13.1520   22.4240 H   0  0  0  0  0  0  0  0  0  0  0  0
  -25.5510  -15.2590   20.2900 N   0  0  0  0  0  0  0  0  0  0  0  0
  -24.7930  -15.9070   20.4740 H   0  0  0  0  0  0  0  0  0  0  0  0
  -26.3730  -15.7090   19.9090 H   0  0  0  0  0  0  0  0  0  0  0  0
  -28.8110  -22.7750   20.4940 C   0  0  0  0  0  3  0  0  0  0  0  0
  -30.1380  -23.1180   21.0390 N   0  0  0  0  0  4  0  0  0  0  0  0
  -30.7990  -23.2840   20.3000 H   0  0  0  0  0  0  0  0  0  0  0  0
  -30.4900  -22.3780   21.6210 H   0  0  0  0  0  0  0  0  0  0  0  0
  -30.0830  -23.9530   21.5980 H   0  0  0  0  0  0  0  0  0  0  0  0
  -28.1120  -24.2980   19.8700 C   0  0  0  0  0  2  0  0  0  0  0  0
  -28.2130  -25.8700   20.3010 O   0  0  0  0  0  0  0  0  0  0  0  0
  -24.6160  -31.8140   23.1280 C   0  0  0  0  0  0  0  0  0  0  0  0
  -27.1950  -26.9400   20.1730 C   0  0  0  0  0  0  0  0  0  0  0  0
  -23.4330  -30.4060   21.4920 C   0  0  0  0  0  3  0  0  0  0  0  0
  -24.8920  -28.7940   20.0910 C   0  0  0  0  0  0  0  0  0  0  0  0
  -25.9990  -30.6210   21.3650 C   0  0  0  0  0  2  0  0  0  0  0  0
  -26.0720  -29.2100   20.7200 C   0  0  0  0  0  0  0  0  0  0  0  0
  -27.2160  -28.3010   20.7420 C   0  0  0  0  0  3  0  0  0  0  0  0
  -25.9910  -26.6700   19.4840 C   0  0  0  0  0  3  0  0  0  0  0  0
  -24.8750  -27.5440   19.4540 C   0  0  0  0  0  3  0  0  0  0  0  0
  -23.6710  -29.7100   20.1220 C   0  0  0  0  0  2  0  0  0  0  0  0
  -24.7030  -30.9730   22.0480 N   0  0  0  0  0  0  0  0  0  0  0  0
  -23.5240  -32.1110   23.6380 O   0  0  0  0  0  0  0  0  0  0  0  0
  -22.7320  -29.4180   22.4590 C   0  0  0  0  0  0  0  0  0  0  0  0
  -21.4040  -29.2480   22.3170 N   0  0  0  0  0  0  0  0  0  0  0  0
  -23.3870  -28.8050   23.3040 O   0  0  0  0  0  0  0  0  0  0  0  0
  -20.9300  -29.7940   21.6110 H   0  0  0  0  0  0  0  0  0  0  0  0
  -18.0200  -28.0230   22.7730 C   0  0  0  0  0  0  0  0  0  0  0  0
  -20.5710  -28.3190   23.0890 C   0  0  0  0  0  3  0  0  0  0  0  0
  -20.6980  -26.8770   22.5460 C   0  0  0  0  0  2  0  0  0  0  0  0
  -19.6220  -26.5230   21.5140 C   0  0  0  0  0  2  0  0  0  0  0  0
  -18.2250  -26.6650   22.1250 C   0  0  0  0  0  2  0  0  0  0  0  0
  -19.1210  -28.8070   23.2100 C   0  0  0  0  0  0  0  0  0  0  0  0
  -18.8740  -30.0750   23.7790 C   0  0  0  0  0  3  0  0  0  0  0  0
  -17.5600  -30.5620   23.9120 C   0  0  0  0  0  3  0  0  0  0  0  0
  -16.4740  -29.7770   23.4890 C   0  0  0  0  0  3  0  0  0  0  0  0
  -16.7040  -28.5090   22.9250 C   0  0  0  0  0  3  0  0  0  0  0  0
  -25.8840  -32.4580   23.7680 C   0  0  0  0  0  3  0  0  0  0  0  0
  -26.3970  -31.6790   25.0420 C   0  0  1  0  0  0  0  0  0  0  0  0
  -25.2990  -31.4210   26.1010 C   0  0  0  0  0  1  0  0  0  0  0  0
  -26.9960  -30.3110   24.6490 C   0  0  0  0  0  1  0  0  0  0  0  0
  -27.5370  -32.4790   25.7170 C   0  0  0  0  0  1  0  0  0  0  0  0
  -25.5560  -33.8490   24.1200 N   0  0  0  0  0  0  0  0  0  0  0  0
  -25.8730  -34.9230   23.3850 C   0  0  0  0  0  0  0  0  0  0  0  0
  -26.5350  -34.8460   22.3460 O   0  0  0  0  0  0  0  0  0  0  0  0
  -24.9650  -33.9830   24.9280 H   0  0  0  0  0  0  0  0  0  0  0  0
  -24.1260  -36.7120   23.0870 C   0  0  0  0  0  1  0  0  0  0  0  0
  -25.3800  -36.3000   23.8750 C   0  0  0  0  0  3  0  0  0  0  0  0
  -27.5120  -37.1950   24.7040 C   0  0  0  0  0  1  0  0  0  0  0  0
  -26.4020  -37.3650   23.7690 N   0  0  0  0  0  0  0  0  0  0  0  0
  -25.9890  -38.2800   23.9320 H   0  0  0  0  0  0  0  0  0  0  0  0
  1  2  1  0
  1 10  1  0
  1 50  1  0
  3  2  1  0
  4  3  1  0
  5  4  1  0
  6  9  1  0
  6  5  1  0
  7  6  1  0
  8  6  1  0
 11 21  1  0
 11 10  1  0
 12 21  1  0
 13 18  1  0
 14 15  1  0
 14 13  1  0
 16 15  1  0
 16 25  1  0
 16 17  1  0
 18 12  1  0
 18 17  1  0
 19 12  2  0
 21 20  1  0
 22 23  2  0
 23 42  1  0
 24 23  1  0
 24 27  1  0
 25 26  1  0
 25 22  1  0
 26 24  2  0
 27 28  1  0
 28 29  2  0
 30 33  1  0
 30 29  1  0
 31 30  2  0
 32 31  1  0
 32 27  2  0
 33 34  1  0
 34 35  1  0
 35 36  2  0
 37 36  1  0
 37 41  1  0
 38 37  2  0
 39 34  2  0
 39 38  1  0
 40 39  1  0
 42 43  1  0
 43 46  1  0
 43 45  1  0
 44 42  2  0
 47 22  1  0
 47 48  1  0
 49 47  1  0
 50 55  1  0
 50 51  1  0
 51 54  1  0
 51 53  1  0
 52 51  1  0
 55 56  1  0
 57 68  2  0
 58 56  1  0
 58 63  1  0
 59 67  1  0
 59 69  1  0
 60 66  1  0
 60 62  1  0
 61 67  1  0
 62 63  2  0
 62 61  1  0
 64 58  2  0
 65 64  1  0
 65 60  2  0
 66 59  1  0
 67 57  1  0
 69 71  2  0
 70 69  1  0
 72 70  1  0
 73 82  2  0
 73 78  1  0
 74 70  1  0
 74 78  1  0
 75 74  1  0
 76 77  1  0
 76 75  1  0
 77 73  1  0
 78 79  2  0
 79 80  1  0
 81 80  2  0
 82 81  1  0
 83 57  1  0
 83 88  1  0
 83 84  1  0
 84 87  1  1
 84 85  1  0
 86 84  1  0
 88 91  1  0
 89 93  1  0
 89 88  1  0
 90 89  2  0
 93 92  1  0
 95 93  1  0
 95 96  1  0
 95 94  1  0
M  ISO  4  12 100  21 100  55 101  56 101
M  END
>  <TORSDO>  (41) 
F 26

>  <SCORE>  (41) 
-13.929

>  <name>  (41) 
41

>  <ligand_id>  (41) 
41

>  <original_smiles>  (41) 
[H]c1c([H])c([H])c2c(c1[H])C([H])([H])C([H])([H])C([H])([H])C2([H])N([H])C(=O)C1([H])N(C(=O)C([H])(N([H])C(=O)C([H])(N([H])C([H])([H])[H])C([H])([H])[H])C(C([H])([H])[H])(C([H])([H])[H])C([H])([H])[H])C([H])([H])c2c([H])c(OC([H])([H])C([H])(C([H])(C([H])([H])C([H])([H])N(C(=O)N3C([H])([H])C([H])([H])C([H])([H])C([H])(n4nc(-c5c([H])c([H])c(Oc6c([H])c([H])c(F)c([H])c6F)c([H])c5[H])c(C(=O)N([H])[H])c4N([H])[H])C3([H])[H])C([H])([H])[H])C([H])([H])C([H])([H])C([H])([H])C([H])([H])[N+]([H])([H])[H])[N+]([H])([H])[H])c([H])c([H])c2C1([H])[H]

>  <smiles>  (41) 
[H]c1c([H])c([H])c2c(c1[H])C([H])([H])C([H])([H])C([H])([H])C2([H])N([H])C(=O)C1([H])N(C(=O)C([H])(N([H])C(=O)C([H])(N([H])C([H])([H])[H])C([H])([H])[H])C(C([H])([H])[H])(C([H])([H])[H])C([H])([H])[H])C([H])([H])c2c([H])c(OC([H])([H])C([H])(C([H])(C([H])([H])C([H])([H])N(C(=O)N3C([H])([H])C([H])([H])C([H])([H])C([H])(n4nc(-c5c([H])c([H])c(Oc6c([H])c([H])c(F)c([H])c6F)c([H])c5[H])c(C(=O)N([H])[H])c4N([H])[H])C3([H])[H])C([H])([H])[H])C([H])([H])C([H])([H])C([H])([H])C([H])([H])[N+]([H])([H])[H])[N+]([H])([H])[H])c([H])c([H])c2C1([H])[H]

$$$$
42:0:0
     RDKit          3D

 99107  0  0  1  0  0  0  0  0999 V2000
  -29.0360  -20.5450   21.1170 C   0  0  0  0  0  3  0  0  0  0  0  0
  -28.9970  -21.8060   20.1630 C   0  0  0  0  0  2  0  0  0  0  0  0
  -28.6480  -23.1870   20.8490 C   0  0  0  0  0  2  0  0  0  0  0  0
  -27.7580  -24.2240   20.0700 C   0  0  0  0  0  2  0  0  0  0  0  0
  -28.4240  -25.4650   19.3810 C   0  0  0  0  0  2  0  0  0  0  0  0
  -28.3270  -26.7580   20.0400 O   0  0  0  0  0  0  0  0  0  0  0  0
  -24.5530  -31.9450   23.1900 C   0  0  0  0  0  0  0  0  0  0  0  0
  -27.1560  -27.5090   20.0100 C   0  0  0  0  0  0  0  0  0  0  0  0
  -23.3310  -30.5720   21.5370 C   0  0  0  0  0  3  0  0  0  0  0  0
  -24.7680  -29.0560   20.0690 C   0  0  0  0  0  0  0  0  0  0  0  0
  -25.8610  -30.9180   21.3270 C   0  0  0  0  0  2  0  0  0  0  0  0
  -25.9350  -29.5550   20.6580 C   0  0  0  0  0  0  0  0  0  0  0  0
  -27.1260  -28.7890   20.6280 C   0  0  0  0  0  3  0  0  0  0  0  0
  -25.9660  -27.0380   19.4110 C   0  0  0  0  0  3  0  0  0  0  0  0
  -24.7810  -27.7990   19.4420 C   0  0  0  0  0  3  0  0  0  0  0  0
  -23.5270  -29.9210   20.1430 C   0  0  0  0  0  2  0  0  0  0  0  0
  -24.6000  -31.1630   22.0740 N   0  0  0  0  0  0  0  0  0  0  0  0
  -23.4770  -32.2100   23.7450 O   0  0  0  0  0  0  0  0  0  0  0  0
  -22.6900  -29.5350   22.4890 C   0  0  0  0  0  0  0  0  0  0  0  0
  -21.3660  -29.3390   22.3630 N   0  0  0  0  0  0  0  0  0  0  0  0
  -23.3790  -28.9080   23.2960 O   0  0  0  0  0  0  0  0  0  0  0  0
  -20.8670  -29.8990   21.6870 H   0  0  0  0  0  0  0  0  0  0  0  0
  -18.0070  -28.1010   22.8480 C   0  0  0  0  0  0  0  0  0  0  0  0
  -20.5610  -28.3850   23.1260 C   0  0  0  0  0  3  0  0  0  0  0  0
  -20.6810  -26.9600   22.5370 C   0  0  0  0  0  2  0  0  0  0  0  0
  -19.5840  -26.6360   21.5170 C   0  0  0  0  0  2  0  0  0  0  0  0
  -18.1990  -26.7590   22.1620 C   0  0  0  0  0  2  0  0  0  0  0  0
  -19.1160  -28.8700   23.2880 C   0  0  0  0  0  0  0  0  0  0  0  0
  -18.8810  -30.1260   23.8900 C   0  0  0  0  0  3  0  0  0  0  0  0
  -17.5710  -30.6100   24.0580 C   0  0  0  0  0  3  0  0  0  0  0  0
  -16.4760  -29.8360   23.6370 C   0  0  0  0  0  3  0  0  0  0  0  0
  -16.6950  -28.5840   23.0350 C   0  0  0  0  0  3  0  0  0  0  0  0
  -25.8430  -32.5670   23.8060 C   0  0  0  0  0  3  0  0  0  0  0  0
  -26.3690  -31.7840   25.0740 C   0  0  1  0  0  0  0  0  0  0  0  0
  -25.2810  -31.5380   26.1460 C   0  0  0  0  0  1  0  0  0  0  0  0
  -26.9490  -30.4080   24.6660 C   0  0  0  0  0  1  0  0  0  0  0  0
  -27.5240  -32.5710   25.7350 C   0  0  0  0  0  1  0  0  0  0  0  0
  -25.5410  -33.9640   24.1480 N   0  0  0  0  0  0  0  0  0  0  0  0
  -25.8800  -35.0220   23.3980 C   0  0  0  0  0  0  0  0  0  0  0  0
  -26.5490  -34.9230   22.3670 O   0  0  0  0  0  0  0  0  0  0  0  0
  -24.9380  -34.1140   24.9430 H   0  0  0  0  0  0  0  0  0  0  0  0
  -24.1740  -36.8400   23.0460 C   0  0  0  0  0  1  0  0  0  0  0  0
  -25.4000  -36.4090   23.8670 C   0  0  0  0  0  3  0  0  0  0  0  0
  -27.5260  -37.2700   24.7460 C   0  0  0  0  0  1  0  0  0  0  0  0
  -26.4440  -37.4520   23.7820 N   0  0  0  0  0  0  0  0  0  0  0  0
  -26.0430  -38.3760   23.9240 H   0  0  0  0  0  0  0  0  0  0  0  0
  -29.0450  -19.0990   20.4610 C   0  0  0  0  0  2  0  0  0  0  0  0
  -30.3770  -18.2930   20.2180 C   0  0  0  0  0  3  0  0  0  0  0  0
  -30.5980  -17.0400   21.1580 C   0  0  0  0  0  2  0  0  0  0  0  0
  -30.7650  -14.6640   20.2390 C   0  0  0  0  0  0  0  0  0  0  0  0
  -30.4620  -12.4850   19.1050 C   0  0  0  0  0  2  0  0  0  0  0  0
  -29.4730  -12.6500   17.9320 C   0  0  0  0  0  2  0  0  0  0  0  0
  -28.0190  -12.4870   18.4170 C   0  0  0  0  0  2  0  0  0  0  0  0
  -27.7120  -13.3300   19.6840 C   0  0  0  0  0  3  0  0  0  0  0  0
  -28.8110  -13.1490   20.7540 C   0  0  0  0  0  2  0  0  0  0  0  0
  -30.1000  -13.4780   20.1280 N   0  0  0  0  0  0  0  0  0  0  0  0
  -31.8960  -14.8320   19.7760 O   0  0  0  0  0  0  0  0  0  0  0  0
  -30.0650  -15.7090   20.7550 N   0  0  0  0  0  0  0  0  0  0  0  0
  -29.1220  -15.4960   21.0460 H   0  0  0  0  0  0  0  0  0  0  0  0
  -25.3480  -13.9150   20.5110 C   0  0  0  0  0  0  0  0  0  0  0  0
  -24.2970  -13.1340   20.9060 C   0  0  0  0  0  0  0  0  0  0  0  0
  -24.7560  -11.7840   20.8240 C   0  0  0  0  0  0  0  0  0  0  0  0
  -26.3820  -13.0410   20.2160 N   0  0  0  0  0  0  0  0  0  0  0  0
  -26.0330  -11.7520   20.4620 N   0  0  0  0  0  0  0  0  0  0  0  0
  -24.0370  -10.5170   21.0140 C   0  0  0  0  0  0  0  0  0  0  0  0
  -24.4830   -9.5470   21.9390 C   0  0  0  0  0  3  0  0  0  0  0  0
  -23.7630   -8.3450   22.1160 C   0  0  0  0  0  3  0  0  0  0  0  0
  -22.5860   -8.1040   21.3700 C   0  0  0  0  0  0  0  0  0  0  0  0
  -22.1610   -9.0630   20.4340 C   0  0  0  0  0  3  0  0  0  0  0  0
  -22.8800  -10.2560   20.2530 C   0  0  0  0  0  3  0  0  0  0  0  0
  -21.8380   -6.9550   21.4570 O   0  0  0  0  0  0  0  0  0  0  0  0
  -21.7730   -6.2260   22.6170 C   0  0  0  0  0  0  0  0  0  0  0  0
  -21.2710   -6.7760   23.8160 C   0  0  0  0  0  3  0  0  0  0  0  0
  -21.1570   -5.9700   24.9670 C   0  0  0  0  0  3  0  0  0  0  0  0
  -21.5340   -4.6160   24.9190 C   0  0  0  0  0  0  0  0  0  0  0  0
  -22.0290   -4.0640   23.7240 C   0  0  0  0  0  3  0  0  0  0  0  0
  -22.1450   -4.8670   22.5750 C   0  0  0  0  0  0  0  0  0  0  0  0
  -22.6030   -4.3250   21.4210 F   0  0  0  0  0  0  0  0  0  0  0  0
  -21.4170   -3.8390   26.0210 F   0  0  0  0  0  0  0  0  0  0  0  0
  -22.9120  -13.6040   21.2460 C   0  0  0  0  0  0  0  0  0  0  0  0
  -22.2150  -12.8800   22.1150 N   0  0  0  0  0  0  0  0  0  0  0  0
  -22.4590  -14.6470   20.7770 O   0  0  0  0  0  0  0  0  0  0  0  0
  -22.5940  -12.0340   22.5140 H   0  0  0  0  0  0  0  0  0  0  0  0
  -21.2860  -13.1750   22.3830 H   0  0  0  0  0  0  0  0  0  0  0  0
  -25.5060  -15.2900   20.3570 N   0  0  0  0  0  0  0  0  0  0  0  0
  -24.7420  -15.9390   20.5070 H   0  0  0  0  0  0  0  0  0  0  0  0
  -26.3350  -15.7350   19.9850 H   0  0  0  0  0  0  0  0  0  0  0  0
  -30.5830  -17.9130   18.7250 C   0  0  0  0  0  2  0  0  0  0  0  0
  -31.4900  -19.8990   15.7060 C   0  0  0  0  0  2  0  0  0  0  0  0
  -32.6710  -20.1050   16.6510 C   0  0  0  0  0  2  0  0  0  0  0  0
  -30.7020  -18.7880   16.3950 C   0  0  0  0  0  2  0  0  0  0  0  0
  -32.1040  -19.7870   18.0430 C   0  0  0  0  0  2  0  0  0  0  0  0
  -30.8110  -19.0830   17.8400 N   0  0  2  0  0  4  0  0  0  0  0  0
  -30.0810  -19.7540   18.0250 H   0  0  0  0  0  0  0  0  0  0  0  0
  -29.9260  -20.6930   22.3820 C   0  0  0  0  0  2  0  0  0  0  0  0
  -31.3110  -21.1200   22.1120 N   0  0  0  0  0  4  0  0  0  0  0  0
  -31.8020  -20.4590   21.5410 H   0  0  0  0  0  0  0  0  0  0  0  0
  -31.8060  -21.1890   22.9850 H   0  0  0  0  0  0  0  0  0  0  0  0
  -31.3410  -22.0270   21.6810 H   0  0  0  0  0  0  0  0  0  0  0  0
  1  2  1  0
  1 95  1  0
  2  3  1  0
  4  3  1  0
  5  6  1  0
  5  4  1  0
  7 18  2  0
  8  6  1  0
  8 13  1  0
  9 17  1  0
  9 19  1  0
 10 16  1  0
 10 12  1  0
 11 17  1  0
 12 11  1  0
 13 12  2  0
 14 15  1  0
 14  8  2  0
 15 10  2  0
 16  9  1  0
 17  7  1  0
 19 21  2  0
 20 19  1  0
 22 20  1  0
 23 32  2  0
 23 28  1  0
 24 20  1  0
 24 28  1  0
 25 24  1  0
 26 27  1  0
 26 25  1  0
 27 23  1  0
 28 29  2  0
 29 30  1  0
 31 30  2  0
 32 31  1  0
 33  7  1  0
 33 38  1  0
 33 34  1  0
 34 37  1  1
 34 35  1  0
 36 34  1  0
 38 41  1  0
 39 43  1  0
 39 38  1  0
 40 39  2  0
 43 42  1  0
 45 43  1  0
 45 46  1  0
 45 44  1  0
 47  1  1  0
 48 88  1  0
 48 47  1  0
 48 49  1  0
 50 58  1  0
 51 56  1  0
 52 53  1  0
 52 51  1  0
 54 53  1  0
 54 63  1  0
 54 55  1  0
 56 50  1  0
 56 55  1  0
 57 50  2  0
 58 59  1  0
 58 49  1  0
 60 61  2  0
 61 80  1  0
 62 61  1  0
 62 65  1  0
 63 64  1  0
 63 60  1  0
 64 62  2  0
 65 66  1  0
 66 67  2  0
 68 71  1  0
 68 67  1  0
 69 68  2  0
 70 69  1  0
 70 65  2  0
 71 72  1  0
 72 73  1  0
 73 74  2  0
 75 74  1  0
 75 79  1  0
 76 75  2  0
 77 72  2  0
 77 76  1  0
 78 77  1  0
 80 81  1  0
 81 84  1  0
 81 83  1  0
 82 80  2  0
 85 86  1  0
 85 60  1  0
 87 85  1  0
 89 91  1  0
 89 90  1  0
 90 92  1  0
 91 93  1  0
 93 94  1  1
 93 92  1  0
 93 88  1  0
 96 95  1  0
 96 98  1  0
 97 96  1  0
 99 96  1  0
M  ISO  4   5 101   6 101  50 100  58 100
M  END
>  <TORSDO>  (42) 
F 27

>  <SCORE>  (42) 
-11.786

>  <name>  (42) 
42

>  <ligand_id>  (42) 
42

>  <original_smiles>  (42) 
[H]c1c([H])c([H])c2c(c1[H])C([H])([H])C([H])([H])C([H])([H])C2([H])N([H])C(=O)C1([H])N(C(=O)C([H])(N([H])C(=O)C([H])(N([H])C([H])([H])[H])C([H])([H])[H])C(C([H])([H])[H])(C([H])([H])[H])C([H])([H])[H])C([H])([H])c2c([H])c(OC([H])([H])C([H])([H])C([H])([H])C([H])([H])C([H])(C([H])([H])C([H])(C([H])([H])N([H])C(=O)N3C([H])([H])C([H])([H])C([H])([H])C([H])(n4nc(-c5c([H])c([H])c(Oc6c([H])c([H])c(F)c([H])c6F)c([H])c5[H])c(C(=O)N([H])[H])c4N([H])[H])C3([H])[H])C([H])([H])[N+]3([H])C([H])([H])C([H])([H])C([H])([H])C3([H])[H])C([H])([H])[N+]([H])([H])[H])c([H])c([H])c2C1([H])[H]

>  <smiles>  (42) 
[H]c1c([H])c([H])c2c(c1[H])C([H])([H])C([H])([H])C([H])([H])C2([H])N([H])C(=O)C1([H])N(C(=O)C([H])(N([H])C(=O)C([H])(N([H])C([H])([H])[H])C([H])([H])[H])C(C([H])([H])[H])(C([H])([H])[H])C([H])([H])[H])C([H])([H])c2c([H])c(OC([H])([H])C([H])([H])C([H])([H])C([H])([H])C([H])(C([H])([H])C([H])(C([H])([H])N([H])C(=O)N3C([H])([H])C([H])([H])C([H])([H])C([H])(n4nc(-c5c([H])c([H])c(Oc6c([H])c([H])c(F)c([H])c6F)c([H])c5[H])c(C(=O)N([H])[H])c4N([H])[H])C3([H])[H])C([H])([H])[N+]3([H])C([H])([H])C([H])([H])C([H])([H])C3([H])[H])C([H])([H])[N+]([H])([H])[H])c([H])c([H])c2C1([H])[H]

$$$$
43:0:0
     RDKit          3D

 99106  0  0  1  0  0  0  0  0999 V2000
  -29.7380  -18.9630   18.7310 C   0  0  0  0  0  2  0  0  0  0  0  0
  -27.9630  -18.5240   16.9580 C   0  0  0  0  0  1  0  0  0  0  0  0
  -28.9680  -19.4540   17.5410 N   0  0  1  0  0  4  0  0  0  0  0  0
  -29.6980  -19.4250   16.8400 H   0  0  0  0  0  0  0  0  0  0  0  0
  -28.6060  -20.9000   17.4060 C   0  0  0  0  0  2  0  0  0  0  0  0
  -28.9750  -21.8940   18.5400 C   0  0  0  0  0  2  0  0  0  0  0  0
  -28.6310  -23.3430   18.1360 C   0  0  0  0  0  2  0  0  0  0  0  0
  -28.5920  -24.3550   19.2990 C   0  0  0  0  0  2  0  0  0  0  0  0
  -28.7370  -25.8090   18.8060 C   0  0  0  0  0  2  0  0  0  0  0  0
  -28.5090  -26.7640   19.8420 O   0  0  0  0  0  0  0  0  0  0  0  0
  -24.6400  -31.7190   23.1750 C   0  0  0  0  0  0  0  0  0  0  0  0
  -27.2960  -27.4260   19.8870 C   0  0  0  0  0  0  0  0  0  0  0  0
  -23.4340  -30.3890   21.4690 C   0  0  0  0  0  3  0  0  0  0  0  0
  -24.8870  -28.9070   19.9890 C   0  0  0  0  0  0  0  0  0  0  0  0
  -25.9570  -30.7600   21.2790 C   0  0  0  0  0  2  0  0  0  0  0  0
  -26.0420  -29.4080   20.5980 C   0  0  0  0  0  0  0  0  0  0  0  0
  -27.2460  -28.6700   20.5540 C   0  0  0  0  0  3  0  0  0  0  0  0
  -26.1130  -26.9190   19.3040 C   0  0  0  0  0  3  0  0  0  0  0  0
  -24.9130  -27.6570   19.3490 C   0  0  0  0  0  3  0  0  0  0  0  0
  -23.6450  -29.7680   20.0630 C   0  0  0  0  0  2  0  0  0  0  0  0
  -24.6960  -30.9720   22.0330 N   0  0  0  0  0  0  0  0  0  0  0  0
  -23.5590  -31.9610   23.7260 O   0  0  0  0  0  0  0  0  0  0  0  0
  -22.7830  -29.3270   22.3840 C   0  0  0  0  0  0  0  0  0  0  0  0
  -21.4550  -29.1670   22.2770 N   0  0  0  0  0  0  0  0  0  0  0  0
  -23.4740  -28.6500   23.1480 O   0  0  0  0  0  0  0  0  0  0  0  0
  -20.9550  -29.7820   21.6560 H   0  0  0  0  0  0  0  0  0  0  0  0
  -18.0810  -27.9680   22.7550 C   0  0  0  0  0  0  0  0  0  0  0  0
  -20.6440  -28.1900   23.0010 C   0  0  0  0  0  3  0  0  0  0  0  0
  -20.7230  -26.7920   22.3390 C   0  0  0  0  0  2  0  0  0  0  0  0
  -19.5990  -26.5240   21.3350 C   0  0  0  0  0  2  0  0  0  0  0  0
  -18.2320  -26.6510   22.0100 C   0  0  0  0  0  2  0  0  0  0  0  0
  -19.2140  -28.6970   23.2070 C   0  0  0  0  0  0  0  0  0  0  0  0
  -19.0190  -29.9280   23.8690 C   0  0  0  0  0  3  0  0  0  0  0  0
  -17.7220  -30.4320   24.0830 C   0  0  0  0  0  3  0  0  0  0  0  0
  -16.6040  -29.7020   23.6460 C   0  0  0  0  0  3  0  0  0  0  0  0
  -16.7850  -28.4720   22.9870 C   0  0  0  0  0  3  0  0  0  0  0  0
  -25.9230  -32.3270   23.8200 C   0  0  0  0  0  3  0  0  0  0  0  0
  -26.4530  -31.4990   25.0520 C   0  0  1  0  0  0  0  0  0  0  0  0
  -25.3740  -31.2010   26.1190 C   0  0  0  0  0  1  0  0  0  0  0  0
  -27.0340  -30.1450   24.5820 C   0  0  0  0  0  1  0  0  0  0  0  0
  -27.6120  -32.2600   25.7370 C   0  0  0  0  0  1  0  0  0  0  0  0
  -25.6090  -33.7070   24.2150 N   0  0  0  0  0  0  0  0  0  0  0  0
  -25.9430  -34.7960   23.5070 C   0  0  0  0  0  0  0  0  0  0  0  0
  -26.6200  -34.7420   22.4780 O   0  0  0  0  0  0  0  0  0  0  0  0
  -25.0190  -33.8230   25.0260 H   0  0  0  0  0  0  0  0  0  0  0  0
  -24.2060  -36.5930   23.2270 C   0  0  0  0  0  1  0  0  0  0  0  0
  -25.4480  -36.1620   24.0260 C   0  0  0  0  0  3  0  0  0  0  0  0
  -27.5800  -37.0080   24.9010 C   0  0  0  0  0  1  0  0  0  0  0  0
  -26.4780  -37.2240   23.9650 N   0  0  0  0  0  0  0  0  0  0  0  0
  -26.0710  -38.1350   24.1600 H   0  0  0  0  0  0  0  0  0  0  0  0
  -29.0720  -17.9190   19.7020 C   0  0  0  0  0  3  0  0  0  0  0  0
  -30.2010  -17.1670   20.4860 C   0  0  0  0  0  2  0  0  0  0  0  0
  -30.6300  -14.7610   20.9300 C   0  0  0  0  0  0  0  0  0  0  0  0
  -30.4980  -12.4700   20.0650 C   0  0  0  0  0  2  0  0  0  0  0  0
  -29.6800  -12.5020   18.7550 C   0  0  0  0  0  2  0  0  0  0  0  0
  -28.1770  -12.3620   19.0580 C   0  0  0  0  0  2  0  0  0  0  0  0
  -27.6930  -13.3320   20.1700 C   0  0  0  0  0  3  0  0  0  0  0  0
  -28.6360  -13.2940   21.3970 C   0  0  0  0  0  2  0  0  0  0  0  0
  -30.0020  -13.5590   20.9200 N   0  0  0  0  0  0  0  0  0  0  0  0
  -31.8190  -14.8940   20.6240 O   0  0  0  0  0  0  0  0  0  0  0  0
  -29.8270  -15.8410   21.0230 N   0  0  0  0  0  0  0  0  0  0  0  0
  -28.8700  -15.6940   21.3090 H   0  0  0  0  0  0  0  0  0  0  0  0
  -25.2530  -13.9520   20.6930 C   0  0  0  0  0  0  0  0  0  0  0  0
  -24.1530  -13.1810   20.9690 C   0  0  0  0  0  0  0  0  0  0  0  0
  -24.6050  -11.8270   20.9560 C   0  0  0  0  0  0  0  0  0  0  0  0
  -26.3060  -13.0620   20.5390 N   0  0  0  0  0  0  0  0  0  0  0  0
  -25.9160  -11.7790   20.7520 N   0  0  0  0  0  0  0  0  0  0  0  0
  -23.8550  -10.5680   21.0680 C   0  0  0  0  0  0  0  0  0  0  0  0
  -24.2480   -9.5570   21.9720 C   0  0  0  0  0  3  0  0  0  0  0  0
  -23.5030   -8.3620   22.0760 C   0  0  0  0  0  3  0  0  0  0  0  0
  -22.3520   -8.1720   21.2760 C   0  0  0  0  0  0  0  0  0  0  0  0
  -21.9800   -9.1710   20.3610 C   0  0  0  0  0  3  0  0  0  0  0  0
  -22.7240  -10.3580   20.2540 C   0  0  0  0  0  3  0  0  0  0  0  0
  -21.5820   -7.0340   21.2910 O   0  0  0  0  0  0  0  0  0  0  0  0
  -21.5270   -6.2170   22.3920 C   0  0  0  0  0  0  0  0  0  0  0  0
  -21.1450   -6.7030   23.6610 C   0  0  0  0  0  3  0  0  0  0  0  0
  -21.0360   -5.8160   24.7500 C   0  0  0  0  0  3  0  0  0  0  0  0
  -21.2970   -4.4450   24.5710 C   0  0  0  0  0  0  0  0  0  0  0  0
  -21.6760   -3.9590   23.3080 C   0  0  0  0  0  3  0  0  0  0  0  0
  -21.7870   -4.8430   22.2200 C   0  0  0  0  0  0  0  0  0  0  0  0
  -22.1290   -4.3670   20.9990 F   0  0  0  0  0  0  0  0  0  0  0  0
  -21.1860   -3.5890   25.6150 F   0  0  0  0  0  0  0  0  0  0  0  0
  -22.7430  -13.6680   21.1400 C   0  0  0  0  0  0  0  0  0  0  0  0
  -21.9510  -12.9740   21.9510 N   0  0  0  0  0  0  0  0  0  0  0  0
  -22.3500  -14.6950   20.5900 O   0  0  0  0  0  0  0  0  0  0  0  0
  -22.2850  -12.1420   22.4160 H   0  0  0  0  0  0  0  0  0  0  0  0
  -21.0020  -13.2780   22.1100 H   0  0  0  0  0  0  0  0  0  0  0  0
  -25.4420  -15.3200   20.5450 N   0  0  0  0  0  0  0  0  0  0  0  0
  -24.6670  -15.9740   20.5900 H   0  0  0  0  0  0  0  0  0  0  0  0
  -26.3150  -15.7490   20.2670 H   0  0  0  0  0  0  0  0  0  0  0  0
  -28.0810  -18.6010   20.6940 C   0  0  0  0  0  2  0  0  0  0  0  0
  -26.6160  -18.8300   20.2140 C   0  0  0  0  0  2  0  0  0  0  0  0
  -26.3220  -20.1870   19.4950 C   0  0  0  0  0  2  0  0  0  0  0  0
  -25.5460  -20.4810   18.1570 C   0  0  0  0  0  2  0  0  0  0  0  0
  -25.1540  -21.9740   18.0600 C   0  0  0  0  0  2  0  0  0  0  0  0
  -24.6420  -22.3570   16.7320 N   0  0  0  0  0  4  0  0  0  0  0  0
  -25.3090  -22.1420   16.0110 H   0  0  0  0  0  0  0  0  0  0  0  0
  -24.4750  -23.3480   16.7020 H   0  0  0  0  0  0  0  0  0  0  0  0
  -23.7760  -21.8960   16.5220 H   0  0  0  0  0  0  0  0  0  0  0  0
  2  3  1  0
  3  1  1  0
  3  4  1  6
  5  3  1  0
  5  6  1  0
  7  6  1  0
  7  8  1  0
  9  8  1  0
  9 10  1  0
 10 12  1  0
 11 22  2  0
 12 17  1  0
 13 21  1  0
 13 23  1  0
 14 20  1  0
 14 16  1  0
 15 21  1  0
 16 15  1  0
 17 16  2  0
 18 19  1  0
 18 12  2  0
 19 14  2  0
 20 13  1  0
 21 11  1  0
 23 25  2  0
 24 23  1  0
 26 24  1  0
 27 36  2  0
 27 32  1  0
 28 24  1  0
 28 32  1  0
 29 28  1  0
 30 31  1  0
 30 29  1  0
 31 27  1  0
 32 33  2  0
 33 34  1  0
 35 34  2  0
 36 35  1  0
 37 11  1  0
 37 42  1  0
 37 38  1  0
 38 41  1  1
 38 39  1  0
 40 38  1  0
 42 45  1  0
 43 47  1  0
 43 42  1  0
 44 43  2  0
 47 46  1  0
 49 47  1  0
 49 50  1  0
 49 48  1  0
 51  1  1  0
 51 52  1  0
 51 91  1  0
 52 61  1  0
 53 61  1  0
 54 59  1  0
 55 56  1  0
 55 54  1  0
 57 56  1  0
 57 66  1  0
 57 58  1  0
 59 53  1  0
 59 58  1  0
 60 53  2  0
 61 62  1  0
 63 64  2  0
 64 83  1  0
 65 64  1  0
 65 68  1  0
 66 63  1  0
 66 67  1  0
 67 65  2  0
 68 69  1  0
 69 70  2  0
 71 74  1  0
 71 70  1  0
 72 71  2  0
 73 72  1  0
 73 68  2  0
 74 75  1  0
 75 76  1  0
 76 77  2  0
 78 77  1  0
 78 82  1  0
 79 78  2  0
 80 75  2  0
 80 79  1  0
 81 80  1  0
 83 84  1  0
 84 87  1  0
 84 86  1  0
 85 83  2  0
 88 89  1  0
 88 63  1  0
 90 88  1  0
 92 91  1  0
 93 92  1  0
 94 93  1  0
 95 94  1  0
 96 95  1  0
 97 96  1  0
 98 96  1  0
 99 96  1  0
M  ISO  4   9 101  10 101  53 100  61 100
M  END
>  <TORSDO>  (43) 
F 30

>  <SCORE>  (43) 
-9.534

>  <name>  (43) 
43

>  <ligand_id>  (43) 
43

>  <original_smiles>  (43) 
[H]c1c([H])c([H])c2c(c1[H])C([H])([H])C([H])([H])C([H])([H])C2([H])N([H])C(=O)C1([H])N(C(=O)C([H])(N([H])C(=O)C([H])(N([H])C([H])([H])[H])C([H])([H])[H])C(C([H])([H])[H])(C([H])([H])[H])C([H])([H])[H])C([H])([H])c2c([H])c(OC([H])([H])C([H])([H])C([H])([H])C([H])([H])C([H])([H])[N+]([H])(C([H])([H])[H])C([H])([H])C([H])(C([H])([H])N([H])C(=O)N3C([H])([H])C([H])([H])C([H])([H])C([H])(n4nc(-c5c([H])c([H])c(Oc6c([H])c([H])c(F)c([H])c6F)c([H])c5[H])c(C(=O)N([H])[H])c4N([H])[H])C3([H])[H])C([H])([H])C([H])([H])C([H])([H])C([H])([H])C([H])([H])[N+]([H])([H])[H])c([H])c([H])c2C1([H])[H]

>  <smiles>  (43) 
[H]c1c([H])c([H])c2c(c1[H])C([H])([H])C([H])([H])C([H])([H])C2([H])N([H])C(=O)C1([H])N(C(=O)C([H])(N([H])C(=O)C([H])(N([H])C([H])([H])[H])C([H])([H])[H])C(C([H])([H])[H])(C([H])([H])[H])C([H])([H])[H])C([H])([H])c2c([H])c(OC([H])([H])C([H])([H])C([H])([H])C([H])([H])C([H])([H])[N+]([H])(C([H])([H])[H])C([H])([H])C([H])(C([H])([H])N([H])C(=O)N3C([H])([H])C([H])([H])C([H])([H])C([H])(n4nc(-c5c([H])c([H])c(Oc6c([H])c([H])c(F)c([H])c6F)c([H])c5[H])c(C(=O)N([H])[H])c4N([H])[H])C3([H])[H])C([H])([H])C([H])([H])C([H])([H])C([H])([H])C([H])([H])[N+]([H])([H])[H])c([H])c([H])c2C1([H])[H]

$$$$
44:0:0
     RDKit          3D

 93 96  0  0  1  0  0  0  0  0999 V2000
  -30.0980  -19.7360   19.3910 C   0  0  0  0  0  1  0  0  0  0  0  0
  -31.2040  -16.4050   19.1870 C   0  0  0  0  0  0  0  0  0  0  0  0
  -31.3290  -13.7290   18.5080 C   0  0  0  0  0  2  0  0  0  0  0  0
  -30.3540  -13.0450   17.4930 C   0  0  0  0  0  2  0  0  0  0  0  0
  -29.0340  -12.6510   18.1660 C   0  0  0  0  0  2  0  0  0  0  0  0
  -28.5700  -13.7550   19.1350 C   0  0  0  0  0  3  0  0  0  0  0  0
  -29.6950  -14.2970   20.0580 C   0  0  0  0  0  2  0  0  0  0  0  0
  -30.7010  -14.9850   19.1830 N   0  0  0  0  0  0  0  0  0  0  0  0
  -32.4460  -16.2540   19.0920 O   0  0  0  0  0  0  0  0  0  0  0  0
  -30.4420  -17.8630   19.0740 N   0  0  0  0  0  2  0  0  0  0  0  0
  -29.5440  -17.5350   18.7440 H   0  0  0  0  0  0  0  0  0  0  0  0
  -26.4130  -14.3530   20.3230 C   0  0  0  0  0  0  0  0  0  0  0  0
  -25.3500  -13.6220   20.7660 C   0  0  0  0  0  0  0  0  0  0  0  0
  -25.6820  -12.2520   20.5240 C   0  0  0  0  0  0  0  0  0  0  0  0
  -27.3280  -13.4430   19.8340 N   0  0  0  0  0  0  0  0  0  0  0  0
  -26.9100  -12.1600   20.0120 N   0  0  0  0  0  0  0  0  0  0  0  0
  -24.8670  -11.0390   20.6920 C   0  0  0  0  0  0  0  0  0  0  0  0
  -25.2350  -10.0200   21.5980 C   0  0  0  0  0  3  0  0  0  0  0  0
  -24.4190   -8.8800   21.7630 C   0  0  0  0  0  3  0  0  0  0  0  0
  -23.2200   -8.7480   21.0250 C   0  0  0  0  0  0  0  0  0  0  0  0
  -22.8680   -9.7560   20.1090 C   0  0  0  0  0  3  0  0  0  0  0  0
  -23.6840  -10.8870   19.9410 C   0  0  0  0  0  3  0  0  0  0  0  0
  -22.3800   -7.6620   21.0980 O   0  0  0  0  0  0  0  0  0  0  0  0
  -22.1210   -7.0350   22.2910 C   0  0  0  0  0  0  0  0  0  0  0  0
  -21.5190   -7.7140   23.3730 C   0  0  0  0  0  3  0  0  0  0  0  0
  -21.2020   -7.0140   24.5550 C   0  0  0  0  0  3  0  0  0  0  0  0
  -21.4790   -5.6370   24.6560 C   0  0  0  0  0  0  0  0  0  0  0  0
  -22.0730   -4.9580   23.5760 C   0  0  0  0  0  3  0  0  0  0  0  0
  -22.3880   -5.6550   22.3950 C   0  0  0  0  0  0  0  0  0  0  0  0
  -22.9400   -4.9900   21.3520 F   0  0  0  0  0  0  0  0  0  0  0  0
  -21.1690   -4.9630   25.7880 F   0  0  0  0  0  0  0  0  0  0  0  0
  -24.0570  -14.1750   21.2850 C   0  0  0  0  0  0  0  0  0  0  0  0
  -23.3990  -13.4640   22.1880 N   0  0  0  0  0  0  0  0  0  0  0  0
  -23.6480  -15.2820   20.9240 O   0  0  0  0  0  0  0  0  0  0  0  0
  -23.7460  -12.5700   22.5050 H   0  0  0  0  0  0  0  0  0  0  0  0
  -22.5360  -13.8180   22.5770 H   0  0  0  0  0  0  0  0  0  0  0  0
  -26.6660  -15.7210   20.2570 N   0  0  0  0  0  0  0  0  0  0  0  0
  -25.9280  -16.3870   20.4510 H   0  0  0  0  0  0  0  0  0  0  0  0
  -27.4510  -16.1240   19.7650 H   0  0  0  0  0  0  0  0  0  0  0  0
  -29.7200  -21.6950   18.7130 C   0  0  0  0  0 15  0  0  0  0  0  0
  -28.6850  -23.5050   19.0310 C   0  0  0  0  0 15  0  0  0  0  0  0
  -28.5620  -25.3780   18.8280 O   0  0  0  0  0  1  0  0  0  0  0  0
  -24.7400  -31.3060   22.6490 C   0  0  0  0  0  0  0  0  0  0  0  0
  -27.5080  -26.6030   19.0110 C   0  0  0  0  0  0  0  0  0  0  0  0
  -23.5980  -30.0120   20.9010 C   0  0  0  0  0  3  0  0  0  0  0  0
  -25.1040  -28.5910   19.2810 C   0  0  0  0  0  0  0  0  0  0  0  0
  -26.1710  -30.2920   20.7290 C   0  0  0  0  0  2  0  0  0  0  0  0
  -26.3090  -28.9240   19.9130 C   0  0  0  0  0  0  0  0  0  0  0  0
  -27.4800  -27.9730   19.7350 C   0  0  0  0  0  3  0  0  0  0  0  0
  -26.2400  -26.5380   18.3580 C   0  0  0  0  0  3  0  0  0  0  0  0
  -25.1220  -27.4350   18.4770 C   0  0  0  0  0  3  0  0  0  0  0  0
  -23.8430  -29.4690   19.4620 C   0  0  0  0  0  2  0  0  0  0  0  0
  -24.8630  -30.5710   21.4820 N   0  0  0  0  0  0  0  0  0  0  0  0
  -23.6420  -31.4750   23.2130 O   0  0  0  0  0  0  0  0  0  0  0  0
  -22.9650  -28.9040   21.7890 C   0  0  0  0  0  0  0  0  0  0  0  0
  -21.6390  -28.6770   21.6970 N   0  0  0  0  0  0  0  0  0  0  0  0
  -23.6840  -28.2400   22.5410 O   0  0  0  0  0  0  0  0  0  0  0  0
  -21.1000  -29.2690   21.0820 H   0  0  0  0  0  0  0  0  0  0  0  0
  -18.3610  -27.1780   22.2230 C   0  0  0  0  0  0  0  0  0  0  0  0
  -20.9110  -27.5990   22.3810 C   0  0  0  0  0  3  0  0  0  0  0  0
  -21.0670  -26.2560   21.6270 C   0  0  0  0  0  2  0  0  0  0  0  0
  -19.9260  -25.9780   20.6440 C   0  0  0  0  0  2  0  0  0  0  0  0
  -18.5860  -25.9350   21.3810 C   0  0  0  0  0  2  0  0  0  0  0  0
  -19.4490  -27.9670   22.6840 C   0  0  0  0  0  0  0  0  0  0  0  0
  -19.1790  -29.1200   23.4500 C   0  0  0  0  0  3  0  0  0  0  0  0
  -17.8530  -29.4930   23.7510 C   0  0  0  0  0  3  0  0  0  0  0  0
  -16.7810  -28.7060   23.2970 C   0  0  0  0  0  3  0  0  0  0  0  0
  -17.0360  -27.5480   22.5390 C   0  0  0  0  0  3  0  0  0  0  0  0
  -25.9620  -31.9870   23.3350 C   0  0  0  0  0  3  0  0  0  0  0  0
  -26.5940  -31.1050   24.4840 C   0  0  1  0  0  0  0  0  0  0  0  0
  -25.5730  -30.6280   25.5450 C   0  0  0  0  0  1  0  0  0  0  0  0
  -27.2760  -29.8480   23.9040 C   0  0  0  0  0  1  0  0  0  0  0  0
  -27.7000  -31.9050   25.2100 C   0  0  0  0  0  1  0  0  0  0  0  0
  -25.5250  -33.2830   23.9000 N   0  0  0  0  0  0  0  0  0  0  0  0
  -25.7270  -34.4840   23.3370 C   0  0  0  0  0  0  0  0  0  0  0  0
  -26.3500  -34.6190   22.2820 O   0  0  0  0  0  0  0  0  0  0  0  0
  -24.9570  -33.2390   24.7330 H   0  0  0  0  0  0  0  0  0  0  0  0
  -23.8360  -36.1560   23.3890 C   0  0  0  0  0  1  0  0  0  0  0  0
  -25.1540  -35.7260   24.0540 C   0  0  0  0  0  3  0  0  0  0  0  0
  -27.2440  -36.6760   24.9370 C   0  0  0  0  0  1  0  0  0  0  0  0
  -26.0820  -36.8770   24.0770 N   0  0  0  0  0  0  0  0  0  0  0  0
  -25.6040  -37.7220   24.3810 H   0  0  0  0  0  0  0  0  0  0  0  0
  -30.4510  -19.9160   20.9080 C   0  0  0  0  0  3  0  0  0  0  0  0
  -31.4460  -21.0740   21.2180 C   0  0  0  0  0  2  0  0  0  0  0  0
  -32.4070  -20.7600   22.2990 N   0  0  0  0  0  4  0  0  0  0  0  0
  -31.9770  -20.7410   23.2060 H   0  0  0  0  0  0  0  0  0  0  0  0
  -33.1250  -21.4640   22.3330 H   0  0  0  0  0  0  0  0  0  0  0  0
  -32.8590  -19.8800   22.1330 H   0  0  0  0  0  0  0  0  0  0  0  0
  -29.1940  -19.9360   21.8410 C   0  0  0  0  0  2  0  0  0  0  0  0
  -27.9870  -20.5920   21.2890 N   0  0  0  0  0  4  0  0  0  0  0  0
  -28.1880  -21.3190   20.6340 H   0  0  0  0  0  0  0  0  0  0  0  0
  -27.4510  -20.9990   22.0380 H   0  0  0  0  0  0  0  0  0  0  0  0
  -27.3920  -19.9150   20.8450 H   0  0  0  0  0  0  0  0  0  0  0  0
  1 83  1  0
  3  8  1  0
  4  5  1  0
  4  3  1  0
  6  5  1  0
  6 15  1  0
  6  7  1  0
  8  2  1  0
  8  7  1  0
  9  2  2  0
 10  2  1  0
 11 10  1  0
 12 13  2  0
 13 32  1  0
 14 17  1  0
 14 13  1  0
 15 16  1  0
 15 12  1  0
 16 14  2  0
 17 18  1  0
 18 19  2  0
 20 23  1  0
 20 19  1  0
 21 20  2  0
 22 21  1  0
 22 17  2  0
 23 24  1  0
 24 29  2  0
 24 25  1  0
 25 26  2  0
 26 27  1  0
 27 31  1  0
 28 27  2  0
 29 28  1  0
 30 29  1  0
 32 33  1  0
 33 35  1  0
 33 36  1  0
 34 32  2  0
 37 12  1  0
 37 38  1  0
 39 37  1  0
 42 44  1  0
 43 54  2  0
 44 49  1  0
 45 53  1  0
 45 55  1  0
 46 52  1  0
 46 48  1  0
 47 53  1  0
 48 47  1  0
 49 48  2  0
 50 51  1  0
 50 44  2  0
 51 46  2  0
 52 45  1  0
 53 43  1  0
 55 57  2  0
 56 55  1  0
 58 56  1  0
 59 68  2  0
 59 64  1  0
 60 56  1  0
 60 64  1  0
 61 60  1  0
 62 63  1  0
 62 61  1  0
 63 59  1  0
 64 65  2  0
 65 66  1  0
 67 66  2  0
 68 67  1  0
 69 43  1  0
 69 74  1  0
 69 70  1  0
 70 73  1  1
 70 71  1  0
 72 70  1  0
 74 77  1  0
 75 74  1  0
 75 79  1  0
 76 75  2  0
 79 78  1  0
 79 81  1  0
 81 82  1  0
 81 80  1  0
 83 84  1  0
 83 89  1  0
 84 85  1  0
 85 87  1  0
 85 86  1  0
 88 85  1  0
 90 89  1  0
 90 92  1  0
 91 90  1  0
 93 90  1  0
M  ISO  4   2 100  10 100  41 101  42 101
M  END
>  <TORSDO>  (44) 
F 23

>  <SCORE>  (44) 
-10.280

>  <name>  (44) 
44

>  <ligand_id>  (44) 
44

>  <original_smiles>  (44) 
[H]c1c([H])c([H])c2c(c1[H])C([H])([H])C([H])([H])C([H])([H])C2([H])N([H])C(=O)C1([H])N(C(=O)C([H])(N([H])C(=O)C([H])(N([H])C([H])([H])[H])C([H])([H])[H])C(C([H])([H])[H])(C([H])([H])[H])C([H])([H])[H])C([H])([H])c2c([H])c(OC([H])([H])C([H])([H])C([H])(N([H])C(=O)N3C([H])([H])C([H])([H])C([H])([H])C([H])(n4nc(-c5c([H])c([H])c(Oc6c([H])c([H])c(F)c([H])c6F)c([H])c5[H])c(C(=O)N([H])[H])c4N([H])[H])C3([H])[H])C([H])(C([H])([H])[N+]([H])([H])[H])C([H])([H])[N+]([H])([H])[H])c([H])c([H])c2C1([H])[H]

>  <smiles>  (44) 
[H]c1c([H])c([H])c2c(c1[H])C([H])([H])C([H])([H])C([H])([H])C2([H])N([H])C(=O)C1([H])N(C(=O)C([H])(N([H])C(=O)C([H])(N([H])C([H])([H])[H])C([H])([H])[H])C(C([H])([H])[H])(C([H])([H])[H])C([H])([H])[H])C([H])([H])c2c([H])c(OC([H])([H])C([H])([H])C([H])(N([H])C(=O)N3C([H])([H])C([H])([H])C([H])([H])C([H])(n4nc(-c5c([H])c([H])c(Oc6c([H])c([H])c(F)c([H])c6F)c([H])c5[H])c(C(=O)N([H])[H])c4N([H])[H])C3([H])[H])C([H])(C([H])([H])[N+]([H])([H])[H])C([H])([H])[N+]([H])([H])[H])c([H])c([H])c2C1([H])[H]

$$$$
45:0:0
     RDKit          3D

 97106  0  0  1  0  0  0  0  0999 V2000
  -29.8850  -19.9770   20.6010 C   0  0  0  0  0  3  0  0  0  0  0  0
  -30.7540  -14.4260   19.9880 C   0  0  0  0  0  0  0  0  0  0  0  0
  -30.3060  -12.3520   18.7690 C   0  0  0  0  0  2  0  0  0  0  0  0
  -29.2860  -12.6620   17.6550 C   0  0  0  0  0  2  0  0  0  0  0  0
  -27.8440  -12.5390   18.1850 C   0  0  0  0  0  2  0  0  0  0  0  0
  -27.6210  -13.2990   19.5220 C   0  0  0  0  0  3  0  0  0  0  0  0
  -28.7520  -12.9910   20.5280 C   0  0  0  0  0  2  0  0  0  0  0  0
  -30.0330  -13.2830   19.8690 N   0  0  0  0  0  0  0  0  0  0  0  0
  -31.9080  -14.5380   19.5610 O   0  0  0  0  0  0  0  0  0  0  0  0
  -29.4400  -17.8460   19.2090 C   0  0  0  0  0  2  0  0  0  0  0  0
  -29.4750  -17.5780   21.6400 C   0  0  0  0  0  2  0  0  0  0  0  0
  -29.9640  -16.4300   18.9770 C   0  0  0  0  0  2  0  0  0  0  0  0
  -29.9820  -16.1240   21.5300 C   0  0  0  0  0  2  0  0  0  0  0  0
  -30.0260  -18.4340   20.4930 C   0  0  0  0  0  3  0  0  0  0  0  0
  -30.0120  -15.5420   20.1680 N   0  0  0  0  0  0  0  0  0  0  0  0
  -25.2760  -13.8940   20.3970 C   0  0  0  0  0  0  0  0  0  0  0  0
  -24.2340  -13.1140   20.8230 C   0  0  0  0  0  0  0  0  0  0  0  0
  -24.6930  -11.7640   20.7420 C   0  0  0  0  0  0  0  0  0  0  0  0
  -26.3040  -13.0180   20.0870 N   0  0  0  0  0  0  0  0  0  0  0  0
  -25.9600  -11.7310   20.3500 N   0  0  0  0  0  0  0  0  0  0  0  0
  -23.9830  -10.4970   20.9590 C   0  0  0  0  0  0  0  0  0  0  0  0
  -24.4410   -9.5450   21.8960 C   0  0  0  0  0  3  0  0  0  0  0  0
  -23.7290   -8.3430   22.1000 C   0  0  0  0  0  3  0  0  0  0  0  0
  -22.5480   -8.0830   21.3670 C   0  0  0  0  0  0  0  0  0  0  0  0
  -22.1090   -9.0250   20.4200 C   0  0  0  0  0  3  0  0  0  0  0  0
  -22.8200  -10.2180   20.2140 C   0  0  0  0  0  3  0  0  0  0  0  0
  -21.8060   -6.9330   21.4810 O   0  0  0  0  0  0  0  0  0  0  0  0
  -21.7360   -6.2360   22.6600 C   0  0  0  0  0  0  0  0  0  0  0  0
  -21.2700   -6.8310   23.8520 C   0  0  0  0  0  3  0  0  0  0  0  0
  -21.1500   -6.0590   25.0240 C   0  0  0  0  0  3  0  0  0  0  0  0
  -21.4850   -4.6920   25.0060 C   0  0  0  0  0  0  0  0  0  0  0  0
  -21.9450   -4.0960   23.8180 C   0  0  0  0  0  3  0  0  0  0  0  0
  -22.0680   -4.8660   22.6480 C   0  0  0  0  0  0  0  0  0  0  0  0
  -22.4910   -4.2810   21.5010 F   0  0  0  0  0  0  0  0  0  0  0  0
  -21.3630   -3.9480   26.1290 F   0  0  0  0  0  0  0  0  0  0  0  0
  -22.8570  -13.5840   21.1930 C   0  0  0  0  0  0  0  0  0  0  0  0
  -22.1920  -12.8750   22.0980 N   0  0  0  0  0  0  0  0  0  0  0  0
  -22.3820  -14.6130   20.7140 O   0  0  0  0  0  0  0  0  0  0  0  0
  -22.5900  -12.0430   22.5050 H   0  0  0  0  0  0  0  0  0  0  0  0
  -21.2700  -13.1700   22.3890 H   0  0  0  0  0  0  0  0  0  0  0  0
  -25.4290  -15.2670   20.2310 N   0  0  0  0  0  0  0  0  0  0  0  0
  -24.6750  -15.9210   20.4100 H   0  0  0  0  0  0  0  0  0  0  0  0
  -26.2720  -15.7130   19.8920 H   0  0  0  0  0  0  0  0  0  0  0  0
  -31.8820  -21.4970   24.1680 C   0  0  0  0  0  3  0  0  0  0  0  0
  -30.5010  -21.2300   24.2010 C   0  0  0  0  0  3  0  0  0  0  0  0
  -32.6120  -21.2760   22.9840 C   0  0  0  0  0  3  0  0  0  0  0  0
  -29.8510  -20.7400   23.0530 C   0  0  0  0  0  3  0  0  0  0  0  0
  -31.9590  -20.7870   21.8340 C   0  0  0  0  0  3  0  0  0  0  0  0
  -30.5730  -20.5190   21.8570 C   0  0  0  0  0  0  0  0  0  0  0  0
  -28.4600  -20.5500   20.3570 C   0  0  0  0  0  2  0  0  0  0  0  0
  -28.4720  -21.9220   19.7940 N   0  0  0  0  0  4  0  0  0  0  0  0
  -29.2040  -21.9820   19.1050 H   0  0  0  0  0  0  0  0  0  0  0  0
  -27.5970  -22.0380   19.3070 H   0  0  0  0  0  0  0  0  0  0  0  0
  -28.5980  -23.0380   20.7550 C   0  0  0  0  0  2  0  0  0  0  0  0
  -28.5940  -24.3970   20.0340 C   0  0  0  0  0  2  0  0  0  0  0  0
  -28.5690  -25.5830   21.0050 C   0  0  0  0  0  2  0  0  0  0  0  0
  -28.5980  -26.8130   20.2860 O   0  0  0  0  0  0  0  0  0  0  0  0
  -24.6890  -31.9120   23.2810 C   0  0  0  0  0  0  0  0  0  0  0  0
  -27.4110  -27.4990   20.2720 C   0  0  0  0  0  0  0  0  0  0  0  0
  -23.5130  -30.4890   21.6340 C   0  0  0  0  0  3  0  0  0  0  0  0
  -24.9960  -28.9530   20.2420 C   0  0  0  0  0  0  0  0  0  0  0  0
  -26.0330  -30.8770   21.4590 C   0  0  0  0  0  2  0  0  0  0  0  0
  -26.1390  -29.5040   20.8350 C   0  0  0  0  0  0  0  0  0  0  0  0
  -27.3510  -28.7840   20.8450 C   0  0  0  0  0  3  0  0  0  0  0  0
  -26.2540  -26.9500   19.6800 C   0  0  0  0  0  3  0  0  0  0  0  0
  -25.0460  -27.6730   19.6640 C   0  0  0  0  0  3  0  0  0  0  0  0
  -23.7440  -29.7990   20.2650 C   0  0  0  0  0  2  0  0  0  0  0  0
  -24.7620  -31.1090   22.1840 N   0  0  0  0  0  0  0  0  0  0  0  0
  -23.6010  -32.1790   23.8090 O   0  0  0  0  0  0  0  0  0  0  0  0
  -22.8620  -29.4700   22.5960 C   0  0  0  0  0  0  0  0  0  0  0  0
  -21.5400  -29.2770   22.4560 N   0  0  0  0  0  0  0  0  0  0  0  0
  -23.5420  -28.8550   23.4230 O   0  0  0  0  0  0  0  0  0  0  0  0
  -21.0530  -29.8240   21.7600 H   0  0  0  0  0  0  0  0  0  0  0  0
  -18.1710  -28.0620   22.9170 C   0  0  0  0  0  0  0  0  0  0  0  0
  -20.7220  -28.3410   23.2240 C   0  0  0  0  0  3  0  0  0  0  0  0
  -20.8450  -26.9050   22.6620 C   0  0  0  0  0  2  0  0  0  0  0  0
  -19.7610  -26.5650   21.6370 C   0  0  0  0  0  2  0  0  0  0  0  0
  -18.3680  -26.7070   22.2580 C   0  0  0  0  0  2  0  0  0  0  0  0
  -19.2770  -28.8350   23.3570 C   0  0  0  0  0  0  0  0  0  0  0  0
  -19.0410  -30.1040   23.9320 C   0  0  0  0  0  3  0  0  0  0  0  0
  -17.7310  -30.5990   24.0690 C   0  0  0  0  0  3  0  0  0  0  0  0
  -16.6380  -29.8220   23.6460 C   0  0  0  0  0  3  0  0  0  0  0  0
  -16.8590  -28.5550   23.0760 C   0  0  0  0  0  3  0  0  0  0  0  0
  -25.9650  -32.5550   23.9100 C   0  0  0  0  0  3  0  0  0  0  0  0
  -25.6470  -33.9550   24.2170 N   0  0  0  0  0  0  0  0  0  0  0  0
  -25.9920  -34.9990   23.4510 C   0  0  0  0  0  0  0  0  0  0  0  0
  -26.6850  -34.8840   22.4350 O   0  0  0  0  0  0  0  0  0  0  0  0
  -25.0270  -34.1160   24.9980 H   0  0  0  0  0  0  0  0  0  0  0  0
  -24.2680  -36.7810   23.0380 C   0  0  0  0  0  1  0  0  0  0  0  0
  -25.4920  -36.3900   23.8800 C   0  0  0  0  0  3  0  0  0  0  0  0
  -27.6040  -37.2930   24.7460 C   0  0  0  0  0  1  0  0  0  0  0  0
  -26.5230  -37.4450   23.7760 N   0  0  0  0  0  0  0  0  0  0  0  0
  -26.1110  -38.3650   23.9010 H   0  0  0  0  0  0  0  0  0  0  0  0
  -26.4710  -31.8000   25.2000 C   0  0  1  0  0  0  0  0  0  0  0  0
  -25.3670  -31.5620   26.2560 C   0  0  0  0  0  1  0  0  0  0  0  0
  -27.0690  -30.4240   24.8240 C   0  0  0  0  0  1  0  0  0  0  0  0
  -27.6090  -32.6090   25.8650 C   0  0  0  0  0  1  0  0  0  0  0  0
  1 50  1  0
  1 49  1  0
  2 15  1  0
  3  8  1  0
  4  5  1  0
  4  3  1  0
  6  5  1  0
  6 19  1  0
  6  7  1  0
  8  2  1  0
  8  7  1  0
  9  2  2  0
 10 14  1  0
 12 10  1  0
 12 15  1  0
 13 11  1  0
 14  1  1  0
 14 11  1  0
 15 13  1  0
 16 17  2  0
 17 36  1  0
 18 17  1  0
 18 21  1  0
 19 20  1  0
 19 16  1  0
 20 18  2  0
 21 22  1  0
 22 23  2  0
 24 27  1  0
 24 23  1  0
 25 24  2  0
 26 25  1  0
 26 21  2  0
 27 28  1  0
 28 29  1  0
 29 30  2  0
 31 30  1  0
 31 35  1  0
 32 31  2  0
 33 28  2  0
 33 32  1  0
 34 33  1  0
 36 37  1  0
 37 40  1  0
 37 39  1  0
 38 36  2  0
 41 16  1  0
 41 42  1  0
 43 41  1  0
 44 45  1  0
 46 44  2  0
 47 45  2  0
 48 49  2  0
 48 46  1  0
 49 47  1  0
 51 50  1  0
 51 54  1  0
 52 51  1  0
 53 51  1  0
 55 54  1  0
 55 56  1  0
 57 56  1  0
 58 69  2  0
 59 57  1  0
 59 64  1  0
 60 68  1  0
 60 70  1  0
 61 67  1  0
 61 63  1  0
 62 68  1  0
 63 64  2  0
 63 62  1  0
 65 59  2  0
 66 65  1  0
 66 61  2  0
 67 60  1  0
 68 58  1  0
 70 72  2  0
 71 70  1  0
 73 71  1  0
 74 83  2  0
 74 79  1  0
 75 71  1  0
 75 79  1  0
 76 75  1  0
 77 78  1  0
 77 76  1  0
 78 74  1  0
 79 80  2  0
 80 81  1  0
 82 81  2  0
 83 82  1  0
 84 58  1  0
 84 85  1  0
 84 94  1  0
 85 88  1  0
 86 90  1  0
 86 85  1  0
 87 86  2  0
 90 89  1  0
 92 90  1  0
 92 93  1  0
 92 91  1  0
 94 97  1  1
 94 95  1  0
 96 94  1  0
M  ISO  4   2 100  15 100  56 101  57 101
M  END
>  <TORSDO>  (45) 
F 22

>  <SCORE>  (45) 
-12.790

>  <name>  (45) 
45

>  <ligand_id>  (45) 
45

>  <original_smiles>  (45) 
[H]c1c([H])c([H])c(C([H])(C2([H])C([H])([H])C([H])([H])N(C(=O)N3C([H])([H])C([H])([H])C([H])([H])C([H])(n4nc(-c5c([H])c([H])c(Oc6c([H])c([H])c(F)c([H])c6F)c([H])c5[H])c(C(=O)N([H])[H])c4N([H])[H])C3([H])[H])C([H])([H])C2([H])[H])C([H])([H])[N+]([H])([H])C([H])([H])C([H])([H])C([H])([H])Oc2c([H])c([H])c3c(c2[H])C([H])([H])N(C(=O)C([H])(N([H])C(=O)C([H])(N([H])C([H])([H])[H])C([H])([H])[H])C(C([H])([H])[H])(C([H])([H])[H])C([H])([H])[H])C([H])(C(=O)N([H])C2([H])c4c([H])c([H])c([H])c([H])c4C([H])([H])C([H])([H])C2([H])[H])C3([H])[H])c([H])c1[H]

>  <smiles>  (45) 
[H]c1c([H])c([H])c(C([H])(C2([H])C([H])([H])C([H])([H])N(C(=O)N3C([H])([H])C([H])([H])C([H])([H])C([H])(n4nc(-c5c([H])c([H])c(Oc6c([H])c([H])c(F)c([H])c6F)c([H])c5[H])c(C(=O)N([H])[H])c4N([H])[H])C3([H])[H])C([H])([H])C2([H])[H])C([H])([H])[N+]([H])([H])C([H])([H])C([H])([H])C([H])([H])Oc2c([H])c([H])c3c(c2[H])C([H])([H])N(C(=O)C([H])(N([H])C(=O)C([H])(N([H])C([H])([H])[H])C([H])([H])[H])C(C([H])([H])[H])(C([H])([H])[H])C([H])([H])[H])C([H])(C(=O)N([H])C2([H])c4c([H])c([H])c([H])c([H])c4C([H])([H])C([H])([H])C2([H])[H])C3([H])[H])c([H])c1[H]

$$$$
46:0:0
     RDKit          3D

 85 92  0  0  1  0  0  0  0  0999 V2000
  -30.2310  -16.0080   20.1680 C   0  0  0  0  0  0  0  0  0  0  0  0
  -30.4140  -13.3630   19.5150 C   0  0  0  0  0  2  0  0  0  0  0  0
  -29.5930  -12.7630   18.3320 C   0  0  0  0  0  2  0  0  0  0  0  0
  -28.1790  -12.3660   18.7770 C   0  0  0  0  0  2  0  0  0  0  0  0
  -27.5940  -13.4220   19.7380 C   0  0  0  0  0  3  0  0  0  0  0  0
  -28.5760  -13.9280   20.8310 C   0  0  0  0  0  2  0  0  0  0  0  0
  -29.7130  -14.6030   20.1370 N   0  0  0  0  0  0  0  0  0  0  0  0
  -31.4700  -15.8600   20.0720 O   0  0  0  0  0  0  0  0  0  0  0  0
  -29.6430  -18.6890   18.9770 C   0  0  0  0  0  2  0  0  0  0  0  0
  -29.5260  -18.7760   21.0860 C   0  0  0  0  0  2  0  0  0  0  0  0
  -28.9110  -20.3400   18.8360 C   0  0  0  0  0  2  0  0  0  0  0  0
  -28.7640  -20.4180   21.0030 C   0  0  0  0  0  2  0  0  0  0  0  0
  -29.5480  -17.4880   20.0830 N   0  0  0  0  0  0  0  0  0  0  0  0
  -28.9260  -21.5740   19.8840 N   0  0  0  0  0  0  0  0  0  0  0  0
  -29.9010  -21.8290   19.9360 H   0  0  0  0  0  0  0  0  0  0  0  0
  -25.2340  -13.9390   20.4940 C   0  0  0  0  0  0  0  0  0  0  0  0
  -24.1690  -13.1610   20.8440 C   0  0  0  0  0  0  0  0  0  0  0  0
  -24.6340  -11.8110   20.8100 C   0  0  0  0  0  0  0  0  0  0  0  0
  -26.2790  -13.0710   20.2580 N   0  0  0  0  0  0  0  0  0  0  0  0
  -25.9330  -11.7790   20.5150 N   0  0  0  0  0  0  0  0  0  0  0  0
  -23.8980  -10.5520   20.9880 C   0  0  0  0  0  0  0  0  0  0  0  0
  -24.2920   -9.5910   21.9460 C   0  0  0  0  0  3  0  0  0  0  0  0
  -23.5500   -8.4010   22.1140 C   0  0  0  0  0  3  0  0  0  0  0  0
  -22.3960   -8.1660   21.3290 C   0  0  0  0  0  0  0  0  0  0  0  0
  -22.0190   -9.1160   20.3630 C   0  0  0  0  0  3  0  0  0  0  0  0
  -22.7630  -10.2960   20.1920 C   0  0  0  0  0  3  0  0  0  0  0  0
  -21.6270   -7.0290   21.4070 O   0  0  0  0  0  0  0  0  0  0  0  0
  -21.5150   -6.3110   22.5690 C   0  0  0  0  0  0  0  0  0  0  0  0
  -21.0120   -6.8890   23.7560 C   0  0  0  0  0  3  0  0  0  0  0  0
  -20.8470   -6.0980   24.9090 C   0  0  0  0  0  3  0  0  0  0  0  0
  -21.1760   -4.7310   24.8800 C   0  0  0  0  0  0  0  0  0  0  0  0
  -21.6730   -4.1510   23.6980 C   0  0  0  0  0  3  0  0  0  0  0  0
  -21.8380   -4.9380   22.5450 C   0  0  0  0  0  0  0  0  0  0  0  0
  -22.2970   -4.3700   21.4030 F   0  0  0  0  0  0  0  0  0  0  0  0
  -21.0090   -3.9690   25.9870 F   0  0  0  0  0  0  0  0  0  0  0  0
  -22.7710  -13.6440   21.0900 C   0  0  0  0  0  0  0  0  0  0  0  0
  -22.0280  -12.9640   21.9560 N   0  0  0  0  0  0  0  0  0  0  0  0
  -22.3460  -14.6650   20.5490 O   0  0  0  0  0  0  0  0  0  0  0  0
  -22.3870  -12.1470   22.4270 H   0  0  0  0  0  0  0  0  0  0  0  0
  -21.0890  -13.2770   22.1560 H   0  0  0  0  0  0  0  0  0  0  0  0
  -25.3960  -15.3110   20.3230 N   0  0  0  0  0  0  0  0  0  0  0  0
  -24.6290  -15.9640   20.4500 H   0  0  0  0  0  0  0  0  0  0  0  0
  -26.2510  -15.7590   20.0190 H   0  0  0  0  0  0  0  0  0  0  0  0
  -27.8320  -23.5210   19.7160 C   0  0  0  0  0  1  0  0  0  0  0  0
  -28.1330  -25.3080   19.8340 O   0  0  0  0  0  0  0  0  0  0  0  0
  -24.6370  -31.7300   22.9690 C   0  0  0  0  0  0  0  0  0  0  0  0
  -27.1650  -26.5940   19.8430 C   0  0  0  0  0  0  0  0  0  0  0  0
  -23.4490  -30.3570   21.3170 C   0  0  0  0  0  3  0  0  0  0  0  0
  -24.8940  -28.7200   19.8570 C   0  0  0  0  0  0  0  0  0  0  0  0
  -26.0330  -30.4740   21.1850 C   0  0  0  0  0  2  0  0  0  0  0  0
  -26.0990  -29.0380   20.4940 C   0  0  0  0  0  0  0  0  0  0  0  0
  -27.2090  -28.0090   20.4510 C   0  0  0  0  0  3  0  0  0  0  0  0
  -25.9190  -26.5330   19.1560 C   0  0  0  0  0  3  0  0  0  0  0  0
  -24.8540  -27.4960   19.1640 C   0  0  0  0  0  3  0  0  0  0  0  0
  -23.6880  -29.6840   19.9330 C   0  0  0  0  0  2  0  0  0  0  0  0
  -24.7340  -30.8890   21.8770 N   0  0  0  0  0  0  0  0  0  0  0  0
  -23.5440  -32.0160   23.4920 O   0  0  0  0  0  0  0  0  0  0  0  0
  -22.7350  -29.3660   22.2780 C   0  0  0  0  0  0  0  0  0  0  0  0
  -21.3970  -29.2320   22.1850 N   0  0  0  0  0  0  0  0  0  0  0  0
  -23.4020  -28.7090   23.0810 O   0  0  0  0  0  0  0  0  0  0  0  0
  -20.9060  -29.8070   21.5140 H   0  0  0  0  0  0  0  0  0  0  0  0
  -18.0060  -28.0580   22.7890 C   0  0  0  0  0  0  0  0  0  0  0  0
  -20.5820  -28.2770   22.9490 C   0  0  0  0  0  3  0  0  0  0  0  0
  -20.6340  -26.8720   22.3070 C   0  0  0  0  0  2  0  0  0  0  0  0
  -19.4860  -26.6150   21.3270 C   0  0  0  0  0  2  0  0  0  0  0  0
  -18.1340  -26.7440   22.0360 C   0  0  0  0  0  2  0  0  0  0  0  0
  -19.1550  -28.7850   23.2030 C   0  0  0  0  0  0  0  0  0  0  0  0
  -18.9810  -30.0130   23.8770 C   0  0  0  0  0  3  0  0  0  0  0  0
  -17.6910  -30.5160   24.1360 C   0  0  0  0  0  3  0  0  0  0  0  0
  -16.5580  -29.7870   23.7330 C   0  0  0  0  0  3  0  0  0  0  0  0
  -16.7170  -28.5600   23.0650 C   0  0  0  0  0  3  0  0  0  0  0  0
  -25.8940  -32.3870   23.6150 C   0  0  0  0  0  3  0  0  0  0  0  0
  -25.5470  -33.7690   24.0130 N   0  0  0  0  0  0  0  0  0  0  0  0
  -25.8500  -34.8750   23.3190 C   0  0  0  0  0  0  0  0  0  0  0  0
  -26.5030  -34.8410   22.2730 O   0  0  0  0  0  0  0  0  0  0  0  0
  -24.9590  -33.8640   24.8260 H   0  0  0  0  0  0  0  0  0  0  0  0
  -24.0900  -36.6700   23.1130 C   0  0  0  0  0  1  0  0  0  0  0  0
  -25.3580  -36.2340   23.8660 C   0  0  0  0  0  3  0  0  0  0  0  0
  -27.4950  -37.1180   24.6970 C   0  0  0  0  0  1  0  0  0  0  0  0
  -26.3700  -37.3090   23.7850 N   0  0  0  0  0  0  0  0  0  0  0  0
  -25.9540  -38.2150   23.9790 H   0  0  0  0  0  0  0  0  0  0  0  0
  -26.4200  -31.5930   24.8760 C   0  0  1  0  0  0  0  0  0  0  0  0
  -25.3330  -31.3230   25.9440 C   0  0  0  0  0  1  0  0  0  0  0  0
  -27.0140  -30.2280   24.4630 C   0  0  0  0  0  1  0  0  0  0  0  0
  -27.5670  -32.3800   25.5510 C   0  0  0  0  0  1  0  0  0  0  0  0
  2  7  1  0
  3  4  1  0
  3  2  1  0
  5  4  1  0
  5 19  1  0
  5  6  1  0
  7  1  1  0
  7  6  1  0
  8  1  2  0
  9 13  1  0
 11  9  1  0
 11 14  1  0
 12 10  1  0
 13  1  1  0
 13 10  1  0
 14 15  1  0
 14 12  1  0
 16 17  2  0
 17 36  1  0
 18 17  1  0
 18 21  1  0
 19 16  1  0
 19 20  1  0
 20 18  2  0
 21 22  1  0
 22 23  2  0
 24 27  1  0
 24 23  1  0
 25 24  2  0
 26 25  1  0
 26 21  2  0
 27 28  1  0
 28 29  1  0
 29 30  2  0
 31 30  1  0
 31 35  1  0
 32 31  2  0
 33 28  2  0
 33 32  1  0
 34 33  1  0
 36 37  1  0
 37 40  1  0
 37 39  1  0
 38 36  2  0
 41 42  1  0
 41 16  1  0
 43 41  1  0
 44 45  1  0
 45 47  1  0
 46 57  2  0
 47 52  1  0
 48 56  1  0
 48 58  1  0
 49 55  1  0
 49 51  1  0
 50 56  1  0
 51 50  1  0
 52 51  2  0
 53 54  1  0
 53 47  2  0
 54 49  2  0
 55 48  1  0
 56 46  1  0
 58 60  2  0
 59 58  1  0
 61 59  1  0
 62 71  2  0
 62 67  1  0
 63 59  1  0
 63 67  1  0
 64 63  1  0
 65 66  1  0
 65 64  1  0
 66 62  1  0
 67 68  2  0
 68 69  1  0
 70 69  2  0
 71 70  1  0
 72 46  1  0
 72 73  1  0
 72 82  1  0
 73 76  1  0
 74 78  1  0
 74 73  1  0
 75 74  2  0
 78 77  1  0
 80 78  1  0
 80 81  1  0
 80 79  1  0
 82 85  1  1
 82 83  1  0
 84 82  1  0
M  ISO  4   1 100  13 100  44 101  45 101
M  END
>  <TORSDO>  (46) 
F 16

>  <SCORE>  (46) 
-15.843

>  <name>  (46) 
46

>  <ligand_id>  (46) 
46

>  <original_smiles>  (46) 
[H]c1c([H])c([H])c2c(c1[H])C([H])([H])C([H])([H])C([H])([H])C2([H])N([H])C(=O)C1([H])N(C(=O)C([H])(N([H])C(=O)C([H])(N([H])C([H])([H])[H])C([H])([H])[H])C(C([H])([H])[H])(C([H])([H])[H])C([H])([H])[H])C([H])([H])c2c([H])c(OC([H])([H])[N+]3([H])C([H])([H])C([H])([H])N(C(=O)N4C([H])([H])C([H])([H])C([H])([H])C([H])(n5nc(-c6c([H])c([H])c(Oc7c([H])c([H])c(F)c([H])c7F)c([H])c6[H])c(C(=O)N([H])[H])c5N([H])[H])C4([H])[H])C([H])([H])C3([H])[H])c([H])c([H])c2C1([H])[H]

>  <smiles>  (46) 
[H]c1c([H])c([H])c2c(c1[H])C([H])([H])C([H])([H])C([H])([H])C2([H])N([H])C(=O)C1([H])N(C(=O)C([H])(N([H])C(=O)C([H])(N([H])C([H])([H])[H])C([H])([H])[H])C(C([H])([H])[H])(C([H])([H])[H])C([H])([H])[H])C([H])([H])c2c([H])c(OC([H])([H])[N+]3([H])C([H])([H])C([H])([H])N(C(=O)N4C([H])([H])C([H])([H])C([H])([H])C([H])(n5nc(-c6c([H])c([H])c(Oc7c([H])c([H])c(F)c([H])c7F)c([H])c6[H])c(C(=O)N([H])[H])c5N([H])[H])C4([H])[H])C([H])([H])C3([H])[H])c([H])c([H])c2C1([H])[H]

$$$$
47:0:0
     RDKit          3D

 93100  0  0  1  0  0  0  0  0999 V2000
  -27.8770  -21.9370   20.3670 N   0  0  0  0  0  4  0  0  0  0  0  0
  -28.5860  -21.8670   21.0780 H   0  0  0  0  0  0  0  0  0  0  0  0
  -27.0060  -22.1120   20.8400 H   0  0  0  0  0  0  0  0  0  0  0  0
  -27.7610  -20.6470   19.6540 C   0  0  0  0  0  2  0  0  0  0  0  0
  -28.0060  -19.4430   20.5860 C   0  0  0  0  0  2  0  0  0  0  0  0
  -29.3730  -18.7580   20.3640 C   0  0  0  0  0  2  0  0  0  0  0  0
  -29.8100  -17.8220   21.5090 C   0  0  0  0  0  2  0  0  0  0  0  0
  -30.9140  -14.4320   20.1070 C   0  0  0  0  0  0  0  0  0  0  0  0
  -30.5000  -12.3190   18.9060 C   0  0  0  0  0  2  0  0  0  0  0  0
  -29.5030  -12.5640   17.7570 C   0  0  0  0  0  2  0  0  0  0  0  0
  -28.0480  -12.4430   18.2580 C   0  0  0  0  0  2  0  0  0  0  0  0
  -27.7850  -13.2630   19.5490 C   0  0  0  0  0  3  0  0  0  0  0  0
  -28.8930  -13.0030   20.5950 C   0  0  0  0  0  2  0  0  0  0  0  0
  -30.1960  -13.2850   19.9710 N   0  0  0  0  0  0  0  0  0  0  0  0
  -32.0030  -14.6320   19.5490 O   0  0  0  0  0  0  0  0  0  0  0  0
  -30.7500  -16.7760   20.9730 C   0  0  0  0  0  0  0  0  0  0  0  0
  -30.2670  -15.5120   20.8040 N   0  0  0  0  0  0  0  0  0  0  0  0
  -32.0010  -17.1710   20.6540 N   0  0  0  0  0  4  0  0  0  0  0  0
  -29.3500  -15.3710   21.1880 H   0  0  0  0  0  0  0  0  0  0  0  0
  -32.3120  -18.1280   20.7500 H   0  0  0  0  0  0  0  0  0  0  0  0
  -32.6470  -16.5000   20.2510 H   0  0  0  0  0  0  0  0  0  0  0  0
  -25.4360  -13.8920   20.3970 C   0  0  0  0  0  0  0  0  0  0  0  0
  -24.3800  -13.1270   20.8090 C   0  0  0  0  0  0  0  0  0  0  0  0
  -24.8190  -11.7700   20.7300 C   0  0  0  0  0  0  0  0  0  0  0  0
  -26.4540  -13.0000   20.0910 N   0  0  0  0  0  0  0  0  0  0  0  0
  -26.0910  -11.7180   20.3530 N   0  0  0  0  0  0  0  0  0  0  0  0
  -24.0880  -10.5130   20.9380 C   0  0  0  0  0  0  0  0  0  0  0  0
  -24.5200   -9.5540   21.8800 C   0  0  0  0  0  3  0  0  0  0  0  0
  -23.7920   -8.3610   22.0750 C   0  0  0  0  0  3  0  0  0  0  0  0
  -22.6160   -8.1190   21.3240 C   0  0  0  0  0  0  0  0  0  0  0  0
  -22.1980   -9.0690   20.3740 C   0  0  0  0  0  3  0  0  0  0  0  0
  -22.9280  -10.2540   20.1800 C   0  0  0  0  0  3  0  0  0  0  0  0
  -21.8580   -6.9780   21.4290 O   0  0  0  0  0  0  0  0  0  0  0  0
  -21.7680   -6.2780   22.6050 C   0  0  0  0  0  0  0  0  0  0  0  0
  -21.3030   -6.8770   23.7960 C   0  0  0  0  0  3  0  0  0  0  0  0
  -21.1590   -6.1040   24.9650 C   0  0  0  0  0  3  0  0  0  0  0  0
  -21.4730   -4.7320   24.9450 C   0  0  0  0  0  0  0  0  0  0  0  0
  -21.9310   -4.1310   23.7580 C   0  0  0  0  0  3  0  0  0  0  0  0
  -22.0750   -4.9030   22.5920 C   0  0  0  0  0  0  0  0  0  0  0  0
  -22.4970   -4.3150   21.4450 F   0  0  0  0  0  0  0  0  0  0  0  0
  -21.3280   -3.9860   26.0640 F   0  0  0  0  0  0  0  0  0  0  0  0
  -23.0030  -13.6180   21.1620 C   0  0  0  0  0  0  0  0  0  0  0  0
  -22.3110  -12.9210   22.0540 N   0  0  0  0  0  0  0  0  0  0  0  0
  -22.5520  -14.6550   20.6790 O   0  0  0  0  0  0  0  0  0  0  0  0
  -22.6880  -12.0810   22.4660 H   0  0  0  0  0  0  0  0  0  0  0  0
  -21.3930  -13.2350   22.3340 H   0  0  0  0  0  0  0  0  0  0  0  0
  -25.6110  -15.2640   20.2370 N   0  0  0  0  0  0  0  0  0  0  0  0
  -24.8430  -15.9110   20.3890 H   0  0  0  0  0  0  0  0  0  0  0  0
  -26.4090  -15.6910   19.7880 H   0  0  0  0  0  0  0  0  0  0  0  0
  -28.1990  -23.0930   19.5010 C   0  0  0  0  0  2  0  0  0  0  0  0
  -28.1980  -24.4040   20.3040 C   0  0  0  0  0  2  0  0  0  0  0  0
  -28.6660  -25.6100   19.4810 C   0  0  0  0  0  2  0  0  0  0  0  0
  -28.4960  -26.8140   20.2270 O   0  0  0  0  0  0  0  0  0  0  0  0
  -24.5860  -31.8920   23.2750 C   0  0  0  0  0  0  0  0  0  0  0  0
  -27.2780  -27.4610   20.2240 C   0  0  0  0  0  0  0  0  0  0  0  0
  -23.3960  -30.4760   21.6300 C   0  0  0  0  0  3  0  0  0  0  0  0
  -24.8630  -28.9330   20.2300 C   0  0  0  0  0  0  0  0  0  0  0  0
  -25.9150  -30.8490   21.4410 C   0  0  0  0  0  2  0  0  0  0  0  0
  -26.0120  -29.4710   20.8230 C   0  0  0  0  0  0  0  0  0  0  0  0
  -27.2180  -28.7380   20.8230 C   0  0  0  0  0  3  0  0  0  0  0  0
  -26.1030  -26.9240   19.6420 C   0  0  0  0  0  3  0  0  0  0  0  0
  -24.9030  -27.6570   19.6440 C   0  0  0  0  0  3  0  0  0  0  0  0
  -23.6130  -29.7820   20.2570 C   0  0  0  0  0  2  0  0  0  0  0  0
  -24.6490  -31.0870   22.1760 N   0  0  0  0  0  0  0  0  0  0  0  0
  -23.5020  -32.1690   23.8080 O   0  0  0  0  0  0  0  0  0  0  0  0
  -22.7410  -29.4620   22.5940 C   0  0  0  0  0  0  0  0  0  0  0  0
  -21.4160  -29.2880   22.4670 N   0  0  0  0  0  0  0  0  0  0  0  0
  -23.4230  -28.8320   23.4070 O   0  0  0  0  0  0  0  0  0  0  0  0
  -20.9310  -29.8590   21.7880 H   0  0  0  0  0  0  0  0  0  0  0  0
  -18.0320  -28.1160   22.9510 C   0  0  0  0  0  0  0  0  0  0  0  0
  -20.5920  -28.3480   23.2280 C   0  0  0  0  0  3  0  0  0  0  0  0
  -20.6830  -26.9210   22.6360 C   0  0  0  0  0  2  0  0  0  0  0  0
  -19.5790  -26.6250   21.6170 C   0  0  0  0  0  2  0  0  0  0  0  0
  -18.1970  -26.7710   22.2620 C   0  0  0  0  0  2  0  0  0  0  0  0
  -19.1580  -28.8630   23.3870 C   0  0  0  0  0  0  0  0  0  0  0  0
  -18.9550  -30.1270   23.9810 C   0  0  0  0  0  3  0  0  0  0  0  0
  -17.6570  -30.6420   24.1460 C   0  0  0  0  0  3  0  0  0  0  0  0
  -16.5450  -29.8930   23.7250 C   0  0  0  0  0  3  0  0  0  0  0  0
  -16.7300  -28.6300   23.1350 C   0  0  0  0  0  3  0  0  0  0  0  0
  -25.8700  -32.5230   23.9010 C   0  0  0  0  0  3  0  0  0  0  0  0
  -26.3700  -31.7670   25.1910 C   0  0  1  0  0  0  0  0  0  0  0  0
  -25.2620  -31.5460   26.2490 C   0  0  0  0  0  1  0  0  0  0  0  0
  -26.9560  -30.3850   24.8170 C   0  0  0  0  0  1  0  0  0  0  0  0
  -27.5190  -32.5630   25.8540 C   0  0  0  0  0  1  0  0  0  0  0  0
  -25.5670  -33.9270   24.2050 N   0  0  0  0  0  0  0  0  0  0  0  0
  -25.9100  -34.9640   23.4280 C   0  0  0  0  0  0  0  0  0  0  0  0
  -26.5890  -34.8370   22.4040 O   0  0  0  0  0  0  0  0  0  0  0  0
  -24.9620  -34.0970   24.9950 H   0  0  0  0  0  0  0  0  0  0  0  0
  -24.1910  -36.7530   23.0200 C   0  0  0  0  0  1  0  0  0  0  0  0
  -25.4220  -36.3620   23.8500 C   0  0  0  0  0  3  0  0  0  0  0  0
  -27.5510  -37.2570   24.6850 C   0  0  0  0  0  1  0  0  0  0  0  0
  -26.4600  -37.4090   23.7270 N   0  0  0  0  0  0  0  0  0  0  0  0
  -26.0550  -38.3330   23.8500 H   0  0  0  0  0  0  0  0  0  0  0  0
  1  3  1  0
  1  2  1  0
  4  1  1  0
  4  5  1  0
  6  5  1  0
  6  7  1  0
  8 17  1  0
  9 14  1  0
 10 11  1  0
 10  9  1  0
 12 11  1  0
 12 25  1  0
 12 13  1  0
 14  8  1  0
 14 13  1  0
 15  8  2  0
 16  7  1  0
 17 16  1  0
 17 19  1  0
 18 20  1  0
 18 16  2  0
 21 18  1  0
 22 23  2  0
 23 42  1  0
 24 23  1  0
 24 27  1  0
 25 26  1  0
 25 22  1  0
 26 24  2  0
 27 28  1  0
 28 29  2  0
 30 33  1  0
 30 29  1  0
 31 30  2  0
 32 31  1  0
 32 27  2  0
 33 34  1  0
 34 35  1  0
 35 36  2  0
 37 36  1  0
 37 41  1  0
 38 37  2  0
 39 34  2  0
 39 38  1  0
 40 39  1  0
 42 43  1  0
 43 46  1  0
 43 45  1  0
 44 42  2  0
 47 48  1  0
 47 22  1  0
 49 47  1  0
 50 51  1  0
 50  1  1  0
 52 53  1  0
 52 51  1  0
 54 65  2  0
 55 53  1  0
 55 60  1  0
 56 64  1  0
 56 66  1  0
 57 63  1  0
 57 59  1  0
 58 64  1  0
 59 58  1  0
 60 59  2  0
 61 62  1  0
 61 55  2  0
 62 57  2  0
 63 56  1  0
 64 54  1  0
 66 68  2  0
 67 66  1  0
 69 67  1  0
 70 79  2  0
 70 75  1  0
 71 67  1  0
 71 75  1  0
 72 71  1  0
 73 74  1  0
 73 72  1  0
 74 70  1  0
 75 76  2  0
 76 77  1  0
 78 77  2  0
 79 78  1  0
 80 54  1  0
 80 85  1  0
 80 81  1  0
 81 84  1  1
 81 82  1  0
 83 81  1  0
 85 88  1  0
 86 90  1  0
 86 85  1  0
 87 86  2  0
 90 89  1  0
 92 93  1  0
 92 90  1  0
 92 91  1  0
M  ISO  4   8 100  17 100  52 101  53 101
M  END
>  <TORSDO>  (47) 
F 23

>  <SCORE>  (47) 
-12.338

>  <name>  (47) 
47

>  <ligand_id>  (47) 
47

>  <original_smiles>  (47) 
[H]c1c([H])c([H])c2c(c1[H])C([H])([H])C([H])([H])C([H])([H])C2([H])N([H])C(=O)C1([H])N(C(=O)C([H])(N([H])C(=O)C([H])(N([H])C([H])([H])[H])C([H])([H])[H])C(C([H])([H])[H])(C([H])([H])[H])C([H])([H])[H])C([H])([H])c2c([H])c(OC([H])([H])C([H])([H])C([H])([H])[N+]([H])([H])C([H])([H])C([H])([H])C([H])([H])C([H])([H])C(N([H])C(=O)N3C([H])([H])C([H])([H])C([H])([H])C([H])(n4nc(-c5c([H])c([H])c(Oc6c([H])c([H])c(F)c([H])c6F)c([H])c5[H])c(C(=O)N([H])[H])c4N([H])[H])C3([H])[H])=[N+]([H])[H])c([H])c([H])c2C1([H])[H]

>  <smiles>  (47) 
[H]c1c([H])c([H])c2c(c1[H])C([H])([H])C([H])([H])C([H])([H])C2([H])N([H])C(=O)C1([H])N(C(=O)C([H])(N([H])C(=O)C([H])(N([H])C([H])([H])[H])C([H])([H])[H])C(C([H])([H])[H])(C([H])([H])[H])C([H])([H])[H])C([H])([H])c2c([H])c(OC([H])([H])C([H])([H])C([H])([H])[N+]([H])([H])C([H])([H])C([H])([H])C([H])([H])C([H])([H])C(N([H])C(=O)N3C([H])([H])C([H])([H])C([H])([H])C([H])(n4nc(-c5c([H])c([H])c(Oc6c([H])c([H])c(F)c([H])c6F)c([H])c5[H])c(C(=O)N([H])[H])c4N([H])[H])C3([H])[H])=[N+]([H])[H])c([H])c([H])c2C1([H])[H]

$$$$
49:0:0
     RDKit          3D

 97104  0  0  1  0  0  0  0  0999 V2000
  -29.3840  -20.5010   19.8260 C   0  0  0  0  0  3  0  0  0  0  0  0
  -29.4690  -22.3840   19.4630 C   0  0  0  0  0  3  0  0  0  0  0  0
  -28.4970  -24.0020   19.8130 C   0  0  0  0  0  3  0  0  0  0  0  0
  -28.6560  -25.7350   19.7760 O   0  0  0  0  0  0  0  0  0  0  0  0
  -25.0260  -31.7440   23.0210 C   0  0  0  0  0  0  0  0  0  0  0  0
  -27.6410  -26.8960   19.8040 C   0  0  0  0  0  0  0  0  0  0  0  0
  -23.8610  -30.4090   21.3160 C   0  0  0  0  0  3  0  0  0  0  0  0
  -25.3340  -28.8590   19.8320 C   0  0  0  0  0  0  0  0  0  0  0  0
  -26.4330  -30.6120   21.2010 C   0  0  0  0  0  2  0  0  0  0  0  0
  -26.5220  -29.2180   20.4790 C   0  0  0  0  0  0  0  0  0  0  0  0
  -27.6630  -28.2660   20.4300 C   0  0  0  0  0  3  0  0  0  0  0  0
  -26.4120  -26.7320   19.1160 C   0  0  0  0  0  3  0  0  0  0  0  0
  -25.3140  -27.6420   19.1280 C   0  0  0  0  0  3  0  0  0  0  0  0
  -24.1120  -29.7870   19.9140 C   0  0  0  0  0  2  0  0  0  0  0  0
  -25.1300  -30.9510   21.9010 N   0  0  0  0  0  0  0  0  0  0  0  0
  -23.9280  -32.0030   23.5420 O   0  0  0  0  0  0  0  0  0  0  0  0
  -23.1610  -29.3720   22.2360 C   0  0  0  0  0  0  0  0  0  0  0  0
  -21.8310  -29.2120   22.1100 N   0  0  0  0  0  0  0  0  0  0  0  0
  -23.8280  -28.7120   23.0370 O   0  0  0  0  0  0  0  0  0  0  0  0
  -21.3420  -29.8020   21.4500 H   0  0  0  0  0  0  0  0  0  0  0  0
  -18.4530  -27.9530   22.5820 C   0  0  0  0  0  0  0  0  0  0  0  0
  -21.0140  -28.2280   22.8340 C   0  0  0  0  0  3  0  0  0  0  0  0
  -21.1190  -26.8290   22.1810 C   0  0  0  0  0  2  0  0  0  0  0  0
  -20.0100  -26.5550   21.1590 C   0  0  0  0  0  2  0  0  0  0  0  0
  -18.6340  -26.6490   21.8240 C   0  0  0  0  0  2  0  0  0  0  0  0
  -19.5690  -28.7020   23.0410 C   0  0  0  0  0  0  0  0  0  0  0  0
  -19.3440  -29.9210   23.7160 C   0  0  0  0  0  3  0  0  0  0  0  0
  -18.0350  -30.3950   23.9290 C   0  0  0  0  0  3  0  0  0  0  0  0
  -16.9340  -29.6440   23.4820 C   0  0  0  0  0  3  0  0  0  0  0  0
  -17.1440  -28.4250   22.8160 C   0  0  0  0  0  3  0  0  0  0  0  0
  -26.2790  -32.3800   23.6950 C   0  0  0  0  0  3  0  0  0  0  0  0
  -26.8280  -31.5280   24.9060 C   0  0  1  0  0  0  0  0  0  0  0  0
  -25.7450  -31.1430   25.9420 C   0  0  0  0  0  1  0  0  0  0  0  0
  -27.4830  -30.2200   24.4110 C   0  0  0  0  0  1  0  0  0  0  0  0
  -27.9360  -32.3200   25.6420 C   0  0  0  0  0  1  0  0  0  0  0  0
  -25.9150  -33.7340   24.1600 N   0  0  0  0  0  0  0  0  0  0  0  0
  -26.2210  -34.8750   23.5280 C   0  0  0  0  0  0  0  0  0  0  0  0
  -26.8980  -34.9000   22.4970 O   0  0  0  0  0  0  0  0  0  0  0  0
  -25.3110  -33.7830   24.9660 H   0  0  0  0  0  0  0  0  0  0  0  0
  -24.4420  -36.6530   23.3710 C   0  0  0  0  0  1  0  0  0  0  0  0
  -25.6980  -36.1970   24.1310 C   0  0  0  0  0  3  0  0  0  0  0  0
  -27.8150  -37.0500   25.0430 C   0  0  0  0  0  1  0  0  0  0  0  0
  -26.7010  -37.2860   24.1270 N   0  0  0  0  0  0  0  0  0  0  0  0
  -26.2710  -38.1730   24.3730 H   0  0  0  0  0  0  0  0  0  0  0  0
  -30.2330  -18.8500   19.2720 C   0  0  0  0  0  2  0  0  0  0  0  0
  -30.8630  -15.7670   19.2300 C   0  0  0  0  0  0  0  0  0  0  0  0
  -30.8560  -13.2550   18.3300 C   0  0  0  0  0  2  0  0  0  0  0  0
  -29.7470  -12.8610   17.3090 C   0  0  0  0  0  2  0  0  0  0  0  0
  -28.4300  -12.4890   18.0100 C   0  0  0  0  0  2  0  0  0  0  0  0
  -28.1340  -13.4460   19.1840 C   0  0  0  0  0  3  0  0  0  0  0  0
  -29.3690  -13.6620   20.0810 C   0  0  0  0  0  2  0  0  0  0  0  0
  -30.3780  -14.3820   19.2540 N   0  0  0  0  0  0  0  0  0  0  0  0
  -31.9880  -15.7600   18.6980 O   0  0  0  0  0  0  0  0  0  0  0  0
  -30.1430  -17.1070   19.5950 N   0  0  0  0  0  0  0  0  0  0  0  0
  -26.0390  -13.9290   20.5480 C   0  0  0  0  0  0  0  0  0  0  0  0
  -25.0470  -13.1340   21.0420 C   0  0  0  0  0  0  0  0  0  0  0  0
  -25.4090  -11.7940   20.7030 C   0  0  0  0  0  0  0  0  0  0  0  0
  -26.9440  -13.0780   19.9380 N   0  0  0  0  0  0  0  0  0  0  0  0
  -26.5910  -11.7750   20.0930 N   0  0  0  0  0  0  0  0  0  0  0  0
  -24.6630  -10.5400   20.8700 C   0  0  0  0  0  0  0  0  0  0  0  0
  -25.1030   -9.5310   21.7540 C   0  0  0  0  0  3  0  0  0  0  0  0
  -24.3550   -8.3440   21.9130 C   0  0  0  0  0  3  0  0  0  0  0  0
  -23.1540   -8.1580   21.1870 C   0  0  0  0  0  0  0  0  0  0  0  0
  -22.7330   -9.1560   20.2920 C   0  0  0  0  0  3  0  0  0  0  0  0
  -23.4810  -10.3340   20.1300 C   0  0  0  0  0  3  0  0  0  0  0  0
  -22.3770   -7.0270   21.2590 O   0  0  0  0  0  0  0  0  0  0  0  0
  -22.1510   -6.3830   22.4480 C   0  0  0  0  0  0  0  0  0  0  0  0
  -21.5800   -7.0440   23.5570 C   0  0  0  0  0  3  0  0  0  0  0  0
  -21.3010   -6.3270   24.7390 C   0  0  0  0  0  3  0  0  0  0  0  0
  -21.5830   -4.9500   24.8100 C   0  0  0  0  0  0  0  0  0  0  0  0
  -22.1460   -4.2880   23.7050 C   0  0  0  0  0  3  0  0  0  0  0  0
  -22.4260   -5.0020   22.5270 C   0  0  0  0  0  0  0  0  0  0  0  0
  -22.9500   -4.3560   21.4570 F   0  0  0  0  0  0  0  0  0  0  0  0
  -21.3090   -4.2590   25.9410 F   0  0  0  0  0  0  0  0  0  0  0  0
  -23.7790  -13.6030   21.6940 C   0  0  0  0  0  0  0  0  0  0  0  0
  -23.2480  -12.8290   22.6330 N   0  0  0  0  0  0  0  0  0  0  0  0
  -23.2790  -14.6910   21.4070 O   0  0  0  0  0  0  0  0  0  0  0  0
  -23.6680  -11.9460   22.8840 H   0  0  0  0  0  0  0  0  0  0  0  0
  -22.4070  -13.1220   23.1070 H   0  0  0  0  0  0  0  0  0  0  0  0
  -26.2300  -15.3080   20.5330 N   0  0  0  0  0  0  0  0  0  0  0  0
  -25.5240  -15.9400   20.8960 H   0  0  0  0  0  0  0  0  0  0  0  0
  -26.9410  -15.7760   19.9910 H   0  0  0  0  0  0  0  0  0  0  0  0
  -29.1660  -16.9850   20.6830 C   0  0  0  0  0  2  0  0  0  0  0  0
  -29.6330  -17.6180   22.0340 C   0  0  0  0  0  3  0  0  0  0  0  0
  -28.7100  -17.2070   23.0820 N   0  0  0  0  0  0  0  0  0  0  0  0
  -28.6710  -16.1920   23.1290 H   0  0  0  0  0  0  0  0  0  0  0  0
  -27.7580  -17.4670   22.8460 H   0  0  0  0  0  0  0  0  0  0  0  0
  -31.0480  -17.2890   22.5650 C   0  0  0  0  0  2  0  0  0  0  0  0
  -31.3510  -18.1660   23.7000 N   0  0  0  0  0  4  0  0  0  0  0  0
  -31.5390  -19.1040   23.3990 H   0  0  0  0  0  0  0  0  0  0  0  0
  -32.1260  -17.8180   24.2350 H   0  0  0  0  0  0  0  0  0  0  0  0
  -30.5150  -18.1670   24.2640 H   0  0  0  0  0  0  0  0  0  0  0  0
  -29.3770  -20.5130   21.3670 C   0  0  0  0  0  2  0  0  0  0  0  0
  -30.7070  -20.8100   21.9280 N   0  0  0  0  0  4  0  0  0  0  0  0
  -31.4050  -20.1760   21.5850 H   0  0  0  0  0  0  0  0  0  0  0  0
  -30.6820  -20.7420   22.9300 H   0  0  0  0  0  0  0  0  0  0  0  0
  -30.9920  -21.7450   21.6920 H   0  0  0  0  0  0  0  0  0  0  0  0
  1 45  1  0
  1 93  1  0
  2  3  2  0
  2  1  1  0
  4  6  1  0
  4  3  1  0
  5 16  2  0
  6 11  1  0
  7 15  1  0
  7 17  1  0
  8 14  1  0
  8 10  1  0
  9 15  1  0
 10  9  1  0
 11 10  2  0
 12 13  1  0
 12  6  2  0
 13  8  2  0
 14  7  1  0
 15  5  1  0
 17 19  2  0
 18 17  1  0
 20 18  1  0
 21 30  2  0
 21 26  1  0
 22 18  1  0
 22 26  1  0
 23 22  1  0
 24 25  1  0
 24 23  1  0
 25 21  1  0
 26 27  2  0
 27 28  1  0
 29 28  2  0
 30 29  1  0
 31  5  1  0
 31 36  1  0
 31 32  1  0
 32 35  1  1
 32 33  1  0
 34 32  1  0
 36 39  1  0
 37 41  1  0
 37 36  1  0
 38 37  2  0
 41 40  1  0
 43 41  1  0
 43 44  1  0
 43 42  1  0
 45 54  1  0
 46 52  1  0
 46 54  1  0
 47 52  1  0
 48 49  1  0
 48 47  1  0
 50 49  1  0
 50 58  1  0
 50 51  1  0
 52 51  1  0
 53 46  2  0
 54 83  1  0
 55 56  2  0
 56 75  1  0
 57 60  1  0
 57 56  1  0
 58 59  1  0
 58 55  1  0
 59 57  2  0
 60 61  1  0
 61 62  2  0
 63 66  1  0
 63 62  1  0
 64 63  2  0
 65 64  1  0
 65 60  2  0
 66 67  1  0
 67 72  2  0
 67 68  1  0
 68 69  2  0
 69 70  1  0
 70 74  1  0
 71 70  2  0
 72 71  1  0
 73 72  1  0
 75 76  1  0
 76 78  1  0
 76 79  1  0
 77 75  2  0
 80 55  1  0
 80 81  1  0
 82 80  1  0
 84 83  1  0
 84 88  1  0
 84 85  1  0
 85 86  1  0
 87 85  1  0
 88 89  1  0
 89 91  1  0
 89 92  1  0
 90 89  1  0
 93 94  1  0
 94 96  1  0
 95 94  1  0
 97 94  1  0
M  ISO  4   3 101   4 101  46 100  54 100
M  END
>  <TORSDO>  (48) 
F 26

>  <SCORE>  (48) 
-6.594

>  <name>  (48) 
49

>  <ligand_id>  (48) 
49

>  <original_smiles>  (48) 
[H]c1c([H])c([H])c2c(c1[H])C([H])([H])C([H])([H])C([H])([H])C2([H])N([H])C(=O)C1([H])N(C(=O)C([H])(N([H])C(=O)C([H])(N([H])C([H])([H])[H])C([H])([H])[H])C(C([H])([H])[H])(C([H])([H])[H])C([H])([H])[H])C([H])([H])c2c([H])c(OC([H])([H])C([H])([H])C([H])(C([H])([H])N(C(=O)N3C([H])([H])C([H])([H])C([H])([H])C([H])(n4nc(-c5c([H])c([H])c(Oc6c([H])c([H])c(F)c([H])c6F)c([H])c5[H])c(C(=O)N([H])[H])c4N([H])[H])C3([H])[H])C([H])([H])C([H])(N([H])[H])C([H])([H])[N+]([H])([H])[H])C([H])([H])[N+]([H])([H])[H])c([H])c([H])c2C1([H])[H]

>  <smiles>  (48) 
[H]c1c([H])c([H])c2c(c1[H])C([H])([H])C([H])([H])C([H])([H])C2([H])N([H])C(=O)C1([H])N(C(=O)C([H])(N([H])C(=O)C([H])(N([H])C([H])([H])[H])C([H])([H])[H])C(C([H])([H])[H])(C([H])([H])[H])C([H])([H])[H])C([H])([H])c2c([H])c(OC([H])([H])C([H])([H])C([H])(C([H])([H])N(C(=O)N3C([H])([H])C([H])([H])C([H])([H])C([H])(n4nc(-c5c([H])c([H])c(Oc6c([H])c([H])c(F)c([H])c6F)c([H])c5[H])c(C(=O)N([H])[H])c4N([H])[H])C3([H])[H])C([H])([H])C([H])(N([H])[H])C([H])([H])[N+]([H])([H])[H])C([H])([H])[N+]([H])([H])[H])c([H])c([H])c2C1([H])[H]

$$$$
50:0:0
     RDKit          3D

100107  0  0  1  0  0  0  0  0999 V2000
  -29.5970  -18.5420   19.9620 C   0  0  0  0  0  3  0  0  0  0  0  0
  -30.3740  -15.7410   20.4150 C   0  0  0  0  0  0  0  0  0  0  0  0
  -30.6640  -13.1930   20.1040 C   0  0  0  0  0  2  0  0  0  0  0  0
  -29.9100  -12.6350   18.8700 C   0  0  0  0  0  2  0  0  0  0  0  0
  -28.4430  -12.3290   19.2190 C   0  0  0  0  0  2  0  0  0  0  0  0
  -27.7910  -13.4670   20.0410 C   0  0  0  0  0  3  0  0  0  0  0  0
  -28.6780  -13.9410   21.2060 C   0  0  0  0  0  2  0  0  0  0  0  0
  -29.9330  -14.4090   20.5980 N   0  0  0  0  0  0  0  0  0  0  0  0
  -31.6070  -15.8480   20.3560 O   0  0  0  0  0  0  0  0  0  0  0  0
  -29.4830  -16.8930   20.1570 N   0  0  0  0  0  0  0  0  0  0  0  0
  -28.5210  -16.5880   20.1490 H   0  0  0  0  0  0  0  0  0  0  0  0
  -25.3810  -14.0080   20.6590 C   0  0  0  0  0  0  0  0  0  0  0  0
  -24.3090  -13.2200   20.9690 C   0  0  0  0  0  0  0  0  0  0  0  0
  -24.7920  -11.8760   20.9700 C   0  0  0  0  0  0  0  0  0  0  0  0
  -26.4420  -13.1410   20.4750 N   0  0  0  0  0  0  0  0  0  0  0  0
  -26.0990  -11.8550   20.7350 N   0  0  0  0  0  0  0  0  0  0  0  0
  -24.0730  -10.6040   21.1180 C   0  0  0  0  0  0  0  0  0  0  0  0
  -24.4360   -9.6590   22.1010 C   0  0  0  0  0  3  0  0  0  0  0  0
  -23.7150   -8.4520   22.2350 C   0  0  0  0  0  3  0  0  0  0  0  0
  -22.6140   -8.1850   21.3840 C   0  0  0  0  0  0  0  0  0  0  0  0
  -22.2710   -9.1210   20.3930 C   0  0  0  0  0  3  0  0  0  0  0  0
  -22.9960  -10.3180   20.2580 C   0  0  0  0  0  3  0  0  0  0  0  0
  -21.8680   -7.0330   21.4280 O   0  0  0  0  0  0  0  0  0  0  0  0
  -21.7020   -6.3280   22.5920 C   0  0  0  0  0  0  0  0  0  0  0  0
  -21.1130   -6.9070   23.7390 C   0  0  0  0  0  3  0  0  0  0  0  0
  -20.8960   -6.1250   24.8890 C   0  0  0  0  0  3  0  0  0  0  0  0
  -21.2590   -4.7630   24.8970 C   0  0  0  0  0  0  0  0  0  0  0  0
  -21.8420   -4.1860   23.7550 C   0  0  0  0  0  3  0  0  0  0  0  0
  -22.0590   -4.9640   22.6060 C   0  0  0  0  0  0  0  0  0  0  0  0
  -22.6010   -4.3980   21.5010 F   0  0  0  0  0  0  0  0  0  0  0  0
  -21.0440   -4.0090   25.9990 F   0  0  0  0  0  0  0  0  0  0  0  0
  -22.8920  -13.6790   21.1520 C   0  0  0  0  0  0  0  0  0  0  0  0
  -22.1210  -12.9810   21.9760 N   0  0  0  0  0  0  0  0  0  0  0  0
  -22.4780  -14.6950   20.5940 O   0  0  0  0  0  0  0  0  0  0  0  0
  -22.4720  -12.1570   22.4440 H   0  0  0  0  0  0  0  0  0  0  0  0
  -21.1670  -13.2730   22.1410 H   0  0  0  0  0  0  0  0  0  0  0  0
  -25.5380  -15.3780   20.4850 N   0  0  0  0  0  0  0  0  0  0  0  0
  -24.7520  -16.0180   20.5280 H   0  0  0  0  0  0  0  0  0  0  0  0
  -26.3790  -15.8080   20.1260 H   0  0  0  0  0  0  0  0  0  0  0  0
  -28.3420  -19.7850   19.7220 C   0  0  0  0  0  2  0  0  0  0  0  0
  -28.3550  -21.5130   19.2350 C   0  0  0  0  0  2  0  0  0  0  0  0
  -27.9000  -23.0910   19.9460 C   0  0  0  0  0  3  0  0  0  0  0  0
  -28.8770  -23.3740   21.0180 N   0  0  0  0  0  4  0  0  0  0  0  0
  -29.7790  -23.5800   20.6280 H   0  0  0  0  0  0  0  0  0  0  0  0
  -28.9650  -22.6100   21.6650 H   0  0  0  0  0  0  0  0  0  0  0  0
  -28.5830  -24.1790   21.5450 H   0  0  0  0  0  0  0  0  0  0  0  0
  -27.5660  -24.6670   19.1840 C   0  0  0  0  0  2  0  0  0  0  0  0
  -27.6950  -26.2300   19.6420 O   0  0  0  0  0  0  0  0  0  0  0  0
  -24.6400  -31.9780   23.3400 C   0  0  0  0  0  0  0  0  0  0  0  0
  -26.7080  -27.3280   19.7060 C   0  0  0  0  0  0  0  0  0  0  0  0
  -23.2460  -30.7700   21.7080 C   0  0  0  0  0  3  0  0  0  0  0  0
  -24.4920  -29.2490   20.0320 C   0  0  0  0  0  0  0  0  0  0  0  0
  -25.7940  -30.9140   21.3450 C   0  0  0  0  0  2  0  0  0  0  0  0
  -25.7450  -29.5700   20.5680 C   0  0  0  0  0  0  0  0  0  0  0  0
  -26.8460  -28.6290   20.3830 C   0  0  0  0  0  3  0  0  0  0  0  0
  -25.4260  -27.1490   19.1390 C   0  0  0  0  0  3  0  0  0  0  0  0
  -24.3540  -28.0590   19.3000 C   0  0  0  0  0  3  0  0  0  0  0  0
  -23.3260  -30.2000   20.2650 C   0  0  0  0  0  2  0  0  0  0  0  0
  -24.5870  -31.2410   22.1830 N   0  0  0  0  0  0  0  0  0  0  0  0
  -23.6180  -32.2650   23.9830 O   0  0  0  0  0  0  0  0  0  0  0  0
  -22.5970  -29.7190   22.6490 C   0  0  0  0  0  0  0  0  0  0  0  0
  -21.2680  -29.5310   22.5470 N   0  0  0  0  0  0  0  0  0  0  0  0
  -23.2920  -29.0790   23.4450 O   0  0  0  0  0  0  0  0  0  0  0  0
  -20.7600  -30.1090   21.8930 H   0  0  0  0  0  0  0  0  0  0  0  0
  -17.9540  -28.1200   22.9520 C   0  0  0  0  0  0  0  0  0  0  0  0
  -20.4830  -28.5470   23.3000 C   0  0  0  0  0  3  0  0  0  0  0  0
  -20.6900  -27.1210   22.7390 C   0  0  0  0  0  2  0  0  0  0  0  0
  -19.6450  -26.7250   21.6920 C   0  0  0  0  0  2  0  0  0  0  0  0
  -18.2350  -26.7830   22.2890 C   0  0  0  0  0  2  0  0  0  0  0  0
  -19.0080  -28.9530   23.4140 C   0  0  0  0  0  0  0  0  0  0  0  0
  -18.6890  -30.1970   23.9930 C   0  0  0  0  0  3  0  0  0  0  0  0
  -17.3510  -30.6140   24.1220 C   0  0  0  0  0  3  0  0  0  0  0  0
  -16.3100  -29.7780   23.6840 C   0  0  0  0  0  3  0  0  0  0  0  0
  -16.6130  -28.5330   23.1000 C   0  0  0  0  0  3  0  0  0  0  0  0
  -25.9930  -32.5170   23.9010 C   0  0  0  0  0  3  0  0  0  0  0  0
  -26.5560  -31.6500   25.0950 C   0  0  1  0  0  0  0  0  0  0  0  0
  -25.5310  -31.4140   26.2290 C   0  0  0  0  0  1  0  0  0  0  0  0
  -27.0310  -30.2650   24.5980 C   0  0  0  0  0  1  0  0  0  0  0  0
  -27.7960  -32.3440   25.7050 C   0  0  0  0  0  1  0  0  0  0  0  0
  -25.7780  -33.9080   24.3410 N   0  0  0  0  0  0  0  0  0  0  0  0
  -26.1470  -34.9960   23.6520 C   0  0  0  0  0  0  0  0  0  0  0  0
  -26.7630  -34.9310   22.5860 O   0  0  0  0  0  0  0  0  0  0  0  0
  -25.2280  -34.0360   25.1770 H   0  0  0  0  0  0  0  0  0  0  0  0
  -24.5310  -36.9250   23.5180 C   0  0  0  0  0  1  0  0  0  0  0  0
  -25.7720  -36.3760   24.2380 C   0  0  0  0  0  3  0  0  0  0  0  0
  -27.9910  -37.0630   25.0350 C   0  0  0  0  0  1  0  0  0  0  0  0
  -26.8660  -37.3680   24.1550 N   0  0  0  0  0  0  0  0  0  0  0  0
  -26.5260  -38.2990   24.3850 H   0  0  0  0  0  0  0  0  0  0  0  0
  -30.2900  -19.1030   21.2320 C   0  0  0  0  0  2  0  0  0  0  0  0
  -31.8320  -19.0290   21.3650 C   0  0  0  0  0  3  0  0  0  0  0  0
  -32.3240  -20.1120   22.3720 C   0  0  0  0  0  2  0  0  0  0  0  0
  -31.6930  -20.0050   23.7080 N   0  0  0  0  0  4  0  0  0  0  0  0
  -30.7150  -20.2390   23.6800 H   0  0  0  0  0  0  0  0  0  0  0  0
  -32.1280  -20.6420   24.3510 H   0  0  0  0  0  0  0  0  0  0  0  0
  -31.7920  -19.0820   24.0960 H   0  0  0  0  0  0  0  0  0  0  0  0
  -32.4480  -19.1850   19.9470 C   0  0  0  0  0  2  0  0  0  0  0  0
  -33.8730  -18.8290   19.8400 N   0  0  0  0  0  4  0  0  0  0  0  0
  -34.4630  -19.4140   20.4050 H   0  0  0  0  0  0  0  0  0  0  0  0
  -34.1610  -18.9550   18.8860 H   0  0  0  0  0  0  0  0  0  0  0  0
  -34.0260  -17.8640   20.0730 H   0  0  0  0  0  0  0  0  0  0  0  0
  1 40  1  0
  1 10  1  0
  1 89  1  0
  2  8  1  0
  3  8  1  0
  4  5  1  0
  4  3  1  0
  6  5  1  0
  6 15  1  0
  6  7  1  0
  8  7  1  0
  9  2  2  0
 10  2  1  0
 11 10  1  0
 12 13  2  0
 13 14  1  0
 13 32  1  0
 14 17  1  0
 15 12  1  0
 15 16  1  0
 16 14  2  0
 17 18  1  0
 18 19  2  0
 20 23  1  0
 20 19  1  0
 21 20  2  0
 22 21  1  0
 22 17  2  0
 23 24  1  0
 24 29  2  0
 24 25  1  0
 25 26  2  0
 26 27  1  0
 27 31  1  0
 28 27  2  0
 29 28  1  0
 30 29  1  0
 32 33  1  0
 33 36  1  0
 33 35  1  0
 34 32  2  0
 37 38  1  0
 37 12  1  0
 39 37  1  0
 41 40  1  0
 41 42  1  0
 42 47  1  0
 42 43  1  0
 43 46  1  0
 43 45  1  0
 44 43  1  0
 47 48  1  0
 48 50  1  0
 49 60  2  0
 50 55  1  0
 51 59  1  0
 51 61  1  0
 52 58  1  0
 52 54  1  0
 53 59  1  0
 54 53  1  0
 55 54  2  0
 56 57  1  0
 56 50  2  0
 57 52  2  0
 58 51  1  0
 59 49  1  0
 61 63  2  0
 62 61  1  0
 64 62  1  0
 65 74  2  0
 65 70  1  0
 66 62  1  0
 66 70  1  0
 67 66  1  0
 68 69  1  0
 68 67  1  0
 69 65  1  0
 70 71  2  0
 71 72  1  0
 73 72  2  0
 74 73  1  0
 75 49  1  0
 75 80  1  0
 75 76  1  0
 76 79  1  1
 76 77  1  0
 78 76  1  0
 80 83  1  0
 81 85  1  0
 81 80  1  0
 82 81  2  0
 85 84  1  0
 87 85  1  0
 87 88  1  0
 87 86  1  0
 89 90  1  0
 90 91  1  0
 91 92  1  0
 92 95  1  0
 92 94  1  0
 93 92  1  0
 96 90  1  0
 97 96  1  0
 97100  1  0
 97 98  1  0
 99 97  1  0
M  ISO  4   2 100  10 100  47 101  48 101
M  END
>  <TORSDO>  (49) 
F 27

>  <SCORE>  (49) 
-13.195

>  <name>  (49) 
50

>  <ligand_id>  (49) 
50

>  <original_smiles>  (49) 
[H]c1c([H])c([H])c2c(c1[H])C([H])([H])C([H])([H])C([H])([H])C2([H])N([H])C(=O)C1([H])N(C(=O)C([H])(N([H])C(=O)C([H])(N([H])C([H])([H])[H])C([H])([H])[H])C(C([H])([H])[H])(C([H])([H])[H])C([H])([H])[H])C([H])([H])c2c([H])c(OC([H])([H])C([H])(C([H])([H])C([H])([H])C([H])(N([H])C(=O)N3C([H])([H])C([H])([H])C([H])([H])C([H])(n4nc(-c5c([H])c([H])c(Oc6c([H])c([H])c(F)c([H])c6F)c([H])c5[H])c(C(=O)N([H])[H])c4N([H])[H])C3([H])[H])C([H])([H])C([H])(C([H])([H])[N+]([H])([H])[H])C([H])([H])[N+]([H])([H])[H])[N+]([H])([H])[H])c([H])c([H])c2C1([H])[H]

>  <smiles>  (49) 
[H]c1c([H])c([H])c2c(c1[H])C([H])([H])C([H])([H])C([H])([H])C2([H])N([H])C(=O)C1([H])N(C(=O)C([H])(N([H])C(=O)C([H])(N([H])C([H])([H])[H])C([H])([H])[H])C(C([H])([H])[H])(C([H])([H])[H])C([H])([H])[H])C([H])([H])c2c([H])c(OC([H])([H])C([H])(C([H])([H])C([H])([H])C([H])(N([H])C(=O)N3C([H])([H])C([H])([H])C([H])([H])C([H])(n4nc(-c5c([H])c([H])c(Oc6c([H])c([H])c(F)c([H])c6F)c([H])c5[H])c(C(=O)N([H])[H])c4N([H])[H])C3([H])[H])C([H])([H])C([H])(C([H])([H])[N+]([H])([H])[H])C([H])([H])[N+]([H])([H])[H])[N+]([H])([H])[H])c([H])c([H])c2C1([H])[H]

$$$$
51:0:0
     RDKit          3D

 94102  0  0  1  0  0  0  0  0999 V2000
  -30.4290  -20.5970   21.1490 C   0  0  0  0  0  2  0  0  0  0  0  0
  -28.1040  -20.4810   21.0210 C   0  0  0  0  0  2  0  0  0  0  0  0
  -30.4160  -22.0310   20.5080 C   0  0  0  0  0  2  0  0  0  0  0  0
  -28.0060  -21.9180   20.3930 C   0  0  0  0  0  2  0  0  0  0  0  0
  -29.3350  -19.7600   20.6260 N   0  0  0  0  0  0  0  0  0  0  0  0
  -29.1570  -22.8000   20.7590 N   0  0  2  0  0  4  0  0  0  0  0  0
  -29.1130  -22.9420   21.7580 H   0  0  0  0  0  0  0  0  0  0  0  0
  -29.3580  -18.3300   21.0820 C   0  0  0  0  0  2  0  0  0  0  0  0
  -30.3520  -17.3250   20.3460 C   0  0  0  0  0  3  0  0  0  0  0  0
  -30.8660  -14.7770   20.4130 C   0  0  0  0  0  0  0  0  0  0  0  0
  -30.6310  -12.5940   19.2650 C   0  0  0  0  0  2  0  0  0  0  0  0
  -29.7030  -12.7820   18.0450 C   0  0  0  0  0  2  0  0  0  0  0  0
  -28.2260  -12.6180   18.4530 C   0  0  0  0  0  2  0  0  0  0  0  0
  -27.8590  -13.4360   19.7200 C   0  0  0  0  0  3  0  0  0  0  0  0
  -28.9040  -13.2440   20.8410 C   0  0  0  0  0  2  0  0  0  0  0  0
  -30.2210  -13.5790   20.2840 N   0  0  0  0  0  0  0  0  0  0  0  0
  -32.0560  -14.8980   20.1130 O   0  0  0  0  0  0  0  0  0  0  0  0
  -30.0730  -15.8720   20.6340 N   0  0  0  0  0  0  0  0  0  0  0  0
  -29.1130  -15.6570   20.8510 H   0  0  0  0  0  0  0  0  0  0  0  0
  -25.4470  -14.0270   20.3710 C   0  0  0  0  0  0  0  0  0  0  0  0
  -24.3790  -13.2510   20.7340 C   0  0  0  0  0  0  0  0  0  0  0  0
  -24.8550  -11.9050   20.7420 C   0  0  0  0  0  0  0  0  0  0  0  0
  -26.5040  -13.1520   20.1790 N   0  0  0  0  0  0  0  0  0  0  0  0
  -26.1530  -11.8730   20.4630 N   0  0  0  0  0  0  0  0  0  0  0  0
  -24.1390  -10.6390   20.9420 C   0  0  0  0  0  0  0  0  0  0  0  0
  -24.5530   -9.7010   21.9140 C   0  0  0  0  0  3  0  0  0  0  0  0
  -23.8370   -8.4990   22.0990 C   0  0  0  0  0  3  0  0  0  0  0  0
  -22.6920   -8.2250   21.3140 C   0  0  0  0  0  0  0  0  0  0  0  0
  -22.2960   -9.1530   20.3320 C   0  0  0  0  0  3  0  0  0  0  0  0
  -23.0140  -10.3460   20.1460 C   0  0  0  0  0  3  0  0  0  0  0  0
  -21.9490   -7.0730   21.4050 O   0  0  0  0  0  0  0  0  0  0  0  0
  -21.8600   -6.3680   22.5780 C   0  0  0  0  0  0  0  0  0  0  0  0
  -21.3660   -6.9530   23.7640 C   0  0  0  0  0  3  0  0  0  0  0  0
  -21.2270   -6.1720   24.9290 C   0  0  0  0  0  3  0  0  0  0  0  0
  -21.5700   -4.8060   24.9080 C   0  0  0  0  0  0  0  0  0  0  0  0
  -22.0550   -4.2220   23.7260 C   0  0  0  0  0  3  0  0  0  0  0  0
  -22.1970   -4.9990   22.5640 C   0  0  0  0  0  0  0  0  0  0  0  0
  -22.6460   -4.4270   21.4210 F   0  0  0  0  0  0  0  0  0  0  0  0
  -21.4290   -4.0530   26.0240 F   0  0  0  0  0  0  0  0  0  0  0  0
  -22.9720  -13.7200   20.9630 C   0  0  0  0  0  0  0  0  0  0  0  0
  -22.2310  -13.0380   21.8310 N   0  0  0  0  0  0  0  0  0  0  0  0
  -22.5350  -14.7280   20.4090 O   0  0  0  0  0  0  0  0  0  0  0  0
  -22.5940  -12.2240   22.3050 H   0  0  0  0  0  0  0  0  0  0  0  0
  -21.2870  -13.3380   22.0260 H   0  0  0  0  0  0  0  0  0  0  0  0
  -25.6030  -15.3950   20.1650 N   0  0  0  0  0  0  0  0  0  0  0  0
  -24.8250  -16.0390   20.2330 H   0  0  0  0  0  0  0  0  0  0  0  0
  -26.4380  -15.8250   19.7910 H   0  0  0  0  0  0  0  0  0  0  0  0
  -29.1040  -17.1140   18.0830 C   0  0  0  0  0  1  0  0  0  0  0  0
  -30.3790  -17.5950   18.8040 C   0  0  0  0  0  3  0  0  0  0  0  0
  -31.9280  -17.6860   16.7390 C   0  0  0  0  0  1  0  0  0  0  0  0
  -31.6450  -17.0530   18.1080 C   0  0  0  0  0  2  0  0  0  0  0  0
  -29.1680  -24.1740   20.0960 C   0  0  0  0  0  3  0  0  0  0  0  0
  -28.2500  -25.3000   20.7060 C   0  0  0  0  0  3  0  0  0  0  0  0
  -28.4210  -26.6480   20.1370 O   0  0  0  0  0  0  0  0  0  0  0  0
  -24.6560  -31.9230   23.2250 C   0  0  0  0  0  0  0  0  0  0  0  0
  -27.2920  -27.4610   20.1150 C   0  0  0  0  0  0  0  0  0  0  0  0
  -23.4530  -30.5290   21.5770 C   0  0  0  0  0  3  0  0  0  0  0  0
  -24.9090  -29.0150   20.1230 C   0  0  0  0  0  0  0  0  0  0  0  0
  -25.9830  -30.8890   21.3750 C   0  0  0  0  0  2  0  0  0  0  0  0
  -26.0730  -29.5220   20.7160 C   0  0  0  0  0  0  0  0  0  0  0  0
  -27.2710  -28.7580   20.7010 C   0  0  0  0  0  3  0  0  0  0  0  0
  -26.1150  -26.9990   19.4860 C   0  0  0  0  0  3  0  0  0  0  0  0
  -24.9310  -27.7590   19.4970 C   0  0  0  0  0  3  0  0  0  0  0  0
  -23.6610  -29.8700   20.1880 C   0  0  0  0  0  2  0  0  0  0  0  0
  -24.7160  -31.1300   22.1160 N   0  0  0  0  0  0  0  0  0  0  0  0
  -23.5750  -32.1870   23.7690 O   0  0  0  0  0  0  0  0  0  0  0  0
  -22.8110  -29.4930   22.5310 C   0  0  0  0  0  0  0  0  0  0  0  0
  -21.4880  -29.3020   22.4060 N   0  0  0  0  0  0  0  0  0  0  0  0
  -23.5020  -28.8680   23.3390 O   0  0  0  0  0  0  0  0  0  0  0  0
  -20.9910  -29.8580   21.7250 H   0  0  0  0  0  0  0  0  0  0  0  0
  -18.1240  -28.0770   22.9100 C   0  0  0  0  0  0  0  0  0  0  0  0
  -20.6820  -28.3500   23.1710 C   0  0  0  0  0  3  0  0  0  0  0  0
  -20.7910  -26.9260   22.5780 C   0  0  0  0  0  2  0  0  0  0  0  0
  -19.6850  -26.6070   21.5660 C   0  0  0  0  0  2  0  0  0  0  0  0
  -18.3050  -26.7370   22.2180 C   0  0  0  0  0  2  0  0  0  0  0  0
  -19.2400  -28.8410   23.3430 C   0  0  0  0  0  0  0  0  0  0  0  0
  -19.0170  -30.0970   23.9490 C   0  0  0  0  0  3  0  0  0  0  0  0
  -17.7110  -30.5880   24.1290 C   0  0  0  0  0  3  0  0  0  0  0  0
  -16.6080  -29.8190   23.7130 C   0  0  0  0  0  3  0  0  0  0  0  0
  -16.8170  -28.5660   23.1090 C   0  0  0  0  0  3  0  0  0  0  0  0
  -25.9400  -32.5590   23.8440 C   0  0  0  0  0  3  0  0  0  0  0  0
  -25.6250  -33.9520   24.1850 N   0  0  0  0  0  0  0  0  0  0  0  0
  -25.9480  -35.0120   23.4330 C   0  0  0  0  0  0  0  0  0  0  0  0
  -26.6150  -34.9200   22.3990 O   0  0  0  0  0  0  0  0  0  0  0  0
  -25.0320  -34.1000   24.9900 H   0  0  0  0  0  0  0  0  0  0  0  0
  -24.2120  -36.7980   23.0900 C   0  0  0  0  0  1  0  0  0  0  0  0
  -25.4520  -36.3930   23.9020 C   0  0  0  0  0  3  0  0  0  0  0  0
  -27.5770  -37.2790   24.7520 C   0  0  0  0  0  1  0  0  0  0  0  0
  -26.4800  -37.4520   23.8040 N   0  0  0  0  0  0  0  0  0  0  0  0
  -26.0690  -38.3680   23.9600 H   0  0  0  0  0  0  0  0  0  0  0  0
  -26.4710  -31.7800   25.1100 C   0  0  1  0  0  0  0  0  0  0  0  0
  -25.3860  -31.5240   26.1830 C   0  0  0  0  0  1  0  0  0  0  0  0
  -27.0640  -30.4100   24.7040 C   0  0  0  0  0  1  0  0  0  0  0  0
  -27.6170  -32.5790   25.7750 C   0  0  0  0  0  1  0  0  0  0  0  0
  3  6  1  0
  3  1  1  0
  4  6  1  0
  4  2  1  0
  5  2  1  0
  5  8  1  0
  5  1  1  0
  6  7  1  1
  9 18  1  0
  9  8  1  0
 10 18  1  0
 11 16  1  0
 12 13  1  0
 12 11  1  0
 14 13  1  0
 14 23  1  0
 14 15  1  0
 16 10  1  0
 16 15  1  0
 17 10  2  0
 18 19  1  0
 20 21  2  0
 21 22  1  0
 21 40  1  0
 22 25  1  0
 23 20  1  0
 23 24  1  0
 24 22  2  0
 25 26  1  0
 26 27  2  0
 28 31  1  0
 28 27  1  0
 29 28  2  0
 30 29  1  0
 30 25  2  0
 31 32  1  0
 32 33  1  0
 33 34  2  0
 35 34  1  0
 35 39  1  0
 36 35  2  0
 37 32  2  0
 37 36  1  0
 38 37  1  0
 40 41  1  0
 41 44  1  0
 41 43  1  0
 42 40  2  0
 45 46  1  0
 45 20  1  0
 47 45  1  0
 49 48  1  0
 49  9  1  0
 50 51  1  0
 51 49  1  0
 52 53  2  0
 52  6  1  0
 54 53  1  0
 55 66  2  0
 56 54  1  0
 56 61  1  0
 57 65  1  0
 57 67  1  0
 58 64  1  0
 58 60  1  0
 59 65  1  0
 60 59  1  0
 61 60  2  0
 62 63  1  0
 62 56  2  0
 63 58  2  0
 64 57  1  0
 65 55  1  0
 67 69  2  0
 68 67  1  0
 70 68  1  0
 71 80  2  0
 71 76  1  0
 72 68  1  0
 72 76  1  0
 73 72  1  0
 74 75  1  0
 74 73  1  0
 75 71  1  0
 76 77  2  0
 77 78  1  0
 79 78  2  0
 80 79  1  0
 81 55  1  0
 81 82  1  0
 81 91  1  0
 82 85  1  0
 83 87  1  0
 83 82  1  0
 84 83  2  0
 87 86  1  0
 89 87  1  0
 89 90  1  0
 89 88  1  0
 91 94  1  1
 91 92  1  0
 93 91  1  0
M  ISO  4  10 100  18 100  53 101  54 101
M  END
>  <TORSDO>  (50) 
F 22

>  <SCORE>  (50) 
-12.477

>  <name>  (50) 
51

>  <ligand_id>  (50) 
51

>  <original_smiles>  (50) 
[H]c1c([H])c([H])c2c(c1[H])C([H])([H])C([H])([H])C([H])([H])C2([H])N([H])C(=O)C1([H])N(C(=O)C([H])(N([H])C(=O)C([H])(N([H])C([H])([H])[H])C([H])([H])[H])C(C([H])([H])[H])(C([H])([H])[H])C([H])([H])[H])C([H])([H])c2c([H])c(OC([H])([H])C([H])([H])[N+]3([H])C([H])([H])C([H])([H])N(C([H])([H])C([H])(N([H])C(=O)N4C([H])([H])C([H])([H])C([H])([H])C([H])(n5nc(-c6c([H])c([H])c(Oc7c([H])c([H])c(F)c([H])c7F)c([H])c6[H])c(C(=O)N([H])[H])c5N([H])[H])C4([H])[H])C([H])(C([H])([H])[H])C([H])([H])C([H])([H])[H])C([H])([H])C3([H])[H])c([H])c([H])c2C1([H])[H]

>  <smiles>  (50) 
[H]c1c([H])c([H])c2c(c1[H])C([H])([H])C([H])([H])C([H])([H])C2([H])N([H])C(=O)C1([H])N(C(=O)C([H])(N([H])C(=O)C([H])(N([H])C([H])([H])[H])C([H])([H])[H])C(C([H])([H])[H])(C([H])([H])[H])C([H])([H])[H])C([H])([H])c2c([H])c(OC([H])([H])C([H])([H])[N+]3([H])C([H])([H])C([H])([H])N(C([H])([H])C([H])(N([H])C(=O)N4C([H])([H])C([H])([H])C([H])([H])C([H])(n5nc(-c6c([H])c([H])c(Oc7c([H])c([H])c(F)c([H])c7F)c([H])c6[H])c(C(=O)N([H])[H])c5N([H])[H])C4([H])[H])C([H])(C([H])([H])[H])C([H])([H])C([H])([H])[H])C([H])([H])C3([H])[H])c([H])c([H])c2C1([H])[H]

$$$$
52:0:0
     RDKit          3D

100109  0  0  1  0  0  0  0  0999 V2000
  -27.4420  -22.5980   24.7380 C   0  0  0  0  0  2  0  0  0  0  0  0
  -26.0930  -22.0220   24.2960 C   0  0  0  0  0  2  0  0  0  0  0  0
  -27.6580  -24.0050   24.1590 C   0  0  0  0  0  2  0  0  0  0  0  0
  -26.2530  -23.4470   22.2110 C   0  0  0  0  0  2  0  0  0  0  0  0
  -25.9730  -22.0210   22.7620 C   0  0  0  0  0  3  0  0  0  0  0  0
  -27.5580  -24.0120   22.6720 N   0  0  1  0  0  4  0  0  0  0  0  0
  -28.2960  -23.4020   22.3440 H   0  0  0  0  0  0  0  0  0  0  0  0
  -24.5740  -21.4880   22.3410 C   0  0  0  0  0  2  0  0  0  0  0  0
  -24.6210  -20.4320   21.3090 N   0  0  0  0  0  4  0  0  0  0  0  0
  -25.2710  -20.6700   20.5790 H   0  0  0  0  0  0  0  0  0  0  0  0
  -23.7080  -20.3790   20.8870 H   0  0  0  0  0  0  0  0  0  0  0  0
  -24.9290  -19.0710   21.7980 C   0  0  0  0  0  2  0  0  0  0  0  0
  -26.9670  -17.8780   18.7740 C   0  0  0  0  0  3  0  0  0  0  0  0
  -27.9880  -17.1430   19.3980 C   0  0  0  0  0  3  0  0  0  0  0  0
  -25.9680  -18.4950   19.5480 C   0  0  0  0  0  3  0  0  0  0  0  0
  -27.0540  -17.6860   21.5800 C   0  0  0  0  0  3  0  0  0  0  0  0
  -28.0340  -17.0240   20.8070 C   0  0  0  0  0  0  0  0  0  0  0  0
  -26.0110  -18.4100   20.9560 C   0  0  0  0  0  0  0  0  0  0  0  0
  -29.1120  -16.1950   21.5060 C   0  0  0  0  0  2  0  0  0  0  0  0
  -30.7380  -14.4420   20.5660 C   0  0  0  0  0  0  0  0  0  0  0  0
  -30.4200  -12.2980   19.4110 C   0  0  0  0  0  2  0  0  0  0  0  0
  -29.4880  -12.4920   18.1980 C   0  0  0  0  0  2  0  0  0  0  0  0
  -28.0070  -12.3610   18.6160 C   0  0  0  0  0  2  0  0  0  0  0  0
  -27.6570  -13.2010   19.8740 C   0  0  0  0  0  3  0  0  0  0  0  0
  -28.7080  -12.9590   20.9800 C   0  0  0  0  0  2  0  0  0  0  0  0
  -30.0240  -13.2920   20.4210 N   0  0  0  0  0  0  0  0  0  0  0  0
  -31.9080  -14.5430   20.2010 O   0  0  0  0  0  0  0  0  0  0  0  0
  -30.0620  -15.5970   20.5720 N   0  0  0  0  0  0  0  0  0  0  0  0
  -30.6430  -16.3110   20.1610 H   0  0  0  0  0  0  0  0  0  0  0  0
  -25.2500  -13.8040   20.5620 C   0  0  0  0  0  0  0  0  0  0  0  0
  -24.1780  -13.0340   20.9160 C   0  0  0  0  0  0  0  0  0  0  0  0
  -24.6390  -11.6840   20.8770 C   0  0  0  0  0  0  0  0  0  0  0  0
  -26.3000  -12.9270   20.3410 N   0  0  0  0  0  0  0  0  0  0  0  0
  -25.9320  -11.6430   20.5830 N   0  0  0  0  0  0  0  0  0  0  0  0
  -23.9070  -10.4240   21.0430 C   0  0  0  0  0  0  0  0  0  0  0  0
  -24.3610   -9.4160   21.9230 C   0  0  0  0  0  3  0  0  0  0  0  0
  -23.6290   -8.2200   22.0770 C   0  0  0  0  0  3  0  0  0  0  0  0
  -22.4270   -8.0260   21.3560 C   0  0  0  0  0  0  0  0  0  0  0  0
  -21.9920   -9.0230   20.4650 C   0  0  0  0  0  3  0  0  0  0  0  0
  -22.7250  -10.2100   20.3080 C   0  0  0  0  0  3  0  0  0  0  0  0
  -21.6610   -6.8870   21.4250 O   0  0  0  0  0  0  0  0  0  0  0  0
  -21.6830   -6.0740   22.5280 C   0  0  0  0  0  0  0  0  0  0  0  0
  -21.3990   -6.5640   23.8220 C   0  0  0  0  0  3  0  0  0  0  0  0
  -21.3660   -5.6790   24.9180 C   0  0  0  0  0  3  0  0  0  0  0  0
  -21.6040   -4.3060   24.7230 C   0  0  0  0  0  0  0  0  0  0  0  0
  -21.8830   -3.8150   23.4350 C   0  0  0  0  0  3  0  0  0  0  0  0
  -21.9180   -4.6970   22.3410 C   0  0  0  0  0  0  0  0  0  0  0  0
  -22.1650   -4.2150   21.0990 F   0  0  0  0  0  0  0  0  0  0  0  0
  -21.5650   -3.4540   25.7750 F   0  0  0  0  0  0  0  0  0  0  0  0
  -22.7810  -13.5170   21.1830 C   0  0  0  0  0  0  0  0  0  0  0  0
  -22.0430  -12.8200   22.0390 N   0  0  0  0  0  0  0  0  0  0  0  0
  -22.3520  -14.5510   20.6700 O   0  0  0  0  0  0  0  0  0  0  0  0
  -22.4000  -11.9830   22.4770 H   0  0  0  0  0  0  0  0  0  0  0  0
  -21.1040  -13.1250   22.2580 H   0  0  0  0  0  0  0  0  0  0  0  0
  -25.4050  -15.1710   20.3970 N   0  0  0  0  0  0  0  0  0  0  0  0
  -24.6320  -15.8120   20.5140 H   0  0  0  0  0  0  0  0  0  0  0  0
  -26.2730  -15.6440   20.1680 H   0  0  0  0  0  0  0  0  0  0  0  0
  -27.8380  -25.3700   22.1210 C   0  0  0  0  0  2  0  0  0  0  0  0
  -28.2620  -25.3850   20.6280 C   0  0  0  0  0  2  0  0  0  0  0  0
  -28.3900  -26.7260   20.1350 O   0  0  0  0  0  0  0  0  0  0  0  0
  -24.6120  -31.8710   23.2110 C   0  0  0  0  0  0  0  0  0  0  0  0
  -27.2270  -27.4590   20.0930 C   0  0  0  0  0  0  0  0  0  0  0  0
  -23.3950  -30.4930   21.5550 C   0  0  0  0  0  3  0  0  0  0  0  0
  -24.8390  -28.9630   20.1140 C   0  0  0  0  0  0  0  0  0  0  0  0
  -25.9210  -30.8430   21.3620 C   0  0  0  0  0  2  0  0  0  0  0  0
  -25.9990  -29.4830   20.7020 C   0  0  0  0  0  0  0  0  0  0  0  0
  -27.1980  -28.7380   20.6850 C   0  0  0  0  0  3  0  0  0  0  0  0
  -26.0530  -26.9500   19.4930 C   0  0  0  0  0  3  0  0  0  0  0  0
  -24.8600  -27.6960   19.5060 C   0  0  0  0  0  3  0  0  0  0  0  0
  -23.6000  -29.8270   20.1680 C   0  0  0  0  0  2  0  0  0  0  0  0
  -24.6600  -31.0830   22.1000 N   0  0  0  0  0  0  0  0  0  0  0  0
  -23.5300  -32.1450   23.7520 O   0  0  0  0  0  0  0  0  0  0  0  0
  -22.7350  -29.4670   22.5040 C   0  0  0  0  0  0  0  0  0  0  0  0
  -21.4100  -29.2970   22.3720 N   0  0  0  0  0  0  0  0  0  0  0  0
  -23.4150  -28.8240   23.3090 O   0  0  0  0  0  0  0  0  0  0  0  0
  -20.9270  -29.8500   21.6770 H   0  0  0  0  0  0  0  0  0  0  0  0
  -18.0260  -28.1330   22.8480 C   0  0  0  0  0  0  0  0  0  0  0  0
  -20.5850  -28.3580   23.1320 C   0  0  0  0  0  3  0  0  0  0  0  0
  -20.6730  -26.9320   22.5370 C   0  0  0  0  0  2  0  0  0  0  0  0
  -19.5680  -26.6320   21.5160 C   0  0  0  0  0  2  0  0  0  0  0  0
  -18.1890  -26.7840   22.1660 C   0  0  0  0  0  2  0  0  0  0  0  0
  -19.1520  -28.8780   23.2900 C   0  0  0  0  0  0  0  0  0  0  0  0
  -18.9450  -30.1380   23.8920 C   0  0  0  0  0  3  0  0  0  0  0  0
  -17.6430  -30.6520   24.0550 C   0  0  0  0  0  3  0  0  0  0  0  0
  -16.5320  -29.9040   23.6290 C   0  0  0  0  0  3  0  0  0  0  0  0
  -16.7240  -28.6440   23.0330 C   0  0  0  0  0  3  0  0  0  0  0  0
  -25.9040  -32.4840   23.8380 C   0  0  0  0  0  3  0  0  0  0  0  0
  -25.5900  -33.8630   24.2320 N   0  0  0  0  0  0  0  0  0  0  0  0
  -25.9040  -34.9480   23.5120 C   0  0  0  0  0  0  0  0  0  0  0  0
  -26.5600  -34.8930   22.4670 O   0  0  0  0  0  0  0  0  0  0  0  0
  -25.0090  -33.9790   25.0490 H   0  0  0  0  0  0  0  0  0  0  0  0
  -24.1490  -36.7300   23.2640 C   0  0  0  0  0  1  0  0  0  0  0  0
  -25.4120  -36.3100   24.0330 C   0  0  0  0  0  3  0  0  0  0  0  0
  -27.5570  -37.1810   24.8460 C   0  0  0  0  0  1  0  0  0  0  0  0
  -26.4290  -37.3780   23.9400 N   0  0  0  0  0  0  0  0  0  0  0  0
  -26.0190  -38.2860   24.1400 H   0  0  0  0  0  0  0  0  0  0  0  0
  -26.4470  -31.6600   25.0710 C   0  0  1  0  0  0  0  0  0  0  0  0
  -25.3720  -31.3720   26.1450 C   0  0  0  0  0  1  0  0  0  0  0  0
  -27.0300  -30.3040   24.6080 C   0  0  0  0  0  1  0  0  0  0  0  0
  -27.6040  -32.4310   25.7490 C   0  0  0  0  0  1  0  0  0  0  0  0
  2  1  1  0
  3  1  1  0
  4  6  1  0
  4  5  1  0
  5  8  1  0
  5  2  1  0
  6  3  1  0
  6  7  1  6
  9 12  1  0
  9  8  1  0
 10  9  1  0
 11  9  1  0
 13 14  2  0
 13 15  1  0
 14 17  1  0
 15 18  2  0
 17 19  1  0
 17 16  2  0
 18 16  1  0
 18 12  1  0
 20 28  1  0
 21 26  1  0
 22 23  1  0
 22 21  1  0
 24 23  1  0
 24 33  1  0
 24 25  1  0
 26 20  1  0
 26 25  1  0
 27 20  2  0
 28 19  1  0
 29 28  1  0
 30 31  2  0
 31 50  1  0
 32 31  1  0
 32 35  1  0
 33 30  1  0
 33 34  1  0
 34 32  2  0
 35 36  1  0
 36 37  2  0
 38 41  1  0
 38 37  1  0
 39 38  2  0
 40 39  1  0
 40 35  2  0
 41 42  1  0
 42 43  1  0
 43 44  2  0
 45 44  1  0
 45 49  1  0
 46 45  2  0
 47 42  2  0
 47 46  1  0
 48 47  1  0
 50 51  1  0
 51 54  1  0
 51 53  1  0
 52 50  2  0
 55 56  1  0
 55 30  1  0
 57 55  1  0
 58  6  1  0
 59 58  1  0
 60 59  1  0
 61 72  2  0
 62 60  1  0
 62 67  1  0
 63 71  1  0
 63 73  1  0
 64 70  1  0
 64 66  1  0
 65 71  1  0
 66 65  1  0
 67 66  2  0
 68 69  1  0
 68 62  2  0
 69 64  2  0
 70 63  1  0
 71 61  1  0
 73 75  2  0
 74 73  1  0
 76 74  1  0
 77 86  2  0
 77 82  1  0
 78 74  1  0
 78 82  1  0
 79 78  1  0
 80 81  1  0
 80 79  1  0
 81 77  1  0
 82 83  2  0
 83 84  1  0
 85 84  2  0
 86 85  1  0
 87 61  1  0
 87 88  1  0
 87 97  1  0
 88 91  1  0
 89 93  1  0
 89 88  1  0
 90 89  2  0
 93 92  1  0
 95 93  1  0
 95 96  1  0
 95 94  1  0
 97100  1  1
 97 98  1  0
 99 97  1  0
M  ISO  4  20 100  28 100  59 101  60 101
M  END
>  <TORSDO>  (51) 
F 23

>  <SCORE>  (51) 
36.526

>  <name>  (51) 
52

>  <ligand_id>  (51) 
52

>  <original_smiles>  (51) 
[H]c1c([H])c([H])c2c(c1[H])C([H])([H])C([H])([H])C([H])([H])C2([H])N([H])C(=O)C1([H])N(C(=O)C([H])(N([H])C(=O)C([H])(N([H])C([H])([H])[H])C([H])([H])[H])C(C([H])([H])[H])(C([H])([H])[H])C([H])([H])[H])C([H])([H])c2c([H])c(OC([H])([H])C([H])([H])[N+]3([H])C([H])([H])C([H])([H])C([H])([H])C([H])(C([H])([H])[N+]([H])([H])C([H])([H])c4c([H])c([H])c([H])c(C([H])([H])N([H])C(=O)N5C([H])([H])C([H])([H])C([H])([H])C([H])(n6nc(-c7c([H])c([H])c(Oc8c([H])c([H])c(F)c([H])c8F)c([H])c7[H])c(C(=O)N([H])[H])c6N([H])[H])C5([H])[H])c4[H])C3([H])[H])c([H])c([H])c2C1([H])[H]

>  <smiles>  (51) 
[H]c1c([H])c([H])c2c(c1[H])C([H])([H])C([H])([H])C([H])([H])C2([H])N([H])C(=O)C1([H])N(C(=O)C([H])(N([H])C(=O)C([H])(N([H])C([H])([H])[H])C([H])([H])[H])C(C([H])([H])[H])(C([H])([H])[H])C([H])([H])[H])C([H])([H])c2c([H])c(OC([H])([H])C([H])([H])[N+]3([H])C([H])([H])C([H])([H])C([H])([H])C([H])(C([H])([H])[N+]([H])([H])C([H])([H])c4c([H])c([H])c([H])c(C([H])([H])N([H])C(=O)N5C([H])([H])C([H])([H])C([H])([H])C([H])(n6nc(-c7c([H])c([H])c(Oc8c([H])c([H])c(F)c([H])c8F)c([H])c7[H])c(C(=O)N([H])[H])c6N([H])[H])C5([H])[H])c4[H])C3([H])[H])c([H])c([H])c2C1([H])[H]

$$$$
53:0:0
     RDKit          3D

 88 96  0  0  1  0  0  0  0  0999 V2000
  -30.2120  -20.5900   22.2360 C   0  0  0  0  0  2  0  0  0  0  0  0
  -29.0440  -19.6670   21.7860 C   0  0  0  0  0  2  0  0  0  0  0  0
  -30.6130  -21.4320   21.0000 C   0  0  0  0  0  2  0  0  0  0  0  0
  -29.0840  -19.7430   20.2620 C   0  0  0  0  0  3  0  0  0  0  0  0
  -29.3950  -21.3780   20.1880 N   0  0  2  0  0  4  0  0  0  0  0  0
  -28.8380  -21.2830   21.0240 H   0  0  0  0  0  0  0  0  0  0  0  0
  -30.1060  -18.3100   19.8690 C   0  0  0  0  0  2  0  0  0  0  0  0
  -30.6740  -15.4390   20.0140 C   0  0  0  0  0  0  0  0  0  0  0  0
  -30.6470  -13.0330   19.0820 C   0  0  0  0  0  2  0  0  0  0  0  0
  -29.6680  -12.7940   17.9040 C   0  0  0  0  0  2  0  0  0  0  0  0
  -28.2340  -12.5470   18.4000 C   0  0  0  0  0  2  0  0  0  0  0  0
  -27.8350  -13.4930   19.5590 C   0  0  0  0  0  3  0  0  0  0  0  0
  -28.9320  -13.6120   20.6440 C   0  0  0  0  0  2  0  0  0  0  0  0
  -30.1220  -14.1350   19.9600 N   0  0  0  0  0  0  0  0  0  0  0  0
  -31.8840  -15.4730   19.7470 O   0  0  0  0  0  0  0  0  0  0  0  0
  -29.8920  -16.6830   20.1470 N   0  0  0  0  0  0  0  0  0  0  0  0
  -28.9360  -16.4630   20.3880 H   0  0  0  0  0  0  0  0  0  0  0  0
  -25.4850  -14.0470   20.3830 C   0  0  0  0  0  0  0  0  0  0  0  0
  -24.4310  -13.2640   20.7690 C   0  0  0  0  0  0  0  0  0  0  0  0
  -24.8950  -11.9170   20.7080 C   0  0  0  0  0  0  0  0  0  0  0  0
  -26.5200  -13.1720   20.1040 N   0  0  0  0  0  0  0  0  0  0  0  0
  -26.1810  -11.8840   20.3690 N   0  0  0  0  0  0  0  0  0  0  0  0
  -24.1710  -10.6540   20.9030 C   0  0  0  0  0  0  0  0  0  0  0  0
  -24.5760   -9.7150   21.8780 C   0  0  0  0  0  3  0  0  0  0  0  0
  -23.8520   -8.5190   22.0640 C   0  0  0  0  0  3  0  0  0  0  0  0
  -22.7100   -8.2500   21.2720 C   0  0  0  0  0  0  0  0  0  0  0  0
  -22.3250   -9.1770   20.2850 C   0  0  0  0  0  3  0  0  0  0  0  0
  -23.0490  -10.3660   20.0980 C   0  0  0  0  0  3  0  0  0  0  0  0
  -21.9630   -7.1010   21.3590 O   0  0  0  0  0  0  0  0  0  0  0  0
  -21.8040   -6.4340   22.5500 C   0  0  0  0  0  0  0  0  0  0  0  0
  -21.2310   -7.0560   23.6790 C   0  0  0  0  0  3  0  0  0  0  0  0
  -21.0230   -6.3140   24.8600 C   0  0  0  0  0  3  0  0  0  0  0  0
  -21.3780   -4.9530   24.9100 C   0  0  0  0  0  0  0  0  0  0  0  0
  -21.9420   -4.3310   23.7820 C   0  0  0  0  0  3  0  0  0  0  0  0
  -22.1510   -5.0690   22.6040 C   0  0  0  0  0  0  0  0  0  0  0  0
  -22.6750   -4.4590   21.5140 F   0  0  0  0  0  0  0  0  0  0  0  0
  -21.1710   -4.2380   26.0410 F   0  0  0  0  0  0  0  0  0  0  0  0
  -23.0430  -13.7440   21.0670 C   0  0  0  0  0  0  0  0  0  0  0  0
  -22.3330  -13.0520   21.9490 N   0  0  0  0  0  0  0  0  0  0  0  0
  -22.5960  -14.7670   20.5520 O   0  0  0  0  0  0  0  0  0  0  0  0
  -22.7140  -12.2280   22.3870 H   0  0  0  0  0  0  0  0  0  0  0  0
  -21.4010  -13.3620   22.1870 H   0  0  0  0  0  0  0  0  0  0  0  0
  -25.6310  -15.4210   20.2250 N   0  0  0  0  0  0  0  0  0  0  0  0
  -24.8510  -16.0460   20.4000 H   0  0  0  0  0  0  0  0  0  0  0  0
  -26.4250  -15.8880   19.8070 H   0  0  0  0  0  0  0  0  0  0  0  0
  -28.4740  -22.7890   20.2930 C   0  0  0  0  0  2  0  0  0  0  0  0
  -28.6730  -24.4880   19.7110 C   0  0  0  0  0  2  0  0  0  0  0  0
  -28.4630  -26.0480   20.2510 O   0  0  0  0  0  0  0  0  0  0  0  0
  -24.6800  -31.8690   23.1500 C   0  0  0  0  0  0  0  0  0  0  0  0
  -27.4140  -27.1020   20.1130 C   0  0  0  0  0  0  0  0  0  0  0  0
  -23.5420  -30.4600   21.4800 C   0  0  0  0  0  3  0  0  0  0  0  0
  -25.0580  -28.9160   20.0440 C   0  0  0  0  0  0  0  0  0  0  0  0
  -26.1010  -30.7420   21.3740 C   0  0  0  0  0  2  0  0  0  0  0  0
  -26.2170  -29.3460   20.6950 C   0  0  0  0  0  0  0  0  0  0  0  0
  -27.3790  -28.4530   20.7200 C   0  0  0  0  0  3  0  0  0  0  0  0
  -26.2230  -26.8230   19.4070 C   0  0  0  0  0  3  0  0  0  0  0  0
  -25.0840  -27.6740   19.3840 C   0  0  0  0  0  3  0  0  0  0  0  0
  -23.8050  -29.8010   20.0950 C   0  0  0  0  0  2  0  0  0  0  0  0
  -24.7930  -31.0520   22.0550 N   0  0  0  0  0  0  0  0  0  0  0  0
  -23.5790  -32.1220   23.6680 O   0  0  0  0  0  0  0  0  0  0  0  0
  -22.8710  -29.4300   22.4240 C   0  0  0  0  0  0  0  0  0  0  0  0
  -21.5440  -29.2460   22.3050 N   0  0  0  0  0  0  0  0  0  0  0  0
  -23.5540  -28.7970   23.2330 O   0  0  0  0  0  0  0  0  0  0  0  0
  -21.0410  -29.8120   21.6340 H   0  0  0  0  0  0  0  0  0  0  0  0
  -18.1850  -27.9950   22.8340 C   0  0  0  0  0  0  0  0  0  0  0  0
  -20.7460  -28.2760   23.0610 C   0  0  0  0  0  3  0  0  0  0  0  0
  -20.8490  -26.8630   22.4420 C   0  0  0  0  0  2  0  0  0  0  0  0
  -19.7350  -26.5620   21.4350 C   0  0  0  0  0  2  0  0  0  0  0  0
  -18.3630  -26.6710   22.1070 C   0  0  0  0  0  2  0  0  0  0  0  0
  -19.3040  -28.7560   23.2670 C   0  0  0  0  0  0  0  0  0  0  0  0
  -19.0810  -29.9930   23.9090 C   0  0  0  0  0  3  0  0  0  0  0  0
  -17.7760  -30.4700   24.1210 C   0  0  0  0  0  3  0  0  0  0  0  0
  -16.6720  -29.7060   23.7040 C   0  0  0  0  0  3  0  0  0  0  0  0
  -16.8780  -28.4710   23.0650 C   0  0  0  0  0  3  0  0  0  0  0  0
  -25.9310  -32.5400   23.7960 C   0  0  0  0  0  3  0  0  0  0  0  0
  -26.4400  -31.7860   25.0880 C   0  0  1  0  0  0  0  0  0  0  0  0
  -25.3280  -31.5190   26.1270 C   0  0  0  0  0  1  0  0  0  0  0  0
  -27.0780  -30.4250   24.7290 C   0  0  0  0  0  1  0  0  0  0  0  0
  -27.5460  -32.6160   25.7780 C   0  0  0  0  0  1  0  0  0  0  0  0
  -25.5760  -33.9300   24.1290 N   0  0  0  0  0  0  0  0  0  0  0  0
  -25.8790  -35.0010   23.3850 C   0  0  0  0  0  0  0  0  0  0  0  0
  -26.5510  -34.9270   22.3530 O   0  0  0  0  0  0  0  0  0  0  0  0
  -24.9760  -34.0590   24.9300 H   0  0  0  0  0  0  0  0  0  0  0  0
  -24.0960  -36.7500   23.0610 C   0  0  0  0  0  1  0  0  0  0  0  0
  -25.3540  -36.3720   23.8580 C   0  0  0  0  0  3  0  0  0  0  0  0
  -27.4580  -37.3260   24.6890 C   0  0  0  0  0  1  0  0  0  0  0  0
  -26.3520  -37.4590   23.7450 N   0  0  0  0  0  0  0  0  0  0  0  0
  -25.9140  -38.3640   23.8970 H   0  0  0  0  0  0  0  0  0  0  0  0
  2  1  1  0
  3  1  1  0
  4  7  1  0
  4  2  1  0
  5  4  1  0
  5 46  1  0
  5  3  1  0
  5  6  1  6
  7 16  1  0
  8 16  1  0
  9 14  1  0
 10 11  1  0
 10  9  1  0
 12 11  1  0
 12 21  1  0
 12 13  1  0
 14  8  1  0
 14 13  1  0
 15  8  2  0
 16 17  1  0
 18 19  2  0
 19 38  1  0
 20 19  1  0
 20 23  1  0
 21 22  1  0
 21 18  1  0
 22 20  2  0
 23 24  1  0
 24 25  2  0
 26 29  1  0
 26 25  1  0
 27 26  2  0
 28 27  1  0
 28 23  2  0
 29 30  1  0
 30 35  2  0
 30 31  1  0
 31 32  2  0
 32 33  1  0
 33 37  1  0
 34 33  2  0
 35 34  1  0
 36 35  1  0
 38 39  1  0
 39 42  1  0
 39 41  1  0
 40 38  2  0
 43 18  1  0
 43 44  1  0
 45 43  1  0
 47 48  1  0
 47 46  1  0
 49 60  2  0
 50 48  1  0
 50 55  1  0
 51 59  1  0
 51 61  1  0
 52 58  1  0
 52 54  1  0
 53 59  1  0
 54 55  2  0
 54 53  1  0
 56 50  2  0
 57 56  1  0
 57 52  2  0
 58 51  1  0
 59 49  1  0
 61 63  2  0
 62 61  1  0
 64 62  1  0
 65 74  2  0
 65 70  1  0
 66 62  1  0
 66 70  1  0
 67 66  1  0
 68 69  1  0
 68 67  1  0
 69 65  1  0
 70 71  2  0
 71 72  1  0
 73 72  2  0
 74 73  1  0
 75 49  1  0
 75 80  1  0
 75 76  1  0
 76 79  1  1
 76 77  1  0
 78 76  1  0
 80 83  1  0
 81 85  1  0
 81 80  1  0
 82 81  2  0
 85 84  1  0
 87 85  1  0
 87 88  1  0
 87 86  1  0
M  ISO  4   8 100  16 100  47 101  48 101
M  END
>  <TORSDO>  (52) 
F 19

>  <SCORE>  (52) 
-14.834

>  <name>  (52) 
53

>  <ligand_id>  (52) 
53

>  <original_smiles>  (52) 
[H]c1c([H])c([H])c2c(c1[H])C([H])([H])C([H])([H])C([H])([H])C2([H])N([H])C(=O)C1([H])N(C(=O)C([H])(N([H])C(=O)C([H])(N([H])C([H])([H])[H])C([H])([H])[H])C(C([H])([H])[H])(C([H])([H])[H])C([H])([H])[H])C([H])([H])c2c([H])c(OC([H])([H])C([H])([H])[N+]3([H])C([H])([H])C([H])([H])C([H])([H])C3([H])C([H])([H])N([H])C(=O)N3C([H])([H])C([H])([H])C([H])([H])C([H])(n4nc(-c5c([H])c([H])c(Oc6c([H])c([H])c(F)c([H])c6F)c([H])c5[H])c(C(=O)N([H])[H])c4N([H])[H])C3([H])[H])c([H])c([H])c2C1([H])[H]

>  <smiles>  (52) 
[H]c1c([H])c([H])c2c(c1[H])C([H])([H])C([H])([H])C([H])([H])C2([H])N([H])C(=O)C1([H])N(C(=O)C([H])(N([H])C(=O)C([H])(N([H])C([H])([H])[H])C([H])([H])[H])C(C([H])([H])[H])(C([H])([H])[H])C([H])([H])[H])C([H])([H])c2c([H])c(OC([H])([H])C([H])([H])[N+]3([H])C([H])([H])C([H])([H])C([H])([H])C3([H])C([H])([H])N([H])C(=O)N3C([H])([H])C([H])([H])C([H])([H])C([H])(n4nc(-c5c([H])c([H])c(Oc6c([H])c([H])c(F)c([H])c6F)c([H])c5[H])c(C(=O)N([H])[H])c4N([H])[H])C3([H])[H])c([H])c([H])c2C1([H])[H]

$$$$
54:0:0
     RDKit          3D

 97105  0  0  1  0  0  0  0  0999 V2000
  -30.4870  -20.0940   19.9070 C   0  0  0  0  0  3  0  0  0  0  0  0
  -31.1100  -18.8460   20.0770 C   0  0  0  0  0  3  0  0  0  0  0  0
  -28.3460  -18.9880   19.7290 C   0  0  0  0  0  3  0  0  0  0  0  0
  -29.0850  -20.1950   19.8110 C   0  0  0  0  0  0  0  0  0  0  0  0
  -30.3690  -17.6490   20.1580 C   0  0  0  0  0  0  0  0  0  0  0  0
  -28.9580  -17.7140   19.9160 C   0  0  0  0  0  0  0  0  0  0  0  0
  -31.1430  -16.3970   20.6310 C   0  0  0  0  0  2  0  0  0  0  0  0
  -31.0990  -14.1160   19.5330 C   0  0  0  0  0  0  0  0  0  0  0  0
  -30.6460  -11.8960   18.5470 C   0  0  0  0  0  2  0  0  0  0  0  0
  -29.5840  -12.0110   17.4350 C   0  0  0  0  0  2  0  0  0  0  0  0
  -28.1560  -11.9670   18.0190 C   0  0  0  0  0  2  0  0  0  0  0  0
  -27.9810  -12.9060   19.2390 C   0  0  0  0  0  3  0  0  0  0  0  0
  -29.1280  -12.7260   20.2540 C   0  0  0  0  0  2  0  0  0  0  0  0
  -30.3950  -12.9510   19.5390 N   0  0  0  0  0  0  0  0  0  0  0  0
  -32.1020  -14.2960   18.8350 O   0  0  0  0  0  0  0  0  0  0  0  0
  -30.5930  -15.0680   20.3460 N   0  0  0  0  0  0  0  0  0  0  0  0
  -29.8610  -14.7320   20.9470 H   0  0  0  0  0  0  0  0  0  0  0  0
  -25.7620  -13.6900   20.2810 C   0  0  0  0  0  0  0  0  0  0  0  0
  -24.6670  -13.0020   20.7280 C   0  0  0  0  0  0  0  0  0  0  0  0
  -24.9750  -11.6210   20.5620 C   0  0  0  0  0  0  0  0  0  0  0  0
  -26.6690  -12.7280   19.8620 N   0  0  0  0  0  0  0  0  0  0  0  0
  -26.2080  -11.4760   20.0920 N   0  0  0  0  0  0  0  0  0  0  0  0
  -24.1570  -10.4280   20.7930 C   0  0  0  0  0  0  0  0  0  0  0  0
  -24.5570   -9.4260   21.7010 C   0  0  0  0  0  3  0  0  0  0  0  0
  -23.7430   -8.2930   21.9180 C   0  0  0  0  0  3  0  0  0  0  0  0
  -22.5170   -8.1580   21.2230 C   0  0  0  0  0  0  0  0  0  0  0  0
  -22.1320   -9.1540   20.3080 C   0  0  0  0  0  3  0  0  0  0  0  0
  -22.9440  -10.2780   20.0890 C   0  0  0  0  0  3  0  0  0  0  0  0
  -21.6730   -7.0820   21.3460 O   0  0  0  0  0  0  0  0  0  0  0  0
  -21.5590   -6.3870   22.5250 C   0  0  0  0  0  0  0  0  0  0  0  0
  -21.1450   -7.0100   23.7220 C   0  0  0  0  0  3  0  0  0  0  0  0
  -20.9680   -6.2410   24.8890 C   0  0  0  0  0  3  0  0  0  0  0  0
  -21.2050   -4.8540   24.8630 C   0  0  0  0  0  0  0  0  0  0  0  0
  -21.6150   -4.2330   23.6690 C   0  0  0  0  0  3  0  0  0  0  0  0
  -21.7890   -4.9980   22.5030 C   0  0  0  0  0  0  0  0  0  0  0  0
  -22.1630   -4.3910   21.3510 F   0  0  0  0  0  0  0  0  0  0  0  0
  -21.0300   -4.1130   25.9810 F   0  0  0  0  0  0  0  0  0  0  0  0
  -23.3710  -13.5940   21.2040 C   0  0  0  0  0  0  0  0  0  0  0  0
  -22.7090  -12.9360   22.1470 N   0  0  0  0  0  0  0  0  0  0  0  0
  -22.9720  -14.6740   20.7730 O   0  0  0  0  0  0  0  0  0  0  0  0
  -23.0480  -12.0550   22.5020 H   0  0  0  0  0  0  0  0  0  0  0  0
  -21.8380  -13.3070   22.5110 H   0  0  0  0  0  0  0  0  0  0  0  0
  -26.0630  -15.0410   20.1880 N   0  0  0  0  0  4  0  0  0  0  0  0
  -25.3970  -15.7610   20.4380 H   0  0  0  0  0  0  0  0  0  0  0  0
  -26.9440  -15.3950   19.8330 H   0  0  0  0  0  0  0  0  0  0  0  0
  -28.3650  -21.5650   19.8760 C   0  0  0  0  0  2  0  0  0  0  0  0
  -29.2790  -22.7410   19.8490 N   0  0  0  0  0  4  0  0  0  0  0  0
  -29.5730  -22.9090   18.9000 H   0  0  0  0  0  0  0  0  0  0  0  0
  -30.0960  -22.4660   20.3640 H   0  0  0  0  0  0  0  0  0  0  0  0
  -28.8040  -24.0200   20.4740 C   0  0  0  0  0  2  0  0  0  0  0  0
  -28.1970  -25.0260   19.4790 C   0  0  0  0  0  2  0  0  0  0  0  0
  -28.2080  -26.3850   19.9800 O   0  0  0  0  0  0  0  0  0  0  0  0
  -24.5000  -31.6080   23.0880 C   0  0  0  0  0  0  0  0  0  0  0  0
  -27.0490  -27.1440   19.9370 C   0  0  0  0  0  0  0  0  0  0  0  0
  -23.2690  -30.2540   21.4260 C   0  0  0  0  0  3  0  0  0  0  0  0
  -24.6910  -28.7230   19.9790 C   0  0  0  0  0  0  0  0  0  0  0  0
  -25.8080  -30.5660   21.2410 C   0  0  0  0  0  2  0  0  0  0  0  0
  -25.8650  -29.2120   20.5620 C   0  0  0  0  0  0  0  0  0  0  0  0
  -27.0470  -28.4290   20.5390 C   0  0  0  0  0  3  0  0  0  0  0  0
  -25.8480  -26.6840   19.3330 C   0  0  0  0  0  3  0  0  0  0  0  0
  -24.6780  -27.4630   19.3640 C   0  0  0  0  0  3  0  0  0  0  0  0
  -23.4650  -29.6040   20.0370 C   0  0  0  0  0  2  0  0  0  0  0  0
  -24.5430  -30.8210   21.9740 N   0  0  0  0  0  0  0  0  0  0  0  0
  -23.4190  -31.8890   23.6280 O   0  0  0  0  0  0  0  0  0  0  0  0
  -22.6010  -29.2230   22.3690 C   0  0  0  0  0  0  0  0  0  0  0  0
  -21.2680  -29.0830   22.2620 N   0  0  0  0  0  0  0  0  0  0  0  0
  -23.2770  -28.5580   23.1550 O   0  0  0  0  0  0  0  0  0  0  0  0
  -20.7790  -29.6790   21.6050 H   0  0  0  0  0  0  0  0  0  0  0  0
  -17.8650  -28.0090   22.7820 C   0  0  0  0  0  0  0  0  0  0  0  0
  -20.4360  -28.1520   23.0250 C   0  0  0  0  0  3  0  0  0  0  0  0
  -20.4690  -26.7380   22.4000 C   0  0  0  0  0  2  0  0  0  0  0  0
  -19.3520  -26.5150   21.3740 C   0  0  0  0  0  2  0  0  0  0  0  0
  -17.9780  -26.6900   22.0370 C   0  0  0  0  0  2  0  0  0  0  0  0
  -19.0210  -28.7070   23.2260 C   0  0  0  0  0  0  0  0  0  0  0  0
  -18.8600  -29.9570   23.8580 C   0  0  0  0  0  3  0  0  0  0  0  0
  -17.5750  -30.4960   24.0770 C   0  0  0  0  0  3  0  0  0  0  0  0
  -16.4350  -29.7900   23.6590 C   0  0  0  0  0  3  0  0  0  0  0  0
  -16.5850  -28.5460   23.0140 C   0  0  0  0  0  3  0  0  0  0  0  0
  -25.7960  -32.2110   23.7130 C   0  0  0  0  0  3  0  0  0  0  0  0
  -25.5080  -33.6050   24.0660 N   0  0  0  0  0  0  0  0  0  0  0  0
  -25.8720  -34.6690   23.3380 C   0  0  0  0  0  0  0  0  0  0  0  0
  -26.5580  -34.5770   22.3180 O   0  0  0  0  0  0  0  0  0  0  0  0
  -24.9070  -33.7540   24.8610 H   0  0  0  0  0  0  0  0  0  0  0  0
  -24.1830  -36.4950   23.0030 C   0  0  0  0  0  1  0  0  0  0  0  0
  -25.4060  -36.0530   23.8210 C   0  0  0  0  0  3  0  0  0  0  0  0
  -27.5380  -36.8830   24.7120 C   0  0  0  0  0  1  0  0  0  0  0  0
  -26.4570  -37.0910   23.7490 N   0  0  0  0  0  0  0  0  0  0  0  0
  -26.0640  -38.0140   23.9110 H   0  0  0  0  0  0  0  0  0  0  0  0
  -26.3120  -31.4070   24.9700 C   0  0  1  0  0  0  0  0  0  0  0  0
  -25.2150  -31.1340   26.0250 C   0  0  0  0  0  1  0  0  0  0  0  0
  -26.9000  -30.0400   24.5510 C   0  0  0  0  0  1  0  0  0  0  0  0
  -27.4580  -32.1900   25.6560 C   0  0  0  0  0  1  0  0  0  0  0  0
  -28.0650  -16.4640   19.8950 C   0  0  0  0  0  2  0  0  0  0  0  0
  -27.0320  -16.4680   20.9410 N   0  0  0  0  0  0  0  0  0  0  0  0
  -27.4540  -16.5080   21.8500 H   0  0  0  0  0  0  0  0  0  0  0  0
  -26.4650  -15.6340   20.8760 H   0  0  0  0  0  0  0  0  0  0  0  0
  -26.4300  -17.2640   20.8440 H   0  0  0  0  0  0  0  0  0  0  0  0
  1  2  1  0
  2  5  2  0
  3  4  1  0
  3  6  2  0
  4 46  1  0
  4  1  2  0
  5  7  1  0
  6  5  1  0
  8 14  1  0
  8 16  1  0
  9 14  1  0
 10 11  1  0
 10  9  1  0
 12 11  1  0
 12 21  1  0
 12 13  1  0
 14 13  1  0
 15  8  2  0
 16  7  1  0
 16 17  1  0
 18 19  2  0
 19 38  1  0
 20 19  1  0
 20 23  1  0
 21 22  1  0
 21 18  1  0
 22 20  2  0
 23 24  1  0
 24 25  2  0
 26 29  1  0
 26 25  1  0
 27 26  2  0
 28 27  1  0
 28 23  2  0
 29 30  1  0
 30 31  1  0
 31 32  2  0
 33 32  1  0
 33 37  1  0
 34 33  2  0
 35 30  2  0
 35 34  1  0
 36 35  1  0
 38 39  1  0
 39 41  1  0
 39 42  1  0
 40 38  2  0
 43 18  1  0
 43 44  1  0
 43 96  1  0
 45 43  1  0
 47 46  1  0
 47 49  1  0
 47 50  1  0
 48 47  1  0
 51 52  1  0
 51 50  1  0
 53 64  2  0
 54 52  1  0
 54 59  1  0
 55 63  1  0
 55 65  1  0
 56 62  1  0
 56 58  1  0
 57 63  1  0
 58 57  1  0
 59 58  2  0
 60 61  1  0
 60 54  2  0
 61 56  2  0
 62 55  1  0
 63 53  1  0
 65 67  2  0
 66 65  1  0
 68 66  1  0
 69 78  2  0
 69 74  1  0
 70 66  1  0
 70 74  1  0
 71 70  1  0
 72 73  1  0
 72 71  1  0
 73 69  1  0
 74 75  2  0
 75 76  1  0
 77 76  2  0
 78 77  1  0
 79 53  1  0
 79 80  1  0
 79 89  1  0
 80 83  1  0
 81 85  1  0
 81 80  1  0
 82 81  2  0
 85 84  1  0
 87 85  1  0
 87 88  1  0
 87 86  1  0
 89 92  1  1
 89 90  1  0
 91 89  1  0
 93  6  1  0
 93 94  1  0
 94 95  1  0
 97 94  1  0
M  ISO  4   8 100  16 100  51 101  52 101
M  END
>  <TORSDO>  (53) 
F 23

>  <SCORE>  (53) 
-11.629

>  <name>  (53) 
54

>  <ligand_id>  (53) 
54

>  <original_smiles>  (53) 
[H]c1c([H])c([H])c2c(c1[H])C([H])([H])C([H])([H])C([H])([H])C2([H])N([H])C(=O)C1([H])N(C(=O)C([H])(N([H])C(=O)C([H])(N([H])C([H])([H])[H])C([H])([H])[H])C(C([H])([H])[H])(C([H])([H])[H])C([H])([H])[H])C([H])([H])c2c([H])c(OC([H])([H])C([H])([H])[N+]([H])([H])C([H])([H])c3c([H])c([H])c(C([H])([H])N([H])C(=O)N4C([H])([H])C([H])([H])C([H])([H])C([H])(n5nc(-c6c([H])c([H])c(Oc7c([H])c([H])c(F)c([H])c7F)c([H])c6[H])c(C(=O)N([H])[H])c5N([H])[H])C4([H])[H])c(C([H])([H])[N+]([H])([H])[H])c3[H])c([H])c([H])c2C1([H])[H]

>  <smiles>  (53) 
[H]c1c([H])c([H])c2c(c1[H])C([H])([H])C([H])([H])C([H])([H])C2([H])N([H])C(=O)C1([H])N(C(=O)C([H])(N([H])C(=O)C([H])(N([H])C([H])([H])[H])C([H])([H])[H])C(C([H])([H])[H])(C([H])([H])[H])C([H])([H])[H])C([H])([H])c2c([H])c(OC([H])([H])C([H])([H])[N+]([H])([H])C([H])([H])c3c([H])c([H])c(C([H])([H])N([H])C(=O)N4C([H])([H])C([H])([H])C([H])([H])C([H])(n5nc(-c6c([H])c([H])c(Oc7c([H])c([H])c(F)c([H])c7F)c([H])c6[H])c(C(=O)N([H])[H])c5N([H])[H])C4([H])[H])c(C([H])([H])[N+]([H])([H])[H])c3[H])c([H])c([H])c2C1([H])[H]

$$$$
55:0:0
     RDKit          3D

 86 90  0  0  1  0  0  0  0  0999 V2000
  -29.1890  -20.4110   20.2980 C   0  0  0  0  0  1  0  0  0  0  0  0
  -29.8930  -16.6660   20.2090 C   0  0  0  0  0  0  0  0  0  0  0  0
  -30.2680  -13.8990   19.4470 C   0  0  0  0  0  2  0  0  0  0  0  0
  -29.5140  -13.0590   18.3340 C   0  0  0  0  0  2  0  0  0  0  0  0
  -28.1870  -12.4850   18.8330 C   0  0  0  0  0  2  0  0  0  0  0  0
  -27.5280  -13.5180   19.7580 C   0  0  0  0  0  3  0  0  0  0  0  0
  -28.4770  -14.2170   20.8020 C   0  0  0  0  0  2  0  0  0  0  0  0
  -29.4740  -15.1370   20.0940 N   0  0  0  0  0  0  0  0  0  0  0  0
  -31.1400  -16.4520   20.1290 O   0  0  0  0  0  0  0  0  0  0  0  0
  -29.1690  -18.2950   20.2550 N   0  0  0  0  0  2  0  0  0  0  0  0
  -28.1810  -18.0770   20.2530 H   0  0  0  0  0  0  0  0  0  0  0  0
  -25.1680  -13.9230   20.5350 C   0  0  0  0  0  0  0  0  0  0  0  0
  -24.1290  -13.1150   20.8880 C   0  0  0  0  0  0  0  0  0  0  0  0
  -24.6290  -11.7760   20.8430 C   0  0  0  0  0  0  0  0  0  0  0  0
  -26.2400  -13.0900   20.2950 N   0  0  0  0  0  0  0  0  0  0  0  0
  -25.9290  -11.7820   20.5320 N   0  0  0  0  0  0  0  0  0  0  0  0
  -23.9150  -10.5000   21.0210 C   0  0  0  0  0  0  0  0  0  0  0  0
  -24.3300   -9.5400   21.9710 C   0  0  0  0  0  3  0  0  0  0  0  0
  -23.6050   -8.3390   22.1450 C   0  0  0  0  0  3  0  0  0  0  0  0
  -22.4490   -8.0870   21.3690 C   0  0  0  0  0  0  0  0  0  0  0  0
  -22.0500   -9.0350   20.4100 C   0  0  0  0  0  3  0  0  0  0  0  0
  -22.7760  -10.2270   20.2360 C   0  0  0  0  0  3  0  0  0  0  0  0
  -21.7000   -6.9380   21.4500 O   0  0  0  0  0  0  0  0  0  0  0  0
  -21.6110   -6.2140   22.6120 C   0  0  0  0  0  0  0  0  0  0  0  0
  -21.0980   -6.7770   23.8010 C   0  0  0  0  0  3  0  0  0  0  0  0
  -20.9590   -5.9790   24.9550 C   0  0  0  0  0  3  0  0  0  0  0  0
  -21.3220   -4.6190   24.9200 C   0  0  0  0  0  0  0  0  0  0  0  0
  -21.8270   -4.0550   23.7340 C   0  0  0  0  0  3  0  0  0  0  0  0
  -21.9670   -4.8510   22.5840 C   0  0  0  0  0  0  0  0  0  0  0  0
  -22.4330   -4.2960   21.4380 F   0  0  0  0  0  0  0  0  0  0  0  0
  -21.1820   -3.8500   26.0260 F   0  0  0  0  0  0  0  0  0  0  0  0
  -22.7220  -13.5660   21.1470 C   0  0  0  0  0  0  0  0  0  0  0  0
  -22.0020  -12.8640   22.0140 N   0  0  0  0  0  0  0  0  0  0  0  0
  -22.2730  -14.5820   20.6180 O   0  0  0  0  0  0  0  0  0  0  0  0
  -22.3820  -12.0440   22.4640 H   0  0  0  0  0  0  0  0  0  0  0  0
  -21.0590  -13.1510   22.2320 H   0  0  0  0  0  0  0  0  0  0  0  0
  -25.2900  -15.2990   20.3600 N   0  0  0  0  0  0  0  0  0  0  0  0
  -24.5020  -15.9290   20.4630 H   0  0  0  0  0  0  0  0  0  0  0  0
  -26.1270  -15.7600   20.0280 H   0  0  0  0  0  0  0  0  0  0  0  0
  -30.5860  -20.7000   19.7400 C   0  0  0  0  0  0  0  0  0  0  0  0
  -31.3440  -19.6520   19.4560 N   0  0  0  0  0  0  0  0  0  0  0  0
  -30.9910  -21.8460   19.5620 O   0  0  0  0  0  0  0  0  0  0  0  0
  -30.9390  -18.7400   19.6400 H   0  0  0  0  0  0  0  0  0  0  0  0
  -32.2790  -19.7430   19.0870 H   0  0  0  0  0  0  0  0  0  0  0  0
  -28.1660  -22.5360   20.1860 C   0  0  0  0  0 15  0  0  0  0  0  0
  -28.1080  -24.6400   20.3490 O   0  0  0  0  0  1  0  0  0  0  0  0
  -24.6890  -31.7890   23.1670 C   0  0  0  0  0  0  0  0  0  0  0  0
  -27.2020  -26.1380   20.2980 C   0  0  0  0  0  0  0  0  0  0  0  0
  -23.5370  -30.3640   21.5380 C   0  0  0  0  0  3  0  0  0  0  0  0
  -24.9960  -28.5720   20.1930 C   0  0  0  0  0  0  0  0  0  0  0  0
  -26.1370  -30.3150   21.5150 C   0  0  0  0  0  2  0  0  0  0  0  0
  -26.1960  -28.8080   20.8700 C   0  0  0  0  0  0  0  0  0  0  0  0
  -27.2470  -27.6440   20.8720 C   0  0  0  0  0  3  0  0  0  0  0  0
  -25.9630  -26.2770   19.5550 C   0  0  0  0  0  3  0  0  0  0  0  0
  -24.9570  -27.3350   19.5090 C   0  0  0  0  0  3  0  0  0  0  0  0
  -23.8200  -29.6020   20.1990 C   0  0  0  0  0  2  0  0  0  0  0  0
  -24.8200  -30.8710   22.1250 N   0  0  0  0  0  0  0  0  0  0  0  0
  -23.5790  -32.1230   23.6290 O   0  0  0  0  0  0  0  0  0  0  0  0
  -22.7480  -29.4570   22.5270 C   0  0  0  0  0  0  0  0  0  0  0  0
  -21.4070  -29.3540   22.4010 N   0  0  0  0  0  0  0  0  0  0  0  0
  -23.3660  -28.8330   23.3900 O   0  0  0  0  0  0  0  0  0  0  0  0
  -20.9480  -29.9050   21.6890 H   0  0  0  0  0  0  0  0  0  0  0  0
  -17.9850  -28.2110   22.9490 C   0  0  0  0  0  0  0  0  0  0  0  0
  -20.5550  -28.4370   23.1770 C   0  0  0  0  0  3  0  0  0  0  0  0
  -20.6190  -27.0030   22.5980 C   0  0  0  0  0  2  0  0  0  0  0  0
  -19.5030  -26.7110   21.5910 C   0  0  0  0  0  2  0  0  0  0  0  0
  -18.1300  -26.8700   22.2500 C   0  0  0  0  0  2  0  0  0  0  0  0
  -19.1220  -28.9540   23.3680 C   0  0  0  0  0  0  0  0  0  0  0  0
  -18.9240  -30.2040   23.9940 C   0  0  0  0  0  3  0  0  0  0  0  0
  -17.6280  -30.7140   24.1970 C   0  0  0  0  0  3  0  0  0  0  0  0
  -16.5070  -29.9700   23.7860 C   0  0  0  0  0  3  0  0  0  0  0  0
  -16.6870  -28.7200   23.1690 C   0  0  0  0  0  3  0  0  0  0  0  0
  -25.9170  -32.4760   23.8420 C   0  0  0  0  0  3  0  0  0  0  0  0
  -25.5710  -33.8830   24.1660 N   0  0  0  0  0  0  0  0  0  0  0  0
  -25.9050  -34.9620   23.4440 C   0  0  0  0  0  0  0  0  0  0  0  0
  -26.5770  -34.8800   22.4130 O   0  0  0  0  0  0  0  0  0  0  0  0
  -24.9680  -34.0180   24.9640 H   0  0  0  0  0  0  0  0  0  0  0  0
  -24.1670  -36.7730   23.1560 C   0  0  0  0  0  1  0  0  0  0  0  0
  -25.4260  -36.3500   23.9320 C   0  0  0  0  0  3  0  0  0  0  0  0
  -27.5690  -37.2530   24.7340 C   0  0  0  0  0  1  0  0  0  0  0  0
  -26.4510  -37.4130   23.8070 N   0  0  0  0  0  0  0  0  0  0  0  0
  -26.0410  -38.3290   23.9600 H   0  0  0  0  0  0  0  0  0  0  0  0
  -26.3780  -31.7470   25.1660 C   0  0  1  0  0  0  0  0  0  0  0  0
  -25.2420  -31.5430   26.1990 C   0  0  0  0  0  1  0  0  0  0  0  0
  -26.9730  -30.3570   24.8610 C   0  0  0  0  0  1  0  0  0  0  0  0
  -27.5050  -32.5580   25.8500 C   0  0  0  0  0  1  0  0  0  0  0  0
  2 10  1  0
  3  8  1  0
  4  5  1  0
  4  3  1  0
  6  5  1  0
  6 15  1  0
  6  7  1  0
  8  2  1  0
  8  7  1  0
  9  2  2  0
 11 10  1  0
 12 13  2  0
 13 32  1  0
 14 13  1  0
 14 17  1  0
 15 16  1  0
 15 12  1  0
 16 14  2  0
 17 18  1  0
 18 19  2  0
 20 23  1  0
 20 19  1  0
 21 20  2  0
 22 21  1  0
 22 17  2  0
 23 24  1  0
 24 25  1  0
 25 26  2  0
 27 26  1  0
 27 31  1  0
 28 27  2  0
 29 24  2  0
 29 28  1  0
 30 29  1  0
 32 33  1  0
 33 36  1  0
 33 35  1  0
 34 32  2  0
 37 38  1  0
 37 12  1  0
 39 37  1  0
 40  1  1  0
 41 43  1  0
 41 40  1  0
 42 40  2  0
 44 41  1  0
 47 58  2  0
 48 46  1  0
 48 53  1  0
 49 57  1  0
 49 59  1  0
 50 56  1  0
 50 52  1  0
 51 57  1  0
 52 53  2  0
 52 51  1  0
 54 48  2  0
 55 54  1  0
 55 50  2  0
 56 49  1  0
 57 47  1  0
 59 61  2  0
 60 59  1  0
 62 60  1  0
 63 72  2  0
 63 68  1  0
 64 60  1  0
 64 68  1  0
 65 64  1  0
 66 67  1  0
 66 65  1  0
 67 63  1  0
 68 69  2  0
 69 70  1  0
 71 70  2  0
 72 71  1  0
 73 47  1  0
 73 74  1  0
 73 83  1  0
 74 77  1  0
 75 79  1  0
 75 74  1  0
 76 75  2  0
 79 78  1  0
 81 79  1  0
 81 82  1  0
 81 80  1  0
 83 86  1  1
 83 84  1  0
 85 83  1  0
M  ISO  4   2 100  10 100  45 101  46 101
M  END
>  <TORSDO>  (54) 
F 18

>  <SCORE>  (54) 
-16.034

>  <name>  (54) 
55

>  <ligand_id>  (54) 
55

>  <original_smiles>  (54) 
[H]c1c([H])c([H])c2c(c1[H])C([H])([H])C([H])([H])C([H])([H])C2([H])N([H])C(=O)C1([H])N(C(=O)C([H])(N([H])C(=O)C([H])(N([H])C([H])([H])[H])C([H])([H])[H])C(C([H])([H])[H])(C([H])([H])[H])C([H])([H])[H])C([H])([H])c2c([H])c(OC([H])([H])C([H])(C(=O)N([H])[H])N([H])C(=O)N3C([H])([H])C([H])([H])C([H])([H])C([H])(n4nc(-c5c([H])c([H])c(Oc6c([H])c([H])c(F)c([H])c6F)c([H])c5[H])c(C(=O)N([H])[H])c4N([H])[H])C3([H])[H])c([H])c([H])c2C1([H])[H]

>  <smiles>  (54) 
[H]c1c([H])c([H])c2c(c1[H])C([H])([H])C([H])([H])C([H])([H])C2([H])N([H])C(=O)C1([H])N(C(=O)C([H])(N([H])C(=O)C([H])(N([H])C([H])([H])[H])C([H])([H])[H])C(C([H])([H])[H])(C([H])([H])[H])C([H])([H])[H])C([H])([H])c2c([H])c(OC([H])([H])C([H])(C(=O)N([H])[H])N([H])C(=O)N3C([H])([H])C([H])([H])C([H])([H])C([H])(n4nc(-c5c([H])c([H])c(Oc6c([H])c([H])c(F)c([H])c6F)c([H])c5[H])c(C(=O)N([H])[H])c4N([H])[H])C3([H])[H])c([H])c([H])c2C1([H])[H]

$$$$
56:0:0
     RDKit          3D

 90 97  0  0  1  0  0  0  0  0999 V2000
  -29.1830  -22.0020   20.3290 N   0  0  0  0  0  4  0  0  0  0  0  0
  -29.7710  -22.2590   21.1070 H   0  0  0  0  0  0  0  0  0  0  0  0
  -29.8140  -21.9110   19.5500 H   0  0  0  0  0  0  0  0  0  0  0  0
  -28.2750  -23.2770   19.9920 C   0  0  0  0  0  2  0  0  0  0  0  0
  -28.3700  -24.7890   20.7500 C   0  0  0  0  0  2  0  0  0  0  0  0
  -28.3280  -26.2510   20.1960 O   0  0  0  0  0  0  0  0  0  0  0  0
  -24.6130  -31.8840   23.2450 C   0  0  0  0  0  0  0  0  0  0  0  0
  -27.2230  -27.1710   20.2500 C   0  0  0  0  0  0  0  0  0  0  0  0
  -23.4230  -30.4780   21.6020 C   0  0  0  0  0  3  0  0  0  0  0  0
  -24.8820  -28.8940   20.1980 C   0  0  0  0  0  0  0  0  0  0  0  0
  -25.9740  -30.7560   21.4420 C   0  0  0  0  0  2  0  0  0  0  0  0
  -26.0570  -29.3570   20.8050 C   0  0  0  0  0  0  0  0  0  0  0  0
  -27.2300  -28.5150   20.8050 C   0  0  0  0  0  3  0  0  0  0  0  0
  -26.0200  -26.7970   19.6200 C   0  0  0  0  0  3  0  0  0  0  0  0
  -24.8750  -27.6270   19.5910 C   0  0  0  0  0  3  0  0  0  0  0  0
  -23.6530  -29.7910   20.2290 C   0  0  0  0  0  2  0  0  0  0  0  0
  -24.6900  -31.0620   22.1520 N   0  0  0  0  0  0  0  0  0  0  0  0
  -23.5240  -32.1630   23.7690 O   0  0  0  0  0  0  0  0  0  0  0  0
  -22.7450  -29.4750   22.5660 C   0  0  0  0  0  0  0  0  0  0  0  0
  -21.4190  -29.2950   22.4310 N   0  0  0  0  0  0  0  0  0  0  0  0
  -23.4150  -28.8560   23.3980 O   0  0  0  0  0  0  0  0  0  0  0  0
  -20.9340  -29.8440   21.7350 H   0  0  0  0  0  0  0  0  0  0  0  0
  -18.0430  -28.0710   22.9110 C   0  0  0  0  0  0  0  0  0  0  0  0
  -20.5970  -28.3560   23.2000 C   0  0  0  0  0  3  0  0  0  0  0  0
  -20.7150  -26.9210   22.6350 C   0  0  0  0  0  2  0  0  0  0  0  0
  -19.6250  -26.5830   21.6130 C   0  0  0  0  0  2  0  0  0  0  0  0
  -18.2360  -26.7200   22.2430 C   0  0  0  0  0  2  0  0  0  0  0  0
  -19.1520  -28.8460   23.3460 C   0  0  0  0  0  0  0  0  0  0  0  0
  -18.9150  -30.1080   23.9310 C   0  0  0  0  0  3  0  0  0  0  0  0
  -17.6050  -30.5960   24.0870 C   0  0  0  0  0  3  0  0  0  0  0  0
  -16.5110  -29.8210   23.6660 C   0  0  0  0  0  3  0  0  0  0  0  0
  -16.7320  -28.5590   23.0830 C   0  0  0  0  0  3  0  0  0  0  0  0
  -25.8860  -32.5250   23.8760 C   0  0  0  0  0  3  0  0  0  0  0  0
  -26.3850  -31.7680   25.1680 C   0  0  1  0  0  0  0  0  0  0  0  0
  -25.2790  -31.5470   26.2280 C   0  0  0  0  0  1  0  0  0  0  0  0
  -26.9690  -30.3840   24.8040 C   0  0  0  0  0  1  0  0  0  0  0  0
  -27.5320  -32.5670   25.8340 C   0  0  0  0  0  1  0  0  0  0  0  0
  -25.5730  -33.9280   24.1950 N   0  0  0  0  0  0  0  0  0  0  0  0
  -25.9110  -34.9780   23.4340 C   0  0  0  0  0  0  0  0  0  0  0  0
  -26.5850  -34.8690   22.4070 O   0  0  0  0  0  0  0  0  0  0  0  0
  -24.9760  -34.0870   24.9930 H   0  0  0  0  0  0  0  0  0  0  0  0
  -24.1880  -36.7750   23.0640 C   0  0  0  0  0  1  0  0  0  0  0  0
  -25.4240  -36.3700   23.8830 C   0  0  0  0  0  3  0  0  0  0  0  0
  -27.5540  -37.2560   24.7230 C   0  0  0  0  0  1  0  0  0  0  0  0
  -26.4580  -37.4210   23.7720 N   0  0  0  0  0  0  0  0  0  0  0  0
  -26.0520  -38.3430   23.9110 H   0  0  0  0  0  0  0  0  0  0  0  0
  -28.6740  -20.5260   20.6450 C   0  0  0  0  0  2  0  0  0  0  0  0
  -29.1890  -19.0450   19.9520 C   0  0  0  0  0  3  0  0  0  0  0  0
  -29.8630  -19.2700   18.5850 C   0  0  0  0  0  2  0  0  0  0  0  0
  -29.3050  -21.1070   16.9330 C   0  0  0  0  0  2  0  0  0  0  0  0
  -28.9710  -19.9830   17.5870 C   0  0  0  0  0  3  0  0  0  0  0  0
  -29.9130  -17.7150   20.7210 C   0  0  0  0  0  2  0  0  0  0  0  0
  -30.4670  -15.0050   20.2770 C   0  0  0  0  0  0  0  0  0  0  0  0
  -30.3660  -12.6590   19.3060 C   0  0  0  0  0  2  0  0  0  0  0  0
  -29.4240  -12.6060   18.0810 C   0  0  0  0  0  2  0  0  0  0  0  0
  -27.9620  -12.3900   18.5220 C   0  0  0  0  0  2  0  0  0  0  0  0
  -27.5570  -13.3100   19.7020 C   0  0  0  0  0  3  0  0  0  0  0  0
  -28.6180  -13.3170   20.8210 C   0  0  0  0  0  2  0  0  0  0  0  0
  -29.8780  -13.7440   20.2030 N   0  0  0  0  0  0  0  0  0  0  0  0
  -31.6790  -15.0780   20.0490 O   0  0  0  0  0  0  0  0  0  0  0  0
  -29.6600  -16.1750   20.4100 N   0  0  0  0  0  0  0  0  0  0  0  0
  -28.6830  -15.9310   20.4550 H   0  0  0  0  0  0  0  0  0  0  0  0
  -25.1750  -13.8800   20.4430 C   0  0  0  0  0  0  0  0  0  0  0  0
  -24.1160  -13.1020   20.8190 C   0  0  0  0  0  0  0  0  0  0  0  0
  -24.5900  -11.7540   20.7980 C   0  0  0  0  0  0  0  0  0  0  0  0
  -26.2230  -13.0070   20.2070 N   0  0  0  0  0  0  0  0  0  0  0  0
  -25.8800  -11.7240   20.4870 N   0  0  0  0  0  0  0  0  0  0  0  0
  -23.8710  -10.4890   20.9940 C   0  0  0  0  0  0  0  0  0  0  0  0
  -24.3020   -9.5320   21.9390 C   0  0  0  0  0  3  0  0  0  0  0  0
  -23.5800   -8.3330   22.1230 C   0  0  0  0  0  3  0  0  0  0  0  0
  -22.4140   -8.0810   21.3630 C   0  0  0  0  0  0  0  0  0  0  0  0
  -22.0030   -9.0260   20.4060 C   0  0  0  0  0  3  0  0  0  0  0  0
  -22.7240  -10.2170   20.2200 C   0  0  0  0  0  3  0  0  0  0  0  0
  -21.6640   -6.9340   21.4570 O   0  0  0  0  0  0  0  0  0  0  0  0
  -21.6100   -6.2020   22.6160 C   0  0  0  0  0  0  0  0  0  0  0  0
  -21.1600   -6.7620   23.8310 C   0  0  0  0  0  3  0  0  0  0  0  0
  -21.0550   -5.9570   24.9820 C   0  0  0  0  0  3  0  0  0  0  0  0
  -21.3900   -4.5900   24.9180 C   0  0  0  0  0  0  0  0  0  0  0  0
  -21.8340   -4.0290   23.7080 C   0  0  0  0  0  3  0  0  0  0  0  0
  -21.9400   -4.8330   22.5590 C   0  0  0  0  0  0  0  0  0  0  0  0
  -22.3480   -4.2830   21.3900 F   0  0  0  0  0  0  0  0  0  0  0  0
  -21.2820   -3.8130   26.0210 F   0  0  0  0  0  0  0  0  0  0  0  0
  -22.7160  -13.5730   21.0830 C   0  0  0  0  0  0  0  0  0  0  0  0
  -21.9900  -12.8780   21.9510 N   0  0  0  0  0  0  0  0  0  0  0  0
  -22.2750  -14.5940   20.5550 O   0  0  0  0  0  0  0  0  0  0  0  0
  -22.3600  -12.0540   22.4000 H   0  0  0  0  0  0  0  0  0  0  0  0
  -21.0480  -13.1730   22.1700 H   0  0  0  0  0  0  0  0  0  0  0  0
  -25.3280  -15.2520   20.2540 N   0  0  0  0  0  0  0  0  0  0  0  0
  -24.5470  -15.8920   20.3500 H   0  0  0  0  0  0  0  0  0  0  0  0
  -26.1530  -15.6920   19.8720 H   0  0  0  0  0  0  0  0  0  0  0  0
  1 47  1  0
  1  2  1  0
  3  1  1  0
  4  1  1  0
  4  5  1  0
  6  8  1  0
  6  5  1  0
  7 18  2  0
  8 13  1  0
  9 17  1  0
  9 19  1  0
 10 16  1  0
 10 12  1  0
 11 17  1  0
 12 11  1  0
 13 12  2  0
 14  8  2  0
 15 14  1  0
 15 10  2  0
 16  9  1  0
 17  7  1  0
 19 21  2  0
 20 19  1  0
 22 20  1  0
 23 32  2  0
 23 28  1  0
 24 20  1  0
 24 28  1  0
 25 24  1  0
 26 27  1  0
 26 25  1  0
 27 23  1  0
 28 29  2  0
 29 30  1  0
 31 30  2  0
 32 31  1  0
 33  7  1  0
 33 38  1  0
 33 34  1  0
 34 37  1  1
 34 35  1  0
 36 34  1  0
 38 41  1  0
 39 43  1  0
 39 38  1  0
 40 39  2  0
 43 42  1  0
 45 43  1  0
 45 46  1  0
 45 44  1  0
 48 49  1  0
 48 47  1  0
 48 52  1  0
 50 51  2  0
 51 49  1  0
 53 61  1  0
 54 59  1  0
 55 56  1  0
 55 54  1  0
 57 56  1  0
 57 66  1  0
 57 58  1  0
 59 53  1  0
 59 58  1  0
 60 53  2  0
 61 62  1  0
 61 52  1  0
 63 64  2  0
 64 83  1  0
 65 64  1  0
 65 68  1  0
 66 63  1  0
 66 67  1  0
 67 65  2  0
 68 69  1  0
 69 70  2  0
 71 74  1  0
 71 70  1  0
 72 71  2  0
 73 72  1  0
 73 68  2  0
 74 75  1  0
 75 76  1  0
 76 77  2  0
 78 77  1  0
 78 82  1  0
 79 78  2  0
 80 75  2  0
 80 79  1  0
 81 80  1  0
 83 84  1  0
 84 87  1  0
 84 86  1  0
 85 83  2  0
 88 89  1  0
 88 63  1  0
 90 88  1  0
M  ISO  4   5 101   6 101  53 100  61 100
M  END
>  <TORSDO>  (55) 
F 23

>  <SCORE>  (55) 
-13.939

>  <name>  (55) 
56

>  <ligand_id>  (55) 
56

>  <original_smiles>  (55) 
[H]C([H])=C([H])C([H])([H])C([H])(C([H])([H])N([H])C(=O)N1C([H])([H])C([H])([H])C([H])([H])C([H])(n2nc(-c3c([H])c([H])c(Oc4c([H])c([H])c(F)c([H])c4F)c([H])c3[H])c(C(=O)N([H])[H])c2N([H])[H])C1([H])[H])C([H])([H])[N+]([H])([H])C([H])([H])C([H])([H])Oc1c([H])c([H])c2c(c1[H])C([H])([H])N(C(=O)C([H])(N([H])C(=O)C([H])(N([H])C([H])([H])[H])C([H])([H])[H])C(C([H])([H])[H])(C([H])([H])[H])C([H])([H])[H])C([H])(C(=O)N([H])C1([H])c3c([H])c([H])c([H])c([H])c3C([H])([H])C([H])([H])C1([H])[H])C2([H])[H]

>  <smiles>  (55) 
[H]C([H])=C([H])C([H])([H])C([H])(C([H])([H])N([H])C(=O)N1C([H])([H])C([H])([H])C([H])([H])C([H])(n2nc(-c3c([H])c([H])c(Oc4c([H])c([H])c(F)c([H])c4F)c([H])c3[H])c(C(=O)N([H])[H])c2N([H])[H])C1([H])[H])C([H])([H])[N+]([H])([H])C([H])([H])C([H])([H])Oc1c([H])c([H])c2c(c1[H])C([H])([H])N(C(=O)C([H])(N([H])C(=O)C([H])(N([H])C([H])([H])[H])C([H])([H])[H])C(C([H])([H])[H])(C([H])([H])[H])C([H])([H])[H])C([H])(C(=O)N([H])C1([H])c3c([H])c([H])c([H])c([H])c3C([H])([H])C([H])([H])C1([H])[H])C2([H])[H]

$$$$
57:0:0
     RDKit          3D

 97104  0  0  1  0  0  0  0  0999 V2000
  -29.0640  -20.6050   16.1210 C   0  0  0  0  0  1  0  0  0  0  0  0
  -28.7140  -20.3760   17.6040 C   0  0  0  0  0  3  0  0  0  0  0  0
  -29.8500  -19.5920   18.3020 C   0  0  0  0  0  2  0  0  0  0  0  0
  -29.4830  -18.8950   19.6290 C   0  0  0  0  0  2  0  0  0  0  0  0
  -30.4480  -17.7240   19.9250 C   0  0  0  0  0  2  0  0  0  0  0  0
  -30.5340  -17.2570   21.3980 C   0  0  0  0  0  3  0  0  0  0  0  0
  -29.2000  -17.0650   22.0030 N   0  0  0  0  0  4  0  0  0  0  0  0
  -28.6240  -16.4470   21.4620 H   0  0  0  0  0  0  0  0  0  0  0  0
  -28.7270  -17.9470   22.0900 H   0  0  0  0  0  0  0  0  0  0  0  0
  -29.2970  -16.6920   22.9310 H   0  0  0  0  0  0  0  0  0  0  0  0
  -31.4140  -15.9860   21.5430 C   0  0  0  0  0  2  0  0  0  0  0  0
  -31.1510  -14.0020   20.0170 C   0  0  0  0  0  0  0  0  0  0  0  0
  -30.5900  -11.9920   18.6870 C   0  0  0  0  0  2  0  0  0  0  0  0
  -29.5930  -12.3390   17.5640 C   0  0  0  0  0  2  0  0  0  0  0  0
  -28.1420  -12.2780   18.0840 C   0  0  0  0  0  2  0  0  0  0  0  0
  -27.9530  -13.0750   19.4010 C   0  0  0  0  0  3  0  0  0  0  0  0
  -29.0410  -12.6860   20.4260 C   0  0  0  0  0  2  0  0  0  0  0  0
  -30.3610  -12.9170   19.8060 N   0  0  0  0  0  0  0  0  0  0  0  0
  -32.1480  -14.2640   19.3370 O   0  0  0  0  0  0  0  0  0  0  0  0
  -30.7670  -14.7650   21.0510 N   0  0  0  0  0  0  0  0  0  0  0  0
  -29.9970  -14.3960   21.5880 H   0  0  0  0  0  0  0  0  0  0  0  0
  -25.6400  -13.8470   20.2320 C   0  0  0  0  0  0  0  0  0  0  0  0
  -24.5490  -13.1480   20.6730 C   0  0  0  0  0  0  0  0  0  0  0  0
  -24.9190  -11.7680   20.6250 C   0  0  0  0  0  0  0  0  0  0  0  0
  -26.6100  -12.8970   19.9490 N   0  0  0  0  0  0  0  0  0  0  0  0
  -26.1820  -11.6430   20.2380 N   0  0  0  0  0  0  0  0  0  0  0  0
  -24.1260  -10.5560   20.8650 C   0  0  0  0  0  0  0  0  0  0  0  0
  -24.5560   -9.5630   21.7720 C   0  0  0  0  0  3  0  0  0  0  0  0
  -23.7690   -8.4140   22.0010 C   0  0  0  0  0  3  0  0  0  0  0  0
  -22.5380   -8.2510   21.3230 C   0  0  0  0  0  0  0  0  0  0  0  0
  -22.1260   -9.2320   20.4040 C   0  0  0  0  0  3  0  0  0  0  0  0
  -22.9130  -10.3720   20.1730 C   0  0  0  0  0  3  0  0  0  0  0  0
  -21.7200   -7.1560   21.4610 O   0  0  0  0  0  0  0  0  0  0  0  0
  -21.7000   -6.4150   22.6150 C   0  0  0  0  0  0  0  0  0  0  0  0
  -21.4190   -6.9980   23.8700 C   0  0  0  0  0  3  0  0  0  0  0  0
  -21.3410   -6.1880   25.0210 C   0  0  0  0  0  3  0  0  0  0  0  0
  -21.5320   -4.7980   24.9190 C   0  0  0  0  0  0  0  0  0  0  0  0
  -21.8070   -4.2150   23.6690 C   0  0  0  0  0  3  0  0  0  0  0  0
  -21.8870   -5.0220   22.5200 C   0  0  0  0  0  0  0  0  0  0  0  0
  -22.1310   -4.4520   21.3150 F   0  0  0  0  0  0  0  0  0  0  0  0
  -21.4500   -4.0180   26.0220 F   0  0  0  0  0  0  0  0  0  0  0  0
  -23.2030  -13.7150   21.0190 C   0  0  0  0  0  0  0  0  0  0  0  0
  -22.4880  -13.0780   21.9410 N   0  0  0  0  0  0  0  0  0  0  0  0
  -22.7970  -14.7580   20.5080 O   0  0  0  0  0  0  0  0  0  0  0  0
  -22.8250  -12.2310   22.3730 H   0  0  0  0  0  0  0  0  0  0  0  0
  -21.5850  -13.4400   22.2140 H   0  0  0  0  0  0  0  0  0  0  0  0
  -25.8830  -15.2030   20.0230 N   0  0  0  0  0  0  0  0  0  0  0  0
  -25.1000  -15.8470   20.0510 H   0  0  0  0  0  0  0  0  0  0  0  0
  -26.6070  -15.5020   19.3820 H   0  0  0  0  0  0  0  0  0  0  0  0
  -28.2810  -21.6790   18.3200 C   0  0  0  0  0  2  0  0  0  0  0  0
  -29.2440  -22.7910   18.1660 N   0  0  0  0  0  4  0  0  0  0  0  0
  -30.0870  -22.5750   18.6760 H   0  0  0  0  0  0  0  0  0  0  0  0
  -29.4810  -22.8710   17.1890 H   0  0  0  0  0  0  0  0  0  0  0  0
  -28.7110  -24.0910   18.6310 C   0  0  0  0  0  2  0  0  0  0  0  0
  -29.7600  -25.2160   18.6190 C   0  0  0  0  0  2  0  0  0  0  0  0
  -29.1310  -26.5980   18.8620 C   0  0  0  0  0  2  0  0  0  0  0  0
  -28.4890  -26.6360   20.1360 O   0  0  0  0  0  0  0  0  0  0  0  0
  -24.5370  -31.7290   23.1530 C   0  0  0  0  0  0  0  0  0  0  0  0
  -27.3030  -27.3240   20.1470 C   0  0  0  0  0  0  0  0  0  0  0  0
  -23.3820  -30.3090   21.4830 C   0  0  0  0  0  3  0  0  0  0  0  0
  -24.8830  -28.7730   20.1110 C   0  0  0  0  0  0  0  0  0  0  0  0
  -25.9040  -30.6890   21.3520 C   0  0  0  0  0  2  0  0  0  0  0  0
  -26.0150  -29.3140   20.7320 C   0  0  0  0  0  0  0  0  0  0  0  0
  -27.2250  -28.5910   20.7620 C   0  0  0  0  0  3  0  0  0  0  0  0
  -26.1540  -26.7780   19.5370 C   0  0  0  0  0  3  0  0  0  0  0  0
  -24.9430  -27.4980   19.5180 C   0  0  0  0  0  3  0  0  0  0  0  0
  -23.6330  -29.6230   20.1160 C   0  0  0  0  0  2  0  0  0  0  0  0
  -24.6220  -30.9230   22.0550 N   0  0  0  0  0  0  0  0  0  0  0  0
  -23.4400  -31.9970   23.6640 O   0  0  0  0  0  0  0  0  0  0  0  0
  -22.7140  -29.2890   22.4340 C   0  0  0  0  0  0  0  0  0  0  0  0
  -21.3910  -29.1170   22.2850 N   0  0  0  0  0  0  0  0  0  0  0  0
  -23.3820  -28.6580   23.2580 O   0  0  0  0  0  0  0  0  0  0  0  0
  -20.9180  -29.6760   21.5880 H   0  0  0  0  0  0  0  0  0  0  0  0
  -18.0000  -27.9440   22.7310 C   0  0  0  0  0  0  0  0  0  0  0  0
  -20.5560  -28.1820   23.0380 C   0  0  0  0  0  3  0  0  0  0  0  0
  -20.6550  -26.7520   22.4590 C   0  0  0  0  0  2  0  0  0  0  0  0
  -19.5640  -26.4420   21.4300 C   0  0  0  0  0  2  0  0  0  0  0  0
  -18.1740  -26.5950   22.0530 C   0  0  0  0  0  2  0  0  0  0  0  0
  -19.1200  -28.6960   23.1780 C   0  0  0  0  0  0  0  0  0  0  0  0
  -18.9010  -29.9580   23.7710 C   0  0  0  0  0  3  0  0  0  0  0  0
  -17.5970  -30.4700   23.9210 C   0  0  0  0  0  3  0  0  0  0  0  0
  -16.4930  -29.7160   23.4850 C   0  0  0  0  0  3  0  0  0  0  0  0
  -16.6960  -28.4550   22.8980 C   0  0  0  0  0  3  0  0  0  0  0  0
  -25.8050  -32.3650   23.8010 C   0  0  0  0  0  3  0  0  0  0  0  0
  -25.4710  -33.7530   24.1450 N   0  0  0  0  0  0  0  0  0  0  0  0
  -25.7960  -34.8200   23.4020 C   0  0  0  0  0  0  0  0  0  0  0  0
  -26.4830  -34.7400   22.3780 O   0  0  0  0  0  0  0  0  0  0  0  0
  -24.8660  -33.8860   24.9430 H   0  0  0  0  0  0  0  0  0  0  0  0
  -24.0420  -36.5890   23.0460 C   0  0  0  0  0  1  0  0  0  0  0  0
  -25.2800  -36.1960   23.8670 C   0  0  0  0  0  3  0  0  0  0  0  0
  -27.3940  -37.1050   24.7240 C   0  0  0  0  0  1  0  0  0  0  0  0
  -26.2970  -37.2670   23.7740 N   0  0  0  0  0  0  0  0  0  0  0  0
  -25.8760  -38.1780   23.9310 H   0  0  0  0  0  0  0  0  0  0  0  0
  -26.3130  -31.5820   25.0750 C   0  0  1  0  0  0  0  0  0  0  0  0
  -25.2100  -31.3130   26.1270 C   0  0  0  0  0  1  0  0  0  0  0  0
  -26.9170  -30.2170   24.6700 C   0  0  0  0  0  1  0  0  0  0  0  0
  -27.4440  -32.3810   25.7630 C   0  0  0  0  0  1  0  0  0  0  0  0
  2  1  1  0
  2  3  1  0
  2 50  1  0
  3  4  1  0
  4  5  1  0
  6  5  1  0
  6 11  1  0
  6  7  1  0
  7  9  1  0
  7 10  1  0
  8  7  1  0
 12 20  1  0
 13 18  1  0
 14 15  1  0
 14 13  1  0
 16 15  1  0
 16 25  1  0
 16 17  1  0
 18 12  1  0
 18 17  1  0
 19 12  2  0
 20 11  1  0
 20 21  1  0
 22 23  2  0
 23 42  1  0
 24 23  1  0
 24 27  1  0
 25 22  1  0
 25 26  1  0
 26 24  2  0
 27 28  1  0
 28 29  2  0
 30 33  1  0
 30 29  1  0
 31 30  2  0
 32 31  1  0
 32 27  2  0
 33 34  1  0
 34 35  1  0
 35 36  2  0
 37 36  1  0
 37 41  1  0
 38 37  2  0
 39 34  2  0
 39 38  1  0
 40 39  1  0
 42 43  1  0
 43 46  1  0
 43 45  1  0
 44 42  2  0
 47 48  1  0
 47 22  1  0
 49 47  1  0
 51 50  1  0
 51 54  1  0
 51 52  1  0
 53 51  1  0
 55 54  1  0
 55 56  1  0
 56 57  1  0
 57 59  1  0
 58 69  2  0
 59 64  1  0
 60 68  1  0
 60 70  1  0
 61 67  1  0
 61 63  1  0
 62 68  1  0
 63 64  2  0
 63 62  1  0
 65 59  2  0
 66 65  1  0
 66 61  2  0
 67 60  1  0
 68 58  1  0
 70 72  2  0
 71 70  1  0
 73 71  1  0
 74 83  2  0
 74 79  1  0
 75 71  1  0
 75 79  1  0
 76 75  1  0
 77 78  1  0
 77 76  1  0
 78 74  1  0
 79 80  2  0
 80 81  1  0
 82 81  2  0
 83 82  1  0
 84 58  1  0
 84 85  1  0
 84 94  1  0
 85 88  1  0
 86 90  1  0
 86 85  1  0
 87 86  2  0
 90 89  1  0
 92 90  1  0
 92 93  1  0
 92 91  1  0
 94 97  1  1
 94 95  1  0
 96 94  1  0
M  ISO  4  12 100  20 100  56 101  57 101
M  END
>  <TORSDO>  (56) 
F 27

>  <SCORE>  (56) 
-10.918

>  <name>  (56) 
57

>  <ligand_id>  (56) 
57

>  <original_smiles>  (56) 
[H]c1c([H])c([H])c2c(c1[H])C([H])([H])C([H])([H])C([H])([H])C2([H])N([H])C(=O)C1([H])N(C(=O)C([H])(N([H])C(=O)C([H])(N([H])C([H])([H])[H])C([H])([H])[H])C(C([H])([H])[H])(C([H])([H])[H])C([H])([H])[H])C([H])([H])c2c([H])c(OC([H])([H])C([H])([H])C([H])([H])[N+]([H])([H])C([H])([H])C([H])(C([H])([H])[H])C([H])([H])C([H])([H])C([H])([H])C([H])(C([H])([H])N([H])C(=O)N3C([H])([H])C([H])([H])C([H])([H])C([H])(n4nc(-c5c([H])c([H])c(Oc6c([H])c([H])c(F)c([H])c6F)c([H])c5[H])c(C(=O)N([H])[H])c4N([H])[H])C3([H])[H])[N+]([H])([H])[H])c([H])c([H])c2C1([H])[H]

>  <smiles>  (56) 
[H]c1c([H])c([H])c2c(c1[H])C([H])([H])C([H])([H])C([H])([H])C2([H])N([H])C(=O)C1([H])N(C(=O)C([H])(N([H])C(=O)C([H])(N([H])C([H])([H])[H])C([H])([H])[H])C(C([H])([H])[H])(C([H])([H])[H])C([H])([H])[H])C([H])([H])c2c([H])c(OC([H])([H])C([H])([H])C([H])([H])[N+]([H])([H])C([H])([H])C([H])(C([H])([H])[H])C([H])([H])C([H])([H])C([H])([H])C([H])(C([H])([H])N([H])C(=O)N3C([H])([H])C([H])([H])C([H])([H])C([H])(n4nc(-c5c([H])c([H])c(Oc6c([H])c([H])c(F)c([H])c6F)c([H])c5[H])c(C(=O)N([H])[H])c4N([H])[H])C3([H])[H])[N+]([H])([H])[H])c([H])c([H])c2C1([H])[H]

$$$$
58:0:0
     RDKit          3D

 90 97  0  0  1  0  0  0  0  0999 V2000
  -28.9660  -22.9100   20.4090 C   0  0  0  0  0  3  0  0  0  0  0  0
  -28.9380  -21.2230   19.8060 C   0  0  0  0  0  2  0  0  0  0  0  0
  -30.6920  -19.9280   21.3400 C   0  0  0  0  0  1  0  0  0  0  0  0
  -29.4450  -19.6510   20.4970 C   0  0  0  0  0  3  0  0  0  0  0  0
  -29.7680  -18.0670   19.7510 C   0  0  0  0  0  2  0  0  0  0  0  0
  -30.4510  -15.2470   20.1810 C   0  0  0  0  0  0  0  0  0  0  0  0
  -30.3870  -12.8180   19.3320 C   0  0  0  0  0  2  0  0  0  0  0  0
  -29.4560  -12.6500   18.1060 C   0  0  0  0  0  2  0  0  0  0  0  0
  -28.0020  -12.4020   18.5490 C   0  0  0  0  0  2  0  0  0  0  0  0
  -27.5680  -13.3520   19.6940 C   0  0  0  0  0  3  0  0  0  0  0  0
  -28.6270  -13.4830   20.8100 C   0  0  0  0  0  2  0  0  0  0  0  0
  -29.8690  -13.9520   20.1770 N   0  0  0  0  0  0  0  0  0  0  0  0
  -31.6530  -15.2480   19.8890 O   0  0  0  0  0  0  0  0  0  0  0  0
  -29.6970  -16.5060   20.3050 N   0  0  0  0  0  0  0  0  0  0  0  0
  -28.7630  -16.3040   20.6310 H   0  0  0  0  0  0  0  0  0  0  0  0
  -25.1940  -13.9180   20.4440 C   0  0  0  0  0  0  0  0  0  0  0  0
  -24.1320  -13.1450   20.8210 C   0  0  0  0  0  0  0  0  0  0  0  0
  -24.5960  -11.7950   20.8000 C   0  0  0  0  0  0  0  0  0  0  0  0
  -26.2380  -13.0420   20.2050 N   0  0  0  0  0  0  0  0  0  0  0  0
  -25.8890  -11.7600   20.4870 N   0  0  0  0  0  0  0  0  0  0  0  0
  -23.8680  -10.5360   21.0060 C   0  0  0  0  0  0  0  0  0  0  0  0
  -24.3050   -9.5700   21.9410 C   0  0  0  0  0  3  0  0  0  0  0  0
  -23.5740   -8.3760   22.1340 C   0  0  0  0  0  3  0  0  0  0  0  0
  -22.3920   -8.1390   21.3920 C   0  0  0  0  0  0  0  0  0  0  0  0
  -21.9720   -9.0950   20.4490 C   0  0  0  0  0  3  0  0  0  0  0  0
  -22.7030  -10.2790   20.2540 C   0  0  0  0  0  3  0  0  0  0  0  0
  -21.6340   -6.9960   21.4890 O   0  0  0  0  0  0  0  0  0  0  0  0
  -21.6030   -6.2490   22.6390 C   0  0  0  0  0  0  0  0  0  0  0  0
  -21.2160   -6.8060   23.8770 C   0  0  0  0  0  3  0  0  0  0  0  0
  -21.1300   -5.9870   25.0210 C   0  0  0  0  0  3  0  0  0  0  0  0
  -21.4280   -4.6120   24.9280 C   0  0  0  0  0  0  0  0  0  0  0  0
  -21.8120   -4.0580   23.6940 C   0  0  0  0  0  3  0  0  0  0  0  0
  -21.8950   -4.8740   22.5530 C   0  0  0  0  0  0  0  0  0  0  0  0
  -22.2450   -4.3310   21.3620 F   0  0  0  0  0  0  0  0  0  0  0  0
  -21.3400   -3.8250   26.0240 F   0  0  0  0  0  0  0  0  0  0  0  0
  -22.7360  -13.6270   21.0840 C   0  0  0  0  0  0  0  0  0  0  0  0
  -22.0000  -12.9500   21.9590 N   0  0  0  0  0  0  0  0  0  0  0  0
  -22.3030  -14.6450   20.5460 O   0  0  0  0  0  0  0  0  0  0  0  0
  -22.3640  -12.1320   22.4260 H   0  0  0  0  0  0  0  0  0  0  0  0
  -21.0640  -13.2620   22.1690 H   0  0  0  0  0  0  0  0  0  0  0  0
  -25.3570  -15.2860   20.2570 N   0  0  0  0  0  0  0  0  0  0  0  0
  -24.5910  -15.9380   20.3720 H   0  0  0  0  0  0  0  0  0  0  0  0
  -26.1880  -15.7190   19.8750 H   0  0  0  0  0  0  0  0  0  0  0  0
  -30.4430  -23.3550   20.3390 C   0  0  0  0  0  2  0  0  0  0  0  0
  -30.7690  -24.4200   21.3050 N   0  0  0  0  0  4  0  0  0  0  0  0
  -30.0830  -25.1560   21.2590 H   0  0  0  0  0  0  0  0  0  0  0  0
  -31.6670  -24.8190   21.1010 H   0  0  0  0  0  0  0  0  0  0  0  0
  -30.7940  -24.0560   22.2420 H   0  0  0  0  0  0  0  0  0  0  0  0
  -28.0610  -24.3650   19.9240 C   0  0  0  0  0  2  0  0  0  0  0  0
  -28.2240  -25.9470   20.2900 O   0  0  0  0  0  0  0  0  0  0  0  0
  -24.6370  -31.8610   23.2240 C   0  0  0  0  0  0  0  0  0  0  0  0
  -27.1990  -27.0100   20.2080 C   0  0  0  0  0  0  0  0  0  0  0  0
  -23.4390  -30.4600   21.5930 C   0  0  0  0  0  3  0  0  0  0  0  0
  -24.8880  -28.8520   20.1750 C   0  0  0  0  0  0  0  0  0  0  0  0
  -26.0040  -30.6760   21.4400 C   0  0  0  0  0  2  0  0  0  0  0  0
  -26.0740  -29.2670   20.7910 C   0  0  0  0  0  0  0  0  0  0  0  0
  -27.2230  -28.3660   20.7830 C   0  0  0  0  0  3  0  0  0  0  0  0
  -25.9830  -26.7340   19.5420 C   0  0  0  0  0  3  0  0  0  0  0  0
  -24.8650  -27.6040   19.5310 C   0  0  0  0  0  3  0  0  0  0  0  0
  -23.6670  -29.7690   20.2190 C   0  0  0  0  0  2  0  0  0  0  0  0
  -24.7170  -31.0240   22.1400 N   0  0  0  0  0  0  0  0  0  0  0  0
  -23.5490  -32.1490   23.7460 O   0  0  0  0  0  0  0  0  0  0  0  0
  -22.7450  -29.4640   22.5580 C   0  0  0  0  0  0  0  0  0  0  0  0
  -21.4130  -29.3030   22.4370 N   0  0  0  0  0  0  0  0  0  0  0  0
  -23.4130  -28.8360   23.3840 O   0  0  0  0  0  0  0  0  0  0  0  0
  -20.9300  -29.8730   21.7570 H   0  0  0  0  0  0  0  0  0  0  0  0
  -18.0300  -28.1000   22.9390 C   0  0  0  0  0  0  0  0  0  0  0  0
  -20.5890  -28.3690   23.2090 C   0  0  0  0  0  3  0  0  0  0  0  0
  -20.6900  -26.9320   22.6450 C   0  0  0  0  0  2  0  0  0  0  0  0
  -19.5910  -26.6020   21.6290 C   0  0  0  0  0  2  0  0  0  0  0  0
  -18.2090  -26.7490   22.2700 C   0  0  0  0  0  2  0  0  0  0  0  0
  -19.1470  -28.8680   23.3650 C   0  0  0  0  0  0  0  0  0  0  0  0
  -18.9230  -30.1310   23.9550 C   0  0  0  0  0  3  0  0  0  0  0  0
  -17.6170  -30.6300   24.1170 C   0  0  0  0  0  3  0  0  0  0  0  0
  -16.5150  -29.8580   23.7050 C   0  0  0  0  0  3  0  0  0  0  0  0
  -16.7220  -28.5950   23.1240 C   0  0  0  0  0  3  0  0  0  0  0  0
  -25.9100  -32.5030   23.8570 C   0  0  0  0  0  3  0  0  0  0  0  0
  -26.4120  -31.7430   25.1460 C   0  0  1  0  0  0  0  0  0  0  0  0
  -25.3150  -31.5220   26.2150 C   0  0  0  0  0  1  0  0  0  0  0  0
  -26.9890  -30.3590   24.7760 C   0  0  0  0  0  1  0  0  0  0  0  0
  -27.5610  -32.5390   25.8090 C   0  0  0  0  0  1  0  0  0  0  0  0
  -25.5930  -33.9030   24.1900 N   0  0  0  0  0  0  0  0  0  0  0  0
  -25.9160  -34.9610   23.4370 C   0  0  0  0  0  0  0  0  0  0  0  0
  -26.5750  -34.8620   22.3980 O   0  0  0  0  0  0  0  0  0  0  0  0
  -25.0090  -34.0520   24.9990 H   0  0  0  0  0  0  0  0  0  0  0  0
  -24.1770  -36.7560   23.1220 C   0  0  0  0  0  1  0  0  0  0  0  0
  -25.4350  -36.3490   23.9060 C   0  0  0  0  0  3  0  0  0  0  0  0
  -27.5840  -37.2420   24.6900 C   0  0  0  0  0  1  0  0  0  0  0  0
  -26.4620  -37.4060   23.7730 N   0  0  0  0  0  0  0  0  0  0  0  0
  -26.0550  -38.3240   23.9350 H   0  0  0  0  0  0  0  0  0  0  0  0
  1  2  1  0
  2  4  1  0
  4  3  1  0
  5 14  1  0
  5  4  1  0
  6 14  1  0
  7 12  1  0
  8  9  1  0
  8  7  1  0
 10  9  1  0
 10 19  1  0
 10 11  1  0
 12  6  1  0
 12 11  1  0
 13  6  2  0
 14 15  1  0
 16 17  2  0
 17 36  1  0
 18 17  1  0
 18 21  1  0
 19 16  1  0
 19 20  1  0
 20 18  2  0
 21 22  1  0
 22 23  2  0
 24 27  1  0
 24 23  1  0
 25 24  2  0
 26 25  1  0
 26 21  2  0
 27 28  1  0
 28 29  1  0
 29 30  2  0
 31 30  1  0
 31 35  1  0
 32 31  2  0
 33 28  2  0
 33 32  1  0
 34 33  1  0
 36 37  1  0
 37 40  1  0
 37 39  1  0
 38 36  2  0
 41 42  1  0
 41 16  1  0
 43 41  1  0
 44  1  1  0
 44 45  1  0
 45 48  1  0
 46 45  1  0
 47 45  1  0
 49 50  1  0
 49  1  1  0
 51 62  2  0
 52 50  1  0
 52 57  1  0
 53 61  1  0
 53 63  1  0
 54 60  1  0
 54 56  1  0
 55 61  1  0
 56 55  1  0
 57 56  2  0
 58 52  2  0
 59 58  1  0
 59 54  2  0
 60 53  1  0
 61 51  1  0
 63 65  2  0
 64 63  1  0
 66 64  1  0
 67 76  2  0
 67 72  1  0
 68 64  1  0
 68 72  1  0
 69 68  1  0
 70 71  1  0
 70 69  1  0
 71 67  1  0
 72 73  2  0
 73 74  1  0
 75 74  2  0
 76 75  1  0
 77 51  1  0
 77 82  1  0
 77 78  1  0
 78 81  1  1
 78 79  1  0
 80 78  1  0
 82 85  1  0
 83 87  1  0
 83 82  1  0
 84 83  2  0
 87 86  1  0
 89 87  1  0
 89 90  1  0
 89 88  1  0
M  ISO  4   6 100  14 100  49 101  50 101
M  END
>  <TORSDO>  (57) 
F 22

>  <SCORE>  (57) 
-15.417

>  <name>  (57) 
58

>  <ligand_id>  (57) 
58

>  <original_smiles>  (57) 
[H]c1c([H])c([H])c2c(c1[H])C([H])([H])C([H])([H])C([H])([H])C2([H])N([H])C(=O)C1([H])N(C(=O)C([H])(N([H])C(=O)C([H])(N([H])C([H])([H])[H])C([H])([H])[H])C(C([H])([H])[H])(C([H])([H])[H])C([H])([H])[H])C([H])([H])c2c([H])c(OC([H])([H])C([H])(C([H])([H])C([H])(C([H])([H])[H])C([H])([H])N([H])C(=O)N3C([H])([H])C([H])([H])C([H])([H])C([H])(n4nc(-c5c([H])c([H])c(Oc6c([H])c([H])c(F)c([H])c6F)c([H])c5[H])c(C(=O)N([H])[H])c4N([H])[H])C3([H])[H])C([H])([H])[N+]([H])([H])[H])c([H])c([H])c2C1([H])[H]

>  <smiles>  (57) 
[H]c1c([H])c([H])c2c(c1[H])C([H])([H])C([H])([H])C([H])([H])C2([H])N([H])C(=O)C1([H])N(C(=O)C([H])(N([H])C(=O)C([H])(N([H])C([H])([H])[H])C([H])([H])[H])C(C([H])([H])[H])(C([H])([H])[H])C([H])([H])[H])C([H])([H])c2c([H])c(OC([H])([H])C([H])(C([H])([H])C([H])(C([H])([H])[H])C([H])([H])N([H])C(=O)N3C([H])([H])C([H])([H])C([H])([H])C([H])(n4nc(-c5c([H])c([H])c(Oc6c([H])c([H])c(F)c([H])c6F)c([H])c5[H])c(C(=O)N([H])[H])c4N([H])[H])C3([H])[H])C([H])([H])[N+]([H])([H])[H])c([H])c([H])c2C1([H])[H]

$$$$
59:0:0
     RDKit          3D

 98106  0  0  1  0  0  0  0  0999 V2000
  -29.2180  -20.3950   19.8390 C   0  0  0  0  0  3  0  0  0  0  0  0
  -30.7310  -20.4930   19.4470 C   0  0  0  0  0  2  0  0  0  0  0  0
  -31.1920  -21.2700   18.2020 C   0  0  0  0  0  2  0  0  0  0  0  0
  -32.7080  -21.2250   18.0380 C   0  0  0  0  0  0  0  0  0  0  0  0
  -33.3000  -22.0610   17.1680 N   0  0  0  0  0  4  0  0  0  0  0  0
  -33.5020  -20.3810   18.7280 N   0  0  0  0  0  0  0  0  0  0  0  0
  -32.7660  -22.7590   16.6660 H   0  0  0  0  0  0  0  0  0  0  0  0
  -34.2810  -22.0000   16.9490 H   0  0  0  0  0  0  0  0  0  0  0  0
  -33.1080  -19.7400   19.4030 H   0  0  0  0  0  0  0  0  0  0  0  0
  -34.5060  -20.3290   18.6110 H   0  0  0  0  0  0  0  0  0  0  0  0
  -29.3600  -18.6350   20.5820 C   0  0  0  0  0  2  0  0  0  0  0  0
  -30.2600  -15.5950   20.1810 C   0  0  0  0  0  0  0  0  0  0  0  0
  -30.3490  -13.0670   19.3500 C   0  0  0  0  0  2  0  0  0  0  0  0
  -29.4160  -12.6380   18.1850 C   0  0  0  0  0  2  0  0  0  0  0  0
  -28.0100  -12.2930   18.7000 C   0  0  0  0  0  2  0  0  0  0  0  0
  -27.5220  -13.3160   19.7480 C   0  0  0  0  0  3  0  0  0  0  0  0
  -28.5880  -13.6390   20.8180 C   0  0  0  0  0  2  0  0  0  0  0  0
  -29.7340  -14.2420   20.1040 N   0  0  0  0  0  0  0  0  0  0  0  0
  -31.4980  -15.5570   20.0850 O   0  0  0  0  0  0  0  0  0  0  0  0
  -29.4680  -16.9230   20.1480 N   0  0  0  0  0  0  0  0  0  0  0  0
  -28.5240  -16.6350   19.9280 H   0  0  0  0  0  0  0  0  0  0  0  0
  -25.1790  -13.8450   20.5810 C   0  0  0  0  0  0  0  0  0  0  0  0
  -24.1230  -13.0650   20.9580 C   0  0  0  0  0  0  0  0  0  0  0  0
  -24.5870  -11.7140   20.8930 C   0  0  0  0  0  0  0  0  0  0  0  0
  -26.2190  -12.9760   20.2990 N   0  0  0  0  0  0  0  0  0  0  0  0
  -25.8750  -11.6860   20.5540 N   0  0  0  0  0  0  0  0  0  0  0  0
  -23.8610  -10.4470   21.0790 C   0  0  0  0  0  0  0  0  0  0  0  0
  -24.3120   -9.4650   21.9830 C   0  0  0  0  0  3  0  0  0  0  0  0
  -23.5880   -8.2660   22.1590 C   0  0  0  0  0  3  0  0  0  0  0  0
  -22.3960   -8.0430   21.4300 C   0  0  0  0  0  0  0  0  0  0  0  0
  -21.9590   -9.0190   20.5150 C   0  0  0  0  0  3  0  0  0  0  0  0
  -22.6860  -10.2090   20.3390 C   0  0  0  0  0  3  0  0  0  0  0  0
  -21.6370   -6.8990   21.5200 O   0  0  0  0  0  0  0  0  0  0  0  0
  -21.6130   -6.1350   22.6570 C   0  0  0  0  0  0  0  0  0  0  0  0
  -21.2080   -6.6650   23.9030 C   0  0  0  0  0  3  0  0  0  0  0  0
  -21.1350   -5.8280   25.0310 C   0  0  0  0  0  3  0  0  0  0  0  0
  -21.4530   -4.4610   24.9170 C   0  0  0  0  0  0  0  0  0  0  0  0
  -21.8540   -3.9320   23.6790 C   0  0  0  0  0  3  0  0  0  0  0  0
  -21.9290   -4.7660   22.5490 C   0  0  0  0  0  0  0  0  0  0  0  0
  -22.2930   -4.2480   21.3530 F   0  0  0  0  0  0  0  0  0  0  0  0
  -21.3740   -3.6540   26.0010 F   0  0  0  0  0  0  0  0  0  0  0  0
  -22.7330  -13.5390   21.2630 C   0  0  0  0  0  0  0  0  0  0  0  0
  -22.0200  -12.8330   22.1350 N   0  0  0  0  0  0  0  0  0  0  0  0
  -22.2870  -14.5700   20.7580 O   0  0  0  0  0  0  0  0  0  0  0  0
  -22.3910  -11.9970   22.5590 H   0  0  0  0  0  0  0  0  0  0  0  0
  -21.0910  -13.1400   22.3840 H   0  0  0  0  0  0  0  0  0  0  0  0
  -25.3360  -15.2150   20.4190 N   0  0  0  0  0  0  0  0  0  0  0  0
  -24.5770  -15.8700   20.5640 H   0  0  0  0  0  0  0  0  0  0  0  0
  -26.1700  -15.6580   20.0630 H   0  0  0  0  0  0  0  0  0  0  0  0
  -28.5920  -22.1550   20.4080 C   0  0  0  0  0  3  0  0  0  0  0  0
  -29.7460  -23.8750   23.5530 C   0  0  0  0  0  2  0  0  0  0  0  0
  -30.5060  -24.5760   22.4390 C   0  0  0  0  0  2  0  0  0  0  0  0
  -28.7000  -23.0750   22.7710 C   0  0  0  0  0  2  0  0  0  0  0  0
  -30.4820  -23.5800   21.2730 C   0  0  0  0  0  2  0  0  0  0  0  0
  -29.4330  -22.5650   21.5810 N   0  0  2  0  0  4  0  0  0  0  0  0
  -29.8970  -21.7410   21.9350 H   0  0  0  0  0  0  0  0  0  0  0  0
  -27.9970  -23.8320   19.6600 C   0  0  0  0  0  2  0  0  0  0  0  0
  -28.0000  -25.5470   20.0080 O   0  0  0  0  0  0  0  0  0  0  0  0
  -24.5740  -31.7960   22.9960 C   0  0  0  0  0  0  0  0  0  0  0  0
  -27.0050  -26.7320   19.9290 C   0  0  0  0  0  0  0  0  0  0  0  0
  -23.3240  -30.3900   21.4060 C   0  0  0  0  0  3  0  0  0  0  0  0
  -24.7230  -28.7370   19.9470 C   0  0  0  0  0  0  0  0  0  0  0  0
  -25.8950  -30.5360   21.1900 C   0  0  0  0  0  2  0  0  0  0  0  0
  -25.9350  -29.1060   20.5390 C   0  0  0  0  0  0  0  0  0  0  0  0
  -27.0580  -28.1290   20.5040 C   0  0  0  0  0  3  0  0  0  0  0  0
  -25.7570  -26.5630   19.2890 C   0  0  0  0  0  3  0  0  0  0  0  0
  -24.6680  -27.4890   19.3060 C   0  0  0  0  0  3  0  0  0  0  0  0
  -23.5130  -29.6860   20.0290 C   0  0  0  0  0  2  0  0  0  0  0  0
  -24.6240  -30.9440   21.9160 N   0  0  0  0  0  0  0  0  0  0  0  0
  -23.4970  -32.1020   23.5360 O   0  0  0  0  0  0  0  0  0  0  0  0
  -22.6420  -29.4200   22.4030 C   0  0  0  0  0  0  0  0  0  0  0  0
  -21.3030  -29.2770   22.3260 N   0  0  0  0  0  0  0  0  0  0  0  0
  -23.3200  -28.8010   23.2270 O   0  0  0  0  0  0  0  0  0  0  0  0
  -20.8060  -29.8260   21.6390 H   0  0  0  0  0  0  0  0  0  0  0  0
  -17.9300  -28.0820   22.9320 C   0  0  0  0  0  0  0  0  0  0  0  0
  -20.4970  -28.3460   23.1250 C   0  0  0  0  0  3  0  0  0  0  0  0
  -20.5790  -26.9130   22.5480 C   0  0  0  0  0  2  0  0  0  0  0  0
  -19.4440  -26.5870   21.5710 C   0  0  0  0  0  2  0  0  0  0  0  0
  -18.0830  -26.7330   22.2540 C   0  0  0  0  0  2  0  0  0  0  0  0
  -19.0610  -28.8460   23.3260 C   0  0  0  0  0  0  0  0  0  0  0  0
  -18.8540  -30.1060   23.9300 C   0  0  0  0  0  3  0  0  0  0  0  0
  -17.5550  -30.6030   24.1350 C   0  0  0  0  0  3  0  0  0  0  0  0
  -16.4390  -29.8370   23.7500 C   0  0  0  0  0  3  0  0  0  0  0  0
  -16.6300  -28.5760   23.1610 C   0  0  0  0  0  3  0  0  0  0  0  0
  -25.8590  -32.4410   23.6020 C   0  0  0  0  0  3  0  0  0  0  0  0
  -25.5360  -33.8280   23.9910 N   0  0  0  0  0  0  0  0  0  0  0  0
  -25.8780  -34.9200   23.2970 C   0  0  0  0  0  0  0  0  0  0  0  0
  -26.5530  -34.8660   22.2640 O   0  0  0  0  0  0  0  0  0  0  0  0
  -24.9290  -33.9420   24.7900 H   0  0  0  0  0  0  0  0  0  0  0  0
  -24.1700  -36.7520   23.0190 C   0  0  0  0  0  1  0  0  0  0  0  0
  -25.3960  -36.2880   23.8210 C   0  0  0  0  0  3  0  0  0  0  0  0
  -27.5260  -37.1170   24.7300 C   0  0  0  0  0  1  0  0  0  0  0  0
  -26.4410  -37.3360   23.7750 N   0  0  0  0  0  0  0  0  0  0  0  0
  -26.0400  -38.2530   23.9510 H   0  0  0  0  0  0  0  0  0  0  0  0
  -26.4110  -31.6520   24.8540 C   0  0  1  0  0  0  0  0  0  0  0  0
  -25.3580  -31.3980   25.9560 C   0  0  0  0  0  1  0  0  0  0  0  0
  -26.9800  -30.2820   24.4340 C   0  0  0  0  0  1  0  0  0  0  0  0
  -27.5840  -32.4360   25.4930 C   0  0  0  0  0  1  0  0  0  0  0  0
  1  2  1  0
  1 50  1  0
  1 11  1  0
  3  2  1  0
  4  3  1  0
  4  6  1  0
  5  4  2  0
  6  9  1  0
  7  5  1  0
  8  5  1  0
 10  6  1  0
 13 18  1  0
 14 15  1  0
 14 13  1  0
 16 15  1  0
 16 25  1  0
 16 17  1  0
 18 12  1  0
 18 17  1  0
 19 12  2  0
 20 12  1  0
 20 11  1  0
 21 20  1  0
 22 23  2  0
 23 42  1  0
 24 23  1  0
 24 27  1  0
 25 26  1  0
 25 22  1  0
 26 24  2  0
 27 28  1  0
 28 29  2  0
 30 33  1  0
 30 29  1  0
 31 30  2  0
 32 31  1  0
 32 27  2  0
 33 34  1  0
 34 35  1  0
 35 36  2  0
 37 36  1  0
 37 41  1  0
 38 37  2  0
 39 34  2  0
 39 38  1  0
 40 39  1  0
 42 43  1  0
 43 46  1  0
 43 45  1  0
 44 42  2  0
 47 48  1  0
 47 22  1  0
 49 47  1  0
 50 57  1  0
 50 55  1  0
 52 51  1  0
 53 51  1  0
 54 55  1  0
 54 52  1  0
 55 56  1  1
 55 53  1  0
 57 58  1  0
 59 70  2  0
 60 58  1  0
 60 65  1  0
 61 69  1  0
 61 71  1  0
 62 68  1  0
 62 64  1  0
 63 69  1  0
 64 63  1  0
 65 64  2  0
 66 67  1  0
 66 60  2  0
 67 62  2  0
 68 61  1  0
 69 59  1  0
 71 73  2  0
 72 71  1  0
 74 72  1  0
 75 84  2  0
 75 80  1  0
 76 72  1  0
 76 80  1  0
 77 76  1  0
 78 79  1  0
 78 77  1  0
 79 75  1  0
 80 81  2  0
 81 82  1  0
 83 82  2  0
 84 83  1  0
 85 59  1  0
 85 86  1  0
 85 95  1  0
 86 89  1  0
 87 91  1  0
 87 86  1  0
 88 87  2  0
 91 90  1  0
 93 91  1  0
 93 94  1  0
 93 92  1  0
 95 98  1  1
 95 96  1  0
 97 95  1  0
M  ISO  4  12 100  20 100  57 101  58 101
M  END
>  <TORSDO>  (58) 
F 23

>  <SCORE>  (58) 
-14.065

>  <name>  (58) 
59

>  <ligand_id>  (58) 
59

>  <original_smiles>  (58) 
[H]c1c([H])c([H])c2c(c1[H])C([H])([H])C([H])([H])C([H])([H])C2([H])N([H])C(=O)C1([H])N(C(=O)C([H])(N([H])C(=O)C([H])(N([H])C([H])([H])[H])C([H])([H])[H])C(C([H])([H])[H])(C([H])([H])[H])C([H])([H])[H])C([H])([H])c2c([H])c(OC([H])([H])C([H])(C([H])(C([H])([H])N([H])C(=O)N3C([H])([H])C([H])([H])C([H])([H])C([H])(n4nc(-c5c([H])c([H])c(Oc6c([H])c([H])c(F)c([H])c6F)c([H])c5[H])c(C(=O)N([H])[H])c4N([H])[H])C3([H])[H])C([H])([H])C([H])([H])C(N([H])[H])=[N+]([H])[H])[N+]3([H])C([H])([H])C([H])([H])C([H])([H])C3([H])[H])c([H])c([H])c2C1([H])[H]

>  <smiles>  (58) 
[H]c1c([H])c([H])c2c(c1[H])C([H])([H])C([H])([H])C([H])([H])C2([H])N([H])C(=O)C1([H])N(C(=O)C([H])(N([H])C(=O)C([H])(N([H])C([H])([H])[H])C([H])([H])[H])C(C([H])([H])[H])(C([H])([H])[H])C([H])([H])[H])C([H])([H])c2c([H])c(OC([H])([H])C([H])(C([H])(C([H])([H])N([H])C(=O)N3C([H])([H])C([H])([H])C([H])([H])C([H])(n4nc(-c5c([H])c([H])c(Oc6c([H])c([H])c(F)c([H])c6F)c([H])c5[H])c(C(=O)N([H])[H])c4N([H])[H])C3([H])[H])C([H])([H])C([H])([H])C(N([H])[H])=[N+]([H])[H])[N+]3([H])C([H])([H])C([H])([H])C([H])([H])C3([H])[H])c([H])c([H])c2C1([H])[H]

$$$$
60:0:0
     RDKit          3D

103110  0  0  1  0  0  0  0  0999 V2000
  -30.5830  -17.5270   22.4210 C   0  0  0  0  0  0  0  0  0  0  0  0
  -31.2890  -18.6150   22.7430 N   0  0  0  0  0  0  0  0  0  0  0  0
  -29.7810  -16.9880   23.1880 O   0  0  0  0  0  0  0  0  0  0  0  0
  -31.9330  -18.9670   22.0470 H   0  0  0  0  0  0  0  0  0  0  0  0
  -31.2030  -19.3550   23.9980 C   0  0  0  0  0  2  0  0  0  0  0  0
  -31.4150  -20.8600   23.7650 C   0  0  0  0  0  2  0  0  0  0  0  0
  -30.4180  -21.4730   22.7620 C   0  0  0  0  0  2  0  0  0  0  0  0
  -30.6010  -22.9920   22.5830 C   0  0  0  0  0  2  0  0  0  0  0  0
  -29.6580  -23.5330   21.5810 N   0  0  0  0  0  4  0  0  0  0  0  0
  -28.7230  -23.3090   21.8860 H   0  0  0  0  0  0  0  0  0  0  0  0
  -29.8200  -23.0550   20.7080 H   0  0  0  0  0  0  0  0  0  0  0  0
  -29.7580  -24.9960   21.3560 C   0  0  0  0  0  2  0  0  0  0  0  0
  -28.7130  -25.4800   20.3370 C   0  0  0  0  0  2  0  0  0  0  0  0
  -28.7550  -26.9050   20.2390 O   0  0  0  0  0  0  0  0  0  0  0  0
  -24.6000  -31.7930   23.2540 C   0  0  0  0  0  0  0  0  0  0  0  0
  -27.5420  -27.5540   20.1850 C   0  0  0  0  0  0  0  0  0  0  0  0
  -23.5080  -30.3600   21.5590 C   0  0  0  0  0  3  0  0  0  0  0  0
  -25.0730  -28.9250   20.1500 C   0  0  0  0  0  0  0  0  0  0  0  0
  -26.0140  -30.8530   21.4320 C   0  0  0  0  0  2  0  0  0  0  0  0
  -26.1850  -29.5020   20.7740 C   0  0  0  0  0  0  0  0  0  0  0  0
  -27.4230  -28.8240   20.7870 C   0  0  0  0  0  3  0  0  0  0  0  0
  -26.4150  -26.9920   19.5400 C   0  0  0  0  0  3  0  0  0  0  0  0
  -25.1820  -27.6680   19.5300 C   0  0  0  0  0  3  0  0  0  0  0  0
  -23.7860  -29.7140   20.1750 C   0  0  0  0  0  2  0  0  0  0  0  0
  -24.7240  -31.0150   22.1420 N   0  0  0  0  0  0  0  0  0  0  0  0
  -23.4930  -32.0010   23.7700 O   0  0  0  0  0  0  0  0  0  0  0  0
  -22.8860  -29.2910   22.4860 C   0  0  0  0  0  0  0  0  0  0  0  0
  -21.5800  -29.0350   22.3120 N   0  0  0  0  0  0  0  0  0  0  0  0
  -23.5760  -28.6940   23.3160 O   0  0  0  0  0  0  0  0  0  0  0  0
  -21.0810  -29.5730   21.6160 H   0  0  0  0  0  0  0  0  0  0  0  0
  -18.2620  -27.6550   22.6780 C   0  0  0  0  0  0  0  0  0  0  0  0
  -20.7910  -28.0450   23.0420 C   0  0  0  0  0  3  0  0  0  0  0  0
  -20.9900  -26.6290   22.4530 C   0  0  0  0  0  2  0  0  0  0  0  0
  -19.9410  -26.2620   21.3970 C   0  0  0  0  0  2  0  0  0  0  0  0
  -18.5330  -26.3240   21.9950 C   0  0  0  0  0  2  0  0  0  0  0  0
  -19.3220  -28.4690   23.1550 C   0  0  0  0  0  0  0  0  0  0  0  0
  -19.0170  -29.7110   23.7510 C   0  0  0  0  0  3  0  0  0  0  0  0
  -17.6830  -30.1430   23.8740 C   0  0  0  0  0  3  0  0  0  0  0  0
  -16.6360  -29.3250   23.4150 C   0  0  0  0  0  3  0  0  0  0  0  0
  -16.9250  -28.0820   22.8230 C   0  0  0  0  0  3  0  0  0  0  0  0
  -25.8380  -32.4750   23.9180 C   0  0  0  0  0  3  0  0  0  0  0  0
  -25.4730  -33.8680   24.2060 N   0  0  0  0  0  0  0  0  0  0  0  0
  -25.8000  -34.9140   23.4370 C   0  0  0  0  0  0  0  0  0  0  0  0
  -26.5100  -34.8110   22.4340 O   0  0  0  0  0  0  0  0  0  0  0  0
  -24.8460  -34.0190   24.9830 H   0  0  0  0  0  0  0  0  0  0  0  0
  -24.0240  -36.6340   22.9800 C   0  0  0  0  0  1  0  0  0  0  0  0
  -25.2480  -36.2940   23.8450 C   0  0  0  0  0  3  0  0  0  0  0  0
  -27.3160  -37.2750   24.7330 C   0  0  0  0  0  1  0  0  0  0  0  0
  -26.2480  -37.3800   23.7420 N   0  0  0  0  0  0  0  0  0  0  0  0
  -25.8050  -38.2880   23.8480 H   0  0  0  0  0  0  0  0  0  0  0  0
  -26.3260  -31.7420   25.2270 C   0  0  1  0  0  0  0  0  0  0  0  0
  -25.1970  -31.4810   26.2510 C   0  0  0  0  0  1  0  0  0  0  0  0
  -26.9740  -30.3810   24.8780 C   0  0  0  0  0  1  0  0  0  0  0  0
  -27.4170  -32.5870   25.9250 C   0  0  0  0  0  1  0  0  0  0  0  0
  -30.8020  -16.9710   21.0110 C   0  0  0  0  0  3  0  0  0  0  0  0
  -30.9820  -14.6340   20.1700 C   0  0  0  0  0  0  0  0  0  0  0  0
  -30.5720  -12.5440   18.9360 C   0  0  0  0  0  2  0  0  0  0  0  0
  -29.5700  -12.8070   17.7940 C   0  0  0  0  0  2  0  0  0  0  0  0
  -28.1200  -12.6680   18.2970 C   0  0  0  0  0  2  0  0  0  0  0  0
  -27.8620  -13.4700   19.6000 C   0  0  0  0  0  3  0  0  0  0  0  0
  -28.9670  -13.1910   20.6440 C   0  0  0  0  0  2  0  0  0  0  0  0
  -30.2730  -13.4840   20.0260 N   0  0  0  0  0  0  0  0  0  0  0  0
  -32.0260  -14.8690   19.5560 O   0  0  0  0  0  0  0  0  0  0  0  0
  -30.4100  -15.5640   20.9390 N   0  0  0  0  0  0  0  0  0  0  0  0
  -29.5960  -15.3050   21.4760 H   0  0  0  0  0  0  0  0  0  0  0  0
  -25.5060  -14.0850   20.4460 C   0  0  0  0  0  0  0  0  0  0  0  0
  -24.4500  -13.3120   20.8490 C   0  0  0  0  0  0  0  0  0  0  0  0
  -24.8930  -11.9580   20.7520 C   0  0  0  0  0  0  0  0  0  0  0  0
  -26.5290  -13.2000   20.1380 N   0  0  0  0  0  0  0  0  0  0  0  0
  -26.1640  -11.9150   20.3760 N   0  0  0  0  0  0  0  0  0  0  0  0
  -24.1650  -10.6980   20.9430 C   0  0  0  0  0  0  0  0  0  0  0  0
  -24.6010   -9.7260   21.8690 C   0  0  0  0  0  3  0  0  0  0  0  0
  -23.8740   -8.5290   22.0470 C   0  0  0  0  0  3  0  0  0  0  0  0
  -22.6950   -8.2970   21.2980 C   0  0  0  0  0  0  0  0  0  0  0  0
  -22.2790   -9.2580   20.3600 C   0  0  0  0  0  3  0  0  0  0  0  0
  -23.0060  -10.4460   20.1810 C   0  0  0  0  0  3  0  0  0  0  0  0
  -21.9380   -7.1540   21.3860 O   0  0  0  0  0  0  0  0  0  0  0  0
  -21.8560   -6.4340   22.5520 C   0  0  0  0  0  0  0  0  0  0  0  0
  -21.3670   -7.0030   23.7470 C   0  0  0  0  0  3  0  0  0  0  0  0
  -21.2340   -6.2070   24.9030 C   0  0  0  0  0  3  0  0  0  0  0  0
  -21.5790   -4.8440   24.8630 C   0  0  0  0  0  0  0  0  0  0  0  0
  -22.0600   -4.2730   23.6710 C   0  0  0  0  0  3  0  0  0  0  0  0
  -22.1950   -5.0660   22.5180 C   0  0  0  0  0  0  0  0  0  0  0  0
  -22.6400   -4.5060   21.3670 F   0  0  0  0  0  0  0  0  0  0  0  0
  -21.4430   -4.0770   25.9700 F   0  0  0  0  0  0  0  0  0  0  0  0
  -23.0750  -13.7950   21.2100 C   0  0  0  0  0  0  0  0  0  0  0  0
  -22.3880  -13.0790   22.0940 N   0  0  0  0  0  0  0  0  0  0  0  0
  -22.6190  -14.8390   20.7440 O   0  0  0  0  0  0  0  0  0  0  0  0
  -22.7680  -12.2350   22.4930 H   0  0  0  0  0  0  0  0  0  0  0  0
  -21.4660  -13.3820   22.3760 H   0  0  0  0  0  0  0  0  0  0  0  0
  -25.6760  -15.4570   20.2990 N   0  0  0  0  0  0  0  0  0  0  0  0
  -24.9230  -16.1150   20.4700 H   0  0  0  0  0  0  0  0  0  0  0  0
  -26.5210  -15.8970   19.9640 H   0  0  0  0  0  0  0  0  0  0  0  0
  -30.1210  -17.7860   19.8820 C   0  0  0  0  0  2  0  0  0  0  0  0
  -28.5780  -17.7570   19.9050 C   0  0  0  0  0  2  0  0  0  0  0  0
  -27.9190  -18.2890   18.6200 C   0  0  0  0  0  2  0  0  0  0  0  0
  -27.9730  -19.7860   18.5860 C   0  0  0  0  0  0  0  0  0  0  0  0
  -27.0740  -20.4940   19.2820 N   0  0  0  0  0  0  0  0  0  0  0  0
  -28.9350  -20.4040   17.8830 N   0  0  0  0  0  4  0  0  0  0  0  0
  -26.3600  -20.0160   19.8190 H   0  0  0  0  0  0  0  0  0  0  0  0
  -26.9850  -21.4970   19.2260 H   0  0  0  0  0  0  0  0  0  0  0  0
  -29.6110  -19.8610   17.3620 H   0  0  0  0  0  0  0  0  0  0  0  0
  -29.0040  -21.4060   17.7960 H   0  0  0  0  0  0  0  0  0  0  0  0
  1  2  1  0
  1  3  2  0
  2  5  1  0
  4  2  1  0
  6  5  1  0
  7  6  1  0
  8  7  1  0
  9 10  1  0
  9  8  1  0
 11  9  1  0
 12  9  1  0
 13 12  1  0
 14 13  1  0
 15 26  2  0
 16 14  1  0
 16 21  1  0
 17 25  1  0
 17 27  1  0
 18 24  1  0
 18 20  1  0
 19 25  1  0
 20 21  2  0
 20 19  1  0
 22 16  2  0
 23 22  1  0
 23 18  2  0
 24 17  1  0
 25 15  1  0
 27 29  2  0
 28 27  1  0
 30 28  1  0
 31 40  2  0
 31 36  1  0
 32 28  1  0
 32 36  1  0
 33 32  1  0
 34 35  1  0
 34 33  1  0
 35 31  1  0
 36 37  2  0
 37 38  1  0
 39 38  2  0
 40 39  1  0
 41 15  1  0
 41 42  1  0
 41 51  1  0
 42 45  1  0
 43 47  1  0
 43 42  1  0
 44 43  2  0
 47 46  1  0
 49 47  1  0
 49 50  1  0
 49 48  1  0
 51 54  1  1
 51 52  1  0
 53 51  1  0
 55 94  1  0
 55  1  1  0
 56 64  1  0
 57 62  1  0
 58 59  1  0
 58 57  1  0
 60 59  1  0
 60 69  1  0
 60 61  1  0
 62 56  1  0
 62 61  1  0
 63 56  2  0
 64 55  1  0
 64 65  1  0
 66 67  2  0
 67 86  1  0
 68 67  1  0
 68 71  1  0
 69 70  1  0
 69 66  1  0
 70 68  2  0
 71 72  1  0
 72 73  2  0
 74 77  1  0
 74 73  1  0
 75 74  2  0
 76 75  1  0
 76 71  2  0
 77 78  1  0
 78 79  1  0
 79 80  2  0
 81 80  1  0
 81 85  1  0
 82 81  2  0
 83 78  2  0
 83 82  1  0
 84 83  1  0
 86 87  1  0
 87 90  1  0
 87 89  1  0
 88 86  2  0
 91 66  1  0
 91 92  1  0
 93 91  1  0
 94 95  1  0
 96 95  1  0
 97 96  1  0
 97 98  1  0
 98100  1  0
 99 97  2  0
101 98  1  0
102 99  1  0
103 99  1  0
M  ISO  4  13 101  14 101  56 100  64 100
M  END
>  <TORSDO>  (59) 
F 28

>  <SCORE>  (59) 
-10.775

>  <name>  (59) 
60

>  <ligand_id>  (59) 
60

>  <original_smiles>  (59) 
[H]c1c([H])c([H])c2c(c1[H])C([H])([H])C([H])([H])C([H])([H])C2([H])N([H])C(=O)C1([H])N(C(=O)C([H])(N([H])C(=O)C([H])(N([H])C([H])([H])[H])C([H])([H])[H])C(C([H])([H])[H])(C([H])([H])[H])C([H])([H])[H])C([H])([H])c2c([H])c(OC([H])([H])C([H])([H])[N+]([H])([H])C([H])([H])C([H])([H])C([H])([H])C([H])([H])N([H])C(=O)C([H])(N([H])C(=O)N3C([H])([H])C([H])([H])C([H])([H])C([H])(n4nc(-c5c([H])c([H])c(Oc6c([H])c([H])c(F)c([H])c6F)c([H])c5[H])c(C(=O)N([H])[H])c4N([H])[H])C3([H])[H])C([H])([H])C([H])([H])C([H])([H])C(N([H])[H])=[N+]([H])[H])c([H])c([H])c2C1([H])[H]

>  <smiles>  (59) 
[H]c1c([H])c([H])c2c(c1[H])C([H])([H])C([H])([H])C([H])([H])C2([H])N([H])C(=O)C1([H])N(C(=O)C([H])(N([H])C(=O)C([H])(N([H])C([H])([H])[H])C([H])([H])[H])C(C([H])([H])[H])(C([H])([H])[H])C([H])([H])[H])C([H])([H])c2c([H])c(OC([H])([H])C([H])([H])[N+]([H])([H])C([H])([H])C([H])([H])C([H])([H])C([H])([H])N([H])C(=O)C([H])(N([H])C(=O)N3C([H])([H])C([H])([H])C([H])([H])C([H])(n4nc(-c5c([H])c([H])c(Oc6c([H])c([H])c(F)c([H])c6F)c([H])c5[H])c(C(=O)N([H])[H])c4N([H])[H])C3([H])[H])C([H])([H])C([H])([H])C([H])([H])C(N([H])[H])=[N+]([H])[H])c([H])c([H])c2C1([H])[H]

$$$$
61:0:0
     RDKit          3D

 89 97  0  0  1  0  0  0  0  0999 V2000
  -28.7040  -22.9690   20.5890 C   0  0  0  0  0  3  0  0  0  0  0  0
  -31.2320  -23.4800   20.4020 C   0  0  0  0  0  1  0  0  0  0  0  0
  -30.0350  -23.2250   21.3210 C   0  0  0  0  0  2  0  0  0  0  0  0
  -28.7440  -21.3890   19.8370 C   0  0  0  0  0  2  0  0  0  0  0  0
  -30.5590  -15.1820   20.1630 C   0  0  0  0  0  0  0  0  0  0  0  0
  -30.3770  -12.7890   19.2540 C   0  0  0  0  0  2  0  0  0  0  0  0
  -29.4520  -12.6470   18.0290 C   0  0  0  0  0  2  0  0  0  0  0  0
  -28.0090  -12.3940   18.4920 C   0  0  0  0  0  2  0  0  0  0  0  0
  -27.5810  -13.3600   19.6270 C   0  0  0  0  0  3  0  0  0  0  0  0
  -28.6470  -13.5000   20.7350 C   0  0  0  0  0  2  0  0  0  0  0  0
  -29.8790  -13.9480   20.0750 N   0  0  0  0  0  0  0  0  0  0  0  0
  -31.7790  -15.0650   19.9780 O   0  0  0  0  0  0  0  0  0  0  0  0
  -30.8950  -17.7850   20.4060 C   0  0  0  0  0  2  0  0  0  0  0  0
  -28.6140  -17.1610   20.1900 C   0  0  0  0  0  2  0  0  0  0  0  0
  -30.4570  -19.2530   19.8240 C   0  0  0  0  0  2  0  0  0  0  0  0
  -28.2570  -18.7540   20.5780 C   0  0  0  0  0  2  0  0  0  0  0  0
  -30.0090  -16.5440   20.2720 N   0  0  0  0  0  0  0  0  0  0  0  0
  -29.2420  -19.9390   20.4280 N   0  0  2  0  0  4  0  0  0  0  0  0
  -29.5160  -20.1390   21.3800 H   0  0  0  0  0  0  0  0  0  0  0  0
  -25.2200  -13.9060   20.4160 C   0  0  0  0  0  0  0  0  0  0  0  0
  -24.1690  -13.1210   20.8060 C   0  0  0  0  0  0  0  0  0  0  0  0
  -24.6470  -11.7760   20.7710 C   0  0  0  0  0  0  0  0  0  0  0  0
  -26.2660  -13.0380   20.1640 N   0  0  0  0  0  0  0  0  0  0  0  0
  -25.9370  -11.7500   20.4510 N   0  0  0  0  0  0  0  0  0  0  0  0
  -23.9310  -10.5080   20.9740 C   0  0  0  0  0  0  0  0  0  0  0  0
  -24.3760   -9.5480   21.9110 C   0  0  0  0  0  3  0  0  0  0  0  0
  -23.6580   -8.3480   22.1010 C   0  0  0  0  0  3  0  0  0  0  0  0
  -22.4790   -8.0990   21.3570 C   0  0  0  0  0  0  0  0  0  0  0  0
  -22.0560   -9.0450   20.4090 C   0  0  0  0  0  3  0  0  0  0  0  0
  -22.7730  -10.2380   20.2140 C   0  0  0  0  0  3  0  0  0  0  0  0
  -21.7300   -6.9510   21.4600 O   0  0  0  0  0  0  0  0  0  0  0  0
  -21.6920   -6.2180   22.6180 C   0  0  0  0  0  0  0  0  0  0  0  0
  -21.2670   -6.7770   23.8440 C   0  0  0  0  0  3  0  0  0  0  0  0
  -21.1770   -5.9670   24.9940 C   0  0  0  0  0  3  0  0  0  0  0  0
  -21.5040   -4.6000   24.9200 C   0  0  0  0  0  0  0  0  0  0  0  0
  -21.9220   -4.0400   23.7000 C   0  0  0  0  0  3  0  0  0  0  0  0
  -22.0160   -4.8460   22.5520 C   0  0  0  0  0  0  0  0  0  0  0  0
  -22.3970   -4.2970   21.3750 F   0  0  0  0  0  0  0  0  0  0  0  0
  -21.4110   -3.8190   26.0220 F   0  0  0  0  0  0  0  0  0  0  0  0
  -22.7720  -13.5880   21.0810 C   0  0  0  0  0  0  0  0  0  0  0  0
  -22.0550  -12.8960   21.9610 N   0  0  0  0  0  0  0  0  0  0  0  0
  -22.3220  -14.6010   20.5480 O   0  0  0  0  0  0  0  0  0  0  0  0
  -22.4320  -12.0760   22.4150 H   0  0  0  0  0  0  0  0  0  0  0  0
  -21.1130  -13.1910   22.1800 H   0  0  0  0  0  0  0  0  0  0  0  0
  -25.3690  -15.2740   20.2200 N   0  0  0  0  0  0  0  0  0  0  0  0
  -24.5980  -15.9250   20.3270 H   0  0  0  0  0  0  0  0  0  0  0  0
  -26.1900  -15.6960   19.8080 H   0  0  0  0  0  0  0  0  0  0  0  0
  -28.1410  -24.4830   19.8970 C   0  0  0  0  0  2  0  0  0  0  0  0
  -28.2150  -26.0300   20.3540 O   0  0  0  0  0  0  0  0  0  0  0  0
  -24.6260  -31.8840   23.2510 C   0  0  0  0  0  0  0  0  0  0  0  0
  -27.1890  -27.0770   20.2300 C   0  0  0  0  0  0  0  0  0  0  0  0
  -23.4280  -30.4880   21.6120 C   0  0  0  0  0  3  0  0  0  0  0  0
  -24.8780  -28.9010   20.1830 C   0  0  0  0  0  0  0  0  0  0  0  0
  -25.9850  -30.7290   21.4490 C   0  0  0  0  0  2  0  0  0  0  0  0
  -26.0610  -29.3240   20.8010 C   0  0  0  0  0  0  0  0  0  0  0  0
  -27.2100  -28.4290   20.8090 C   0  0  0  0  0  3  0  0  0  0  0  0
  -25.9790  -26.7870   19.5600 C   0  0  0  0  0  3  0  0  0  0  0  0
  -24.8560  -27.6510   19.5470 C   0  0  0  0  0  3  0  0  0  0  0  0
  -23.6520  -29.8060   20.2340 C   0  0  0  0  0  2  0  0  0  0  0  0
  -24.7000  -31.0580   22.1610 N   0  0  0  0  0  0  0  0  0  0  0  0
  -23.5370  -32.1770   23.7750 O   0  0  0  0  0  0  0  0  0  0  0  0
  -22.7420  -29.4880   22.5760 C   0  0  0  0  0  0  0  0  0  0  0  0
  -21.4130  -29.3240   22.4530 N   0  0  0  0  0  0  0  0  0  0  0  0
  -23.4110  -28.8600   23.3990 O   0  0  0  0  0  0  0  0  0  0  0  0
  -20.9310  -29.8800   21.7590 H   0  0  0  0  0  0  0  0  0  0  0  0
  -18.0270  -28.1300   22.9510 C   0  0  0  0  0  0  0  0  0  0  0  0
  -20.5870  -28.3900   23.2240 C   0  0  0  0  0  3  0  0  0  0  0  0
  -20.6860  -26.9560   22.6500 C   0  0  0  0  0  2  0  0  0  0  0  0
  -19.5840  -26.6350   21.6350 C   0  0  0  0  0  2  0  0  0  0  0  0
  -18.2030  -26.7800   22.2780 C   0  0  0  0  0  2  0  0  0  0  0  0
  -19.1450  -28.8910   23.3840 C   0  0  0  0  0  0  0  0  0  0  0  0
  -18.9220  -30.1520   23.9790 C   0  0  0  0  0  3  0  0  0  0  0  0
  -17.6160  -30.6480   24.1460 C   0  0  0  0  0  3  0  0  0  0  0  0
  -16.5140  -29.8850   23.7300 C   0  0  0  0  0  3  0  0  0  0  0  0
  -16.7200  -28.6270   23.1340 C   0  0  0  0  0  3  0  0  0  0  0  0
  -25.9000  -32.5190   23.8820 C   0  0  0  0  0  3  0  0  0  0  0  0
  -26.3920  -31.7550   25.1740 C   0  0  1  0  0  0  0  0  0  0  0  0
  -25.2850  -31.5400   26.2350 C   0  0  0  0  0  1  0  0  0  0  0  0
  -26.9670  -30.3690   24.8020 C   0  0  0  0  0  1  0  0  0  0  0  0
  -27.5450  -32.5430   25.8400 C   0  0  0  0  0  1  0  0  0  0  0  0
  -25.5890  -33.9200   24.2080 N   0  0  0  0  0  0  0  0  0  0  0  0
  -25.9180  -34.9730   23.4480 C   0  0  0  0  0  0  0  0  0  0  0  0
  -26.5780  -34.8640   22.4120 O   0  0  0  0  0  0  0  0  0  0  0  0
  -24.9810  -34.0700   25.0000 H   0  0  0  0  0  0  0  0  0  0  0  0
  -24.1850  -36.7700   23.1190 C   0  0  0  0  0  1  0  0  0  0  0  0
  -25.4390  -36.3640   23.9080 C   0  0  0  0  0  3  0  0  0  0  0  0
  -27.5870  -37.2600   24.6910 C   0  0  0  0  0  1  0  0  0  0  0  0
  -26.4660  -37.4190   23.7700 N   0  0  0  0  0  0  0  0  0  0  0  0
  -26.0590  -38.3390   23.9150 H   0  0  0  0  0  0  0  0  0  0  0  0
  1  4  1  0
  1  3  1  0
  2  3  1  0
  4 18  1  0
  5 17  1  0
  6 11  1  0
  7  8  1  0
  7  6  1  0
  9  8  1  0
  9 23  1  0
  9 10  1  0
 11  5  1  0
 11 10  1  0
 12  5  2  0
 14 17  1  0
 14 16  1  0
 15 13  1  0
 15 18  1  0
 17 13  1  0
 18 16  1  0
 18 19  1  1
 20 21  2  0
 21 40  1  0
 22 21  1  0
 22 25  1  0
 23 20  1  0
 23 24  1  0
 24 22  2  0
 25 26  1  0
 26 27  2  0
 28 31  1  0
 28 27  1  0
 29 28  2  0
 30 29  1  0
 30 25  2  0
 31 32  1  0
 32 33  1  0
 33 34  2  0
 35 34  1  0
 35 39  1  0
 36 35  2  0
 37 32  2  0
 37 36  1  0
 38 37  1  0
 40 41  1  0
 41 44  1  0
 41 43  1  0
 42 40  2  0
 45 46  1  0
 45 20  1  0
 47 45  1  0
 48 49  1  0
 48  1  1  0
 50 61  2  0
 51 49  1  0
 51 56  1  0
 52 60  1  0
 52 62  1  0
 53 59  1  0
 53 55  1  0
 54 60  1  0
 55 56  2  0
 55 54  1  0
 57 51  2  0
 58 57  1  0
 58 53  2  0
 59 52  1  0
 60 50  1  0
 62 64  2  0
 63 62  1  0
 65 63  1  0
 66 75  2  0
 66 71  1  0
 67 63  1  0
 67 71  1  0
 68 67  1  0
 69 70  1  0
 69 68  1  0
 70 66  1  0
 71 72  2  0
 72 73  1  0
 74 73  2  0
 75 74  1  0
 76 50  1  0
 76 81  1  0
 76 77  1  0
 77 80  1  1
 77 78  1  0
 79 77  1  0
 81 84  1  0
 82 86  1  0
 82 81  1  0
 83 82  2  0
 86 85  1  0
 88 86  1  0
 88 89  1  0
 88 87  1  0
M  ISO  4   5 100  17 100  48 101  49 101
M  END
>  <TORSDO>  (60) 
F 19

>  <SCORE>  (60) 
-15.745

>  <name>  (60) 
61

>  <ligand_id>  (60) 
61

>  <original_smiles>  (60) 
[H]c1c([H])c([H])c2c(c1[H])C([H])([H])C([H])([H])C([H])([H])C2([H])N([H])C(=O)C1([H])N(C(=O)C([H])(N([H])C(=O)C([H])(N([H])C([H])([H])[H])C([H])([H])[H])C(C([H])([H])[H])(C([H])([H])[H])C([H])([H])[H])C([H])([H])c2c([H])c(OC([H])([H])C([H])(C([H])([H])C([H])([H])[H])C([H])([H])[N+]3([H])C([H])([H])C([H])([H])N(C(=O)N4C([H])([H])C([H])([H])C([H])([H])C([H])(n5nc(-c6c([H])c([H])c(Oc7c([H])c([H])c(F)c([H])c7F)c([H])c6[H])c(C(=O)N([H])[H])c5N([H])[H])C4([H])[H])C([H])([H])C3([H])[H])c([H])c([H])c2C1([H])[H]

>  <smiles>  (60) 
[H]c1c([H])c([H])c2c(c1[H])C([H])([H])C([H])([H])C([H])([H])C2([H])N([H])C(=O)C1([H])N(C(=O)C([H])(N([H])C(=O)C([H])(N([H])C([H])([H])[H])C([H])([H])[H])C(C([H])([H])[H])(C([H])([H])[H])C([H])([H])[H])C([H])([H])c2c([H])c(OC([H])([H])C([H])(C([H])([H])C([H])([H])[H])C([H])([H])[N+]3([H])C([H])([H])C([H])([H])N(C(=O)N4C([H])([H])C([H])([H])C([H])([H])C([H])(n5nc(-c6c([H])c([H])c(Oc7c([H])c([H])c(F)c([H])c7F)c([H])c6[H])c(C(=O)N([H])[H])c5N([H])[H])C4([H])[H])C([H])([H])C3([H])[H])c([H])c([H])c2C1([H])[H]

$$$$
62:0:0
     RDKit          3D

 90 99  0  0  1  0  0  0  0  0999 V2000
  -30.8430  -15.1610   19.6040 C   0  0  0  0  0  0  0  0  0  0  0  0
  -30.9300  -12.6110   19.1180 C   0  0  0  0  0  2  0  0  0  0  0  0
  -29.9760  -12.1670   17.9770 C   0  0  0  0  0  2  0  0  0  0  0  0
  -28.5560  -11.9010   18.5080 C   0  0  0  0  0  2  0  0  0  0  0  0
  -28.0990  -12.9980   19.5010 C   0  0  0  0  0  3  0  0  0  0  0  0
  -29.1850  -13.3090   20.5500 C   0  0  0  0  0  2  0  0  0  0  0  0
  -30.3570  -13.8300   19.8090 N   0  0  0  0  0  0  0  0  0  0  0  0
  -32.0020  -15.1760   19.1600 O   0  0  0  0  0  0  0  0  0  0  0  0
  -27.1890  -19.1370   19.7580 C   0  0  0  0  0  2  0  0  0  0  0  0
  -27.2770  -20.2540   18.6700 C   0  0  0  0  0  2  0  0  0  0  0  0
  -28.9040  -17.9130   21.4050 C   0  0  0  0  0  2  0  0  0  0  0  0
  -29.0750  -16.5220   20.7640 C   0  0  0  0  0  2  0  0  0  0  0  0
  -30.0030  -17.8520   18.8410 C   0  0  0  0  0  2  0  0  0  0  0  0
  -28.5450  -19.1120   20.5040 C   0  0  0  0  0  3  0  0  0  0  0  0
  -29.5650  -19.4710   19.4220 C   0  0  0  0  0  3  0  0  0  0  0  0
  -28.6540  -20.9070   18.8560 C   0  0  0  0  0  3  0  0  0  0  0  0
  -30.0450  -16.4190   19.6660 N   0  0  0  0  0  0  0  0  0  0  0  0
  -25.8210  -13.5900   20.4950 C   0  0  0  0  0  0  0  0  0  0  0  0
  -24.7740  -12.8240   20.9260 C   0  0  0  0  0  0  0  0  0  0  0  0
  -25.1910  -11.4650   20.7800 C   0  0  0  0  0  0  0  0  0  0  0  0
  -26.8080  -12.6990   20.1100 N   0  0  0  0  0  0  0  0  0  0  0  0
  -26.4460  -11.4110   20.3470 N   0  0  0  0  0  0  0  0  0  0  0  0
  -24.4410  -10.2170   20.9740 C   0  0  0  0  0  0  0  0  0  0  0  0
  -24.8490   -9.2460   21.9140 C   0  0  0  0  0  3  0  0  0  0  0  0
  -24.0990   -8.0640   22.0930 C   0  0  0  0  0  3  0  0  0  0  0  0
  -22.9250   -7.8470   21.3340 C   0  0  0  0  0  0  0  0  0  0  0  0
  -22.5360   -8.8060   20.3820 C   0  0  0  0  0  3  0  0  0  0  0  0
  -23.2870   -9.9790   20.2020 C   0  0  0  0  0  3  0  0  0  0  0  0
  -22.1460   -6.7160   21.4240 O   0  0  0  0  0  0  0  0  0  0  0  0
  -21.8800   -6.1210   22.6310 C   0  0  0  0  0  0  0  0  0  0  0  0
  -21.1780   -6.7930   23.6550 C   0  0  0  0  0  3  0  0  0  0  0  0
  -20.8650   -6.1210   24.8520 C   0  0  0  0  0  3  0  0  0  0  0  0
  -21.2440   -4.7750   25.0240 C   0  0  0  0  0  0  0  0  0  0  0  0
  -21.9370   -4.1020   24.0040 C   0  0  0  0  0  3  0  0  0  0  0  0
  -22.2520   -4.7730   22.8090 C   0  0  0  0  0  0  0  0  0  0  0  0
  -22.9030   -4.1140   21.8200 F   0  0  0  0  0  0  0  0  0  0  0  0
  -20.9360   -4.1260   26.1710 F   0  0  0  0  0  0  0  0  0  0  0  0
  -23.4260  -13.3280   21.3530 C   0  0  0  0  0  0  0  0  0  0  0  0
  -22.7670  -12.6200   22.2620 N   0  0  0  0  0  0  0  0  0  0  0  0
  -22.9700  -14.3830   20.9140 O   0  0  0  0  0  0  0  0  0  0  0  0
  -23.1510  -11.7650   22.6370 H   0  0  0  0  0  0  0  0  0  0  0  0
  -21.8680  -12.9410   22.5920 H   0  0  0  0  0  0  0  0  0  0  0  0
  -26.0070  -14.9630   20.3700 N   0  0  0  0  0  0  0  0  0  0  0  0
  -25.2720  -15.6290   20.5760 H   0  0  0  0  0  0  0  0  0  0  0  0
  -26.8310  -15.3950   19.9720 H   0  0  0  0  0  0  0  0  0  0  0  0
  -28.9010  -22.5260   18.1510 C   0  0  0  0  0  3  0  0  0  0  0  0
  -31.0290  -23.8930   17.5710 C   0  0  0  0  0  1  0  0  0  0  0  0
  -30.3630  -22.8700   18.5010 C   0  0  0  0  0  2  0  0  0  0  0  0
  -27.9310  -24.0210   18.3450 C   0  0  0  0  0  2  0  0  0  0  0  0
  -28.2280  -25.6290   18.2580 O   0  0  0  0  0  0  0  0  0  0  0  0
  -25.1410  -30.3800   23.2190 C   0  0  0  0  0  0  0  0  0  0  0  0
  -27.3110  -26.7340   18.6280 C   0  0  0  0  0  0  0  0  0  0  0  0
  -23.8830  -29.8390   21.1760 C   0  0  0  0  0  3  0  0  0  0  0  0
  -25.2160  -28.7190   19.2690 C   0  0  0  0  0  0  0  0  0  0  0  0
  -26.4600  -29.8080   21.1240 C   0  0  0  0  0  2  0  0  0  0  0  0
  -26.4120  -28.7430   19.9950 C   0  0  0  0  0  0  0  0  0  0  0  0
  -27.4630  -27.7830   19.6540 C   0  0  0  0  0  3  0  0  0  0  0  0
  -26.0970  -26.8550   17.9170 C   0  0  0  0  0  3  0  0  0  0  0  0
  -25.0810  -27.7970   18.2200 C   0  0  0  0  0  3  0  0  0  0  0  0
  -24.0990  -29.6900   19.6460 C   0  0  0  0  0  2  0  0  0  0  0  0
  -25.1830  -30.0090   21.9000 N   0  0  0  0  0  0  0  0  0  0  0  0
  -24.0650  -30.5780   23.8080 O   0  0  0  0  0  0  0  0  0  0  0  0
  -23.0440  -28.6430   21.6950 C   0  0  0  0  0  0  0  0  0  0  0  0
  -21.7100  -28.7020   21.5320 N   0  0  0  0  0  0  0  0  0  0  0  0
  -23.6020  -27.6710   22.2140 O   0  0  0  0  0  0  0  0  0  0  0  0
  -21.3170  -29.5310   21.1090 H   0  0  0  0  0  0  0  0  0  0  0  0
  -18.1920  -27.8200   21.6160 C   0  0  0  0  0  0  0  0  0  0  0  0
  -20.7580  -27.6480   21.9010 C   0  0  0  0  0  3  0  0  0  0  0  0
  -20.6970  -26.5480   20.8150 C   0  0  0  0  0  2  0  0  0  0  0  0
  -19.5890  -26.7800   19.7820 C   0  0  0  0  0  2  0  0  0  0  0  0
  -18.2190  -26.8310   20.4630 C   0  0  0  0  0  2  0  0  0  0  0  0
  -19.3850  -28.2160   22.2800 C   0  0  0  0  0  0  0  0  0  0  0  0
  -19.3040  -29.1610   23.3260 C   0  0  0  0  0  3  0  0  0  0  0  0
  -18.0650  -29.7080   23.7090 C   0  0  0  0  0  3  0  0  0  0  0  0
  -16.8870  -29.3060   23.0570 C   0  0  0  0  0  3  0  0  0  0  0  0
  -16.9520  -28.3600   22.0170 C   0  0  0  0  0  3  0  0  0  0  0  0
  -26.4440  -30.5930   24.0480 C   0  0  0  0  0  3  0  0  0  0  0  0
  -26.3380  -31.8930   24.7330 N   0  0  0  0  0  0  0  0  0  0  0  0
  -26.9820  -33.0100   24.3640 C   0  0  0  0  0  0  0  0  0  0  0  0
  -27.7860  -33.0350   23.4300 O   0  0  0  0  0  0  0  0  0  0  0  0
  -25.6580  -31.9560   25.4770 H   0  0  0  0  0  0  0  0  0  0  0  0
  -25.7750  -35.2180   24.3260 C   0  0  0  0  0  1  0  0  0  0  0  0
  -26.6890  -34.3010   25.1550 C   0  0  0  0  0  3  0  0  0  0  0  0
  -28.6930  -34.3490   26.5740 C   0  0  0  0  0  1  0  0  0  0  0  0
  -27.9080  -35.0390   25.5540 N   0  0  0  0  0  0  0  0  0  0  0  0
  -27.6690  -35.9600   25.9120 H   0  0  0  0  0  0  0  0  0  0  0  0
  -26.7020  -29.4440   25.1000 C   0  0  1  0  0  0  0  0  0  0  0  0
  -25.4920  -29.1610   26.0210 C   0  0  0  0  0  1  0  0  0  0  0  0
  -27.0730  -28.1200   24.3930 C   0  0  0  0  0  1  0  0  0  0  0  0
  -27.9070  -29.8170   25.9950 C   0  0  0  0  0  1  0  0  0  0  0  0
  1 17  1  0
  1  7  1  0
  2  7  1  0
  3  4  1  0
  3  2  1  0
  5  4  1  0
  5 21  1  0
  5  6  1  0
  7  6  1  0
  8  1  2  0
 10 16  1  0
 10  9  1  0
 12 11  1  0
 13 17  1  0
 14  9  1  0
 14 11  1  0
 15 13  1  0
 15 14  1  0
 16 46  1  0
 16 15  1  0
 17 12  1  0
 18 19  2  0
 19 38  1  0
 20 19  1  0
 20 23  1  0
 21 22  1  0
 21 18  1  0
 22 20  2  0
 23 24  1  0
 24 25  2  0
 26 29  1  0
 26 25  1  0
 27 26  2  0
 28 27  1  0
 28 23  2  0
 29 30  1  0
 30 35  2  0
 30 31  1  0
 31 32  2  0
 32 33  1  0
 33 37  1  0
 34 33  2  0
 35 34  1  0
 36 35  1  0
 38 39  1  0
 39 42  1  0
 39 41  1  0
 40 38  2  0
 43 18  1  0
 43 44  1  0
 45 43  1  0
 46 49  1  0
 46 48  1  0
 47 48  1  0
 50 49  1  0
 50 52  1  0
 51 62  2  0
 52 57  1  0
 53 63  1  0
 53 61  1  0
 54 60  1  0
 54 56  1  0
 55 61  1  0
 56 55  1  0
 57 56  2  0
 58 59  1  0
 58 52  2  0
 59 54  2  0
 60 53  1  0
 61 51  1  0
 63 65  2  0
 64 63  1  0
 66 64  1  0
 67 76  2  0
 67 72  1  0
 68 64  1  0
 68 72  1  0
 69 68  1  0
 70 71  1  0
 70 69  1  0
 71 67  1  0
 72 73  2  0
 73 74  1  0
 75 74  2  0
 76 75  1  0
 77 51  1  0
 77 78  1  0
 77 87  1  0
 78 81  1  0
 79 78  1  0
 79 83  1  0
 80 79  2  0
 83 82  1  0
 83 85  1  0
 85 86  1  0
 85 84  1  0
 87 90  1  1
 87 88  1  0
 89 87  1  0
M  ISO  4   1 100  17 100  49 101  50 101
M  END
>  <TORSDO>  (61) 
F 18

>  <SCORE>  (61) 
-11.653

>  <name>  (61) 
62

>  <ligand_id>  (61) 
62

>  <original_smiles>  (61) 
[H]c1c([H])c([H])c2c(c1[H])C([H])([H])C([H])([H])C([H])([H])C2([H])N([H])C(=O)C1([H])N(C(=O)C([H])(N([H])C(=O)C([H])(N([H])C([H])([H])[H])C([H])([H])[H])C(C([H])([H])[H])(C([H])([H])[H])C([H])([H])[H])C([H])([H])c2c([H])c(OC([H])([H])C([H])(C([H])([H])C([H])([H])[H])C3([H])C([H])([H])C([H])([H])C4([H])C([H])([H])C([H])([H])N(C(=O)N5C([H])([H])C([H])([H])C([H])([H])C([H])(n6nc(-c7c([H])c([H])c(Oc8c([H])c([H])c(F)c([H])c8F)c([H])c7[H])c(C(=O)N([H])[H])c6N([H])[H])C5([H])[H])C([H])([H])C43[H])c([H])c([H])c2C1([H])[H]

>  <smiles>  (61) 
[H]c1c([H])c([H])c2c(c1[H])C([H])([H])C([H])([H])C([H])([H])C2([H])N([H])C(=O)C1([H])N(C(=O)C([H])(N([H])C(=O)C([H])(N([H])C([H])([H])[H])C([H])([H])[H])C(C([H])([H])[H])(C([H])([H])[H])C([H])([H])[H])C([H])([H])c2c([H])c(OC([H])([H])C([H])(C([H])([H])C([H])([H])[H])C3([H])C([H])([H])C([H])([H])C4([H])C([H])([H])C([H])([H])N(C(=O)N5C([H])([H])C([H])([H])C([H])([H])C([H])(n6nc(-c7c([H])c([H])c(Oc8c([H])c([H])c(F)c([H])c8F)c([H])c7[H])c(C(=O)N([H])[H])c6N([H])[H])C5([H])[H])C([H])([H])C43[H])c([H])c([H])c2C1([H])[H]

$$$$
63:0:0
     RDKit          3D

 95101  0  0  1  0  0  0  0  0999 V2000
  -28.1930  -24.0320   20.0130 N   0  0  0  0  0  2  0  0  0  0  0  0
  -28.3410  -25.7490   20.6270 O   0  0  0  0  0  1  0  0  0  0  0  0
  -24.7900  -32.0150   23.5230 C   0  0  0  0  0  0  0  0  0  0  0  0
  -27.3570  -26.9520   20.5230 C   0  0  0  0  0  0  0  0  0  0  0  0
  -23.6220  -30.6300   21.8590 C   0  0  0  0  0  3  0  0  0  0  0  0
  -25.0860  -28.9870   20.4530 C   0  0  0  0  0  0  0  0  0  0  0  0
  -26.2010  -30.7640   21.7800 C   0  0  0  0  0  2  0  0  0  0  0  0
  -26.2700  -29.3360   21.1120 C   0  0  0  0  0  0  0  0  0  0  0  0
  -27.3840  -28.3440   21.1200 C   0  0  0  0  0  3  0  0  0  0  0  0
  -26.1390  -26.8130   19.8100 C   0  0  0  0  0  3  0  0  0  0  0  0
  -25.0580  -27.7490   19.7830 C   0  0  0  0  0  3  0  0  0  0  0  0
  -23.8800  -29.9390   20.4880 C   0  0  0  0  0  2  0  0  0  0  0  0
  -24.8940  -31.1700   22.4390 N   0  0  0  0  0  0  0  0  0  0  0  0
  -23.6900  -32.3150   24.0190 O   0  0  0  0  0  0  0  0  0  0  0  0
  -22.8890  -29.6500   22.8160 C   0  0  0  0  0  0  0  0  0  0  0  0
  -21.5730  -29.4410   22.6180 N   0  0  0  0  0  0  0  0  0  0  0  0
  -23.5190  -29.0760   23.7080 O   0  0  0  0  0  0  0  0  0  0  0  0
  -21.1130  -29.9550   21.8800 H   0  0  0  0  0  0  0  0  0  0  0  0
  -18.2240  -28.0690   22.9400 C   0  0  0  0  0  0  0  0  0  0  0  0
  -20.7410  -28.4930   23.3700 C   0  0  0  0  0  3  0  0  0  0  0  0
  -20.9590  -27.0460   22.8700 C   0  0  0  0  0  2  0  0  0  0  0  0
  -19.9550  -26.6210   21.7940 C   0  0  0  0  0  2  0  0  0  0  0  0
  -18.5230  -26.7090   22.3310 C   0  0  0  0  0  2  0  0  0  0  0  0
  -19.2650  -28.9120   23.4130 C   0  0  0  0  0  0  0  0  0  0  0  0
  -18.9310  -30.1760   23.9440 C   0  0  0  0  0  3  0  0  0  0  0  0
  -17.5900  -30.6020   24.0070 C   0  0  0  0  0  3  0  0  0  0  0  0
  -16.5640  -29.7580   23.5470 C   0  0  0  0  0  3  0  0  0  0  0  0
  -16.8810  -28.4940   23.0190 C   0  0  0  0  0  3  0  0  0  0  0  0
  -26.0460  -32.6580   24.1850 C   0  0  0  0  0  3  0  0  0  0  0  0
  -26.4740  -31.9400   25.5260 C   0  0  1  0  0  0  0  0  0  0  0  0
  -25.3200  -31.7740   26.5420 C   0  0  0  0  0  1  0  0  0  0  0  0
  -27.0500  -30.5330   25.2440 C   0  0  0  0  0  1  0  0  0  0  0  0
  -27.6030  -32.7440   26.2130 C   0  0  0  0  0  1  0  0  0  0  0  0
  -25.7460  -34.0790   24.4550 N   0  0  0  0  0  0  0  0  0  0  0  0
  -26.0790  -35.1030   23.6600 C   0  0  0  0  0  0  0  0  0  0  0  0
  -26.7270  -34.9550   22.6220 O   0  0  0  0  0  0  0  0  0  0  0  0
  -25.1670  -34.2690   25.2590 H   0  0  0  0  0  0  0  0  0  0  0  0
  -24.3420  -36.9000   23.3250 C   0  0  0  0  0  1  0  0  0  0  0  0
  -25.6260  -36.5200   24.0790 C   0  0  0  0  0  3  0  0  0  0  0  0
  -27.7970  -37.4510   24.7580 C   0  0  0  0  0  1  0  0  0  0  0  0
  -26.6530  -37.5620   23.8550 N   0  0  0  0  0  0  0  0  0  0  0  0
  -26.2530  -38.4890   23.9630 H   0  0  0  0  0  0  0  0  0  0  0  0
  -28.4760  -24.2790   18.5900 C   0  0  0  0  0  2  0  0  0  0  0  0
  -28.3620  -23.7400   16.1090 C   0  0  0  0  0  1  0  0  0  0  0  0
  -27.9720  -23.2720   17.5270 C   0  0  0  0  0  3  0  0  0  0  0  0
  -26.4650  -22.9260   17.6260 C   0  0  0  0  0  2  0  0  0  0  0  0
  -25.5690  -24.0670   17.3550 N   0  0  0  0  0  4  0  0  0  0  0  0
  -25.7310  -24.8290   17.9880 H   0  0  0  0  0  0  0  0  0  0  0  0
  -24.6120  -23.7770   17.4550 H   0  0  0  0  0  0  0  0  0  0  0  0
  -25.6890  -24.3950   16.4130 H   0  0  0  0  0  0  0  0  0  0  0  0
  -29.0890  -22.6000   20.4550 C   0  0  0  0  0  2  0  0  0  0  0  0
  -28.9840  -20.6550   20.2000 C   0  0  0  0  0  3  0  0  0  0  0  0
  -27.7420  -20.2780   20.8930 N   0  0  0  0  0  4  0  0  0  0  0  0
  -27.8960  -20.2500   21.8840 H   0  0  0  0  0  0  0  0  0  0  0  0
  -27.4310  -19.3730   20.5960 H   0  0  0  0  0  0  0  0  0  0  0  0
  -27.0120  -20.9400   20.7050 H   0  0  0  0  0  0  0  0  0  0  0  0
  -30.0630  -19.0430   20.3380 C   0  0  0  0  0  2  0  0  0  0  0  0
  -30.6550  -15.9160   20.2990 C   0  0  0  0  0  0  0  0  0  0  0  0
  -30.7980  -13.3810   19.4790 C   0  0  0  0  0  2  0  0  0  0  0  0
  -29.9220  -12.9660   18.2630 C   0  0  0  0  0  2  0  0  0  0  0  0
  -28.4990  -12.5960   18.7080 C   0  0  0  0  0  2  0  0  0  0  0  0
  -27.9660  -13.5840   19.7690 C   0  0  0  0  0  3  0  0  0  0  0  0
  -28.9850  -13.9040   20.8870 C   0  0  0  0  0  2  0  0  0  0  0  0
  -30.1480  -14.5460   20.2310 N   0  0  0  0  0  0  0  0  0  0  0  0
  -31.8920  -15.8730   20.1480 O   0  0  0  0  0  0  0  0  0  0  0  0
  -29.8810  -17.2680   20.3430 N   0  0  0  0  0  0  0  0  0  0  0  0
  -28.9010  -17.0330   20.4030 H   0  0  0  0  0  0  0  0  0  0  0  0
  -25.5960  -14.0740   20.5380 C   0  0  0  0  0  0  0  0  0  0  0  0
  -24.5440  -13.2750   20.8850 C   0  0  0  0  0  0  0  0  0  0  0  0
  -25.0320  -11.9310   20.8250 C   0  0  0  0  0  0  0  0  0  0  0  0
  -26.6510  -13.2200   20.2780 N   0  0  0  0  0  0  0  0  0  0  0  0
  -26.3270  -11.9220   20.5180 N   0  0  0  0  0  0  0  0  0  0  0  0
  -24.3170  -10.6570   20.9840 C   0  0  0  0  0  0  0  0  0  0  0  0
  -24.6960   -9.7150   21.9640 C   0  0  0  0  0  3  0  0  0  0  0  0
  -23.9790   -8.5070   22.1120 C   0  0  0  0  0  3  0  0  0  0  0  0
  -22.8680   -8.2340   21.2790 C   0  0  0  0  0  0  0  0  0  0  0  0
  -22.5080   -9.1660   20.2900 C   0  0  0  0  0  3  0  0  0  0  0  0
  -23.2260  -10.3650   20.1400 C   0  0  0  0  0  3  0  0  0  0  0  0
  -22.1280   -7.0770   21.3340 O   0  0  0  0  0  0  0  0  0  0  0  0
  -21.9220   -6.4100   22.5150 C   0  0  0  0  0  0  0  0  0  0  0  0
  -21.2420   -7.0060   23.5990 C   0  0  0  0  0  3  0  0  0  0  0  0
  -20.9910   -6.2610   24.7680 C   0  0  0  0  0  3  0  0  0  0  0  0
  -21.4100   -4.9200   24.8530 C   0  0  0  0  0  0  0  0  0  0  0  0
  -22.0810   -4.3220   23.7710 C   0  0  0  0  0  3  0  0  0  0  0  0
  -22.3340   -5.0650   22.6050 C   0  0  0  0  0  0  0  0  0  0  0  0
  -22.9640   -4.4790   21.5590 F   0  0  0  0  0  0  0  0  0  0  0  0
  -21.1630   -4.2000   25.9720 F   0  0  0  0  0  0  0  0  0  0  0  0
  -23.1380  -13.7290   21.1490 C   0  0  0  0  0  0  0  0  0  0  0  0
  -22.4140  -13.0170   22.0040 N   0  0  0  0  0  0  0  0  0  0  0  0
  -22.6930  -14.7540   20.6320 O   0  0  0  0  0  0  0  0  0  0  0  0
  -22.7900  -12.1900   22.4460 H   0  0  0  0  0  0  0  0  0  0  0  0
  -21.4720  -13.3030   22.2210 H   0  0  0  0  0  0  0  0  0  0  0  0
  -25.7370  -15.4500   20.3870 N   0  0  0  0  0  0  0  0  0  0  0  0
  -24.9490  -16.0800   20.4920 H   0  0  0  0  0  0  0  0  0  0  0  0
  -26.5600  -15.9000   20.0090 H   0  0  0  0  0  0  0  0  0  0  0  0
  1 51  1  0
  3 14  2  0
  4  2  1  0
  4  9  1  0
  5 13  1  0
  5 15  1  0
  6 12  1  0
  6  8  1  0
  7 13  1  0
  8  9  2  0
  8  7  1  0
 10  4  2  0
 11 10  1  0
 11  6  2  0
 12  5  1  0
 13  3  1  0
 15 17  2  0
 16 15  1  0
 18 16  1  0
 19 28  2  0
 19 24  1  0
 20 16  1  0
 20 24  1  0
 21 20  1  0
 22 23  1  0
 22 21  1  0
 23 19  1  0
 24 25  2  0
 25 26  1  0
 27 26  2  0
 28 27  1  0
 29  3  1  0
 29 34  1  0
 29 30  1  0
 30 33  1  1
 30 31  1  0
 32 30  1  0
 34 37  1  0
 35 39  1  0
 35 34  1  0
 36 35  2  0
 39 38  1  0
 41 42  1  0
 41 39  1  0
 41 40  1  0
 43  1  1  0
 45 44  1  0
 45 46  1  0
 45 43  1  0
 47 49  1  0
 47 46  1  0
 47 48  1  0
 50 47  1  0
 52 57  1  0
 52 51  1  0
 52 53  1  0
 53 54  1  0
 55 53  1  0
 56 53  1  0
 57 66  1  0
 58 66  1  0
 59 64  1  0
 60 61  1  0
 60 59  1  0
 62 61  1  0
 62 71  1  0
 62 63  1  0
 64 58  1  0
 64 63  1  0
 65 58  2  0
 66 67  1  0
 68 69  2  0
 69 88  1  0
 70 69  1  0
 70 73  1  0
 71 72  1  0
 71 68  1  0
 72 70  2  0
 73 74  1  0
 74 75  2  0
 76 79  1  0
 76 75  1  0
 77 76  2  0
 78 77  1  0
 78 73  2  0
 79 80  1  0
 80 85  2  0
 80 81  1  0
 81 82  2  0
 82 83  1  0
 83 87  1  0
 84 83  2  0
 85 84  1  0
 86 85  1  0
 88 89  1  0
 89 92  1  0
 89 91  1  0
 90 88  2  0
 93 94  1  0
 93 68  1  0
 95 93  1  0
M  ISO  4   1 101   2 101  58 100  66 100
M  END
>  <TORSDO>  (62) 
F 24

>  <SCORE>  (62) 
-13.466

>  <name>  (62) 
63

>  <ligand_id>  (62) 
63

>  <original_smiles>  (62) 
[H]c1c([H])c([H])c2c(c1[H])C([H])([H])C([H])([H])C([H])([H])C2([H])N([H])C(=O)C1([H])N(C(=O)C([H])(N([H])C(=O)C([H])(N([H])C([H])([H])[H])C([H])([H])[H])C(C([H])([H])[H])(C([H])([H])[H])C([H])([H])[H])C([H])([H])c2c([H])c(ON(C([H])([H])C([H])(C([H])([H])[H])C([H])([H])[N+]([H])([H])[H])C([H])([H])C([H])(C([H])([H])N([H])C(=O)N3C([H])([H])C([H])([H])C([H])([H])C([H])(n4nc(-c5c([H])c([H])c(Oc6c([H])c([H])c(F)c([H])c6F)c([H])c5[H])c(C(=O)N([H])[H])c4N([H])[H])C3([H])[H])[N+]([H])([H])[H])c([H])c([H])c2C1([H])[H]

>  <smiles>  (62) 
[H]c1c([H])c([H])c2c(c1[H])C([H])([H])C([H])([H])C([H])([H])C2([H])N([H])C(=O)C1([H])N(C(=O)C([H])(N([H])C(=O)C([H])(N([H])C([H])([H])[H])C([H])([H])[H])C(C([H])([H])[H])(C([H])([H])[H])C([H])([H])[H])C([H])([H])c2c([H])c(ON(C([H])([H])C([H])(C([H])([H])[H])C([H])([H])[N+]([H])([H])[H])C([H])([H])C([H])(C([H])([H])N([H])C(=O)N3C([H])([H])C([H])([H])C([H])([H])C([H])(n4nc(-c5c([H])c([H])c(Oc6c([H])c([H])c(F)c([H])c6F)c([H])c5[H])c(C(=O)N([H])[H])c4N([H])[H])C3([H])[H])[N+]([H])([H])[H])c([H])c([H])c2C1([H])[H]

$$$$
64:0:0
     RDKit          3D

 95103  0  0  1  0  0  0  0  0999 V2000
  -31.1300  -22.6230   20.0640 N   0  0  1  0  0  4  0  0  0  0  0  0
  -31.5740  -23.1670   20.7910 H   0  0  0  0  0  0  0  0  0  0  0  0
  -30.3130  -17.8570   21.1770 C   0  0  0  0  0  0  0  0  0  0  0  0
  -33.0360  -19.9160   22.0410 C   0  0  0  0  0  2  0  0  0  0  0  0
  -32.6330  -21.2920   21.4990 C   0  0  0  0  0  2  0  0  0  0  0  0
  -31.8160  -19.2140   22.6530 C   0  0  0  0  0  2  0  0  0  0  0  0
  -30.2780  -20.3780   21.1460 C   0  0  0  0  0  2  0  0  0  0  0  0
  -31.4360  -21.2190   20.5210 C   0  0  0  0  0  3  0  0  0  0  0  0
  -30.7770  -19.0600   21.6190 N   0  0  0  0  0  0  0  0  0  0  0  0
  -29.4380  -17.7690   20.3110 O   0  0  0  0  0  0  0  0  0  0  0  0
  -30.8800  -16.5520   21.7870 C   0  0  0  0  0  2  0  0  0  0  0  0
  -30.7430  -14.4410   20.4400 C   0  0  0  0  0  0  0  0  0  0  0  0
  -30.3640  -12.3410   19.1900 C   0  0  0  0  0  2  0  0  0  0  0  0
  -29.3930  -12.5730   18.0160 C   0  0  0  0  0  2  0  0  0  0  0  0
  -27.9310  -12.4290   18.4830 C   0  0  0  0  0  2  0  0  0  0  0  0
  -27.6320  -13.2470   19.7680 C   0  0  0  0  0  3  0  0  0  0  0  0
  -28.7120  -12.9910   20.8430 C   0  0  0  0  0  2  0  0  0  0  0  0
  -30.0270  -13.2980   20.2550 N   0  0  0  0  0  0  0  0  0  0  0  0
  -31.7930  -14.6810   19.8400 O   0  0  0  0  0  0  0  0  0  0  0  0
  -30.2380  -15.3090   21.3270 N   0  0  0  0  0  0  0  0  0  0  0  0
  -29.3450  -15.0780   21.7360 H   0  0  0  0  0  0  0  0  0  0  0  0
  -25.2510  -13.8580   20.5330 C   0  0  0  0  0  0  0  0  0  0  0  0
  -24.1880  -13.0880   20.9180 C   0  0  0  0  0  0  0  0  0  0  0  0
  -24.6430  -11.7340   20.8640 C   0  0  0  0  0  0  0  0  0  0  0  0
  -26.2880  -12.9750   20.2720 N   0  0  0  0  0  0  0  0  0  0  0  0
  -25.9250  -11.6920   20.5280 N   0  0  0  0  0  0  0  0  0  0  0  0
  -23.9160  -10.4720   21.0590 C   0  0  0  0  0  0  0  0  0  0  0  0
  -24.3610   -9.4970   21.9770 C   0  0  0  0  0  3  0  0  0  0  0  0
  -23.6350   -8.3000   22.1590 C   0  0  0  0  0  3  0  0  0  0  0  0
  -22.4480   -8.0700   21.4230 C   0  0  0  0  0  0  0  0  0  0  0  0
  -22.0220   -9.0350   20.4920 C   0  0  0  0  0  3  0  0  0  0  0  0
  -22.7480  -10.2230   20.3080 C   0  0  0  0  0  3  0  0  0  0  0  0
  -21.6930   -6.9270   21.5150 O   0  0  0  0  0  0  0  0  0  0  0  0
  -21.6630   -6.1740   22.6610 C   0  0  0  0  0  0  0  0  0  0  0  0
  -21.2560   -6.7170   23.9000 C   0  0  0  0  0  3  0  0  0  0  0  0
  -21.1740   -5.8900   25.0380 C   0  0  0  0  0  3  0  0  0  0  0  0
  -21.4880   -4.5210   24.9380 C   0  0  0  0  0  0  0  0  0  0  0  0
  -21.8890   -3.9780   23.7060 C   0  0  0  0  0  3  0  0  0  0  0  0
  -21.9730   -4.8020   22.5690 C   0  0  0  0  0  0  0  0  0  0  0  0
  -22.3390   -4.2690   21.3790 F   0  0  0  0  0  0  0  0  0  0  0  0
  -21.4020   -3.7250   26.0300 F   0  0  0  0  0  0  0  0  0  0  0  0
  -22.8000  -13.5670   21.2270 C   0  0  0  0  0  0  0  0  0  0  0  0
  -22.0870  -12.8630   22.1000 N   0  0  0  0  0  0  0  0  0  0  0  0
  -22.3540  -14.6010   20.7290 O   0  0  0  0  0  0  0  0  0  0  0  0
  -22.4590  -12.0260   22.5240 H   0  0  0  0  0  0  0  0  0  0  0  0
  -21.1560  -13.1670   22.3490 H   0  0  0  0  0  0  0  0  0  0  0  0
  -25.4210  -15.2290   20.3650 N   0  0  0  0  0  0  0  0  0  0  0  0
  -24.6630  -15.8910   20.4920 H   0  0  0  0  0  0  0  0  0  0  0  0
  -26.2770  -15.6640   20.0420 H   0  0  0  0  0  0  0  0  0  0  0  0
  -31.1790  -22.5950   17.5150 C   0  0  0  0  0  1  0  0  0  0  0  0
  -31.8890  -22.9820   18.8270 C   0  0  0  0  0  2  0  0  0  0  0  0
  -29.7250  -23.1380   20.1020 C   0  0  0  0  0  2  0  0  0  0  0  0
  -29.6800  -24.6930   20.1530 C   0  0  0  0  0  2  0  0  0  0  0  0
  -28.2830  -25.3080   19.9770 C   0  0  0  0  0  2  0  0  0  0  0  0
  -28.3650  -26.7290   20.1370 O   0  0  0  0  0  0  0  0  0  0  0  0
  -24.5650  -31.8900   23.2290 C   0  0  0  0  0  0  0  0  0  0  0  0
  -27.1810  -27.4410   20.1350 C   0  0  0  0  0  0  0  0  0  0  0  0
  -23.3470  -30.4880   21.5990 C   0  0  0  0  0  3  0  0  0  0  0  0
  -24.7850  -28.9480   20.1680 C   0  0  0  0  0  0  0  0  0  0  0  0
  -25.8700  -30.8450   21.3790 C   0  0  0  0  0  2  0  0  0  0  0  0
  -25.9500  -29.4740   20.7410 C   0  0  0  0  0  0  0  0  0  0  0  0
  -27.1500  -28.7290   20.7180 C   0  0  0  0  0  3  0  0  0  0  0  0
  -25.9920  -26.9290   19.5660 C   0  0  0  0  0  3  0  0  0  0  0  0
  -24.8000  -27.6740   19.5780 C   0  0  0  0  0  3  0  0  0  0  0  0
  -23.5440  -29.8080   20.2190 C   0  0  0  0  0  2  0  0  0  0  0  0
  -24.6130  -31.0900   22.1270 N   0  0  0  0  0  0  0  0  0  0  0  0
  -23.4890  -32.1620   23.7790 O   0  0  0  0  0  0  0  0  0  0  0  0
  -22.7050  -29.4670   22.5660 C   0  0  0  0  0  0  0  0  0  0  0  0
  -21.3800  -29.2830   22.4480 N   0  0  0  0  0  0  0  0  0  0  0  0
  -23.3950  -28.8430   23.3750 O   0  0  0  0  0  0  0  0  0  0  0  0
  -20.8860  -29.8390   21.7640 H   0  0  0  0  0  0  0  0  0  0  0  0
  -18.0080  -28.0910   22.9610 C   0  0  0  0  0  0  0  0  0  0  0  0
  -20.5660  -28.3440   23.2200 C   0  0  0  0  0  3  0  0  0  0  0  0
  -20.6630  -26.9140   22.6420 C   0  0  0  0  0  2  0  0  0  0  0  0
  -19.5550  -26.5930   21.6350 C   0  0  0  0  0  2  0  0  0  0  0  0
  -18.1780  -26.7410   22.2860 C   0  0  0  0  0  2  0  0  0  0  0  0
  -19.1290  -28.8510   23.3860 C   0  0  0  0  0  0  0  0  0  0  0  0
  -18.9160  -30.1170   23.9730 C   0  0  0  0  0  3  0  0  0  0  0  0
  -17.6140  -30.6220   24.1440 C   0  0  0  0  0  3  0  0  0  0  0  0
  -16.5060  -29.8580   23.7380 C   0  0  0  0  0  3  0  0  0  0  0  0
  -16.7030  -28.5960   23.1510 C   0  0  0  0  0  3  0  0  0  0  0  0
  -25.8570  -32.5200   23.8380 C   0  0  0  0  0  3  0  0  0  0  0  0
  -25.5530  -33.9170   24.1730 N   0  0  0  0  0  0  0  0  0  0  0  0
  -25.8750  -34.9720   23.4120 C   0  0  0  0  0  0  0  0  0  0  0  0
  -26.5350  -34.8700   22.3740 O   0  0  0  0  0  0  0  0  0  0  0  0
  -24.9710  -34.0680   24.9830 H   0  0  0  0  0  0  0  0  0  0  0  0
  -24.1420  -36.7610   23.0700 C   0  0  0  0  0  1  0  0  0  0  0  0
  -25.3890  -36.3570   23.8750 C   0  0  0  0  0  3  0  0  0  0  0  0
  -27.5260  -37.2450   24.6960 C   0  0  0  0  0  1  0  0  0  0  0  0
  -26.4180  -37.4130   23.7590 N   0  0  0  0  0  0  0  0  0  0  0  0
  -26.0120  -38.3330   23.9070 H   0  0  0  0  0  0  0  0  0  0  0  0
  -26.3880  -31.7450   25.1060 C   0  0  1  0  0  0  0  0  0  0  0  0
  -25.3090  -31.5000   26.1870 C   0  0  0  0  0  1  0  0  0  0  0  0
  -26.9680  -30.3710   24.6950 C   0  0  0  0  0  1  0  0  0  0  0  0
  -27.5390  -32.5410   25.7620 C   0  0  0  0  0  1  0  0  0  0  0  0
  1 52  1  0
  1  2  1  1
  3  9  1  0
  3 11  1  0
  4  6  1  0
  5  4  1  0
  7  9  1  0
  8  1  1  0
  8  7  1  0
  8  5  1  0
  9  6  1  0
 10  3  2  0
 12 20  1  0
 13 18  1  0
 14 15  1  0
 14 13  1  0
 16 15  1  0
 16 25  1  0
 16 17  1  0
 18 12  1  0
 18 17  1  0
 19 12  2  0
 20 21  1  0
 20 11  1  0
 22 23  2  0
 23 42  1  0
 24 23  1  0
 24 27  1  0
 25 26  1  0
 25 22  1  0
 26 24  2  0
 27 28  1  0
 28 29  2  0
 30 33  1  0
 30 29  1  0
 31 30  2  0
 32 31  1  0
 32 27  2  0
 33 34  1  0
 34 35  1  0
 35 36  2  0
 37 36  1  0
 37 41  1  0
 38 37  2  0
 39 34  2  0
 39 38  1  0
 40 39  1  0
 42 43  1  0
 43 46  1  0
 43 45  1  0
 44 42  2  0
 47 48  1  0
 47 22  1  0
 49 47  1  0
 50 51  1  0
 51  1  1  0
 52 53  1  0
 54 55  1  0
 54 53  1  0
 56 67  2  0
 57 55  1  0
 57 62  1  0
 58 66  1  0
 58 68  1  0
 59 65  1  0
 59 61  1  0
 60 66  1  0
 61 60  1  0
 62 61  2  0
 63 64  1  0
 63 57  2  0
 64 59  2  0
 65 58  1  0
 66 56  1  0
 68 70  2  0
 69 68  1  0
 71 69  1  0
 72 81  2  0
 72 77  1  0
 73 69  1  0
 73 77  1  0
 74 73  1  0
 75 76  1  0
 75 74  1  0
 76 72  1  0
 77 78  2  0
 78 79  1  0
 80 79  2  0
 81 80  1  0
 82 56  1  0
 82 83  1  0
 82 92  1  0
 83 86  1  0
 84 88  1  0
 84 83  1  0
 85 84  2  0
 88 87  1  0
 90 88  1  0
 90 91  1  0
 90 89  1  0
 92 95  1  1
 92 93  1  0
 94 92  1  0
M  ISO  4  12 100  20 100  54 101  55 101
M  END
>  <TORSDO>  (63) 
F 22

>  <SCORE>  (63) 
-13.281

>  <name>  (63) 
64

>  <ligand_id>  (63) 
64

>  <original_smiles>  (63) 
[H]c1c([H])c([H])c2c(c1[H])C([H])([H])C([H])([H])C([H])([H])C2([H])N([H])C(=O)C1([H])N(C(=O)C([H])(N([H])C(=O)C([H])(N([H])C([H])([H])[H])C([H])([H])[H])C(C([H])([H])[H])(C([H])([H])[H])C([H])([H])[H])C([H])([H])c2c([H])c(OC([H])([H])C([H])([H])C([H])([H])[N+]([H])(C([H])([H])C([H])([H])[H])C3([H])C([H])([H])N(C(=O)C([H])([H])N([H])C(=O)N4C([H])([H])C([H])([H])C([H])([H])C([H])(n5nc(-c6c([H])c([H])c(Oc7c([H])c([H])c(F)c([H])c7F)c([H])c6[H])c(C(=O)N([H])[H])c5N([H])[H])C4([H])[H])C([H])([H])C([H])([H])C3([H])[H])c([H])c([H])c2C1([H])[H]

>  <smiles>  (63) 
[H]c1c([H])c([H])c2c(c1[H])C([H])([H])C([H])([H])C([H])([H])C2([H])N([H])C(=O)C1([H])N(C(=O)C([H])(N([H])C(=O)C([H])(N([H])C([H])([H])[H])C([H])([H])[H])C(C([H])([H])[H])(C([H])([H])[H])C([H])([H])[H])C([H])([H])c2c([H])c(OC([H])([H])C([H])([H])C([H])([H])[N+]([H])(C([H])([H])C([H])([H])[H])C3([H])C([H])([H])N(C(=O)C([H])([H])N([H])C(=O)N4C([H])([H])C([H])([H])C([H])([H])C([H])(n5nc(-c6c([H])c([H])c(Oc7c([H])c([H])c(F)c([H])c7F)c([H])c6[H])c(C(=O)N([H])[H])c5N([H])[H])C4([H])[H])C([H])([H])C([H])([H])C3([H])[H])c([H])c([H])c2C1([H])[H]

$$$$
65:0:0
     RDKit          3D

103111  0  0  1  0  0  0  0  0999 V2000
  -30.7300  -18.0780   21.1510 C   0  0  0  0  0  3  0  0  0  0  0  0
  -30.7330  -21.7460   19.9530 C   0  0  0  0  0  2  0  0  0  0  0  0
  -28.5060  -20.9160   19.6850 C   0  0  0  0  0  2  0  0  0  0  0  0
  -31.0900  -20.5620   20.8810 C   0  0  0  0  0  2  0  0  0  0  0  0
  -28.8380  -19.7220   20.6120 C   0  0  0  0  0  2  0  0  0  0  0  0
  -29.3070  -22.1060   20.0220 N   0  0  0  0  0  0  0  0  0  0  0  0
  -30.2820  -19.3690   20.5160 N   0  0  2  0  0  4  0  0  0  0  0  0
  -30.4670  -19.2460   19.5340 H   0  0  0  0  0  0  0  0  0  0  0  0
  -29.0870  -23.1800   19.0380 C   0  0  0  0  0  2  0  0  0  0  0  0
  -27.7150  -23.8930   19.1080 C   0  0  0  0  0  2  0  0  0  0  0  0
  -27.5930  -24.9550   20.2200 C   0  0  0  0  0  2  0  0  0  0  0  0
  -27.5640  -26.2690   19.6560 O   0  0  0  0  0  0  0  0  0  0  0  0
  -24.3020  -31.4570   23.2550 C   0  0  0  0  0  0  0  0  0  0  0  0
  -26.4190  -27.0130   19.8120 C   0  0  0  0  0  0  0  0  0  0  0  0
  -22.8830  -30.2050   21.6600 C   0  0  0  0  0  3  0  0  0  0  0  0
  -24.1190  -28.6370   20.0710 C   0  0  0  0  0  0  0  0  0  0  0  0
  -25.4000  -30.4260   21.2650 C   0  0  0  0  0  2  0  0  0  0  0  0
  -25.3480  -29.0770   20.5790 C   0  0  0  0  0  0  0  0  0  0  0  0
  -26.5000  -28.2740   20.4410 C   0  0  0  0  0  3  0  0  0  0  0  0
  -25.1760  -26.5760   19.3060 C   0  0  0  0  0  3  0  0  0  0  0  0
  -24.0270  -27.3850   19.4310 C   0  0  0  0  0  3  0  0  0  0  0  0
  -22.9350  -29.5620   20.2460 C   0  0  0  0  0  2  0  0  0  0  0  0
  -24.2200  -30.7060   22.1180 N   0  0  0  0  0  0  0  0  0  0  0  0
  -23.2860  -31.7680   23.8920 O   0  0  0  0  0  0  0  0  0  0  0  0
  -22.2410  -29.1890   22.6300 C   0  0  0  0  0  0  0  0  0  0  0  0
  -20.9200  -28.9960   22.5040 N   0  0  0  0  0  0  0  0  0  0  0  0
  -22.9310  -28.5740   23.4490 O   0  0  0  0  0  0  0  0  0  0  0  0
  -20.4250  -29.5430   21.8140 H   0  0  0  0  0  0  0  0  0  0  0  0
  -17.5780  -27.6890   22.9200 C   0  0  0  0  0  0  0  0  0  0  0  0
  -20.1110  -28.0550   23.2790 C   0  0  0  0  0  3  0  0  0  0  0  0
  -20.2910  -26.6070   22.7650 C   0  0  0  0  0  2  0  0  0  0  0  0
  -19.2420  -26.2050   21.7230 C   0  0  0  0  0  2  0  0  0  0  0  0
  -17.8310  -26.3220   22.3070 C   0  0  0  0  0  2  0  0  0  0  0  0
  -18.6490  -28.5090   23.3610 C   0  0  0  0  0  0  0  0  0  0  0  0
  -18.3600  -29.7860   23.8900 C   0  0  0  0  0  3  0  0  0  0  0  0
  -17.0310  -30.2440   23.9820 C   0  0  0  0  0  3  0  0  0  0  0  0
  -15.9740  -29.4200   23.5610 C   0  0  0  0  0  3  0  0  0  0  0  0
  -16.2480  -28.1440   23.0350 C   0  0  0  0  0  3  0  0  0  0  0  0
  -25.6690  -31.9770   23.7970 C   0  0  0  0  0  3  0  0  0  0  0  0
  -26.2040  -31.1520   25.0340 C   0  0  1  0  0  0  0  0  0  0  0  0
  -25.1670  -30.9780   26.1690 C   0  0  0  0  0  1  0  0  0  0  0  0
  -26.6520  -29.7410   24.5880 C   0  0  0  0  0  1  0  0  0  0  0  0
  -27.4550  -31.8470   25.6250 C   0  0  0  0  0  1  0  0  0  0  0  0
  -25.4960  -33.3930   24.1490 N   0  0  0  0  0  0  0  0  0  0  0  0
  -25.9050  -34.4170   23.3910 C   0  0  0  0  0  0  0  0  0  0  0  0
  -26.5370  -34.2650   22.3420 O   0  0  0  0  0  0  0  0  0  0  0  0
  -24.9420  -33.5940   24.9690 H   0  0  0  0  0  0  0  0  0  0  0  0
  -24.3430  -36.3680   23.0900 C   0  0  0  0  0  1  0  0  0  0  0  0
  -25.5560  -35.8400   23.8730 C   0  0  0  0  0  3  0  0  0  0  0  0
  -27.7730  -36.5200   24.6790 C   0  0  0  0  0  1  0  0  0  0  0  0
  -26.6780  -36.7950   23.7530 N   0  0  0  0  0  0  0  0  0  0  0  0
  -26.3580  -37.7460   23.9120 H   0  0  0  0  0  0  0  0  0  0  0  0
  -29.8990  -17.6270   22.3920 C   0  0  0  0  0  2  0  0  0  0  0  0
  -30.1690  -18.4960   23.6360 C   0  0  0  0  0  2  0  0  0  0  0  0
  -30.4820  -17.6740   24.8990 C   0  0  0  0  0  2  0  0  0  0  0  0
  -30.5210  -18.5300   26.1810 C   0  0  0  0  0  2  0  0  0  0  0  0
  -31.3780  -19.7210   26.0400 N   0  0  0  0  0  4  0  0  0  0  0  0
  -32.3030  -19.4660   25.7460 H   0  0  0  0  0  0  0  0  0  0  0  0
  -31.4530  -20.1930   26.9240 H   0  0  0  0  0  0  0  0  0  0  0  0
  -30.9940  -20.3700   25.3790 H   0  0  0  0  0  0  0  0  0  0  0  0
  -31.0320  -16.9630   20.0910 C   0  0  0  0  0  3  0  0  0  0  0  0
  -31.3900  -14.4990   20.3500 C   0  0  0  0  0  0  0  0  0  0  0  0
  -30.9690  -12.3040   19.3350 C   0  0  0  0  0  2  0  0  0  0  0  0
  -30.1240  -12.5250   18.0630 C   0  0  0  0  0  2  0  0  0  0  0  0
  -28.6220  -12.5270   18.4040 C   0  0  0  0  0  2  0  0  0  0  0  0
  -28.2800  -13.4580   19.6000 C   0  0  0  0  0  3  0  0  0  0  0  0
  -29.2520  -13.2320   20.7830 C   0  0  0  0  0  2  0  0  0  0  0  0
  -30.6300  -13.3750   20.2830 N   0  0  0  0  0  0  0  0  0  0  0  0
  -32.5600  -14.5560   19.9740 O   0  0  0  0  0  0  0  0  0  0  0  0
  -30.6950  -15.6190   20.5970 N   0  0  0  0  0  0  0  0  0  0  0  0
  -29.7470  -15.4730   20.9070 H   0  0  0  0  0  0  0  0  0  0  0  0
  -25.9310  -14.2920   20.2360 C   0  0  0  0  0  0  0  0  0  0  0  0
  -24.7690  -13.6250   20.5180 C   0  0  0  0  0  0  0  0  0  0  0  0
  -25.0830  -12.2320   20.4360 C   0  0  0  0  0  0  0  0  0  0  0  0
  -26.8840  -13.3120   20.0050 N   0  0  0  0  0  0  0  0  0  0  0  0
  -26.3740  -12.0670   20.1810 N   0  0  0  0  0  0  0  0  0  0  0  0
  -24.2180  -11.0500   20.5270 C   0  0  0  0  0  0  0  0  0  0  0  0
  -24.4700  -10.0230   21.4630 C   0  0  0  0  0  3  0  0  0  0  0  0
  -23.6130   -8.9040   21.5460 C   0  0  0  0  0  3  0  0  0  0  0  0
  -22.4910   -8.8050   20.6910 C   0  0  0  0  0  0  0  0  0  0  0  0
  -22.2570   -9.8190   19.7460 C   0  0  0  0  0  3  0  0  0  0  0  0
  -23.1130  -10.9300   19.6610 C   0  0  0  0  0  3  0  0  0  0  0  0
  -21.6190   -7.7420   20.6820 O   0  0  0  0  0  0  0  0  0  0  0  0
  -21.3690   -7.0080   21.8130 C   0  0  0  0  0  0  0  0  0  0  0  0
  -20.8260   -7.5930   22.9770 C   0  0  0  0  0  3  0  0  0  0  0  0
  -20.5200   -6.7890   24.0920 C   0  0  0  0  0  3  0  0  0  0  0  0
  -20.7450   -5.4000   24.0440 C   0  0  0  0  0  0  0  0  0  0  0  0
  -21.2810   -4.8150   22.8840 C   0  0  0  0  0  3  0  0  0  0  0  0
  -21.5880   -5.6160   21.7700 C   0  0  0  0  0  0  0  0  0  0  0  0
  -22.0840   -5.0450   20.6470 F   0  0  0  0  0  0  0  0  0  0  0  0
  -20.4440   -4.6250   25.1130 F   0  0  0  0  0  0  0  0  0  0  0  0
  -23.4190  -14.2380   20.7540 C   0  0  0  0  0  0  0  0  0  0  0  0
  -22.5820  -13.5850   21.5550 N   0  0  0  0  0  0  0  0  0  0  0  0
  -23.1160  -15.3270   20.2700 O   0  0  0  0  0  0  0  0  0  0  0  0
  -22.8370  -12.7000   21.9690 H   0  0  0  0  0  0  0  0  0  0  0  0
  -21.6730  -13.9740   21.7560 H   0  0  0  0  0  0  0  0  0  0  0  0
  -26.2510  -15.6430   20.1350 N   0  0  0  0  0  0  0  0  0  0  0  0
  -25.5460  -16.3650   20.2210 H   0  0  0  0  0  0  0  0  0  0  0  0
  -27.1400  -15.9950   19.8090 H   0  0  0  0  0  0  0  0  0  0  0  0
  -30.3810  -17.1490   18.6830 C   0  0  0  0  0  2  0  0  0  0  0  0
  -31.4360  -16.8470   16.3690 C   0  0  0  0  0  1  0  0  0  0  0  0
  -30.9240  -19.1760   17.1900 C   0  0  0  0  0  1  0  0  0  0  0  0
  -31.3300  -17.7520   17.6070 C   0  0  0  0  0  3  0  0  0  0  0  0
  1 53  1  0
  2  6  1  0
  2  4  1  0
  3  6  1  0
  3  5  1  0
  7  5  1  0
  7  4  1  0
  7  1  1  0
  7  8  1  6
  9 10  1  0
  9  6  1  0
 10 11  1  0
 12 14  1  0
 12 11  1  0
 13 24  2  0
 14 19  1  0
 15 23  1  0
 15 25  1  0
 16 22  1  0
 16 18  1  0
 17 23  1  0
 18 17  1  0
 19 18  2  0
 20 21  1  0
 20 14  2  0
 21 16  2  0
 22 15  1  0
 23 13  1  0
 25 27  2  0
 26 25  1  0
 28 26  1  0
 29 38  2  0
 29 34  1  0
 30 26  1  0
 30 34  1  0
 31 30  1  0
 32 33  1  0
 32 31  1  0
 33 29  1  0
 34 35  2  0
 35 36  1  0
 37 36  2  0
 38 37  1  0
 39 13  1  0
 39 44  1  0
 39 40  1  0
 40 43  1  1
 40 41  1  0
 42 40  1  0
 44 47  1  0
 45 49  1  0
 45 44  1  0
 46 45  2  0
 49 48  1  0
 51 49  1  0
 51 52  1  0
 51 50  1  0
 53 54  1  0
 54 55  1  0
 55 56  1  0
 57 56  1  0
 57 59  1  0
 58 57  1  0
 60 57  1  0
 61100  1  0
 61 70  1  0
 61  1  1  0
 62 70  1  0
 63 68  1  0
 64 65  1  0
 64 63  1  0
 66 65  1  0
 66 75  1  0
 66 67  1  0
 68 62  1  0
 68 67  1  0
 69 62  2  0
 70 71  1  0
 72 73  2  0
 73 92  1  0
 74 73  1  0
 74 77  1  0
 75 76  1  0
 75 72  1  0
 76 74  2  0
 77 78  1  0
 78 79  2  0
 80 79  1  0
 81 80  2  0
 82 81  1  0
 82 77  2  0
 83 80  1  0
 83 84  1  0
 84 85  1  0
 85 86  2  0
 87 86  1  0
 87 91  1  0
 88 87  2  0
 89 84  2  0
 89 88  1  0
 90 89  1  0
 92 93  1  0
 93 96  1  0
 93 95  1  0
 94 92  2  0
 97 98  1  0
 97 72  1  0
 99 97  1  0
101103  1  0
102103  1  0
103100  1  0
M  ISO  4  11 101  12 101  62 100  70 100
M  END
>  <TORSDO>  (64) 
F 28

>  <SCORE>  (64) 
0.485

>  <name>  (64) 
65

>  <ligand_id>  (64) 
65

>  <original_smiles>  (64) 
[H]c1c([H])c([H])c2c(c1[H])C([H])([H])C([H])([H])C([H])([H])C2([H])N([H])C(=O)C1([H])N(C(=O)C([H])(N([H])C(=O)C([H])(N([H])C([H])([H])[H])C([H])([H])[H])C(C([H])([H])[H])(C([H])([H])[H])C([H])([H])[H])C([H])([H])c2c([H])c(OC([H])([H])C([H])([H])C([H])([H])N3C([H])([H])C([H])([H])[N+]([H])(C([H])(C([H])([H])C([H])([H])C([H])([H])C([H])([H])[N+]([H])([H])[H])C([H])(N([H])C(=O)N4C([H])([H])C([H])([H])C([H])([H])C([H])(n5nc(-c6c([H])c([H])c(Oc7c([H])c([H])c(F)c([H])c7F)c([H])c6[H])c(C(=O)N([H])[H])c5N([H])[H])C4([H])[H])C([H])([H])C([H])(C([H])([H])[H])C([H])([H])[H])C([H])([H])C3([H])[H])c([H])c([H])c2C1([H])[H]

>  <smiles>  (64) 
[H]c1c([H])c([H])c2c(c1[H])C([H])([H])C([H])([H])C([H])([H])C2([H])N([H])C(=O)C1([H])N(C(=O)C([H])(N([H])C(=O)C([H])(N([H])C([H])([H])[H])C([H])([H])[H])C(C([H])([H])[H])(C([H])([H])[H])C([H])([H])[H])C([H])([H])c2c([H])c(OC([H])([H])C([H])([H])C([H])([H])N3C([H])([H])C([H])([H])[N+]([H])(C([H])(C([H])([H])C([H])([H])C([H])([H])C([H])([H])[N+]([H])([H])[H])C([H])(N([H])C(=O)N4C([H])([H])C([H])([H])C([H])([H])C([H])(n5nc(-c6c([H])c([H])c(Oc7c([H])c([H])c(F)c([H])c7F)c([H])c6[H])c(C(=O)N([H])[H])c5N([H])[H])C4([H])[H])C([H])([H])C([H])(C([H])([H])[H])C([H])([H])[H])C([H])([H])C3([H])[H])c([H])c([H])c2C1([H])[H]

$$$$
66:0:0
     RDKit          3D

 82 86  0  0  1  0  0  0  0  0999 V2000
  -28.2030  -25.2140   20.1870 O   0  0  0  0  0  1  0  0  0  0  0  0
  -24.6590  -31.8230   23.1160 C   0  0  0  0  0  0  0  0  0  0  0  0
  -27.2270  -26.5180   20.2190 C   0  0  0  0  0  0  0  0  0  0  0  0
  -23.5030  -30.4040   21.4840 C   0  0  0  0  0  3  0  0  0  0  0  0
  -24.9680  -28.6960   20.1210 C   0  0  0  0  0  0  0  0  0  0  0  0
  -26.0920  -30.4850   21.4080 C   0  0  0  0  0  2  0  0  0  0  0  0
  -26.1660  -29.0180   20.7700 C   0  0  0  0  0  0  0  0  0  0  0  0
  -27.2690  -27.9690   20.7710 C   0  0  0  0  0  3  0  0  0  0  0  0
  -25.9850  -26.4690   19.5130 C   0  0  0  0  0  3  0  0  0  0  0  0
  -24.9320  -27.4500   19.4670 C   0  0  0  0  0  3  0  0  0  0  0  0
  -23.7680  -29.6710   20.1330 C   0  0  0  0  0  2  0  0  0  0  0  0
  -24.7790  -30.9440   22.0540 N   0  0  0  0  0  0  0  0  0  0  0  0
  -23.5550  -32.1300   23.6020 O   0  0  0  0  0  0  0  0  0  0  0  0
  -22.7610  -29.4600   22.4680 C   0  0  0  0  0  0  0  0  0  0  0  0
  -21.4220  -29.3490   22.3610 N   0  0  0  0  0  0  0  0  0  0  0  0
  -23.4040  -28.8170   23.3000 O   0  0  0  0  0  0  0  0  0  0  0  0
  -20.9470  -29.9240   21.6780 H   0  0  0  0  0  0  0  0  0  0  0  0
  -18.0030  -28.1330   22.8590 C   0  0  0  0  0  0  0  0  0  0  0  0
  -20.5950  -28.3830   23.0970 C   0  0  0  0  0  0  0  0  0  0  0  0
  -20.7720  -26.9760   22.4620 C   0  0  0  0  0  3  0  0  0  0  0  0
  -19.5380  -26.4150   21.7220 C   0  0  0  0  0  3  0  0  0  0  0  0
  -18.0990  -26.8440   22.0560 C   0  0  0  0  0  3  0  0  0  0  0  0
  -19.1450  -28.8670   23.2920 C   0  0  0  0  0  0  0  0  0  0  0  0
  -18.9400  -30.1130   23.9270 C   0  0  0  0  0  3  0  0  0  0  0  0
  -17.6430  -30.6230   24.1300 C   0  0  0  0  0  3  0  0  0  0  0  0
  -16.5250  -29.8800   23.7210 C   0  0  0  0  0  3  0  0  0  0  0  0
  -16.7080  -28.6360   23.0960 C   0  0  0  0  0  3  0  0  0  0  0  0
  -25.9010  -32.4970   23.7720 C   0  0  0  0  0  3  0  0  0  0  0  0
  -25.5540  -33.8960   24.1020 N   0  0  0  0  0  0  0  0  0  0  0  0
  -25.8860  -34.9730   23.3740 C   0  0  0  0  0  0  0  0  0  0  0  0
  -26.5670  -34.8910   22.3500 O   0  0  0  0  0  0  0  0  0  0  0  0
  -24.9460  -34.0310   24.8960 H   0  0  0  0  0  0  0  0  0  0  0  0
  -24.1500  -36.7720   23.0460 C   0  0  0  0  0  1  0  0  0  0  0  0
  -25.3900  -36.3550   23.8530 C   0  0  0  0  0  3  0  0  0  0  0  0
  -27.5120  -37.2520   24.7100 C   0  0  0  0  0  1  0  0  0  0  0  0
  -26.4160  -37.4190   23.7590 N   0  0  0  0  0  0  0  0  0  0  0  0
  -26.0000  -38.3340   23.9110 H   0  0  0  0  0  0  0  0  0  0  0  0
  -26.3860  -31.7540   25.0790 C   0  0  1  0  0  0  0  0  0  0  0  0
  -25.2660  -31.5290   26.1240 C   0  0  0  0  0  1  0  0  0  0  0  0
  -26.9880  -30.3730   24.7440 C   0  0  0  0  0  1  0  0  0  0  0  0
  -27.5140  -32.5680   25.7560 C   0  0  0  0  0  1  0  0  0  0  0  0
  -28.2300  -23.3320   20.4390 C   0  0  0  0  0 15  0  0  0  0  0  0
  -28.7870  -21.3790   19.8640 C   0  0  0  0  0 15  0  0  0  0  0  0
  -29.3980  -19.4400   20.4120 C   0  0  0  0  0  1  0  0  0  0  0  0
  -30.1690  -16.0920   20.0360 C   0  0  0  0  0  0  0  0  0  0  0  0
  -30.3590  -13.4710   19.1990 C   0  0  0  0  0  2  0  0  0  0  0  0
  -29.4770  -12.8700   18.0550 C   0  0  0  0  0  2  0  0  0  0  0  0
  -28.1030  -12.4290   18.5740 C   0  0  0  0  0  2  0  0  0  0  0  0
  -27.5630  -13.4490   19.5940 C   0  0  0  0  0  3  0  0  0  0  0  0
  -28.6020  -13.9210   20.6470 C   0  0  0  0  0  2  0  0  0  0  0  0
  -29.6750  -14.6720   19.9180 N   0  0  0  0  0  0  0  0  0  0  0  0
  -31.4150  -15.9560   19.9590 O   0  0  0  0  0  0  0  0  0  0  0  0
  -29.4220  -17.5600   20.0550 N   0  0  0  0  0  0  0  0  0  0  0  0
  -28.4530  -17.3130   19.9040 H   0  0  0  0  0  0  0  0  0  0  0  0
  -25.2310  -13.9310   20.4500 C   0  0  0  0  0  0  0  0  0  0  0  0
  -24.1900  -13.1380   20.8360 C   0  0  0  0  0  0  0  0  0  0  0  0
  -24.6710  -11.7930   20.7770 C   0  0  0  0  0  0  0  0  0  0  0  0
  -26.2760  -13.0750   20.1660 N   0  0  0  0  0  0  0  0  0  0  0  0
  -25.9570  -11.7790   20.4270 N   0  0  0  0  0  0  0  0  0  0  0  0
  -23.9560  -10.5240   20.9740 C   0  0  0  0  0  0  0  0  0  0  0  0
  -24.4050   -9.5560   21.8990 C   0  0  0  0  0  3  0  0  0  0  0  0
  -23.6830   -8.3560   22.0890 C   0  0  0  0  0  3  0  0  0  0  0  0
  -22.4960   -8.1180   21.3550 C   0  0  0  0  0  0  0  0  0  0  0  0
  -22.0660   -9.0740   20.4200 C   0  0  0  0  0  3  0  0  0  0  0  0
  -22.7890  -10.2650   20.2280 C   0  0  0  0  0  3  0  0  0  0  0  0
  -21.7460   -6.9710   21.4550 O   0  0  0  0  0  0  0  0  0  0  0  0
  -21.7090   -6.2310   22.6100 C   0  0  0  0  0  0  0  0  0  0  0  0
  -21.2840   -6.7860   23.8360 C   0  0  0  0  0  3  0  0  0  0  0  0
  -21.1960   -5.9730   24.9840 C   0  0  0  0  0  3  0  0  0  0  0  0
  -21.5230   -4.6050   24.9060 C   0  0  0  0  0  0  0  0  0  0  0  0
  -21.9420   -4.0500   23.6840 C   0  0  0  0  0  3  0  0  0  0  0  0
  -22.0320   -4.8600   22.5390 C   0  0  0  0  0  0  0  0  0  0  0  0
  -22.4140   -4.3150   21.3590 F   0  0  0  0  0  0  0  0  0  0  0  0
  -21.4320   -3.8220   26.0060 F   0  0  0  0  0  0  0  0  0  0  0  0
  -22.7960  -13.6030   21.1400 C   0  0  0  0  0  0  0  0  0  0  0  0
  -22.0920  -12.8960   22.0160 N   0  0  0  0  0  0  0  0  0  0  0  0
  -22.3430  -14.6300   20.6380 O   0  0  0  0  0  0  0  0  0  0  0  0
  -22.4740  -12.0650   22.4440 H   0  0  0  0  0  0  0  0  0  0  0  0
  -21.1580  -13.1890   22.2630 H   0  0  0  0  0  0  0  0  0  0  0  0
  -25.3710  -15.3060   20.2780 N   0  0  0  0  0  0  0  0  0  0  0  0
  -24.5980  -15.9490   20.4140 H   0  0  0  0  0  0  0  0  0  0  0  0
  -26.2020  -15.7550   19.9170 H   0  0  0  0  0  0  0  0  0  0  0  0
  1  3  1  0
  2 13  2  0
  3  8  1  0
  4 12  1  0
  4 14  1  0
  5 11  1  0
  5  7  1  0
  6 12  1  0
  7  8  2  0
  7  6  1  0
  9  3  2  0
 10  9  1  0
 10  5  2  0
 11  4  1  0
 12  2  1  0
 14 16  2  0
 15 14  1  0
 15 19  1  0
 17 15  1  0
 18 27  2  0
 18 23  1  0
 19 23  1  0
 20 19  2  0
 21 22  2  0
 21 20  1  0
 22 18  1  0
 23 24  2  0
 24 25  1  0
 26 25  2  0
 27 26  1  0
 28  2  1  0
 28 29  1  0
 28 38  1  0
 29 32  1  0
 30 34  1  0
 30 29  1  0
 31 30  2  0
 34 33  1  0
 36 34  1  0
 36 37  1  0
 36 35  1  0
 38 41  1  1
 38 39  1  0
 40 38  1  0
 45 53  1  0
 46 51  1  0
 47 48  1  0
 47 46  1  0
 49 48  1  0
 49 58  1  0
 49 50  1  0
 51 45  1  0
 51 50  1  0
 52 45  2  0
 53 44  1  0
 54 53  1  0
 55 56  2  0
 56 75  1  0
 57 56  1  0
 57 60  1  0
 58 59  1  0
 58 55  1  0
 59 57  2  0
 60 61  1  0
 61 62  2  0
 63 66  1  0
 63 62  1  0
 64 63  2  0
 65 64  1  0
 65 60  2  0
 66 67  1  0
 67 68  1  0
 68 69  2  0
 70 69  1  0
 70 74  1  0
 71 70  2  0
 72 67  2  0
 72 71  1  0
 73 72  1  0
 75 76  1  0
 76 79  1  0
 76 78  1  0
 77 75  2  0
 80 81  1  0
 80 55  1  0
 82 80  1  0
M  ISO  4   1 101  42 101  45 100  53 100
M  END
>  <TORSDO>  (65) 
F 18

>  <SCORE>  (65) 
-16.165

>  <name>  (65) 
66

>  <ligand_id>  (65) 
66

>  <original_smiles>  (65) 
[H]c1c([H])c([H])c2c(c1[H])C([H])([H])C([H])([H])C([H])([H])C2([H])N([H])C(=O)C1([H])N(C(=O)C([H])(N([H])C(=O)C([H])(N([H])C([H])([H])[H])C([H])([H])[H])C(C([H])([H])[H])(C([H])([H])[H])C([H])([H])[H])C([H])([H])c2c([H])c(OC([H])([H])C([H])([H])C([H])([H])N([H])C(=O)N3C([H])([H])C([H])([H])C([H])([H])C([H])(n4nc(-c5c([H])c([H])c(Oc6c([H])c([H])c(F)c([H])c6F)c([H])c5[H])c(C(=O)N([H])[H])c4N([H])[H])C3([H])[H])c([H])c([H])c2C1([H])[H]

>  <smiles>  (65) 
[H]c1c([H])c([H])c2c(c1[H])C([H])([H])C([H])([H])C([H])([H])C2([H])N([H])C(=O)C1([H])N(C(=O)C([H])(N([H])C(=O)C([H])(N([H])C([H])([H])[H])C([H])([H])[H])C(C([H])([H])[H])(C([H])([H])[H])C([H])([H])[H])C([H])([H])c2c([H])c(OC([H])([H])C([H])([H])C([H])([H])N([H])C(=O)N3C([H])([H])C([H])([H])C([H])([H])C([H])(n4nc(-c5c([H])c([H])c(Oc6c([H])c([H])c(F)c([H])c6F)c([H])c5[H])c(C(=O)N([H])[H])c4N([H])[H])C3([H])[H])c([H])c([H])c2C1([H])[H]

$$$$
67:0:0
     RDKit          3D

 96103  0  0  1  0  0  0  0  0999 V2000
  -29.7300  -20.1520   21.2400 C   0  0  0  0  0  3  0  0  0  0  0  0
  -29.3530  -18.5730   21.1350 C   0  0  0  0  0  2  0  0  0  0  0  0
  -30.2750  -17.4680   20.4110 C   0  0  0  0  0  3  0  0  0  0  0  0
  -30.7580  -14.9050   20.3490 C   0  0  0  0  0  0  0  0  0  0  0  0
  -30.5310  -12.7300   19.1690 C   0  0  0  0  0  2  0  0  0  0  0  0
  -29.5640  -12.9270   17.9820 C   0  0  0  0  0  2  0  0  0  0  0  0
  -28.1000  -12.7350   18.4310 C   0  0  0  0  0  2  0  0  0  0  0  0
  -27.7660  -13.5100   19.7340 C   0  0  0  0  0  3  0  0  0  0  0  0
  -28.8500  -13.3090   20.8150 C   0  0  0  0  0  2  0  0  0  0  0  0
  -30.1370  -13.6900   20.2220 N   0  0  0  0  0  0  0  0  0  0  0  0
  -31.9260  -15.0520   19.9750 O   0  0  0  0  0  0  0  0  0  0  0  0
  -29.9730  -15.9990   20.6600 N   0  0  0  0  0  0  0  0  0  0  0  0
  -29.0310  -15.7780   20.9460 H   0  0  0  0  0  0  0  0  0  0  0  0
  -25.3760  -14.0460   20.4910 C   0  0  0  0  0  0  0  0  0  0  0  0
  -24.3300  -13.2460   20.8630 C   0  0  0  0  0  0  0  0  0  0  0  0
  -24.8200  -11.9040   20.8100 C   0  0  0  0  0  0  0  0  0  0  0  0
  -26.4330  -13.1900   20.2310 N   0  0  0  0  0  0  0  0  0  0  0  0
  -26.1060  -11.8960   20.4840 N   0  0  0  0  0  0  0  0  0  0  0  0
  -24.1230  -10.6260   20.9940 C   0  0  0  0  0  0  0  0  0  0  0  0
  -24.5470   -9.6850   21.9580 C   0  0  0  0  0  3  0  0  0  0  0  0
  -23.8480   -8.4700   22.1270 C   0  0  0  0  0  3  0  0  0  0  0  0
  -22.7120   -8.1880   21.3300 C   0  0  0  0  0  0  0  0  0  0  0  0
  -22.3110   -9.1170   20.3540 C   0  0  0  0  0  3  0  0  0  0  0  0
  -23.0100  -10.3240   20.1840 C   0  0  0  0  0  3  0  0  0  0  0  0
  -21.9900   -7.0230   21.4050 O   0  0  0  0  0  0  0  0  0  0  0  0
  -21.8690   -6.3240   22.5790 C   0  0  0  0  0  0  0  0  0  0  0  0
  -21.3220   -6.9110   23.7420 C   0  0  0  0  0  3  0  0  0  0  0  0
  -21.1520   -6.1380   24.9070 C   0  0  0  0  0  3  0  0  0  0  0  0
  -21.5170   -4.7790   24.9130 C   0  0  0  0  0  0  0  0  0  0  0  0
  -22.0570   -4.1910   23.7550 C   0  0  0  0  0  3  0  0  0  0  0  0
  -22.2300   -4.9610   22.5910 C   0  0  0  0  0  0  0  0  0  0  0  0
  -22.7310   -4.3850   21.4730 F   0  0  0  0  0  0  0  0  0  0  0  0
  -21.3480   -4.0340   26.0300 F   0  0  0  0  0  0  0  0  0  0  0  0
  -22.9280  -13.6920   21.1550 C   0  0  0  0  0  0  0  0  0  0  0  0
  -22.2340  -12.9870   22.0410 N   0  0  0  0  0  0  0  0  0  0  0  0
  -22.4540  -14.7000   20.6320 O   0  0  0  0  0  0  0  0  0  0  0  0
  -22.6310  -12.1710   22.4830 H   0  0  0  0  0  0  0  0  0  0  0  0
  -21.2940  -13.2670   22.2760 H   0  0  0  0  0  0  0  0  0  0  0  0
  -25.5100  -15.4230   20.3260 N   0  0  0  0  0  0  0  0  0  0  0  0
  -24.7250  -16.0550   20.4290 H   0  0  0  0  0  0  0  0  0  0  0  0
  -26.3330  -15.8780   19.9530 H   0  0  0  0  0  0  0  0  0  0  0  0
  -30.2900  -17.7390   18.8870 C   0  0  0  0  0  2  0  0  0  0  0  0
  -28.9470  -18.5100   16.8680 C   0  0  0  0  0  1  0  0  0  0  0  0
  -28.9020  -17.7870   18.2180 C   0  0  0  0  0  2  0  0  0  0  0  0
  -28.9420  -21.2890   20.4030 C   0  0  0  0  0  2  0  0  0  0  0  0
  -28.8890  -22.7050   20.9980 N   0  0  0  0  0  4  0  0  0  0  0  0
  -28.2260  -22.6710   21.7590 H   0  0  0  0  0  0  0  0  0  0  0  0
  -29.7830  -22.9110   21.4140 H   0  0  0  0  0  0  0  0  0  0  0  0
  -28.5270  -23.9070   20.1130 C   0  0  0  0  0  3  0  0  0  0  0  0
  -28.3040  -25.3170   20.8520 C   0  0  0  0  0  3  0  0  0  0  0  0
  -28.3420  -26.6030   20.1040 O   0  0  0  0  0  0  0  0  0  0  0  0
  -24.6420  -31.9660   23.2540 C   0  0  0  0  0  0  0  0  0  0  0  0
  -27.2160  -27.4330   20.1360 C   0  0  0  0  0  0  0  0  0  0  0  0
  -23.4150  -30.5670   21.6310 C   0  0  0  0  0  3  0  0  0  0  0  0
  -24.8440  -29.0230   20.1780 C   0  0  0  0  0  0  0  0  0  0  0  0
  -25.9470  -30.9020   21.3980 C   0  0  0  0  0  2  0  0  0  0  0  0
  -26.0210  -29.5240   20.7490 C   0  0  0  0  0  0  0  0  0  0  0  0
  -27.2120  -28.7400   20.7130 C   0  0  0  0  0  3  0  0  0  0  0  0
  -26.0190  -26.9800   19.5440 C   0  0  0  0  0  3  0  0  0  0  0  0
  -24.8420  -27.7560   19.5690 C   0  0  0  0  0  3  0  0  0  0  0  0
  -23.6050  -29.8940   20.2470 C   0  0  0  0  0  2  0  0  0  0  0  0
  -24.6890  -31.1620   22.1510 N   0  0  0  0  0  0  0  0  0  0  0  0
  -23.5670  -32.2350   23.8100 O   0  0  0  0  0  0  0  0  0  0  0  0
  -22.7740  -29.5450   22.6000 C   0  0  0  0  0  0  0  0  0  0  0  0
  -21.4520  -29.3350   22.4690 N   0  0  0  0  0  0  0  0  0  0  0  0
  -23.4640  -28.9430   23.4250 O   0  0  0  0  0  0  0  0  0  0  0  0
  -20.9560  -29.8700   21.7710 H   0  0  0  0  0  0  0  0  0  0  0  0
  -18.1040  -28.0580   22.9610 C   0  0  0  0  0  0  0  0  0  0  0  0
  -20.6530  -28.3850   23.2430 C   0  0  0  0  0  3  0  0  0  0  0  0
  -20.7950  -26.9520   22.6800 C   0  0  0  0  0  2  0  0  0  0  0  0
  -19.7080  -26.5920   21.6640 C   0  0  0  0  0  2  0  0  0  0  0  0
  -18.3180  -26.7080   22.2970 C   0  0  0  0  0  2  0  0  0  0  0  0
  -19.2000  -28.8530   23.3880 C   0  0  0  0  0  0  0  0  0  0  0  0
  -18.9460  -30.1150   23.9660 C   0  0  0  0  0  3  0  0  0  0  0  0
  -17.6280  -30.5850   24.1210 C   0  0  0  0  0  3  0  0  0  0  0  0
  -16.5460  -29.7870   23.7090 C   0  0  0  0  0  3  0  0  0  0  0  0
  -16.7850  -28.5270   23.1350 C   0  0  0  0  0  3  0  0  0  0  0  0
  -25.9320  -32.5990   23.8580 C   0  0  0  0  0  3  0  0  0  0  0  0
  -26.4680  -31.8280   25.1260 C   0  0  1  0  0  0  0  0  0  0  0  0
  -25.3840  -31.5600   26.1950 C   0  0  0  0  0  1  0  0  0  0  0  0
  -27.0770  -30.4660   24.7190 C   0  0  0  0  0  1  0  0  0  0  0  0
  -27.6090  -32.6370   25.7880 C   0  0  0  0  0  1  0  0  0  0  0  0
  -25.6280  -33.9970   24.1960 N   0  0  0  0  0  0  0  0  0  0  0  0
  -25.9500  -35.0520   23.4340 C   0  0  0  0  0  0  0  0  0  0  0  0
  -26.6060  -34.9490   22.3930 O   0  0  0  0  0  0  0  0  0  0  0  0
  -25.0480  -34.1520   25.0080 H   0  0  0  0  0  0  0  0  0  0  0  0
  -24.2190  -36.8460   23.1030 C   0  0  0  0  0  1  0  0  0  0  0  0
  -25.4710  -36.4400   23.9000 C   0  0  0  0  0  3  0  0  0  0  0  0
  -27.6130  -37.3220   24.7120 C   0  0  0  0  0  1  0  0  0  0  0  0
  -26.5030  -37.4920   23.7780 N   0  0  0  0  0  0  0  0  0  0  0  0
  -26.1010  -38.4130   23.9280 H   0  0  0  0  0  0  0  0  0  0  0  0
  -31.2570  -20.4270   21.3850 C   0  0  0  0  0  2  0  0  0  0  0  0
  -32.0350  -20.4140   20.1250 N   0  0  0  0  0  4  0  0  0  0  0  0
  -32.1040  -19.4920   19.7360 H   0  0  0  0  0  0  0  0  0  0  0  0
  -32.9760  -20.7160   20.3240 H   0  0  0  0  0  0  0  0  0  0  0  0
  -31.6720  -21.0450   19.4310 H   0  0  0  0  0  0  0  0  0  0  0  0
  1 45  1  0
  1 92  1  0
  2  1  1  0
  3 42  1  0
  3 12  1  0
  3  2  1  0
  4 12  1  0
  5 10  1  0
  6  7  1  0
  6  5  1  0
  8  7  1  0
  8 17  1  0
  8  9  1  0
 10  4  1  0
 10  9  1  0
 11  4  2  0
 12 13  1  0
 14 15  2  0
 15 34  1  0
 16 15  1  0
 16 19  1  0
 17 18  1  0
 17 14  1  0
 18 16  2  0
 19 20  1  0
 20 21  2  0
 22 25  1  0
 22 21  1  0
 23 22  2  0
 24 23  1  0
 24 19  2  0
 25 26  1  0
 26 31  2  0
 26 27  1  0
 27 28  2  0
 28 29  1  0
 29 33  1  0
 30 29  2  0
 31 30  1  0
 32 31  1  0
 34 35  1  0
 35 38  1  0
 35 37  1  0
 36 34  2  0
 39 40  1  0
 39 14  1  0
 41 39  1  0
 43 44  1  0
 44 42  1  0
 45 46  1  0
 46 48  1  0
 46 47  1  0
 49 50  2  0
 49 46  1  0
 51 53  1  0
 51 50  1  0
 52 63  2  0
 53 58  1  0
 54 62  1  0
 54 64  1  0
 55 61  1  0
 55 57  1  0
 56 62  1  0
 57 56  1  0
 58 57  2  0
 59 60  1  0
 59 53  2  0
 60 55  2  0
 61 54  1  0
 62 52  1  0
 64 66  2  0
 65 64  1  0
 67 65  1  0
 68 77  2  0
 68 73  1  0
 69 65  1  0
 69 73  1  0
 70 69  1  0
 71 72  1  0
 71 70  1  0
 72 68  1  0
 73 74  2  0
 74 75  1  0
 76 75  2  0
 77 76  1  0
 78 52  1  0
 78 83  1  0
 78 79  1  0
 79 82  1  1
 79 80  1  0
 81 79  1  0
 83 86  1  0
 84 88  1  0
 84 83  1  0
 85 84  2  0
 88 87  1  0
 90 88  1  0
 90 91  1  0
 90 89  1  0
 93 95  1  0
 93 92  1  0
 94 93  1  0
 96 93  1  0
M  ISO  4   4 100  12 100  50 101  51 101
M  END
>  <TORSDO>  (66) 
F 26

>  <SCORE>  (66) 
-11.766

>  <name>  (66) 
67

>  <ligand_id>  (66) 
67

>  <original_smiles>  (66) 
[H]c1c([H])c([H])c2c(c1[H])C([H])([H])C([H])([H])C([H])([H])C2([H])N([H])C(=O)C1([H])N(C(=O)C([H])(N([H])C(=O)C([H])(N([H])C([H])([H])[H])C([H])([H])[H])C(C([H])([H])[H])(C([H])([H])[H])C([H])([H])[H])C([H])([H])c2c([H])c(OC([H])([H])C([H])([H])[N+]([H])([H])C([H])([H])C([H])(C([H])([H])C([H])(N([H])C(=O)N3C([H])([H])C([H])([H])C([H])([H])C([H])(n4nc(-c5c([H])c([H])c(Oc6c([H])c([H])c(F)c([H])c6F)c([H])c5[H])c(C(=O)N([H])[H])c4N([H])[H])C3([H])[H])C([H])([H])C([H])([H])C([H])([H])[H])C([H])([H])[N+]([H])([H])[H])c([H])c([H])c2C1([H])[H]

>  <smiles>  (66) 
[H]c1c([H])c([H])c2c(c1[H])C([H])([H])C([H])([H])C([H])([H])C2([H])N([H])C(=O)C1([H])N(C(=O)C([H])(N([H])C(=O)C([H])(N([H])C([H])([H])[H])C([H])([H])[H])C(C([H])([H])[H])(C([H])([H])[H])C([H])([H])[H])C([H])([H])c2c([H])c(OC([H])([H])C([H])([H])[N+]([H])([H])C([H])([H])C([H])(C([H])([H])C([H])(N([H])C(=O)N3C([H])([H])C([H])([H])C([H])([H])C([H])(n4nc(-c5c([H])c([H])c(Oc6c([H])c([H])c(F)c([H])c6F)c([H])c5[H])c(C(=O)N([H])[H])c4N([H])[H])C3([H])[H])C([H])([H])C([H])([H])C([H])([H])[H])C([H])([H])[N+]([H])([H])[H])c([H])c([H])c2C1([H])[H]

$$$$
68:0:0
     RDKit          3D

 93101  0  0  1  0  0  0  0  0999 V2000
  -28.8240  -22.6730   20.3250 C   0  0  0  0  0  3  0  0  0  0  0  0
  -26.7850  -19.1650   18.1730 C   0  0  0  0  0  3  0  0  0  0  0  0
  -26.5140  -20.5230   18.1090 C   0  0  0  0  0  3  0  0  0  0  0  0
  -27.8460  -18.7090   18.9550 C   0  0  0  0  0  3  0  0  0  0  0  0
  -27.2880  -21.4180   18.8510 C   0  0  0  0  0  3  0  0  0  0  0  0
  -28.7260  -19.5140   19.7320 C   0  0  0  0  0  0  0  0  0  0  0  0
  -28.3820  -21.0910   19.7040 C   0  0  0  0  0  0  0  0  0  0  0  0
  -29.8360  -18.2970   20.3120 C   0  0  0  0  0  2  0  0  0  0  0  0
  -30.4730  -15.3630   20.2350 C   0  0  0  0  0  0  0  0  0  0  0  0
  -30.4670  -12.9100   19.3760 C   0  0  0  0  0  2  0  0  0  0  0  0
  -29.5520  -12.7130   18.1440 C   0  0  0  0  0  2  0  0  0  0  0  0
  -28.1030  -12.4330   18.5810 C   0  0  0  0  0  2  0  0  0  0  0  0
  -27.6510  -13.3950   19.7100 C   0  0  0  0  0  3  0  0  0  0  0  0
  -28.6970  -13.5510   20.8340 C   0  0  0  0  0  2  0  0  0  0  0  0
  -29.9220  -14.0520   20.1970 N   0  0  0  0  0  0  0  0  0  0  0  0
  -31.6970  -15.3760   20.0290 O   0  0  0  0  0  0  0  0  0  0  0  0
  -29.6770  -16.6160   20.3110 N   0  0  0  0  0  0  0  0  0  0  0  0
  -28.7070  -16.3650   20.4300 H   0  0  0  0  0  0  0  0  0  0  0  0
  -25.2800  -13.9500   20.4620 C   0  0  0  0  0  0  0  0  0  0  0  0
  -24.2220  -13.1710   20.8380 C   0  0  0  0  0  0  0  0  0  0  0  0
  -24.6950  -11.8240   20.8170 C   0  0  0  0  0  0  0  0  0  0  0  0
  -26.3270  -13.0770   20.2240 N   0  0  0  0  0  0  0  0  0  0  0  0
  -25.9870  -11.7930   20.5100 N   0  0  0  0  0  0  0  0  0  0  0  0
  -23.9760  -10.5590   21.0110 C   0  0  0  0  0  0  0  0  0  0  0  0
  -24.4110   -9.5980   21.9490 C   0  0  0  0  0  3  0  0  0  0  0  0
  -23.6880   -8.3980   22.1320 C   0  0  0  0  0  3  0  0  0  0  0  0
  -22.5160   -8.1520   21.3760 C   0  0  0  0  0  0  0  0  0  0  0  0
  -22.1030   -9.1020   20.4260 C   0  0  0  0  0  3  0  0  0  0  0  0
  -22.8250  -10.2930   20.2410 C   0  0  0  0  0  3  0  0  0  0  0  0
  -21.7620   -7.0060   21.4690 O   0  0  0  0  0  0  0  0  0  0  0  0
  -21.7140   -6.2710   22.6250 C   0  0  0  0  0  0  0  0  0  0  0  0
  -21.2650   -6.8240   23.8440 C   0  0  0  0  0  3  0  0  0  0  0  0
  -21.1670   -6.0120   24.9920 C   0  0  0  0  0  3  0  0  0  0  0  0
  -21.5070   -4.6480   24.9200 C   0  0  0  0  0  0  0  0  0  0  0  0
  -21.9480   -4.0940   23.7050 C   0  0  0  0  0  3  0  0  0  0  0  0
  -22.0480   -4.9030   22.5610 C   0  0  0  0  0  0  0  0  0  0  0  0
  -22.4530   -4.3620   21.3870 F   0  0  0  0  0  0  0  0  0  0  0  0
  -21.4030   -3.8640   26.0200 F   0  0  0  0  0  0  0  0  0  0  0  0
  -22.8210  -13.6430   21.0960 C   0  0  0  0  0  0  0  0  0  0  0  0
  -22.0950  -12.9490   21.9640 N   0  0  0  0  0  0  0  0  0  0  0  0
  -22.3840  -14.6630   20.5640 O   0  0  0  0  0  0  0  0  0  0  0  0
  -22.4670  -12.1260   22.4120 H   0  0  0  0  0  0  0  0  0  0  0  0
  -21.1550  -13.2440   22.1850 H   0  0  0  0  0  0  0  0  0  0  0  0
  -25.4330  -15.3190   20.2650 N   0  0  0  0  0  0  0  0  0  0  0  0
  -24.6520  -15.9590   20.3380 H   0  0  0  0  0  0  0  0  0  0  0  0
  -26.2440  -15.7380   19.8290 H   0  0  0  0  0  0  0  0  0  0  0  0
  -28.8940  -22.6070   21.8610 C   0  0  0  0  0  2  0  0  0  0  0  0
  -29.7370  -21.5140   22.3700 N   0  0  0  0  0  4  0  0  0  0  0  0
  -29.4230  -20.6430   21.9890 H   0  0  0  0  0  0  0  0  0  0  0  0
  -29.6620  -21.4670   23.3720 H   0  0  0  0  0  0  0  0  0  0  0  0
  -30.7020  -21.6630   22.1300 H   0  0  0  0  0  0  0  0  0  0  0  0
  -28.0010  -24.2820   19.9950 C   0  0  0  0  0  2  0  0  0  0  0  0
  -28.2140  -25.8890   20.3400 O   0  0  0  0  0  0  0  0  0  0  0  0
  -24.5950  -31.8720   23.2420 C   0  0  0  0  0  0  0  0  0  0  0  0
  -27.2120  -26.9950   20.2550 C   0  0  0  0  0  0  0  0  0  0  0  0
  -23.4330  -30.4720   21.5860 C   0  0  0  0  0  3  0  0  0  0  0  0
  -24.9100  -28.8730   20.1820 C   0  0  0  0  0  0  0  0  0  0  0  0
  -26.0010  -30.6850   21.4830 C   0  0  0  0  0  2  0  0  0  0  0  0
  -26.0830  -29.2760   20.8270 C   0  0  0  0  0  0  0  0  0  0  0  0
  -27.2280  -28.3570   20.8420 C   0  0  0  0  0  3  0  0  0  0  0  0
  -26.0070  -26.7510   19.5550 C   0  0  0  0  0  3  0  0  0  0  0  0
  -24.8980  -27.6330   19.5260 C   0  0  0  0  0  3  0  0  0  0  0  0
  -23.6860  -29.7910   20.2120 C   0  0  0  0  0  2  0  0  0  0  0  0
  -24.6970  -31.0380   22.1560 N   0  0  0  0  0  0  0  0  0  0  0  0
  -23.4960  -32.1590   23.7440 O   0  0  0  0  0  0  0  0  0  0  0  0
  -22.7280  -29.4750   22.5430 C   0  0  0  0  0  0  0  0  0  0  0  0
  -21.4010  -29.3100   22.3990 N   0  0  0  0  0  0  0  0  0  0  0  0
  -23.3810  -28.8510   23.3810 O   0  0  0  0  0  0  0  0  0  0  0  0
  -20.9290  -29.8640   21.6970 H   0  0  0  0  0  0  0  0  0  0  0  0
  -18.0090  -28.0980   22.8600 C   0  0  0  0  0  0  0  0  0  0  0  0
  -20.5660  -28.3710   23.1560 C   0  0  0  0  0  3  0  0  0  0  0  0
  -20.6790  -26.9400   22.5820 C   0  0  0  0  0  2  0  0  0  0  0  0
  -19.5880  -26.6150   21.5550 C   0  0  0  0  0  2  0  0  0  0  0  0
  -18.1970  -26.7530   22.1790 C   0  0  0  0  0  2  0  0  0  0  0  0
  -19.1200  -28.8650   23.3040 C   0  0  0  0  0  0  0  0  0  0  0  0
  -18.8870  -30.1220   23.9040 C   0  0  0  0  0  3  0  0  0  0  0  0
  -17.5760  -30.6110   24.0630 C   0  0  0  0  0  3  0  0  0  0  0  0
  -16.4810  -29.8430   23.6330 C   0  0  0  0  0  3  0  0  0  0  0  0
  -16.6980  -28.5890   23.0340 C   0  0  0  0  0  3  0  0  0  0  0  0
  -25.8530  -32.5190   23.8940 C   0  0  0  0  0  3  0  0  0  0  0  0
  -25.5350  -33.9270   24.1940 N   0  0  0  0  0  0  0  0  0  0  0  0
  -25.8900  -34.9750   23.4350 C   0  0  0  0  0  0  0  0  0  0  0  0
  -26.5840  -34.8570   22.4240 O   0  0  0  0  0  0  0  0  0  0  0  0
  -24.9240  -34.0900   24.9790 H   0  0  0  0  0  0  0  0  0  0  0  0
  -24.1840  -36.7830   23.0250 C   0  0  0  0  0  1  0  0  0  0  0  0
  -25.4010  -36.3730   23.8700 C   0  0  0  0  0  3  0  0  0  0  0  0
  -27.5170  -37.2610   24.7490 C   0  0  0  0  0  1  0  0  0  0  0  0
  -26.4430  -37.4200   23.7710 N   0  0  0  0  0  0  0  0  0  0  0  0
  -26.0380  -38.3440   23.8930 H   0  0  0  0  0  0  0  0  0  0  0  0
  -26.3170  -31.7780   25.2090 C   0  0  1  0  0  0  0  0  0  0  0  0
  -25.1840  -31.5780   26.2440 C   0  0  0  0  0  1  0  0  0  0  0  0
  -26.9030  -30.3850   24.8820 C   0  0  0  0  0  1  0  0  0  0  0  0
  -27.4500  -32.5810   25.8890 C   0  0  0  0  0  1  0  0  0  0  0  0
  1 52  1  0
  1 47  1  0
  2  4  1  0
  3  2  2  0
  3  5  1  0
  4  6  2  0
  5  7  2  0
  6  8  1  0
  7  6  1  0
  7  1  1  0
  9 17  1  0
 10 15  1  0
 11 12  1  0
 11 10  1  0
 13 12  1  0
 13 22  1  0
 13 14  1  0
 15  9  1  0
 15 14  1  0
 16  9  2  0
 17  8  1  0
 17 18  1  0
 19 20  2  0
 20 39  1  0
 21 20  1  0
 21 24  1  0
 22 19  1  0
 22 23  1  0
 23 21  2  0
 24 25  1  0
 25 26  2  0
 27 30  1  0
 27 26  1  0
 28 27  2  0
 29 28  1  0
 29 24  2  0
 30 31  1  0
 31 32  1  0
 32 33  2  0
 34 33  1  0
 34 38  1  0
 35 34  2  0
 36 31  2  0
 36 35  1  0
 37 36  1  0
 39 40  1  0
 40 43  1  0
 40 42  1  0
 41 39  2  0
 44 45  1  0
 44 19  1  0
 46 44  1  0
 47 48  1  0
 48 50  1  0
 49 48  1  0
 51 48  1  0
 52 53  1  0
 54 65  2  0
 55 53  1  0
 55 60  1  0
 56 64  1  0
 56 66  1  0
 57 63  1  0
 57 59  1  0
 58 64  1  0
 59 60  2  0
 59 58  1  0
 61 55  2  0
 62 61  1  0
 62 57  2  0
 63 56  1  0
 64 54  1  0
 66 68  2  0
 67 66  1  0
 69 67  1  0
 70 79  2  0
 70 75  1  0
 71 67  1  0
 71 75  1  0
 72 71  1  0
 73 74  1  0
 73 72  1  0
 74 70  1  0
 75 76  2  0
 76 77  1  0
 78 77  2  0
 79 78  1  0
 80 54  1  0
 80 81  1  0
 80 90  1  0
 81 84  1  0
 82 86  1  0
 82 81  1  0
 83 82  2  0
 86 85  1  0
 88 86  1  0
 88 89  1  0
 88 87  1  0
 90 93  1  1
 90 91  1  0
 92 90  1  0
M  ISO  4   9 100  17 100  52 101  53 101
M  END
>  <TORSDO>  (67) 
F 21

>  <SCORE>  (67) 
-16.452

>  <name>  (67) 
68

>  <ligand_id>  (67) 
68

>  <original_smiles>  (67) 
[H]c1c([H])c([H])c(C([H])(C([H])([H])Oc2c([H])c([H])c3c(c2[H])C([H])([H])N(C(=O)C([H])(N([H])C(=O)C([H])(N([H])C([H])([H])[H])C([H])([H])[H])C(C([H])([H])[H])(C([H])([H])[H])C([H])([H])[H])C([H])(C(=O)N([H])C2([H])c4c([H])c([H])c([H])c([H])c4C([H])([H])C([H])([H])C2([H])[H])C3([H])[H])C([H])([H])[N+]([H])([H])[H])c(C([H])([H])N([H])C(=O)N2C([H])([H])C([H])([H])C([H])([H])C([H])(n3nc(-c4c([H])c([H])c(Oc5c([H])c([H])c(F)c([H])c5F)c([H])c4[H])c(C(=O)N([H])[H])c3N([H])[H])C2([H])[H])c1[H]

>  <smiles>  (67) 
[H]c1c([H])c([H])c(C([H])(C([H])([H])Oc2c([H])c([H])c3c(c2[H])C([H])([H])N(C(=O)C([H])(N([H])C(=O)C([H])(N([H])C([H])([H])[H])C([H])([H])[H])C(C([H])([H])[H])(C([H])([H])[H])C([H])([H])[H])C([H])(C(=O)N([H])C2([H])c4c([H])c([H])c([H])c([H])c4C([H])([H])C([H])([H])C2([H])[H])C3([H])[H])C([H])([H])[N+]([H])([H])[H])c(C([H])([H])N([H])C(=O)N2C([H])([H])C([H])([H])C([H])([H])C([H])(n3nc(-c4c([H])c([H])c(Oc5c([H])c([H])c(F)c([H])c5F)c([H])c4[H])c(C(=O)N([H])[H])c3N([H])[H])C2([H])[H])c1[H]

$$$$
69:0:0
     RDKit          3D

 94102  0  0  1  0  0  0  0  0999 V2000
  -28.8440  -21.1050   20.5990 C   0  0  0  0  0  2  0  0  0  0  0  0
  -28.1270  -18.8470   18.2150 C   0  0  0  0  0  2  0  0  0  0  0  0
  -29.5850  -19.1540   17.8440 C   0  0  0  0  0  2  0  0  0  0  0  0
  -28.0010  -18.2120   19.6150 C   0  0  0  0  0  2  0  0  0  0  0  0
  -30.3220  -20.0170   18.9020 C   0  0  0  0  0  2  0  0  0  0  0  0
  -29.2160  -18.4790   20.5430 C   0  0  0  0  0  3  0  0  0  0  0  0
  -29.7570  -19.9010   20.2810 N   0  0  2  0  0  4  0  0  0  0  0  0
  -30.5400  -20.0070   20.9090 H   0  0  0  0  0  0  0  0  0  0  0  0
  -30.2930  -17.2640   20.4960 C   0  0  0  0  0  2  0  0  0  0  0  0
  -30.5820  -14.6870   20.3240 C   0  0  0  0  0  0  0  0  0  0  0  0
  -30.3260  -12.4560   19.2470 C   0  0  0  0  0  2  0  0  0  0  0  0
  -29.3580  -12.5730   18.0490 C   0  0  0  0  0  2  0  0  0  0  0  0
  -27.8970  -12.4060   18.5070 C   0  0  0  0  0  2  0  0  0  0  0  0
  -27.5610  -13.2650   19.7540 C   0  0  0  0  0  3  0  0  0  0  0  0
  -28.6430  -13.1290   20.8490 C   0  0  0  0  0  2  0  0  0  0  0  0
  -29.9320  -13.4800   20.2410 N   0  0  0  0  0  0  0  0  0  0  0  0
  -31.7470  -14.7960   19.9370 O   0  0  0  0  0  0  0  0  0  0  0  0
  -29.8490  -15.8130   20.6380 N   0  0  0  0  0  0  0  0  0  0  0  0
  -28.8980  -15.6510   20.9320 H   0  0  0  0  0  0  0  0  0  0  0  0
  -25.1840  -13.8530   20.5210 C   0  0  0  0  0  0  0  0  0  0  0  0
  -24.1240  -13.0760   20.9040 C   0  0  0  0  0  0  0  0  0  0  0  0
  -24.5860  -11.7260   20.8580 C   0  0  0  0  0  0  0  0  0  0  0  0
  -26.2250  -12.9750   20.2630 N   0  0  0  0  0  0  0  0  0  0  0  0
  -25.8710  -11.6900   20.5270 N   0  0  0  0  0  0  0  0  0  0  0  0
  -23.8650  -10.4620   21.0530 C   0  0  0  0  0  0  0  0  0  0  0  0
  -24.3170   -9.4850   21.9680 C   0  0  0  0  0  3  0  0  0  0  0  0
  -23.5940   -8.2870   22.1510 C   0  0  0  0  0  3  0  0  0  0  0  0
  -22.4050   -8.0560   21.4180 C   0  0  0  0  0  0  0  0  0  0  0  0
  -21.9730   -9.0210   20.4930 C   0  0  0  0  0  3  0  0  0  0  0  0
  -22.6950  -10.2110   20.3070 C   0  0  0  0  0  3  0  0  0  0  0  0
  -21.6500   -6.9120   21.5130 O   0  0  0  0  0  0  0  0  0  0  0  0
  -21.6330   -6.1550   22.6570 C   0  0  0  0  0  0  0  0  0  0  0  0
  -21.2460   -6.6960   23.9030 C   0  0  0  0  0  3  0  0  0  0  0  0
  -21.1760   -5.8650   25.0390 C   0  0  0  0  0  3  0  0  0  0  0  0
  -21.4820   -4.4950   24.9310 C   0  0  0  0  0  0  0  0  0  0  0  0
  -21.8630   -3.9540   23.6900 C   0  0  0  0  0  3  0  0  0  0  0  0
  -21.9360   -4.7820   22.5560 C   0  0  0  0  0  0  0  0  0  0  0  0
  -22.2830   -4.2520   21.3580 F   0  0  0  0  0  0  0  0  0  0  0  0
  -21.4070   -3.6970   26.0210 F   0  0  0  0  0  0  0  0  0  0  0  0
  -22.7310  -13.5510   21.2000 C   0  0  0  0  0  0  0  0  0  0  0  0
  -22.0170  -12.8500   22.0730 N   0  0  0  0  0  0  0  0  0  0  0  0
  -22.2850  -14.5780   20.6900 O   0  0  0  0  0  0  0  0  0  0  0  0
  -22.3870  -12.0170   22.5060 H   0  0  0  0  0  0  0  0  0  0  0  0
  -21.0830  -13.1510   22.3130 H   0  0  0  0  0  0  0  0  0  0  0  0
  -25.3420  -15.2250   20.3480 N   0  0  0  0  0  0  0  0  0  0  0  0
  -24.5770  -15.8760   20.4860 H   0  0  0  0  0  0  0  0  0  0  0  0
  -26.1540  -15.6550   19.9270 H   0  0  0  0  0  0  0  0  0  0  0  0
  -29.5290  -22.5630   20.7880 C   0  0  0  0  0  3  0  0  0  0  0  0
  -30.7360  -21.8650   22.9850 C   0  0  0  0  0  1  0  0  0  0  0  0
  -29.8080  -22.8660   22.2800 C   0  0  0  0  0  2  0  0  0  0  0  0
  -28.2910  -23.5790   18.6990 C   0  0  0  0  0  1  0  0  0  0  0  0
  -28.9900  -23.9010   20.0290 C   0  0  0  0  0  3  0  0  0  0  0  0
  -28.2060  -25.0890   20.7730 C   0  0  0  0  0  2  0  0  0  0  0  0
  -28.3660  -26.4740   20.2530 O   0  0  0  0  0  0  0  0  0  0  0  0
  -24.6130  -31.8810   23.2300 C   0  0  0  0  0  0  0  0  0  0  0  0
  -27.2470  -27.3140   20.2260 C   0  0  0  0  0  0  0  0  0  0  0  0
  -23.4170  -30.4720   21.5900 C   0  0  0  0  0  3  0  0  0  0  0  0
  -24.8780  -28.9130   20.1820 C   0  0  0  0  0  0  0  0  0  0  0  0
  -25.9560  -30.7980   21.4150 C   0  0  0  0  0  2  0  0  0  0  0  0
  -26.0420  -29.4150   20.7780 C   0  0  0  0  0  0  0  0  0  0  0  0
  -27.2330  -28.6280   20.7860 C   0  0  0  0  0  3  0  0  0  0  0  0
  -26.0660  -26.8630   19.6000 C   0  0  0  0  0  3  0  0  0  0  0  0
  -24.8930  -27.6430   19.5810 C   0  0  0  0  0  3  0  0  0  0  0  0
  -23.6390  -29.7860   20.2150 C   0  0  0  0  0  2  0  0  0  0  0  0
  -24.6810  -31.0680   22.1360 N   0  0  0  0  0  0  0  0  0  0  0  0
  -23.5280  -32.1580   23.7600 O   0  0  0  0  0  0  0  0  0  0  0  0
  -22.7540  -29.4600   22.5540 C   0  0  0  0  0  0  0  0  0  0  0  0
  -21.4260  -29.2890   22.4300 N   0  0  0  0  0  0  0  0  0  0  0  0
  -23.4310  -28.8310   23.3710 O   0  0  0  0  0  0  0  0  0  0  0  0
  -20.9400  -29.8500   21.7440 H   0  0  0  0  0  0  0  0  0  0  0  0
  -18.0400  -28.1250   22.9450 C   0  0  0  0  0  0  0  0  0  0  0  0
  -20.6030  -28.3570   23.2020 C   0  0  0  0  0  3  0  0  0  0  0  0
  -20.6880  -26.9270   22.6200 C   0  0  0  0  0  2  0  0  0  0  0  0
  -19.5760  -26.6190   21.6120 C   0  0  0  0  0  2  0  0  0  0  0  0
  -18.2000  -26.7760   22.2640 C   0  0  0  0  0  2  0  0  0  0  0  0
  -19.1680  -28.8730   23.3720 C   0  0  0  0  0  0  0  0  0  0  0  0
  -18.9650  -30.1370   23.9680 C   0  0  0  0  0  3  0  0  0  0  0  0
  -17.6660  -30.6490   24.1450 C   0  0  0  0  0  3  0  0  0  0  0  0
  -16.5520  -29.8960   23.7340 C   0  0  0  0  0  3  0  0  0  0  0  0
  -16.7410  -28.6350   23.1400 C   0  0  0  0  0  3  0  0  0  0  0  0
  -25.8920  -32.5170   23.8560 C   0  0  0  0  0  3  0  0  0  0  0  0
  -25.5790  -33.9130   24.1870 N   0  0  0  0  0  0  0  0  0  0  0  0
  -25.9080  -34.9680   23.4300 C   0  0  0  0  0  0  0  0  0  0  0  0
  -26.5790  -34.8680   22.3980 O   0  0  0  0  0  0  0  0  0  0  0  0
  -24.9840  -34.0650   24.9890 H   0  0  0  0  0  0  0  0  0  0  0  0
  -24.1750  -36.7560   23.0750 C   0  0  0  0  0  1  0  0  0  0  0  0
  -25.4170  -36.3540   23.8890 C   0  0  0  0  0  3  0  0  0  0  0  0
  -27.5480  -37.2430   24.7240 C   0  0  0  0  0  1  0  0  0  0  0  0
  -26.4460  -37.4110   23.7790 N   0  0  0  0  0  0  0  0  0  0  0  0
  -26.0380  -38.3290   23.9280 H   0  0  0  0  0  0  0  0  0  0  0  0
  -26.4080  -31.7460   25.1350 C   0  0  1  0  0  0  0  0  0  0  0  0
  -25.3140  -31.5060   26.2000 C   0  0  0  0  0  1  0  0  0  0  0  0
  -26.9950  -30.3700   24.7430 C   0  0  0  0  0  1  0  0  0  0  0  0
  -27.5560  -32.5430   25.7990 C   0  0  0  0  0  1  0  0  0  0  0  0
  2  4  1  0
  3  2  1  0
  3  5  1  0
  4  6  1  0
  5  7  1  0
  6  9  1  0
  7  6  1  0
  7  1  1  0
  7  8  1  1
  9 18  1  0
 10 18  1  0
 11 16  1  0
 12 13  1  0
 12 11  1  0
 14 13  1  0
 14 23  1  0
 14 15  1  0
 16 10  1  0
 16 15  1  0
 17 10  2  0
 18 19  1  0
 20 21  2  0
 21 40  1  0
 22 21  1  0
 22 25  1  0
 23 20  1  0
 23 24  1  0
 24 22  2  0
 25 26  1  0
 26 27  2  0
 28 31  1  0
 28 27  1  0
 29 28  2  0
 30 29  1  0
 30 25  2  0
 31 32  1  0
 32 33  1  0
 33 34  2  0
 35 34  1  0
 35 39  1  0
 36 35  2  0
 37 32  2  0
 37 36  1  0
 38 37  1  0
 40 41  1  0
 41 44  1  0
 41 43  1  0
 42 40  2  0
 45 46  1  0
 45 20  1  0
 47 45  1  0
 48  1  1  0
 48 50  1  0
 50 49  1  0
 52 51  1  0
 52 53  1  0
 52 48  1  0
 54 53  1  0
 55 66  2  0
 56 54  1  0
 56 61  1  0
 57 65  1  0
 57 67  1  0
 58 64  1  0
 58 60  1  0
 59 65  1  0
 60 61  2  0
 60 59  1  0
 62 56  2  0
 63 62  1  0
 63 58  2  0
 64 57  1  0
 65 55  1  0
 67 69  2  0
 68 67  1  0
 70 68  1  0
 71 80  2  0
 71 76  1  0
 72 68  1  0
 72 76  1  0
 73 72  1  0
 74 75  1  0
 74 73  1  0
 75 71  1  0
 76 77  2  0
 77 78  1  0
 79 78  2  0
 80 79  1  0
 81 55  1  0
 81 82  1  0
 81 91  1  0
 82 85  1  0
 83 87  1  0
 83 82  1  0
 84 83  2  0
 87 86  1  0
 89 87  1  0
 89 90  1  0
 89 88  1  0
 91 94  1  1
 91 92  1  0
 93 91  1  0
M  ISO  4  10 100  18 100  53 101  54 101
M  END
>  <TORSDO>  (68) 
F 22

>  <SCORE>  (68) 
-13.644

>  <name>  (68) 
69

>  <ligand_id>  (68) 
69

>  <original_smiles>  (68) 
[H]c1c([H])c([H])c2c(c1[H])C([H])([H])C([H])([H])C([H])([H])C2([H])N([H])C(=O)C1([H])N(C(=O)C([H])(N([H])C(=O)C([H])(N([H])C([H])([H])[H])C([H])([H])[H])C(C([H])([H])[H])(C([H])([H])[H])C([H])([H])[H])C([H])([H])c2c([H])c(OC([H])([H])C([H])(C([H])([H])[H])C([H])(C([H])([H])C([H])([H])[H])C([H])([H])[N+]3([H])C([H])([H])C([H])([H])C([H])([H])C([H])([H])C3([H])C([H])([H])N([H])C(=O)N3C([H])([H])C([H])([H])C([H])([H])C([H])(n4nc(-c5c([H])c([H])c(Oc6c([H])c([H])c(F)c([H])c6F)c([H])c5[H])c(C(=O)N([H])[H])c4N([H])[H])C3([H])[H])c([H])c([H])c2C1([H])[H]

>  <smiles>  (68) 
[H]c1c([H])c([H])c2c(c1[H])C([H])([H])C([H])([H])C([H])([H])C2([H])N([H])C(=O)C1([H])N(C(=O)C([H])(N([H])C(=O)C([H])(N([H])C([H])([H])[H])C([H])([H])[H])C(C([H])([H])[H])(C([H])([H])[H])C([H])([H])[H])C([H])([H])c2c([H])c(OC([H])([H])C([H])(C([H])([H])[H])C([H])(C([H])([H])C([H])([H])[H])C([H])([H])[N+]3([H])C([H])([H])C([H])([H])C([H])([H])C([H])([H])C3([H])C([H])([H])N([H])C(=O)N3C([H])([H])C([H])([H])C([H])([H])C([H])(n4nc(-c5c([H])c([H])c(Oc6c([H])c([H])c(F)c([H])c6F)c([H])c5[H])c(C(=O)N([H])[H])c4N([H])[H])C3([H])[H])c([H])c([H])c2C1([H])[H]

$$$$
70:0:0
     RDKit          3D

 96104  0  0  1  0  0  0  0  0999 V2000
  -30.4610  -17.9340   19.6050 C   0  0  0  0  0  3  0  0  0  0  0  0
  -31.1050  -15.0420   19.4840 C   0  0  0  0  0  0  0  0  0  0  0  0
  -31.0540  -12.5050   18.9520 C   0  0  0  0  0  2  0  0  0  0  0  0
  -30.0680  -12.1190   17.8200 C   0  0  0  0  0  2  0  0  0  0  0  0
  -28.6470  -11.9230   18.3750 C   0  0  0  0  0  2  0  0  0  0  0  0
  -28.2480  -13.0440   19.3660 C   0  0  0  0  0  3  0  0  0  0  0  0
  -29.3520  -13.3470   20.3950 C   0  0  0  0  0  2  0  0  0  0  0  0
  -30.5370  -13.7490   19.6220 N   0  0  0  0  0  0  0  0  0  0  0  0
  -32.3280  -15.0230   19.2890 O   0  0  0  0  0  0  0  0  0  0  0  0
  -30.3200  -16.2900   19.3590 N   0  0  0  0  0  0  0  0  0  0  0  0
  -29.3390  -16.0540   19.3380 H   0  0  0  0  0  0  0  0  0  0  0  0
  -26.0030  -13.7480   20.3470 C   0  0  0  0  0  0  0  0  0  0  0  0
  -24.9220  -13.0380   20.7830 C   0  0  0  0  0  0  0  0  0  0  0  0
  -25.2840  -11.6590   20.6760 C   0  0  0  0  0  0  0  0  0  0  0  0
  -26.9530  -12.8090   19.9880 N   0  0  0  0  0  0  0  0  0  0  0  0
  -26.5400  -11.5430   20.2570 N   0  0  0  0  0  0  0  0  0  0  0  0
  -24.4850  -10.4460   20.8910 C   0  0  0  0  0  0  0  0  0  0  0  0
  -24.8060   -9.5200   21.9070 C   0  0  0  0  0  3  0  0  0  0  0  0
  -24.0060   -8.3740   22.1100 C   0  0  0  0  0  3  0  0  0  0  0  0
  -22.8740   -8.1460   21.2930 C   0  0  0  0  0  0  0  0  0  0  0  0
  -22.5720   -9.0580   20.2680 C   0  0  0  0  0  3  0  0  0  0  0  0
  -23.3710  -10.1960   20.0650 C   0  0  0  0  0  3  0  0  0  0  0  0
  -22.0550   -7.0460   21.3990 O   0  0  0  0  0  0  0  0  0  0  0  0
  -21.7670   -6.4780   22.6140 C   0  0  0  0  0  0  0  0  0  0  0  0
  -21.1900   -7.2210   23.6660 C   0  0  0  0  0  3  0  0  0  0  0  0
  -20.8450   -6.5820   24.8730 C   0  0  0  0  0  3  0  0  0  0  0  0
  -21.0680   -5.2000   25.0270 C   0  0  0  0  0  0  0  0  0  0  0  0
  -21.6390   -4.4580   23.9790 C   0  0  0  0  0  3  0  0  0  0  0  0
  -21.9840   -5.0940   22.7740 C   0  0  0  0  0  0  0  0  0  0  0  0
  -22.5140   -4.3710   21.7590 F   0  0  0  0  0  0  0  0  0  0  0  0
  -20.7310   -4.5840   26.1850 F   0  0  0  0  0  0  0  0  0  0  0  0
  -23.5900  -13.6030   21.1800 C   0  0  0  0  0  0  0  0  0  0  0  0
  -22.9210  -12.9750   22.1410 N   0  0  0  0  0  0  0  0  0  0  0  0
  -23.1560  -14.6350   20.6700 O   0  0  0  0  0  0  0  0  0  0  0  0
  -23.2900  -12.1400   22.5720 H   0  0  0  0  0  0  0  0  0  0  0  0
  -22.0310  -13.3350   22.4530 H   0  0  0  0  0  0  0  0  0  0  0  0
  -26.2470  -15.1110   20.2000 N   0  0  0  0  0  0  0  0  0  0  0  0
  -25.5460  -15.8080   20.4250 H   0  0  0  0  0  0  0  0  0  0  0  0
  -27.1120  -15.5160   19.8680 H   0  0  0  0  0  0  0  0  0  0  0  0
  -29.2630  -19.2610   19.8880 C   0  0  0  0  0  2  0  0  0  0  0  0
  -30.9590  -21.2550   20.3270 C   0  0  0  0  0  1  0  0  0  0  0  0
  -29.4470  -20.9830   20.4120 C   0  0  0  0  0  3  0  0  0  0  0  0
  -28.7100  -22.5640   19.9220 C   0  0  0  0  0  2  0  0  0  0  0  0
  -28.3650  -23.8980   20.8020 N   0  0  0  0  0  0  0  0  0  0  0  0
  -28.8850  -23.8340   21.6740 H   0  0  0  0  0  0  0  0  0  0  0  0
  -28.6120  -25.4890   20.2830 O   0  0  0  0  0  0  0  0  0  0  0  0
  -24.8900  -31.3820   23.3020 C   0  0  0  0  0  0  0  0  0  0  0  0
  -27.5660  -26.5470   20.3320 C   0  0  0  0  0  0  0  0  0  0  0  0
  -23.7650  -30.0160   21.5900 C   0  0  0  0  0  3  0  0  0  0  0  0
  -25.2680  -28.4220   20.2170 C   0  0  0  0  0  0  0  0  0  0  0  0
  -26.3350  -30.2200   21.5590 C   0  0  0  0  0  2  0  0  0  0  0  0
  -26.4290  -28.8160   20.8960 C   0  0  0  0  0  0  0  0  0  0  0  0
  -27.5730  -27.8990   20.9320 C   0  0  0  0  0  3  0  0  0  0  0  0
  -26.3800  -26.3010   19.6100 C   0  0  0  0  0  3  0  0  0  0  0  0
  -25.2660  -27.1800   19.5590 C   0  0  0  0  0  3  0  0  0  0  0  0
  -24.0570  -29.3530   20.2160 C   0  0  0  0  0  2  0  0  0  0  0  0
  -25.0150  -30.5650   22.2060 N   0  0  0  0  0  0  0  0  0  0  0  0
  -23.7790  -31.6680   23.7780 O   0  0  0  0  0  0  0  0  0  0  0  0
  -23.0250  -29.0070   22.5090 C   0  0  0  0  0  0  0  0  0  0  0  0
  -21.7180  -28.7950   22.2750 N   0  0  0  0  0  0  0  0  0  0  0  0
  -23.6380  -28.4160   23.4020 O   0  0  0  0  0  0  0  0  0  0  0  0
  -21.2740  -29.3320   21.5420 H   0  0  0  0  0  0  0  0  0  0  0  0
  -18.3760  -27.3890   22.4390 C   0  0  0  0  0  0  0  0  0  0  0  0
  -20.8650  -27.8370   22.9880 C   0  0  0  0  0  3  0  0  0  0  0  0
  -21.1220  -26.3930   22.4990 C   0  0  0  0  0  2  0  0  0  0  0  0
  -20.1710  -25.9550   21.3810 C   0  0  0  0  0  2  0  0  0  0  0  0
  -18.7160  -26.0310   21.8500 C   0  0  0  0  0  2  0  0  0  0  0  0
  -19.3860  -28.2440   22.9580 C   0  0  0  0  0  0  0  0  0  0  0  0
  -19.0170  -29.5070   23.4690 C   0  0  0  0  0  3  0  0  0  0  0  0
  -17.6730  -29.9220   23.4610 C   0  0  0  0  0  3  0  0  0  0  0  0
  -16.6770  -29.0680   22.9570 C   0  0  0  0  0  3  0  0  0  0  0  0
  -17.0280  -27.8040   22.4510 C   0  0  0  0  0  3  0  0  0  0  0  0
  -26.1330  -32.0100   23.9980 C   0  0  0  0  0  3  0  0  0  0  0  0
  -25.8220  -33.4170   24.3050 N   0  0  0  0  0  0  0  0  0  0  0  0
  -26.2670  -34.4720   23.6080 C   0  0  0  0  0  0  0  0  0  0  0  0
  -27.0430  -34.3590   22.6560 O   0  0  0  0  0  0  0  0  0  0  0  0
  -25.1470  -33.5810   25.0380 H   0  0  0  0  0  0  0  0  0  0  0  0
  -24.6530  -36.3350   23.0880 C   0  0  0  0  0  1  0  0  0  0  0  0
  -25.7750  -35.8720   24.0330 C   0  0  0  0  0  3  0  0  0  0  0  0
  -27.8370  -36.6560   25.1100 C   0  0  0  0  0  1  0  0  0  0  0  0
  -26.8480  -36.8890   24.0630 N   0  0  0  0  0  0  0  0  0  0  0  0
  -26.4600  -37.8200   24.1940 H   0  0  0  0  0  0  0  0  0  0  0  0
  -26.5520  -31.2480   25.3170 C   0  0  1  0  0  0  0  0  0  0  0  0
  -25.3820  -31.0270   26.3050 C   0  0  0  0  0  1  0  0  0  0  0  0
  -27.1550  -29.8630   24.9870 C   0  0  0  0  0  1  0  0  0  0  0  0
  -27.6570  -32.0440   26.0520 C   0  0  0  0  0  1  0  0  0  0  0  0
  -31.4730  -18.0430   20.7830 C   0  0  0  0  0  3  0  0  0  0  0  0
  -31.3220  -16.8690   21.5580 O   0  0  0  0  0  0  0  0  0  0  0  0
  -31.8760  -16.9590   22.3290 H   0  0  0  0  0  0  0  0  0  0  0  0
  -32.9810  -18.1590   20.4460 C   0  0  0  0  0  2  0  0  0  0  0  0
  -34.5860  -17.7010   16.3490 C   0  0  0  0  0  2  0  0  0  0  0  0
  -33.0710  -17.5530   16.5740 C   0  0  0  0  0  2  0  0  0  0  0  0
  -35.3870  -17.1500   17.5390 C   0  0  0  0  0  2  0  0  0  0  0  0
  -32.6310  -18.1870   17.9040 C   0  0  0  0  0  2  0  0  0  0  0  0
  -34.9260  -17.7760   18.8650 C   0  0  0  0  0  2  0  0  0  0  0  0
  -33.4130  -17.5790   19.0830 C   0  0  0  0  0  3  0  0  0  0  0  0
  1 40  1  0
  1 87  1  0
  2  8  1  0
  3  8  1  0
  4  5  1  0
  4  3  1  0
  6  5  1  0
  6 15  1  0
  6  7  1  0
  8  7  1  0
  9  2  2  0
 10  2  1  0
 10  1  1  0
 11 10  1  0
 12 13  2  0
 13 32  1  0
 14 13  1  0
 14 17  1  0
 15 16  1  0
 15 12  1  0
 16 14  2  0
 17 18  1  0
 18 19  2  0
 20 23  1  0
 20 19  1  0
 21 20  2  0
 22 21  1  0
 22 17  2  0
 23 24  1  0
 24 29  2  0
 24 25  1  0
 25 26  2  0
 26 27  1  0
 27 31  1  0
 28 27  2  0
 29 28  1  0
 30 29  1  0
 32 33  1  0
 33 36  1  0
 33 35  1  0
 34 32  2  0
 37 12  1  0
 37 38  1  0
 39 37  1  0
 40 42  1  0
 42 41  1  0
 43 42  1  0
 43 44  1  0
 44 45  1  0
 46 48  1  0
 46 44  1  0
 47 58  2  0
 48 53  1  0
 49 57  1  0
 49 59  1  0
 50 52  1  0
 51 57  1  0
 52 53  2  0
 52 51  1  0
 54 48  2  0
 55 54  1  0
 55 50  2  0
 56 50  1  0
 56 49  1  0
 57 47  1  0
 59 61  2  0
 60 59  1  0
 62 60  1  0
 63 72  2  0
 63 68  1  0
 64 60  1  0
 65 64  1  0
 66 67  1  0
 66 65  1  0
 67 63  1  0
 68 64  1  0
 68 69  2  0
 70 69  1  0
 71 70  2  0
 72 71  1  0
 73 47  1  0
 73 74  1  0
 73 83  1  0
 74 77  1  0
 75 79  1  0
 75 74  1  0
 76 75  2  0
 79 78  1  0
 79 81  1  0
 81 82  1  0
 81 80  1  0
 83 86  1  1
 83 84  1  0
 85 83  1  0
 87 90  1  0
 87 88  1  0
 88 89  1  0
 91 92  1  0
 91 93  1  0
 92 94  1  0
 93 95  1  0
 94 96  1  0
 95 96  1  0
 96 90  1  0
M  ISO  4   2 100  10 100  44 101  46 101
M  END
>  <TORSDO>  (69) 
F 24

>  <SCORE>  (69) 
-12.326

>  <name>  (69) 
70

>  <ligand_id>  (69) 
70

>  <original_smiles>  (69) 
[H]OC([H])(C([H])([H])C1([H])C([H])([H])C([H])([H])C([H])([H])C([H])([H])C1([H])[H])C([H])(N([H])C(=O)N1C([H])([H])C([H])([H])C([H])([H])C([H])(n2nc(-c3c([H])c([H])c(Oc4c([H])c([H])c(F)c([H])c4F)c([H])c3[H])c(C(=O)N([H])[H])c2N([H])[H])C1([H])[H])C([H])([H])C([H])(C([H])([H])[H])C([H])([H])N([H])Oc1c([H])c([H])c2c(c1[H])C([H])([H])N(C(=O)C([H])(N([H])C(=O)C([H])(N([H])C([H])([H])[H])C([H])([H])[H])C(C([H])([H])[H])(C([H])([H])[H])C([H])([H])[H])C([H])(C(=O)N([H])C1([H])c3c([H])c([H])c([H])c([H])c3C([H])([H])C([H])([H])C1([H])[H])C2([H])[H]

>  <smiles>  (69) 
[H]OC([H])(C([H])([H])C1([H])C([H])([H])C([H])([H])C([H])([H])C([H])([H])C1([H])[H])C([H])(N([H])C(=O)N1C([H])([H])C([H])([H])C([H])([H])C([H])(n2nc(-c3c([H])c([H])c(Oc4c([H])c([H])c(F)c([H])c4F)c([H])c3[H])c(C(=O)N([H])[H])c2N([H])[H])C1([H])[H])C([H])([H])C([H])(C([H])([H])[H])C([H])([H])N([H])Oc1c([H])c([H])c2c(c1[H])C([H])([H])N(C(=O)C([H])(N([H])C(=O)C([H])(N([H])C([H])([H])[H])C([H])([H])[H])C(C([H])([H])[H])(C([H])([H])[H])C([H])([H])[H])C([H])(C(=O)N([H])C1([H])c3c([H])c([H])c([H])c([H])c3C([H])([H])C([H])([H])C1([H])[H])C2([H])[H]

$$$$
71:0:0
     RDKit          3D

 87 95  0  0  1  0  0  0  0  0999 V2000
  -28.4030  -21.3220   20.2450 C   0  0  0  0  0  2  0  0  0  0  0  0
  -30.5070  -15.1840   20.2380 C   0  0  0  0  0  0  0  0  0  0  0  0
  -30.3910  -12.7830   19.3440 C   0  0  0  0  0  2  0  0  0  0  0  0
  -29.4500  -12.6340   18.1250 C   0  0  0  0  0  2  0  0  0  0  0  0
  -28.0080  -12.3800   18.5940 C   0  0  0  0  0  2  0  0  0  0  0  0
  -27.5860  -13.3390   19.7380 C   0  0  0  0  0  3  0  0  0  0  0  0
  -28.6540  -13.4630   20.8430 C   0  0  0  0  0  2  0  0  0  0  0  0
  -29.8850  -13.9190   20.1860 N   0  0  0  0  0  0  0  0  0  0  0  0
  -31.7240  -15.1540   20.0100 O   0  0  0  0  0  0  0  0  0  0  0  0
  -29.2130  -17.2560   19.2380 C   0  0  0  0  0  2  0  0  0  0  0  0
  -30.4780  -17.6630   21.1220 C   0  0  0  0  0  2  0  0  0  0  0  0
  -28.5220  -18.7510   19.4030 C   0  0  0  0  0  2  0  0  0  0  0  0
  -29.7730  -19.1530   21.3100 C   0  0  0  0  0  2  0  0  0  0  0  0
  -29.8330  -16.4790   20.3900 N   0  0  0  0  0  0  0  0  0  0  0  0
  -29.2440  -19.9140   20.0970 N   0  0  2  0  0  4  0  0  0  0  0  0
  -30.0400  -20.1270   19.5140 H   0  0  0  0  0  0  0  0  0  0  0  0
  -25.2340  -13.8880   20.5610 C   0  0  0  0  0  0  0  0  0  0  0  0
  -24.1780  -13.1040   20.9350 C   0  0  0  0  0  0  0  0  0  0  0  0
  -24.6450  -11.7550   20.8640 C   0  0  0  0  0  0  0  0  0  0  0  0
  -26.2690  -13.0170   20.2730 N   0  0  0  0  0  0  0  0  0  0  0  0
  -25.9290  -11.7270   20.5240 N   0  0  0  0  0  0  0  0  0  0  0  0
  -23.9230  -10.4880   21.0410 C   0  0  0  0  0  0  0  0  0  0  0  0
  -24.3520   -9.5150   21.9700 C   0  0  0  0  0  3  0  0  0  0  0  0
  -23.6270   -8.3150   22.1380 C   0  0  0  0  0  3  0  0  0  0  0  0
  -22.4580   -8.0810   21.3750 C   0  0  0  0  0  0  0  0  0  0  0  0
  -22.0480   -9.0420   20.4360 C   0  0  0  0  0  3  0  0  0  0  0  0
  -22.7740  -10.2330   20.2660 C   0  0  0  0  0  3  0  0  0  0  0  0
  -21.7030   -6.9350   21.4510 O   0  0  0  0  0  0  0  0  0  0  0  0
  -21.6140   -6.2080   22.6110 C   0  0  0  0  0  0  0  0  0  0  0  0
  -21.1240   -6.7740   23.8090 C   0  0  0  0  0  3  0  0  0  0  0  0
  -20.9830   -5.9730   24.9600 C   0  0  0  0  0  3  0  0  0  0  0  0
  -21.3220   -4.6070   24.9130 C   0  0  0  0  0  0  0  0  0  0  0  0
  -21.8060   -4.0420   23.7200 C   0  0  0  0  0  3  0  0  0  0  0  0
  -21.9480   -4.8390   22.5720 C   0  0  0  0  0  0  0  0  0  0  0  0
  -22.3930   -4.2840   21.4200 F   0  0  0  0  0  0  0  0  0  0  0  0
  -21.1800   -3.8350   26.0170 F   0  0  0  0  0  0  0  0  0  0  0  0
  -22.7870  -13.5760   21.2400 C   0  0  0  0  0  0  0  0  0  0  0  0
  -22.0770  -12.8670   22.1100 N   0  0  0  0  0  0  0  0  0  0  0  0
  -22.3400  -14.6080   20.7430 O   0  0  0  0  0  0  0  0  0  0  0  0
  -22.4530  -12.0330   22.5370 H   0  0  0  0  0  0  0  0  0  0  0  0
  -21.1460  -13.1690   22.3590 H   0  0  0  0  0  0  0  0  0  0  0  0
  -25.3940  -15.2640   20.4130 N   0  0  0  0  0  0  0  0  0  0  0  0
  -24.6320  -15.9150   20.5730 H   0  0  0  0  0  0  0  0  0  0  0  0
  -26.2450  -15.7150   20.1060 H   0  0  0  0  0  0  0  0  0  0  0  0
  -28.9020  -23.0030   20.2450 C   0  0  0  0  0  3  0  0  0  0  0  0
  -27.9120  -24.4510   20.1180 C   0  0  0  0  0  3  0  0  0  0  0  0
  -28.2070  -26.0310   20.2460 O   0  0  0  0  0  0  0  0  0  0  0  0
  -24.6500  -31.8880   23.2520 C   0  0  0  0  0  0  0  0  0  0  0  0
  -27.1840  -27.0860   20.1970 C   0  0  0  0  0  0  0  0  0  0  0  0
  -23.4430  -30.5070   21.6100 C   0  0  0  0  0  3  0  0  0  0  0  0
  -24.8800  -28.9170   20.1750 C   0  0  0  0  0  0  0  0  0  0  0  0
  -26.0060  -30.7310   21.4500 C   0  0  0  0  0  2  0  0  0  0  0  0
  -26.0690  -29.3330   20.7860 C   0  0  0  0  0  0  0  0  0  0  0  0
  -27.2200  -28.4370   20.7740 C   0  0  0  0  0  3  0  0  0  0  0  0
  -25.9630  -26.8000   19.5470 C   0  0  0  0  0  3  0  0  0  0  0  0
  -24.8460  -27.6680   19.5380 C   0  0  0  0  0  3  0  0  0  0  0  0
  -23.6630  -29.8340   20.2280 C   0  0  0  0  0  2  0  0  0  0  0  0
  -24.7210  -31.0670   22.1580 N   0  0  0  0  0  0  0  0  0  0  0  0
  -23.5650  -32.1780   23.7800 O   0  0  0  0  0  0  0  0  0  0  0  0
  -22.7550  -29.5030   22.5700 C   0  0  0  0  0  0  0  0  0  0  0  0
  -21.4250  -29.3370   22.4420 N   0  0  0  0  0  0  0  0  0  0  0  0
  -23.4210  -28.8740   23.3950 O   0  0  0  0  0  0  0  0  0  0  0  0
  -20.9430  -29.8950   21.7520 H   0  0  0  0  0  0  0  0  0  0  0  0
  -18.0410  -28.1350   22.9430 C   0  0  0  0  0  0  0  0  0  0  0  0
  -20.6010  -28.3990   23.2100 C   0  0  0  0  0  3  0  0  0  0  0  0
  -20.7010  -26.9670   22.6340 C   0  0  0  0  0  2  0  0  0  0  0  0
  -19.6000  -26.6460   21.6190 C   0  0  0  0  0  2  0  0  0  0  0  0
  -18.2180  -26.7880   22.2620 C   0  0  0  0  0  2  0  0  0  0  0  0
  -19.1590  -28.8980   23.3740 C   0  0  0  0  0  0  0  0  0  0  0  0
  -18.9370  -30.1560   23.9730 C   0  0  0  0  0  3  0  0  0  0  0  0
  -17.6310  -30.6530   24.1460 C   0  0  0  0  0  3  0  0  0  0  0  0
  -16.5290  -29.8880   23.7280 C   0  0  0  0  0  3  0  0  0  0  0  0
  -16.7340  -28.6310   23.1320 C   0  0  0  0  0  3  0  0  0  0  0  0
  -25.9290  -32.5180   23.8820 C   0  0  0  0  0  3  0  0  0  0  0  0
  -25.6210  -33.9190   24.2190 N   0  0  0  0  0  0  0  0  0  0  0  0
  -25.9290  -34.9760   23.4580 C   0  0  0  0  0  0  0  0  0  0  0  0
  -26.5680  -34.8770   22.4070 O   0  0  0  0  0  0  0  0  0  0  0  0
  -25.0480  -34.0690   25.0370 H   0  0  0  0  0  0  0  0  0  0  0  0
  -24.1770  -36.7640   23.1830 C   0  0  0  0  0  1  0  0  0  0  0  0
  -25.4580  -36.3650   23.9340 C   0  0  0  0  0  3  0  0  0  0  0  0
  -27.6220  -37.2680   24.6640 C   0  0  0  0  0  1  0  0  0  0  0  0
  -26.4780  -37.4240   23.7690 N   0  0  0  0  0  0  0  0  0  0  0  0
  -26.0730  -38.3430   23.9280 H   0  0  0  0  0  0  0  0  0  0  0  0
  -26.4320  -31.7480   25.1660 C   0  0  1  0  0  0  0  0  0  0  0  0
  -25.3310  -31.5220   26.2290 C   0  0  0  0  0  1  0  0  0  0  0  0
  -27.0090  -30.3640   24.7890 C   0  0  0  0  0  1  0  0  0  0  0  0
  -27.5840  -32.5370   25.8320 C   0  0  0  0  0  1  0  0  0  0  0  0
  1 45  1  0
  2 14  1  0
  3  8  1  0
  4  5  1  0
  4  3  1  0
  6  5  1  0
  6 20  1  0
  6  7  1  0
  8  2  1  0
  8  7  1  0
  9  2  2  0
 10 12  1  0
 10 14  1  0
 11 13  1  0
 12 15  1  0
 14 11  1  0
 15  1  1  0
 15 13  1  0
 15 16  1  6
 17 18  2  0
 18 37  1  0
 19 18  1  0
 19 22  1  0
 20 21  1  0
 20 17  1  0
 21 19  2  0
 22 23  1  0
 23 24  2  0
 25 28  1  0
 25 24  1  0
 26 25  2  0
 27 26  1  0
 27 22  2  0
 28 29  1  0
 29 30  1  0
 30 31  2  0
 32 31  1  0
 32 36  1  0
 33 32  2  0
 34 29  2  0
 34 33  1  0
 35 34  1  0
 37 38  1  0
 38 41  1  0
 38 40  1  0
 39 37  2  0
 42 17  1  0
 42 43  1  0
 44 42  1  0
 46 45  2  0
 46 47  1  0
 48 59  2  0
 49 47  1  0
 49 54  1  0
 50 58  1  0
 50 60  1  0
 51 57  1  0
 51 53  1  0
 52 58  1  0
 53 52  1  0
 54 53  2  0
 55 49  2  0
 56 55  1  0
 56 51  2  0
 57 50  1  0
 58 48  1  0
 60 62  2  0
 61 60  1  0
 63 61  1  0
 64 73  2  0
 64 69  1  0
 65 61  1  0
 65 69  1  0
 66 65  1  0
 67 68  1  0
 67 66  1  0
 68 64  1  0
 69 70  2  0
 70 71  1  0
 72 71  2  0
 73 72  1  0
 74 48  1  0
 74 75  1  0
 74 84  1  0
 75 78  1  0
 76 80  1  0
 76 75  1  0
 77 76  2  0
 80 79  1  0
 82 83  1  0
 82 80  1  0
 82 81  1  0
 84 87  1  1
 84 85  1  0
 86 84  1  0
M  ISO  4   2 100  14 100  46 101  47 101
M  END
>  <TORSDO>  (70) 
F 18

>  <SCORE>  (70) 
-15.663

>  <name>  (70) 
71

>  <ligand_id>  (70) 
71

>  <original_smiles>  (70) 
[H]c1c([H])c([H])c2c(c1[H])C([H])([H])C([H])([H])C([H])([H])C2([H])N([H])C(=O)C1([H])N(C(=O)C([H])(N([H])C(=O)C([H])(N([H])C([H])([H])[H])C([H])([H])[H])C(C([H])([H])[H])(C([H])([H])[H])C([H])([H])[H])C([H])([H])c2c([H])c(OC([H])([H])C([H])([H])C([H])([H])[N+]3([H])C([H])([H])C([H])([H])N(C(=O)N4C([H])([H])C([H])([H])C([H])([H])C([H])(n5nc(-c6c([H])c([H])c(Oc7c([H])c([H])c(F)c([H])c7F)c([H])c6[H])c(C(=O)N([H])[H])c5N([H])[H])C4([H])[H])C([H])([H])C3([H])[H])c([H])c([H])c2C1([H])[H]

>  <smiles>  (70) 
[H]c1c([H])c([H])c2c(c1[H])C([H])([H])C([H])([H])C([H])([H])C2([H])N([H])C(=O)C1([H])N(C(=O)C([H])(N([H])C(=O)C([H])(N([H])C([H])([H])[H])C([H])([H])[H])C(C([H])([H])[H])(C([H])([H])[H])C([H])([H])[H])C([H])([H])c2c([H])c(OC([H])([H])C([H])([H])C([H])([H])[N+]3([H])C([H])([H])C([H])([H])N(C(=O)N4C([H])([H])C([H])([H])C([H])([H])C([H])(n5nc(-c6c([H])c([H])c(Oc7c([H])c([H])c(F)c([H])c7F)c([H])c6[H])c(C(=O)N([H])[H])c5N([H])[H])C4([H])[H])C([H])([H])C3([H])[H])c([H])c([H])c2C1([H])[H]

$$$$
72:0:0
     RDKit          3D

 88 95  0  0  1  0  0  0  0  0999 V2000
  -30.0400  -16.4620   20.2340 C   0  0  0  0  0  0  0  0  0  0  0  0
  -30.3410  -13.7360   19.4710 C   0  0  0  0  0  2  0  0  0  0  0  0
  -29.5840  -12.9270   18.3530 C   0  0  0  0  0  2  0  0  0  0  0  0
  -28.2200  -12.4080   18.8170 C   0  0  0  0  0  2  0  0  0  0  0  0
  -27.5770  -13.4450   19.7520 C   0  0  0  0  0  3  0  0  0  0  0  0
  -28.5250  -14.1210   20.8000 C   0  0  0  0  0  2  0  0  0  0  0  0
  -29.5570  -14.9830   20.0820 N   0  0  0  0  0  0  0  0  0  0  0  0
  -31.2790  -16.1990   20.2730 O   0  0  0  0  0  0  0  0  0  0  0  0
  -27.9370  -21.1150   19.6200 C   0  0  0  0  0  2  0  0  0  0  0  0
  -29.7210  -21.5220   20.4740 C   0  0  0  0  0  2  0  0  0  0  0  0
  -28.2000  -19.2310   19.9110 C   0  0  0  0  0  2  0  0  0  0  0  0
  -30.0110  -19.6510   20.7740 C   0  0  0  0  0  2  0  0  0  0  0  0
  -28.3370  -22.7610   20.3940 C   0  0  0  0  0  3  0  0  0  0  0  0
  -29.4660  -18.1250   20.2360 N   0  0  0  0  0  0  0  0  0  0  0  0
  -25.2080  -13.8750   20.4940 C   0  0  0  0  0  0  0  0  0  0  0  0
  -24.1620  -13.0750   20.8430 C   0  0  0  0  0  0  0  0  0  0  0  0
  -24.6590  -11.7330   20.8250 C   0  0  0  0  0  0  0  0  0  0  0  0
  -26.2790  -13.0360   20.2780 N   0  0  0  0  0  0  0  0  0  0  0  0
  -25.9630  -11.7340   20.5360 N   0  0  0  0  0  0  0  0  0  0  0  0
  -23.9420  -10.4600   21.0140 C   0  0  0  0  0  0  0  0  0  0  0  0
  -24.3580   -9.5060   21.9700 C   0  0  0  0  0  3  0  0  0  0  0  0
  -23.6340   -8.3080   22.1470 C   0  0  0  0  0  3  0  0  0  0  0  0
  -22.4770   -8.0520   21.3720 C   0  0  0  0  0  0  0  0  0  0  0  0
  -22.0800   -8.9910   20.4040 C   0  0  0  0  0  3  0  0  0  0  0  0
  -22.8050  -10.1820   20.2250 C   0  0  0  0  0  3  0  0  0  0  0  0
  -21.7260   -6.9030   21.4580 O   0  0  0  0  0  0  0  0  0  0  0  0
  -21.6420   -6.1780   22.6190 C   0  0  0  0  0  0  0  0  0  0  0  0
  -21.1770   -6.7530   23.8230 C   0  0  0  0  0  3  0  0  0  0  0  0
  -21.0500   -5.9570   24.9800 C   0  0  0  0  0  3  0  0  0  0  0  0
  -21.3720   -4.5880   24.9310 C   0  0  0  0  0  0  0  0  0  0  0  0
  -21.8270   -4.0120   23.7310 C   0  0  0  0  0  3  0  0  0  0  0  0
  -21.9580   -4.8050   22.5780 C   0  0  0  0  0  0  0  0  0  0  0  0
  -22.3790   -4.2430   21.4180 F   0  0  0  0  0  0  0  0  0  0  0  0
  -21.2400   -3.8170   26.0370 F   0  0  0  0  0  0  0  0  0  0  0  0
  -22.7500  -13.5270   21.0730 C   0  0  0  0  0  0  0  0  0  0  0  0
  -22.0190  -12.8390   21.9390 N   0  0  0  0  0  0  0  0  0  0  0  0
  -22.3090  -14.5340   20.5170 O   0  0  0  0  0  0  0  0  0  0  0  0
  -22.3960  -12.0260   22.4090 H   0  0  0  0  0  0  0  0  0  0  0  0
  -21.0690  -13.1160   22.1400 H   0  0  0  0  0  0  0  0  0  0  0  0
  -25.3440  -15.2470   20.3010 N   0  0  0  0  0  0  0  0  0  0  0  0
  -24.5610  -15.8890   20.3800 H   0  0  0  0  0  0  0  0  0  0  0  0
  -26.1970  -15.6890   19.9840 H   0  0  0  0  0  0  0  0  0  0  0  0
  -28.1750  -24.7910   20.1270 O   0  0  0  0  0  1  0  0  0  0  0  0
  -24.7380  -31.7780   22.9910 C   0  0  0  0  0  0  0  0  0  0  0  0
  -27.2350  -26.2230   20.1370 C   0  0  0  0  0  0  0  0  0  0  0  0
  -23.5730  -30.3560   21.3640 C   0  0  0  0  0  3  0  0  0  0  0  0
  -25.0250  -28.5810   20.0250 C   0  0  0  0  0  0  0  0  0  0  0  0
  -26.1730  -30.3390   21.3230 C   0  0  0  0  0  2  0  0  0  0  0  0
  -26.2280  -28.8450   20.6830 C   0  0  0  0  0  0  0  0  0  0  0  0
  -27.2970  -27.7180   20.6790 C   0  0  0  0  0  3  0  0  0  0  0  0
  -25.9950  -26.3040   19.4010 C   0  0  0  0  0  3  0  0  0  0  0  0
  -24.9790  -27.3420   19.3540 C   0  0  0  0  0  3  0  0  0  0  0  0
  -23.8470  -29.5980   20.0260 C   0  0  0  0  0  2  0  0  0  0  0  0
  -24.8570  -30.8720   21.9430 N   0  0  0  0  0  0  0  0  0  0  0  0
  -23.6350  -32.1100   23.4640 O   0  0  0  0  0  0  0  0  0  0  0  0
  -22.7930  -29.4450   22.3590 C   0  0  0  0  0  0  0  0  0  0  0  0
  -21.4510  -29.3540   22.2550 N   0  0  0  0  0  0  0  0  0  0  0  0
  -23.4230  -28.8070   23.2020 O   0  0  0  0  0  0  0  0  0  0  0  0
  -20.9840  -29.9180   21.5580 H   0  0  0  0  0  0  0  0  0  0  0  0
  -18.0220  -28.2740   22.8660 C   0  0  0  0  0  0  0  0  0  0  0  0
  -20.6010  -28.4440   23.0390 C   0  0  0  0  0  3  0  0  0  0  0  0
  -20.6250  -27.0180   22.4410 C   0  0  0  0  0  2  0  0  0  0  0  0
  -19.4780  -26.7590   21.4570 C   0  0  0  0  0  2  0  0  0  0  0  0
  -18.1240  -26.9390   22.1470 C   0  0  0  0  0  2  0  0  0  0  0  0
  -19.1830  -28.9880   23.2710 C   0  0  0  0  0  0  0  0  0  0  0  0
  -19.0240  -30.2340   23.9170 C   0  0  0  0  0  3  0  0  0  0  0  0
  -17.7430  -30.7690   24.1500 C   0  0  0  0  0  3  0  0  0  0  0  0
  -16.5990  -30.0520   23.7590 C   0  0  0  0  0  3  0  0  0  0  0  0
  -16.7400  -28.8060   23.1220 C   0  0  0  0  0  3  0  0  0  0  0  0
  -25.9780  -32.4530   23.6520 C   0  0  0  0  0  3  0  0  0  0  0  0
  -26.4840  -31.6870   24.9370 C   0  0  1  0  0  0  0  0  0  0  0  0
  -25.3830  -31.4430   25.9960 C   0  0  0  0  0  1  0  0  0  0  0  0
  -27.0790  -30.3110   24.5750 C   0  0  0  0  0  1  0  0  0  0  0  0
  -27.6260  -32.4870   25.6070 C   0  0  0  0  0  1  0  0  0  0  0  0
  -25.6250  -33.8430   24.0320 N   0  0  0  0  0  0  0  0  0  0  0  0
  -25.9420  -34.9490   23.3410 C   0  0  0  0  0  0  0  0  0  0  0  0
  -26.6030  -34.9060   22.3020 O   0  0  0  0  0  0  0  0  0  0  0  0
  -25.0320  -33.9430   24.8410 H   0  0  0  0  0  0  0  0  0  0  0  0
  -24.1960  -36.7550   23.1220 C   0  0  0  0  0  1  0  0  0  0  0  0
  -25.4540  -36.3110   23.8840 C   0  0  0  0  0  3  0  0  0  0  0  0
  -27.5870  -37.1960   24.7240 C   0  0  0  0  0  1  0  0  0  0  0  0
  -26.4730  -37.3800   23.8000 N   0  0  0  0  0  0  0  0  0  0  0  0
  -26.0560  -38.2890   23.9750 H   0  0  0  0  0  0  0  0  0  0  0  0
  -27.7480  -22.7600   21.8440 C   0  0  0  0  0  2  0  0  0  0  0  0
  -28.0960  -23.9800   22.6130 N   0  0  0  0  0  4  0  0  0  0  0  0
  -27.6990  -24.7750   22.1440 H   0  0  0  0  0  0  0  0  0  0  0  0
  -29.0910  -24.1180   22.6620 H   0  0  0  0  0  0  0  0  0  0  0  0
  -27.7370  -23.9430   23.5540 H   0  0  0  0  0  0  0  0  0  0  0  0
  1 14  1  0
  1  8  2  0
  2  7  1  0
  3  4  1  0
  3  2  1  0
  5  4  1  0
  5 18  1  0
  5  6  1  0
  7  1  1  0
  7  6  1  0
  9 11  1  0
  9 13  1  0
 10 12  1  0
 11 14  1  0
 13 10  1  0
 13 84  1  0
 14 12  1  0
 15 16  2  0
 16 35  1  0
 17 16  1  0
 17 20  1  0
 18 15  1  0
 18 19  1  0
 19 17  2  0
 20 21  1  0
 21 22  2  0
 23 26  1  0
 23 22  1  0
 24 23  2  0
 25 24  1  0
 25 20  2  0
 26 27  1  0
 27 28  1  0
 28 29  2  0
 30 29  1  0
 30 34  1  0
 31 30  2  0
 32 27  2  0
 32 31  1  0
 33 32  1  0
 35 36  1  0
 36 39  1  0
 36 38  1  0
 37 35  2  0
 40 41  1  0
 40 15  1  0
 42 40  1  0
 43 45  1  0
 44 55  2  0
 45 50  1  0
 46 54  1  0
 46 56  1  0
 47 53  1  0
 47 49  1  0
 48 54  1  0
 49 48  1  0
 50 49  2  0
 51 45  2  0
 52 51  1  0
 52 47  2  0
 53 46  1  0
 54 44  1  0
 56 58  2  0
 57 56  1  0
 59 57  1  0
 60 69  2  0
 60 65  1  0
 61 57  1  0
 61 65  1  0
 62 61  1  0
 63 64  1  0
 63 62  1  0
 64 60  1  0
 65 66  2  0
 66 67  1  0
 68 67  2  0
 69 68  1  0
 70 44  1  0
 70 75  1  0
 70 71  1  0
 71 74  1  1
 71 72  1  0
 73 71  1  0
 75 78  1  0
 76 80  1  0
 76 75  1  0
 77 76  2  0
 80 79  1  0
 82 80  1  0
 82 83  1  0
 82 81  1  0
 84 85  1  0
 85 87  1  0
 85 88  1  0
 86 85  1  0
M  ISO  4   1 100  13 101  14 100  43 101
M  END
>  <TORSDO>  (71) 
F 17

>  <SCORE>  (71) 
-15.812

>  <name>  (71) 
72

>  <ligand_id>  (71) 
72

>  <original_smiles>  (71) 
[H]c1c([H])c([H])c2c(c1[H])C([H])([H])C([H])([H])C([H])([H])C2([H])N([H])C(=O)C1([H])N(C(=O)C([H])(N([H])C(=O)C([H])(N([H])C([H])([H])[H])C([H])([H])[H])C(C([H])([H])[H])(C([H])([H])[H])C([H])([H])[H])C([H])([H])c2c([H])c(OC3(C([H])([H])[N+]([H])([H])[H])C([H])([H])C([H])([H])N(C(=O)N4C([H])([H])C([H])([H])C([H])([H])C([H])(n5nc(-c6c([H])c([H])c(Oc7c([H])c([H])c(F)c([H])c7F)c([H])c6[H])c(C(=O)N([H])[H])c5N([H])[H])C4([H])[H])C([H])([H])C3([H])[H])c([H])c([H])c2C1([H])[H]

>  <smiles>  (71) 
[H]c1c([H])c([H])c2c(c1[H])C([H])([H])C([H])([H])C([H])([H])C2([H])N([H])C(=O)C1([H])N(C(=O)C([H])(N([H])C(=O)C([H])(N([H])C([H])([H])[H])C([H])([H])[H])C(C([H])([H])[H])(C([H])([H])[H])C([H])([H])[H])C([H])([H])c2c([H])c(OC3(C([H])([H])[N+]([H])([H])[H])C([H])([H])C([H])([H])N(C(=O)N4C([H])([H])C([H])([H])C([H])([H])C([H])(n5nc(-c6c([H])c([H])c(Oc7c([H])c([H])c(F)c([H])c7F)c([H])c6[H])c(C(=O)N([H])[H])c5N([H])[H])C4([H])[H])C([H])([H])C3([H])[H])c([H])c([H])c2C1([H])[H]

$$$$
73:0:0
     RDKit          3D

100108  0  0  1  0  0  0  0  0999 V2000
  -28.8550  -19.5200   21.6030 C   0  0  0  0  0  3  0  0  0  0  0  0
  -30.0020  -19.8000   19.4670 C   0  0  0  0  0  3  0  0  0  0  0  0
  -28.7010  -20.9150   21.6930 C   0  0  0  0  0  3  0  0  0  0  0  0
  -29.8250  -21.1920   19.5410 C   0  0  0  0  0  3  0  0  0  0  0  0
  -29.5190  -18.9670   20.4940 C   0  0  0  0  0  0  0  0  0  0  0  0
  -29.1690  -21.7510   20.6520 C   0  0  0  0  0  0  0  0  0  0  0  0
  -29.7280  -17.4750   20.4070 C   0  0  0  0  0  2  0  0  0  0  0  0
  -30.9550  -16.9590   21.2020 C   0  0  0  0  0  3  0  0  0  0  0  0
  -31.3380  -14.6570   20.1980 C   0  0  0  0  0  0  0  0  0  0  0  0
  -31.0340  -12.4220   19.1960 C   0  0  0  0  0  2  0  0  0  0  0  0
  -30.0650  -12.5290   18.0090 C   0  0  0  0  0  2  0  0  0  0  0  0
  -28.6050  -12.3920   18.4810 C   0  0  0  0  0  2  0  0  0  0  0  0
  -28.2800  -13.3320   19.6720 C   0  0  0  0  0  3  0  0  0  0  0  0
  -29.3610  -13.2110   20.7720 C   0  0  0  0  0  2  0  0  0  0  0  0
  -30.6830  -13.4700   20.1610 N   0  0  0  0  0  0  0  0  0  0  0  0
  -32.2630  -14.9490   19.4300 O   0  0  0  0  0  0  0  0  0  0  0  0
  -30.8960  -15.4940   21.1430 N   0  0  0  0  0  0  0  0  0  0  0  0
  -30.2420  -15.0650   21.7810 H   0  0  0  0  0  0  0  0  0  0  0  0
  -25.9340  -13.9960   20.5220 C   0  0  0  0  0  0  0  0  0  0  0  0
  -24.8560  -13.2410   20.9090 C   0  0  0  0  0  0  0  0  0  0  0  0
  -25.2600  -11.8790   20.7730 C   0  0  0  0  0  0  0  0  0  0  0  0
  -26.9340  -13.0890   20.1920 N   0  0  0  0  0  0  0  0  0  0  0  0
  -26.5300  -11.8100   20.3900 N   0  0  0  0  0  0  0  0  0  0  0  0
  -24.4940  -10.6360   20.9320 C   0  0  0  0  0  0  0  0  0  0  0  0
  -24.8340   -9.6810   21.9150 C   0  0  0  0  0  3  0  0  0  0  0  0
  -24.0700   -8.5040   22.0650 C   0  0  0  0  0  3  0  0  0  0  0  0
  -22.9520   -8.2690   21.2290 C   0  0  0  0  0  0  0  0  0  0  0  0
  -22.6270   -9.2160   20.2400 C   0  0  0  0  0  3  0  0  0  0  0  0
  -23.3920  -10.3860   20.0880 C   0  0  0  0  0  3  0  0  0  0  0  0
  -22.1670   -7.1390   21.2830 O   0  0  0  0  0  0  0  0  0  0  0  0
  -21.8850   -6.5120   22.4720 C   0  0  0  0  0  0  0  0  0  0  0  0
  -21.2160   -7.1750   23.5230 C   0  0  0  0  0  3  0  0  0  0  0  0
  -20.8880   -6.4730   24.7000 C   0  0  0  0  0  3  0  0  0  0  0  0
  -21.2200   -5.1110   24.8260 C   0  0  0  0  0  0  0  0  0  0  0  0
  -21.8840   -4.4490   23.7780 C   0  0  0  0  0  3  0  0  0  0  0  0
  -22.2170   -5.1490   22.6050 C   0  0  0  0  0  0  0  0  0  0  0  0
  -22.8330   -4.5000   21.5870 F   0  0  0  0  0  0  0  0  0  0  0  0
  -20.8980   -4.4360   25.9530 F   0  0  0  0  0  0  0  0  0  0  0  0
  -23.4970  -13.7510   21.2940 C   0  0  0  0  0  0  0  0  0  0  0  0
  -22.8120  -13.0480   22.1880 N   0  0  0  0  0  0  0  0  0  0  0  0
  -23.0620  -14.8090   20.8450 O   0  0  0  0  0  0  0  0  0  0  0  0
  -23.1780  -12.1900   22.5730 H   0  0  0  0  0  0  0  0  0  0  0  0
  -21.9050  -13.3730   22.4920 H   0  0  0  0  0  0  0  0  0  0  0  0
  -26.1430  -15.3690   20.4090 N   0  0  0  0  0  0  0  0  0  0  0  0
  -25.4040  -16.0410   20.5770 H   0  0  0  0  0  0  0  0  0  0  0  0
  -26.9790  -15.7920   20.0290 H   0  0  0  0  0  0  0  0  0  0  0  0
  -32.3210  -17.5320   20.7200 C   0  0  0  0  0  2  0  0  0  0  0  0
  -32.5220  -18.9670   21.0180 N   0  0  0  0  0  4  0  0  0  0  0  0
  -31.6990  -19.5010   20.7940 H   0  0  0  0  0  0  0  0  0  0  0  0
  -33.2840  -19.3310   20.4730 H   0  0  0  0  0  0  0  0  0  0  0  0
  -32.7500  -19.1180   21.9860 H   0  0  0  0  0  0  0  0  0  0  0  0
  -28.9120  -23.2420   20.6720 C   0  0  0  0  0  2  0  0  0  0  0  0
  -28.0640  -23.6390   19.5160 N   0  0  1  0  0  4  0  0  0  0  0  0
  -28.6040  -23.4170   18.6900 H   0  0  0  0  0  0  0  0  0  0  0  0
  -26.8220  -22.8340   19.3830 C   0  0  0  0  0  2  0  0  0  0  0  0
  -24.8040  -22.2410   17.9680 C   0  0  0  0  0  1  0  0  0  0  0  0
  -26.1150  -23.0390   18.0370 C   0  0  0  0  0  2  0  0  0  0  0  0
  -27.8070  -25.0990   19.5150 C   0  0  0  0  0  2  0  0  0  0  0  0
  -28.6710  -25.8500   18.4780 C   0  0  0  0  0  2  0  0  0  0  0  0
  -28.6150  -27.2660   18.6800 O   0  0  0  0  0  0  0  0  0  0  0  0
  -24.4980  -31.2640   22.8460 C   0  0  0  0  0  0  0  0  0  0  0  0
  -27.3750  -27.8500   18.8170 C   0  0  0  0  0  0  0  0  0  0  0  0
  -23.3460  -30.1480   20.9600 C   0  0  0  0  0  3  0  0  0  0  0  0
  -24.8620  -29.0900   19.2050 C   0  0  0  0  0  0  0  0  0  0  0  0
  -25.8220  -30.7580   20.7970 C   0  0  0  0  0  2  0  0  0  0  0  0
  -25.9930  -29.5660   19.8780 C   0  0  0  0  0  0  0  0  0  0  0  0
  -27.2480  -28.9550   19.6860 C   0  0  0  0  0  3  0  0  0  0  0  0
  -26.2240  -27.3920   18.1270 C   0  0  0  0  0  3  0  0  0  0  0  0
  -24.9730  -28.0000   18.3250 C   0  0  0  0  0  3  0  0  0  0  0  0
  -23.5550  -29.8070   19.4590 C   0  0  0  0  0  2  0  0  0  0  0  0
  -24.5750  -30.7260   21.5940 N   0  0  0  0  0  0  0  0  0  0  0  0
  -23.4210  -31.3180   23.4550 O   0  0  0  0  0  0  0  0  0  0  0  0
  -22.8140  -28.8920   21.6890 C   0  0  0  0  0  0  0  0  0  0  0  0
  -21.4920  -28.6640   21.6040 N   0  0  0  0  0  0  0  0  0  0  0  0
  -23.5850  -28.1380   22.2930 O   0  0  0  0  0  0  0  0  0  0  0  0
  -20.9230  -29.3310   21.1010 H   0  0  0  0  0  0  0  0  0  0  0  0
  -18.2190  -27.2130   22.0270 C   0  0  0  0  0  0  0  0  0  0  0  0
  -20.7800  -27.5260   22.1850 C   0  0  0  0  0  3  0  0  0  0  0  0
  -20.8900  -26.2830   21.2740 C   0  0  0  0  0  2  0  0  0  0  0  0
  -19.7220  -26.1510   20.2920 C   0  0  0  0  0  2  0  0  0  0  0  0
  -18.3930  -26.0700   21.0420 C   0  0  0  0  0  2  0  0  0  0  0  0
  -19.3400  -27.9070   22.5540 C   0  0  0  0  0  0  0  0  0  0  0  0
  -19.1210  -28.9890   23.4360 C   0  0  0  0  0  3  0  0  0  0  0  0
  -17.8160  -29.3620   23.8080 C   0  0  0  0  0  3  0  0  0  0  0  0
  -16.7130  -28.6580   23.3010 C   0  0  0  0  0  3  0  0  0  0  0  0
  -16.9130  -27.5890   22.4090 C   0  0  0  0  0  3  0  0  0  0  0  0
  -25.7570  -31.8550   23.5550 C   0  0  0  0  0  3  0  0  0  0  0  0
  -26.1990  -31.0270   24.8210 C   0  0  1  0  0  0  0  0  0  0  0  0
  -25.0510  -30.7500   25.8190 C   0  0  0  0  0  1  0  0  0  0  0  0
  -26.7950  -29.6640   24.4000 C   0  0  0  0  0  1  0  0  0  0  0  0
  -27.3090  -31.7840   25.5850 C   0  0  0  0  0  1  0  0  0  0  0  0
  -25.4410  -33.2420   23.9260 N   0  0  0  0  0  0  0  0  0  0  0  0
  -25.8620  -34.3260   23.2560 C   0  0  0  0  0  0  0  0  0  0  0  0
  -26.6280  -34.2580   22.2910 O   0  0  0  0  0  0  0  0  0  0  0  0
  -24.7780  -33.3730   24.6740 H   0  0  0  0  0  0  0  0  0  0  0  0
  -24.2220  -36.1810   22.8120 C   0  0  0  0  0  1  0  0  0  0  0  0
  -25.3520  -35.6970   23.7340 C   0  0  0  0  0  3  0  0  0  0  0  0
  -27.3990  -36.4700   24.8470 C   0  0  0  0  0  1  0  0  0  0  0  0
  -26.4080  -36.7280   23.8060 N   0  0  0  0  0  0  0  0  0  0  0  0
  -26.0030  -37.6430   23.9820 H   0  0  0  0  0  0  0  0  0  0  0  0
  1  3  1  0
  2  4  2  0
  2  5  1  0
  4  6  1  0
  5  1  2  0
  6 52  1  0
  6  3  2  0
  7  5  1  0
  8  7  1  0
  9 17  1  0
 10 15  1  0
 11 12  1  0
 11 10  1  0
 13 12  1  0
 13 22  1  0
 13 14  1  0
 15  9  1  0
 15 14  1  0
 16  9  2  0
 17  8  1  0
 17 18  1  0
 19 20  2  0
 20 39  1  0
 21 20  1  0
 21 24  1  0
 22 23  1  0
 22 19  1  0
 23 21  2  0
 24 25  1  0
 25 26  2  0
 27 30  1  0
 27 26  1  0
 28 27  2  0
 29 28  1  0
 29 24  2  0
 30 31  1  0
 31 36  2  0
 31 32  1  0
 32 33  2  0
 33 34  1  0
 34 38  1  0
 35 34  2  0
 36 35  1  0
 37 36  1  0
 39 40  1  0
 40 43  1  0
 40 42  1  0
 41 39  2  0
 44 19  1  0
 44 45  1  0
 46 44  1  0
 47 48  1  0
 47  8  1  0
 48 51  1  0
 49 48  1  0
 50 48  1  0
 53 52  1  0
 53 54  1  6
 55 53  1  0
 56 57  1  0
 57 55  1  0
 58 53  1  0
 59 60  1  0
 59 58  1  0
 60 62  1  0
 61 72  2  0
 62 67  1  0
 63 71  1  0
 63 73  1  0
 64 70  1  0
 64 66  1  0
 65 71  1  0
 66 65  1  0
 67 66  2  0
 68 69  1  0
 68 62  2  0
 69 64  2  0
 70 63  1  0
 71 61  1  0
 73 75  2  0
 74 73  1  0
 76 74  1  0
 77 86  2  0
 77 82  1  0
 78 74  1  0
 78 82  1  0
 79 78  1  0
 80 81  1  0
 80 79  1  0
 81 77  1  0
 82 83  2  0
 83 84  1  0
 85 84  2  0
 86 85  1  0
 87 61  1  0
 87 92  1  0
 87 88  1  0
 88 91  1  1
 88 89  1  0
 90 88  1  0
 92 95  1  0
 93 97  1  0
 93 92  1  0
 94 93  2  0
 97 96  1  0
 97 99  1  0
 99100  1  0
 99 98  1  0
M  ISO  4   9 100  17 100  59 101  60 101
M  END
>  <TORSDO>  (72) 
F 26

>  <SCORE>  (72) 
-8.588

>  <name>  (72) 
73

>  <ligand_id>  (72) 
73

>  <original_smiles>  (72) 
[H]c1c([H])c([H])c2c(c1[H])C([H])([H])C([H])([H])C([H])([H])C2([H])N([H])C(=O)C1([H])N(C(=O)C([H])(N([H])C(=O)C([H])(N([H])C([H])([H])[H])C([H])([H])[H])C(C([H])([H])[H])(C([H])([H])[H])C([H])([H])[H])C([H])([H])c2c([H])c(OC([H])([H])C([H])([H])[N+]([H])(C([H])([H])c3c([H])c([H])c(C([H])([H])C([H])(N([H])C(=O)N4C([H])([H])C([H])([H])C([H])([H])C([H])(n5nc(-c6c([H])c([H])c(Oc7c([H])c([H])c(F)c([H])c7F)c([H])c6[H])c(C(=O)N([H])[H])c5N([H])[H])C4([H])[H])C([H])([H])[N+]([H])([H])[H])c([H])c3[H])C([H])([H])C([H])([H])C([H])([H])[H])c([H])c([H])c2C1([H])[H]

>  <smiles>  (72) 
[H]c1c([H])c([H])c2c(c1[H])C([H])([H])C([H])([H])C([H])([H])C2([H])N([H])C(=O)C1([H])N(C(=O)C([H])(N([H])C(=O)C([H])(N([H])C([H])([H])[H])C([H])([H])[H])C(C([H])([H])[H])(C([H])([H])[H])C([H])([H])[H])C([H])([H])c2c([H])c(OC([H])([H])C([H])([H])[N+]([H])(C([H])([H])c3c([H])c([H])c(C([H])([H])C([H])(N([H])C(=O)N4C([H])([H])C([H])([H])C([H])([H])C([H])(n5nc(-c6c([H])c([H])c(Oc7c([H])c([H])c(F)c([H])c7F)c([H])c6[H])c(C(=O)N([H])[H])c5N([H])[H])C4([H])[H])C([H])([H])[N+]([H])([H])[H])c([H])c3[H])C([H])([H])C([H])([H])C([H])([H])[H])c([H])c([H])c2C1([H])[H]

$$$$
75:0:0
     RDKit          3D

 97105  0  0  1  0  0  0  0  0999 V2000
  -30.8160  -22.4030   18.6450 C   0  0  0  0  0  2  0  0  0  0  0  0
  -28.5350  -21.8780   17.6970 C   0  0  0  0  0  2  0  0  0  0  0  0
  -31.4570  -21.6710   17.4490 C   0  0  0  0  0  2  0  0  0  0  0  0
  -29.2150  -21.1450   16.5240 C   0  0  0  0  0  2  0  0  0  0  0  0
  -29.3600  -21.9860   19.0150 C   0  0  2  0  0  0  0  0  0  0  0  0
  -30.5740  -21.6610   16.2640 N   0  0  0  0  0  4  0  0  0  0  0  0
  -31.0070  -21.1000   15.5470 H   0  0  0  0  0  0  0  0  0  0  0  0
  -30.5040  -22.5980   15.8990 H   0  0  0  0  0  0  0  0  0  0  0  0
  -28.7640  -23.3630   19.8150 C   0  0  0  0  0  2  0  0  0  0  0  0
  -28.4620  -24.8550   19.1030 C   0  0  0  0  0  2  0  0  0  0  0  0
  -28.3960  -26.2560   19.7570 O   0  0  0  0  0  0  0  0  0  0  0  0
  -24.6120  -31.6470   22.9720 C   0  0  0  0  0  0  0  0  0  0  0  0
  -27.2890  -27.1750   19.6990 C   0  0  0  0  0  0  0  0  0  0  0  0
  -23.4360  -30.3090   21.2680 C   0  0  0  0  0  3  0  0  0  0  0  0
  -24.9150  -28.8500   19.7610 C   0  0  0  0  0  0  0  0  0  0  0  0
  -25.9830  -30.6460   21.1130 C   0  0  0  0  0  2  0  0  0  0  0  0
  -26.0830  -29.2940   20.3890 C   0  0  0  0  0  0  0  0  0  0  0  0
  -27.2660  -28.4700   20.3460 C   0  0  0  0  0  3  0  0  0  0  0  0
  -26.0870  -26.8250   19.0410 C   0  0  0  0  0  3  0  0  0  0  0  0
  -24.9280  -27.6270   19.0770 C   0  0  0  0  0  3  0  0  0  0  0  0
  -23.6680  -29.7150   19.8540 C   0  0  0  0  0  2  0  0  0  0  0  0
  -24.6960  -30.8840   21.8400 N   0  0  0  0  0  0  0  0  0  0  0  0
  -23.5210  -31.8790   23.5150 O   0  0  0  0  0  0  0  0  0  0  0  0
  -22.7890  -29.2350   22.1760 C   0  0  0  0  0  0  0  0  0  0  0  0
  -21.4590  -29.0680   22.0750 N   0  0  0  0  0  0  0  0  0  0  0  0
  -23.4830  -28.5590   22.9410 O   0  0  0  0  0  0  0  0  0  0  0  0
  -20.9530  -29.6640   21.4350 H   0  0  0  0  0  0  0  0  0  0  0  0
  -18.0870  -27.8690   22.6310 C   0  0  0  0  0  0  0  0  0  0  0  0
  -20.6580  -28.0830   22.8090 C   0  0  0  0  0  3  0  0  0  0  0  0
  -20.7160  -26.6980   22.1230 C   0  0  0  0  0  2  0  0  0  0  0  0
  -19.5680  -26.4650   21.1360 C   0  0  0  0  0  2  0  0  0  0  0  0
  -18.2160  -26.5740   21.8460 C   0  0  0  0  0  2  0  0  0  0  0  0
  -19.2330  -28.5860   23.0690 C   0  0  0  0  0  0  0  0  0  0  0  0
  -19.0550  -29.8010   23.7650 C   0  0  0  0  0  3  0  0  0  0  0  0
  -17.7640  -30.2980   24.0290 C   0  0  0  0  0  3  0  0  0  0  0  0
  -16.6340  -29.5770   23.6070 C   0  0  0  0  0  3  0  0  0  0  0  0
  -16.7960  -28.3660   22.9120 C   0  0  0  0  0  3  0  0  0  0  0  0
  -25.8780  -32.2820   23.6220 C   0  0  0  0  0  3  0  0  0  0  0  0
  -26.4090  -31.4690   24.8680 C   0  0  1  0  0  0  0  0  0  0  0  0
  -25.3200  -31.1580   25.9220 C   0  0  0  0  0  1  0  0  0  0  0  0
  -27.0270  -30.1230   24.4240 C   0  0  0  0  0  1  0  0  0  0  0  0
  -27.5400  -32.2610   25.5650 C   0  0  0  0  0  1  0  0  0  0  0  0
  -25.5340  -33.6550   24.0180 N   0  0  0  0  0  0  0  0  0  0  0  0
  -25.8410  -34.7540   23.3150 C   0  0  0  0  0  0  0  0  0  0  0  0
  -26.5130  -34.7180   22.2810 O   0  0  0  0  0  0  0  0  0  0  0  0
  -24.9380  -33.7570   24.8270 H   0  0  0  0  0  0  0  0  0  0  0  0
  -24.0750  -36.5280   23.0560 C   0  0  0  0  0  1  0  0  0  0  0  0
  -25.3240  -36.1070   23.8440 C   0  0  0  0  0  3  0  0  0  0  0  0
  -27.4330  -37.0010   24.7310 C   0  0  0  0  0  1  0  0  0  0  0  0
  -26.3340  -37.1870   23.7870 N   0  0  0  0  0  0  0  0  0  0  0  0
  -25.9050  -38.0890   23.9780 H   0  0  0  0  0  0  0  0  0  0  0  0
  -29.4170  -20.4660   19.7890 C   0  0  0  0  0  3  0  0  0  0  0  0
  -29.8670  -18.9860   19.0880 C   0  0  0  0  0  2  0  0  0  0  0  0
  -30.6680  -17.7280   19.8460 C   0  0  0  0  0  2  0  0  0  0  0  0
  -31.0980  -15.0360   19.5700 C   0  0  0  0  0  0  0  0  0  0  0  0
  -30.8700  -12.6520   18.7670 C   0  0  0  0  0  2  0  0  0  0  0  0
  -29.8400  -12.5730   17.6170 C   0  0  0  0  0  2  0  0  0  0  0  0
  -28.4120  -12.4200   18.1740 C   0  0  0  0  0  2  0  0  0  0  0  0
  -28.1150  -13.4240   19.3190 C   0  0  0  0  0  3  0  0  0  0  0  0
  -29.2520  -13.4620   20.3610 C   0  0  0  0  0  2  0  0  0  0  0  0
  -30.4810  -13.7940   19.6320 N   0  0  0  0  0  0  0  0  0  0  0  0
  -32.2830  -15.0860   19.2320 O   0  0  0  0  0  0  0  0  0  0  0  0
  -30.3200  -16.2070   19.6990 N   0  0  0  0  0  0  0  0  0  0  0  0
  -29.3470  -15.9930   19.8670 H   0  0  0  0  0  0  0  0  0  0  0  0
  -25.8620  -14.1180   20.3230 C   0  0  0  0  0  0  0  0  0  0  0  0
  -24.7840  -13.3920   20.7490 C   0  0  0  0  0  0  0  0  0  0  0  0
  -25.1440  -12.0180   20.5890 C   0  0  0  0  0  0  0  0  0  0  0  0
  -26.8110  -13.1890   19.9280 N   0  0  0  0  0  0  0  0  0  0  0  0
  -26.3940  -11.9170   20.1530 N   0  0  0  0  0  0  0  0  0  0  0  0
  -24.3480  -10.7970   20.7690 C   0  0  0  0  0  0  0  0  0  0  0  0
  -24.7310   -9.7950   21.6890 C   0  0  0  0  0  3  0  0  0  0  0  0
  -23.9360   -8.6390   21.8580 C   0  0  0  0  0  3  0  0  0  0  0  0
  -22.7480   -8.4780   21.1070 C   0  0  0  0  0  0  0  0  0  0  0  0
  -22.3860   -9.4670   20.1760 C   0  0  0  0  0  3  0  0  0  0  0  0
  -23.1790  -10.6140   20.0050 C   0  0  0  0  0  3  0  0  0  0  0  0
  -21.9290   -7.3780   21.1870 O   0  0  0  0  0  0  0  0  0  0  0  0
  -21.7660   -6.6860   22.3600 C   0  0  0  0  0  0  0  0  0  0  0  0
  -21.2470   -7.2990   23.5200 C   0  0  0  0  0  3  0  0  0  0  0  0
  -21.0310   -6.5340   24.6840 C   0  0  0  0  0  3  0  0  0  0  0  0
  -21.3240   -5.1570   24.6860 C   0  0  0  0  0  0  0  0  0  0  0  0
  -21.8360   -4.5430   23.5290 C   0  0  0  0  0  3  0  0  0  0  0  0
  -22.0530   -5.3060   22.3680 C   0  0  0  0  0  0  0  0  0  0  0  0
  -22.5260   -4.7050   21.2510 F   0  0  0  0  0  0  0  0  0  0  0  0
  -21.1100   -4.4200   25.8010 F   0  0  0  0  0  0  0  0  0  0  0  0
  -23.4580  -13.9410   21.1850 C   0  0  0  0  0  0  0  0  0  0  0  0
  -22.7710  -13.2440   22.0820 N   0  0  0  0  0  0  0  0  0  0  0  0
  -23.0440  -15.0220   20.7650 O   0  0  0  0  0  0  0  0  0  0  0  0
  -23.1200  -12.3660   22.4380 H   0  0  0  0  0  0  0  0  0  0  0  0
  -21.8850  -13.5920   22.4210 H   0  0  0  0  0  0  0  0  0  0  0  0
  -26.1090  -15.4820   20.2090 N   0  0  0  0  0  0  0  0  0  0  0  0
  -25.3840  -16.1700   20.3830 H   0  0  0  0  0  0  0  0  0  0  0  0
  -26.9170  -15.8730   19.7440 H   0  0  0  0  0  0  0  0  0  0  0  0
  -28.0290  -20.2720   20.4650 C   0  0  0  0  0  2  0  0  0  0  0  0
  -27.8410  -18.9760   21.1350 N   0  0  0  0  0  4  0  0  0  0  0  0
  -27.9380  -18.2230   20.4780 H   0  0  0  0  0  0  0  0  0  0  0  0
  -26.9100  -18.9270   21.5150 H   0  0  0  0  0  0  0  0  0  0  0  0
  -28.4920  -18.8580   21.8890 H   0  0  0  0  0  0  0  0  0  0  0  0
  1  5  1  0
  2  5  1  0
  3  1  1  0
  4  2  1  0
  5 52  1  0
  5  9  1  1
  6  4  1  0
  6  3  1  0
  7  6  1  0
  8  6  1  0
 10 11  1  0
 10  9  1  0
 12 23  2  0
 13 11  1  0
 13 18  1  0
 14 22  1  0
 14 24  1  0
 15 21  1  0
 15 17  1  0
 16 22  1  0
 17 16  1  0
 18 17  2  0
 19 20  1  0
 19 13  2  0
 20 15  2  0
 21 14  1  0
 22 12  1  0
 24 26  2  0
 25 24  1  0
 27 25  1  0
 28 37  2  0
 28 33  1  0
 29 25  1  0
 29 33  1  0
 30 29  1  0
 31 32  1  0
 31 30  1  0
 32 28  1  0
 33 34  2  0
 34 35  1  0
 36 35  2  0
 37 36  1  0
 38 12  1  0
 38 43  1  0
 38 39  1  0
 39 42  1  1
 39 40  1  0
 41 39  1  0
 43 46  1  0
 44 48  1  0
 44 43  1  0
 45 44  2  0
 48 47  1  0
 50 48  1  0
 50 51  1  0
 50 49  1  0
 52 53  1  0
 52 93  1  0
 53 54  1  0
 55 61  1  0
 55 63  1  0
 56 61  1  0
 57 58  1  0
 57 56  1  0
 59 58  1  0
 59 68  1  0
 59 60  1  0
 61 60  1  0
 62 55  2  0
 63 54  1  0
 63 64  1  0
 65 66  2  0
 66 85  1  0
 67 66  1  0
 67 70  1  0
 68 69  1  0
 68 65  1  0
 69 67  2  0
 70 71  1  0
 71 72  2  0
 73 76  1  0
 73 72  1  0
 74 73  2  0
 75 74  1  0
 75 70  2  0
 76 77  1  0
 77 82  2  0
 77 78  1  0
 78 79  2  0
 79 80  1  0
 80 84  1  0
 81 80  2  0
 82 81  1  0
 83 82  1  0
 85 86  1  0
 86 89  1  0
 86 88  1  0
 87 85  2  0
 90 65  1  0
 90 91  1  0
 92 90  1  0
 93 94  1  0
 94 96  1  0
 94 97  1  0
 95 94  1  0
M  ISO  4  10 101  11 101  55 100  63 100
M  END
>  <TORSDO>  (73) 
F 23

>  <SCORE>  (73) 
-13.035

>  <name>  (73) 
75

>  <ligand_id>  (73) 
75

>  <original_smiles>  (73) 
[H]c1c([H])c([H])c2c(c1[H])C([H])([H])C([H])([H])C([H])([H])C2([H])N([H])C(=O)C1([H])N(C(=O)C([H])(N([H])C(=O)C([H])(N([H])C([H])([H])[H])C([H])([H])[H])C(C([H])([H])[H])(C([H])([H])[H])C([H])([H])[H])C([H])([H])c2c([H])c(OC([H])([H])C([H])([H])C3(C([H])(C([H])([H])C([H])([H])N([H])C(=O)N4C([H])([H])C([H])([H])C([H])([H])C([H])(n5nc(-c6c([H])c([H])c(Oc7c([H])c([H])c(F)c([H])c7F)c([H])c6[H])c(C(=O)N([H])[H])c5N([H])[H])C4([H])[H])C([H])([H])[N+]([H])([H])[H])C([H])([H])C([H])([H])[N+]([H])([H])C([H])([H])C3([H])[H])c([H])c([H])c2C1([H])[H]

>  <smiles>  (73) 
[H]c1c([H])c([H])c2c(c1[H])C([H])([H])C([H])([H])C([H])([H])C2([H])N([H])C(=O)C1([H])N(C(=O)C([H])(N([H])C(=O)C([H])(N([H])C([H])([H])[H])C([H])([H])[H])C(C([H])([H])[H])(C([H])([H])[H])C([H])([H])[H])C([H])([H])c2c([H])c(OC([H])([H])C([H])([H])C3(C([H])(C([H])([H])C([H])([H])N([H])C(=O)N4C([H])([H])C([H])([H])C([H])([H])C([H])(n5nc(-c6c([H])c([H])c(Oc7c([H])c([H])c(F)c([H])c7F)c([H])c6[H])c(C(=O)N([H])[H])c5N([H])[H])C4([H])[H])C([H])([H])[N+]([H])([H])[H])C([H])([H])C([H])([H])[N+]([H])([H])C([H])([H])C3([H])[H])c([H])c([H])c2C1([H])[H]

$$$$
76:0:0
     RDKit          3D

106113  0  0  1  0  0  0  0  0999 V2000
  -30.7840  -19.4550   20.3950 C   0  0  0  0  0  3  0  0  0  0  0  0
  -32.1280  -19.8220   20.8220 N   0  0  0  0  0  0  0  0  0  0  0  0
  -32.8170  -19.3360   20.2570 H   0  0  0  0  0  0  0  0  0  0  0  0
  -32.3010  -19.4990   21.7680 H   0  0  0  0  0  0  0  0  0  0  0  0
  -30.5930  -17.8990   20.4030 C   0  0  0  0  0  3  0  0  0  0  0  0
  -29.3460  -17.5270   19.7120 N   0  0  0  0  0  4  0  0  0  0  0  0
  -28.5440  -17.9090   20.1820 H   0  0  0  0  0  0  0  0  0  0  0  0
  -29.2610  -16.5290   19.6810 H   0  0  0  0  0  0  0  0  0  0  0  0
  -29.3570  -17.8730   18.7680 H   0  0  0  0  0  0  0  0  0  0  0  0
  -30.6560  -17.2110   21.8100 C   0  0  0  0  0  3  0  0  0  0  0  0
  -30.9990  -14.7910   21.2290 C   0  0  0  0  0  0  0  0  0  0  0  0
  -30.8950  -12.5010   20.3220 C   0  0  0  0  0  2  0  0  0  0  0  0
  -30.1330  -12.4880   18.9820 C   0  0  0  0  0  2  0  0  0  0  0  0
  -28.6160  -12.3550   19.2200 C   0  0  0  0  0  2  0  0  0  0  0  0
  -28.0850  -13.3570   20.2750 C   0  0  0  0  0  3  0  0  0  0  0  0
  -28.9650  -13.3340   21.5470 C   0  0  0  0  0  2  0  0  0  0  0  0
  -30.3600  -13.5950   21.1470 N   0  0  0  0  0  0  0  0  0  0  0  0
  -32.1290  -14.9950   20.7810 O   0  0  0  0  0  0  0  0  0  0  0  0
  -30.2640  -15.7930   21.7430 N   0  0  0  0  0  0  0  0  0  0  0  0
  -29.3750  -15.5310   22.1450 H   0  0  0  0  0  0  0  0  0  0  0  0
  -25.6520  -14.0190   20.7950 C   0  0  0  0  0  0  0  0  0  0  0  0
  -24.5230  -13.2690   20.9860 C   0  0  0  0  0  0  0  0  0  0  0  0
  -24.9310  -11.9060   20.8600 C   0  0  0  0  0  0  0  0  0  0  0  0
  -26.6790  -13.1130   20.5820 N   0  0  0  0  0  0  0  0  0  0  0  0
  -26.2420  -11.8320   20.6770 N   0  0  0  0  0  0  0  0  0  0  0  0
  -24.1410  -10.6690   20.8480 C   0  0  0  0  0  0  0  0  0  0  0  0
  -24.5170   -9.5450   21.6170 C   0  0  0  0  0  3  0  0  0  0  0  0
  -23.7320   -8.3730   21.6040 C   0  0  0  0  0  3  0  0  0  0  0  0
  -22.5570   -8.3130   20.8180 C   0  0  0  0  0  0  0  0  0  0  0  0
  -22.1980   -9.4270   20.0380 C   0  0  0  0  0  3  0  0  0  0  0  0
  -22.9820  -10.5930   20.0500 C   0  0  0  0  0  3  0  0  0  0  0  0
  -21.7480   -7.2080   20.7220 O   0  0  0  0  0  0  0  0  0  0  0  0
  -21.7380   -6.2380   21.6920 C   0  0  0  0  0  0  0  0  0  0  0  0
  -21.4510   -6.5370   23.0420 C   0  0  0  0  0  3  0  0  0  0  0  0
  -21.3840   -5.5010   23.9930 C   0  0  0  0  0  3  0  0  0  0  0  0
  -21.5920   -4.1650   23.5980 C   0  0  0  0  0  0  0  0  0  0  0  0
  -21.8740   -3.8650   22.2530 C   0  0  0  0  0  3  0  0  0  0  0  0
  -21.9440   -4.8990   21.3020 C   0  0  0  0  0  0  0  0  0  0  0  0
  -22.1930   -4.6020   20.0040 F   0  0  0  0  0  0  0  0  0  0  0  0
  -21.5210   -3.1670   24.5100 F   0  0  0  0  0  0  0  0  0  0  0  0
  -23.1250  -13.7860   21.1600 C   0  0  0  0  0  0  0  0  0  0  0  0
  -22.2900  -13.0610   21.8930 N   0  0  0  0  0  0  0  0  0  0  0  0
  -22.7800  -14.8680   20.6850 O   0  0  0  0  0  0  0  0  0  0  0  0
  -22.5820  -12.1820   22.2970 H   0  0  0  0  0  0  0  0  0  0  0  0
  -21.3470  -13.3850   22.0480 H   0  0  0  0  0  0  0  0  0  0  0  0
  -25.8830  -15.3910   20.7570 N   0  0  0  0  0  0  0  0  0  0  0  0
  -25.0760  -16.0050   20.7310 H   0  0  0  0  0  0  0  0  0  0  0  0
  -26.6550  -15.7530   20.2170 H   0  0  0  0  0  0  0  0  0  0  0  0
  -29.7910  -17.9350   22.8700 C   0  0  0  0  0  2  0  0  0  0  0  0
  -30.1850  -17.6680   24.3320 C   0  0  0  0  0  2  0  0  0  0  0  0
  -29.5360  -18.7090   25.2640 C   0  0  0  0  0  2  0  0  0  0  0  0
  -29.8800  -18.5440   26.7550 C   0  0  0  0  0  2  0  0  0  0  0  0
  -29.1090  -17.4660   27.3960 N   0  0  0  0  0  4  0  0  0  0  0  0
  -28.1220  -17.6150   27.2780 H   0  0  0  0  0  0  0  0  0  0  0  0
  -29.3030  -17.4530   28.3820 H   0  0  0  0  0  0  0  0  0  0  0  0
  -29.3580  -16.5710   27.0180 H   0  0  0  0  0  0  0  0  0  0  0  0
  -30.5670  -20.0830   18.9960 C   0  0  0  0  0  2  0  0  0  0  0  0
  -30.5980  -21.6280   18.9560 C   0  0  0  0  0  2  0  0  0  0  0  0
  -30.3050  -22.1640   17.5400 C   0  0  0  0  0  2  0  0  0  0  0  0
  -30.5680  -23.6730   17.3560 C   0  0  0  0  0  2  0  0  0  0  0  0
  -29.5050  -24.5290   17.9220 N   0  0  0  0  0  4  0  0  0  0  0  0
  -29.2640  -24.2190   18.8510 H   0  0  0  0  0  0  0  0  0  0  0  0
  -28.6850  -24.4300   17.3450 H   0  0  0  0  0  0  0  0  0  0  0  0
  -29.8700  -25.9660   17.9820 C   0  0  0  0  0  2  0  0  0  0  0  0
  -28.6340  -26.8650   18.0970 C   0  0  0  0  0  2  0  0  0  0  0  0
  -28.0120  -26.6550   19.3590 O   0  0  0  0  0  0  0  0  0  0  0  0
  -24.4690  -31.6690   22.9690 C   0  0  0  0  0  0  0  0  0  0  0  0
  -26.8630  -27.3820   19.5080 C   0  0  0  0  0  0  0  0  0  0  0  0
  -23.1450  -30.3680   21.3300 C   0  0  0  0  0  3  0  0  0  0  0  0
  -24.4900  -28.8850   19.7500 C   0  0  0  0  0  0  0  0  0  0  0  0
  -25.6580  -30.7090   21.0010 C   0  0  0  0  0  2  0  0  0  0  0  0
  -25.6850  -29.3710   20.2960 C   0  0  0  0  0  0  0  0  0  0  0  0
  -26.8770  -28.6230   20.1790 C   0  0  0  0  0  3  0  0  0  0  0  0
  -25.6510  -26.8900   18.9790 C   0  0  0  0  0  3  0  0  0  0  0  0
  -24.4660  -27.6400   19.0940 C   0  0  0  0  0  3  0  0  0  0  0  0
  -23.2650  -29.7550   19.9090 C   0  0  0  0  0  2  0  0  0  0  0  0
  -24.4460  -30.9280   21.8240 N   0  0  0  0  0  0  0  0  0  0  0  0
  -23.4260  -31.9280   23.5850 O   0  0  0  0  0  0  0  0  0  0  0  0
  -22.5370  -29.3090   22.2750 C   0  0  0  0  0  0  0  0  0  0  0  0
  -21.2060  -29.1450   22.2090 N   0  0  0  0  0  0  0  0  0  0  0  0
  -23.2560  -28.6380   23.0210 O   0  0  0  0  0  0  0  0  0  0  0  0
  -20.6880  -29.7380   21.5770 H   0  0  0  0  0  0  0  0  0  0  0  0
  -17.8530  -27.9510   22.8050 C   0  0  0  0  0  0  0  0  0  0  0  0
  -20.4210  -28.1830   22.9780 C   0  0  0  0  0  3  0  0  0  0  0  0
  -20.4910  -26.7780   22.3360 C   0  0  0  0  0  2  0  0  0  0  0  0
  -19.3440  -26.5030   21.3570 C   0  0  0  0  0  2  0  0  0  0  0  0
  -17.9900  -26.6300   22.0660 C   0  0  0  0  0  2  0  0  0  0  0  0
  -18.9940  -28.6870   23.2180 C   0  0  0  0  0  0  0  0  0  0  0  0
  -18.8100  -29.9270   23.8670 C   0  0  0  0  0  3  0  0  0  0  0  0
  -17.5170  -30.4290   24.1090 C   0  0  0  0  0  3  0  0  0  0  0  0
  -16.3910  -29.6870   23.7140 C   0  0  0  0  0  3  0  0  0  0  0  0
  -16.5600  -28.4520   23.0650 C   0  0  0  0  0  3  0  0  0  0  0  0
  -25.8010  -32.2460   23.5450 C   0  0  0  0  0  3  0  0  0  0  0  0
  -25.5290  -33.6140   24.0050 N   0  0  0  0  0  0  0  0  0  0  0  0
  -25.8410  -34.7210   23.3180 C   0  0  0  0  0  0  0  0  0  0  0  0
  -26.4580  -34.6960   22.2500 O   0  0  0  0  0  0  0  0  0  0  0  0
  -24.9760  -33.7130   24.8440 H   0  0  0  0  0  0  0  0  0  0  0  0
  -24.1300  -36.5580   23.1810 C   0  0  0  0  0  1  0  0  0  0  0  0
  -25.3930  -36.0710   23.9090 C   0  0  0  0  0  3  0  0  0  0  0  0
  -27.5720  -36.8510   24.7310 C   0  0  0  0  0  1  0  0  0  0  0  0
  -26.4390  -37.1140   23.8470 N   0  0  0  0  0  0  0  0  0  0  0  0
  -26.0540  -38.0240   24.0850 H   0  0  0  0  0  0  0  0  0  0  0  0
  -26.4080  -31.3710   24.7110 C   0  0  1  0  0  0  0  0  0  0  0  0
  -25.3950  -31.0440   25.8320 C   0  0  0  0  0  1  0  0  0  0  0  0
  -26.9520  -30.0320   24.1640 C   0  0  0  0  0  1  0  0  0  0  0  0
  -27.6100  -32.1090   25.3470 C   0  0  0  0  0  1  0  0  0  0  0  0
  1 57  1  0
  1  5  1  0
  1  2  1  0
  2  4  1  0
  3  2  1  0
  5  6  1  0
  5 10  1  0
  6  7  1  0
  8  6  1  0
  9  6  1  0
 10 49  1  0
 11 19  1  0
 12 17  1  0
 13 14  1  0
 13 12  1  0
 15 14  1  0
 15 24  1  0
 15 16  1  0
 17 11  1  0
 17 16  1  0
 18 11  2  0
 19 10  1  0
 19 20  1  0
 21 22  2  0
 22 41  1  0
 23 22  1  0
 24 25  1  0
 24 21  1  0
 25 23  2  0
 26 23  1  0
 26 27  1  0
 28 27  2  0
 29 28  1  0
 30 31  1  0
 30 29  2  0
 31 26  2  0
 32 29  1  0
 32 33  1  0
 33 34  1  0
 34 35  2  0
 36 35  1  0
 36 40  1  0
 37 36  2  0
 38 33  2  0
 38 37  1  0
 39 38  1  0
 41 42  1  0
 42 45  1  0
 42 44  1  0
 43 41  2  0
 46 21  1  0
 47 46  1  0
 48 46  1  0
 49 50  1  0
 50 51  1  0
 51 52  1  0
 52 53  1  0
 53 55  1  0
 54 53  1  0
 56 53  1  0
 58 57  1  0
 59 58  1  0
 60 59  1  0
 60 61  1  0
 61 64  1  0
 61 62  1  0
 63 61  1  0
 64 65  1  0
 65 66  1  0
 66 68  1  0
 67 78  2  0
 68 73  1  0
 69 77  1  0
 69 79  1  0
 70 76  1  0
 70 72  1  0
 71 77  1  0
 72 71  1  0
 73 72  2  0
 74 75  1  0
 74 68  2  0
 75 70  2  0
 76 69  1  0
 77 67  1  0
 79 81  2  0
 80 79  1  0
 82 80  1  0
 83 92  2  0
 83 88  1  0
 84 80  1  0
 84 88  1  0
 85 84  1  0
 86 87  1  0
 86 85  1  0
 87 83  1  0
 88 89  2  0
 89 90  1  0
 91 90  2  0
 92 91  1  0
 93 67  1  0
 93 94  1  0
 93103  1  0
 94 97  1  0
 95 99  1  0
 95 94  1  0
 96 95  2  0
 99 98  1  0
101 99  1  0
101102  1  0
101100  1  0
103106  1  1
103104  1  0
105103  1  0
M  ISO  4  11 100  19 100  65 101  66 101
M  END
>  <TORSDO>  (74) 
F 32

>  <SCORE>  (74) 
-1.660

>  <name>  (74) 
76

>  <ligand_id>  (74) 
76

>  <original_smiles>  (74) 
[H]c1c([H])c([H])c2c(c1[H])C([H])([H])C([H])([H])C([H])([H])C2([H])N([H])C(=O)C1([H])N(C(=O)C([H])(N([H])C(=O)C([H])(N([H])C([H])([H])[H])C([H])([H])[H])C(C([H])([H])[H])(C([H])([H])[H])C([H])([H])[H])C([H])([H])c2c([H])c(OC([H])([H])C([H])([H])[N+]([H])([H])C([H])([H])C([H])([H])C([H])([H])C([H])([H])C([H])(N([H])[H])C([H])(C([H])(N([H])C(=O)N3C([H])([H])C([H])([H])C([H])([H])C([H])(n4nc(-c5c([H])c([H])c(Oc6c([H])c([H])c(F)c([H])c6F)c([H])c5[H])c(C(=O)N([H])[H])c4N([H])[H])C3([H])[H])C([H])([H])C([H])([H])C([H])([H])C([H])([H])[N+]([H])([H])[H])[N+]([H])([H])[H])c([H])c([H])c2C1([H])[H]

>  <smiles>  (74) 
[H]c1c([H])c([H])c2c(c1[H])C([H])([H])C([H])([H])C([H])([H])C2([H])N([H])C(=O)C1([H])N(C(=O)C([H])(N([H])C(=O)C([H])(N([H])C([H])([H])[H])C([H])([H])[H])C(C([H])([H])[H])(C([H])([H])[H])C([H])([H])[H])C([H])([H])c2c([H])c(OC([H])([H])C([H])([H])[N+]([H])([H])C([H])([H])C([H])([H])C([H])([H])C([H])([H])C([H])(N([H])[H])C([H])(C([H])(N([H])C(=O)N3C([H])([H])C([H])([H])C([H])([H])C([H])(n4nc(-c5c([H])c([H])c(Oc6c([H])c([H])c(F)c([H])c6F)c([H])c5[H])c(C(=O)N([H])[H])c4N([H])[H])C3([H])[H])C([H])([H])C([H])([H])C([H])([H])C([H])([H])[N+]([H])([H])[H])[N+]([H])([H])[H])c([H])c([H])c2C1([H])[H]

$$$$
77:0:0
     RDKit          3D

 94102  0  0  1  0  0  0  0  0999 V2000
  -29.7060  -20.0210   19.0710 C   0  0  0  0  0  2  0  0  0  0  0  0
  -28.8120  -20.0430   21.2550 C   0  0  0  0  0  2  0  0  0  0  0  0
  -28.8380  -21.3540   18.9410 C   0  0  0  0  0  2  0  0  0  0  0  0
  -29.0200  -21.6450   21.3200 C   0  0  0  0  0  2  0  0  0  0  0  0
  -29.6670  -19.2200   20.3320 N   0  0  0  0  0  0  0  0  0  0  0  0
  -29.0340  -22.3910   20.0040 N   0  0  2  0  0  4  0  0  0  0  0  0
  -29.9950  -22.6830   19.9000 H   0  0  0  0  0  0  0  0  0  0  0  0
  -28.1750  -23.6840   19.7690 C   0  0  0  0  0  2  0  0  0  0  0  0
  -28.3870  -25.0880   20.5640 C   0  0  0  0  0  2  0  0  0  0  0  0
  -28.2670  -26.4610   19.9360 O   0  0  0  0  0  0  0  0  0  0  0  0
  -24.5950  -31.8780   23.1440 C   0  0  0  0  0  0  0  0  0  0  0  0
  -27.1250  -27.2880   20.0220 C   0  0  0  0  0  0  0  0  0  0  0  0
  -23.3470  -30.4930   21.5230 C   0  0  0  0  0  3  0  0  0  0  0  0
  -24.7620  -28.9300   20.0620 C   0  0  0  0  0  0  0  0  0  0  0  0
  -25.8820  -30.7990   21.2770 C   0  0  0  0  0  2  0  0  0  0  0  0
  -25.9480  -29.4140   20.6310 C   0  0  0  0  0  0  0  0  0  0  0  0
  -27.1310  -28.6090   20.5890 C   0  0  0  0  0  3  0  0  0  0  0  0
  -25.9150  -26.8590   19.4410 C   0  0  0  0  0  3  0  0  0  0  0  0
  -24.7510  -27.6610   19.4540 C   0  0  0  0  0  3  0  0  0  0  0  0
  -23.5300  -29.8170   20.1370 C   0  0  0  0  0  2  0  0  0  0  0  0
  -24.6300  -31.0760   22.0380 N   0  0  0  0  0  0  0  0  0  0  0  0
  -23.5260  -32.1530   23.7090 O   0  0  0  0  0  0  0  0  0  0  0  0
  -22.7020  -29.4770   22.4960 C   0  0  0  0  0  0  0  0  0  0  0  0
  -21.3730  -29.3030   22.4010 N   0  0  0  0  0  0  0  0  0  0  0  0
  -23.3980  -28.8470   23.2970 O   0  0  0  0  0  0  0  0  0  0  0  0
  -20.8680  -29.8650   21.7300 H   0  0  0  0  0  0  0  0  0  0  0  0
  -18.0110  -28.0840   22.9540 C   0  0  0  0  0  0  0  0  0  0  0  0
  -20.5710  -28.3610   23.1840 C   0  0  0  0  0  3  0  0  0  0  0  0
  -20.6730  -26.9290   22.6080 C   0  0  0  0  0  2  0  0  0  0  0  0
  -19.5580  -26.6000   21.6100 C   0  0  0  0  0  2  0  0  0  0  0  0
  -18.1870  -26.7350   22.2750 C   0  0  0  0  0  2  0  0  0  0  0  0
  -19.1310  -28.8540   23.3670 C   0  0  0  0  0  0  0  0  0  0  0  0
  -18.9120  -30.1140   23.9650 C   0  0  0  0  0  3  0  0  0  0  0  0
  -17.6070  -30.6070   24.1500 C   0  0  0  0  0  3  0  0  0  0  0  0
  -16.5020  -29.8350   23.7520 C   0  0  0  0  0  3  0  0  0  0  0  0
  -16.7040  -28.5750   23.1610 C   0  0  0  0  0  3  0  0  0  0  0  0
  -25.8920  -32.5060   23.7420 C   0  0  0  0  0  3  0  0  0  0  0  0
  -25.5890  -33.8980   24.1080 N   0  0  0  0  0  0  0  0  0  0  0  0
  -25.9100  -34.9690   23.3700 C   0  0  0  0  0  0  0  0  0  0  0  0
  -26.5670  -34.8880   22.3280 O   0  0  0  0  0  0  0  0  0  0  0  0
  -25.0100  -34.0320   24.9240 H   0  0  0  0  0  0  0  0  0  0  0  0
  -24.1810  -36.7730   23.0830 C   0  0  0  0  0  1  0  0  0  0  0  0
  -25.4330  -36.3470   23.8660 C   0  0  0  0  0  3  0  0  0  0  0  0
  -27.5830  -37.2090   24.6820 C   0  0  0  0  0  1  0  0  0  0  0  0
  -26.4650  -37.4020   23.7620 N   0  0  0  0  0  0  0  0  0  0  0  0
  -26.0620  -38.3180   23.9460 H   0  0  0  0  0  0  0  0  0  0  0  0
  -26.4450  -31.7170   24.9920 C   0  0  1  0  0  0  0  0  0  0  0  0
  -25.3860  -31.4710   26.0940 C   0  0  0  0  0  1  0  0  0  0  0  0
  -27.0040  -30.3400   24.5640 C   0  0  0  0  0  1  0  0  0  0  0  0
  -27.6180  -32.4960   25.6290 C   0  0  0  0  0  1  0  0  0  0  0  0
  -29.5620  -17.6510   20.4020 C   0  0  0  0  0  3  0  0  0  0  0  0
  -27.5980  -17.2450   18.6850 C   0  0  0  0  0  1  0  0  0  0  0  0
  -28.1140  -17.1880   20.1350 C   0  0  0  0  0  2  0  0  0  0  0  0
  -30.7060  -16.4930   19.9680 C   0  0  0  0  0  3  0  0  0  0  0  0
  -31.0210  -15.0570   20.7530 C   0  0  0  0  0  0  0  0  0  0  0  0
  -30.8240  -12.6730   19.9830 C   0  0  0  0  0  2  0  0  0  0  0  0
  -30.0160  -12.5390   18.6760 C   0  0  0  0  0  2  0  0  0  0  0  0
  -28.5110  -12.4170   18.9810 C   0  0  0  0  0  2  0  0  0  0  0  0
  -28.0100  -13.4300   20.0440 C   0  0  0  0  0  3  0  0  0  0  0  0
  -28.9750  -13.5650   21.2380 C   0  0  0  0  0  2  0  0  0  0  0  0
  -30.3060  -13.8680   20.6960 N   0  0  0  0  0  0  0  0  0  0  0  0
  -32.2180  -14.9300   21.0100 O   0  0  0  0  0  0  0  0  0  0  0  0
  -25.5810  -14.0370   20.6160 C   0  0  0  0  0  0  0  0  0  0  0  0
  -24.4870  -13.2840   20.9170 C   0  0  0  0  0  0  0  0  0  0  0  0
  -24.9420  -11.9330   20.9490 C   0  0  0  0  0  0  0  0  0  0  0  0
  -26.6380  -13.1550   20.4680 N   0  0  0  0  0  0  0  0  0  0  0  0
  -26.2550  -11.8800   20.7470 N   0  0  0  0  0  0  0  0  0  0  0  0
  -24.1850  -10.6850   21.1000 C   0  0  0  0  0  0  0  0  0  0  0  0
  -24.5490   -9.7140   22.0580 C   0  0  0  0  0  3  0  0  0  0  0  0
  -23.7910   -8.5320   22.1990 C   0  0  0  0  0  3  0  0  0  0  0  0
  -22.6560   -8.3140   21.3840 C   0  0  0  0  0  0  0  0  0  0  0  0
  -22.3110   -9.2740   20.4160 C   0  0  0  0  0  3  0  0  0  0  0  0
  -23.0700  -10.4480   20.2730 C   0  0  0  0  0  3  0  0  0  0  0  0
  -21.8770   -7.1840   21.4340 O   0  0  0  0  0  0  0  0  0  0  0  0
  -21.7700   -6.4330   22.5760 C   0  0  0  0  0  0  0  0  0  0  0  0
  -21.3260   -6.9900   23.7950 C   0  0  0  0  0  3  0  0  0  0  0  0
  -21.1640   -6.1680   24.9270 C   0  0  0  0  0  3  0  0  0  0  0  0
  -21.4390   -4.7890   24.8430 C   0  0  0  0  0  0  0  0  0  0  0  0
  -21.8750   -4.2320   23.6280 C   0  0  0  0  0  3  0  0  0  0  0  0
  -22.0380   -5.0510   22.4980 C   0  0  0  0  0  0  0  0  0  0  0  0
  -22.4370   -4.5070   21.3240 F   0  0  0  0  0  0  0  0  0  0  0  0
  -21.2790   -3.9970   25.9280 F   0  0  0  0  0  0  0  0  0  0  0  0
  -23.0790  -13.7840   21.0560 C   0  0  0  0  0  0  0  0  0  0  0  0
  -22.2790  -13.1330   21.8900 N   0  0  0  0  0  0  0  0  0  0  0  0
  -22.6950  -14.7910   20.4580 O   0  0  0  0  0  0  0  0  0  0  0  0
  -22.5990  -12.3200   22.3960 H   0  0  0  0  0  0  0  0  0  0  0  0
  -21.3290  -13.4470   22.0250 H   0  0  0  0  0  0  0  0  0  0  0  0
  -25.7390  -15.3980   20.4250 N   0  0  0  0  0  0  0  0  0  0  0  0
  -24.9510  -16.0330   20.4660 H   0  0  0  0  0  0  0  0  0  0  0  0
  -26.5890  -15.8370   20.0980 H   0  0  0  0  0  0  0  0  0  0  0  0
  -30.9270  -17.4710   17.5000 C   0  0  0  0  0  1  0  0  0  0  0  0
  -31.0140  -16.2470   18.4240 C   0  0  0  0  0  3  0  0  0  0  0  0
  -32.7300  -15.2710   16.6790 C   0  0  0  0  0  1  0  0  0  0  0  0
  -32.4180  -15.6050   18.1480 C   0  0  0  0  0  2  0  0  0  0  0  0
  1  5  1  0
  2  4  1  0
  3  1  1  0
  3  6  1  0
  5 51  1  0
  5  2  1  0
  6  4  1  0
  6  7  1  6
  8  6  1  0
  8  9  1  0
 10 12  1  0
 10  9  1  0
 11 22  2  0
 12 17  1  0
 13 21  1  0
 13 23  1  0
 14 20  1  0
 14 16  1  0
 15 21  1  0
 16 15  1  0
 17 16  2  0
 18 19  1  0
 18 12  2  0
 19 14  2  0
 20 13  1  0
 21 11  1  0
 23 25  2  0
 24 23  1  0
 26 24  1  0
 27 36  2  0
 27 32  1  0
 28 24  1  0
 28 32  1  0
 29 28  1  0
 30 31  1  0
 30 29  1  0
 31 27  1  0
 32 33  2  0
 33 34  1  0
 35 34  2  0
 36 35  1  0
 37 11  1  0
 37 38  1  0
 37 47  1  0
 38 41  1  0
 39 43  1  0
 39 38  1  0
 40 39  2  0
 43 42  1  0
 45 43  1  0
 45 46  1  0
 45 44  1  0
 47 50  1  1
 47 48  1  0
 49 47  1  0
 51 53  1  0
 52 53  1  0
 54 51  1  0
 54 55  1  0
 55 62  2  0
 56 61  1  0
 57 58  1  0
 57 56  1  0
 59 58  1  0
 59 66  1  0
 59 60  1  0
 61 55  1  0
 61 60  1  0
 63 64  2  0
 64 65  1  0
 64 83  1  0
 65 68  1  0
 66 63  1  0
 66 67  1  0
 67 65  2  0
 68 69  1  0
 69 70  2  0
 71 74  1  0
 71 70  1  0
 72 71  2  0
 73 72  1  0
 73 68  2  0
 74 75  1  0
 75 76  1  0
 76 77  2  0
 78 77  1  0
 78 82  1  0
 79 78  2  0
 80 75  2  0
 80 79  1  0
 81 80  1  0
 83 84  1  0
 84 87  1  0
 84 86  1  0
 85 83  2  0
 88 89  1  0
 88 63  1  0
 90 88  1  0
 92 91  1  0
 92 54  1  0
 93 94  1  0
 94 92  1  0
M  ISO  4   9 101  10 101  54 100  55 100
M  END
>  <TORSDO>  (75) 
F 23

>  <SCORE>  (75) 
-12.325

>  <name>  (75) 
77

>  <ligand_id>  (75) 
77

>  <original_smiles>  (75) 
[H]c1c([H])c([H])c2c(c1[H])C([H])([H])C([H])([H])C([H])([H])C2([H])N([H])C(=O)C1([H])N(C(=O)C([H])(N([H])C(=O)C([H])(N([H])C([H])([H])[H])C([H])([H])[H])C(C([H])([H])[H])(C([H])([H])[H])C([H])([H])[H])C([H])([H])c2c([H])c(OC([H])([H])C([H])([H])[N+]3([H])C([H])([H])C([H])([H])N(C([H])(C([H])([H])C([H])([H])[H])C([H])(C(=O)N4C([H])([H])C([H])([H])C([H])([H])C([H])(n5nc(-c6c([H])c([H])c(Oc7c([H])c([H])c(F)c([H])c7F)c([H])c6[H])c(C(=O)N([H])[H])c5N([H])[H])C4([H])[H])C([H])(C([H])([H])[H])C([H])([H])C([H])([H])[H])C([H])([H])C3([H])[H])c([H])c([H])c2C1([H])[H]

>  <smiles>  (75) 
[H]c1c([H])c([H])c2c(c1[H])C([H])([H])C([H])([H])C([H])([H])C2([H])N([H])C(=O)C1([H])N(C(=O)C([H])(N([H])C(=O)C([H])(N([H])C([H])([H])[H])C([H])([H])[H])C(C([H])([H])[H])(C([H])([H])[H])C([H])([H])[H])C([H])([H])c2c([H])c(OC([H])([H])C([H])([H])[N+]3([H])C([H])([H])C([H])([H])N(C([H])(C([H])([H])C([H])([H])[H])C([H])(C(=O)N4C([H])([H])C([H])([H])C([H])([H])C([H])(n5nc(-c6c([H])c([H])c(Oc7c([H])c([H])c(F)c([H])c7F)c([H])c6[H])c(C(=O)N([H])[H])c5N([H])[H])C4([H])[H])C([H])(C([H])([H])[H])C([H])([H])C([H])([H])[H])C([H])([H])C3([H])[H])c([H])c([H])c2C1([H])[H]

$$$$
78:0:0
     RDKit          3D

 93100  0  0  1  0  0  0  0  0999 V2000
  -29.1880  -22.9390   20.1880 C   0  0  0  0  0  3  0  0  0  0  0  0
  -30.5230  -23.4250   20.5930 N   0  0  0  0  0  4  0  0  0  0  0  0
  -31.0820  -23.6570   19.7900 H   0  0  0  0  0  0  0  0  0  0  0  0
  -31.0130  -22.7410   21.1400 H   0  0  0  0  0  0  0  0  0  0  0  0
  -30.4290  -24.2580   21.1510 H   0  0  0  0  0  0  0  0  0  0  0  0
  -29.4370  -21.3340   19.4370 C   0  0  0  0  0  2  0  0  0  0  0  0
  -30.2240  -19.8240   19.9750 C   0  0  0  0  0  3  0  0  0  0  0  0
  -29.7630  -19.6020   21.4190 C   0  0  0  0  0  0  0  0  0  0  0  0
  -30.5300  -20.0630   22.4010 N   0  0  0  0  0  0  0  0  0  0  0  0
  -28.7050  -19.0240   21.6550 O   0  0  0  0  0  0  0  0  0  0  0  0
  -31.4050  -20.5270   22.2020 H   0  0  0  0  0  0  0  0  0  0  0  0
  -30.2530  -19.9370   23.3650 H   0  0  0  0  0  0  0  0  0  0  0  0
  -30.3900  -18.2300   19.1840 C   0  0  0  0  0  2  0  0  0  0  0  0
  -31.0550  -15.3970   19.4850 C   0  0  0  0  0  0  0  0  0  0  0  0
  -30.8930  -12.9570   18.6540 C   0  0  0  0  0  2  0  0  0  0  0  0
  -29.8790  -12.8070   17.4910 C   0  0  0  0  0  2  0  0  0  0  0  0
  -28.4560  -12.5930   18.0370 C   0  0  0  0  0  2  0  0  0  0  0  0
  -28.1260  -13.5720   19.1920 C   0  0  0  0  0  3  0  0  0  0  0  0
  -29.2570  -13.6720   20.2400 C   0  0  0  0  0  2  0  0  0  0  0  0
  -30.4650  -14.1090   19.5260 N   0  0  0  0  0  0  0  0  0  0  0  0
  -32.2230  -15.3960   19.0750 O   0  0  0  0  0  0  0  0  0  0  0  0
  -30.3270  -16.6560   19.7040 N   0  0  0  0  0  0  0  0  0  0  0  0
  -29.4280  -16.4560   20.1200 H   0  0  0  0  0  0  0  0  0  0  0  0
  -25.8390  -14.2020   20.1330 C   0  0  0  0  0  0  0  0  0  0  0  0
  -24.7830  -13.4560   20.5770 C   0  0  0  0  0  0  0  0  0  0  0  0
  -25.1980  -12.0910   20.4900 C   0  0  0  0  0  0  0  0  0  0  0  0
  -26.8290  -13.2960   19.7960 N   0  0  0  0  0  0  0  0  0  0  0  0
  -26.4600  -12.0190   20.0770 N   0  0  0  0  0  0  0  0  0  0  0  0
  -24.4450  -10.8510   20.7200 C   0  0  0  0  0  0  0  0  0  0  0  0
  -24.8330   -9.9220   21.7110 C   0  0  0  0  0  3  0  0  0  0  0  0
  -24.0780   -8.7490   21.9270 C   0  0  0  0  0  3  0  0  0  0  0  0
  -22.9220   -8.4950   21.1520 C   0  0  0  0  0  0  0  0  0  0  0  0
  -22.5520   -9.4120   20.1520 C   0  0  0  0  0  3  0  0  0  0  0  0
  -23.3070  -10.5770   19.9340 C   0  0  0  0  0  3  0  0  0  0  0  0
  -22.1410   -7.3710   21.2740 O   0  0  0  0  0  0  0  0  0  0  0  0
  -21.9320   -6.7680   22.4880 C   0  0  0  0  0  0  0  0  0  0  0  0
  -21.3640   -7.4640   23.5770 C   0  0  0  0  0  3  0  0  0  0  0  0
  -21.1020   -6.7880   24.7860 C   0  0  0  0  0  3  0  0  0  0  0  0
  -21.4000   -5.4180   24.9050 C   0  0  0  0  0  0  0  0  0  0  0  0
  -21.9610   -4.7220   23.8200 C   0  0  0  0  0  3  0  0  0  0  0  0
  -22.2230   -5.3950   22.6150 C   0  0  0  0  0  0  0  0  0  0  0  0
  -22.7450   -4.7150   21.5660 F   0  0  0  0  0  0  0  0  0  0  0  0
  -21.1410   -4.7660   26.0640 F   0  0  0  0  0  0  0  0  0  0  0  0
  -23.4290  -13.9750   20.9620 C   0  0  0  0  0  0  0  0  0  0  0  0
  -22.7640  -13.3130   21.9010 N   0  0  0  0  0  0  0  0  0  0  0  0
  -22.9770  -15.0030   20.4640 O   0  0  0  0  0  0  0  0  0  0  0  0
  -23.1460  -12.4800   22.3220 H   0  0  0  0  0  0  0  0  0  0  0  0
  -21.8600  -13.6460   22.2050 H   0  0  0  0  0  0  0  0  0  0  0  0
  -26.0330  -15.5690   19.9620 N   0  0  0  0  0  0  0  0  0  0  0  0
  -25.3010  -16.2450   20.1510 H   0  0  0  0  0  0  0  0  0  0  0  0
  -26.8620  -15.9900   19.5620 H   0  0  0  0  0  0  0  0  0  0  0  0
  -28.2990  -24.3870   19.6460 C   0  0  0  0  0  2  0  0  0  0  0  0
  -28.3680  -25.9710   20.0400 O   0  0  0  0  0  0  0  0  0  0  0  0
  -24.5650  -31.7030   23.0210 C   0  0  0  0  0  0  0  0  0  0  0  0
  -27.3040  -26.9980   19.9470 C   0  0  0  0  0  0  0  0  0  0  0  0
  -23.4180  -30.2690   21.3800 C   0  0  0  0  0  3  0  0  0  0  0  0
  -24.9220  -28.7470   19.9300 C   0  0  0  0  0  0  0  0  0  0  0  0
  -25.9660  -30.6040   21.2120 C   0  0  0  0  0  2  0  0  0  0  0  0
  -26.0910  -29.2070   20.5460 C   0  0  0  0  0  0  0  0  0  0  0  0
  -27.2750  -28.3490   20.5340 C   0  0  0  0  0  3  0  0  0  0  0  0
  -26.1020  -26.6840   19.2710 C   0  0  0  0  0  3  0  0  0  0  0  0
  -24.9490  -27.5070   19.2720 C   0  0  0  0  0  3  0  0  0  0  0  0
  -23.6640  -29.6100   19.9940 C   0  0  0  0  0  2  0  0  0  0  0  0
  -24.6700  -30.8840   21.9260 N   0  0  0  0  0  0  0  0  0  0  0  0
  -23.4690  -31.9400   23.5550 O   0  0  0  0  0  0  0  0  0  0  0  0
  -22.7760  -29.2350   22.3410 C   0  0  0  0  0  0  0  0  0  0  0  0
  -21.4540  -29.0130   22.2220 N   0  0  0  0  0  0  0  0  0  0  0  0
  -23.4730  -28.6340   23.1610 O   0  0  0  0  0  0  0  0  0  0  0  0
  -20.9430  -29.5520   21.5360 H   0  0  0  0  0  0  0  0  0  0  0  0
  -18.1290  -27.6520   22.7290 C   0  0  0  0  0  0  0  0  0  0  0  0
  -20.6760  -28.0350   22.9900 C   0  0  0  0  0  3  0  0  0  0  0  0
  -20.8420  -26.6120   22.4080 C   0  0  0  0  0  2  0  0  0  0  0  0
  -19.7540  -26.2440   21.3940 C   0  0  0  0  0  2  0  0  0  0  0  0
  -18.3680  -26.3170   22.0420 C   0  0  0  0  0  2  0  0  0  0  0  0
  -19.2130  -28.4650   23.1580 C   0  0  0  0  0  0  0  0  0  0  0  0
  -18.9350  -29.7090   23.7650 C   0  0  0  0  0  3  0  0  0  0  0  0
  -17.6080  -30.1430   23.9440 C   0  0  0  0  0  3  0  0  0  0  0  0
  -16.5390  -29.3300   23.5290 C   0  0  0  0  0  3  0  0  0  0  0  0
  -16.8020  -28.0850   22.9280 C   0  0  0  0  0  3  0  0  0  0  0  0
  -25.8140  -32.3920   23.6490 C   0  0  0  0  0  3  0  0  0  0  0  0
  -25.4340  -33.7660   24.0160 N   0  0  0  0  0  0  0  0  0  0  0  0
  -25.7390  -34.8620   23.3070 C   0  0  0  0  0  0  0  0  0  0  0  0
  -26.4320  -34.8230   22.2870 O   0  0  0  0  0  0  0  0  0  0  0  0
  -24.8180  -33.8660   24.8090 H   0  0  0  0  0  0  0  0  0  0  0  0
  -23.9530  -36.6090   22.9860 C   0  0  0  0  0  1  0  0  0  0  0  0
  -25.1920  -36.2150   23.8070 C   0  0  0  0  0  3  0  0  0  0  0  0
  -27.2730  -37.1480   24.7170 C   0  0  0  0  0  1  0  0  0  0  0  0
  -26.1860  -37.3110   23.7550 N   0  0  0  0  0  0  0  0  0  0  0  0
  -25.7420  -38.2080   23.9270 H   0  0  0  0  0  0  0  0  0  0  0  0
  -26.3730  -31.6270   24.9110 C   0  0  1  0  0  0  0  0  0  0  0  0
  -25.2980  -31.3160   25.9790 C   0  0  0  0  0  1  0  0  0  0  0  0
  -27.0250  -30.2870   24.5020 C   0  0  0  0  0  1  0  0  0  0  0  0
  -27.4830  -32.4680   25.5840 C   0  0  0  0  0  1  0  0  0  0  0  0
  1  6  1  0
  1  2  1  0
  2  4  1  0
  2  5  1  0
  3  2  1  0
  6  7  1  0
  7 13  1  0
  7  8  1  0
  8 10  2  0
  8  9  1  0
  9 12  1  0
 11  9  1  0
 13 22  1  0
 14 20  1  0
 14 22  1  0
 15 20  1  0
 16 17  1  0
 16 15  1  0
 18 17  1  0
 18 27  1  0
 18 19  1  0
 20 19  1  0
 21 14  2  0
 22 23  1  0
 24 25  2  0
 25 44  1  0
 26 25  1  0
 26 29  1  0
 27 28  1  0
 27 24  1  0
 28 26  2  0
 29 30  1  0
 30 31  2  0
 32 35  1  0
 32 31  1  0
 33 32  2  0
 34 33  1  0
 34 29  2  0
 35 36  1  0
 36 41  2  0
 36 37  1  0
 37 38  2  0
 38 39  1  0
 39 43  1  0
 40 39  2  0
 41 40  1  0
 42 41  1  0
 44 45  1  0
 45 48  1  0
 45 47  1  0
 46 44  2  0
 49 24  1  0
 49 50  1  0
 51 49  1  0
 52 53  1  0
 52  1  1  0
 54 65  2  0
 55 53  1  0
 55 60  1  0
 56 64  1  0
 56 66  1  0
 57 63  1  0
 57 59  1  0
 58 64  1  0
 59 58  1  0
 60 59  2  0
 61 62  1  0
 61 55  2  0
 62 57  2  0
 63 56  1  0
 64 54  1  0
 66 68  2  0
 67 66  1  0
 69 67  1  0
 70 79  2  0
 70 75  1  0
 71 67  1  0
 71 75  1  0
 72 71  1  0
 73 74  1  0
 73 72  1  0
 74 70  1  0
 75 76  2  0
 76 77  1  0
 78 77  2  0
 79 78  1  0
 80 54  1  0
 80 81  1  0
 80 90  1  0
 81 84  1  0
 82 86  1  0
 82 81  1  0
 83 82  2  0
 86 85  1  0
 88 86  1  0
 88 89  1  0
 88 87  1  0
 90 93  1  1
 90 91  1  0
 92 90  1  0
M  ISO  4  14 100  22 100  52 101  53 101
M  END
>  <TORSDO>  (76) 
F 22

>  <SCORE>  (76) 
-13.065

>  <name>  (76) 
78

>  <ligand_id>  (76) 
78

>  <original_smiles>  (76) 
[H]c1c([H])c([H])c2c(c1[H])C([H])([H])C([H])([H])C([H])([H])C2([H])N([H])C(=O)C1([H])N(C(=O)C([H])(N([H])C(=O)C([H])(N([H])C([H])([H])[H])C([H])([H])[H])C(C([H])([H])[H])(C([H])([H])[H])C([H])([H])[H])C([H])([H])c2c([H])c(OC([H])([H])C([H])(C([H])([H])C([H])(C(=O)N([H])[H])C([H])([H])N([H])C(=O)N3C([H])([H])C([H])([H])C([H])([H])C([H])(n4nc(-c5c([H])c([H])c(Oc6c([H])c([H])c(F)c([H])c6F)c([H])c5[H])c(C(=O)N([H])[H])c4N([H])[H])C3([H])[H])[N+]([H])([H])[H])c([H])c([H])c2C1([H])[H]

>  <smiles>  (76) 
[H]c1c([H])c([H])c2c(c1[H])C([H])([H])C([H])([H])C([H])([H])C2([H])N([H])C(=O)C1([H])N(C(=O)C([H])(N([H])C(=O)C([H])(N([H])C([H])([H])[H])C([H])([H])[H])C(C([H])([H])[H])(C([H])([H])[H])C([H])([H])[H])C([H])([H])c2c([H])c(OC([H])([H])C([H])(C([H])([H])C([H])(C(=O)N([H])[H])C([H])([H])N([H])C(=O)N3C([H])([H])C([H])([H])C([H])([H])C([H])(n4nc(-c5c([H])c([H])c(Oc6c([H])c([H])c(F)c([H])c6F)c([H])c5[H])c(C(=O)N([H])[H])c4N([H])[H])C3([H])[H])[N+]([H])([H])[H])c([H])c([H])c2C1([H])[H]

$$$$
79:0:0
     RDKit          3D

 97104  0  0  1  0  0  0  0  0999 V2000
  -30.0420  -18.5770   19.9790 C   0  0  0  0  0  0  0  0  0  0  0  0
  -30.2150  -19.9100   20.3130 N   0  0  0  0  0  0  0  0  0  0  0  0
  -29.1370  -18.2290   19.2250 O   0  0  0  0  0  0  0  0  0  0  0  0
  -30.9830  -20.0870   20.9460 H   0  0  0  0  0  0  0  0  0  0  0  0
  -29.5630  -21.1620   19.7500 C   0  0  0  0  0  2  0  0  0  0  0  0
  -29.2630  -22.4160   20.7120 C   0  0  0  0  0  2  0  0  0  0  0  0
  -29.0970  -23.8860   20.0770 C   0  0  0  0  0  3  0  0  0  0  0  0
  -28.4950  -25.0600   20.9840 C   0  0  0  0  0  3  0  0  0  0  0  0
  -28.6730  -26.4820   20.5940 O   0  0  0  0  0  0  0  0  0  0  0  0
  -24.7510  -31.9150   23.3300 C   0  0  0  0  0  0  0  0  0  0  0  0
  -27.5380  -27.3030   20.5240 C   0  0  0  0  0  0  0  0  0  0  0  0
  -23.6270  -30.4530   21.6860 C   0  0  0  0  0  3  0  0  0  0  0  0
  -25.1510  -28.8720   20.3730 C   0  0  0  0  0  0  0  0  0  0  0  0
  -26.1670  -30.7930   21.5980 C   0  0  0  0  0  2  0  0  0  0  0  0
  -26.2880  -29.3990   20.9980 C   0  0  0  0  0  0  0  0  0  0  0  0
  -27.4840  -28.6250   21.0610 C   0  0  0  0  0  3  0  0  0  0  0  0
  -26.3810  -26.8270   19.8680 C   0  0  0  0  0  3  0  0  0  0  0  0
  -25.1990  -27.5910   19.7970 C   0  0  0  0  0  3  0  0  0  0  0  0
  -23.9040  -29.7340   20.3400 C   0  0  0  0  0  2  0  0  0  0  0  0
  -24.8650  -31.0740   22.2610 N   0  0  0  0  0  0  0  0  0  0  0  0
  -23.6450  -32.1990   23.8140 O   0  0  0  0  0  0  0  0  0  0  0  0
  -22.9360  -29.4610   22.6530 C   0  0  0  0  0  0  0  0  0  0  0  0
  -21.6210  -29.2500   22.4660 N   0  0  0  0  0  0  0  0  0  0  0  0
  -23.5840  -28.8840   23.5300 O   0  0  0  0  0  0  0  0  0  0  0  0
  -21.1610  -29.7700   21.7320 H   0  0  0  0  0  0  0  0  0  0  0  0
  -18.2510  -27.9890   22.8220 C   0  0  0  0  0  0  0  0  0  0  0  0
  -20.7830  -28.3240   23.2280 C   0  0  0  0  0  3  0  0  0  0  0  0
  -20.9500  -26.8730   22.7230 C   0  0  0  0  0  2  0  0  0  0  0  0
  -19.9190  -26.4800   21.6600 C   0  0  0  0  0  2  0  0  0  0  0  0
  -18.4980  -26.6160   22.2170 C   0  0  0  0  0  2  0  0  0  0  0  0
  -19.3260  -28.7970   23.2810 C   0  0  0  0  0  0  0  0  0  0  0  0
  -19.0430  -30.0780   23.8030 C   0  0  0  0  0  3  0  0  0  0  0  0
  -17.7190  -30.5520   23.8730 C   0  0  0  0  0  3  0  0  0  0  0  0
  -16.6590  -29.7410   23.4320 C   0  0  0  0  0  3  0  0  0  0  0  0
  -16.9260  -28.4630   22.9110 C   0  0  0  0  0  3  0  0  0  0  0  0
  -26.0050  -32.5770   23.9820 C   0  0  0  0  0  3  0  0  0  0  0  0
  -26.4990  -31.8290   25.2820 C   0  0  1  0  0  0  0  0  0  0  0  0
  -25.3740  -31.5560   26.3080 C   0  0  0  0  0  1  0  0  0  0  0  0
  -27.1480  -30.4720   24.9200 C   0  0  0  0  0  1  0  0  0  0  0  0
  -27.5930  -32.6670   25.9850 C   0  0  0  0  0  1  0  0  0  0  0  0
  -25.6610  -33.9730   24.2900 N   0  0  0  0  0  0  0  0  0  0  0  0
  -25.9930  -35.0260   23.5300 C   0  0  0  0  0  0  0  0  0  0  0  0
  -26.6910  -34.9250   22.5170 O   0  0  0  0  0  0  0  0  0  0  0  0
  -25.0490  -34.1250   25.0770 H   0  0  0  0  0  0  0  0  0  0  0  0
  -24.2350  -36.7780   23.1240 C   0  0  0  0  0  1  0  0  0  0  0  0
  -25.4690  -36.4090   23.9610 C   0  0  0  0  0  3  0  0  0  0  0  0
  -27.5740  -37.3440   24.8120 C   0  0  0  0  0  1  0  0  0  0  0  0
  -26.4800  -37.4820   23.8540 N   0  0  0  0  0  0  0  0  0  0  0  0
  -26.0540  -38.3950   23.9890 H   0  0  0  0  0  0  0  0  0  0  0  0
  -31.0460  -17.4570   20.5290 C   0  0  0  0  0  3  0  0  0  0  0  0
  -31.4500  -14.8450   20.7030 C   0  0  0  0  0  0  0  0  0  0  0  0
  -31.3690  -12.3840   20.2600 C   0  0  0  0  0  2  0  0  0  0  0  0
  -30.5920  -12.1260   18.9510 C   0  0  0  0  0  2  0  0  0  0  0  0
  -29.0830  -11.9970   19.2490 C   0  0  0  0  0  2  0  0  0  0  0  0
  -28.5530  -13.1520   20.1410 C   0  0  0  0  0  3  0  0  0  0  0  0
  -29.4680  -13.4060   21.3580 C   0  0  0  0  0  2  0  0  0  0  0  0
  -30.8250  -13.6290   20.8460 N   0  0  0  0  0  0  0  0  0  0  0  0
  -32.6720  -14.9030   20.5480 O   0  0  0  0  0  0  0  0  0  0  0  0
  -30.6650  -15.9750   20.5230 N   0  0  0  0  0  0  0  0  0  0  0  0
  -29.6740  -15.7960   20.4930 H   0  0  0  0  0  0  0  0  0  0  0  0
  -26.1580  -13.8940   20.6900 C   0  0  0  0  0  0  0  0  0  0  0  0
  -25.0200  -13.1900   20.9790 C   0  0  0  0  0  0  0  0  0  0  0  0
  -25.4020  -11.8140   21.0010 C   0  0  0  0  0  0  0  0  0  0  0  0
  -27.1600  -12.9510   20.5330 N   0  0  0  0  0  0  0  0  0  0  0  0
  -26.7090  -11.6960   20.7890 N   0  0  0  0  0  0  0  0  0  0  0  0
  -24.5910  -10.5990   21.1520 C   0  0  0  0  0  0  0  0  0  0  0  0
  -24.9230   -9.5960   22.0910 C   0  0  0  0  0  3  0  0  0  0  0  0
  -24.1110   -8.4510   22.2330 C   0  0  0  0  0  3  0  0  0  0  0  0
  -22.9540   -8.2970   21.4310 C   0  0  0  0  0  0  0  0  0  0  0  0
  -22.6410   -9.2860   20.4820 C   0  0  0  0  0  3  0  0  0  0  0  0
  -23.4540  -10.4230   20.3370 C   0  0  0  0  0  3  0  0  0  0  0  0
  -22.1260   -7.2020   21.4760 O   0  0  0  0  0  0  0  0  0  0  0  0
  -22.0190   -6.4270   22.6030 C   0  0  0  0  0  0  0  0  0  0  0  0
  -21.6170   -6.9650   23.8450 C   0  0  0  0  0  3  0  0  0  0  0  0
  -21.4550   -6.1200   24.9600 C   0  0  0  0  0  3  0  0  0  0  0  0
  -21.6820   -4.7370   24.8340 C   0  0  0  0  0  0  0  0  0  0  0  0
  -22.0810   -4.1980   23.5990 C   0  0  0  0  0  3  0  0  0  0  0  0
  -22.2460   -5.0420   22.4850 C   0  0  0  0  0  0  0  0  0  0  0  0
  -22.6080   -4.5140   21.2910 F   0  0  0  0  0  0  0  0  0  0  0  0
  -21.5210   -3.9210   25.9050 F   0  0  0  0  0  0  0  0  0  0  0  0
  -23.6360  -13.7570   21.1310 C   0  0  0  0  0  0  0  0  0  0  0  0
  -22.8060  -13.1390   21.9620 N   0  0  0  0  0  0  0  0  0  0  0  0
  -23.2990  -14.7830   20.5440 O   0  0  0  0  0  0  0  0  0  0  0  0
  -23.0830  -12.3060   22.4600 H   0  0  0  0  0  0  0  0  0  0  0  0
  -21.8750  -13.5050   22.1040 H   0  0  0  0  0  0  0  0  0  0  0  0
  -26.4140  -15.2530   20.5230 N   0  0  0  0  0  0  0  0  0  0  0  0
  -25.6740  -15.9440   20.5960 H   0  0  0  0  0  0  0  0  0  0  0  0
  -27.2970  -15.6500   20.2340 H   0  0  0  0  0  0  0  0  0  0  0  0
  -31.6200  -17.8300   21.9210 C   0  0  0  0  0  2  0  0  0  0  0  0
  -30.5740  -17.8860   23.0610 C   0  0  0  0  0  2  0  0  0  0  0  0
  -31.1410  -18.3420   24.4140 C   0  0  0  0  0  2  0  0  0  0  0  0
  -29.1600  -19.0550   25.6860 C   0  0  0  0  0  2  0  0  0  0  0  0
  -28.0790  -18.7870   26.4330 N   0  0  0  0  0  0  0  0  0  0  0  0
  -30.1270  -18.1510   25.4550 N   0  0  0  0  0  0  0  0  0  0  0  0
  -27.9110  -17.8790   26.8400 H   0  0  0  0  0  0  0  0  0  0  0  0
  -27.3460  -19.4770   26.5340 H   0  0  0  0  0  0  0  0  0  0  0  0
  -30.1280  -17.2590   25.9250 H   0  0  0  0  0  0  0  0  0  0  0  0
  1  2  1  0
  1 50  1  0
  2  4  1  0
  3  1  2  0
  5  2  1  0
  5  6  1  0
  7  6  1  0
  7  8  2  0
  9  8  1  0
 10 21  2  0
 11  9  1  0
 11 16  1  0
 12 20  1  0
 12 22  1  0
 13 15  1  0
 14 20  1  0
 15 16  2  0
 15 14  1  0
 17 11  2  0
 18 17  1  0
 18 13  2  0
 19 13  1  0
 19 12  1  0
 20 10  1  0
 22 24  2  0
 23 22  1  0
 25 23  1  0
 26 35  2  0
 26 31  1  0
 27 23  1  0
 27 31  1  0
 28 27  1  0
 29 30  1  0
 29 28  1  0
 30 26  1  0
 31 32  2  0
 32 33  1  0
 34 33  2  0
 35 34  1  0
 36 10  1  0
 36 41  1  0
 36 37  1  0
 37 40  1  1
 37 38  1  0
 39 37  1  0
 41 44  1  0
 42 46  1  0
 42 41  1  0
 43 42  2  0
 46 45  1  0
 48 46  1  0
 48 49  1  0
 48 47  1  0
 50 89  1  0
 51 57  1  0
 52 57  1  0
 53 54  1  0
 53 52  1  0
 55 54  1  0
 55 64  1  0
 55 56  1  0
 57 56  1  0
 58 51  2  0
 59 50  1  0
 59 51  1  0
 60 59  1  0
 61 62  2  0
 62 63  1  0
 62 81  1  0
 63 66  1  0
 64 61  1  0
 64 65  1  0
 65 63  2  0
 66 67  1  0
 67 68  2  0
 69 72  1  0
 69 68  1  0
 70 69  2  0
 71 70  1  0
 71 66  2  0
 72 73  1  0
 73 74  1  0
 74 75  2  0
 76 75  1  0
 76 80  1  0
 77 76  2  0
 78 73  2  0
 78 77  1  0
 79 78  1  0
 81 82  1  0
 82 85  1  0
 82 84  1  0
 83 81  2  0
 86 87  1  0
 86 61  1  0
 88 86  1  0
 89 90  1  0
 90 91  1  0
 91 94  1  0
 92 93  1  0
 93 96  1  0
 93 95  1  0
 94 92  1  0
 94 97  1  0
M  ISO  4   8 101   9 101  51 100  59 100
M  END
>  <TORSDO>  (77) 
F 25

>  <SCORE>  (77) 
-6.364

>  <name>  (77) 
79

>  <ligand_id>  (77) 
79

>  <original_smiles>  (77) 
[H]C(N([H])[H])=[N+]([H])C([H])([H])C([H])([H])C([H])([H])C([H])(C(=O)N([H])C([H])([H])C([H])([H])C([H])([H])C([H])([H])Oc1c([H])c([H])c2c(c1[H])C([H])([H])N(C(=O)C([H])(N([H])C(=O)C([H])(N([H])C([H])([H])[H])C([H])([H])[H])C(C([H])([H])[H])(C([H])([H])[H])C([H])([H])[H])C([H])(C(=O)N([H])C1([H])c3c([H])c([H])c([H])c([H])c3C([H])([H])C([H])([H])C1([H])[H])C2([H])[H])N([H])C(=O)N1C([H])([H])C([H])([H])C([H])([H])C([H])(n2nc(-c3c([H])c([H])c(Oc4c([H])c([H])c(F)c([H])c4F)c([H])c3[H])c(C(=O)N([H])[H])c2N([H])[H])C1([H])[H]

>  <smiles>  (77) 
[H]C(N([H])[H])=[N+]([H])C([H])([H])C([H])([H])C([H])([H])C([H])(C(=O)N([H])C([H])([H])C([H])([H])C([H])([H])C([H])([H])Oc1c([H])c([H])c2c(c1[H])C([H])([H])N(C(=O)C([H])(N([H])C(=O)C([H])(N([H])C([H])([H])[H])C([H])([H])[H])C(C([H])([H])[H])(C([H])([H])[H])C([H])([H])[H])C([H])(C(=O)N([H])C1([H])c3c([H])c([H])c([H])c([H])c3C([H])([H])C([H])([H])C1([H])[H])C2([H])[H])N([H])C(=O)N1C([H])([H])C([H])([H])C([H])([H])C([H])(n2nc(-c3c([H])c([H])c(Oc4c([H])c([H])c(F)c([H])c4F)c([H])c3[H])c(C(=O)N([H])[H])c2N([H])[H])C1([H])[H]

$$$$
80:0:0
     RDKit          3D

 96103  0  0  1  0  0  0  0  0999 V2000
  -28.5590  -22.3280   19.7180 C   0  0  0  0  0  3  0  0  0  0  0  0
  -27.6000  -22.1450   18.4990 C   0  0  0  0  0  2  0  0  0  0  0  0
  -26.3690  -21.2320   18.7950 C   0  0  0  0  0  2  0  0  0  0  0  0
  -24.5140  -19.7790   17.7860 C   0  0  0  0  0  1  0  0  0  0  0  0
  -25.2930  -21.1090   17.6750 C   0  0  0  0  0  3  0  0  0  0  0  0
  -24.3350  -22.2390   17.6660 N   0  0  0  0  0  4  0  0  0  0  0  0
  -23.7640  -22.2670   18.4900 H   0  0  0  0  0  0  0  0  0  0  0  0
  -23.7280  -22.1550   16.8670 H   0  0  0  0  0  0  0  0  0  0  0  0
  -24.8070  -23.1200   17.5810 H   0  0  0  0  0  0  0  0  0  0  0  0
  -28.3820  -24.1340   20.3740 C   0  0  0  0  0  2  0  0  0  0  0  0
  -28.4970  -25.8460   20.0710 O   0  0  0  0  0  0  0  0  0  0  0  0
  -24.7840  -31.8840   23.2600 C   0  0  0  0  0  0  0  0  0  0  0  0
  -27.4920  -27.0110   20.1340 C   0  0  0  0  0  0  0  0  0  0  0  0
  -23.6780  -30.5200   21.5440 C   0  0  0  0  0  3  0  0  0  0  0  0
  -25.1880  -28.9670   20.1100 C   0  0  0  0  0  0  0  0  0  0  0  0
  -26.2520  -30.7310   21.4960 C   0  0  0  0  0  2  0  0  0  0  0  0
  -26.3620  -29.3320   20.7830 C   0  0  0  0  0  0  0  0  0  0  0  0
  -27.5100  -28.3840   20.7570 C   0  0  0  0  0  3  0  0  0  0  0  0
  -26.2780  -26.8440   19.4310 C   0  0  0  0  0  3  0  0  0  0  0  0
  -25.1850  -27.7490   19.4110 C   0  0  0  0  0  3  0  0  0  0  0  0
  -23.9650  -29.8870   20.1550 C   0  0  0  0  0  2  0  0  0  0  0  0
  -24.9270  -31.0740   22.1560 N   0  0  0  0  0  0  0  0  0  0  0  0
  -23.6740  -32.1480   23.7490 O   0  0  0  0  0  0  0  0  0  0  0  0
  -22.9610  -29.4860   22.4540 C   0  0  0  0  0  0  0  0  0  0  0  0
  -21.6330  -29.3210   22.2990 N   0  0  0  0  0  0  0  0  0  0  0  0
  -23.6080  -28.8290   23.2720 O   0  0  0  0  0  0  0  0  0  0  0  0
  -21.1580  -29.9090   21.6250 H   0  0  0  0  0  0  0  0  0  0  0  0
  -18.2500  -28.0610   22.7190 C   0  0  0  0  0  0  0  0  0  0  0  0
  -20.8040  -28.3390   23.0120 C   0  0  0  0  0  3  0  0  0  0  0  0
  -20.9250  -26.9360   22.3700 C   0  0  0  0  0  2  0  0  0  0  0  0
  -19.8390  -26.6600   21.3300 C   0  0  0  0  0  2  0  0  0  0  0  0
  -18.4480  -26.7550   21.9670 C   0  0  0  0  0  2  0  0  0  0  0  0
  -19.3560  -28.8140   23.1950 C   0  0  0  0  0  0  0  0  0  0  0  0
  -19.1180  -30.0350   23.8590 C   0  0  0  0  0  3  0  0  0  0  0  0
  -17.8070  -30.5100   24.0460 C   0  0  0  0  0  3  0  0  0  0  0  0
  -16.7140  -29.7540   23.5830 C   0  0  0  0  0  3  0  0  0  0  0  0
  -16.9370  -28.5310   22.9280 C   0  0  0  0  0  3  0  0  0  0  0  0
  -26.0180  -32.5380   23.9610 C   0  0  0  0  0  3  0  0  0  0  0  0
  -26.4820  -31.7560   25.2530 C   0  0  1  0  0  0  0  0  0  0  0  0
  -25.3360  -31.4720   26.2550 C   0  0  0  0  0  1  0  0  0  0  0  0
  -27.1110  -30.3950   24.8790 C   0  0  0  0  0  1  0  0  0  0  0  0
  -27.5760  -32.5670   25.9830 C   0  0  0  0  0  1  0  0  0  0  0  0
  -25.6570  -33.9240   24.3180 N   0  0  0  0  0  0  0  0  0  0  0  0
  -26.0080  -35.0180   23.6290 C   0  0  0  0  0  0  0  0  0  0  0  0
  -26.7280  -34.9660   22.6320 O   0  0  0  0  0  0  0  0  0  0  0  0
  -25.0130  -34.0390   25.0870 H   0  0  0  0  0  0  0  0  0  0  0  0
  -24.2740  -36.8140   23.2830 C   0  0  0  0  0  1  0  0  0  0  0  0
  -25.4810  -36.3800   24.1270 C   0  0  0  0  0  3  0  0  0  0  0  0
  -27.5620  -37.2580   25.0980 C   0  0  0  0  0  1  0  0  0  0  0  0
  -26.5030  -37.4470   24.1090 N   0  0  0  0  0  0  0  0  0  0  0  0
  -26.0810  -38.3560   24.2750 H   0  0  0  0  0  0  0  0  0  0  0  0
  -29.6620  -20.7600   19.8960 C   0  0  0  0  0  3  0  0  0  0  0  0
  -29.7670  -18.9040   19.3760 C   0  0  0  0  0  2  0  0  0  0  0  0
  -30.6050  -15.9250   19.9900 C   0  0  0  0  0  0  0  0  0  0  0  0
  -30.7600  -13.3380   19.4340 C   0  0  0  0  0  2  0  0  0  0  0  0
  -29.8770  -12.8640   18.2470 C   0  0  0  0  0  2  0  0  0  0  0  0
  -28.4510  -12.5360   18.7150 C   0  0  0  0  0  2  0  0  0  0  0  0
  -27.9280  -13.6030   19.7010 C   0  0  0  0  0  3  0  0  0  0  0  0
  -28.9470  -13.9980   20.7970 C   0  0  0  0  0  2  0  0  0  0  0  0
  -30.1250  -14.5550   20.1020 N   0  0  0  0  0  0  0  0  0  0  0  0
  -31.8240  -15.8960   19.7300 O   0  0  0  0  0  0  0  0  0  0  0  0
  -29.7990  -17.2470   19.9870 N   0  0  0  0  0  0  0  0  0  0  0  0
  -28.8660  -16.9980   20.2860 H   0  0  0  0  0  0  0  0  0  0  0  0
  -25.5950  -14.1670   20.5250 C   0  0  0  0  0  0  0  0  0  0  0  0
  -24.5290  -13.3960   20.8990 C   0  0  0  0  0  0  0  0  0  0  0  0
  -24.9730  -12.0430   20.8300 C   0  0  0  0  0  0  0  0  0  0  0  0
  -26.6150  -13.2830   20.2380 N   0  0  0  0  0  0  0  0  0  0  0  0
  -26.2580  -11.9940   20.4880 N   0  0  0  0  0  0  0  0  0  0  0  0
  -24.2280  -10.7880   21.0040 C   0  0  0  0  0  0  0  0  0  0  0  0
  -24.6190   -9.8190   21.9540 C   0  0  0  0  0  3  0  0  0  0  0  0
  -23.8670   -8.6340   22.1180 C   0  0  0  0  0  3  0  0  0  0  0  0
  -22.7130   -8.4080   21.3290 C   0  0  0  0  0  0  0  0  0  0  0  0
  -22.3410   -9.3700   20.3720 C   0  0  0  0  0  3  0  0  0  0  0  0
  -23.0930  -10.5440   20.2060 C   0  0  0  0  0  3  0  0  0  0  0  0
  -21.9380   -7.2770   21.4020 O   0  0  0  0  0  0  0  0  0  0  0  0
  -21.7940   -6.5770   22.5750 C   0  0  0  0  0  0  0  0  0  0  0  0
  -21.2580   -7.1730   23.7360 C   0  0  0  0  0  3  0  0  0  0  0  0
  -21.0600   -6.4010   24.8980 C   0  0  0  0  0  3  0  0  0  0  0  0
  -21.3890   -5.0310   24.8970 C   0  0  0  0  0  0  0  0  0  0  0  0
  -21.9180   -4.4340   23.7400 C   0  0  0  0  0  3  0  0  0  0  0  0
  -22.1150   -5.2050   22.5800 C   0  0  0  0  0  0  0  0  0  0  0  0
  -22.6060   -4.6200   21.4600 F   0  0  0  0  0  0  0  0  0  0  0  0
  -21.1930   -4.2860   26.0100 F   0  0  0  0  0  0  0  0  0  0  0  0
  -23.1490  -13.8950   21.2070 C   0  0  0  0  0  0  0  0  0  0  0  0
  -22.4340  -13.2130   22.0970 N   0  0  0  0  0  0  0  0  0  0  0  0
  -22.7150  -14.9260   20.6970 O   0  0  0  0  0  0  0  0  0  0  0  0
  -22.7980  -12.3810   22.5350 H   0  0  0  0  0  0  0  0  0  0  0  0
  -21.5130  -13.5440   22.3520 H   0  0  0  0  0  0  0  0  0  0  0  0
  -25.7720  -15.5370   20.3680 N   0  0  0  0  0  0  0  0  0  0  0  0
  -24.9990  -16.1860   20.4740 H   0  0  0  0  0  0  0  0  0  0  0  0
  -26.5930  -15.9670   19.9670 H   0  0  0  0  0  0  0  0  0  0  0  0
  -30.5500  -20.9630   21.1380 C   0  0  0  0  0  2  0  0  0  0  0  0
  -29.7940  -20.9450   22.3970 N   0  0  0  0  0  4  0  0  0  0  0  0
  -29.0910  -21.6610   22.4080 H   0  0  0  0  0  0  0  0  0  0  0  0
  -30.4120  -21.1040   23.1710 H   0  0  0  0  0  0  0  0  0  0  0  0
  -29.3500  -20.0560   22.5250 H   0  0  0  0  0  0  0  0  0  0  0  0
  1  2  1  0
  1 52  1  0
  1 10  1  0
  2  3  1  0
  5  4  1  0
  5  3  1  0
  6  5  1  0
  6  7  1  0
  8  6  1  0
  9  6  1  0
 11 13  1  0
 11 10  1  0
 12 23  2  0
 13 18  1  0
 14 22  1  0
 14 24  1  0
 15 21  1  0
 15 17  1  0
 16 22  1  0
 17 16  1  0
 18 17  2  0
 19 13  2  0
 20 19  1  0
 20 15  2  0
 21 14  1  0
 22 12  1  0
 24 26  2  0
 25 24  1  0
 27 25  1  0
 28 37  2  0
 28 33  1  0
 29 25  1  0
 29 33  1  0
 30 29  1  0
 31 32  1  0
 31 30  1  0
 32 28  1  0
 33 34  2  0
 34 35  1  0
 36 35  2  0
 37 36  1  0
 38 12  1  0
 38 43  1  0
 38 39  1  0
 39 42  1  1
 39 40  1  0
 41 39  1  0
 43 46  1  0
 44 48  1  0
 44 43  1  0
 45 44  2  0
 48 47  1  0
 50 48  1  0
 50 51  1  0
 50 49  1  0
 52 53  1  0
 52 92  1  0
 53 62  1  0
 54 60  1  0
 55 60  1  0
 56 57  1  0
 56 55  1  0
 58 57  1  0
 58 67  1  0
 58 59  1  0
 60 59  1  0
 61 54  2  0
 62 54  1  0
 62 63  1  0
 64 65  2  0
 65 84  1  0
 66 65  1  0
 66 69  1  0
 67 68  1  0
 67 64  1  0
 68 66  2  0
 69 70  1  0
 70 71  2  0
 72 75  1  0
 72 71  1  0
 73 72  2  0
 74 73  1  0
 74 69  2  0
 75 76  1  0
 76 81  2  0
 76 77  1  0
 77 78  2  0
 79 78  1  0
 79 83  1  0
 80 79  2  0
 81 80  1  0
 82 81  1  0
 84 85  1  0
 85 88  1  0
 85 87  1  0
 86 84  2  0
 89 90  1  0
 89 64  1  0
 91 89  1  0
 92 93  1  0
 93 94  1  0
 93 96  1  0
 93 95  1  0
M  ISO  4  10 101  11 101  54 100  62 100
M  END
>  <TORSDO>  (78) 
F 25

>  <SCORE>  (78) 
-13.843

>  <name>  (78) 
80

>  <ligand_id>  (78) 
80

>  <original_smiles>  (78) 
[H]c1c([H])c([H])c2c(c1[H])C([H])([H])C([H])([H])C([H])([H])C2([H])N([H])C(=O)C1([H])N(C(=O)C([H])(N([H])C(=O)C([H])(N([H])C([H])([H])[H])C([H])([H])[H])C(C([H])([H])[H])(C([H])([H])[H])C([H])([H])[H])C([H])([H])c2c([H])c(OC([H])([H])C([H])(C([H])([H])C([H])([H])C([H])(C([H])([H])[H])[N+]([H])([H])[H])C([H])(C([H])([H])N([H])C(=O)N3C([H])([H])C([H])([H])C([H])([H])C([H])(n4nc(-c5c([H])c([H])c(Oc6c([H])c([H])c(F)c([H])c6F)c([H])c5[H])c(C(=O)N([H])[H])c4N([H])[H])C3([H])[H])C([H])([H])[N+]([H])([H])[H])c([H])c([H])c2C1([H])[H]

>  <smiles>  (78) 
[H]c1c([H])c([H])c2c(c1[H])C([H])([H])C([H])([H])C([H])([H])C2([H])N([H])C(=O)C1([H])N(C(=O)C([H])(N([H])C(=O)C([H])(N([H])C([H])([H])[H])C([H])([H])[H])C(C([H])([H])[H])(C([H])([H])[H])C([H])([H])[H])C([H])([H])c2c([H])c(OC([H])([H])C([H])(C([H])([H])C([H])([H])C([H])(C([H])([H])[H])[N+]([H])([H])[H])C([H])(C([H])([H])N([H])C(=O)N3C([H])([H])C([H])([H])C([H])([H])C([H])(n4nc(-c5c([H])c([H])c(Oc6c([H])c([H])c(F)c([H])c6F)c([H])c5[H])c(C(=O)N([H])[H])c4N([H])[H])C3([H])[H])C([H])([H])[N+]([H])([H])[H])c([H])c([H])c2C1([H])[H]

$$$$
81:0:0
     RDKit          3D

104111  0  0  1  0  0  0  0  0999 V2000
  -28.1720  -23.1930   19.8620 C   0  0  0  0  0  3  0  0  0  0  0  0
  -28.4450  -23.2550   21.3750 C   0  0  0  0  0  0  0  0  0  0  0  0
  -29.0330  -24.3210   21.9380 N   0  0  0  0  0  0  0  0  0  0  0  0
  -28.0700  -22.3070   22.0650 O   0  0  0  0  0  0  0  0  0  0  0  0
  -29.3220  -25.0960   21.3550 H   0  0  0  0  0  0  0  0  0  0  0  0
  -29.2320  -24.4560   23.3930 C   0  0  0  0  0  3  0  0  0  0  0  0
  -29.0120  -25.8910   23.9010 C   0  0  0  0  0  0  0  0  0  0  0  0
  -28.2490  -26.6940   23.1700 N   0  0  0  0  0  0  0  0  0  0  0  0
  -29.5100  -26.2840   24.9580 O   0  0  0  0  0  0  0  0  0  0  0  0
  -27.8150  -26.3430   22.3300 H   0  0  0  0  0  0  0  0  0  0  0  0
  -28.0340  -27.6260   23.4950 H   0  0  0  0  0  0  0  0  0  0  0  0
  -30.5310  -23.7500   23.8760 C   0  0  0  0  0  2  0  0  0  0  0  0
  -29.9090  -21.3080   23.4580 C   0  0  0  0  0  1  0  0  0  0  0  0
  -31.4820  -21.8800   25.3470 C   0  0  0  0  0  1  0  0  0  0  0  0
  -30.2810  -22.3620   24.5170 C   0  0  0  0  0  3  0  0  0  0  0  0
  -28.7190  -21.7470   19.1670 C   0  0  0  0  0  3  0  0  0  0  0  0
  -29.4020  -20.3870   19.9060 C   0  0  0  0  0  3  0  0  0  0  0  0
  -29.5190  -18.8280   19.2770 C   0  0  0  0  0  3  0  0  0  0  0  0
  -30.4350  -17.6110   19.9850 C   0  0  0  0  0  2  0  0  0  0  0  0
  -30.9770  -14.9230   19.8370 C   0  0  0  0  0  0  0  0  0  0  0  0
  -30.9020  -12.5010   19.1290 C   0  0  0  0  0  2  0  0  0  0  0  0
  -29.9450  -12.3150   17.9290 C   0  0  0  0  0  2  0  0  0  0  0  0
  -28.4860  -12.1480   18.4050 C   0  0  0  0  0  2  0  0  0  0  0  0
  -28.0790  -13.1730   19.4960 C   0  0  0  0  0  3  0  0  0  0  0  0
  -29.1580  -13.2920   20.5920 C   0  0  0  0  0  2  0  0  0  0  0  0
  -30.4110  -13.6610   19.9160 N   0  0  0  0  0  0  0  0  0  0  0  0
  -32.1760  -15.0100   19.5450 O   0  0  0  0  0  0  0  0  0  0  0  0
  -30.1580  -16.0700   19.8840 N   0  0  0  0  0  0  0  0  0  0  0  0
  -29.1900  -15.8280   20.0290 H   0  0  0  0  0  0  0  0  0  0  0  0
  -25.7600  -13.7890   20.3980 C   0  0  0  0  0  0  0  0  0  0  0  0
  -24.6910  -13.0310   20.7840 C   0  0  0  0  0  0  0  0  0  0  0  0
  -25.1060  -11.6690   20.6590 C   0  0  0  0  0  0  0  0  0  0  0  0
  -26.7600  -12.8920   20.0570 N   0  0  0  0  0  0  0  0  0  0  0  0
  -26.3770  -11.6070   20.2790 N   0  0  0  0  0  0  0  0  0  0  0  0
  -24.3460  -10.4220   20.8250 C   0  0  0  0  0  0  0  0  0  0  0  0
  -24.7350   -9.4390   21.7610 C   0  0  0  0  0  3  0  0  0  0  0  0
  -23.9740   -8.2580   21.9130 C   0  0  0  0  0  3  0  0  0  0  0  0
  -22.8110   -8.0570   21.1320 C   0  0  0  0  0  0  0  0  0  0  0  0
  -22.4420   -9.0300   20.1870 C   0  0  0  0  0  3  0  0  0  0  0  0
  -23.2030  -10.2000   20.0320 C   0  0  0  0  0  3  0  0  0  0  0  0
  -22.0220   -6.9340   21.1950 O   0  0  0  0  0  0  0  0  0  0  0  0
  -21.8650   -6.2310   22.3650 C   0  0  0  0  0  0  0  0  0  0  0  0
  -21.3330   -6.8280   23.5280 C   0  0  0  0  0  3  0  0  0  0  0  0
  -21.1260   -6.0500   24.6850 C   0  0  0  0  0  3  0  0  0  0  0  0
  -21.4410   -4.6770   24.6770 C   0  0  0  0  0  0  0  0  0  0  0  0
  -21.9660   -4.0820   23.5160 C   0  0  0  0  0  3  0  0  0  0  0  0
  -22.1760   -4.8570   22.3630 C   0  0  0  0  0  0  0  0  0  0  0  0
  -22.6640   -4.2730   21.2420 F   0  0  0  0  0  0  0  0  0  0  0  0
  -21.2340   -3.9300   25.7850 F   0  0  0  0  0  0  0  0  0  0  0  0
  -23.3260  -13.5410   21.1470 C   0  0  0  0  0  0  0  0  0  0  0  0
  -22.6130  -12.8330   22.0160 N   0  0  0  0  0  0  0  0  0  0  0  0
  -22.9020  -14.6050   20.6960 O   0  0  0  0  0  0  0  0  0  0  0  0
  -22.9640  -11.9760   22.4150 H   0  0  0  0  0  0  0  0  0  0  0  0
  -21.6980  -13.1590   22.2920 H   0  0  0  0  0  0  0  0  0  0  0  0
  -25.9540  -15.1640   20.2790 N   0  0  0  0  0  0  0  0  0  0  0  0
  -25.2040  -15.8240   20.4590 H   0  0  0  0  0  0  0  0  0  0  0  0
  -26.7770  -15.6030   19.8890 H   0  0  0  0  0  0  0  0  0  0  0  0
  -29.8230  -18.8830   17.7620 C   0  0  0  0  0  2  0  0  0  0  0  0
  -31.1340  -19.4790   17.4540 N   0  0  0  0  0  4  0  0  0  0  0  0
  -31.2170  -20.3970   17.8510 H   0  0  0  0  0  0  0  0  0  0  0  0
  -31.2370  -19.5600   16.4580 H   0  0  0  0  0  0  0  0  0  0  0  0
  -31.8840  -18.9070   17.7970 H   0  0  0  0  0  0  0  0  0  0  0  0
  -28.0880  -24.6620   19.0430 C   0  0  0  0  0  2  0  0  0  0  0  0
  -28.0680  -26.1270   19.5330 O   0  0  0  0  0  0  0  0  0  0  0  0
  -24.5490  -31.5070   22.9680 C   0  0  0  0  0  0  0  0  0  0  0  0
  -26.9870  -27.0660   19.4970 C   0  0  0  0  0  0  0  0  0  0  0  0
  -23.2810  -30.2580   21.2570 C   0  0  0  0  0  3  0  0  0  0  0  0
  -24.6690  -28.7990   19.6540 C   0  0  0  0  0  0  0  0  0  0  0  0
  -25.8250  -30.5290   21.0310 C   0  0  0  0  0  2  0  0  0  0  0  0
  -25.8640  -29.1970   20.2660 C   0  0  0  0  0  0  0  0  0  0  0  0
  -27.0180  -28.3430   20.1760 C   0  0  0  0  0  3  0  0  0  0  0  0
  -25.7710  -26.7560   18.8510 C   0  0  0  0  0  3  0  0  0  0  0  0
  -24.6360  -27.5930   18.9310 C   0  0  0  0  0  3  0  0  0  0  0  0
  -23.4520  -29.6950   19.8170 C   0  0  0  0  0  2  0  0  0  0  0  0
  -24.5730  -30.7830   21.8070 N   0  0  0  0  0  0  0  0  0  0  0  0
  -23.4840  -31.7550   23.5530 O   0  0  0  0  0  0  0  0  0  0  0  0
  -22.6280  -29.1790   22.1550 C   0  0  0  0  0  0  0  0  0  0  0  0
  -21.2930  -29.0310   22.0630 N   0  0  0  0  0  0  0  0  0  0  0  0
  -23.3210  -28.4810   22.8990 O   0  0  0  0  0  0  0  0  0  0  0  0
  -20.7890  -29.6530   21.4470 H   0  0  0  0  0  0  0  0  0  0  0  0
  -17.9220  -27.8100   22.5560 C   0  0  0  0  0  0  0  0  0  0  0  0
  -20.4870  -28.0410   22.7810 C   0  0  0  0  0  3  0  0  0  0  0  0
  -20.5650  -26.6550   22.0980 C   0  0  0  0  0  2  0  0  0  0  0  0
  -19.4380  -26.4140   21.0890 C   0  0  0  0  0  2  0  0  0  0  0  0
  -18.0740  -26.5160   21.7760 C   0  0  0  0  0  2  0  0  0  0  0  0
  -19.0540  -28.5350   23.0140 C   0  0  0  0  0  0  0  0  0  0  0  0
  -18.8540  -29.7490   23.7050 C   0  0  0  0  0  3  0  0  0  0  0  0
  -17.5550  -30.2380   23.9420 C   0  0  0  0  0  3  0  0  0  0  0  0
  -16.4390  -29.5090   23.4990 C   0  0  0  0  0  3  0  0  0  0  0  0
  -16.6220  -28.2960   22.8110 C   0  0  0  0  0  3  0  0  0  0  0  0
  -25.8570  -32.0760   23.6010 C   0  0  0  0  0  3  0  0  0  0  0  0
  -26.4310  -31.1720   24.7600 C   0  0  1  0  0  0  0  0  0  0  0  0
  -25.3950  -30.8240   25.8530 C   0  0  0  0  0  1  0  0  0  0  0  0
  -26.9820  -29.8410   24.1970 C   0  0  0  0  0  1  0  0  0  0  0  0
  -27.6190  -31.8890   25.4460 C   0  0  0  0  0  1  0  0  0  0  0  0
  -25.5590  -33.4270   24.1040 N   0  0  0  0  0  0  0  0  0  0  0  0
  -25.8910  -34.5650   23.4800 C   0  0  0  0  0  0  0  0  0  0  0  0
  -26.5470  -34.5870   22.4360 O   0  0  0  0  0  0  0  0  0  0  0  0
  -24.9780  -33.4830   24.9270 H   0  0  0  0  0  0  0  0  0  0  0  0
  -24.1760  -36.4040   23.3790 C   0  0  0  0  0  1  0  0  0  0  0  0
  -25.4220  -35.8890   24.1160 C   0  0  0  0  0  3  0  0  0  0  0  0
  -27.5710  -36.6510   25.0320 C   0  0  0  0  0  1  0  0  0  0  0  0
  -26.4630  -36.9400   24.1250 N   0  0  0  0  0  0  0  0  0  0  0  0
  -26.0650  -37.8370   24.3900 H   0  0  0  0  0  0  0  0  0  0  0  0
  1 63  1  0
  1  2  1  0
  2  3  1  0
  2  4  2  0
  3  6  1  0
  5  3  1  0
  6 12  1  0
  6  7  1  0
  7  9  2  0
  8 11  1  0
  8  7  1  0
 10  8  1  0
 12 15  1  0
 13 15  1  0
 15 14  1  0
 16  1  1  0
 16 17  2  0
 18 58  1  0
 18 17  1  0
 18 19  1  0
 20 28  1  0
 20 26  1  0
 21 26  1  0
 22 23  1  0
 22 21  1  0
 24 23  1  0
 24 33  1  0
 24 25  1  0
 26 25  1  0
 27 20  2  0
 28 19  1  0
 28 29  1  0
 30 31  2  0
 31 50  1  0
 32 31  1  0
 32 35  1  0
 33 34  1  0
 33 30  1  0
 34 32  2  0
 35 36  1  0
 36 37  2  0
 38 41  1  0
 38 37  1  0
 39 38  2  0
 40 39  1  0
 40 35  2  0
 41 42  1  0
 42 43  1  0
 43 44  2  0
 45 44  1  0
 45 49  1  0
 46 45  2  0
 47 42  2  0
 47 46  1  0
 48 47  1  0
 50 51  1  0
 51 54  1  0
 51 53  1  0
 52 50  2  0
 55 30  1  0
 55 56  1  0
 57 55  1  0
 59 58  1  0
 59 62  1  0
 59 60  1  0
 61 59  1  0
 63 64  1  0
 65 76  2  0
 66 64  1  0
 66 71  1  0
 67 75  1  0
 67 77  1  0
 68 74  1  0
 68 70  1  0
 69 75  1  0
 70 69  1  0
 71 70  2  0
 72 73  1  0
 72 66  2  0
 73 68  2  0
 74 67  1  0
 75 65  1  0
 77 79  2  0
 78 77  1  0
 80 78  1  0
 81 90  2  0
 81 86  1  0
 82 78  1  0
 82 86  1  0
 83 82  1  0
 84 85  1  0
 84 83  1  0
 85 81  1  0
 86 87  2  0
 87 88  1  0
 89 88  2  0
 90 89  1  0
 91 65  1  0
 91 96  1  0
 91 92  1  0
 92 95  1  1
 92 93  1  0
 94 92  1  0
 96 99  1  0
 97 96  1  0
 97101  1  0
 98 97  2  0
101100  1  0
101103  1  0
103104  1  0
103102  1  0
M  ISO  4  20 100  28 100  63 101  64 101
M  END
>  <TORSDO>  (79) 
F 28

>  <SCORE>  (79) 
-9.921

>  <name>  (79) 
81

>  <ligand_id>  (79) 
81

>  <original_smiles>  (79) 
[H]c1c([H])c([H])c2c(c1[H])C([H])([H])C([H])([H])C([H])([H])C2([H])N([H])C(=O)C1([H])N(C(=O)C([H])(N([H])C(=O)C([H])(N([H])C([H])([H])[H])C([H])([H])[H])C(C([H])([H])[H])(C([H])([H])[H])C([H])([H])[H])C([H])([H])c2c([H])c(OC([H])([H])C([H])(C(=O)N([H])C([H])(C(=O)N([H])[H])C([H])([H])C([H])(C([H])([H])[H])C([H])([H])[H])C([H])([H])C([H])([H])C([H])(C([H])([H])N([H])C(=O)N3C([H])([H])C([H])([H])C([H])([H])C([H])(n4nc(-c5c([H])c([H])c(Oc6c([H])c([H])c(F)c([H])c6F)c([H])c5[H])c(C(=O)N([H])[H])c4N([H])[H])C3([H])[H])C([H])([H])[N+]([H])([H])[H])c([H])c([H])c2C1([H])[H]

>  <smiles>  (79) 
[H]c1c([H])c([H])c2c(c1[H])C([H])([H])C([H])([H])C([H])([H])C2([H])N([H])C(=O)C1([H])N(C(=O)C([H])(N([H])C(=O)C([H])(N([H])C([H])([H])[H])C([H])([H])[H])C(C([H])([H])[H])(C([H])([H])[H])C([H])([H])[H])C([H])([H])c2c([H])c(OC([H])([H])C([H])(C(=O)N([H])C([H])(C(=O)N([H])[H])C([H])([H])C([H])(C([H])([H])[H])C([H])([H])[H])C([H])([H])C([H])([H])C([H])(C([H])([H])N([H])C(=O)N3C([H])([H])C([H])([H])C([H])([H])C([H])(n4nc(-c5c([H])c([H])c(Oc6c([H])c([H])c(F)c([H])c6F)c([H])c5[H])c(C(=O)N([H])[H])c4N([H])[H])C3([H])[H])C([H])([H])[N+]([H])([H])[H])c([H])c([H])c2C1([H])[H]

$$$$
82:0:0
     RDKit          3D

 95102  0  0  1  0  0  0  0  0999 V2000
  -29.6020  -19.0410   19.9510 C   0  0  0  0  0  3  0  0  0  0  0  0
  -30.6860  -19.0480   18.8310 C   0  0  0  0  0  2  0  0  0  0  0  0
  -30.4250  -19.8740   17.5450 C   0  0  0  0  0  3  0  0  0  0  0  0
  -29.5950  -19.1070   16.5950 N   0  0  0  0  0  4  0  0  0  0  0  0
  -30.0910  -18.2960   16.2650 H   0  0  0  0  0  0  0  0  0  0  0  0
  -29.3620  -19.6700   15.7960 H   0  0  0  0  0  0  0  0  0  0  0  0
  -28.7360  -18.8000   17.0160 H   0  0  0  0  0  0  0  0  0  0  0  0
  -32.6530  -21.2360   17.6830 C   0  0  0  0  0  1  0  0  0  0  0  0
  -31.7290  -20.3320   16.8440 C   0  0  0  0  0  2  0  0  0  0  0  0
  -29.9990  -17.6630   20.8500 C   0  0  0  0  0  2  0  0  0  0  0  0
  -30.5320  -14.9680   20.3600 C   0  0  0  0  0  0  0  0  0  0  0  0
  -30.4070  -12.6300   19.3900 C   0  0  0  0  0  2  0  0  0  0  0  0
  -29.4740  -12.6080   18.1600 C   0  0  0  0  0  2  0  0  0  0  0  0
  -28.0060  -12.3950   18.5870 C   0  0  0  0  0  2  0  0  0  0  0  0
  -27.6000  -13.2980   19.7840 C   0  0  0  0  0  3  0  0  0  0  0  0
  -28.6620  -13.2920   20.9020 C   0  0  0  0  0  2  0  0  0  0  0  0
  -29.9280  -13.7120   20.2880 N   0  0  0  0  0  0  0  0  0  0  0  0
  -31.7440  -15.0340   20.1380 O   0  0  0  0  0  0  0  0  0  0  0  0
  -29.7410  -16.1430   20.4740 N   0  0  0  0  0  0  0  0  0  0  0  0
  -28.7590  -15.9110   20.4980 H   0  0  0  0  0  0  0  0  0  0  0  0
  -25.2120  -13.8600   20.5280 C   0  0  0  0  0  0  0  0  0  0  0  0
  -24.1510  -13.0780   20.8960 C   0  0  0  0  0  0  0  0  0  0  0  0
  -24.6240  -11.7300   20.8640 C   0  0  0  0  0  0  0  0  0  0  0  0
  -26.2610  -12.9890   20.2840 N   0  0  0  0  0  0  0  0  0  0  0  0
  -25.9180  -11.7020   20.5530 N   0  0  0  0  0  0  0  0  0  0  0  0
  -23.9040  -10.4630   21.0500 C   0  0  0  0  0  0  0  0  0  0  0  0
  -24.3350   -9.4960   21.9840 C   0  0  0  0  0  3  0  0  0  0  0  0
  -23.6150   -8.2950   22.1580 C   0  0  0  0  0  3  0  0  0  0  0  0
  -22.4450   -8.0540   21.3970 C   0  0  0  0  0  0  0  0  0  0  0  0
  -22.0320   -9.0090   20.4540 C   0  0  0  0  0  3  0  0  0  0  0  0
  -22.7530  -10.2020   20.2780 C   0  0  0  0  0  3  0  0  0  0  0  0
  -21.6900   -6.9080   21.4830 O   0  0  0  0  0  0  0  0  0  0  0  0
  -21.6340   -6.1680   22.6360 C   0  0  0  0  0  0  0  0  0  0  0  0
  -21.1850   -6.7200   23.8560 C   0  0  0  0  0  3  0  0  0  0  0  0
  -21.0780   -5.9030   25.0000 C   0  0  0  0  0  3  0  0  0  0  0  0
  -21.4100   -4.5370   24.9250 C   0  0  0  0  0  0  0  0  0  0  0  0
  -21.8510   -3.9860   23.7080 C   0  0  0  0  0  3  0  0  0  0  0  0
  -21.9600   -4.7980   22.5680 C   0  0  0  0  0  0  0  0  0  0  0  0
  -22.3640   -4.2560   21.3930 F   0  0  0  0  0  0  0  0  0  0  0  0
  -21.3010   -3.7510   26.0220 F   0  0  0  0  0  0  0  0  0  0  0  0
  -22.7490  -13.5470   21.1620 C   0  0  0  0  0  0  0  0  0  0  0  0
  -22.0170  -12.8470   22.0210 N   0  0  0  0  0  0  0  0  0  0  0  0
  -22.3110  -14.5730   20.6400 O   0  0  0  0  0  0  0  0  0  0  0  0
  -22.3830  -12.0190   22.4680 H   0  0  0  0  0  0  0  0  0  0  0  0
  -21.0770  -13.1480   22.2400 H   0  0  0  0  0  0  0  0  0  0  0  0
  -25.3660  -15.2320   20.3500 N   0  0  0  0  0  0  0  0  0  0  0  0
  -24.5900  -15.8790   20.4590 H   0  0  0  0  0  0  0  0  0  0  0  0
  -26.2000  -15.6760   19.9920 H   0  0  0  0  0  0  0  0  0  0  0  0
  -29.5140  -20.5960   20.6550 C   0  0  0  0  0  2  0  0  0  0  0  0
  -28.7870  -21.8680   20.0280 N   0  0  0  0  0  4  0  0  0  0  0  0
  -28.9990  -21.8880   19.0450 H   0  0  0  0  0  0  0  0  0  0  0  0
  -27.7980  -21.6760   20.0950 H   0  0  0  0  0  0  0  0  0  0  0  0
  -28.9870  -23.3670   20.5340 C   0  0  0  0  0  3  0  0  0  0  0  0
  -28.0860  -24.6790   19.9650 C   0  0  0  0  0  3  0  0  0  0  0  0
  -28.2580  -26.1900   20.3240 O   0  0  0  0  0  0  0  0  0  0  0  0
  -24.6330  -31.9070   23.2570 C   0  0  0  0  0  0  0  0  0  0  0  0
  -27.1950  -27.1660   20.2370 C   0  0  0  0  0  0  0  0  0  0  0  0
  -23.4300  -30.5100   21.6200 C   0  0  0  0  0  3  0  0  0  0  0  0
  -24.8720  -28.9210   20.2010 C   0  0  0  0  0  0  0  0  0  0  0  0
  -25.9860  -30.7510   21.4670 C   0  0  0  0  0  2  0  0  0  0  0  0
  -26.0510  -29.3590   20.8170 C   0  0  0  0  0  0  0  0  0  0  0  0
  -27.2110  -28.4960   20.8200 C   0  0  0  0  0  3  0  0  0  0  0  0
  -25.9920  -26.8320   19.5730 C   0  0  0  0  0  3  0  0  0  0  0  0
  -24.8580  -27.6720   19.5610 C   0  0  0  0  0  3  0  0  0  0  0  0
  -23.6480  -29.8240   20.2450 C   0  0  0  0  0  2  0  0  0  0  0  0
  -24.7030  -31.0800   22.1680 N   0  0  0  0  0  0  0  0  0  0  0  0
  -23.5480  -32.2040   23.7780 O   0  0  0  0  0  0  0  0  0  0  0  0
  -22.7410  -29.5130   22.5840 C   0  0  0  0  0  0  0  0  0  0  0  0
  -21.4140  -29.3470   22.4440 N   0  0  0  0  0  0  0  0  0  0  0  0
  -23.4020  -28.8920   23.4180 O   0  0  0  0  0  0  0  0  0  0  0  0
  -20.9390  -29.8980   21.7430 H   0  0  0  0  0  0  0  0  0  0  0  0
  -18.0240  -28.1580   22.9270 C   0  0  0  0  0  0  0  0  0  0  0  0
  -20.5810  -28.4200   23.2150 C   0  0  0  0  0  3  0  0  0  0  0  0
  -20.6840  -26.9830   22.6560 C   0  0  0  0  0  2  0  0  0  0  0  0
  -19.5930  -26.6500   21.6350 C   0  0  0  0  0  2  0  0  0  0  0  0
  -18.2040  -26.8030   22.2620 C   0  0  0  0  0  2  0  0  0  0  0  0
  -19.1400  -28.9250   23.3580 C   0  0  0  0  0  0  0  0  0  0  0  0
  -18.9160  -30.1910   23.9390 C   0  0  0  0  0  3  0  0  0  0  0  0
  -17.6120  -30.6940   24.0920 C   0  0  0  0  0  3  0  0  0  0  0  0
  -16.5090  -29.9280   23.6720 C   0  0  0  0  0  3  0  0  0  0  0  0
  -16.7160  -28.6600   23.1000 C   0  0  0  0  0  3  0  0  0  0  0  0
  -25.9140  -32.5370   23.8870 C   0  0  0  0  0  3  0  0  0  0  0  0
  -26.4100  -31.7740   25.1780 C   0  0  1  0  0  0  0  0  0  0  0  0
  -25.3040  -31.5580   26.2380 C   0  0  0  0  0  1  0  0  0  0  0  0
  -26.9840  -30.3860   24.8130 C   0  0  0  0  0  1  0  0  0  0  0  0
  -27.5610  -32.5670   25.8430 C   0  0  0  0  0  1  0  0  0  0  0  0
  -25.6120  -33.9420   24.2070 N   0  0  0  0  0  0  0  0  0  0  0  0
  -25.9500  -34.9890   23.4450 C   0  0  0  0  0  0  0  0  0  0  0  0
  -26.6170  -34.8750   22.4120 O   0  0  0  0  0  0  0  0  0  0  0  0
  -25.0190  -34.1040   25.0080 H   0  0  0  0  0  0  0  0  0  0  0  0
  -24.2350  -36.7980   23.0870 C   0  0  0  0  0  1  0  0  0  0  0  0
  -25.4750  -36.3850   23.8950 C   0  0  0  0  0  3  0  0  0  0  0  0
  -27.6190  -37.2610   24.7150 C   0  0  0  0  0  1  0  0  0  0  0  0
  -26.5170  -37.4300   23.7720 N   0  0  0  0  0  0  0  0  0  0  0  0
  -26.1190  -38.3550   23.9130 H   0  0  0  0  0  0  0  0  0  0  0  0
  1  2  1  0
  1 49  1  0
  1 10  1  0
  3  9  1  0
  3  2  1  0
  4  7  1  0
  4  3  1  0
  5  4  1  0
  6  4  1  0
  9  8  1  0
 11 19  1  0
 12 17  1  0
 13 14  1  0
 13 12  1  0
 15 14  1  0
 15 24  1  0
 15 16  1  0
 17 11  1  0
 17 16  1  0
 18 11  2  0
 19 20  1  0
 19 10  1  0
 21 22  2  0
 22 41  1  0
 23 22  1  0
 23 26  1  0
 24 21  1  0
 24 25  1  0
 25 23  2  0
 26 27  1  0
 27 28  2  0
 29 32  1  0
 29 28  1  0
 30 29  2  0
 31 30  1  0
 31 26  2  0
 32 33  1  0
 33 34  1  0
 34 35  2  0
 36 35  1  0
 36 40  1  0
 37 36  2  0
 38 33  2  0
 38 37  1  0
 39 38  1  0
 41 42  1  0
 42 45  1  0
 42 44  1  0
 43 41  2  0
 46 47  1  0
 46 21  1  0
 48 46  1  0
 50 52  1  0
 50 53  1  0
 50 49  1  0
 51 50  1  0
 54 55  1  0
 54 53  2  0
 56 67  2  0
 57 55  1  0
 57 62  1  0
 58 66  1  0
 58 68  1  0
 59 65  1  0
 59 61  1  0
 60 66  1  0
 61 62  2  0
 61 60  1  0
 63 57  2  0
 64 63  1  0
 64 59  2  0
 65 58  1  0
 66 56  1  0
 68 70  2  0
 69 68  1  0
 71 69  1  0
 72 81  2  0
 72 77  1  0
 73 69  1  0
 73 77  1  0
 74 73  1  0
 75 76  1  0
 75 74  1  0
 76 72  1  0
 77 78  2  0
 78 79  1  0
 80 79  2  0
 81 80  1  0
 82 56  1  0
 82 87  1  0
 82 83  1  0
 83 86  1  1
 83 84  1  0
 85 83  1  0
 87 90  1  0
 88 92  1  0
 88 87  1  0
 89 88  2  0
 92 91  1  0
 94 92  1  0
 94 95  1  0
 94 93  1  0
M  ISO  4  11 100  19 100  54 101  55 101
M  END
>  <TORSDO>  (80) 
F 25

>  <SCORE>  (80) 
-12.743

>  <name>  (80) 
82

>  <ligand_id>  (80) 
82

>  <original_smiles>  (80) 
[H]c1c([H])c([H])c2c(c1[H])C([H])([H])C([H])([H])C([H])([H])C2([H])N([H])C(=O)C1([H])N(C(=O)C([H])(N([H])C(=O)C([H])(N([H])C([H])([H])[H])C([H])([H])[H])C(C([H])([H])[H])(C([H])([H])[H])C([H])([H])[H])C([H])([H])c2c([H])c(OC([H])([H])C([H])([H])[N+]([H])([H])C([H])([H])C([H])(C([H])([H])N([H])C(=O)N3C([H])([H])C([H])([H])C([H])([H])C([H])(n4nc(-c5c([H])c([H])c(Oc6c([H])c([H])c(F)c([H])c6F)c([H])c5[H])c(C(=O)N([H])[H])c4N([H])[H])C3([H])[H])C([H])([H])C([H])(C([H])([H])C([H])([H])[H])[N+]([H])([H])[H])c([H])c([H])c2C1([H])[H]

>  <smiles>  (80) 
[H]c1c([H])c([H])c2c(c1[H])C([H])([H])C([H])([H])C([H])([H])C2([H])N([H])C(=O)C1([H])N(C(=O)C([H])(N([H])C(=O)C([H])(N([H])C([H])([H])[H])C([H])([H])[H])C(C([H])([H])[H])(C([H])([H])[H])C([H])([H])[H])C([H])([H])c2c([H])c(OC([H])([H])C([H])([H])[N+]([H])([H])C([H])([H])C([H])(C([H])([H])N([H])C(=O)N3C([H])([H])C([H])([H])C([H])([H])C([H])(n4nc(-c5c([H])c([H])c(Oc6c([H])c([H])c(F)c([H])c6F)c([H])c5[H])c(C(=O)N([H])[H])c4N([H])[H])C3([H])[H])C([H])([H])C([H])(C([H])([H])C([H])([H])[H])[N+]([H])([H])[H])c([H])c([H])c2C1([H])[H]

$$$$
83:0:0
     RDKit          3D

 83 91  0  0  1  0  0  0  0  0999 V2000
  -29.9870  -16.5140   20.2640 C   0  0  0  0  0  0  0  0  0  0  0  0
  -30.2930  -13.7860   19.4650 C   0  0  0  0  0  2  0  0  0  0  0  0
  -29.5280  -12.9700   18.3500 C   0  0  0  0  0  2  0  0  0  0  0  0
  -28.1880  -12.4250   18.8480 C   0  0  0  0  0  2  0  0  0  0  0  0
  -27.5430  -13.4650   19.7750 C   0  0  0  0  0  3  0  0  0  0  0  0
  -28.5010  -14.1380   20.8220 C   0  0  0  0  0  2  0  0  0  0  0  0
  -29.5090  -15.0270   20.0970 N   0  0  0  0  0  0  0  0  0  0  0  0
  -31.2260  -16.2390   20.3020 O   0  0  0  0  0  0  0  0  0  0  0  0
  -29.8780  -19.6970   20.9570 C   0  0  0  0  0  2  0  0  0  0  0  0
  -28.2210  -19.3340   19.8240 C   0  0  0  0  0  2  0  0  0  0  0  0
  -29.5210  -21.5870   20.7890 C   0  0  0  0  0  3  0  0  0  0  0  0
  -28.0570  -21.2510   19.5830 C   0  0  0  0  0  3  0  0  0  0  0  0
  -29.4060  -18.1820   20.3050 N   0  0  0  0  0  0  0  0  0  0  0  0
  -28.2100  -22.5970   20.5660 N   0  0  0  0  0  2  0  0  0  0  0  0
  -25.1790  -13.8950   20.5370 C   0  0  0  0  0  0  0  0  0  0  0  0
  -24.1330  -13.0920   20.8870 C   0  0  0  0  0  0  0  0  0  0  0  0
  -24.6310  -11.7520   20.8580 C   0  0  0  0  0  0  0  0  0  0  0  0
  -26.2490  -13.0540   20.3100 N   0  0  0  0  0  0  0  0  0  0  0  0
  -25.9330  -11.7510   20.5590 N   0  0  0  0  0  0  0  0  0  0  0  0
  -23.9140  -10.4780   21.0400 C   0  0  0  0  0  0  0  0  0  0  0  0
  -24.3380   -9.5130   21.9820 C   0  0  0  0  0  3  0  0  0  0  0  0
  -23.6130   -8.3140   22.1590 C   0  0  0  0  0  3  0  0  0  0  0  0
  -22.4460   -8.0700   21.3960 C   0  0  0  0  0  0  0  0  0  0  0  0
  -22.0380   -9.0230   20.4450 C   0  0  0  0  0  3  0  0  0  0  0  0
  -22.7660  -10.2120   20.2660 C   0  0  0  0  0  3  0  0  0  0  0  0
  -21.6940   -6.9220   21.4820 O   0  0  0  0  0  0  0  0  0  0  0  0
  -21.6380   -6.1790   22.6340 C   0  0  0  0  0  0  0  0  0  0  0  0
  -21.2010   -6.7330   23.8560 C   0  0  0  0  0  3  0  0  0  0  0  0
  -21.0940   -5.9180   25.0010 C   0  0  0  0  0  3  0  0  0  0  0  0
  -21.4140   -4.5490   24.9240 C   0  0  0  0  0  0  0  0  0  0  0  0
  -21.8440   -3.9940   23.7070 C   0  0  0  0  0  3  0  0  0  0  0  0
  -21.9530   -4.8070   22.5640 C   0  0  0  0  0  0  0  0  0  0  0  0
  -22.3470   -4.2620   21.3870 F   0  0  0  0  0  0  0  0  0  0  0  0
  -21.3050   -3.7640   26.0220 F   0  0  0  0  0  0  0  0  0  0  0  0
  -22.7250  -13.5470   21.1290 C   0  0  0  0  0  0  0  0  0  0  0  0
  -21.9970  -12.8540   21.9950 N   0  0  0  0  0  0  0  0  0  0  0  0
  -22.2830  -14.5600   20.5870 O   0  0  0  0  0  0  0  0  0  0  0  0
  -22.3710  -12.0380   22.4560 H   0  0  0  0  0  0  0  0  0  0  0  0
  -21.0520  -13.1440   22.2010 H   0  0  0  0  0  0  0  0  0  0  0  0
  -25.3090  -15.2680   20.3520 N   0  0  0  0  0  0  0  0  0  0  0  0
  -24.5240  -15.9030   20.4470 H   0  0  0  0  0  0  0  0  0  0  0  0
  -26.1540  -15.7250   20.0340 H   0  0  0  0  0  0  0  0  0  0  0  0
  -28.1890  -24.7480   20.2230 O   0  0  0  0  0  1  0  0  0  0  0  0
  -24.7200  -31.7990   23.1150 C   0  0  0  0  0  0  0  0  0  0  0  0
  -27.2290  -26.1750   20.3160 C   0  0  0  0  0  0  0  0  0  0  0  0
  -23.5630  -30.3560   21.5040 C   0  0  0  0  0  3  0  0  0  0  0  0
  -25.0190  -28.5630   20.1820 C   0  0  0  0  0  0  0  0  0  0  0  0
  -26.1620  -30.3290   21.4710 C   0  0  0  0  0  2  0  0  0  0  0  0
  -26.2190  -28.8200   20.8560 C   0  0  0  0  0  0  0  0  0  0  0  0
  -27.2780  -27.6750   20.8740 C   0  0  0  0  0  3  0  0  0  0  0  0
  -25.9970  -26.2810   19.5660 C   0  0  0  0  0  3  0  0  0  0  0  0
  -24.9800  -27.3220   19.5130 C   0  0  0  0  0  3  0  0  0  0  0  0
  -23.8420  -29.5860   20.1720 C   0  0  0  0  0  2  0  0  0  0  0  0
  -24.8460  -30.8770   22.0800 N   0  0  0  0  0  0  0  0  0  0  0  0
  -23.6120  -32.1340   23.5790 O   0  0  0  0  0  0  0  0  0  0  0  0
  -22.7860  -29.4500   22.5010 C   0  0  0  0  0  0  0  0  0  0  0  0
  -21.4460  -29.3410   22.3810 N   0  0  0  0  0  0  0  0  0  0  0  0
  -23.4110  -28.8340   23.3660 O   0  0  0  0  0  0  0  0  0  0  0  0
  -20.9830  -29.8860   21.6670 H   0  0  0  0  0  0  0  0  0  0  0  0
  -18.0300  -28.1890   22.9360 C   0  0  0  0  0  0  0  0  0  0  0  0
  -20.5980  -28.4310   23.1690 C   0  0  0  0  0  3  0  0  0  0  0  0
  -20.6720  -26.9890   22.6120 C   0  0  0  0  0  2  0  0  0  0  0  0
  -19.5590  -26.6740   21.6060 C   0  0  0  0  0  2  0  0  0  0  0  0
  -18.1850  -26.8380   22.2590 C   0  0  0  0  0  2  0  0  0  0  0  0
  -19.1620  -28.9450   23.3470 C   0  0  0  0  0  0  0  0  0  0  0  0
  -18.9570  -30.2050   23.9500 C   0  0  0  0  0  3  0  0  0  0  0  0
  -17.6560  -30.7110   24.1380 C   0  0  0  0  0  3  0  0  0  0  0  0
  -16.5420  -29.9550   23.7370 C   0  0  0  0  0  3  0  0  0  0  0  0
  -16.7300  -28.6950   23.1430 C   0  0  0  0  0  3  0  0  0  0  0  0
  -25.9530  -32.4910   23.7750 C   0  0  0  0  0  3  0  0  0  0  0  0
  -25.5970  -33.8900   24.1150 N   0  0  0  0  0  0  0  0  0  0  0  0
  -25.9220  -34.9780   23.4010 C   0  0  0  0  0  0  0  0  0  0  0  0
  -26.5950  -34.9110   22.3710 O   0  0  0  0  0  0  0  0  0  0  0  0
  -24.9920  -34.0120   24.9140 H   0  0  0  0  0  0  0  0  0  0  0  0
  -24.1720  -36.7780   23.1250 C   0  0  0  0  0  1  0  0  0  0  0  0
  -25.4300  -36.3570   23.9020 C   0  0  0  0  0  3  0  0  0  0  0  0
  -27.5650  -37.2620   24.7210 C   0  0  0  0  0  1  0  0  0  0  0  0
  -26.4490  -37.4260   23.7930 N   0  0  0  0  0  0  0  0  0  0  0  0
  -26.0330  -38.3390   23.9560 H   0  0  0  0  0  0  0  0  0  0  0  0
  -26.4420  -31.7530   25.0850 C   0  0  1  0  0  0  0  0  0  0  0  0
  -25.3270  -31.5320   26.1340 C   0  0  0  0  0  1  0  0  0  0  0  0
  -27.0430  -30.3690   24.7570 C   0  0  0  0  0  1  0  0  0  0  0  0
  -27.5750  -32.5670   25.7540 C   0  0  0  0  0  1  0  0  0  0  0  0
  1  8  2  0
  1 13  1  0
  2  7  1  0
  3  4  1  0
  3  2  1  0
  5  4  1  0
  5 18  1  0
  5  6  1  0
  7  1  1  0
  7  6  1  0
 10 13  1  0
 11  9  1  0
 12 10  1  0
 12 14  1  0
 12 11  1  0
 13  9  1  0
 14 11  1  0
 15 16  2  0
 16 35  1  0
 17 16  1  0
 17 20  1  0
 18 15  1  0
 18 19  1  0
 19 17  2  0
 20 21  1  0
 21 22  2  0
 23 26  1  0
 23 22  1  0
 24 23  2  0
 25 24  1  0
 25 20  2  0
 26 27  1  0
 27 28  1  0
 28 29  2  0
 30 29  1  0
 30 34  1  0
 31 30  2  0
 32 27  2  0
 32 31  1  0
 33 32  1  0
 35 36  1  0
 36 39  1  0
 36 38  1  0
 37 35  2  0
 40 41  1  0
 40 15  1  0
 42 40  1  0
 43 45  1  0
 44 55  2  0
 45 50  1  0
 46 54  1  0
 46 56  1  0
 47 49  1  0
 48 54  1  0
 49 50  2  0
 49 48  1  0
 51 45  2  0
 52 51  1  0
 52 47  2  0
 53 47  1  0
 53 46  1  0
 54 44  1  0
 56 58  2  0
 57 56  1  0
 59 57  1  0
 60 69  2  0
 60 65  1  0
 61 57  1  0
 61 65  1  0
 62 61  1  0
 63 64  1  0
 63 62  1  0
 64 60  1  0
 65 66  2  0
 66 67  1  0
 68 67  2  0
 69 68  1  0
 70 44  1  0
 70 71  1  0
 70 80  1  0
 71 74  1  0
 72 76  1  0
 72 71  1  0
 73 72  2  0
 76 75  1  0
 78 76  1  0
 78 79  1  0
 78 77  1  0
 80 83  1  1
 80 81  1  0
 82 80  1  0
M  ISO  4   1 100  13 100  14 101  43 101
M  END
>  <TORSDO>  (81) 
F 15

>  <SCORE>  (81) 
-16.463

>  <name>  (81) 
83

>  <ligand_id>  (81) 
83

>  <original_smiles>  (81) 
[H]c1c([H])c([H])c2c(c1[H])C([H])([H])C([H])([H])C([H])([H])C2([H])N([H])C(=O)C1([H])N(C(=O)C([H])(N([H])C(=O)C([H])(N([H])C([H])([H])[H])C([H])([H])[H])C(C([H])([H])[H])(C([H])([H])[H])C([H])([H])[H])C([H])([H])c2c([H])c(ON3C([H])([H])C([H])([H])N(C(=O)N4C([H])([H])C([H])([H])C([H])([H])C([H])(n5nc(-c6c([H])c([H])c(Oc7c([H])c([H])c(F)c([H])c7F)c([H])c6[H])c(C(=O)N([H])[H])c5N([H])[H])C4([H])[H])C([H])([H])C3([H])[H])c([H])c([H])c2C1([H])[H]

>  <smiles>  (81) 
[H]c1c([H])c([H])c2c(c1[H])C([H])([H])C([H])([H])C([H])([H])C2([H])N([H])C(=O)C1([H])N(C(=O)C([H])(N([H])C(=O)C([H])(N([H])C([H])([H])[H])C([H])([H])[H])C(C([H])([H])[H])(C([H])([H])[H])C([H])([H])[H])C([H])([H])c2c([H])c(ON3C([H])([H])C([H])([H])N(C(=O)N4C([H])([H])C([H])([H])C([H])([H])C([H])(n5nc(-c6c([H])c([H])c(Oc7c([H])c([H])c(F)c([H])c7F)c([H])c6[H])c(C(=O)N([H])[H])c5N([H])[H])C4([H])[H])C([H])([H])C3([H])[H])c([H])c([H])c2C1([H])[H]

$$$$
84:0:0
     RDKit          3D

 89 97  0  0  1  0  0  0  0  0999 V2000
  -29.3740  -19.0620   19.8740 C   0  0  0  0  0  0  0  0  0  0  0  0
  -29.3700  -20.3960   20.3880 N   0  0  0  0  0  0  0  0  0  0  0  0
  -28.7760  -18.8500   18.8180 O   0  0  0  0  0  0  0  0  0  0  0  0
  -29.9010  -20.4990   21.2440 H   0  0  0  0  0  0  0  0  0  0  0  0
  -30.5870  -15.0250   20.0100 C   0  0  0  0  0  0  0  0  0  0  0  0
  -30.4010  -12.7180   18.9380 C   0  0  0  0  0  2  0  0  0  0  0  0
  -29.3860  -12.7170   17.7700 C   0  0  0  0  0  2  0  0  0  0  0  0
  -27.9530  -12.4860   18.2840 C   0  0  0  0  0  2  0  0  0  0  0  0
  -27.6310  -13.3560   19.5260 C   0  0  0  0  0  3  0  0  0  0  0  0
  -28.7540  -13.2940   20.5790 C   0  0  0  0  0  2  0  0  0  0  0  0
  -29.9870  -13.7620   19.9240 N   0  0  0  0  0  0  0  0  0  0  0  0
  -31.6990  -15.1480   19.4830 O   0  0  0  0  0  0  0  0  0  0  0  0
  -30.6940  -17.1610   22.7470 C   0  0  0  0  0  2  0  0  0  0  0  0
  -31.1850  -18.0300   21.5920 C   0  0  0  0  0  2  0  0  0  0  0  0
  -30.0700  -15.9090   22.0780 C   0  0  0  0  0  2  0  0  0  0  0  0
  -30.0890  -17.7380   20.5840 C   0  0  0  0  0  3  0  0  0  0  0  0
  -29.9120  -16.1430   20.6010 N   0  0  0  0  0  0  0  0  0  0  0  0
  -25.3040  -13.9100   20.4350 C   0  0  0  0  0  0  0  0  0  0  0  0
  -24.2640  -13.1220   20.8470 C   0  0  0  0  0  0  0  0  0  0  0  0
  -24.7230  -11.7730   20.7420 C   0  0  0  0  0  0  0  0  0  0  0  0
  -26.3270  -13.0410   20.0970 N   0  0  0  0  0  0  0  0  0  0  0  0
  -25.9920  -11.7480   20.3460 N   0  0  0  0  0  0  0  0  0  0  0  0
  -24.0100  -10.5040   20.9390 C   0  0  0  0  0  0  0  0  0  0  0  0
  -24.4520   -9.5430   21.8740 C   0  0  0  0  0  3  0  0  0  0  0  0
  -23.7360   -8.3410   22.0570 C   0  0  0  0  0  3  0  0  0  0  0  0
  -22.5630   -8.0910   21.3050 C   0  0  0  0  0  0  0  0  0  0  0  0
  -22.1400   -9.0410   20.3600 C   0  0  0  0  0  3  0  0  0  0  0  0
  -22.8560  -10.2350   20.1740 C   0  0  0  0  0  3  0  0  0  0  0  0
  -21.8170   -6.9400   21.3980 O   0  0  0  0  0  0  0  0  0  0  0  0
  -21.7050   -6.2490   22.5780 C   0  0  0  0  0  0  0  0  0  0  0  0
  -21.1900   -6.8490   23.7470 C   0  0  0  0  0  3  0  0  0  0  0  0
  -21.0260   -6.0820   24.9180 C   0  0  0  0  0  3  0  0  0  0  0  0
  -21.3680   -4.7170   24.9200 C   0  0  0  0  0  0  0  0  0  0  0  0
  -21.8760   -4.1160   23.7550 C   0  0  0  0  0  3  0  0  0  0  0  0
  -22.0420   -4.8800   22.5870 C   0  0  0  0  0  0  0  0  0  0  0  0
  -22.5100   -4.2910   21.4610 F   0  0  0  0  0  0  0  0  0  0  0  0
  -21.2040   -3.9790   26.0440 F   0  0  0  0  0  0  0  0  0  0  0  0
  -22.8880  -13.5890   21.2240 C   0  0  0  0  0  0  0  0  0  0  0  0
  -22.2240  -12.8730   22.1250 N   0  0  0  0  0  0  0  0  0  0  0  0
  -22.4150  -14.6240   20.7570 O   0  0  0  0  0  0  0  0  0  0  0  0
  -22.6220  -12.0360   22.5240 H   0  0  0  0  0  0  0  0  0  0  0  0
  -21.3040  -13.1660   22.4190 H   0  0  0  0  0  0  0  0  0  0  0  0
  -25.4600  -15.2860   20.2970 N   0  0  0  0  0  0  0  0  0  0  0  0
  -24.7110  -15.9420   20.4890 H   0  0  0  0  0  0  0  0  0  0  0  0
  -26.3000  -15.7330   19.9510 H   0  0  0  0  0  0  0  0  0  0  0  0
  -28.6130  -21.7200   19.9410 C   0  0  0  0  0  2  0  0  0  0  0  0
  -28.8850  -23.3010   20.5000 C   0  0  0  0  0  3  0  0  0  0  0  0
  -27.9580  -24.6680   20.1000 C   0  0  0  0  0  3  0  0  0  0  0  0
  -28.1900  -26.1780   20.4450 O   0  0  0  0  0  0  0  0  0  0  0  0
  -24.5860  -31.9290   23.3480 C   0  0  0  0  0  0  0  0  0  0  0  0
  -27.1450  -27.1750   20.3520 C   0  0  0  0  0  0  0  0  0  0  0  0
  -23.3850  -30.5350   21.7090 C   0  0  0  0  0  3  0  0  0  0  0  0
  -24.8300  -28.9430   20.2980 C   0  0  0  0  0  0  0  0  0  0  0  0
  -25.9430  -30.7780   21.5600 C   0  0  0  0  0  2  0  0  0  0  0  0
  -26.0100  -29.3810   20.9130 C   0  0  0  0  0  0  0  0  0  0  0  0
  -27.1660  -28.5120   20.9240 C   0  0  0  0  0  3  0  0  0  0  0  0
  -25.9420  -26.8450   19.6900 C   0  0  0  0  0  3  0  0  0  0  0  0
  -24.8100  -27.6890   19.6710 C   0  0  0  0  0  3  0  0  0  0  0  0
  -23.6090  -29.8490   20.3340 C   0  0  0  0  0  2  0  0  0  0  0  0
  -24.6580  -31.1030   22.2600 N   0  0  0  0  0  0  0  0  0  0  0  0
  -23.4980  -32.2260   23.8670 O   0  0  0  0  0  0  0  0  0  0  0  0
  -22.6910  -29.5390   22.6710 C   0  0  0  0  0  0  0  0  0  0  0  0
  -21.3670  -29.3570   22.5180 N   0  0  0  0  0  0  0  0  0  0  0  0
  -23.3480  -28.9300   23.5200 O   0  0  0  0  0  0  0  0  0  0  0  0
  -20.8940  -29.8990   21.8080 H   0  0  0  0  0  0  0  0  0  0  0  0
  -17.9880  -28.1240   22.9450 C   0  0  0  0  0  0  0  0  0  0  0  0
  -20.5340  -28.4280   23.2850 C   0  0  0  0  0  3  0  0  0  0  0  0
  -20.6720  -26.9840   22.7490 C   0  0  0  0  0  2  0  0  0  0  0  0
  -19.6070  -26.6220   21.7090 C   0  0  0  0  0  2  0  0  0  0  0  0
  -18.2040  -26.7620   22.3060 C   0  0  0  0  0  2  0  0  0  0  0  0
  -19.0820  -28.9130   23.3910 C   0  0  0  0  0  0  0  0  0  0  0  0
  -18.8270  -30.1830   23.9480 C   0  0  0  0  0  3  0  0  0  0  0  0
  -17.5100  -30.6680   24.0650 C   0  0  0  0  0  3  0  0  0  0  0  0
  -16.4300  -29.8770   23.6350 C   0  0  0  0  0  3  0  0  0  0  0  0
  -16.6700  -28.6070   23.0810 C   0  0  0  0  0  3  0  0  0  0  0  0
  -25.8640  -32.5580   23.9810 C   0  0  0  0  0  3  0  0  0  0  0  0
  -26.3490  -31.8030   25.2810 C   0  0  1  0  0  0  0  0  0  0  0  0
  -25.2340  -31.5960   26.3320 C   0  0  0  0  0  1  0  0  0  0  0  0
  -26.9240  -30.4130   24.9270 C   0  0  0  0  0  1  0  0  0  0  0  0
  -27.4960  -32.5960   25.9500 C   0  0  0  0  0  1  0  0  0  0  0  0
  -25.5660  -33.9660   24.2890 N   0  0  0  0  0  0  0  0  0  0  0  0
  -25.9010  -35.0060   23.5130 C   0  0  0  0  0  0  0  0  0  0  0  0
  -26.5580  -34.8800   22.4770 O   0  0  0  0  0  0  0  0  0  0  0  0
  -24.9800  -34.1380   25.0920 H   0  0  0  0  0  0  0  0  0  0  0  0
  -24.1710  -36.8030   23.1720 C   0  0  0  0  0  1  0  0  0  0  0  0
  -25.4330  -36.4070   23.9560 C   0  0  0  0  0  3  0  0  0  0  0  0
  -27.5920  -37.3020   24.7110 C   0  0  0  0  0  1  0  0  0  0  0  0
  -26.4660  -37.4530   23.7920 N   0  0  0  0  0  0  0  0  0  0  0  0
  -26.0680  -38.3780   23.9280 H   0  0  0  0  0  0  0  0  0  0  0  0
  1  2  1  0
  2  4  1  0
  3  1  2  0
  5 17  1  0
  6 11  1  0
  7  8  1  0
  7  6  1  0
  9  8  1  0
  9 21  1  0
  9 10  1  0
 11  5  1  0
 11 10  1  0
 12  5  2  0
 14 13  1  0
 15 13  1  0
 16  1  1  0
 16 17  1  0
 16 14  1  0
 17 15  1  0
 18 19  2  0
 19 38  1  0
 20 19  1  0
 20 23  1  0
 21 22  1  0
 21 18  1  0
 22 20  2  0
 23 24  1  0
 24 25  2  0
 26 29  1  0
 26 25  1  0
 27 26  2  0
 28 27  1  0
 28 23  2  0
 29 30  1  0
 30 35  2  0
 30 31  1  0
 31 32  2  0
 32 33  1  0
 33 37  1  0
 34 33  2  0
 35 34  1  0
 36 35  1  0
 38 39  1  0
 39 42  1  0
 39 41  1  0
 40 38  2  0
 43 18  1  0
 43 44  1  0
 45 43  1  0
 46  2  1  0
 46 47  1  0
 48 49  1  0
 48 47  2  0
 50 61  2  0
 51 49  1  0
 51 56  1  0
 52 60  1  0
 52 62  1  0
 53 59  1  0
 53 55  1  0
 54 60  1  0
 55 56  2  0
 55 54  1  0
 57 51  2  0
 58 57  1  0
 58 53  2  0
 59 52  1  0
 60 50  1  0
 62 64  2  0
 63 62  1  0
 65 63  1  0
 66 75  2  0
 66 71  1  0
 67 63  1  0
 67 71  1  0
 68 67  1  0
 69 70  1  0
 69 68  1  0
 70 66  1  0
 71 72  2  0
 72 73  1  0
 74 73  2  0
 75 74  1  0
 76 50  1  0
 76 81  1  0
 76 77  1  0
 77 80  1  1
 77 78  1  0
 79 77  1  0
 81 84  1  0
 82 86  1  0
 82 81  1  0
 83 82  2  0
 86 85  1  0
 88 89  1  0
 88 86  1  0
 88 87  1  0
M  ISO  4   5 100  17 100  48 101  49 101
M  END
>  <TORSDO>  (82) 
F 19

>  <SCORE>  (82) 
-14.861

>  <name>  (82) 
84

>  <ligand_id>  (82) 
84

>  <original_smiles>  (82) 
[H]c1c([H])c([H])c2c(c1[H])C([H])([H])C([H])([H])C([H])([H])C2([H])N([H])C(=O)C1([H])N(C(=O)C([H])(N([H])C(=O)C([H])(N([H])C([H])([H])[H])C([H])([H])[H])C(C([H])([H])[H])(C([H])([H])[H])C([H])([H])[H])C([H])([H])c2c([H])c(OC([H])([H])C([H])([H])C([H])([H])N([H])C(=O)C3([H])N(C(=O)N4C([H])([H])C([H])([H])C([H])([H])C([H])(n5nc(-c6c([H])c([H])c(Oc7c([H])c([H])c(F)c([H])c7F)c([H])c6[H])c(C(=O)N([H])[H])c5N([H])[H])C4([H])[H])C([H])([H])C([H])([H])C3([H])[H])c([H])c([H])c2C1([H])[H]

>  <smiles>  (82) 
[H]c1c([H])c([H])c2c(c1[H])C([H])([H])C([H])([H])C([H])([H])C2([H])N([H])C(=O)C1([H])N(C(=O)C([H])(N([H])C(=O)C([H])(N([H])C([H])([H])[H])C([H])([H])[H])C(C([H])([H])[H])(C([H])([H])[H])C([H])([H])[H])C([H])([H])c2c([H])c(OC([H])([H])C([H])([H])C([H])([H])N([H])C(=O)C3([H])N(C(=O)N4C([H])([H])C([H])([H])C([H])([H])C([H])(n5nc(-c6c([H])c([H])c(Oc7c([H])c([H])c(F)c([H])c7F)c([H])c6[H])c(C(=O)N([H])[H])c5N([H])[H])C4([H])[H])C([H])([H])C([H])([H])C3([H])[H])c([H])c([H])c2C1([H])[H]

$$$$
85:0:0
     RDKit          3D

 92100  0  0  1  0  0  0  0  0999 V2000
  -29.1680  -22.2620   20.2450 C   0  0  1  0  0  0  0  0  0  0  0  0
  -30.4330  -15.6800   20.1500 C   0  0  0  0  0  0  0  0  0  0  0  0
  -30.4980  -13.1520   19.2900 C   0  0  0  0  0  2  0  0  0  0  0  0
  -29.5680  -12.7470   18.1110 C   0  0  0  0  0  2  0  0  0  0  0  0
  -28.1630  -12.3800   18.6110 C   0  0  0  0  0  2  0  0  0  0  0  0
  -27.6760  -13.3720   19.6930 C   0  0  0  0  0  3  0  0  0  0  0  0
  -28.7500  -13.6670   20.7730 C   0  0  0  0  0  2  0  0  0  0  0  0
  -29.8880  -14.3200   20.0730 N   0  0  0  0  0  0  0  0  0  0  0  0
  -31.6660  -15.5990   19.9910 O   0  0  0  0  0  0  0  0  0  0  0  0
  -27.3940  -18.3190   20.3710 C   0  0  0  0  0  2  0  0  0  0  0  0
  -27.7180  -19.7240   19.7450 C   0  0  0  0  0  2  0  0  0  0  0  0
  -28.2490  -17.0510   19.9820 C   0  0  0  0  0  2  0  0  0  0  0  0
  -30.0560  -18.7740   20.2300 C   0  0  0  0  0  2  0  0  0  0  0  0
  -28.9860  -20.3260   20.3670 C   0  0  0  0  0  3  0  0  0  0  0  0
  -29.7060  -17.0700   20.2130 N   0  0  0  0  0  0  0  0  0  0  0  0
  -25.3240  -13.8710   20.5350 C   0  0  0  0  0  0  0  0  0  0  0  0
  -24.2840  -13.0770   20.9170 C   0  0  0  0  0  0  0  0  0  0  0  0
  -24.7630  -11.7330   20.8370 C   0  0  0  0  0  0  0  0  0  0  0  0
  -26.3740  -13.0160   20.2440 N   0  0  0  0  0  0  0  0  0  0  0  0
  -26.0460  -11.7200   20.4890 N   0  0  0  0  0  0  0  0  0  0  0  0
  -24.0470  -10.4640   21.0110 C   0  0  0  0  0  0  0  0  0  0  0  0
  -24.4740   -9.5000   21.9520 C   0  0  0  0  0  3  0  0  0  0  0  0
  -23.7530   -8.2980   22.1200 C   0  0  0  0  0  3  0  0  0  0  0  0
  -22.5930   -8.0500   21.3480 C   0  0  0  0  0  0  0  0  0  0  0  0
  -22.1850   -9.0050   20.4000 C   0  0  0  0  0  3  0  0  0  0  0  0
  -22.9050  -10.1970   20.2280 C   0  0  0  0  0  3  0  0  0  0  0  0
  -21.8430   -6.9020   21.4270 O   0  0  0  0  0  0  0  0  0  0  0  0
  -21.7310   -6.1940   22.5970 C   0  0  0  0  0  0  0  0  0  0  0  0
  -21.1860   -6.7690   23.7680 C   0  0  0  0  0  3  0  0  0  0  0  0
  -21.0250   -5.9840   24.9260 C   0  0  0  0  0  3  0  0  0  0  0  0
  -21.3980   -4.6260   24.9160 C   0  0  0  0  0  0  0  0  0  0  0  0
  -21.9340   -4.0500   23.7510 C   0  0  0  0  0  3  0  0  0  0  0  0
  -22.0980   -4.8340   22.5930 C   0  0  0  0  0  0  0  0  0  0  0  0
  -22.5950   -4.2690   21.4670 F   0  0  0  0  0  0  0  0  0  0  0  0
  -21.2370   -3.8700   26.0270 F   0  0  0  0  0  0  0  0  0  0  0  0
  -22.8930  -13.5390   21.2310 C   0  0  0  0  0  0  0  0  0  0  0  0
  -22.1950  -12.8290   22.1100 N   0  0  0  0  0  0  0  0  0  0  0  0
  -22.4360  -14.5690   20.7390 O   0  0  0  0  0  0  0  0  0  0  0  0
  -22.5790  -11.9980   22.5360 H   0  0  0  0  0  0  0  0  0  0  0  0
  -21.2610  -13.1210   22.3560 H   0  0  0  0  0  0  0  0  0  0  0  0
  -25.4430  -15.2450   20.3790 N   0  0  0  0  0  0  0  0  0  0  0  0
  -24.6540  -15.8580   20.5370 H   0  0  0  0  0  0  0  0  0  0  0  0
  -26.2450  -15.7220   19.9910 H   0  0  0  0  0  0  0  0  0  0  0  0
  -29.3400  -22.4740   22.8410 C   0  0  0  0  0  1  0  0  0  0  0  0
  -30.0790  -22.5140   21.4860 C   0  0  0  0  0  2  0  0  0  0  0  0
  -29.9510  -22.3870   18.9040 C   0  0  0  0  0  2  0  0  0  0  0  0
  -30.9860  -23.4400   18.8660 N   0  0  0  0  0  4  0  0  0  0  0  0
  -30.6440  -24.3230   19.2050 H   0  0  0  0  0  0  0  0  0  0  0  0
  -31.3090  -23.5720   17.9230 H   0  0  0  0  0  0  0  0  0  0  0  0
  -31.7850  -23.1710   19.4150 H   0  0  0  0  0  0  0  0  0  0  0  0
  -28.0900  -23.8760   20.2430 C   0  0  0  0  0  2  0  0  0  0  0  0
  -28.2440  -25.6230   20.2630 O   0  0  0  0  0  0  0  0  0  0  0  0
  -24.6950  -31.8380   23.2000 C   0  0  0  0  0  0  0  0  0  0  0  0
  -27.2390  -26.8010   20.2100 C   0  0  0  0  0  0  0  0  0  0  0  0
  -23.5020  -30.4440   21.5620 C   0  0  0  0  0  3  0  0  0  0  0  0
  -24.9460  -28.8000   20.1460 C   0  0  0  0  0  0  0  0  0  0  0  0
  -26.0780  -30.6040   21.4260 C   0  0  0  0  0  2  0  0  0  0  0  0
  -26.1440  -29.1730   20.7740 C   0  0  0  0  0  0  0  0  0  0  0  0
  -27.2710  -28.2040   20.7720 C   0  0  0  0  0  3  0  0  0  0  0  0
  -26.0070  -26.6300   19.5290 C   0  0  0  0  0  3  0  0  0  0  0  0
  -24.9160  -27.5510   19.5020 C   0  0  0  0  0  3  0  0  0  0  0  0
  -23.7360  -29.7450   20.1900 C   0  0  0  0  0  2  0  0  0  0  0  0
  -24.7820  -30.9950   22.1150 N   0  0  0  0  0  0  0  0  0  0  0  0
  -23.6040  -32.1340   23.7160 O   0  0  0  0  0  0  0  0  0  0  0  0
  -22.7910  -29.4660   22.5350 C   0  0  0  0  0  0  0  0  0  0  0  0
  -21.4600  -29.3000   22.4110 N   0  0  0  0  0  0  0  0  0  0  0  0
  -23.4540  -28.8460   23.3710 O   0  0  0  0  0  0  0  0  0  0  0  0
  -20.9750  -29.8500   21.7160 H   0  0  0  0  0  0  0  0  0  0  0  0
  -18.0770  -28.0900   22.9450 C   0  0  0  0  0  0  0  0  0  0  0  0
  -20.6400  -28.3620   23.1870 C   0  0  0  0  0  3  0  0  0  0  0  0
  -20.7370  -26.9300   22.6080 C   0  0  0  0  0  2  0  0  0  0  0  0
  -19.6290  -26.6090   21.6010 C   0  0  0  0  0  2  0  0  0  0  0  0
  -18.2500  -26.7490   22.2520 C   0  0  0  0  0  2  0  0  0  0  0  0
  -19.1990  -28.8550   23.3670 C   0  0  0  0  0  0  0  0  0  0  0  0
  -18.9760  -30.1090   23.9760 C   0  0  0  0  0  3  0  0  0  0  0  0
  -17.6720  -30.5990   24.1630 C   0  0  0  0  0  3  0  0  0  0  0  0
  -16.5660  -29.8340   23.7510 C   0  0  0  0  0  3  0  0  0  0  0  0
  -16.7700  -28.5810   23.1490 C   0  0  0  0  0  3  0  0  0  0  0  0
  -25.9610  -32.4860   23.8370 C   0  0  0  0  0  3  0  0  0  0  0  0
  -26.4580  -31.7290   25.1320 C   0  0  1  0  0  0  0  0  0  0  0  0
  -25.3510  -31.5160   26.1910 C   0  0  0  0  0  1  0  0  0  0  0  0
  -27.0430  -30.3430   24.7770 C   0  0  0  0  0  1  0  0  0  0  0  0
  -27.6020  -32.5310   25.7970 C   0  0  0  0  0  1  0  0  0  0  0  0
  -25.6430  -33.8880   24.1720 N   0  0  0  0  0  0  0  0  0  0  0  0
  -25.9340  -34.9500   23.4070 C   0  0  0  0  0  0  0  0  0  0  0  0
  -26.5620  -34.8520   22.3500 O   0  0  0  0  0  0  0  0  0  0  0  0
  -25.0910  -34.0390   25.0030 H   0  0  0  0  0  0  0  0  0  0  0  0
  -24.1650  -36.7230   23.1580 C   0  0  0  0  0  1  0  0  0  0  0  0
  -25.4590  -36.3350   23.8920 C   0  0  0  0  0  3  0  0  0  0  0  0
  -27.6240  -37.2590   24.5920 C   0  0  0  0  0  1  0  0  0  0  0  0
  -26.4640  -37.4050   23.7150 N   0  0  0  0  0  0  0  0  0  0  0  0
  -26.0510  -38.3170   23.8830 H   0  0  0  0  0  0  0  0  0  0  0  0
  1 46  1  6
  1 45  1  0
  2 15  1  0
  3  8  1  0
  4  5  1  0
  4  3  1  0
  6  5  1  0
  6 19  1  0
  6  7  1  0
  8  2  1  0
  8  7  1  0
  9  2  2  0
 11 14  1  0
 11 10  1  0
 12 15  1  0
 12 10  1  0
 13 14  1  0
 14  1  1  0
 15 13  1  0
 16 17  2  0
 17 36  1  0
 18 17  1  0
 18 21  1  0
 19 20  1  0
 19 16  1  0
 20 18  2  0
 21 22  1  0
 22 23  2  0
 24 27  1  0
 24 23  1  0
 25 24  2  0
 26 25  1  0
 26 21  2  0
 27 28  1  0
 28 29  1  0
 29 30  2  0
 31 30  1  0
 31 35  1  0
 32 31  2  0
 33 28  2  0
 33 32  1  0
 34 33  1  0
 36 37  1  0
 37 40  1  0
 37 39  1  0
 38 36  2  0
 41 16  1  0
 41 42  1  0
 43 41  1  0
 45 44  1  0
 47 46  1  0
 47 48  1  0
 47 50  1  0
 49 47  1  0
 51  1  1  0
 51 52  1  0
 53 64  2  0
 54 52  1  0
 54 59  1  0
 55 63  1  0
 55 65  1  0
 56 62  1  0
 56 58  1  0
 57 63  1  0
 58 57  1  0
 59 58  2  0
 60 54  2  0
 61 60  1  0
 61 56  2  0
 62 55  1  0
 63 53  1  0
 65 67  2  0
 66 65  1  0
 68 66  1  0
 69 78  2  0
 69 74  1  0
 70 66  1  0
 70 74  1  0
 71 70  1  0
 72 73  1  0
 72 71  1  0
 73 69  1  0
 74 75  2  0
 75 76  1  0
 77 76  2  0
 78 77  1  0
 79 53  1  0
 79 84  1  0
 79 80  1  0
 80 83  1  1
 80 81  1  0
 82 80  1  0
 84 87  1  0
 85 89  1  0
 85 84  1  0
 86 85  2  0
 89 88  1  0
 91 92  1  0
 91 89  1  0
 91 90  1  0
M  ISO  4   2 100  15 100  51 101  52 101
M  END
>  <TORSDO>  (83) 
F 20

>  <SCORE>  (83) 
-15.349

>  <name>  (83) 
85

>  <ligand_id>  (83) 
85

>  <original_smiles>  (83) 
[H]c1c([H])c([H])c2c(c1[H])C([H])([H])C([H])([H])C([H])([H])C2([H])N([H])C(=O)C1([H])N(C(=O)C([H])(N([H])C(=O)C([H])(N([H])C([H])([H])[H])C([H])([H])[H])C(C([H])([H])[H])(C([H])([H])[H])C([H])([H])[H])C([H])([H])c2c([H])c(OC([H])([H])C(C([H])([H])C([H])([H])[H])(C3([H])C([H])([H])N(C(=O)N4C([H])([H])C([H])([H])C([H])([H])C([H])(n5nc(-c6c([H])c([H])c(Oc7c([H])c([H])c(F)c([H])c7F)c([H])c6[H])c(C(=O)N([H])[H])c5N([H])[H])C4([H])[H])C([H])([H])C([H])([H])C3([H])[H])C([H])([H])[N+]([H])([H])[H])c([H])c([H])c2C1([H])[H]

>  <smiles>  (83) 
[H]c1c([H])c([H])c2c(c1[H])C([H])([H])C([H])([H])C([H])([H])C2([H])N([H])C(=O)C1([H])N(C(=O)C([H])(N([H])C(=O)C([H])(N([H])C([H])([H])[H])C([H])([H])[H])C(C([H])([H])[H])(C([H])([H])[H])C([H])([H])[H])C([H])([H])c2c([H])c(OC([H])([H])C(C([H])([H])C([H])([H])[H])(C3([H])C([H])([H])N(C(=O)N4C([H])([H])C([H])([H])C([H])([H])C([H])(n5nc(-c6c([H])c([H])c(Oc7c([H])c([H])c(F)c([H])c7F)c([H])c6[H])c(C(=O)N([H])[H])c5N([H])[H])C4([H])[H])C([H])([H])C([H])([H])C3([H])[H])C([H])([H])[N+]([H])([H])[H])c([H])c([H])c2C1([H])[H]

$$$$
86:0:0
     RDKit          3D

 94101  0  0  1  0  0  0  0  0999 V2000
  -29.8530  -18.9210   20.1750 C   0  0  0  0  0  3  0  0  0  0  0  0
  -30.7160  -15.8540   20.0610 C   0  0  0  0  0  0  0  0  0  0  0  0
  -30.8320  -13.2640   19.4390 C   0  0  0  0  0  2  0  0  0  0  0  0
  -29.9940  -12.7800   18.2210 C   0  0  0  0  0  2  0  0  0  0  0  0
  -28.5310  -12.5160   18.6150 C   0  0  0  0  0  2  0  0  0  0  0  0
  -27.9940  -13.5950   19.5890 C   0  0  0  0  0  3  0  0  0  0  0  0
  -28.9820  -13.9600   20.7160 C   0  0  0  0  0  2  0  0  0  0  0  0
  -30.1830  -14.5030   20.0450 N   0  0  0  0  0  0  0  0  0  0  0  0
  -31.9600  -15.7970   20.0800 O   0  0  0  0  0  0  0  0  0  0  0  0
  -29.9540  -17.1810   19.8420 N   0  0  0  0  0  0  0  0  0  0  0  0
  -29.0640  -16.9010   19.4500 H   0  0  0  0  0  0  0  0  0  0  0  0
  -25.6210  -14.2110   20.2470 C   0  0  0  0  0  0  0  0  0  0  0  0
  -24.5300  -13.4660   20.5970 C   0  0  0  0  0  0  0  0  0  0  0  0
  -24.9660  -12.1070   20.6210 C   0  0  0  0  0  0  0  0  0  0  0  0
  -26.6520  -13.3080   20.0700 N   0  0  0  0  0  0  0  0  0  0  0  0
  -26.2680  -12.0390   20.3640 N   0  0  0  0  0  0  0  0  0  0  0  0
  -24.2000  -10.8690   20.8130 C   0  0  0  0  0  0  0  0  0  0  0  0
  -24.5960   -9.8910   21.7510 C   0  0  0  0  0  3  0  0  0  0  0  0
  -23.8260   -8.7220   21.9390 C   0  0  0  0  0  3  0  0  0  0  0  0
  -22.6420   -8.5230   21.1870 C   0  0  0  0  0  0  0  0  0  0  0  0
  -22.2640   -9.4890   20.2410 C   0  0  0  0  0  3  0  0  0  0  0  0
  -23.0340  -10.6510   20.0510 C   0  0  0  0  0  3  0  0  0  0  0  0
  -21.8420   -7.4100   21.2870 O   0  0  0  0  0  0  0  0  0  0  0  0
  -21.8240   -6.6350   22.4200 C   0  0  0  0  0  0  0  0  0  0  0  0
  -21.5360   -7.1750   23.6910 C   0  0  0  0  0  3  0  0  0  0  0  0
  -21.4610   -6.3270   24.8150 C   0  0  0  0  0  3  0  0  0  0  0  0
  -21.6600   -4.9420   24.6670 C   0  0  0  0  0  0  0  0  0  0  0  0
  -21.9410   -4.4000   23.4000 C   0  0  0  0  0  3  0  0  0  0  0  0
  -22.0200   -5.2460   22.2790 C   0  0  0  0  0  0  0  0  0  0  0  0
  -22.2670   -4.7150   21.0560 F   0  0  0  0  0  0  0  0  0  0  0  0
  -21.5780   -4.1270   25.7460 F   0  0  0  0  0  0  0  0  0  0  0  0
  -23.1340  -13.9850   20.7860 C   0  0  0  0  0  0  0  0  0  0  0  0
  -22.3650  -13.3670   21.6750 N   0  0  0  0  0  0  0  0  0  0  0  0
  -22.7360  -14.9760   20.1760 O   0  0  0  0  0  0  0  0  0  0  0  0
  -22.7020  -12.5680   22.1900 H   0  0  0  0  0  0  0  0  0  0  0  0
  -21.4250  -13.6990   21.8400 H   0  0  0  0  0  0  0  0  0  0  0  0
  -25.8160  -15.5700   20.0250 N   0  0  0  0  0  0  0  0  0  0  0  0
  -25.0420  -16.2230   20.0330 H   0  0  0  0  0  0  0  0  0  0  0  0
  -26.6640  -15.9730   19.6480 H   0  0  0  0  0  0  0  0  0  0  0  0
  -30.1070  -20.6080   19.2830 C   0  0  0  0  0  2  0  0  0  0  0  0
  -30.0900  -22.4930   19.6730 C   0  0  0  0  0  3  0  0  0  0  0  0
  -29.2820  -24.1480   19.1190 C   0  0  0  0  0  3  0  0  0  0  0  0
  -29.2340  -25.8470   19.4980 O   0  0  0  0  0  0  0  0  0  0  0  0
  -24.8230  -31.0650   23.0910 C   0  0  0  0  0  0  0  0  0  0  0  0
  -28.1170  -26.9090   19.5380 C   0  0  0  0  0  0  0  0  0  0  0  0
  -23.9010  -29.8260   21.1750 C   0  0  0  0  0  3  0  0  0  0  0  0
  -25.6140  -28.6170   19.6250 C   0  0  0  0  0  0  0  0  0  0  0  0
  -26.4420  -30.2940   21.2580 C   0  0  0  0  0  2  0  0  0  0  0  0
  -26.7180  -29.0110   20.3920 C   0  0  0  0  0  0  0  0  0  0  0  0
  -27.9530  -28.1900   20.3150 C   0  0  0  0  0  3  0  0  0  0  0  0
  -26.9570  -26.7120   18.7490 C   0  0  0  0  0  3  0  0  0  0  0  0
  -25.7670  -27.4990   18.7890 C   0  0  0  0  0  3  0  0  0  0  0  0
  -24.2950  -29.3990   19.7300 C   0  0  0  0  0  2  0  0  0  0  0  0
  -25.0700  -30.4210   21.8990 N   0  0  0  0  0  0  0  0  0  0  0  0
  -23.6750  -31.1500   23.5610 O   0  0  0  0  0  0  0  0  0  0  0  0
  -23.2670  -28.6260   21.9310 C   0  0  0  0  0  0  0  0  0  0  0  0
  -21.9650  -28.3580   21.7080 N   0  0  0  0  0  0  0  0  0  0  0  0
  -23.9560  -27.9380   22.6860 O   0  0  0  0  0  0  0  0  0  0  0  0
  -21.4600  -28.9700   21.0840 H   0  0  0  0  0  0  0  0  0  0  0  0
  -18.7170  -26.7310   21.8280 C   0  0  0  0  0  0  0  0  0  0  0  0
  -21.2220  -27.2240   22.2670 C   0  0  0  0  0  3  0  0  0  0  0  0
  -21.5020  -25.9300   21.4670 C   0  0  0  0  0  2  0  0  0  0  0  0
  -20.4790  -25.6670   20.3580 C   0  0  0  0  0  2  0  0  0  0  0  0
  -19.0700  -25.5460   20.9440 C   0  0  0  0  0  2  0  0  0  0  0  0
  -19.7260  -27.5260   22.4350 C   0  0  0  0  0  0  0  0  0  0  0  0
  -19.3420  -28.6300   23.2260 C   0  0  0  0  0  3  0  0  0  0  0  0
  -17.9810  -28.9410   23.4140 C   0  0  0  0  0  3  0  0  0  0  0  0
  -16.9860  -28.1490   22.8160 C   0  0  0  0  0  3  0  0  0  0  0  0
  -17.3560  -27.0450   22.0290 C   0  0  0  0  0  3  0  0  0  0  0  0
  -25.9590  -31.7410   23.9140 C   0  0  0  0  0  3  0  0  0  0  0  0
  -26.2630  -30.9910   25.2710 C   0  0  1  0  0  0  0  0  0  0  0  0
  -25.0090  -30.7710   26.1530 C   0  0  0  0  0  1  0  0  0  0  0  0
  -26.8980  -29.6050   25.0130 C   0  0  0  0  0  1  0  0  0  0  0  0
  -27.3010  -31.7970   26.0850 C   0  0  0  0  0  1  0  0  0  0  0  0
  -25.5590  -33.1330   24.1940 N   0  0  0  0  0  0  0  0  0  0  0  0
  -26.0250  -34.2110   23.5490 C   0  0  0  0  0  0  0  0  0  0  0  0
  -26.8890  -34.1380   22.6710 O   0  0  0  0  0  0  0  0  0  0  0  0
  -24.8190  -33.2620   24.8680 H   0  0  0  0  0  0  0  0  0  0  0  0
  -24.4030  -36.0270   22.8870 C   0  0  0  0  0  1  0  0  0  0  0  0
  -25.4440  -35.5910   23.9330 C   0  0  0  0  0  3  0  0  0  0  0  0
  -27.3560  -36.4470   25.2220 C   0  0  0  0  0  1  0  0  0  0  0  0
  -26.4730  -36.6480   24.0750 N   0  0  0  0  0  0  0  0  0  0  0  0
  -26.0440  -37.5650   24.1590 H   0  0  0  0  0  0  0  0  0  0  0  0
  -28.3430  -18.9890   20.5930 C   0  0  0  0  0  2  0  0  0  0  0  0
  -27.7490  -20.3500   20.5420 N   0  0  0  0  0  4  0  0  0  0  0  0
  -27.5140  -20.6430   21.4790 H   0  0  0  0  0  0  0  0  0  0  0  0
  -28.4890  -20.9460   20.2140 H   0  0  0  0  0  0  0  0  0  0  0  0
  -26.5590  -20.5290   19.6700 C   0  0  0  0  0  2  0  0  0  0  0  0
  -26.3440  -22.0000   19.2120 C   0  0  0  0  0  2  0  0  0  0  0  0
  -26.8460  -22.2890   17.7740 C   0  0  0  0  0  2  0  0  0  0  0  0
  -26.4390  -23.6160   17.2620 N   0  0  0  0  0  4  0  0  0  0  0  0
  -26.7290  -24.3680   17.8600 H   0  0  0  0  0  0  0  0  0  0  0  0
  -25.4420  -23.6650   17.1450 H   0  0  0  0  0  0  0  0  0  0  0  0
  -26.8590  -23.7690   16.3600 H   0  0  0  0  0  0  0  0  0  0  0  0
  1 40  1  0
  1 84  1  0
  2  9  2  0
  3  8  1  0
  4  5  1  0
  4  3  1  0
  6  5  1  0
  6 15  1  0
  6  7  1  0
  8  2  1  0
  8  7  1  0
 10  2  1  0
 10  1  1  0
 11 10  1  0
 12 13  2  0
 13 14  1  0
 13 32  1  0
 14 17  1  0
 15 12  1  0
 15 16  1  0
 16 14  2  0
 17 18  1  0
 18 19  2  0
 20 23  1  0
 20 19  1  0
 21 20  2  0
 22 21  1  0
 22 17  2  0
 23 24  1  0
 24 25  1  0
 25 26  2  0
 27 26  1  0
 27 31  1  0
 28 27  2  0
 29 24  2  0
 29 28  1  0
 30 29  1  0
 32 33  1  0
 33 36  1  0
 33 35  1  0
 34 32  2  0
 37 38  1  0
 37 12  1  0
 39 37  1  0
 40 41  1  0
 42 43  1  0
 42 41  2  0
 43 45  1  0
 44 55  2  0
 45 50  1  0
 46 54  1  0
 46 56  1  0
 47 53  1  0
 47 49  1  0
 48 54  1  0
 49 48  1  0
 50 49  2  0
 51 52  1  0
 51 45  2  0
 52 47  2  0
 53 46  1  0
 54 44  1  0
 56 58  2  0
 57 56  1  0
 59 57  1  0
 60 69  2  0
 60 65  1  0
 61 57  1  0
 61 65  1  0
 62 61  1  0
 63 64  1  0
 63 62  1  0
 64 60  1  0
 65 66  2  0
 66 67  1  0
 68 67  2  0
 69 68  1  0
 70 44  1  0
 70 75  1  0
 70 71  1  0
 71 74  1  1
 71 72  1  0
 73 71  1  0
 75 78  1  0
 76 80  1  0
 76 75  1  0
 77 76  2  0
 80 79  1  0
 80 82  1  0
 82 83  1  0
 82 81  1  0
 85 84  1  0
 85 86  1  0
 87 85  1  0
 88 85  1  0
 89 88  1  0
 90 89  1  0
 91 90  1  0
 91 92  1  0
 93 91  1  0
 94 91  1  0
M  ISO  4   2 100  10 100  42 101  43 101
M  END
>  <TORSDO>  (84) 
F 25

>  <SCORE>  (84) 
-10.522

>  <name>  (84) 
86

>  <ligand_id>  (84) 
86

>  <original_smiles>  (84) 
[H]c1c([H])c([H])c2c(c1[H])C([H])([H])C([H])([H])C([H])([H])C2([H])N([H])C(=O)C1([H])N(C(=O)C([H])(N([H])C(=O)C([H])(N([H])C([H])([H])[H])C([H])([H])[H])C(C([H])([H])[H])(C([H])([H])[H])C([H])([H])[H])C([H])([H])c2c([H])c(OC([H])([H])C([H])([H])C([H])([H])C([H])(N([H])C(=O)N3C([H])([H])C([H])([H])C([H])([H])C([H])(n4nc(-c5c([H])c([H])c(Oc6c([H])c([H])c(F)c([H])c6F)c([H])c5[H])c(C(=O)N([H])[H])c4N([H])[H])C3([H])[H])C([H])([H])[N+]([H])([H])C([H])([H])C([H])([H])C([H])([H])[N+]([H])([H])[H])c([H])c([H])c2C1([H])[H]

>  <smiles>  (84) 
[H]c1c([H])c([H])c2c(c1[H])C([H])([H])C([H])([H])C([H])([H])C2([H])N([H])C(=O)C1([H])N(C(=O)C([H])(N([H])C(=O)C([H])(N([H])C([H])([H])[H])C([H])([H])[H])C(C([H])([H])[H])(C([H])([H])[H])C([H])([H])[H])C([H])([H])c2c([H])c(OC([H])([H])C([H])([H])C([H])([H])C([H])(N([H])C(=O)N3C([H])([H])C([H])([H])C([H])([H])C([H])(n4nc(-c5c([H])c([H])c(Oc6c([H])c([H])c(F)c([H])c6F)c([H])c5[H])c(C(=O)N([H])[H])c4N([H])[H])C3([H])[H])C([H])([H])[N+]([H])([H])C([H])([H])C([H])([H])C([H])([H])[N+]([H])([H])[H])c([H])c([H])c2C1([H])[H]

$$$$
87:0:0
     RDKit          3D

 95102  0  0  1  0  0  0  0  0999 V2000
  -29.0730  -22.5140   20.5260 N   0  0  1  0  0  4  0  0  0  0  0  0
  -28.6980  -22.4990   21.4630 H   0  0  0  0  0  0  0  0  0  0  0  0
  -28.7180  -21.1290   19.9500 C   0  0  0  0  0  3  0  0  0  0  0  0
  -29.4930  -19.8300   20.5260 C   0  0  0  0  0  3  0  0  0  0  0  0
  -29.1180  -18.3310   20.0900 C   0  0  0  0  0  3  0  0  0  0  0  0
  -30.1490  -17.1720   20.5060 C   0  0  0  0  0  3  0  0  0  0  0  0
  -30.5270  -14.6140   20.1450 C   0  0  0  0  0  0  0  0  0  0  0  0
  -30.3000  -12.3630   19.1140 C   0  0  0  0  0  2  0  0  0  0  0  0
  -29.3300  -12.4660   17.9180 C   0  0  0  0  0  2  0  0  0  0  0  0
  -27.8660  -12.3160   18.3780 C   0  0  0  0  0  2  0  0  0  0  0  0
  -27.5330  -13.1840   19.6210 C   0  0  0  0  0  3  0  0  0  0  0  0
  -28.6180  -13.0530   20.7110 C   0  0  0  0  0  2  0  0  0  0  0  0
  -29.9030  -13.3960   20.0910 N   0  0  0  0  0  0  0  0  0  0  0  0
  -31.7040  -14.7400   19.7940 O   0  0  0  0  0  0  0  0  0  0  0  0
  -29.7430  -15.7150   20.4080 N   0  0  0  0  0  0  0  0  0  0  0  0
  -28.7810  -15.5060   20.6290 H   0  0  0  0  0  0  0  0  0  0  0  0
  -25.1590  -13.7770   20.3960 C   0  0  0  0  0  0  0  0  0  0  0  0
  -24.1030  -13.0030   20.7900 C   0  0  0  0  0  0  0  0  0  0  0  0
  -24.5650  -11.6500   20.7480 C   0  0  0  0  0  0  0  0  0  0  0  0
  -26.1990  -12.8990   20.1390 N   0  0  0  0  0  0  0  0  0  0  0  0
  -25.8490  -11.6140   20.4120 N   0  0  0  0  0  0  0  0  0  0  0  0
  -23.8420  -10.3870   20.9490 C   0  0  0  0  0  0  0  0  0  0  0  0
  -24.2730   -9.4340   21.8990 C   0  0  0  0  0  3  0  0  0  0  0  0
  -23.5510   -8.2380   22.0890 C   0  0  0  0  0  3  0  0  0  0  0  0
  -22.3840   -7.9840   21.3290 C   0  0  0  0  0  0  0  0  0  0  0  0
  -21.9720   -8.9250   20.3700 C   0  0  0  0  0  3  0  0  0  0  0  0
  -22.6940  -10.1140   20.1780 C   0  0  0  0  0  3  0  0  0  0  0  0
  -21.6360   -6.8360   21.4270 O   0  0  0  0  0  0  0  0  0  0  0  0
  -21.5660   -6.1190   22.5930 C   0  0  0  0  0  0  0  0  0  0  0  0
  -21.1060   -6.6970   23.7960 C   0  0  0  0  0  3  0  0  0  0  0  0
  -20.9850   -5.9070   24.9570 C   0  0  0  0  0  3  0  0  0  0  0  0
  -21.3160   -4.5390   24.9140 C   0  0  0  0  0  0  0  0  0  0  0  0
  -21.7700   -3.9600   23.7170 C   0  0  0  0  0  3  0  0  0  0  0  0
  -21.8910   -4.7480   22.5580 C   0  0  0  0  0  0  0  0  0  0  0  0
  -22.3090   -4.1810   21.4010 F   0  0  0  0  0  0  0  0  0  0  0  0
  -21.1910   -3.7760   26.0260 F   0  0  0  0  0  0  0  0  0  0  0  0
  -22.7120  -13.4800   21.0890 C   0  0  0  0  0  0  0  0  0  0  0  0
  -22.0040  -12.7860   21.9740 N   0  0  0  0  0  0  0  0  0  0  0  0
  -22.2620  -14.5010   20.5720 O   0  0  0  0  0  0  0  0  0  0  0  0
  -22.3770  -11.9560   22.4100 H   0  0  0  0  0  0  0  0  0  0  0  0
  -21.0740  -13.0920   22.2180 H   0  0  0  0  0  0  0  0  0  0  0  0
  -25.3160  -15.1490   20.2130 N   0  0  0  0  0  0  0  0  0  0  0  0
  -24.5410  -15.7950   20.3240 H   0  0  0  0  0  0  0  0  0  0  0  0
  -26.1420  -15.5860   19.8240 H   0  0  0  0  0  0  0  0  0  0  0  0
  -30.5470  -22.6870   20.6720 C   0  0  0  0  0  2  0  0  0  0  0  0
  -31.1090  -21.9940   21.9340 C   0  0  0  0  0  2  0  0  0  0  0  0
  -32.5370  -21.4520   21.7330 C   0  0  0  0  0  2  0  0  0  0  0  0
  -33.0170  -20.5550   22.8930 C   0  0  0  0  0  2  0  0  0  0  0  0
  -34.3520  -19.9830   22.6420 N   0  0  0  0  0  4  0  0  0  0  0  0
  -34.3480  -19.4140   21.8150 H   0  0  0  0  0  0  0  0  0  0  0  0
  -34.6240  -19.4010   23.4150 H   0  0  0  0  0  0  0  0  0  0  0  0
  -35.0460  -20.7030   22.5360 H   0  0  0  0  0  0  0  0  0  0  0  0
  -28.4380  -23.7500   19.8600 C   0  0  0  0  0  2  0  0  0  0  0  0
  -28.2870  -25.0840   20.7500 C   0  0  0  0  0  2  0  0  0  0  0  0
  -28.3460  -26.4440   20.1500 O   0  0  0  0  0  0  0  0  0  0  0  0
  -24.6160  -31.8490   23.2150 C   0  0  0  0  0  0  0  0  0  0  0  0
  -27.2130  -27.2710   20.1790 C   0  0  0  0  0  0  0  0  0  0  0  0
  -23.4060  -30.4480   21.5790 C   0  0  0  0  0  3  0  0  0  0  0  0
  -24.8510  -28.8790   20.1660 C   0  0  0  0  0  0  0  0  0  0  0  0
  -25.9440  -30.7620   21.3890 C   0  0  0  0  0  2  0  0  0  0  0  0
  -26.0210  -29.3770   20.7520 C   0  0  0  0  0  0  0  0  0  0  0  0
  -27.2090  -28.5860   20.7420 C   0  0  0  0  0  3  0  0  0  0  0  0
  -26.0210  -26.8160   19.5830 C   0  0  0  0  0  3  0  0  0  0  0  0
  -24.8510  -27.6050   19.5730 C   0  0  0  0  0  3  0  0  0  0  0  0
  -23.6170  -29.7600   20.2050 C   0  0  0  0  0  2  0  0  0  0  0  0
  -24.6740  -31.0360   22.1190 N   0  0  0  0  0  0  0  0  0  0  0  0
  -23.5330  -32.1310   23.7480 O   0  0  0  0  0  0  0  0  0  0  0  0
  -22.7380  -29.4400   22.5460 C   0  0  0  0  0  0  0  0  0  0  0  0
  -21.4090  -29.2740   22.4250 N   0  0  0  0  0  0  0  0  0  0  0  0
  -23.4140  -28.8090   23.3630 O   0  0  0  0  0  0  0  0  0  0  0  0
  -20.9240  -29.8330   21.7370 H   0  0  0  0  0  0  0  0  0  0  0  0
  -18.0230  -28.1090   22.9340 C   0  0  0  0  0  0  0  0  0  0  0  0
  -20.5840  -28.3450   23.1990 C   0  0  0  0  0  3  0  0  0  0  0  0
  -20.6730  -26.9130   22.6240 C   0  0  0  0  0  2  0  0  0  0  0  0
  -19.5670  -26.5990   21.6140 C   0  0  0  0  0  2  0  0  0  0  0  0
  -18.1860  -26.7570   22.2590 C   0  0  0  0  0  2  0  0  0  0  0  0
  -19.1500  -28.8620   23.3600 C   0  0  0  0  0  0  0  0  0  0  0  0
  -18.9420  -30.1280   23.9510 C   0  0  0  0  0  3  0  0  0  0  0  0
  -17.6430  -30.6400   24.1200 C   0  0  0  0  0  3  0  0  0  0  0  0
  -16.5300  -29.8840   23.7110 C   0  0  0  0  0  3  0  0  0  0  0  0
  -16.7220  -28.6200   23.1220 C   0  0  0  0  0  3  0  0  0  0  0  0
  -25.9010  -32.4780   23.8370 C   0  0  0  0  0  3  0  0  0  0  0  0
  -26.4220  -31.6990   25.1070 C   0  0  1  0  0  0  0  0  0  0  0  0
  -25.3340  -31.4550   26.1770 C   0  0  0  0  0  1  0  0  0  0  0  0
  -27.0040  -30.3240   24.7020 C   0  0  0  0  0  1  0  0  0  0  0  0
  -27.5760  -32.4880   25.7680 C   0  0  0  0  0  1  0  0  0  0  0  0
  -25.5930  -33.8740   24.1800 N   0  0  0  0  0  0  0  0  0  0  0  0
  -25.9180  -34.9320   23.4260 C   0  0  0  0  0  0  0  0  0  0  0  0
  -26.5770  -34.8360   22.3870 O   0  0  0  0  0  0  0  0  0  0  0  0
  -25.0060  -34.0240   24.9880 H   0  0  0  0  0  0  0  0  0  0  0  0
  -24.1840  -36.7260   23.1100 C   0  0  0  0  0  1  0  0  0  0  0  0
  -25.4370  -36.3170   23.9000 C   0  0  0  0  0  3  0  0  0  0  0  0
  -27.5810  -37.1990   24.7080 C   0  0  0  0  0  1  0  0  0  0  0  0
  -26.4680  -37.3720   23.7780 N   0  0  0  0  0  0  0  0  0  0  0  0
  -26.0620  -38.2910   23.9360 H   0  0  0  0  0  0  0  0  0  0  0  0
  1 45  1  0
  1  2  1  1
  3  4  2  0
  3  1  1  0
  5  6  2  0
  5  4  1  0
  7 15  1  0
  8 13  1  0
  9 10  1  0
  9  8  1  0
 11 10  1  0
 11 20  1  0
 11 12  1  0
 13  7  1  0
 13 12  1  0
 14  7  2  0
 15  6  1  0
 15 16  1  0
 17 18  2  0
 18 37  1  0
 19 18  1  0
 19 22  1  0
 20 17  1  0
 20 21  1  0
 21 19  2  0
 22 23  1  0
 23 24  2  0
 25 28  1  0
 25 24  1  0
 26 25  2  0
 27 26  1  0
 27 22  2  0
 28 29  1  0
 29 30  1  0
 30 31  2  0
 32 31  1  0
 32 36  1  0
 33 32  2  0
 34 29  2  0
 34 33  1  0
 35 34  1  0
 37 38  1  0
 38 41  1  0
 38 40  1  0
 39 37  2  0
 42 43  1  0
 42 17  1  0
 44 42  1  0
 45 46  1  0
 47 46  1  0
 47 48  1  0
 49 48  1  0
 49 51  1  0
 50 49  1  0
 52 49  1  0
 53  1  1  0
 53 54  1  0
 55 57  1  0
 55 54  1  0
 56 67  2  0
 57 62  1  0
 58 66  1  0
 58 68  1  0
 59 65  1  0
 59 61  1  0
 60 66  1  0
 61 60  1  0
 62 61  2  0
 63 57  2  0
 64 63  1  0
 64 59  2  0
 65 58  1  0
 66 56  1  0
 68 70  2  0
 69 68  1  0
 71 69  1  0
 72 81  2  0
 72 77  1  0
 73 69  1  0
 73 77  1  0
 74 73  1  0
 75 76  1  0
 75 74  1  0
 76 72  1  0
 77 78  2  0
 78 79  1  0
 80 79  2  0
 81 80  1  0
 82 56  1  0
 82 87  1  0
 82 83  1  0
 83 86  1  1
 83 84  1  0
 85 83  1  0
 87 90  1  0
 88 92  1  0
 88 87  1  0
 89 88  2  0
 92 91  1  0
 94 92  1  0
 94 95  1  0
 94 93  1  0
M  ISO  4   7 100  15 100  54 101  55 101
M  END
>  <TORSDO>  (85) 
F 27

>  <SCORE>  (85) 
-11.699

>  <name>  (85) 
87

>  <ligand_id>  (85) 
87

>  <original_smiles>  (85) 
[H]c1c([H])c([H])c2c(c1[H])C([H])([H])C([H])([H])C([H])([H])C2([H])N([H])C(=O)C1([H])N(C(=O)C([H])(N([H])C(=O)C([H])(N([H])C([H])([H])[H])C([H])([H])[H])C(C([H])([H])[H])(C([H])([H])[H])C([H])([H])[H])C([H])([H])c2c([H])c(OC([H])([H])C([H])([H])[N+]([H])(C([H])([H])C([H])([H])C([H])([H])C([H])([H])N([H])C(=O)N3C([H])([H])C([H])([H])C([H])([H])C([H])(n4nc(-c5c([H])c([H])c(Oc6c([H])c([H])c(F)c([H])c6F)c([H])c5[H])c(C(=O)N([H])[H])c4N([H])[H])C3([H])[H])C([H])([H])C([H])([H])C([H])([H])C([H])([H])[N+]([H])([H])[H])c([H])c([H])c2C1([H])[H]

>  <smiles>  (85) 
[H]c1c([H])c([H])c2c(c1[H])C([H])([H])C([H])([H])C([H])([H])C2([H])N([H])C(=O)C1([H])N(C(=O)C([H])(N([H])C(=O)C([H])(N([H])C([H])([H])[H])C([H])([H])[H])C(C([H])([H])[H])(C([H])([H])[H])C([H])([H])[H])C([H])([H])c2c([H])c(OC([H])([H])C([H])([H])[N+]([H])(C([H])([H])C([H])([H])C([H])([H])C([H])([H])N([H])C(=O)N3C([H])([H])C([H])([H])C([H])([H])C([H])(n4nc(-c5c([H])c([H])c(Oc6c([H])c([H])c(F)c([H])c6F)c([H])c5[H])c(C(=O)N([H])[H])c4N([H])[H])C3([H])[H])C([H])([H])C([H])([H])C([H])([H])C([H])([H])[N+]([H])([H])[H])c([H])c([H])c2C1([H])[H]

$$$$
88:0:0
     RDKit          3D

 97104  0  0  1  0  0  0  0  0999 V2000
  -29.8520  -20.2410   20.1610 C   0  0  0  0  0  3  0  0  0  0  0  0
  -27.5160  -21.2800   20.2900 C   0  0  0  0  0  1  0  0  0  0  0  0
  -28.8700  -21.5420   19.7550 N   0  0  1  0  0  4  0  0  0  0  0  0
  -28.7700  -21.4360   18.7550 H   0  0  0  0  0  0  0  0  0  0  0  0
  -29.1610  -23.1880   19.9080 C   0  0  0  0  0  3  0  0  0  0  0  0
  -28.0960  -24.6160   19.5740 C   0  0  0  0  0  3  0  0  0  0  0  0
  -28.2710  -26.2610   19.5970 O   0  0  0  0  0  0  0  0  0  0  0  0
  -24.6520  -31.8730   23.1120 C   0  0  0  0  0  0  0  0  0  0  0  0
  -27.2150  -27.3180   19.6390 C   0  0  0  0  0  0  0  0  0  0  0  0
  -23.4240  -30.5520   21.4380 C   0  0  0  0  0  3  0  0  0  0  0  0
  -24.8510  -29.1070   19.8340 C   0  0  0  0  0  0  0  0  0  0  0  0
  -25.9700  -30.8690   21.1820 C   0  0  0  0  0  2  0  0  0  0  0  0
  -26.0540  -29.5130   20.4230 C   0  0  0  0  0  0  0  0  0  0  0  0
  -27.2280  -28.6420   20.3030 C   0  0  0  0  0  3  0  0  0  0  0  0
  -25.9740  -27.0670   19.0090 C   0  0  0  0  0  3  0  0  0  0  0  0
  -24.8340  -27.9070   19.1050 C   0  0  0  0  0  3  0  0  0  0  0  0
  -23.6070  -29.9770   20.0060 C   0  0  0  0  0  2  0  0  0  0  0  0
  -24.7060  -31.1210   21.9660 N   0  0  0  0  0  0  0  0  0  0  0  0
  -23.5820  -32.0880   23.7040 O   0  0  0  0  0  0  0  0  0  0  0  0
  -22.8120  -29.4660   22.3620 C   0  0  0  0  0  0  0  0  0  0  0  0
  -21.4930  -29.2200   22.2460 N   0  0  0  0  0  0  0  0  0  0  0  0
  -23.5300  -28.8470   23.1500 O   0  0  0  0  0  0  0  0  0  0  0  0
  -20.9600  -29.7790   21.5960 H   0  0  0  0  0  0  0  0  0  0  0  0
  -18.2250  -27.7050   22.6770 C   0  0  0  0  0  0  0  0  0  0  0  0
  -20.7480  -28.1920   22.9830 C   0  0  0  0  0  3  0  0  0  0  0  0
  -20.9820  -26.7890   22.3760 C   0  0  0  0  0  2  0  0  0  0  0  0
  -19.9260  -26.3970   21.3380 C   0  0  0  0  0  2  0  0  0  0  0  0
  -18.5310  -26.3980   21.9660 C   0  0  0  0  0  2  0  0  0  0  0  0
  -19.2660  -28.5540   23.1400 C   0  0  0  0  0  0  0  0  0  0  0  0
  -18.9260  -29.7710   23.7710 C   0  0  0  0  0  3  0  0  0  0  0  0
  -17.5790  -30.1440   23.9390 C   0  0  0  0  0  3  0  0  0  0  0  0
  -16.5530  -29.2940   23.4940 C   0  0  0  0  0  3  0  0  0  0  0  0
  -16.8760  -28.0760   22.8670 C   0  0  0  0  0  3  0  0  0  0  0  0
  -25.9290  -32.5200   23.7270 C   0  0  0  0  0  3  0  0  0  0  0  0
  -26.5180  -31.6960   24.9390 C   0  0  1  0  0  0  0  0  0  0  0  0
  -25.4730  -31.3570   26.0290 C   0  0  0  0  0  1  0  0  0  0  0  0
  -27.1350  -30.3640   24.4540 C   0  0  0  0  0  1  0  0  0  0  0  0
  -27.6660  -32.4920   25.6050 C   0  0  0  0  0  1  0  0  0  0  0  0
  -25.5870  -33.8850   24.1620 N   0  0  0  0  0  0  0  0  0  0  0  0
  -25.9220  -35.0070   23.5110 C   0  0  0  0  0  0  0  0  0  0  0  0
  -26.6140  -35.0020   22.4890 O   0  0  0  0  0  0  0  0  0  0  0  0
  -24.9790  -33.9630   24.9650 H   0  0  0  0  0  0  0  0  0  0  0  0
  -24.1900  -36.8200   23.2760 C   0  0  0  0  0  1  0  0  0  0  0  0
  -25.4110  -36.3480   24.0830 C   0  0  0  0  0  3  0  0  0  0  0  0
  -27.5150  -37.1670   25.0480 C   0  0  0  0  0  1  0  0  0  0  0  0
  -26.4370  -37.4140   24.0950 N   0  0  0  0  0  0  0  0  0  0  0  0
  -26.0180  -38.3130   24.3160 H   0  0  0  0  0  0  0  0  0  0  0  0
  -30.0570  -20.1550   21.6860 C   0  0  0  0  0  2  0  0  0  0  0  0
  -31.5160  -20.4750   22.0890 C   0  0  0  0  0  2  0  0  0  0  0  0
  -30.9100  -21.7220   24.2230 C   0  0  0  0  0  1  0  0  0  0  0  0
  -31.6050  -19.3000   24.3330 C   0  0  0  0  0  1  0  0  0  0  0  0
  -33.2780  -21.0610   23.7580 C   0  0  0  0  0  1  0  0  0  0  0  0
  -31.8060  -20.6370   23.5980 C   0  0  1  0  0  0  0  0  0  0  0  0
  -29.9590  -18.5700   19.4560 C   0  0  0  0  0  0  0  0  0  0  0  0
  -30.7800  -15.7760   20.0770 C   0  0  0  0  0  0  0  0  0  0  0  0
  -30.8190  -13.2790   19.3770 C   0  0  0  0  0  2  0  0  0  0  0  0
  -29.9330  -12.9790   18.1390 C   0  0  0  0  0  2  0  0  0  0  0  0
  -28.4760  -12.7200   18.5560 C   0  0  0  0  0  2  0  0  0  0  0  0
  -27.9820  -13.7370   19.6130 C   0  0  0  0  0  3  0  0  0  0  0  0
  -29.0010  -13.9720   20.7510 C   0  0  0  0  0  2  0  0  0  0  0  0
  -30.2430  -14.4570   20.1270 N   0  0  0  0  0  0  0  0  0  0  0  0
  -31.9910  -15.7900   19.8180 O   0  0  0  0  0  0  0  0  0  0  0  0
  -29.9820  -17.0250   20.1170 N   0  0  0  0  0  4  0  0  0  0  0  0
  -29.0710  -16.8030   20.4870 H   0  0  0  0  0  0  0  0  0  0  0  0
  -25.5990  -14.2820   20.3350 C   0  0  0  0  0  0  0  0  0  0  0  0
  -24.5380  -13.5010   20.6970 C   0  0  0  0  0  0  0  0  0  0  0  0
  -25.0150  -12.1520   20.6810 C   0  0  0  0  0  0  0  0  0  0  0  0
  -26.6510  -13.4140   20.1110 N   0  0  0  0  0  0  0  0  0  0  0  0
  -26.3120  -12.1270   20.3880 N   0  0  0  0  0  0  0  0  0  0  0  0
  -24.2930  -10.8860   20.8720 C   0  0  0  0  0  0  0  0  0  0  0  0
  -24.6810   -9.9540   21.8590 C   0  0  0  0  0  3  0  0  0  0  0  0
  -23.9560   -8.7550   22.0360 C   0  0  0  0  0  3  0  0  0  0  0  0
  -22.8320   -8.4800   21.2250 C   0  0  0  0  0  0  0  0  0  0  0  0
  -22.4610   -9.4000   20.2280 C   0  0  0  0  0  3  0  0  0  0  0  0
  -23.1870  -10.5900   20.0500 C   0  0  0  0  0  3  0  0  0  0  0  0
  -22.0840   -7.3300   21.3090 O   0  0  0  0  0  0  0  0  0  0  0  0
  -21.9200   -6.6600   22.4970 C   0  0  0  0  0  0  0  0  0  0  0  0
  -21.3660   -7.2880   23.6340 C   0  0  0  0  0  3  0  0  0  0  0  0
  -21.1510   -6.5460   24.8120 C   0  0  0  0  0  3  0  0  0  0  0  0
  -21.4800   -5.1780   24.8530 C   0  0  0  0  0  0  0  0  0  0  0  0
  -22.0280   -4.5510   23.7200 C   0  0  0  0  0  3  0  0  0  0  0  0
  -22.2430   -5.2890   22.5440 C   0  0  0  0  0  0  0  0  0  0  0  0
  -22.7510   -4.6750   21.4480 F   0  0  0  0  0  0  0  0  0  0  0  0
  -21.2670   -4.4630   25.9820 F   0  0  0  0  0  0  0  0  0  0  0  0
  -23.1350  -13.9690   20.9460 C   0  0  0  0  0  0  0  0  0  0  0  0
  -22.4040  -13.2800   21.8140 N   0  0  0  0  0  0  0  0  0  0  0  0
  -22.6970  -14.9840   20.4060 O   0  0  0  0  0  0  0  0  0  0  0  0
  -22.7710  -12.4590   22.2720 H   0  0  0  0  0  0  0  0  0  0  0  0
  -21.4620  -13.5790   22.0270 H   0  0  0  0  0  0  0  0  0  0  0  0
  -25.7530  -15.6520   20.1460 N   0  0  0  0  0  0  0  0  0  0  0  0
  -24.9700  -16.2950   20.2220 H   0  0  0  0  0  0  0  0  0  0  0  0
  -26.5880  -16.0860   19.7790 H   0  0  0  0  0  0  0  0  0  0  0  0
  -29.0720  -18.5260   18.1770 C   0  0  0  0  0  2  0  0  0  0  0  0
  -28.5960  -18.7210   15.7250 C   0  0  0  0  0  1  0  0  0  0  0  0
  -30.7440  -17.6850   16.4180 C   0  0  0  0  0  1  0  0  0  0  0  0
  -30.3960  -20.1560   16.6900 C   0  0  0  0  0  1  0  0  0  0  0  0
  -29.7210  -18.7700   16.7800 C   0  0  2  0  0  0  0  0  0  0  0  0
  1 48  1  0
  3  5  1  0
  3  1  1  0
  3  2  1  0
  3  4  1  6
  6  7  1  0
  6  5  2  0
  7  9  1  0
  8 19  2  0
  9 14  1  0
 10 18  1  0
 10 20  1  0
 11 17  1  0
 11 13  1  0
 12 18  1  0
 13 12  1  0
 14 13  2  0
 15 16  1  0
 15  9  2  0
 16 11  2  0
 17 10  1  0
 18  8  1  0
 20 22  2  0
 21 20  1  0
 23 21  1  0
 24 33  2  0
 24 29  1  0
 25 21  1  0
 25 29  1  0
 26 25  1  0
 27 28  1  0
 27 26  1  0
 28 24  1  0
 29 30  2  0
 30 31  1  0
 32 31  2  0
 33 32  1  0
 34  8  1  0
 34 39  1  0
 34 35  1  0
 35 38  1  1
 35 36  1  0
 37 35  1  0
 39 42  1  0
 40 44  1  0
 40 39  1  0
 41 40  2  0
 44 43  1  0
 44 46  1  0
 46 47  1  0
 46 45  1  0
 48 49  1  0
 49 53  1  0
 53 52  1  6
 53 50  1  0
 53 51  1  0
 54 63  2  3
 54  1  1  0
 55 63  1  0
 55 61  1  0
 56 61  1  0
 57 58  1  0
 57 56  1  0
 59 58  1  0
 59 68  1  0
 59 60  1  0
 61 60  1  0
 62 55  2  0
 63 64  1  0
 65 66  2  0
 66 85  1  0
 67 66  1  0
 67 70  1  0
 68 65  1  0
 68 69  1  0
 69 67  2  0
 70 71  1  0
 71 72  2  0
 73 76  1  0
 73 72  1  0
 74 73  2  0
 75 74  1  0
 75 70  2  0
 76 77  1  0
 77 82  2  0
 77 78  1  0
 78 79  2  0
 79 80  1  0
 80 84  1  0
 81 80  2  0
 82 81  1  0
 83 82  1  0
 85 86  1  0
 86 89  1  0
 86 88  1  0
 87 85  2  0
 90 91  1  0
 90 65  1  0
 92 90  1  0
 93 54  1  0
 97 94  1  6
 95 97  1  0
 96 97  1  0
 97 93  1  0
M  ISO  4   6 101   7 101  55 100  63 100
M  END
>  <TORSDO>  (86) 
F 25

>  <SCORE>  (86) 
-12.843

>  <name>  (86) 
88

>  <ligand_id>  (86) 
88

>  <original_smiles>  (86) 
[H]c1c([H])c([H])c2c(c1[H])C([H])([H])C([H])([H])C([H])([H])C2([H])N([H])C(=O)C1([H])N(C(=O)C([H])(N([H])C(=O)C([H])(N([H])C([H])([H])[H])C([H])([H])[H])C(C([H])([H])[H])(C([H])([H])[H])C([H])([H])[H])C([H])([H])c2c([H])c(OC([H])([H])C([H])([H])[N+]([H])(C([H])([H])[H])C([H])(C([H])([H])C([H])([H])C(C([H])([H])[H])(C([H])([H])[H])C([H])([H])[H])C([H])(N([H])C(=O)N3C([H])([H])C([H])([H])C([H])([H])C([H])(n4nc(-c5c([H])c([H])c(Oc6c([H])c([H])c(F)c([H])c6F)c([H])c5[H])c(C(=O)N([H])[H])c4N([H])[H])C3([H])[H])C([H])([H])C(C([H])([H])[H])(C([H])([H])[H])C([H])([H])[H])c([H])c([H])c2C1([H])[H]

>  <smiles>  (86) 
[H]c1c([H])c([H])c2c(c1[H])C([H])([H])C([H])([H])C([H])([H])C2([H])N([H])C(=O)C1([H])N(C(=O)C([H])(N([H])C(=O)C([H])(N([H])C([H])([H])[H])C([H])([H])[H])C(C([H])([H])[H])(C([H])([H])[H])C([H])([H])[H])C([H])([H])c2c([H])c(OC([H])([H])C([H])([H])[N+]([H])(C([H])([H])[H])C([H])(C([H])([H])C([H])([H])C(C([H])([H])[H])(C([H])([H])[H])C([H])([H])[H])C([H])(N([H])C(=O)N3C([H])([H])C([H])([H])C([H])([H])C([H])(n4nc(-c5c([H])c([H])c(Oc6c([H])c([H])c(F)c([H])c6F)c([H])c5[H])c(C(=O)N([H])[H])c4N([H])[H])C3([H])[H])C([H])([H])C(C([H])([H])[H])(C([H])([H])[H])C([H])([H])[H])c([H])c([H])c2C1([H])[H]

$$$$
89:0:0
     RDKit          3D

 93100  0  0  1  0  0  0  0  0999 V2000
  -28.4680  -22.1240   20.0000 C   0  0  0  0  0  3  0  0  0  0  0  0
  -28.4330  -22.2220   18.4630 C   0  0  0  0  0  2  0  0  0  0  0  0
  -29.6930  -22.8910   17.8700 C   0  0  0  0  0  2  0  0  0  0  0  0
  -29.6260  -23.0380   16.4060 N   0  0  0  0  0  4  0  0  0  0  0  0
  -29.5060  -22.1510   15.9520 H   0  0  0  0  0  0  0  0  0  0  0  0
  -30.4810  -23.4430   16.0690 H   0  0  0  0  0  0  0  0  0  0  0  0
  -28.8720  -23.6450   16.1370 H   0  0  0  0  0  0  0  0  0  0  0  0
  -28.0890  -23.9270   20.5850 C   0  0  0  0  0  2  0  0  0  0  0  0
  -28.2120  -25.6380   20.2800 O   0  0  0  0  0  0  0  0  0  0  0  0
  -24.5940  -31.8710   23.1570 C   0  0  0  0  0  0  0  0  0  0  0  0
  -27.2060  -26.8070   20.2810 C   0  0  0  0  0  0  0  0  0  0  0  0
  -23.4380  -30.4420   21.5250 C   0  0  0  0  0  3  0  0  0  0  0  0
  -24.9160  -28.7890   20.1620 C   0  0  0  0  0  0  0  0  0  0  0  0
  -26.0160  -30.6160   21.4300 C   0  0  0  0  0  2  0  0  0  0  0  0
  -26.1020  -29.1770   20.8010 C   0  0  0  0  0  0  0  0  0  0  0  0
  -27.2360  -28.2150   20.8210 C   0  0  0  0  0  3  0  0  0  0  0  0
  -25.9810  -26.6130   19.5950 C   0  0  0  0  0  3  0  0  0  0  0  0
  -24.8920  -27.5320   19.5380 C   0  0  0  0  0  3  0  0  0  0  0  0
  -23.7010  -29.7260   20.1700 C   0  0  0  0  0  2  0  0  0  0  0  0
  -24.7060  -31.0090   22.0900 N   0  0  0  0  0  0  0  0  0  0  0  0
  -23.4920  -32.1680   23.6490 O   0  0  0  0  0  0  0  0  0  0  0  0
  -22.7210  -29.4700   22.5000 C   0  0  0  0  0  0  0  0  0  0  0  0
  -21.3880  -29.3220   22.3760 N   0  0  0  0  0  0  0  0  0  0  0  0
  -23.3740  -28.8450   23.3380 O   0  0  0  0  0  0  0  0  0  0  0  0
  -20.9110  -29.8730   21.6770 H   0  0  0  0  0  0  0  0  0  0  0  0
  -17.9880  -28.1660   22.9270 C   0  0  0  0  0  0  0  0  0  0  0  0
  -20.5560  -28.3940   23.1530 C   0  0  0  0  0  3  0  0  0  0  0  0
  -20.6260  -26.9640   22.5690 C   0  0  0  0  0  2  0  0  0  0  0  0
  -19.5060  -26.6640   21.5680 C   0  0  0  0  0  2  0  0  0  0  0  0
  -18.1360  -26.8220   22.2330 C   0  0  0  0  0  2  0  0  0  0  0  0
  -19.1240  -28.9110   23.3440 C   0  0  0  0  0  0  0  0  0  0  0  0
  -18.9280  -30.1670   23.9580 C   0  0  0  0  0  3  0  0  0  0  0  0
  -17.6320  -30.6790   24.1550 C   0  0  0  0  0  3  0  0  0  0  0  0
  -16.5120  -29.9330   23.7510 C   0  0  0  0  0  3  0  0  0  0  0  0
  -16.6900  -28.6780   23.1430 C   0  0  0  0  0  3  0  0  0  0  0  0
  -25.8450  -32.5400   23.8040 C   0  0  0  0  0  3  0  0  0  0  0  0
  -26.3330  -31.8000   25.1110 C   0  0  1  0  0  0  0  0  0  0  0  0
  -25.2140  -31.5700   26.1540 C   0  0  0  0  0  1  0  0  0  0  0  0
  -26.9410  -30.4200   24.7740 C   0  0  0  0  0  1  0  0  0  0  0  0
  -27.4590  -32.6190   25.7860 C   0  0  0  0  0  1  0  0  0  0  0  0
  -25.5050  -33.9410   24.1190 N   0  0  0  0  0  0  0  0  0  0  0  0
  -25.8490  -35.0040   23.3800 C   0  0  0  0  0  0  0  0  0  0  0  0
  -26.5440  -34.9100   22.3650 O   0  0  0  0  0  0  0  0  0  0  0  0
  -24.8880  -34.0870   24.9040 H   0  0  0  0  0  0  0  0  0  0  0  0
  -24.1370  -36.8100   22.9850 C   0  0  0  0  0  1  0  0  0  0  0  0
  -25.3470  -36.3920   23.8340 C   0  0  0  0  0  3  0  0  0  0  0  0
  -27.4440  -37.2780   24.7570 C   0  0  0  0  0  1  0  0  0  0  0  0
  -26.3830  -37.4460   23.7670 N   0  0  0  0  0  0  0  0  0  0  0  0
  -25.9710  -38.3660   23.8970 H   0  0  0  0  0  0  0  0  0  0  0  0
  -29.5020  -20.5590   20.4170 C   0  0  0  0  0  3  0  0  0  0  0  0
  -30.1000  -21.0330   21.6750 N   0  0  0  0  0  4  0  0  0  0  0  0
  -29.4290  -21.0020   22.4220 H   0  0  0  0  0  0  0  0  0  0  0  0
  -30.4290  -21.9780   21.5830 H   0  0  0  0  0  0  0  0  0  0  0  0
  -30.8840  -20.4600   21.9320 H   0  0  0  0  0  0  0  0  0  0  0  0
  -29.5360  -18.6420   20.7390 C   0  0  0  0  0  2  0  0  0  0  0  0
  -30.2740  -15.6400   20.1070 C   0  0  0  0  0  0  0  0  0  0  0  0
  -30.3240  -13.1510   19.1670 C   0  0  0  0  0  2  0  0  0  0  0  0
  -29.3710  -12.7940   17.9930 C   0  0  0  0  0  2  0  0  0  0  0  0
  -27.9660  -12.4360   18.5070 C   0  0  0  0  0  2  0  0  0  0  0  0
  -27.5080  -13.4040   19.6220 C   0  0  0  0  0  3  0  0  0  0  0  0
  -28.5950  -13.6670   20.6870 C   0  0  0  0  0  2  0  0  0  0  0  0
  -29.7320  -14.2980   19.9780 N   0  0  0  0  0  0  0  0  0  0  0  0
  -31.5120  -15.5840   19.9980 O   0  0  0  0  0  0  0  0  0  0  0  0
  -29.5100  -16.9860   20.1410 N   0  0  0  0  0  0  0  0  0  0  0  0
  -28.5500  -16.7600   19.9250 H   0  0  0  0  0  0  0  0  0  0  0  0
  -25.1820  -13.9100   20.5100 C   0  0  0  0  0  0  0  0  0  0  0  0
  -24.1420  -13.1160   20.9020 C   0  0  0  0  0  0  0  0  0  0  0  0
  -24.6180  -11.7710   20.8210 C   0  0  0  0  0  0  0  0  0  0  0  0
  -26.2180  -13.0520   20.1970 N   0  0  0  0  0  0  0  0  0  0  0  0
  -25.8970  -11.7560   20.4530 N   0  0  0  0  0  0  0  0  0  0  0  0
  -23.9070  -10.4990   21.0070 C   0  0  0  0  0  0  0  0  0  0  0  0
  -24.3510   -9.5330   21.9370 C   0  0  0  0  0  3  0  0  0  0  0  0
  -23.6350   -8.3300   22.1170 C   0  0  0  0  0  3  0  0  0  0  0  0
  -22.4620   -8.0830   21.3640 C   0  0  0  0  0  0  0  0  0  0  0  0
  -22.0380   -9.0370   20.4230 C   0  0  0  0  0  3  0  0  0  0  0  0
  -22.7530  -10.2320   20.2430 C   0  0  0  0  0  3  0  0  0  0  0  0
  -21.7170   -6.9310   21.4530 O   0  0  0  0  0  0  0  0  0  0  0  0
  -21.6450   -6.2090   22.6170 C   0  0  0  0  0  0  0  0  0  0  0  0
  -21.1270   -6.7640   23.8090 C   0  0  0  0  0  3  0  0  0  0  0  0
  -21.0070   -5.9650   24.9630 C   0  0  0  0  0  3  0  0  0  0  0  0
  -21.3910   -4.6120   24.9270 C   0  0  0  0  0  0  0  0  0  0  0  0
  -21.9010   -4.0540   23.7400 C   0  0  0  0  0  3  0  0  0  0  0  0
  -22.0240   -4.8510   22.5880 C   0  0  0  0  0  0  0  0  0  0  0  0
  -22.4950   -4.3050   21.4410 F   0  0  0  0  0  0  0  0  0  0  0  0
  -21.2690   -3.8400   26.0320 F   0  0  0  0  0  0  0  0  0  0  0  0
  -22.7530  -13.5780   21.2310 C   0  0  0  0  0  0  0  0  0  0  0  0
  -22.0560  -12.8560   22.1000 N   0  0  0  0  0  0  0  0  0  0  0  0
  -22.2960  -14.6160   20.7520 O   0  0  0  0  0  0  0  0  0  0  0  0
  -22.4380  -12.0170   22.5090 H   0  0  0  0  0  0  0  0  0  0  0  0
  -21.1230  -13.1450   22.3560 H   0  0  0  0  0  0  0  0  0  0  0  0
  -25.3270  -15.2860   20.3570 N   0  0  0  0  0  0  0  0  0  0  0  0
  -24.5640  -15.9340   20.5160 H   0  0  0  0  0  0  0  0  0  0  0  0
  -26.1540  -15.7350   19.9860 H   0  0  0  0  0  0  0  0  0  0  0  0
  1  2  1  0
  1 50  1  0
  1  8  1  0
  3  2  1  0
  4  3  1  0
  5  4  1  0
  6  4  1  0
  7  4  1  0
  9 11  1  0
  9  8  1  0
 10 21  2  0
 11 16  1  0
 12 20  1  0
 12 22  1  0
 13 19  1  0
 13 15  1  0
 14 20  1  0
 15 16  2  0
 15 14  1  0
 17 11  2  0
 18 17  1  0
 18 13  2  0
 19 12  1  0
 20 10  1  0
 22 24  2  0
 23 22  1  0
 25 23  1  0
 26 35  2  0
 26 31  1  0
 27 23  1  0
 27 31  1  0
 28 27  1  0
 29 30  1  0
 29 28  1  0
 30 26  1  0
 31 32  2  0
 32 33  1  0
 34 33  2  0
 35 34  1  0
 36 10  1  0
 36 41  1  0
 36 37  1  0
 37 40  1  1
 37 38  1  0
 39 37  1  0
 41 44  1  0
 42 46  1  0
 42 41  1  0
 43 42  2  0
 46 45  1  0
 48 46  1  0
 48 49  1  0
 48 47  1  0
 50 55  1  0
 50 51  1  0
 51 54  1  0
 51 52  1  0
 53 51  1  0
 56 64  1  0
 57 62  1  0
 58 59  1  0
 58 57  1  0
 60 59  1  0
 60 69  1  0
 60 61  1  0
 62 56  1  0
 62 61  1  0
 63 56  2  0
 64 55  1  0
 65 64  1  0
 66 67  2  0
 67 86  1  0
 68 67  1  0
 68 71  1  0
 69 70  1  0
 69 66  1  0
 70 68  2  0
 71 72  1  0
 72 73  2  0
 74 77  1  0
 74 73  1  0
 75 74  2  0
 76 75  1  0
 76 71  2  0
 77 78  1  0
 78 79  1  0
 79 80  2  0
 81 80  1  0
 81 85  1  0
 82 81  2  0
 83 78  2  0
 83 82  1  0
 84 83  1  0
 86 87  1  0
 87 90  1  0
 87 89  1  0
 88 86  2  0
 91 66  1  0
 91 92  1  0
 93 91  1  0
M  ISO  4   8 101   9 101  56 100  64 100
M  END
>  <TORSDO>  (87) 
F 23

>  <SCORE>  (87) 
-15.515

>  <name>  (87) 
89

>  <ligand_id>  (87) 
89

>  <original_smiles>  (87) 
[H]c1c([H])c([H])c2c(c1[H])C([H])([H])C([H])([H])C([H])([H])C2([H])N([H])C(=O)C1([H])N(C(=O)C([H])(N([H])C(=O)C([H])(N([H])C([H])([H])[H])C([H])([H])[H])C(C([H])([H])[H])(C([H])([H])[H])C([H])([H])[H])C([H])([H])c2c([H])c(OC([H])([H])C([H])(C([H])([H])C([H])([H])[N+]([H])([H])[H])C([H])(C([H])([H])N([H])C(=O)N3C([H])([H])C([H])([H])C([H])([H])C([H])(n4nc(-c5c([H])c([H])c(Oc6c([H])c([H])c(F)c([H])c6F)c([H])c5[H])c(C(=O)N([H])[H])c4N([H])[H])C3([H])[H])[N+]([H])([H])[H])c([H])c([H])c2C1([H])[H]

>  <smiles>  (87) 
[H]c1c([H])c([H])c2c(c1[H])C([H])([H])C([H])([H])C([H])([H])C2([H])N([H])C(=O)C1([H])N(C(=O)C([H])(N([H])C(=O)C([H])(N([H])C([H])([H])[H])C([H])([H])[H])C(C([H])([H])[H])(C([H])([H])[H])C([H])([H])[H])C([H])([H])c2c([H])c(OC([H])([H])C([H])(C([H])([H])C([H])([H])[N+]([H])([H])[H])C([H])(C([H])([H])N([H])C(=O)N3C([H])([H])C([H])([H])C([H])([H])C([H])(n4nc(-c5c([H])c([H])c(Oc6c([H])c([H])c(F)c([H])c6F)c([H])c5[H])c(C(=O)N([H])[H])c4N([H])[H])C3([H])[H])[N+]([H])([H])[H])c([H])c([H])c2C1([H])[H]

$$$$
90:0:0
     RDKit          3D

103112  0  0  1  0  0  0  0  0999 V2000
  -29.9940  -20.8800   20.1510 C   0  0  0  0  0  3  0  0  0  0  0  0
  -29.5260  -19.2900   19.7660 C   0  0  0  0  0  2  0  0  0  0  0  0
  -30.4410  -17.8870   19.5280 C   0  0  0  0  0  3  0  0  0  0  0  0
  -30.8180  -15.2890   20.1840 C   0  0  0  0  0  0  0  0  0  0  0  0
  -30.6800  -12.8880   19.4460 C   0  0  0  0  0  2  0  0  0  0  0  0
  -29.7920  -12.7770   18.1870 C   0  0  0  0  0  2  0  0  0  0  0  0
  -28.3130  -12.6090   18.5820 C   0  0  0  0  0  2  0  0  0  0  0  0
  -27.8740  -13.6190   19.6780 C   0  0  0  0  0  3  0  0  0  0  0  0
  -28.8950  -13.7180   20.8330 C   0  0  0  0  0  2  0  0  0  0  0  0
  -30.1940  -14.0490   20.2380 N   0  0  0  0  0  0  0  0  0  0  0  0
  -32.0250  -15.3130   19.9250 O   0  0  0  0  0  0  0  0  0  0  0  0
  -30.0690  -16.4900   20.1500 N   0  0  0  0  0  0  0  0  0  0  0  0
  -29.0980  -16.3750   20.3970 H   0  0  0  0  0  0  0  0  0  0  0  0
  -25.4950  -14.2560   20.3760 C   0  0  0  0  0  0  0  0  0  0  0  0
  -24.4070  -13.5070   20.7310 C   0  0  0  0  0  0  0  0  0  0  0  0
  -24.8400  -12.1450   20.7080 C   0  0  0  0  0  0  0  0  0  0  0  0
  -26.5210  -13.3540   20.1550 N   0  0  0  0  0  0  0  0  0  0  0  0
  -26.1340  -12.0790   20.4210 N   0  0  0  0  0  0  0  0  0  0  0  0
  -24.0800  -10.9010   20.8870 C   0  0  0  0  0  0  0  0  0  0  0  0
  -24.5040   -9.8980   21.7870 C   0  0  0  0  0  3  0  0  0  0  0  0
  -23.7440   -8.7210   21.9570 C   0  0  0  0  0  3  0  0  0  0  0  0
  -22.5460   -8.5360   21.2270 C   0  0  0  0  0  0  0  0  0  0  0  0
  -22.1410   -9.5260   20.3150 C   0  0  0  0  0  3  0  0  0  0  0  0
  -22.9000  -10.6960   20.1420 C   0  0  0  0  0  3  0  0  0  0  0  0
  -21.7580   -7.4130   21.3070 O   0  0  0  0  0  0  0  0  0  0  0  0
  -21.7470   -6.6200   22.4250 C   0  0  0  0  0  0  0  0  0  0  0  0
  -21.4450   -7.1370   23.7050 C   0  0  0  0  0  3  0  0  0  0  0  0
  -21.3790   -6.2740   24.8160 C   0  0  0  0  0  3  0  0  0  0  0  0
  -21.6040   -4.8940   24.6500 C   0  0  0  0  0  0  0  0  0  0  0  0
  -21.9000   -4.3760   23.3760 C   0  0  0  0  0  3  0  0  0  0  0  0
  -21.9680   -5.2370   22.2670 C   0  0  0  0  0  0  0  0  0  0  0  0
  -22.2330   -4.7300   21.0390 F   0  0  0  0  0  0  0  0  0  0  0  0
  -21.5330   -4.0610   25.7150 F   0  0  0  0  0  0  0  0  0  0  0  0
  -23.0170  -14.0170   20.9740 C   0  0  0  0  0  0  0  0  0  0  0  0
  -22.2730  -13.3680   21.8620 N   0  0  0  0  0  0  0  0  0  0  0  0
  -22.6010  -15.0300   20.4120 O   0  0  0  0  0  0  0  0  0  0  0  0
  -22.6240  -12.5500   22.3400 H   0  0  0  0  0  0  0  0  0  0  0  0
  -21.3380  -13.6930   22.0670 H   0  0  0  0  0  0  0  0  0  0  0  0
  -25.6910  -15.6220   20.1970 N   0  0  0  0  0  0  0  0  0  0  0  0
  -24.9290  -16.2850   20.2880 H   0  0  0  0  0  0  0  0  0  0  0  0
  -26.5380  -16.0400   19.8380 H   0  0  0  0  0  0  0  0  0  0  0  0
  -30.5050  -17.5650   18.0010 C   0  0  0  0  0  2  0  0  0  0  0  0
  -32.0190  -20.5240   15.2100 C   0  0  0  0  0  3  0  0  0  0  0  0
  -30.6290  -20.3750   15.3920 C   0  0  0  0  0  3  0  0  0  0  0  0
  -32.9140  -19.7210   15.9430 C   0  0  0  0  0  3  0  0  0  0  0  0
  -30.1360  -19.4310   16.3140 C   0  0  0  0  0  3  0  0  0  0  0  0
  -32.4220  -18.7710   16.8600 C   0  0  0  0  0  3  0  0  0  0  0  0
  -31.0310  -18.6350   17.0620 C   0  0  0  0  0  0  0  0  0  0  0  0
  -31.5200  -21.0510   20.3890 C   0  0  0  0  0  2  0  0  0  0  0  0
  -32.0490  -20.2750   21.5280 N   0  0  0  0  0  4  0  0  0  0  0  0
  -31.5660  -20.5040   22.3790 H   0  0  0  0  0  0  0  0  0  0  0  0
  -33.0200  -20.4990   21.6650 H   0  0  0  0  0  0  0  0  0  0  0  0
  -31.9820  -19.2870   21.3680 H   0  0  0  0  0  0  0  0  0  0  0  0
  -29.4550  -22.2560   19.3080 C   0  0  0  0  0  3  0  0  0  0  0  0
  -25.7200  -21.5430   19.2270 C   0  0  0  0  0  2  0  0  0  0  0  0
  -26.1300  -21.2880   17.7680 C   0  0  0  0  0  2  0  0  0  0  0  0
  -27.0110  -21.9260   19.9670 C   0  0  0  0  0  2  0  0  0  0  0  0
  -27.6600  -21.3110   17.7610 C   0  0  0  0  0  2  0  0  0  0  0  0
  -28.0200  -22.1620   18.9100 N   0  0  2  0  0  4  0  0  0  0  0  0
  -27.8020  -23.0850   18.5660 H   0  0  0  0  0  0  0  0  0  0  0  0
  -29.6600  -23.8400   19.8350 C   0  0  0  0  0  3  0  0  0  0  0  0
  -28.7070  -25.1240   19.3510 C   0  0  0  0  0  3  0  0  0  0  0  0
  -28.8050  -26.5970   19.7920 O   0  0  0  0  0  0  0  0  0  0  0  0
  -24.5790  -31.5980   23.1030 C   0  0  0  0  0  0  0  0  0  0  0  0
  -27.6510  -27.4520   19.7710 C   0  0  0  0  0  0  0  0  0  0  0  0
  -23.5490  -30.2560   21.3110 C   0  0  0  0  0  3  0  0  0  0  0  0
  -25.1670  -28.9490   19.8080 C   0  0  0  0  0  0  0  0  0  0  0  0
  -26.0690  -30.7660   21.2520 C   0  0  0  0  0  2  0  0  0  0  0  0
  -26.2850  -29.4520   20.4890 C   0  0  0  0  0  0  0  0  0  0  0  0
  -27.5250  -28.7210   20.4560 C   0  0  0  0  0  3  0  0  0  0  0  0
  -26.5000  -27.0380   19.0650 C   0  0  0  0  0  3  0  0  0  0  0  0
  -25.2860  -27.7540   19.0840 C   0  0  0  0  0  3  0  0  0  0  0  0
  -23.8640  -29.7240   19.8880 C   0  0  0  0  0  2  0  0  0  0  0  0
  -24.7490  -30.8890   21.9460 N   0  0  0  0  0  0  0  0  0  0  0  0
  -23.4580  -31.7400   23.6150 O   0  0  0  0  0  0  0  0  0  0  0  0
  -22.9410  -29.1110   22.1600 C   0  0  0  0  0  0  0  0  0  0  0  0
  -21.6350  -28.8460   21.9830 N   0  0  0  0  0  0  0  0  0  0  0  0
  -23.6470  -28.4680   22.9420 O   0  0  0  0  0  0  0  0  0  0  0  0
  -21.1190  -29.4220   21.3320 H   0  0  0  0  0  0  0  0  0  0  0  0
  -18.3520  -27.3490   22.2910 C   0  0  0  0  0  0  0  0  0  0  0  0
  -20.8750  -27.7820   22.6470 C   0  0  0  0  0  3  0  0  0  0  0  0
  -21.1020  -26.4210   21.9490 C   0  0  0  0  0  2  0  0  0  0  0  0
  -20.0480  -26.1070   20.8840 C   0  0  0  0  0  2  0  0  0  0  0  0
  -18.6470  -26.0860   21.5000 C   0  0  0  0  0  2  0  0  0  0  0  0
  -19.3970  -28.1540   22.8150 C   0  0  0  0  0  0  0  0  0  0  0  0
  -19.0670  -29.3340   23.5160 C   0  0  0  0  0  3  0  0  0  0  0  0
  -17.7220  -29.7120   23.6970 C   0  0  0  0  0  3  0  0  0  0  0  0
  -16.6910  -28.9050   23.1870 C   0  0  0  0  0  3  0  0  0  0  0  0
  -17.0060  -27.7250   22.4900 C   0  0  0  0  0  3  0  0  0  0  0  0
  -25.7790  -32.2850   23.8230 C   0  0  0  0  0  3  0  0  0  0  0  0
  -26.1940  -31.5600   25.1630 C   0  0  1  0  0  0  0  0  0  0  0  0
  -25.0150  -31.3310   26.1380 C   0  0  0  0  0  1  0  0  0  0  0  0
  -26.8340  -30.1840   24.8670 C   0  0  0  0  0  1  0  0  0  0  0  0
  -27.2670  -32.3960   25.8980 C   0  0  0  0  0  1  0  0  0  0  0  0
  -25.4000  -33.6800   24.0930 N   0  0  0  0  0  0  0  0  0  0  0  0
  -25.7900  -34.7330   23.3630 C   0  0  0  0  0  0  0  0  0  0  0  0
  -26.5720  -34.6330   22.4140 O   0  0  0  0  0  0  0  0  0  0  0  0
  -24.7180  -33.8300   24.8210 H   0  0  0  0  0  0  0  0  0  0  0  0
  -24.0640  -36.4800   22.8040 C   0  0  0  0  0  1  0  0  0  0  0  0
  -25.2240  -36.1160   23.7430 C   0  0  0  0  0  3  0  0  0  0  0  0
  -27.2420  -37.0670   24.7740 C   0  0  0  0  0  1  0  0  0  0  0  0
  -26.2380  -37.1940   23.7200 N   0  0  0  0  0  0  0  0  0  0  0  0
  -25.7970  -38.1060   23.8130 H   0  0  0  0  0  0  0  0  0  0  0  0
  1  2  1  0
  1 49  1  0
  3 42  1  0
  3  2  1  0
  3 12  1  0
  4 10  1  0
  5 10  1  0
  6  7  1  0
  6  5  1  0
  8  7  1  0
  8 17  1  0
  8  9  1  0
 10  9  1  0
 11  4  2  0
 12  4  1  0
 12 13  1  0
 14 15  2  0
 15 34  1  0
 16 15  1  0
 16 19  1  0
 17 14  1  0
 17 18  1  0
 18 16  2  0
 19 20  1  0
 20 21  2  0
 22 25  1  0
 22 21  1  0
 23 22  2  0
 24 23  1  0
 24 19  2  0
 25 26  1  0
 26 27  1  0
 27 28  2  0
 29 28  1  0
 29 33  1  0
 30 29  2  0
 31 26  2  0
 31 30  1  0
 32 31  1  0
 34 35  1  0
 35 38  1  0
 35 37  1  0
 36 34  2  0
 39 40  1  0
 39 14  1  0
 41 39  1  0
 43 44  2  0
 43 45  1  0
 44 46  1  0
 45 47  2  0
 46 48  2  0
 47 48  1  0
 48 42  1  0
 49 50  1  0
 50 52  1  0
 50 51  1  0
 53 50  1  0
 54 61  1  0
 54  1  1  0
 55 57  1  0
 56 55  1  0
 58 56  1  0
 58 59  1  0
 59 54  1  0
 59 57  1  0
 59 60  1  6
 62 63  1  0
 62 61  2  0
 64 75  2  0
 65 63  1  0
 65 70  1  0
 66 74  1  0
 66 76  1  0
 67 73  1  0
 67 69  1  0
 68 74  1  0
 69 68  1  0
 70 69  2  0
 71 72  1  0
 71 65  2  0
 72 67  2  0
 73 66  1  0
 74 64  1  0
 76 78  2  0
 77 76  1  0
 79 77  1  0
 80 89  2  0
 80 85  1  0
 81 77  1  0
 81 85  1  0
 82 81  1  0
 83 84  1  0
 83 82  1  0
 84 80  1  0
 85 86  2  0
 86 87  1  0
 88 87  2  0
 89 88  1  0
 90 64  1  0
 90 95  1  0
 90 91  1  0
 91 94  1  1
 91 92  1  0
 93 91  1  0
 95 98  1  0
 96100  1  0
 96 95  1  0
 97 96  2  0
100 99  1  0
102100  1  0
102103  1  0
102101  1  0
M  ISO  4   4 100  12 100  62 101  63 101
M  END
>  <TORSDO>  (88) 
F 26

>  <SCORE>  (88) 
-11.695

>  <name>  (88) 
90

>  <ligand_id>  (88) 
90

>  <original_smiles>  (88) 
[H]c1c([H])c([H])c(C([H])([H])C([H])(N([H])C(=O)N2C([H])([H])C([H])([H])C([H])([H])C([H])(n3nc(-c4c([H])c([H])c(Oc5c([H])c([H])c(F)c([H])c5F)c([H])c4[H])c(C(=O)N([H])[H])c3N([H])[H])C2([H])[H])C([H])([H])C([H])(C([H])([H])[N+]([H])([H])[H])C([H])(C([H])([H])C([H])([H])Oc2c([H])c([H])c3c(c2[H])C([H])([H])N(C(=O)C([H])(N([H])C(=O)C([H])(N([H])C([H])([H])[H])C([H])([H])[H])C(C([H])([H])[H])(C([H])([H])[H])C([H])([H])[H])C([H])(C(=O)N([H])C2([H])c4c([H])c([H])c([H])c([H])c4C([H])([H])C([H])([H])C2([H])[H])C3([H])[H])[N+]2([H])C([H])([H])C([H])([H])C([H])([H])C2([H])[H])c([H])c1[H]

>  <smiles>  (88) 
[H]c1c([H])c([H])c(C([H])([H])C([H])(N([H])C(=O)N2C([H])([H])C([H])([H])C([H])([H])C([H])(n3nc(-c4c([H])c([H])c(Oc5c([H])c([H])c(F)c([H])c5F)c([H])c4[H])c(C(=O)N([H])[H])c3N([H])[H])C2([H])[H])C([H])([H])C([H])(C([H])([H])[N+]([H])([H])[H])C([H])(C([H])([H])C([H])([H])Oc2c([H])c([H])c3c(c2[H])C([H])([H])N(C(=O)C([H])(N([H])C(=O)C([H])(N([H])C([H])([H])[H])C([H])([H])[H])C(C([H])([H])[H])(C([H])([H])[H])C([H])([H])[H])C([H])(C(=O)N([H])C2([H])c4c([H])c([H])c([H])c([H])c4C([H])([H])C([H])([H])C2([H])[H])C3([H])[H])[N+]2([H])C([H])([H])C([H])([H])C([H])([H])C2([H])[H])c([H])c1[H]

$$$$
91:0:0
     RDKit          3D

107114  0  0  1  0  0  0  0  0999 V2000
  -29.7250  -18.9820   20.4790 C   0  0  0  0  0  3  0  0  0  0  0  0
  -30.3790  -18.8030   19.0690 C   0  0  0  0  0  3  0  0  0  0  0  0
  -31.8620  -18.7740   19.1180 N   0  0  0  0  0  4  0  0  0  0  0  0
  -32.2170  -18.8500   18.1690 H   0  0  0  0  0  0  0  0  0  0  0  0
  -32.2160  -17.9200   19.5150 H   0  0  0  0  0  0  0  0  0  0  0  0
  -32.2580  -19.5500   19.6160 H   0  0  0  0  0  0  0  0  0  0  0  0
  -29.8570  -19.7950   17.9980 C   0  0  0  0  0  2  0  0  0  0  0  0
  -29.1840  -19.1220   16.7580 C   0  0  0  0  0  3  0  0  0  0  0  0
  -30.1880  -18.6650   15.6770 C   0  0  0  0  0  0  0  0  0  0  0  0
  -29.7220  -18.0030   14.6280 N   0  0  0  0  0  0  0  0  0  0  0  0
  -31.3920  -18.8680   15.8040 O   0  0  0  0  0  0  0  0  0  0  0  0
  -28.7350  -17.8080   14.5360 H   0  0  0  0  0  0  0  0  0  0  0  0
  -30.3520  -17.6990   13.9020 H   0  0  0  0  0  0  0  0  0  0  0  0
  -28.0660  -20.0160   16.1550 C   0  0  0  0  0  2  0  0  0  0  0  0
  -26.6480  -19.6460   16.6360 C   0  0  0  0  0  2  0  0  0  0  0  0
  -26.2870  -20.2150   18.0230 C   0  0  0  0  0  2  0  0  0  0  0  0
  -26.1320  -21.7480   18.0140 C   0  0  0  0  0  2  0  0  0  0  0  0
  -25.7110  -22.2800   19.3240 N   0  0  0  0  0  4  0  0  0  0  0  0
  -24.8260  -21.8900   19.5980 H   0  0  0  0  0  0  0  0  0  0  0  0
  -25.6040  -23.2790   19.2580 H   0  0  0  0  0  0  0  0  0  0  0  0
  -26.3930  -22.0910   20.0350 H   0  0  0  0  0  0  0  0  0  0  0  0
  -29.8580  -20.5930   21.0240 C   0  0  0  0  0  2  0  0  0  0  0  0
  -29.0690  -21.8420   20.4290 N   0  0  0  0  0  4  0  0  0  0  0  0
  -29.1450  -21.8130   19.4250 H   0  0  0  0  0  0  0  0  0  0  0  0
  -28.0970  -21.6680   20.6330 H   0  0  0  0  0  0  0  0  0  0  0  0
  -29.3470  -23.3550   20.8450 C   0  0  0  0  0  3  0  0  0  0  0  0
  -28.4010  -24.6590   20.3310 C   0  0  0  0  0  3  0  0  0  0  0  0
  -28.6160  -26.1800   20.6070 O   0  0  0  0  0  0  0  0  0  0  0  0
  -24.7400  -31.7550   23.4490 C   0  0  0  0  0  0  0  0  0  0  0  0
  -27.5630  -27.1580   20.4710 C   0  0  0  0  0  0  0  0  0  0  0  0
  -23.6750  -30.4190   21.6730 C   0  0  0  0  0  3  0  0  0  0  0  0
  -25.2380  -28.8990   20.3070 C   0  0  0  0  0  0  0  0  0  0  0  0
  -26.2330  -30.6930   21.7190 C   0  0  0  0  0  2  0  0  0  0  0  0
  -26.3630  -29.3280   21.0240 C   0  0  0  0  0  0  0  0  0  0  0  0
  -27.5270  -28.4740   21.0880 C   0  0  0  0  0  3  0  0  0  0  0  0
  -26.4150  -26.8350   19.7130 C   0  0  0  0  0  3  0  0  0  0  0  0
  -25.2800  -27.6690   19.6340 C   0  0  0  0  0  3  0  0  0  0  0  0
  -24.0060  -29.7890   20.2910 C   0  0  0  0  0  2  0  0  0  0  0  0
  -24.8990  -30.9760   22.3360 N   0  0  0  0  0  0  0  0  0  0  0  0
  -23.6160  -32.0180   23.9030 O   0  0  0  0  0  0  0  0  0  0  0  0
  -22.9270  -29.3770   22.5430 C   0  0  0  0  0  0  0  0  0  0  0  0
  -21.6010  -29.2580   22.3540 N   0  0  0  0  0  0  0  0  0  0  0  0
  -23.5440  -28.6820   23.3530 O   0  0  0  0  0  0  0  0  0  0  0  0
  -21.1620  -29.8700   21.6820 H   0  0  0  0  0  0  0  0  0  0  0  0
  -18.1510  -28.2130   22.7280 C   0  0  0  0  0  0  0  0  0  0  0  0
  -20.7190  -28.3060   23.0340 C   0  0  0  0  0  3  0  0  0  0  0  0
  -20.7450  -26.9260   22.3350 C   0  0  0  0  0  2  0  0  0  0  0  0
  -19.6390  -26.7570   21.2890 C   0  0  0  0  0  2  0  0  0  0  0  0
  -18.2590  -26.9220   21.9330 C   0  0  0  0  0  2  0  0  0  0  0  0
  -19.3060  -28.8710   23.2310 C   0  0  0  0  0  0  0  0  0  0  0  0
  -19.1470  -30.0850   23.9330 C   0  0  0  0  0  3  0  0  0  0  0  0
  -17.8690  -30.6420   24.1320 C   0  0  0  0  0  3  0  0  0  0  0  0
  -16.7300  -29.9780   23.6450 C   0  0  0  0  0  3  0  0  0  0  0  0
  -16.8720  -28.7650   22.9500 C   0  0  0  0  0  3  0  0  0  0  0  0
  -25.9640  -32.3680   24.1960 C   0  0  0  0  0  3  0  0  0  0  0  0
  -25.6230  -33.7560   24.5470 N   0  0  0  0  0  0  0  0  0  0  0  0
  -26.0260  -34.8400   23.8690 C   0  0  0  0  0  0  0  0  0  0  0  0
  -26.7890  -34.7750   22.9020 O   0  0  0  0  0  0  0  0  0  0  0  0
  -24.9570  -33.8800   25.2960 H   0  0  0  0  0  0  0  0  0  0  0  0
  -24.3550  -36.6690   23.4220 C   0  0  0  0  0  1  0  0  0  0  0  0
  -25.5020  -36.2120   24.3380 C   0  0  0  0  0  3  0  0  0  0  0  0
  -27.5390  -37.0460   25.4290 C   0  0  0  0  0  1  0  0  0  0  0  0
  -26.5460  -37.2600   24.3810 N   0  0  0  0  0  0  0  0  0  0  0  0
  -26.1300  -38.1770   24.5150 H   0  0  0  0  0  0  0  0  0  0  0  0
  -26.3720  -31.5590   25.4890 C   0  0  1  0  0  0  0  0  0  0  0  0
  -25.1900  -31.2860   26.4480 C   0  0  0  0  0  1  0  0  0  0  0  0
  -26.9950  -30.1950   25.1110 C   0  0  0  0  0  1  0  0  0  0  0  0
  -27.4570  -32.3340   26.2720 C   0  0  0  0  0  1  0  0  0  0  0  0
  -30.2100  -17.6370   21.3860 C   0  0  0  0  0  2  0  0  0  0  0  0
  -30.7050  -14.9410   20.9290 C   0  0  0  0  0  0  0  0  0  0  0  0
  -30.6580  -12.6150   19.9140 C   0  0  0  0  0  2  0  0  0  0  0  0
  -29.8110  -12.5990   18.6190 C   0  0  0  0  0  2  0  0  0  0  0  0
  -28.3220  -12.3690   18.9440 C   0  0  0  0  0  2  0  0  0  0  0  0
  -27.8270  -13.2590   20.1170 C   0  0  0  0  0  3  0  0  0  0  0  0
  -28.8080  -13.2500   21.3080 C   0  0  0  0  0  2  0  0  0  0  0  0
  -30.1130  -13.6850   20.7930 N   0  0  0  0  0  0  0  0  0  0  0  0
  -31.9230  -15.0230   20.7500 O   0  0  0  0  0  0  0  0  0  0  0  0
  -29.9120  -16.1110   21.0650 N   0  0  0  0  0  0  0  0  0  0  0  0
  -28.9310  -15.8870   21.1150 H   0  0  0  0  0  0  0  0  0  0  0  0
  -25.3820  -13.7890   20.6530 C   0  0  0  0  0  0  0  0  0  0  0  0
  -24.3110  -12.9950   20.9630 C   0  0  0  0  0  0  0  0  0  0  0  0
  -24.8110  -11.6560   21.0030 C   0  0  0  0  0  0  0  0  0  0  0  0
  -26.4640  -12.9340   20.5230 N   0  0  0  0  0  0  0  0  0  0  0  0
  -26.1240  -11.6490   20.7990 N   0  0  0  0  0  0  0  0  0  0  0  0
  -24.1020  -10.3820   21.1670 C   0  0  0  0  0  0  0  0  0  0  0  0
  -24.4880   -9.4410   22.1460 C   0  0  0  0  0  3  0  0  0  0  0  0
  -23.7780   -8.2310   22.2950 C   0  0  0  0  0  3  0  0  0  0  0  0
  -22.6680   -7.9520   21.4630 C   0  0  0  0  0  0  0  0  0  0  0  0
  -22.3030   -8.8810   20.4720 C   0  0  0  0  0  3  0  0  0  0  0  0
  -23.0150  -10.0830   20.3220 C   0  0  0  0  0  3  0  0  0  0  0  0
  -21.9340   -6.7920   21.5190 O   0  0  0  0  0  0  0  0  0  0  0  0
  -21.8210   -6.0670   22.6770 C   0  0  0  0  0  0  0  0  0  0  0  0
  -21.2650   -6.6230   23.8500 C   0  0  0  0  0  3  0  0  0  0  0  0
  -21.1020   -5.8240   24.9990 C   0  0  0  0  0  3  0  0  0  0  0  0
  -21.4830   -4.4700   24.9770 C   0  0  0  0  0  0  0  0  0  0  0  0
  -22.0310   -3.9120   23.8080 C   0  0  0  0  0  3  0  0  0  0  0  0
  -22.1950   -4.7070   22.6600 C   0  0  0  0  0  0  0  0  0  0  0  0
  -22.7050   -4.1590   21.5300 F   0  0  0  0  0  0  0  0  0  0  0  0
  -21.3170   -3.7000   26.0780 F   0  0  0  0  0  0  0  0  0  0  0  0
  -22.8870  -13.4440   21.1090 C   0  0  0  0  0  0  0  0  0  0  0  0
  -22.1180  -12.7750   21.9610 N   0  0  0  0  0  0  0  0  0  0  0  0
  -22.4620  -14.4270   20.5030 O   0  0  0  0  0  0  0  0  0  0  0  0
  -22.4720  -11.9830   22.4750 H   0  0  0  0  0  0  0  0  0  0  0  0
  -21.1580  -13.0610   22.0980 H   0  0  0  0  0  0  0  0  0  0  0  0
  -25.5240  -15.1590   20.4470 N   0  0  0  0  0  0  0  0  0  0  0  0
  -24.7600  -15.7980   20.6350 H   0  0  0  0  0  0  0  0  0  0  0  0
  -26.4180  -15.6250   20.3840 H   0  0  0  0  0  0  0  0  0  0  0  0
  1 22  1  0
  1 69  1  0
  2  7  1  0
  2  3  1  0
  2  1  1  0
  3  5  1  0
  3  6  1  0
  4  3  1  0
  8 14  1  0
  8  7  1  0
  9 11  2  0
  9  8  1  0
 10  9  1  0
 12 10  1  0
 13 10  1  0
 14 15  1  0
 15 16  1  0
 17 16  1  0
 17 18  1  0
 18 19  1  0
 18 21  1  0
 20 18  1  0
 23 25  1  0
 23 26  1  0
 23 22  1  0
 24 23  1  0
 27 28  1  0
 27 26  2  0
 29 40  2  0
 30 28  1  0
 30 35  1  0
 31 39  1  0
 31 41  1  0
 32 34  1  0
 33 39  1  0
 34 35  2  0
 34 33  1  0
 36 30  2  0
 37 36  1  0
 37 32  2  0
 38 32  1  0
 38 31  1  0
 39 29  1  0
 41 43  2  0
 42 41  1  0
 44 42  1  0
 45 54  2  0
 45 50  1  0
 46 42  1  0
 46 50  1  0
 47 46  1  0
 48 49  1  0
 48 47  1  0
 49 45  1  0
 50 51  2  0
 51 52  1  0
 53 52  2  0
 54 53  1  0
 55 29  1  0
 55 56  1  0
 55 65  1  0
 56 59  1  0
 57 61  1  0
 57 56  1  0
 58 57  2  0
 61 60  1  0
 61 63  1  0
 63 64  1  0
 63 62  1  0
 65 68  1  1
 65 66  1  0
 67 65  1  0
 70 78  1  0
 71 76  1  0
 72 73  1  0
 72 71  1  0
 74 73  1  0
 74 83  1  0
 74 75  1  0
 76 70  1  0
 76 75  1  0
 77 70  2  0
 78 79  1  0
 78 69  1  0
 80 81  2  0
 81 82  1  0
 81100  1  0
 82 85  1  0
 83 80  1  0
 83 84  1  0
 84 82  2  0
 85 86  1  0
 86 87  2  0
 88 91  1  0
 88 87  1  0
 89 88  2  0
 90 89  1  0
 90 85  2  0
 91 92  1  0
 92 93  1  0
 93 94  2  0
 95 94  1  0
 95 99  1  0
 96 95  2  0
 97 92  2  0
 97 96  1  0
 98 97  1  0
100101  1  0
101104  1  0
101103  1  0
102100  2  0
105106  1  0
105 80  1  0
107105  1  0
M  ISO  4  27 101  28 101  70 100  78 100
M  END
>  <TORSDO>  (89) 
F 31

>  <SCORE>  (89) 
-10.772

>  <name>  (89) 
91

>  <ligand_id>  (89) 
91

>  <original_smiles>  (89) 
[H]c1c([H])c([H])c2c(c1[H])C([H])([H])C([H])([H])C([H])([H])C2([H])N([H])C(=O)C1([H])N(C(=O)C([H])(N([H])C(=O)C([H])(N([H])C([H])([H])[H])C([H])([H])[H])C(C([H])([H])[H])(C([H])([H])[H])C([H])([H])[H])C([H])([H])c2c([H])c(OC([H])([H])C([H])([H])[N+]([H])([H])C([H])([H])C([H])(C([H])([H])N([H])C(=O)N3C([H])([H])C([H])([H])C([H])([H])C([H])(n4nc(-c5c([H])c([H])c(Oc6c([H])c([H])c(F)c([H])c6F)c([H])c5[H])c(C(=O)N([H])[H])c4N([H])[H])C3([H])[H])C([H])(C([H])([H])C([H])(C(=O)N([H])[H])C([H])([H])C([H])([H])C([H])([H])C([H])([H])[N+]([H])([H])[H])[N+]([H])([H])[H])c([H])c([H])c2C1([H])[H]

>  <smiles>  (89) 
[H]c1c([H])c([H])c2c(c1[H])C([H])([H])C([H])([H])C([H])([H])C2([H])N([H])C(=O)C1([H])N(C(=O)C([H])(N([H])C(=O)C([H])(N([H])C([H])([H])[H])C([H])([H])[H])C(C([H])([H])[H])(C([H])([H])[H])C([H])([H])[H])C([H])([H])c2c([H])c(OC([H])([H])C([H])([H])[N+]([H])([H])C([H])([H])C([H])(C([H])([H])N([H])C(=O)N3C([H])([H])C([H])([H])C([H])([H])C([H])(n4nc(-c5c([H])c([H])c(Oc6c([H])c([H])c(F)c([H])c6F)c([H])c5[H])c(C(=O)N([H])[H])c4N([H])[H])C3([H])[H])C([H])(C([H])([H])C([H])(C(=O)N([H])[H])C([H])([H])C([H])([H])C([H])([H])C([H])([H])[N+]([H])([H])[H])[N+]([H])([H])[H])c([H])c([H])c2C1([H])[H]

$$$$
92:0:0
     RDKit          3D

108117  0  0  1  0  0  0  0  0999 V2000
  -30.4600  -16.1190   19.9580 C   0  0  0  0  0  3  0  0  0  0  0  0
  -30.9880  -13.8010   19.0550 C   0  0  0  0  0  0  0  0  0  0  0  0
  -30.1110  -11.8100   17.8150 C   0  0  0  0  0  2  0  0  0  0  0  0
  -28.9770  -12.2100   16.8480 C   0  0  0  0  0  2  0  0  0  0  0  0
  -27.6170  -12.1870   17.5640 C   0  0  0  0  0  2  0  0  0  0  0  0
  -27.6530  -12.9490   18.9110 C   0  0  0  0  0  3  0  0  0  0  0  0
  -28.8820  -12.5500   19.7630 C   0  0  0  0  0  2  0  0  0  0  0  0
  -30.1040  -12.7510   18.9630 N   0  0  0  0  0  0  0  0  0  0  0  0
  -31.8850  -13.9460   18.2180 O   0  0  0  0  0  0  0  0  0  0  0  0
  -30.9140  -14.6650   20.1270 N   0  0  0  0  0  0  0  0  0  0  0  0
  -25.5110  -13.7220   20.0990 C   0  0  0  0  0  0  0  0  0  0  0  0
  -24.4760  -13.0530   20.6710 C   0  0  0  0  0  0  0  0  0  0  0  0
  -24.7660  -11.6660   20.4870 C   0  0  0  0  0  0  0  0  0  0  0  0
  -26.4030  -12.7670   19.6440 N   0  0  0  0  0  0  0  0  0  0  0  0
  -25.9590  -11.5160   19.9230 N   0  0  0  0  0  0  0  0  0  0  0  0
  -23.9490  -10.4830   20.7650 C   0  0  0  0  0  0  0  0  0  0  0  0
  -24.4880   -9.3480   21.4080 C   0  0  0  0  0  3  0  0  0  0  0  0
  -23.6720   -8.2290   21.6850 C   0  0  0  0  0  3  0  0  0  0  0  0
  -22.3060   -8.2400   21.3190 C   0  0  0  0  0  0  0  0  0  0  0  0
  -21.7810   -9.3630   20.6550 C   0  0  0  0  0  3  0  0  0  0  0  0
  -22.5940  -10.4730   20.3750 C   0  0  0  0  0  3  0  0  0  0  0  0
  -21.4490   -7.1870   21.5280 O   0  0  0  0  0  0  0  0  0  0  0  0
  -21.7160   -6.2130   22.4560 C   0  0  0  0  0  0  0  0  0  0  0  0
  -21.9270   -6.5200   23.8180 C   0  0  0  0  0  3  0  0  0  0  0  0
  -22.1330   -5.4830   24.7480 C   0  0  0  0  0  3  0  0  0  0  0  0
  -22.1190   -4.1400   24.3220 C   0  0  0  0  0  0  0  0  0  0  0  0
  -21.9110   -3.8330   22.9650 C   0  0  0  0  0  3  0  0  0  0  0  0
  -21.7080   -4.8670   22.0350 C   0  0  0  0  0  0  0  0  0  0  0  0
  -21.4820   -4.5700   20.7310 F   0  0  0  0  0  0  0  0  0  0  0  0
  -22.3100   -3.1390   25.2130 F   0  0  0  0  0  0  0  0  0  0  0  0
  -23.2310  -13.6610   21.2510 C   0  0  0  0  0  0  0  0  0  0  0  0
  -22.6410  -13.0030   22.2410 N   0  0  0  0  0  0  0  0  0  0  0  0
  -22.8100  -14.7540   20.8670 O   0  0  0  0  0  0  0  0  0  0  0  0
  -23.0070  -12.1150   22.5580 H   0  0  0  0  0  0  0  0  0  0  0  0
  -21.8150  -13.3780   22.6850 H   0  0  0  0  0  0  0  0  0  0  0  0
  -25.7510  -15.0660   19.8910 N   0  0  0  0  0  0  0  0  0  0  0  0
  -25.1080  -15.7960   20.1780 H   0  0  0  0  0  0  0  0  0  0  0  0
  -26.5190  -15.4070   19.3360 H   0  0  0  0  0  0  0  0  0  0  0  0
  -31.8500  -14.3290   21.2440 C   0  0  0  0  0  2  0  0  0  0  0  0
  -33.3540  -14.4440   20.8800 C   0  0  0  0  0  2  0  0  0  0  0  0
  -36.4400  -11.3970   20.0390 C   0  0  0  0  0  2  0  0  0  0  0  0
  -34.9720  -10.9470   20.0600 C   0  0  0  0  0  2  0  0  0  0  0  0
  -36.7050  -12.3960   21.1720 C   0  0  0  0  0  2  0  0  0  0  0  0
  -34.0100  -12.1450   19.9690 C   0  0  0  0  0  2  0  0  0  0  0  0
  -35.7390  -13.5930   21.1160 C   0  0  0  0  0  2  0  0  0  0  0  0
  -34.2410  -13.1870   21.0850 C   0  0  0  0  0  3  0  0  0  0  0  0
  -31.3120  -17.2410   20.7030 C   0  0  0  0  0  2  0  0  0  0  0  0
  -31.1290  -18.7630   20.3210 C   0  0  0  0  0  2  0  0  0  0  0  0
  -30.2250  -19.6980   21.2120 C   0  0  0  0  0  2  0  0  0  0  0  0
  -30.5590  -21.2280   21.1240 C   0  0  0  0  0  2  0  0  0  0  0  0
  -29.3960  -22.1460   21.3730 N   0  0  0  0  0  4  0  0  0  0  0  0
  -28.9430  -21.8900   22.2360 H   0  0  0  0  0  0  0  0  0  0  0  0
  -28.7420  -21.9760   20.6250 H   0  0  0  0  0  0  0  0  0  0  0  0
  -29.6910  -23.6220   21.4110 C   0  0  0  0  0  2  0  0  0  0  0  0
  -28.4300  -24.5470   21.5010 C   0  0  0  0  0  2  0  0  0  0  0  0
  -28.6940  -25.9060   21.0530 O   0  0  0  0  0  0  0  0  0  0  0  0
  -24.8170  -31.2950   23.6510 C   0  0  0  0  0  0  0  0  0  0  0  0
  -27.5820  -26.7160   20.9010 C   0  0  0  0  0  0  0  0  0  0  0  0
  -23.7440  -29.9470   21.8770 C   0  0  0  0  0  3  0  0  0  0  0  0
  -25.2790  -28.3410   20.6200 C   0  0  0  0  0  0  0  0  0  0  0  0
  -26.2930  -30.1960   21.9620 C   0  0  0  0  0  2  0  0  0  0  0  0
  -26.3880  -28.8180   21.3300 C   0  0  0  0  0  0  0  0  0  0  0  0
  -27.5530  -28.0210   21.4490 C   0  0  0  0  0  3  0  0  0  0  0  0
  -26.4620  -26.2600   20.1800 C   0  0  0  0  0  3  0  0  0  0  0  0
  -25.3120  -27.0620   20.0360 C   0  0  0  0  0  3  0  0  0  0  0  0
  -24.0760  -29.2530   20.5270 C   0  0  0  0  0  2  0  0  0  0  0  0
  -24.9640  -30.4960   22.5550 N   0  0  0  0  0  0  0  0  0  0  0  0
  -23.6940  -31.6150   24.0660 O   0  0  0  0  0  0  0  0  0  0  0  0
  -22.9390  -28.9600   22.7550 C   0  0  0  0  0  0  0  0  0  0  0  0
  -21.6280  -28.8440   22.4800 N   0  0  0  0  0  0  0  0  0  0  0  0
  -23.4960  -28.3030   23.6380 O   0  0  0  0  0  0  0  0  0  0  0  0
  -21.2460  -29.4300   21.7520 H   0  0  0  0  0  0  0  0  0  0  0  0
  -18.1550  -27.8470   22.6250 C   0  0  0  0  0  0  0  0  0  0  0  0
  -20.6850  -27.9440   23.1460 C   0  0  0  0  0  3  0  0  0  0  0  0
  -20.7560  -26.5190   22.5510 C   0  0  0  0  0  2  0  0  0  0  0  0
  -19.7400  -26.2820   21.4280 C   0  0  0  0  0  2  0  0  0  0  0  0
  -18.3120  -26.5030   21.9360 C   0  0  0  0  0  2  0  0  0  0  0  0
  -19.2700  -28.5310   23.1770 C   0  0  0  0  0  0  0  0  0  0  0  0
  -19.0710  -29.7960   23.7750 C   0  0  0  0  0  3  0  0  0  0  0  0
  -17.7890  -30.3740   23.8250 C   0  0  0  0  0  3  0  0  0  0  0  0
  -16.6860  -29.6870   23.2890 C   0  0  0  0  0  3  0  0  0  0  0  0
  -16.8700  -28.4230   22.6960 C   0  0  0  0  0  3  0  0  0  0  0  0
  -26.0490  -31.8680   24.4190 C   0  0  0  0  0  3  0  0  0  0  0  0
  -25.8110  -33.3020   24.6290 N   0  0  0  0  0  0  0  0  0  0  0  0
  -26.3470  -34.2780   23.8850 C   0  0  0  0  0  0  0  0  0  0  0  0
  -27.1570  -34.0620   22.9790 O   0  0  0  0  0  0  0  0  0  0  0  0
  -25.1060  -33.5490   25.3090 H   0  0  0  0  0  0  0  0  0  0  0  0
  -24.8340  -36.1670   23.1940 C   0  0  0  0  0  1  0  0  0  0  0  0
  -25.9160  -35.7250   24.1940 C   0  0  0  0  0  3  0  0  0  0  0  0
  -27.9910  -36.4890   25.2620 C   0  0  0  0  0  1  0  0  0  0  0  0
  -27.0360  -36.6920   24.1750 N   0  0  0  0  0  0  0  0  0  0  0  0
  -26.6870  -37.6440   24.2320 H   0  0  0  0  0  0  0  0  0  0  0  0
  -26.3160  -31.1390   25.7940 C   0  0  1  0  0  0  0  0  0  0  0  0
  -25.0700  -31.0540   26.7080 C   0  0  0  0  0  1  0  0  0  0  0  0
  -26.8270  -29.6990   25.5560 C   0  0  0  0  0  1  0  0  0  0  0  0
  -27.4250  -31.8850   26.5730 C   0  0  0  0  0  1  0  0  0  0  0  0
  -28.9080  -16.4210   20.0270 C   0  0  0  0  0  3  0  0  0  0  0  0
  -28.1010  -15.5300   20.8850 N   0  0  0  0  0  4  0  0  0  0  0  0
  -28.0320  -14.6080   20.4910 H   0  0  0  0  0  0  0  0  0  0  0  0
  -27.1650  -15.8870   21.0120 H   0  0  0  0  0  0  0  0  0  0  0  0
  -28.5190  -15.4540   21.7940 H   0  0  0  0  0  0  0  0  0  0  0  0
  -28.2070  -16.7030   18.6850 C   0  0  0  0  0  2  0  0  0  0  0  0
  -29.8480  -19.4830   15.6090 C   0  0  0  0  0  2  0  0  0  0  0  0
  -30.7660  -19.0140   16.7520 C   0  0  0  0  0  2  0  0  0  0  0  0
  -28.3870  -19.6380   16.0610 C   0  0  0  0  0  2  0  0  0  0  0  0
  -30.2160  -17.7610   17.4630 C   0  0  0  0  0  2  0  0  0  0  0  0
  -27.8560  -18.3650   16.7470 C   0  0  0  0  0  2  0  0  0  0  0  0
  -28.7530  -17.9500   17.9340 C   0  0  0  0  0  3  0  0  0  0  0  0
  1 97  1  0
  1 10  1  0
  1 47  1  0
  2 10  1  0
  3  8  1  0
  4  5  1  0
  4  3  1  0
  6  5  1  0
  6 14  1  0
  6  7  1  0
  8  2  1  0
  8  7  1  0
  9  2  2  0
 10 39  1  0
 11 12  2  0
 12 31  1  0
 13 12  1  0
 13 16  1  0
 14 15  1  0
 14 11  1  0
 15 13  2  0
 16 17  1  0
 17 18  2  0
 19 22  1  0
 19 18  1  0
 20 19  2  0
 21 20  1  0
 21 16  2  0
 22 23  1  0
 23 24  1  0
 24 25  2  0
 26 25  1  0
 26 30  1  0
 27 26  2  0
 28 23  2  0
 28 27  1  0
 29 28  1  0
 31 32  1  0
 32 34  1  0
 32 35  1  0
 33 31  2  0
 36 11  1  0
 36 37  1  0
 38 36  1  0
 40 46  1  0
 40 39  1  0
 41 42  1  0
 41 43  1  0
 44 42  1  0
 44 46  1  0
 45 43  1  0
 46 45  1  0
 48 47  1  0
 48 49  1  0
 50 49  1  0
 50 51  1  0
 51 54  1  0
 51 52  1  0
 53 51  1  0
 54 55  1  0
 56 55  1  0
 57 68  2  0
 58 56  1  0
 58 63  1  0
 59 67  1  0
 59 69  1  0
 60 62  1  0
 61 67  1  0
 62 63  2  0
 62 61  1  0
 64 58  2  0
 65 64  1  0
 65 60  2  0
 66 60  1  0
 66 59  1  0
 67 57  1  0
 69 71  2  0
 70 69  1  0
 72 70  1  0
 73 82  2  0
 73 78  1  0
 74 70  1  0
 74 78  1  0
 75 74  1  0
 76 77  1  0
 76 75  1  0
 77 73  1  0
 78 79  2  0
 79 80  1  0
 81 80  2  0
 82 81  1  0
 83 57  1  0
 83 84  1  0
 83 93  1  0
 84 87  1  0
 85 89  1  0
 85 84  1  0
 86 85  2  0
 89 88  1  0
 91 89  1  0
 91 92  1  0
 91 90  1  0
 93 96  1  1
 93 94  1  0
 95 93  1  0
 97102  1  0
 97 98  1  0
 98100  1  0
 98101  1  0
 99 98  1  0
103105  1  0
103104  1  0
104106  1  0
105107  1  0
106108  1  0
107108  1  0
108102  1  0
M  ISO  4   2 100  10 100  55 101  56 101
M  END
>  <TORSDO>  (90) 
F 30

>  <SCORE>  (90) 
-6.605

>  <name>  (90) 
92

>  <ligand_id>  (90) 
92

>  <original_smiles>  (90) 
[H]c1c([H])c([H])c2c(c1[H])C([H])([H])C([H])([H])C([H])([H])C2([H])N([H])C(=O)C1([H])N(C(=O)C([H])(N([H])C(=O)C([H])(N([H])C([H])([H])[H])C([H])([H])[H])C(C([H])([H])[H])(C([H])([H])[H])C([H])([H])[H])C([H])([H])c2c([H])c(OC([H])([H])C([H])([H])[N+]([H])([H])C([H])([H])C([H])([H])C([H])([H])C([H])([H])C([H])(N(C(=O)N3C([H])([H])C([H])([H])C([H])([H])C([H])(n4nc(-c5c([H])c([H])c(Oc6c([H])c([H])c(F)c([H])c6F)c([H])c5[H])c(C(=O)N([H])[H])c4N([H])[H])C3([H])[H])C([H])([H])C([H])([H])C3([H])C([H])([H])C([H])([H])C([H])([H])C([H])([H])C3([H])[H])C([H])(C([H])([H])C3([H])C([H])([H])C([H])([H])C([H])([H])C([H])([H])C3([H])[H])[N+]([H])([H])[H])c([H])c([H])c2C1([H])[H]

>  <smiles>  (90) 
[H]c1c([H])c([H])c2c(c1[H])C([H])([H])C([H])([H])C([H])([H])C2([H])N([H])C(=O)C1([H])N(C(=O)C([H])(N([H])C(=O)C([H])(N([H])C([H])([H])[H])C([H])([H])[H])C(C([H])([H])[H])(C([H])([H])[H])C([H])([H])[H])C([H])([H])c2c([H])c(OC([H])([H])C([H])([H])[N+]([H])([H])C([H])([H])C([H])([H])C([H])([H])C([H])([H])C([H])(N(C(=O)N3C([H])([H])C([H])([H])C([H])([H])C([H])(n4nc(-c5c([H])c([H])c(Oc6c([H])c([H])c(F)c([H])c6F)c([H])c5[H])c(C(=O)N([H])[H])c4N([H])[H])C3([H])[H])C([H])([H])C([H])([H])C3([H])C([H])([H])C([H])([H])C([H])([H])C([H])([H])C3([H])[H])C([H])(C([H])([H])C3([H])C([H])([H])C([H])([H])C([H])([H])C([H])([H])C3([H])[H])[N+]([H])([H])[H])c([H])c([H])c2C1([H])[H]

$$$$
93:0:0
     RDKit          3D

 88 96  0  0  1  0  0  0  0  0999 V2000
  -30.5810  -19.2010   20.7390 C   0  0  0  0  0  2  0  0  0  0  0  0
  -28.5630  -18.9160   19.4600 C   0  0  0  0  0  2  0  0  0  0  0  0
  -30.0840  -20.7350   21.1300 C   0  0  0  0  0  2  0  0  0  0  0  0
  -28.1050  -20.4830   19.7770 C   0  0  0  0  0  2  0  0  0  0  0  0
  -29.4620  -18.0610   20.5000 C   0  0  0  0  0  3  0  0  0  0  0  0
  -29.1430  -21.5440   20.2000 N   0  0  1  0  0  4  0  0  0  0  0  0
  -29.7000  -21.7290   19.3740 H   0  0  0  0  0  0  0  0  0  0  0  0
  -30.4360  -15.2140   20.2770 C   0  0  0  0  0  0  0  0  0  0  0  0
  -30.4010  -12.7930   19.3720 C   0  0  0  0  0  2  0  0  0  0  0  0
  -29.4660  -12.6360   18.1460 C   0  0  0  0  0  2  0  0  0  0  0  0
  -28.0210  -12.3660   18.6090 C   0  0  0  0  0  2  0  0  0  0  0  0
  -27.5830  -13.3360   19.7360 C   0  0  0  0  0  3  0  0  0  0  0  0
  -28.6410  -13.4250   20.8590 C   0  0  0  0  0  2  0  0  0  0  0  0
  -29.8800  -13.9150   20.2280 N   0  0  0  0  0  0  0  0  0  0  0  0
  -31.6460  -15.2680   20.0270 O   0  0  0  0  0  0  0  0  0  0  0  0
  -29.6000  -16.4080   20.4150 N   0  0  0  0  0  0  0  0  0  0  0  0
  -28.6760  -16.0330   20.5670 H   0  0  0  0  0  0  0  0  0  0  0  0
  -25.1970  -13.9060   20.4680 C   0  0  0  0  0  0  0  0  0  0  0  0
  -24.1370  -13.1320   20.8400 C   0  0  0  0  0  0  0  0  0  0  0  0
  -24.6030  -11.7780   20.8170 C   0  0  0  0  0  0  0  0  0  0  0  0
  -26.2470  -13.0310   20.2370 N   0  0  0  0  0  0  0  0  0  0  0  0
  -25.8990  -11.7460   20.5160 N   0  0  0  0  0  0  0  0  0  0  0  0
  -23.8790  -10.5160   21.0110 C   0  0  0  0  0  0  0  0  0  0  0  0
  -24.3130   -9.5540   21.9510 C   0  0  0  0  0  3  0  0  0  0  0  0
  -23.5890   -8.3560   22.1340 C   0  0  0  0  0  3  0  0  0  0  0  0
  -22.4200   -8.1100   21.3790 C   0  0  0  0  0  0  0  0  0  0  0  0
  -22.0020   -9.0600   20.4300 C   0  0  0  0  0  3  0  0  0  0  0  0
  -22.7250  -10.2500   20.2450 C   0  0  0  0  0  3  0  0  0  0  0  0
  -21.6710   -6.9600   21.4690 O   0  0  0  0  0  0  0  0  0  0  0  0
  -21.6260   -6.2210   22.6240 C   0  0  0  0  0  0  0  0  0  0  0  0
  -21.1950   -6.7780   23.8480 C   0  0  0  0  0  3  0  0  0  0  0  0
  -21.0980   -5.9660   24.9950 C   0  0  0  0  0  3  0  0  0  0  0  0
  -21.4210   -4.5970   24.9200 C   0  0  0  0  0  0  0  0  0  0  0  0
  -21.8440   -4.0390   23.6990 C   0  0  0  0  0  3  0  0  0  0  0  0
  -21.9420   -4.8490   22.5550 C   0  0  0  0  0  0  0  0  0  0  0  0
  -22.3310   -4.3030   21.3780 F   0  0  0  0  0  0  0  0  0  0  0  0
  -21.3200   -3.8150   26.0190 F   0  0  0  0  0  0  0  0  0  0  0  0
  -22.7350  -13.6010   21.1050 C   0  0  0  0  0  0  0  0  0  0  0  0
  -22.0090  -12.9080   21.9680 N   0  0  0  0  0  0  0  0  0  0  0  0
  -22.2960  -14.6240   20.5750 O   0  0  0  0  0  0  0  0  0  0  0  0
  -22.3780  -12.0790   22.4140 H   0  0  0  0  0  0  0  0  0  0  0  0
  -21.0720  -13.2090   22.1940 H   0  0  0  0  0  0  0  0  0  0  0  0
  -25.3590  -15.2770   20.2760 N   0  0  0  0  0  0  0  0  0  0  0  0
  -24.5800  -15.9260   20.3700 H   0  0  0  0  0  0  0  0  0  0  0  0
  -26.1730  -15.6910   19.8440 H   0  0  0  0  0  0  0  0  0  0  0  0
  -28.6640  -23.0240   20.7570 C   0  0  0  0  0  2  0  0  0  0  0  0
  -28.2830  -24.5010   19.9140 C   0  0  0  0  0  2  0  0  0  0  0  0
  -28.2590  -26.0460   20.3910 O   0  0  0  0  0  0  0  0  0  0  0  0
  -24.6190  -31.8780   23.2640 C   0  0  0  0  0  0  0  0  0  0  0  0
  -27.2130  -27.0730   20.2620 C   0  0  0  0  0  0  0  0  0  0  0  0
  -23.4290  -30.4760   21.6160 C   0  0  0  0  0  3  0  0  0  0  0  0
  -24.8930  -28.8870   20.2020 C   0  0  0  0  0  0  0  0  0  0  0  0
  -26.0050  -30.7060   21.4950 C   0  0  0  0  0  2  0  0  0  0  0  0
  -26.0740  -29.3200   20.8150 C   0  0  0  0  0  0  0  0  0  0  0  0
  -27.2340  -28.4380   20.8090 C   0  0  0  0  0  3  0  0  0  0  0  0
  -25.9950  -26.7590   19.6240 C   0  0  0  0  0  3  0  0  0  0  0  0
  -24.8750  -27.6260   19.5830 C   0  0  0  0  0  3  0  0  0  0  0  0
  -23.6620  -29.7830   20.2450 C   0  0  0  0  0  2  0  0  0  0  0  0
  -24.7020  -31.0520   22.1710 N   0  0  0  0  0  0  0  0  0  0  0  0
  -23.5300  -32.1690   23.7820 O   0  0  0  0  0  0  0  0  0  0  0  0
  -22.7430  -29.4810   22.5840 C   0  0  0  0  0  0  0  0  0  0  0  0
  -21.4160  -29.3080   22.4490 N   0  0  0  0  0  0  0  0  0  0  0  0
  -23.4070  -28.8660   23.4220 O   0  0  0  0  0  0  0  0  0  0  0  0
  -20.9500  -29.8460   21.7320 H   0  0  0  0  0  0  0  0  0  0  0  0
  -18.0170  -28.1240   22.9470 C   0  0  0  0  0  0  0  0  0  0  0  0
  -20.5780  -28.3780   23.2130 C   0  0  0  0  0  3  0  0  0  0  0  0
  -20.6650  -26.9440   22.6390 C   0  0  0  0  0  2  0  0  0  0  0  0
  -19.5670  -26.6350   21.6170 C   0  0  0  0  0  2  0  0  0  0  0  0
  -18.1860  -26.7770   22.2640 C   0  0  0  0  0  2  0  0  0  0  0  0
  -19.1390  -28.8880   23.3720 C   0  0  0  0  0  0  0  0  0  0  0  0
  -18.9210  -30.1480   23.9660 C   0  0  0  0  0  3  0  0  0  0  0  0
  -17.6150  -30.6500   24.1330 C   0  0  0  0  0  3  0  0  0  0  0  0
  -16.5100  -29.8830   23.7240 C   0  0  0  0  0  3  0  0  0  0  0  0
  -16.7120  -28.6190   23.1420 C   0  0  0  0  0  3  0  0  0  0  0  0
  -25.8920  -32.5100   23.9040 C   0  0  0  0  0  3  0  0  0  0  0  0
  -25.5790  -33.9160   24.2150 N   0  0  0  0  0  0  0  0  0  0  0  0
  -25.9130  -34.9660   23.4500 C   0  0  0  0  0  0  0  0  0  0  0  0
  -26.5890  -34.8540   22.4240 O   0  0  0  0  0  0  0  0  0  0  0  0
  -24.9700  -34.0740   25.0030 H   0  0  0  0  0  0  0  0  0  0  0  0
  -24.1830  -36.7540   23.0740 C   0  0  0  0  0  1  0  0  0  0  0  0
  -25.4220  -36.3590   23.8930 C   0  0  0  0  0  3  0  0  0  0  0  0
  -27.5550  -37.2570   24.7170 C   0  0  0  0  0  1  0  0  0  0  0  0
  -26.4530  -37.4150   23.7710 N   0  0  0  0  0  0  0  0  0  0  0  0
  -26.0420  -38.3350   23.9120 H   0  0  0  0  0  0  0  0  0  0  0  0
  -26.3880  -31.7550   25.2050 C   0  0  1  0  0  0  0  0  0  0  0  0
  -25.2980  -31.5220   26.2760 C   0  0  0  0  0  1  0  0  0  0  0  0
  -26.9740  -30.3620   24.8700 C   0  0  0  0  0  1  0  0  0  0  0  0
  -27.5340  -32.5600   25.8620 C   0  0  0  0  0  1  0  0  0  0  0  0
  1  3  1  0
  2  4  1  0
  2  5  1  0
  4  6  1  0
  5 16  1  0
  5  1  1  0
  6 46  1  0
  6  3  1  0
  6  7  1  6
  8 16  1  0
  9 14  1  0
 10 11  1  0
 10  9  1  0
 12 11  1  0
 12 21  1  0
 12 13  1  0
 14  8  1  0
 14 13  1  0
 15  8  2  0
 16 17  1  0
 18 19  2  0
 19 38  1  0
 20 19  1  0
 20 23  1  0
 21 18  1  0
 21 22  1  0
 22 20  2  0
 23 24  1  0
 24 25  2  0
 26 29  1  0
 26 25  1  0
 27 26  2  0
 28 27  1  0
 28 23  2  0
 29 30  1  0
 30 31  1  0
 31 32  2  0
 33 32  1  0
 33 37  1  0
 34 33  2  0
 35 30  2  0
 35 34  1  0
 36 35  1  0
 38 39  1  0
 39 42  1  0
 39 41  1  0
 40 38  2  0
 43 44  1  0
 43 18  1  0
 45 43  1  0
 47 48  1  0
 47 46  1  0
 49 60  2  0
 50 48  1  0
 50 55  1  0
 51 59  1  0
 51 61  1  0
 52 58  1  0
 52 54  1  0
 53 59  1  0
 54 53  1  0
 55 54  2  0
 56 50  2  0
 57 56  1  0
 57 52  2  0
 58 51  1  0
 59 49  1  0
 61 63  2  0
 62 61  1  0
 64 62  1  0
 65 74  2  0
 65 70  1  0
 66 62  1  0
 66 70  1  0
 67 66  1  0
 68 69  1  0
 68 67  1  0
 69 65  1  0
 70 71  2  0
 71 72  1  0
 73 72  2  0
 74 73  1  0
 75 49  1  0
 75 76  1  0
 75 85  1  0
 76 79  1  0
 77 81  1  0
 77 76  1  0
 78 77  2  0
 81 80  1  0
 83 81  1  0
 83 84  1  0
 83 82  1  0
 85 88  1  1
 85 86  1  0
 87 85  1  0
M  ISO  4   8 100  16 100  47 101  48 101
M  END
>  <TORSDO>  (91) 
F 18

>  <SCORE>  (91) 
-15.423

>  <name>  (91) 
93

>  <ligand_id>  (91) 
93

>  <original_smiles>  (91) 
[H]c1c([H])c([H])c2c(c1[H])C([H])([H])C([H])([H])C([H])([H])C2([H])N([H])C(=O)C1([H])N(C(=O)C([H])(N([H])C(=O)C([H])(N([H])C([H])([H])[H])C([H])([H])[H])C(C([H])([H])[H])(C([H])([H])[H])C([H])([H])[H])C([H])([H])c2c([H])c(OC([H])([H])C([H])([H])[N+]3([H])C([H])([H])C([H])([H])C([H])(N([H])C(=O)N4C([H])([H])C([H])([H])C([H])([H])C([H])(n5nc(-c6c([H])c([H])c(Oc7c([H])c([H])c(F)c([H])c7F)c([H])c6[H])c(C(=O)N([H])[H])c5N([H])[H])C4([H])[H])C([H])([H])C3([H])[H])c([H])c([H])c2C1([H])[H]

>  <smiles>  (91) 
[H]c1c([H])c([H])c2c(c1[H])C([H])([H])C([H])([H])C([H])([H])C2([H])N([H])C(=O)C1([H])N(C(=O)C([H])(N([H])C(=O)C([H])(N([H])C([H])([H])[H])C([H])([H])[H])C(C([H])([H])[H])(C([H])([H])[H])C([H])([H])[H])C([H])([H])c2c([H])c(OC([H])([H])C([H])([H])[N+]3([H])C([H])([H])C([H])([H])C([H])(N([H])C(=O)N4C([H])([H])C([H])([H])C([H])([H])C([H])(n5nc(-c6c([H])c([H])c(Oc7c([H])c([H])c(F)c([H])c7F)c([H])c6[H])c(C(=O)N([H])[H])c5N([H])[H])C4([H])[H])C([H])([H])C3([H])[H])c([H])c([H])c2C1([H])[H]

$$$$
94:0:0
     RDKit          3D

 94101  0  0  1  0  0  0  0  0999 V2000
  -28.7030  -22.1210   20.5900 C   0  0  0  0  0  0  0  0  0  0  0  0
  -27.8510  -23.0320   21.0850 N   0  0  0  0  0  0  0  0  0  0  0  0
  -29.5020  -22.4100   19.6950 O   0  0  0  0  0  0  0  0  0  0  0  0
  -27.2510  -22.7530   21.8500 H   0  0  0  0  0  0  0  0  0  0  0  0
  -27.5720  -24.3420   20.4740 C   0  0  0  0  0  3  0  0  0  0  0  0
  -28.4500  -25.5100   20.9920 C   0  0  0  0  0  3  0  0  0  0  0  0
  -28.4090  -26.7050   20.1920 O   0  0  0  0  0  0  0  0  0  0  0  0
  -24.5760  -31.8870   23.2420 C   0  0  0  0  0  0  0  0  0  0  0  0
  -27.2440  -27.4360   20.2190 C   0  0  0  0  0  0  0  0  0  0  0  0
  -23.3830  -30.4770   21.5950 C   0  0  0  0  0  3  0  0  0  0  0  0
  -24.8540  -28.9390   20.1920 C   0  0  0  0  0  0  0  0  0  0  0  0
  -25.9070  -30.8440   21.4160 C   0  0  0  0  0  2  0  0  0  0  0  0
  -26.0060  -29.4660   20.7920 C   0  0  0  0  0  0  0  0  0  0  0  0
  -27.2030  -28.7150   20.8180 C   0  0  0  0  0  3  0  0  0  0  0  0
  -26.0880  -26.9400   19.5820 C   0  0  0  0  0  3  0  0  0  0  0  0
  -24.8880  -27.6700   19.5900 C   0  0  0  0  0  3  0  0  0  0  0  0
  -23.6070  -29.7880   20.2220 C   0  0  0  0  0  2  0  0  0  0  0  0
  -24.6380  -31.0820   22.1440 N   0  0  0  0  0  0  0  0  0  0  0  0
  -23.4900  -32.1660   23.7720 O   0  0  0  0  0  0  0  0  0  0  0  0
  -22.7240  -29.4590   22.5530 C   0  0  0  0  0  0  0  0  0  0  0  0
  -21.4030  -29.2760   22.4140 N   0  0  0  0  0  0  0  0  0  0  0  0
  -23.4000  -28.8330   23.3750 O   0  0  0  0  0  0  0  0  0  0  0  0
  -20.9160  -29.8310   21.7240 H   0  0  0  0  0  0  0  0  0  0  0  0
  -18.0210  -28.0930   22.8840 C   0  0  0  0  0  0  0  0  0  0  0  0
  -20.5800  -28.3400   23.1780 C   0  0  0  0  0  3  0  0  0  0  0  0
  -20.6800  -26.9070   22.6060 C   0  0  0  0  0  2  0  0  0  0  0  0
  -19.5860  -26.5890   21.5820 C   0  0  0  0  0  2  0  0  0  0  0  0
  -18.1990  -26.7410   22.2120 C   0  0  0  0  0  2  0  0  0  0  0  0
  -19.1400  -28.8520   23.3210 C   0  0  0  0  0  0  0  0  0  0  0  0
  -18.9230  -30.1160   23.9060 C   0  0  0  0  0  3  0  0  0  0  0  0
  -17.6210  -30.6270   24.0590 C   0  0  0  0  0  3  0  0  0  0  0  0
  -16.5170  -29.8650   23.6410 C   0  0  0  0  0  3  0  0  0  0  0  0
  -16.7160  -28.5990   23.0600 C   0  0  0  0  0  3  0  0  0  0  0  0
  -25.8580  -32.5200   23.8670 C   0  0  0  0  0  3  0  0  0  0  0  0
  -26.3640  -31.7580   25.1540 C   0  0  1  0  0  0  0  0  0  0  0  0
  -25.2590  -31.5330   26.2130 C   0  0  0  0  0  1  0  0  0  0  0  0
  -26.9520  -30.3790   24.7750 C   0  0  0  0  0  1  0  0  0  0  0  0
  -27.5120  -32.5570   25.8170 C   0  0  0  0  0  1  0  0  0  0  0  0
  -25.5560  -33.9220   24.1780 N   0  0  0  0  0  0  0  0  0  0  0  0
  -25.9050  -34.9610   23.4080 C   0  0  0  0  0  0  0  0  0  0  0  0
  -26.5850  -34.8380   22.3840 O   0  0  0  0  0  0  0  0  0  0  0  0
  -24.9600  -34.0900   24.9750 H   0  0  0  0  0  0  0  0  0  0  0  0
  -24.1890  -36.7540   23.0010 C   0  0  0  0  0  1  0  0  0  0  0  0
  -25.4180  -36.3580   23.8370 C   0  0  0  0  0  3  0  0  0  0  0  0
  -27.5400  -37.2400   24.6900 C   0  0  0  0  0  1  0  0  0  0  0  0
  -26.4550  -37.4050   23.7280 N   0  0  0  0  0  0  0  0  0  0  0  0
  -26.0490  -38.3280   23.8600 H   0  0  0  0  0  0  0  0  0  0  0  0
  -28.5700  -20.6550   21.0640 C   0  0  0  0  0  3  0  0  0  0  0  0
  -27.5020  -20.0410   20.2590 N   0  0  0  0  0  4  0  0  0  0  0  0
  -27.4520  -20.5420   19.3880 H   0  0  0  0  0  0  0  0  0  0  0  0
  -26.6110  -20.1190   20.7170 H   0  0  0  0  0  0  0  0  0  0  0  0
  -27.7000  -19.0770   20.0700 H   0  0  0  0  0  0  0  0  0  0  0  0
  -29.8990  -19.8650   20.8820 C   0  0  0  0  0  2  0  0  0  0  0  0
  -29.9370  -18.4240   21.4550 C   0  0  0  0  0  2  0  0  0  0  0  0
  -31.1330  -17.6310   20.8830 C   0  0  0  0  0  2  0  0  0  0  0  0
  -31.4790  -16.3040   21.5960 C   0  0  0  0  0  2  0  0  0  0  0  0
  -30.9630  -14.3580   20.1330 C   0  0  0  0  0  0  0  0  0  0  0  0
  -30.4660  -12.2630   18.9270 C   0  0  0  0  0  2  0  0  0  0  0  0
  -29.4880  -12.4970   17.7620 C   0  0  0  0  0  2  0  0  0  0  0  0
  -28.0350  -12.3890   18.2570 C   0  0  0  0  0  2  0  0  0  0  0  0
  -27.7740  -13.2580   19.5150 C   0  0  0  0  0  3  0  0  0  0  0  0
  -28.8610  -13.0280   20.5900 C   0  0  0  0  0  2  0  0  0  0  0  0
  -30.1850  -13.2540   19.9800 N   0  0  0  0  0  0  0  0  0  0  0  0
  -31.9380  -14.5950   19.4140 O   0  0  0  0  0  0  0  0  0  0  0  0
  -30.6610  -15.1630   21.1650 N   0  0  0  0  0  0  0  0  0  0  0  0
  -29.8900  -14.8860   21.7540 H   0  0  0  0  0  0  0  0  0  0  0  0
  -25.4270  -13.9440   20.3190 C   0  0  0  0  0  0  0  0  0  0  0  0
  -24.3480  -13.2060   20.7310 C   0  0  0  0  0  0  0  0  0  0  0  0
  -24.7620  -11.8400   20.6790 C   0  0  0  0  0  0  0  0  0  0  0  0
  -26.4310  -13.0280   20.0470 N   0  0  0  0  0  0  0  0  0  0  0  0
  -26.0360  -11.7580   20.3180 N   0  0  0  0  0  0  0  0  0  0  0  0
  -24.0040  -10.6030   20.9000 C   0  0  0  0  0  0  0  0  0  0  0  0
  -24.4190   -9.6400   21.8470 C   0  0  0  0  0  3  0  0  0  0  0  0
  -23.6630   -8.4660   22.0540 C   0  0  0  0  0  3  0  0  0  0  0  0
  -22.4770   -8.2470   21.3140 C   0  0  0  0  0  0  0  0  0  0  0  0
  -22.0790   -9.1970   20.3580 C   0  0  0  0  0  3  0  0  0  0  0  0
  -22.8350  -10.3620   20.1490 C   0  0  0  0  0  3  0  0  0  0  0  0
  -21.6930   -7.1240   21.4290 O   0  0  0  0  0  0  0  0  0  0  0  0
  -21.6070   -6.4240   22.6060 C   0  0  0  0  0  0  0  0  0  0  0  0
  -21.1840   -7.0330   23.8070 C   0  0  0  0  0  3  0  0  0  0  0  0
  -21.0440   -6.2620   24.9780 C   0  0  0  0  0  3  0  0  0  0  0  0
  -21.3160   -4.8800   24.9480 C   0  0  0  0  0  0  0  0  0  0  0  0
  -21.7320   -4.2700   23.7510 C   0  0  0  0  0  3  0  0  0  0  0  0
  -21.8740   -5.0400   22.5840 C   0  0  0  0  0  0  0  0  0  0  0  0
  -22.2550   -4.4420   21.4290 F   0  0  0  0  0  0  0  0  0  0  0  0
  -21.1740   -4.1370   26.0700 F   0  0  0  0  0  0  0  0  0  0  0  0
  -22.9810  -13.7290   21.0640 C   0  0  0  0  0  0  0  0  0  0  0  0
  -22.2690  -13.0570   21.9610 N   0  0  0  0  0  0  0  0  0  0  0  0
  -22.5540  -14.7690   20.5640 O   0  0  0  0  0  0  0  0  0  0  0  0
  -22.6270  -12.2160   22.3880 H   0  0  0  0  0  0  0  0  0  0  0  0
  -21.3510  -13.3870   22.2260 H   0  0  0  0  0  0  0  0  0  0  0  0
  -25.6350  -15.3070   20.1380 N   0  0  0  0  0  0  0  0  0  0  0  0
  -24.9100  -15.9980   20.2930 H   0  0  0  0  0  0  0  0  0  0  0  0
  -26.5030  -15.7030   19.7980 H   0  0  0  0  0  0  0  0  0  0  0  0
  1 48  1  0
  1  2  1  0
  2  4  1  0
  3  1  2  0
  5  6  2  0
  5  2  1  0
  7  9  1  0
  7  6  1  0
  8 19  2  0
  9 14  1  0
 10 18  1  0
 10 20  1  0
 11 17  1  0
 11 13  1  0
 12 18  1  0
 13 14  2  0
 13 12  1  0
 15 16  1  0
 15  9  2  0
 16 11  2  0
 17 10  1  0
 18  8  1  0
 20 22  2  0
 21 20  1  0
 23 21  1  0
 24 33  2  0
 24 29  1  0
 25 21  1  0
 25 29  1  0
 26 25  1  0
 27 28  1  0
 27 26  1  0
 28 24  1  0
 29 30  2  0
 30 31  1  0
 32 31  2  0
 33 32  1  0
 34  8  1  0
 34 39  1  0
 34 35  1  0
 35 38  1  1
 35 36  1  0
 37 35  1  0
 39 42  1  0
 40 44  1  0
 40 39  1  0
 41 40  2  0
 44 43  1  0
 46 44  1  0
 46 47  1  0
 46 45  1  0
 48 53  1  0
 49 51  1  0
 49 48  1  0
 50 49  1  0
 52 49  1  0
 53 54  1  0
 55 54  1  0
 55 56  1  0
 57 65  1  0
 58 63  1  0
 59 60  1  0
 59 58  1  0
 61 60  1  0
 61 70  1  0
 61 62  1  0
 63 57  1  0
 63 62  1  0
 64 57  2  0
 65 56  1  0
 65 66  1  0
 67 68  2  0
 68 87  1  0
 69 68  1  0
 69 72  1  0
 70 71  1  0
 70 67  1  0
 71 69  2  0
 72 73  1  0
 73 74  2  0
 75 78  1  0
 75 74  1  0
 76 75  2  0
 77 76  1  0
 77 72  2  0
 78 79  1  0
 79 80  1  0
 80 81  2  0
 82 81  1  0
 82 86  1  0
 83 82  2  0
 84 79  2  0
 84 83  1  0
 85 84  1  0
 87 88  1  0
 88 91  1  0
 88 90  1  0
 89 87  2  0
 92 93  1  0
 92 67  1  0
 94 92  1  0
M  ISO  4   6 101   7 101  57 100  65 100
M  END
>  <TORSDO>  (92) 
F 24

>  <SCORE>  (92) 
-12.302

>  <name>  (92) 
94

>  <ligand_id>  (92) 
94

>  <original_smiles>  (92) 
[H]c1c([H])c([H])c2c(c1[H])C([H])([H])C([H])([H])C([H])([H])C2([H])N([H])C(=O)C1([H])N(C(=O)C([H])(N([H])C(=O)C([H])(N([H])C([H])([H])[H])C([H])([H])[H])C(C([H])([H])[H])(C([H])([H])[H])C([H])([H])[H])C([H])([H])c2c([H])c(OC([H])([H])C([H])([H])N([H])C(=O)C([H])(C([H])([H])C([H])([H])C([H])([H])C([H])([H])N([H])C(=O)N3C([H])([H])C([H])([H])C([H])([H])C([H])(n4nc(-c5c([H])c([H])c(Oc6c([H])c([H])c(F)c([H])c6F)c([H])c5[H])c(C(=O)N([H])[H])c4N([H])[H])C3([H])[H])[N+]([H])([H])[H])c([H])c([H])c2C1([H])[H]

>  <smiles>  (92) 
[H]c1c([H])c([H])c2c(c1[H])C([H])([H])C([H])([H])C([H])([H])C2([H])N([H])C(=O)C1([H])N(C(=O)C([H])(N([H])C(=O)C([H])(N([H])C([H])([H])[H])C([H])([H])[H])C(C([H])([H])[H])(C([H])([H])[H])C([H])([H])[H])C([H])([H])c2c([H])c(OC([H])([H])C([H])([H])N([H])C(=O)C([H])(C([H])([H])C([H])([H])C([H])([H])C([H])([H])N([H])C(=O)N3C([H])([H])C([H])([H])C([H])([H])C([H])(n4nc(-c5c([H])c([H])c(Oc6c([H])c([H])c(F)c([H])c6F)c([H])c5[H])c(C(=O)N([H])[H])c4N([H])[H])C3([H])[H])[N+]([H])([H])[H])c([H])c([H])c2C1([H])[H]

$$$$
95:0:0
     RDKit          3D

 93100  0  0  1  0  0  0  0  0999 V2000
  -29.5510  -20.6560   20.5250 C   0  0  0  0  0  3  0  0  0  0  0  0
  -28.5900  -21.8770   20.1960 N   0  0  0  0  0  4  0  0  0  0  0  0
  -27.7070  -21.6710   20.6300 H   0  0  0  0  0  0  0  0  0  0  0  0
  -28.4270  -21.8480   19.2030 H   0  0  0  0  0  0  0  0  0  0  0  0
  -28.9360  -23.3950   20.5480 C   0  0  0  0  0  3  0  0  0  0  0  0
  -27.9260  -24.6960   20.1830 C   0  0  0  0  0  3  0  0  0  0  0  0
  -28.1750  -26.2120   20.4590 O   0  0  0  0  0  0  0  0  0  0  0  0
  -24.5850  -31.9620   23.3220 C   0  0  0  0  0  0  0  0  0  0  0  0
  -27.1270  -27.2010   20.3610 C   0  0  0  0  0  0  0  0  0  0  0  0
  -23.3830  -30.5760   21.6780 C   0  0  0  0  0  3  0  0  0  0  0  0
  -24.8220  -28.9720   20.2800 C   0  0  0  0  0  0  0  0  0  0  0  0
  -25.9410  -30.8080   21.5340 C   0  0  0  0  0  2  0  0  0  0  0  0
  -26.0010  -29.4100   20.8980 C   0  0  0  0  0  0  0  0  0  0  0  0
  -27.1540  -28.5400   20.9190 C   0  0  0  0  0  3  0  0  0  0  0  0
  -25.9230  -26.8610   19.7050 C   0  0  0  0  0  3  0  0  0  0  0  0
  -24.7950  -27.7110   19.6710 C   0  0  0  0  0  3  0  0  0  0  0  0
  -23.6050  -29.8840   20.3080 C   0  0  0  0  0  2  0  0  0  0  0  0
  -24.6580  -31.1390   22.2330 N   0  0  0  0  0  0  0  0  0  0  0  0
  -23.4960  -32.2650   23.8350 O   0  0  0  0  0  0  0  0  0  0  0  0
  -22.6810  -29.5860   22.6410 C   0  0  0  0  0  0  0  0  0  0  0  0
  -21.3540  -29.4200   22.4870 N   0  0  0  0  0  0  0  0  0  0  0  0
  -23.3320  -28.9650   23.4840 O   0  0  0  0  0  0  0  0  0  0  0  0
  -20.8870  -29.9710   21.7820 H   0  0  0  0  0  0  0  0  0  0  0  0
  -17.9570  -28.2520   22.9380 C   0  0  0  0  0  0  0  0  0  0  0  0
  -20.5120  -28.4980   23.2530 C   0  0  0  0  0  3  0  0  0  0  0  0
  -20.6130  -27.0590   22.6960 C   0  0  0  0  0  2  0  0  0  0  0  0
  -19.5290  -26.7310   21.6650 C   0  0  0  0  0  2  0  0  0  0  0  0
  -18.1350  -26.8950   22.2780 C   0  0  0  0  0  2  0  0  0  0  0  0
  -19.0720  -29.0110   23.3820 C   0  0  0  0  0  0  0  0  0  0  0  0
  -18.8490  -30.2800   23.9570 C   0  0  0  0  0  3  0  0  0  0  0  0
  -17.5440  -30.7890   24.0960 C   0  0  0  0  0  3  0  0  0  0  0  0
  -16.4430  -30.0280   23.6680 C   0  0  0  0  0  3  0  0  0  0  0  0
  -16.6500  -28.7620   23.0920 C   0  0  0  0  0  3  0  0  0  0  0  0
  -25.8650  -32.5840   23.9640 C   0  0  0  0  0  3  0  0  0  0  0  0
  -25.5710  -33.9920   24.2740 N   0  0  0  0  0  0  0  0  0  0  0  0
  -25.9060  -35.0310   23.4990 C   0  0  0  0  0  0  0  0  0  0  0  0
  -26.5610  -34.9080   22.4610 O   0  0  0  0  0  0  0  0  0  0  0  0
  -24.9850  -34.1650   25.0780 H   0  0  0  0  0  0  0  0  0  0  0  0
  -24.1820  -36.8370   23.1650 C   0  0  0  0  0  1  0  0  0  0  0  0
  -25.4420  -36.4320   23.9470 C   0  0  0  0  0  3  0  0  0  0  0  0
  -27.5990  -37.3260   24.7080 C   0  0  0  0  0  1  0  0  0  0  0  0
  -26.4770  -37.4750   23.7850 N   0  0  0  0  0  0  0  0  0  0  0  0
  -26.0760  -38.4000   23.9130 H   0  0  0  0  0  0  0  0  0  0  0  0
  -26.3380  -31.8200   25.2630 C   0  0  1  0  0  0  0  0  0  0  0  0
  -25.2130  -31.6160   26.3060 C   0  0  0  0  0  1  0  0  0  0  0  0
  -26.9080  -30.4270   24.9080 C   0  0  0  0  0  1  0  0  0  0  0  0
  -27.4850  -32.6040   25.9410 C   0  0  0  0  0  1  0  0  0  0  0  0
  -29.2270  -19.0220   20.1720 C   0  0  0  0  0  3  0  0  0  0  0  0
  -30.7560  -17.8430   21.8610 C   0  0  0  0  0  1  0  0  0  0  0  0
  -30.3190  -17.7360   20.3810 C   0  0  1  0  0  0  0  0  0  0  0  0
  -30.6050  -14.9740   20.0360 C   0  0  0  0  0  0  0  0  0  0  0  0
  -30.3920  -12.6400   19.0850 C   0  0  0  0  0  2  0  0  0  0  0  0
  -29.4120  -12.5970   17.8920 C   0  0  0  0  0  2  0  0  0  0  0  0
  -27.9690  -12.3970   18.3880 C   0  0  0  0  0  2  0  0  0  0  0  0
  -27.6140  -13.3200   19.5850 C   0  0  0  0  0  3  0  0  0  0  0  0
  -28.7180  -13.3470   20.6610 C   0  0  0  0  0  2  0  0  0  0  0  0
  -29.9580  -13.7440   19.9850 N   0  0  0  0  0  0  0  0  0  0  0  0
  -31.8040  -14.9790   19.7420 O   0  0  0  0  0  0  0  0  0  0  0  0
  -29.9050  -16.2020   20.2150 N   0  0  0  0  0  0  0  0  0  0  0  0
  -28.9140  -16.0470   20.3380 H   0  0  0  0  0  0  0  0  0  0  0  0
  -25.2780  -13.8820   20.4610 C   0  0  0  0  0  0  0  0  0  0  0  0
  -24.2330  -13.0990   20.8640 C   0  0  0  0  0  0  0  0  0  0  0  0
  -24.6920  -11.7470   20.7770 C   0  0  0  0  0  0  0  0  0  0  0  0
  -26.3050  -13.0080   20.1450 N   0  0  0  0  0  0  0  0  0  0  0  0
  -25.9660  -11.7190   20.4030 N   0  0  0  0  0  0  0  0  0  0  0  0
  -23.9730  -10.4830   20.9740 C   0  0  0  0  0  0  0  0  0  0  0  0
  -24.4230   -9.5120   21.8940 C   0  0  0  0  0  3  0  0  0  0  0  0
  -23.7040   -8.3120   22.0780 C   0  0  0  0  0  3  0  0  0  0  0  0
  -22.5190   -8.0750   21.3410 C   0  0  0  0  0  0  0  0  0  0  0  0
  -22.0890   -9.0330   20.4060 C   0  0  0  0  0  3  0  0  0  0  0  0
  -22.8100  -10.2250   20.2210 C   0  0  0  0  0  3  0  0  0  0  0  0
  -21.7690   -6.9280   21.4360 O   0  0  0  0  0  0  0  0  0  0  0  0
  -21.7030   -6.2030   22.5990 C   0  0  0  0  0  0  0  0  0  0  0  0
  -21.2270   -6.7650   23.8030 C   0  0  0  0  0  3  0  0  0  0  0  0
  -21.1150   -5.9630   24.9570 C   0  0  0  0  0  3  0  0  0  0  0  0
  -21.4700   -4.6030   24.9070 C   0  0  0  0  0  0  0  0  0  0  0  0
  -21.9360   -4.0400   23.7060 C   0  0  0  0  0  3  0  0  0  0  0  0
  -22.0520   -4.8380   22.5550 C   0  0  0  0  0  0  0  0  0  0  0  0
  -22.4840   -4.2860   21.3950 F   0  0  0  0  0  0  0  0  0  0  0  0
  -21.3540   -3.8300   26.0110 F   0  0  0  0  0  0  0  0  0  0  0  0
  -22.8510  -13.5710   21.2090 C   0  0  0  0  0  0  0  0  0  0  0  0
  -22.1600  -12.8550   22.0880 N   0  0  0  0  0  0  0  0  0  0  0  0
  -22.3970  -14.6110   20.7320 O   0  0  0  0  0  0  0  0  0  0  0  0
  -22.5460  -12.0150   22.4940 H   0  0  0  0  0  0  0  0  0  0  0  0
  -21.2320  -13.1500   22.3570 H   0  0  0  0  0  0  0  0  0  0  0  0
  -25.4360  -15.2550   20.3090 N   0  0  0  0  0  0  0  0  0  0  0  0
  -24.6670  -15.8970   20.4750 H   0  0  0  0  0  0  0  0  0  0  0  0
  -26.2520  -15.7050   19.9180 H   0  0  0  0  0  0  0  0  0  0  0  0
  -31.5260  -18.0720   19.4390 C   0  0  0  0  0  2  0  0  0  0  0  0
  -32.8220  -17.5220   19.8730 N   0  0  0  0  0  4  0  0  0  0  0  0
  -33.0590  -17.8240   20.8010 H   0  0  0  0  0  0  0  0  0  0  0  0
  -33.5560  -17.7920   19.2440 H   0  0  0  0  0  0  0  0  0  0  0  0
  -32.7370  -16.5070   19.8560 H   0  0  0  0  0  0  0  0  0  0  0  0
  2  1  1  0
  2  5  1  0
  2  3  1  0
  4  2  1  0
  6  7  1  0
  6  5  2  0
  8 19  2  0
  9  7  1  0
  9 14  1  0
 10 18  1  0
 10 20  1  0
 11 17  1  0
 11 13  1  0
 12 18  1  0
 13 14  2  0
 13 12  1  0
 15  9  2  0
 16 15  1  0
 16 11  2  0
 17 10  1  0
 18  8  1  0
 20 22  2  0
 21 20  1  0
 23 21  1  0
 24 33  2  0
 24 29  1  0
 25 21  1  0
 25 29  1  0
 26 25  1  0
 27 28  1  0
 27 26  1  0
 28 24  1  0
 29 30  2  0
 30 31  1  0
 32 31  2  0
 33 32  1  0
 34  8  1  0
 34 35  1  0
 34 44  1  0
 35 38  1  0
 36 40  1  0
 36 35  1  0
 37 36  2  0
 40 39  1  0
 42 43  1  0
 42 40  1  0
 42 41  1  0
 44 47  1  1
 44 45  1  0
 46 44  1  0
 48 50  1  0
 48  1  2  0
 50 49  1  1
 51 59  1  0
 52 57  1  0
 53 54  1  0
 53 52  1  0
 55 54  1  0
 55 64  1  0
 55 56  1  0
 57 51  1  0
 57 56  1  0
 58 51  2  0
 59 60  1  0
 59 50  1  0
 61 62  2  0
 62 81  1  0
 63 62  1  0
 63 66  1  0
 64 65  1  0
 64 61  1  0
 65 63  2  0
 66 67  1  0
 67 68  2  0
 69 72  1  0
 69 68  1  0
 70 69  2  0
 71 70  1  0
 71 66  2  0
 72 73  1  0
 73 74  1  0
 74 75  2  0
 76 75  1  0
 76 80  1  0
 77 76  2  0
 78 73  2  0
 78 77  1  0
 79 78  1  0
 81 82  1  0
 82 85  1  0
 82 84  1  0
 83 81  2  0
 86 61  1  0
 86 87  1  0
 88 86  1  0
 89 90  1  0
 89 50  1  0
 90 91  1  0
 92 90  1  0
 93 90  1  0
M  ISO  4   6 101   7 101  51 100  59 100
M  END
>  <TORSDO>  (93) 
F 23

>  <SCORE>  (93) 
-13.692

>  <name>  (93) 
95

>  <ligand_id>  (93) 
95

>  <original_smiles>  (93) 
[H]c1c([H])c([H])c2c(c1[H])C([H])([H])C([H])([H])C([H])([H])C2([H])N([H])C(=O)C1([H])N(C(=O)C([H])(N([H])C(=O)C([H])(N([H])C([H])([H])[H])C([H])([H])[H])C(C([H])([H])[H])(C([H])([H])[H])C([H])([H])[H])C([H])([H])c2c([H])c(OC([H])([H])C([H])([H])[N+]([H])([H])C([H])([H])C([H])([H])C(N([H])C(=O)N3C([H])([H])C([H])([H])C([H])([H])C([H])(n4nc(-c5c([H])c([H])c(Oc6c([H])c([H])c(F)c([H])c6F)c([H])c5[H])c(C(=O)N([H])[H])c4N([H])[H])C3([H])[H])(C([H])([H])[H])C([H])([H])[N+]([H])([H])[H])c([H])c([H])c2C1([H])[H]

>  <smiles>  (93) 
[H]c1c([H])c([H])c2c(c1[H])C([H])([H])C([H])([H])C([H])([H])C2([H])N([H])C(=O)C1([H])N(C(=O)C([H])(N([H])C(=O)C([H])(N([H])C([H])([H])[H])C([H])([H])[H])C(C([H])([H])[H])(C([H])([H])[H])C([H])([H])[H])C([H])([H])c2c([H])c(OC([H])([H])C([H])([H])[N+]([H])([H])C([H])([H])C([H])([H])C(N([H])C(=O)N3C([H])([H])C([H])([H])C([H])([H])C([H])(n4nc(-c5c([H])c([H])c(Oc6c([H])c([H])c(F)c([H])c6F)c([H])c5[H])c(C(=O)N([H])[H])c4N([H])[H])C3([H])[H])(C([H])([H])[H])C([H])([H])[N+]([H])([H])[H])c([H])c([H])c2C1([H])[H]

$$$$
96:0:0
     RDKit          3D

 87 95  0  0  1  0  0  0  0  0999 V2000
  -28.4030  -21.3220   20.2450 C   0  0  0  0  0  2  0  0  0  0  0  0
  -30.5070  -15.1840   20.2380 C   0  0  0  0  0  0  0  0  0  0  0  0
  -30.3910  -12.7830   19.3440 C   0  0  0  0  0  2  0  0  0  0  0  0
  -29.4500  -12.6340   18.1250 C   0  0  0  0  0  2  0  0  0  0  0  0
  -28.0080  -12.3800   18.5940 C   0  0  0  0  0  2  0  0  0  0  0  0
  -27.5860  -13.3390   19.7380 C   0  0  0  0  0  3  0  0  0  0  0  0
  -28.6540  -13.4630   20.8430 C   0  0  0  0  0  2  0  0  0  0  0  0
  -29.8850  -13.9190   20.1860 N   0  0  0  0  0  0  0  0  0  0  0  0
  -31.7240  -15.1540   20.0100 O   0  0  0  0  0  0  0  0  0  0  0  0
  -29.2130  -17.2560   19.2380 C   0  0  0  0  0  2  0  0  0  0  0  0
  -30.4780  -17.6630   21.1220 C   0  0  0  0  0  2  0  0  0  0  0  0
  -28.5220  -18.7510   19.4030 C   0  0  0  0  0  2  0  0  0  0  0  0
  -29.7730  -19.1530   21.3100 C   0  0  0  0  0  2  0  0  0  0  0  0
  -29.8330  -16.4790   20.3900 N   0  0  0  0  0  0  0  0  0  0  0  0
  -29.2440  -19.9140   20.0970 N   0  0  2  0  0  4  0  0  0  0  0  0
  -30.0400  -20.1270   19.5140 H   0  0  0  0  0  0  0  0  0  0  0  0
  -25.2340  -13.8880   20.5610 C   0  0  0  0  0  0  0  0  0  0  0  0
  -24.1780  -13.1040   20.9350 C   0  0  0  0  0  0  0  0  0  0  0  0
  -24.6450  -11.7550   20.8640 C   0  0  0  0  0  0  0  0  0  0  0  0
  -26.2690  -13.0170   20.2730 N   0  0  0  0  0  0  0  0  0  0  0  0
  -25.9290  -11.7270   20.5240 N   0  0  0  0  0  0  0  0  0  0  0  0
  -23.9230  -10.4880   21.0410 C   0  0  0  0  0  0  0  0  0  0  0  0
  -24.3520   -9.5150   21.9700 C   0  0  0  0  0  3  0  0  0  0  0  0
  -23.6270   -8.3150   22.1380 C   0  0  0  0  0  3  0  0  0  0  0  0
  -22.4580   -8.0810   21.3750 C   0  0  0  0  0  0  0  0  0  0  0  0
  -22.0480   -9.0420   20.4360 C   0  0  0  0  0  3  0  0  0  0  0  0
  -22.7740  -10.2330   20.2660 C   0  0  0  0  0  3  0  0  0  0  0  0
  -21.7030   -6.9350   21.4510 O   0  0  0  0  0  0  0  0  0  0  0  0
  -21.6140   -6.2080   22.6110 C   0  0  0  0  0  0  0  0  0  0  0  0
  -21.1240   -6.7740   23.8090 C   0  0  0  0  0  3  0  0  0  0  0  0
  -20.9830   -5.9730   24.9600 C   0  0  0  0  0  3  0  0  0  0  0  0
  -21.3220   -4.6070   24.9130 C   0  0  0  0  0  0  0  0  0  0  0  0
  -21.8060   -4.0420   23.7200 C   0  0  0  0  0  3  0  0  0  0  0  0
  -21.9480   -4.8390   22.5720 C   0  0  0  0  0  0  0  0  0  0  0  0
  -22.3930   -4.2840   21.4200 F   0  0  0  0  0  0  0  0  0  0  0  0
  -21.1800   -3.8350   26.0170 F   0  0  0  0  0  0  0  0  0  0  0  0
  -22.7870  -13.5760   21.2400 C   0  0  0  0  0  0  0  0  0  0  0  0
  -22.0770  -12.8670   22.1100 N   0  0  0  0  0  0  0  0  0  0  0  0
  -22.3400  -14.6080   20.7430 O   0  0  0  0  0  0  0  0  0  0  0  0
  -22.4530  -12.0330   22.5370 H   0  0  0  0  0  0  0  0  0  0  0  0
  -21.1460  -13.1690   22.3590 H   0  0  0  0  0  0  0  0  0  0  0  0
  -25.3940  -15.2640   20.4130 N   0  0  0  0  0  0  0  0  0  0  0  0
  -24.6320  -15.9150   20.5730 H   0  0  0  0  0  0  0  0  0  0  0  0
  -26.2450  -15.7150   20.1060 H   0  0  0  0  0  0  0  0  0  0  0  0
  -28.9020  -23.0030   20.2450 C   0  0  0  0  0  3  0  0  0  0  0  0
  -27.9120  -24.4510   20.1180 C   0  0  0  0  0  3  0  0  0  0  0  0
  -28.2070  -26.0310   20.2460 O   0  0  0  0  0  0  0  0  0  0  0  0
  -24.6500  -31.8880   23.2520 C   0  0  0  0  0  0  0  0  0  0  0  0
  -27.1840  -27.0860   20.1970 C   0  0  0  0  0  0  0  0  0  0  0  0
  -23.4430  -30.5070   21.6100 C   0  0  0  0  0  3  0  0  0  0  0  0
  -24.8800  -28.9170   20.1750 C   0  0  0  0  0  0  0  0  0  0  0  0
  -26.0060  -30.7310   21.4500 C   0  0  0  0  0  2  0  0  0  0  0  0
  -26.0690  -29.3330   20.7860 C   0  0  0  0  0  0  0  0  0  0  0  0
  -27.2200  -28.4370   20.7740 C   0  0  0  0  0  3  0  0  0  0  0  0
  -25.9630  -26.8000   19.5470 C   0  0  0  0  0  3  0  0  0  0  0  0
  -24.8460  -27.6680   19.5380 C   0  0  0  0  0  3  0  0  0  0  0  0
  -23.6630  -29.8340   20.2280 C   0  0  0  0  0  2  0  0  0  0  0  0
  -24.7210  -31.0670   22.1580 N   0  0  0  0  0  0  0  0  0  0  0  0
  -23.5650  -32.1780   23.7800 O   0  0  0  0  0  0  0  0  0  0  0  0
  -22.7550  -29.5030   22.5700 C   0  0  0  0  0  0  0  0  0  0  0  0
  -21.4250  -29.3370   22.4420 N   0  0  0  0  0  0  0  0  0  0  0  0
  -23.4210  -28.8740   23.3950 O   0  0  0  0  0  0  0  0  0  0  0  0
  -20.9430  -29.8950   21.7520 H   0  0  0  0  0  0  0  0  0  0  0  0
  -18.0410  -28.1350   22.9430 C   0  0  0  0  0  0  0  0  0  0  0  0
  -20.6010  -28.3990   23.2100 C   0  0  0  0  0  3  0  0  0  0  0  0
  -20.7010  -26.9670   22.6340 C   0  0  0  0  0  2  0  0  0  0  0  0
  -19.6000  -26.6460   21.6190 C   0  0  0  0  0  2  0  0  0  0  0  0
  -18.2180  -26.7880   22.2620 C   0  0  0  0  0  2  0  0  0  0  0  0
  -19.1590  -28.8980   23.3740 C   0  0  0  0  0  0  0  0  0  0  0  0
  -18.9370  -30.1560   23.9730 C   0  0  0  0  0  3  0  0  0  0  0  0
  -17.6310  -30.6530   24.1460 C   0  0  0  0  0  3  0  0  0  0  0  0
  -16.5290  -29.8880   23.7280 C   0  0  0  0  0  3  0  0  0  0  0  0
  -16.7340  -28.6310   23.1320 C   0  0  0  0  0  3  0  0  0  0  0  0
  -25.9290  -32.5180   23.8820 C   0  0  0  0  0  3  0  0  0  0  0  0
  -25.6210  -33.9190   24.2190 N   0  0  0  0  0  0  0  0  0  0  0  0
  -25.9290  -34.9760   23.4580 C   0  0  0  0  0  0  0  0  0  0  0  0
  -26.5680  -34.8770   22.4070 O   0  0  0  0  0  0  0  0  0  0  0  0
  -25.0480  -34.0690   25.0370 H   0  0  0  0  0  0  0  0  0  0  0  0
  -24.1770  -36.7640   23.1830 C   0  0  0  0  0  1  0  0  0  0  0  0
  -25.4580  -36.3650   23.9340 C   0  0  0  0  0  3  0  0  0  0  0  0
  -27.6220  -37.2680   24.6640 C   0  0  0  0  0  1  0  0  0  0  0  0
  -26.4780  -37.4240   23.7690 N   0  0  0  0  0  0  0  0  0  0  0  0
  -26.0730  -38.3430   23.9280 H   0  0  0  0  0  0  0  0  0  0  0  0
  -26.4320  -31.7480   25.1660 C   0  0  1  0  0  0  0  0  0  0  0  0
  -25.3310  -31.5220   26.2290 C   0  0  0  0  0  1  0  0  0  0  0  0
  -27.0090  -30.3640   24.7890 C   0  0  0  0  0  1  0  0  0  0  0  0
  -27.5840  -32.5370   25.8320 C   0  0  0  0  0  1  0  0  0  0  0  0
  1 45  1  0
  2 14  1  0
  3  8  1  0
  4  5  1  0
  4  3  1  0
  6  5  1  0
  6 20  1  0
  6  7  1  0
  8  2  1  0
  8  7  1  0
  9  2  2  0
 10 12  1  0
 10 14  1  0
 11 13  1  0
 12 15  1  0
 14 11  1  0
 15  1  1  0
 15 13  1  0
 15 16  1  6
 17 18  2  0
 18 37  1  0
 19 18  1  0
 19 22  1  0
 20 21  1  0
 20 17  1  0
 21 19  2  0
 22 23  1  0
 23 24  2  0
 25 28  1  0
 25 24  1  0
 26 25  2  0
 27 26  1  0
 27 22  2  0
 28 29  1  0
 29 30  1  0
 30 31  2  0
 32 31  1  0
 32 36  1  0
 33 32  2  0
 34 29  2  0
 34 33  1  0
 35 34  1  0
 37 38  1  0
 38 41  1  0
 38 40  1  0
 39 37  2  0
 42 17  1  0
 42 43  1  0
 44 42  1  0
 46 45  2  0
 46 47  1  0
 48 59  2  0
 49 47  1  0
 49 54  1  0
 50 58  1  0
 50 60  1  0
 51 57  1  0
 51 53  1  0
 52 58  1  0
 53 52  1  0
 54 53  2  0
 55 49  2  0
 56 55  1  0
 56 51  2  0
 57 50  1  0
 58 48  1  0
 60 62  2  0
 61 60  1  0
 63 61  1  0
 64 73  2  0
 64 69  1  0
 65 61  1  0
 65 69  1  0
 66 65  1  0
 67 68  1  0
 67 66  1  0
 68 64  1  0
 69 70  2  0
 70 71  1  0
 72 71  2  0
 73 72  1  0
 74 48  1  0
 74 75  1  0
 74 84  1  0
 75 78  1  0
 76 80  1  0
 76 75  1  0
 77 76  2  0
 80 79  1  0
 82 83  1  0
 82 80  1  0
 82 81  1  0
 84 87  1  1
 84 85  1  0
 86 84  1  0
M  ISO  4   2 100  14 100  46 101  47 101
M  END
>  <TORSDO>  (94) 
F 18

>  <SCORE>  (94) 
-15.663

>  <name>  (94) 
96

>  <ligand_id>  (94) 
96

>  <original_smiles>  (94) 
[H]c1c([H])c([H])c2c(c1[H])C([H])([H])C([H])([H])C([H])([H])C2([H])N([H])C(=O)C1([H])N(C(=O)C([H])(N([H])C(=O)C([H])(N([H])C([H])([H])[H])C([H])([H])[H])C(C([H])([H])[H])(C([H])([H])[H])C([H])([H])[H])C([H])([H])c2c([H])c(OC([H])([H])C([H])([H])C([H])([H])[N+]3([H])C([H])([H])C([H])([H])N(C(=O)N4C([H])([H])C([H])([H])C([H])([H])C([H])(n5nc(-c6c([H])c([H])c(Oc7c([H])c([H])c(F)c([H])c7F)c([H])c6[H])c(C(=O)N([H])[H])c5N([H])[H])C4([H])[H])C([H])([H])C3([H])[H])c([H])c([H])c2C1([H])[H]

>  <smiles>  (94) 
[H]c1c([H])c([H])c2c(c1[H])C([H])([H])C([H])([H])C([H])([H])C2([H])N([H])C(=O)C1([H])N(C(=O)C([H])(N([H])C(=O)C([H])(N([H])C([H])([H])[H])C([H])([H])[H])C(C([H])([H])[H])(C([H])([H])[H])C([H])([H])[H])C([H])([H])c2c([H])c(OC([H])([H])C([H])([H])C([H])([H])[N+]3([H])C([H])([H])C([H])([H])N(C(=O)N4C([H])([H])C([H])([H])C([H])([H])C([H])(n5nc(-c6c([H])c([H])c(Oc7c([H])c([H])c(F)c([H])c7F)c([H])c6[H])c(C(=O)N([H])[H])c5N([H])[H])C4([H])[H])C([H])([H])C3([H])[H])c([H])c([H])c2C1([H])[H]

$$$$
97:0:0
     RDKit          3D

105112  0  0  1  0  0  0  0  0999 V2000
  -30.2440  -17.0200   21.1080 C   0  0  0  0  0  3  0  0  0  0  0  0
  -30.7140  -14.5450   20.6420 C   0  0  0  0  0  0  0  0  0  0  0  0
  -30.4860  -12.2900   19.6710 C   0  0  0  0  0  2  0  0  0  0  0  0
  -29.5960  -12.3620   18.4100 C   0  0  0  0  0  2  0  0  0  0  0  0
  -28.1040  -12.2570   18.7890 C   0  0  0  0  0  2  0  0  0  0  0  0
  -27.7080  -13.2250   19.9350 C   0  0  0  0  0  3  0  0  0  0  0  0
  -28.7050  -13.1000   21.1110 C   0  0  0  0  0  2  0  0  0  0  0  0
  -30.0570  -13.3590   20.5820 N   0  0  0  0  0  0  0  0  0  0  0  0
  -31.8550  -14.7050   20.2030 O   0  0  0  0  0  0  0  0  0  0  0  0
  -29.9640  -15.5720   21.0900 N   0  0  0  0  0  0  0  0  0  0  0  0
  -29.0360  -15.3010   21.3820 H   0  0  0  0  0  0  0  0  0  0  0  0
  -25.3190  -13.9320   20.5890 C   0  0  0  0  0  0  0  0  0  0  0  0
  -24.2090  -13.2020   20.9200 C   0  0  0  0  0  0  0  0  0  0  0  0
  -24.6130  -11.8330   20.8810 C   0  0  0  0  0  0  0  0  0  0  0  0
  -26.3310  -13.0080   20.3720 N   0  0  0  0  0  0  0  0  0  0  0  0
  -25.9060  -11.7410   20.6050 N   0  0  0  0  0  0  0  0  0  0  0  0
  -23.8300  -10.5990   21.0360 C   0  0  0  0  0  0  0  0  0  0  0  0
  -24.2330   -9.5750   21.9200 C   0  0  0  0  0  3  0  0  0  0  0  0
  -23.4550   -8.4060   22.0640 C   0  0  0  0  0  3  0  0  0  0  0  0
  -22.2610   -8.2540   21.3200 C   0  0  0  0  0  0  0  0  0  0  0  0
  -21.8760   -9.2670   20.4230 C   0  0  0  0  0  3  0  0  0  0  0  0
  -22.6550  -10.4270   20.2780 C   0  0  0  0  0  3  0  0  0  0  0  0
  -21.4580   -7.1390   21.3720 O   0  0  0  0  0  0  0  0  0  0  0  0
  -21.4340   -6.3210   22.4730 C   0  0  0  0  0  0  0  0  0  0  0  0
  -21.1090   -6.8090   23.7580 C   0  0  0  0  0  3  0  0  0  0  0  0
  -21.0300   -5.9200   24.8490 C   0  0  0  0  0  3  0  0  0  0  0  0
  -21.2650   -4.5460   24.6560 C   0  0  0  0  0  0  0  0  0  0  0  0
  -21.5850   -4.0580   23.3770 C   0  0  0  0  0  3  0  0  0  0  0  0
  -21.6670   -4.9440   22.2890 C   0  0  0  0  0  0  0  0  0  0  0  0
  -21.9550   -4.4660   21.0540 F   0  0  0  0  0  0  0  0  0  0  0  0
  -21.1820   -3.6900   25.7020 F   0  0  0  0  0  0  0  0  0  0  0  0
  -22.8260  -13.7350   21.1600 C   0  0  0  0  0  0  0  0  0  0  0  0
  -22.0510  -13.0750   22.0130 N   0  0  0  0  0  0  0  0  0  0  0  0
  -22.4380  -14.7750   20.6280 O   0  0  0  0  0  0  0  0  0  0  0  0
  -22.3770  -12.2400   22.4760 H   0  0  0  0  0  0  0  0  0  0  0  0
  -21.1190  -13.4140   22.2080 H   0  0  0  0  0  0  0  0  0  0  0  0
  -25.5480  -15.2950   20.4350 N   0  0  0  0  0  0  0  0  0  0  0  0
  -24.8050  -15.9780   20.5270 H   0  0  0  0  0  0  0  0  0  0  0  0
  -26.4180  -15.6970   20.1100 H   0  0  0  0  0  0  0  0  0  0  0  0
  -31.1480  -17.3890   22.3130 C   0  0  0  0  0  2  0  0  0  0  0  0
  -30.4870  -18.3750   23.3050 C   0  0  0  0  0  3  0  0  0  0  0  0
  -31.0480  -19.7510   23.0460 C   0  0  0  0  0  0  0  0  0  0  0  0
  -30.2630  -20.6990   22.5230 N   0  0  0  0  0  4  0  0  0  0  0  0
  -32.3290  -20.0330   23.3330 N   0  0  0  0  0  0  0  0  0  0  0  0
  -29.2980  -20.5060   22.2870 H   0  0  0  0  0  0  0  0  0  0  0  0
  -30.5570  -21.6590   22.4240 H   0  0  0  0  0  0  0  0  0  0  0  0
  -32.9400  -19.3320   23.7330 H   0  0  0  0  0  0  0  0  0  0  0  0
  -32.7510  -20.9320   23.1570 H   0  0  0  0  0  0  0  0  0  0  0  0
  -30.7020  -18.0190   24.7920 C   0  0  0  0  0  2  0  0  0  0  0  0
  -30.0530  -19.0260   25.7710 C   0  0  0  0  0  2  0  0  0  0  0  0
  -28.6100  -18.7980   25.9920 N   0  0  0  0  0  4  0  0  0  0  0  0
  -28.0710  -18.8370   25.1440 H   0  0  0  0  0  0  0  0  0  0  0  0
  -28.2540  -19.5110   26.6080 H   0  0  0  0  0  0  0  0  0  0  0  0
  -28.4490  -17.9130   26.4410 H   0  0  0  0  0  0  0  0  0  0  0  0
  -30.7430  -17.5560   19.7350 C   0  0  0  0  0  2  0  0  0  0  0  0
  -30.6180  -19.0850   19.4930 C   0  0  0  0  0  2  0  0  0  0  0  0
  -29.1670  -19.6140   19.4200 C   0  0  0  0  0  2  0  0  0  0  0  0
  -28.9880  -21.0830   18.9560 C   0  0  0  0  0  2  0  0  0  0  0  0
  -29.3170  -22.1000   19.9870 N   0  0  0  0  0  4  0  0  0  0  0  0
  -30.3180  -22.2170   20.0130 H   0  0  0  0  0  0  0  0  0  0  0  0
  -29.0220  -21.7440   20.8810 H   0  0  0  0  0  0  0  0  0  0  0  0
  -28.6640  -23.4230   19.7890 C   0  0  0  0  0  2  0  0  0  0  0  0
  -29.1400  -24.4920   20.8030 C   0  0  0  0  0  2  0  0  0  0  0  0
  -28.1830  -25.6920   20.9820 C   0  0  0  0  0  2  0  0  0  0  0  0
  -28.2100  -26.6390   19.9110 O   0  0  0  0  0  0  0  0  0  0  0  0
  -24.4840  -31.7440   23.1840 C   0  0  0  0  0  0  0  0  0  0  0  0
  -27.0840  -27.4270   19.9150 C   0  0  0  0  0  0  0  0  0  0  0  0
  -23.2620  -30.4160   21.4950 C   0  0  0  0  0  3  0  0  0  0  0  0
  -24.7010  -28.9290   19.9980 C   0  0  0  0  0  0  0  0  0  0  0  0
  -25.7850  -30.7750   21.2910 C   0  0  0  0  0  2  0  0  0  0  0  0
  -25.8630  -29.4290   20.6000 C   0  0  0  0  0  0  0  0  0  0  0  0
  -27.0630  -28.6840   20.5570 C   0  0  0  0  0  3  0  0  0  0  0  0
  -25.9110  -26.9370   19.3070 C   0  0  0  0  0  3  0  0  0  0  0  0
  -24.7190  -27.6840   19.3470 C   0  0  0  0  0  3  0  0  0  0  0  0
  -23.4590  -29.7890   20.0870 C   0  0  0  0  0  2  0  0  0  0  0  0
  -24.5310  -30.9890   22.0510 N   0  0  0  0  0  0  0  0  0  0  0  0
  -23.4080  -32.0010   23.7410 O   0  0  0  0  0  0  0  0  0  0  0  0
  -22.6100  -29.3630   22.4190 C   0  0  0  0  0  0  0  0  0  0  0  0
  -21.2780  -29.2190   22.3150 N   0  0  0  0  0  0  0  0  0  0  0  0
  -23.2960  -28.6830   23.1870 O   0  0  0  0  0  0  0  0  0  0  0  0
  -20.7890  -29.8200   21.6660 H   0  0  0  0  0  0  0  0  0  0  0  0
  -17.8870  -28.0900   22.8410 C   0  0  0  0  0  0  0  0  0  0  0  0
  -20.4560  -28.2650   23.0570 C   0  0  0  0  0  3  0  0  0  0  0  0
  -20.5030  -26.8640   22.4050 C   0  0  0  0  0  2  0  0  0  0  0  0
  -19.3680  -26.6270   21.4040 C   0  0  0  0  0  2  0  0  0  0  0  0
  -18.0070  -26.7740   22.0900 C   0  0  0  0  0  2  0  0  0  0  0  0
  -19.0370  -28.7970   23.2800 C   0  0  0  0  0  0  0  0  0  0  0  0
  -18.8710  -30.0310   23.9450 C   0  0  0  0  0  3  0  0  0  0  0  0
  -17.5870  -30.5600   24.1710 C   0  0  0  0  0  3  0  0  0  0  0  0
  -16.4500  -29.8500   23.7450 C   0  0  0  0  0  3  0  0  0  0  0  0
  -16.6010  -28.6160   23.0870 C   0  0  0  0  0  3  0  0  0  0  0  0
  -25.7780  -32.3430   23.8200 C   0  0  0  0  0  3  0  0  0  0  0  0
  -25.4790  -33.7270   24.2070 N   0  0  0  0  0  0  0  0  0  0  0  0
  -25.8170  -34.8060   23.4890 C   0  0  0  0  0  0  0  0  0  0  0  0
  -26.4840  -34.7380   22.4520 O   0  0  0  0  0  0  0  0  0  0  0  0
  -24.8810  -33.8540   25.0110 H   0  0  0  0  0  0  0  0  0  0  0  0
  -24.0920  -36.6160   23.2150 C   0  0  0  0  0  1  0  0  0  0  0  0
  -25.3400  -36.1790   24.0000 C   0  0  0  0  0  3  0  0  0  0  0  0
  -27.4870  -37.0210   24.8410 C   0  0  0  0  0  1  0  0  0  0  0  0
  -26.3750  -37.2310   23.9170 N   0  0  0  0  0  0  0  0  0  0  0  0
  -25.9750  -38.1470   24.1050 H   0  0  0  0  0  0  0  0  0  0  0  0
  -26.2990  -31.5160   25.0590 C   0  0  1  0  0  0  0  0  0  0  0  0
  -25.2180  -31.2530   26.1330 C   0  0  0  0  0  1  0  0  0  0  0  0
  -26.8590  -30.1480   24.6030 C   0  0  0  0  0  1  0  0  0  0  0  0
  -27.4710  -32.2690   25.7340 C   0  0  0  0  0  1  0  0  0  0  0  0
  1 55  1  0
  1 40  1  0
  2 10  1  0
  3  8  1  0
  4  5  1  0
  4  3  1  0
  6  5  1  0
  6 15  1  0
  6  7  1  0
  8  2  1  0
  8  7  1  0
  9  2  2  0
 10  1  1  0
 10 11  1  0
 12 13  2  0
 13 32  1  0
 14 13  1  0
 14 17  1  0
 15 12  1  0
 15 16  1  0
 16 14  2  0
 17 18  1  0
 18 19  2  0
 20 23  1  0
 20 19  1  0
 21 20  2  0
 22 21  1  0
 22 17  2  0
 23 24  1  0
 24 25  1  0
 25 26  2  0
 27 26  1  0
 27 31  1  0
 28 27  2  0
 29 24  2  0
 29 28  1  0
 30 29  1  0
 32 33  1  0
 33 36  1  0
 33 35  1  0
 34 32  2  0
 37 38  1  0
 37 12  1  0
 39 37  1  0
 41 40  1  0
 41 49  1  0
 42 41  1  0
 42 44  1  0
 43 42  2  0
 44 47  1  0
 45 43  1  0
 46 43  1  0
 48 44  1  0
 49 50  1  0
 50 51  1  0
 51 54  1  0
 51 53  1  0
 52 51  1  0
 56 55  1  0
 57 56  1  0
 58 57  1  0
 58 59  1  0
 59 60  1  0
 59 61  1  0
 62 59  1  0
 62 63  1  0
 63 64  1  0
 65 67  1  0
 65 64  1  0
 66 77  2  0
 67 72  1  0
 68 76  1  0
 68 78  1  0
 69 75  1  0
 69 71  1  0
 70 76  1  0
 71 70  1  0
 72 71  2  0
 73 74  1  0
 73 67  2  0
 74 69  2  0
 75 68  1  0
 76 66  1  0
 78 80  2  0
 79 78  1  0
 81 79  1  0
 82 91  2  0
 82 87  1  0
 83 79  1  0
 83 87  1  0
 84 83  1  0
 85 86  1  0
 85 84  1  0
 86 82  1  0
 87 88  2  0
 88 89  1  0
 90 89  2  0
 91 90  1  0
 92 66  1  0
 92 93  1  0
 92102  1  0
 93 96  1  0
 94 98  1  0
 94 93  1  0
 95 94  2  0
 98 97  1  0
100 98  1  0
100101  1  0
100 99  1  0
102105  1  1
102103  1  0
104102  1  0
M  ISO  4   2 100  10 100  64 101  65 101
M  END
>  <TORSDO>  (95) 
F 30

>  <SCORE>  (95) 
-6.720

>  <name>  (95) 
97

>  <ligand_id>  (95) 
97

>  <original_smiles>  (95) 
[H]c1c([H])c([H])c2c(c1[H])C([H])([H])C([H])([H])C([H])([H])C2([H])N([H])C(=O)C1([H])N(C(=O)C([H])(N([H])C(=O)C([H])(N([H])C([H])([H])[H])C([H])([H])[H])C(C([H])([H])[H])(C([H])([H])[H])C([H])([H])[H])C([H])([H])c2c([H])c(OC([H])([H])C([H])([H])C([H])([H])[N+]([H])([H])C([H])([H])C([H])([H])C([H])([H])C([H])([H])C([H])(N([H])C(=O)N3C([H])([H])C([H])([H])C([H])([H])C([H])(n4nc(-c5c([H])c([H])c(Oc6c([H])c([H])c(F)c([H])c6F)c([H])c5[H])c(C(=O)N([H])[H])c4N([H])[H])C3([H])[H])C([H])([H])C([H])(C(N([H])[H])=[N+]([H])[H])C([H])([H])C([H])([H])[N+]([H])([H])[H])c([H])c([H])c2C1([H])[H]

>  <smiles>  (95) 
[H]c1c([H])c([H])c2c(c1[H])C([H])([H])C([H])([H])C([H])([H])C2([H])N([H])C(=O)C1([H])N(C(=O)C([H])(N([H])C(=O)C([H])(N([H])C([H])([H])[H])C([H])([H])[H])C(C([H])([H])[H])(C([H])([H])[H])C([H])([H])[H])C([H])([H])c2c([H])c(OC([H])([H])C([H])([H])C([H])([H])[N+]([H])([H])C([H])([H])C([H])([H])C([H])([H])C([H])([H])C([H])(N([H])C(=O)N3C([H])([H])C([H])([H])C([H])([H])C([H])(n4nc(-c5c([H])c([H])c(Oc6c([H])c([H])c(F)c([H])c6F)c([H])c5[H])c(C(=O)N([H])[H])c4N([H])[H])C3([H])[H])C([H])([H])C([H])(C(N([H])[H])=[N+]([H])[H])C([H])([H])C([H])([H])[N+]([H])([H])[H])c([H])c([H])c2C1([H])[H]

$$$$
98:0:0
     RDKit          3D

 86 93  0  0  1  0  0  0  0  0999 V2000
  -30.3160  -15.9790   20.1250 C   0  0  0  0  0  0  0  0  0  0  0  0
  -30.4820  -13.3310   19.5080 C   0  0  0  0  0  2  0  0  0  0  0  0
  -29.6610  -12.7100   18.3340 C   0  0  0  0  0  2  0  0  0  0  0  0
  -28.2460  -12.3330   18.7870 C   0  0  0  0  0  2  0  0  0  0  0  0
  -27.6640  -13.4220   19.7120 C   0  0  0  0  0  3  0  0  0  0  0  0
  -28.6400  -13.9320   20.8070 C   0  0  0  0  0  2  0  0  0  0  0  0
  -29.7870  -14.5830   20.1100 N   0  0  0  0  0  0  0  0  0  0  0  0
  -31.5530  -15.8230   20.0100 O   0  0  0  0  0  0  0  0  0  0  0  0
  -29.3490  -20.3310   18.7400 C   0  0  0  0  0  2  0  0  0  0  0  0
  -30.1080  -18.7320   19.0540 C   0  0  0  0  0  2  0  0  0  0  0  0
  -29.1320  -18.6150   20.9670 C   0  0  0  0  0  2  0  0  0  0  0  0
  -28.9730  -21.6710   19.7790 C   0  0  0  0  0  2  0  0  0  0  0  0
  -28.4750  -20.2850   20.7230 C   0  0  0  0  0  3  0  0  0  0  0  0
  -29.6570  -17.4560   19.9550 N   0  0  0  0  0  0  0  0  0  0  0  0
  -25.3060  -13.9740   20.4480 C   0  0  0  0  0  0  0  0  0  0  0  0
  -24.2310  -13.2070   20.7970 C   0  0  0  0  0  0  0  0  0  0  0  0
  -24.6860  -11.8520   20.7770 C   0  0  0  0  0  0  0  0  0  0  0  0
  -26.3420  -13.0910   20.2230 N   0  0  0  0  0  0  0  0  0  0  0  0
  -25.9840  -11.8060   20.4860 N   0  0  0  0  0  0  0  0  0  0  0  0
  -23.9350  -10.6000   20.9560 C   0  0  0  0  0  0  0  0  0  0  0  0
  -24.3260   -9.6310   21.9080 C   0  0  0  0  0  3  0  0  0  0  0  0
  -23.5710   -8.4510   22.0800 C   0  0  0  0  0  3  0  0  0  0  0  0
  -22.4100   -8.2290   21.3020 C   0  0  0  0  0  0  0  0  0  0  0  0
  -22.0370   -9.1860   20.3400 C   0  0  0  0  0  3  0  0  0  0  0  0
  -22.7940  -10.3580   20.1660 C   0  0  0  0  0  3  0  0  0  0  0  0
  -21.6310   -7.1000   21.3800 O   0  0  0  0  0  0  0  0  0  0  0  0
  -21.5340   -6.3730   22.5390 C   0  0  0  0  0  0  0  0  0  0  0  0
  -21.0820   -6.9500   23.7440 C   0  0  0  0  0  3  0  0  0  0  0  0
  -20.9290   -6.1510   24.8950 C   0  0  0  0  0  3  0  0  0  0  0  0
  -21.2220   -4.7740   24.8400 C   0  0  0  0  0  0  0  0  0  0  0  0
  -21.6690   -4.1960   23.6400 C   0  0  0  0  0  3  0  0  0  0  0  0
  -21.8230   -4.9920   22.4920 C   0  0  0  0  0  0  0  0  0  0  0  0
  -22.2330   -4.4270   21.3310 F   0  0  0  0  0  0  0  0  0  0  0  0
  -21.0700   -4.0040   25.9440 F   0  0  0  0  0  0  0  0  0  0  0  0
  -22.8370  -13.7030   21.0350 C   0  0  0  0  0  0  0  0  0  0  0  0
  -22.0850  -13.0270   21.8970 N   0  0  0  0  0  0  0  0  0  0  0  0
  -22.4230  -14.7280   20.4940 O   0  0  0  0  0  0  0  0  0  0  0  0
  -22.4370  -12.2000   22.3550 H   0  0  0  0  0  0  0  0  0  0  0  0
  -21.1480  -13.3430   22.1040 H   0  0  0  0  0  0  0  0  0  0  0  0
  -25.4830  -15.3430   20.2710 N   0  0  0  0  0  0  0  0  0  0  0  0
  -24.7160  -15.9990   20.3790 H   0  0  0  0  0  0  0  0  0  0  0  0
  -26.3410  -15.7830   19.9650 H   0  0  0  0  0  0  0  0  0  0  0  0
  -28.4120  -20.7720   22.0550 O   0  0  0  0  0  0  0  0  0  0  0  0
  -27.7970  -21.5000   22.0890 H   0  0  0  0  0  0  0  0  0  0  0  0
  -28.1030  -23.5040   19.4450 C   0  0  0  0  0  1  0  0  0  0  0  0
  -28.1960  -25.3450   19.5570 O   0  0  0  0  0  0  0  0  0  0  0  0
  -24.6250  -31.6040   22.8440 C   0  0  0  0  0  0  0  0  0  0  0  0
  -27.2090  -26.6050   19.5800 C   0  0  0  0  0  0  0  0  0  0  0  0
  -23.4440  -30.2500   21.1700 C   0  0  0  0  0  3  0  0  0  0  0  0
  -24.9030  -28.6790   19.6590 C   0  0  0  0  0  0  0  0  0  0  0  0
  -26.0230  -30.4200   21.0190 C   0  0  0  0  0  2  0  0  0  0  0  0
  -26.1070  -29.0060   20.2930 C   0  0  0  0  0  0  0  0  0  0  0  0
  -27.2350  -28.0040   20.2190 C   0  0  0  0  0  3  0  0  0  0  0  0
  -25.9610  -26.5300   18.8990 C   0  0  0  0  0  3  0  0  0  0  0  0
  -24.8770  -27.4710   18.9380 C   0  0  0  0  0  3  0  0  0  0  0  0
  -23.6810  -29.6170   19.7660 C   0  0  0  0  0  2  0  0  0  0  0  0
  -24.7230  -30.7940   21.7300 N   0  0  0  0  0  0  0  0  0  0  0  0
  -23.5320  -31.8580   23.3830 O   0  0  0  0  0  0  0  0  0  0  0  0
  -22.7610  -29.2220   22.1120 C   0  0  0  0  0  0  0  0  0  0  0  0
  -21.4230  -29.0670   22.0280 N   0  0  0  0  0  0  0  0  0  0  0  0
  -23.4460  -28.5600   22.8960 O   0  0  0  0  0  0  0  0  0  0  0  0
  -20.9160  -29.6490   21.3760 H   0  0  0  0  0  0  0  0  0  0  0  0
  -18.0600  -27.8250   22.6390 C   0  0  0  0  0  0  0  0  0  0  0  0
  -20.6320  -28.0800   22.7760 C   0  0  0  0  0  3  0  0  0  0  0  0
  -20.6970  -26.6910   22.1000 C   0  0  0  0  0  2  0  0  0  0  0  0
  -19.5410  -26.4400   21.1260 C   0  0  0  0  0  2  0  0  0  0  0  0
  -18.1970  -26.5310   21.8540 C   0  0  0  0  0  2  0  0  0  0  0  0
  -19.2010  -28.5590   23.0590 C   0  0  0  0  0  0  0  0  0  0  0  0
  -19.0140  -29.7680   23.7650 C   0  0  0  0  0  3  0  0  0  0  0  0
  -17.7200  -30.2430   24.0480 C   0  0  0  0  0  3  0  0  0  0  0  0
  -16.5940  -29.5060   23.6410 C   0  0  0  0  0  3  0  0  0  0  0  0
  -16.7650  -28.2980   22.9430 C   0  0  0  0  0  3  0  0  0  0  0  0
  -25.8760  -32.2660   23.4970 C   0  0  0  0  0  3  0  0  0  0  0  0
  -25.4960  -33.6110   23.9740 N   0  0  0  0  0  0  0  0  0  0  0  0
  -25.7480  -34.7630   23.3360 C   0  0  0  0  0  0  0  0  0  0  0  0
  -26.3790  -34.8060   22.2770 O   0  0  0  0  0  0  0  0  0  0  0  0
  -24.9240  -33.6450   24.8050 H   0  0  0  0  0  0  0  0  0  0  0  0
  -23.9260  -36.5050   23.2720 C   0  0  0  0  0  1  0  0  0  0  0  0
  -25.2260  -36.0740   23.9680 C   0  0  0  0  0  3  0  0  0  0  0  0
  -27.3540  -36.9870   24.7920 C   0  0  0  0  0  1  0  0  0  0  0  0
  -26.2030  -37.1840   23.9130 N   0  0  0  0  0  0  0  0  0  0  0  0
  -25.7630  -38.0670   24.1590 H   0  0  0  0  0  0  0  0  0  0  0  0
  -26.4620  -31.4240   24.6990 C   0  0  1  0  0  0  0  0  0  0  0  0
  -25.4140  -31.0630   25.7790 C   0  0  0  0  0  1  0  0  0  0  0  0
  -27.0880  -30.1040   24.2020 C   0  0  0  0  0  1  0  0  0  0  0  0
  -27.6010  -32.2170   25.3860 C   0  0  0  0  0  1  0  0  0  0  0  0
  2  7  1  0
  3  4  1  0
  3  2  1  0
  5  4  1  0
  5 18  1  0
  5  6  1  0
  7  1  1  0
  7  6  1  0
  8  1  2  0
  9 10  1  0
  9 12  1  0
 10 14  1  0
 12 13  1  0
 13 11  1  0
 13 43  1  0
 14  1  1  0
 14 11  1  0
 15 16  2  0
 16 35  1  0
 17 16  1  0
 17 20  1  0
 18 15  1  0
 18 19  1  0
 19 17  2  0
 20 21  1  0
 21 22  2  0
 23 26  1  0
 23 22  1  0
 24 23  2  0
 25 24  1  0
 25 20  2  0
 26 27  1  0
 27 28  1  0
 28 29  2  0
 30 29  1  0
 30 34  1  0
 31 30  2  0
 32 27  2  0
 32 31  1  0
 33 32  1  0
 35 36  1  0
 36 39  1  0
 36 38  1  0
 37 35  2  0
 40 41  1  0
 40 15  1  0
 42 40  1  0
 43 44  1  0
 45 46  1  0
 46 48  1  0
 47 58  2  0
 48 53  1  0
 49 57  1  0
 49 59  1  0
 50 56  1  0
 50 52  1  0
 51 57  1  0
 52 51  1  0
 53 52  2  0
 54 55  1  0
 54 48  2  0
 55 50  2  0
 56 49  1  0
 57 47  1  0
 59 61  2  0
 60 59  1  0
 62 60  1  0
 63 72  2  0
 63 68  1  0
 64 60  1  0
 64 68  1  0
 65 64  1  0
 66 67  1  0
 66 65  1  0
 67 63  1  0
 68 69  2  0
 69 70  1  0
 71 70  2  0
 72 71  1  0
 73 47  1  0
 73 74  1  0
 73 83  1  0
 74 77  1  0
 75 79  1  0
 75 74  1  0
 76 75  2  0
 79 78  1  0
 81 79  1  0
 81 82  1  0
 81 80  1  0
 83 86  1  1
 83 84  1  0
 85 83  1  0
M  ISO  4   1 100  14 100  45 101  46 101
M  END
>  <TORSDO>  (96) 
F 17

>  <SCORE>  (96) 
-15.123

>  <name>  (96) 
98

>  <ligand_id>  (96) 
98

>  <original_smiles>  (96) 
[H]OC1([H])C([H])([H])N(C(=O)N2C([H])([H])C([H])([H])C([H])([H])C([H])(n3nc(-c4c([H])c([H])c(Oc5c([H])c([H])c(F)c([H])c5F)c([H])c4[H])c(C(=O)N([H])[H])c3N([H])[H])C2([H])[H])C([H])([H])C([H])([H])C1([H])C([H])([H])Oc1c([H])c([H])c2c(c1[H])C([H])([H])N(C(=O)C([H])(N([H])C(=O)C([H])(N([H])C([H])([H])[H])C([H])([H])[H])C(C([H])([H])[H])(C([H])([H])[H])C([H])([H])[H])C([H])(C(=O)N([H])C1([H])c3c([H])c([H])c([H])c([H])c3C([H])([H])C([H])([H])C1([H])[H])C2([H])[H]

>  <smiles>  (96) 
[H]OC1([H])C([H])([H])N(C(=O)N2C([H])([H])C([H])([H])C([H])([H])C([H])(n3nc(-c4c([H])c([H])c(Oc5c([H])c([H])c(F)c([H])c5F)c([H])c4[H])c(C(=O)N([H])[H])c3N([H])[H])C2([H])[H])C([H])([H])C([H])([H])C1([H])C([H])([H])Oc1c([H])c([H])c2c(c1[H])C([H])([H])N(C(=O)C([H])(N([H])C(=O)C([H])(N([H])C([H])([H])[H])C([H])([H])[H])C(C([H])([H])[H])(C([H])([H])[H])C([H])([H])[H])C([H])(C(=O)N([H])C1([H])c3c([H])c([H])c([H])c([H])c3C([H])([H])C([H])([H])C1([H])[H])C2([H])[H]

$$$$
