0:0:0
     RDKit          3D

106113  0  0  1  0  0  0  0  0999 V2000
  -28.4330  -23.9920   19.8150 C   0  0  0  0  0  3  0  0  0  0  0  0
  -28.3270  -25.1340   20.8120 N   0  0  0  0  0  0  0  0  0  0  0  0
  -28.3400  -26.5570   20.2250 O   0  0  0  0  0  0  0  0  0  0  0  0
  -24.5990  -31.9770   23.3350 C   0  0  0  0  0  0  0  0  0  0  0  0
  -27.1970  -27.3730   20.3030 C   0  0  0  0  0  0  0  0  0  0  0  0
  -23.3940  -30.5760   21.6960 C   0  0  0  0  0  3  0  0  0  0  0  0
  -24.8400  -29.0020   20.2850 C   0  0  0  0  0  0  0  0  0  0  0  0
  -25.9370  -30.8710   21.5250 C   0  0  0  0  0  2  0  0  0  0  0  0
  -26.0080  -29.4830   20.8960 C   0  0  0  0  0  0  0  0  0  0  0  0
  -27.1870  -28.6740   20.9030 C   0  0  0  0  0  3  0  0  0  0  0  0
  -26.0200  -26.9590   19.6500 C   0  0  0  0  0  3  0  0  0  0  0  0
  -24.8460  -27.7430   19.6610 C   0  0  0  0  0  3  0  0  0  0  0  0
  -23.6120  -29.8910   20.3200 C   0  0  0  0  0  2  0  0  0  0  0  0
  -24.6630  -31.1590   22.2430 N   0  0  0  0  0  0  0  0  0  0  0  0
  -23.5160  -32.2640   23.8630 O   0  0  0  0  0  0  0  0  0  0  0  0
  -22.7220  -29.5650   22.6560 C   0  0  0  0  0  0  0  0  0  0  0  0
  -21.3980  -29.3930   22.5190 N   0  0  0  0  0  0  0  0  0  0  0  0
  -23.3970  -28.9280   23.4730 O   0  0  0  0  0  0  0  0  0  0  0  0
  -20.9150  -29.9580   21.8350 H   0  0  0  0  0  0  0  0  0  0  0  0
  -18.0180  -28.1720   22.9690 C   0  0  0  0  0  0  0  0  0  0  0  0
  -20.5700  -28.4580   23.2820 C   0  0  0  0  0  3  0  0  0  0  0  0
  -20.6920  -27.0190   22.7280 C   0  0  0  0  0  2  0  0  0  0  0  0
  -19.6110  -26.6730   21.6990 C   0  0  0  0  0  2  0  0  0  0  0  0
  -18.2170  -26.8140   22.3160 C   0  0  0  0  0  2  0  0  0  0  0  0
  -19.1230  -28.9500   23.4060 C   0  0  0  0  0  0  0  0  0  0  0  0
  -18.8820  -30.2190   23.9730 C   0  0  0  0  0  3  0  0  0  0  0  0
  -17.5700  -30.7120   24.1080 C   0  0  0  0  0  3  0  0  0  0  0  0
  -16.4800  -29.9330   23.6850 C   0  0  0  0  0  3  0  0  0  0  0  0
  -16.7050  -28.6640   23.1220 C   0  0  0  0  0  3  0  0  0  0  0  0
  -25.8830  -32.6030   23.9590 C   0  0  0  0  0  3  0  0  0  0  0  0
  -26.3740  -31.8500   25.2570 C   0  0  1  0  0  0  0  0  0  0  0  0
  -25.2620  -31.6320   26.3120 C   0  0  0  0  0  1  0  0  0  0  0  0
  -26.9570  -30.4640   24.8980 C   0  0  0  0  0  1  0  0  0  0  0  0
  -27.5170  -32.6500   25.9240 C   0  0  0  0  0  1  0  0  0  0  0  0
  -25.5900  -34.0120   24.2590 N   0  0  0  0  0  0  0  0  0  0  0  0
  -25.9380  -35.0450   23.4790 C   0  0  0  0  0  0  0  0  0  0  0  0
  -26.6090  -34.9110   22.4530 O   0  0  0  0  0  0  0  0  0  0  0  0
  -24.9970  -34.1900   25.0550 H   0  0  0  0  0  0  0  0  0  0  0  0
  -24.2270  -36.8510   23.0970 C   0  0  0  0  0  1  0  0  0  0  0  0
  -25.4710  -36.4500   23.9060 C   0  0  0  0  0  3  0  0  0  0  0  0
  -27.6210  -37.3310   24.6990 C   0  0  0  0  0  1  0  0  0  0  0  0
  -26.5140  -37.4890   23.7590 N   0  0  0  0  0  0  0  0  0  0  0  0
  -26.1180  -38.4160   23.8910 H   0  0  0  0  0  0  0  0  0  0  0  0
  -27.6020  -25.0840   22.0850 C   0  0  0  0  0  2  0  0  0  0  0  0
  -26.0790  -24.8570   21.9910 C   0  0  0  0  0  2  0  0  0  0  0  0
  -25.3340  -25.4660   23.1970 C   0  0  0  0  0  2  0  0  0  0  0  0
  -23.8670  -25.3540   23.0810 N   0  0  0  0  0  4  0  0  0  0  0  0
  -23.5280  -25.8820   22.2950 H   0  0  0  0  0  0  0  0  0  0  0  0
  -23.4330  -25.7300   23.9060 H   0  0  0  0  0  0  0  0  0  0  0  0
  -23.5780  -24.3950   22.9920 H   0  0  0  0  0  0  0  0  0  0  0  0
  -28.3130  -22.4120   20.2860 C   0  0  0  0  0  3  0  0  0  0  0  0
  -27.2610  -21.6690   19.4070 C   0  0  0  0  0  2  0  0  0  0  0  0
  -25.8650  -22.1060   19.5920 N   0  0  0  0  0  4  0  0  0  0  0  0
  -25.5870  -22.0090   20.5510 H   0  0  0  0  0  0  0  0  0  0  0  0
  -25.2620  -21.5120   19.0480 H   0  0  0  0  0  0  0  0  0  0  0  0
  -25.7140  -23.0460   19.2770 H   0  0  0  0  0  0  0  0  0  0  0  0
  -29.6000  -21.4350   20.2560 C   0  0  0  0  0  2  0  0  0  0  0  0
  -29.6540  -20.0190   21.0390 C   0  0  0  0  0  2  0  0  0  0  0  0
  -29.5460  -18.5780   20.3210 C   0  0  0  0  0  2  0  0  0  0  0  0
  -30.2500  -17.3230   21.0500 C   0  0  0  0  0  2  0  0  0  0  0  0
  -30.6060  -14.7890   20.4510 C   0  0  0  0  0  0  0  0  0  0  0  0
  -30.4010  -12.5540   19.3630 C   0  0  0  0  0  2  0  0  0  0  0  0
  -29.4580  -12.6570   18.1450 C   0  0  0  0  0  2  0  0  0  0  0  0
  -27.9890  -12.4790   18.5760 C   0  0  0  0  0  2  0  0  0  0  0  0
  -27.6190  -13.3400   19.8110 C   0  0  0  0  0  3  0  0  0  0  0  0
  -28.6760  -13.2140   20.9290 C   0  0  0  0  0  2  0  0  0  0  0  0
  -29.9740  -13.5740   20.3430 N   0  0  0  0  0  0  0  0  0  0  0  0
  -31.7900  -14.9110   20.1300 O   0  0  0  0  0  0  0  0  0  0  0  0
  -29.8320  -15.8940   20.7450 N   0  0  0  0  0  0  0  0  0  0  0  0
  -28.8580  -15.6860   20.9090 H   0  0  0  0  0  0  0  0  0  0  0  0
  -25.2180  -13.9140   20.5160 C   0  0  0  0  0  0  0  0  0  0  0  0
  -24.1570  -13.1320   20.8790 C   0  0  0  0  0  0  0  0  0  0  0  0
  -24.6330  -11.7850   20.8580 C   0  0  0  0  0  0  0  0  0  0  0  0
  -26.2730  -13.0440   20.2920 N   0  0  0  0  0  0  0  0  0  0  0  0
  -25.9260  -11.7580   20.5610 N   0  0  0  0  0  0  0  0  0  0  0  0
  -23.9180  -10.5170   21.0450 C   0  0  0  0  0  0  0  0  0  0  0  0
  -24.3600   -9.5480   21.9740 C   0  0  0  0  0  3  0  0  0  0  0  0
  -23.6430   -8.3450   22.1480 C   0  0  0  0  0  3  0  0  0  0  0  0
  -22.4710   -8.1020   21.3940 C   0  0  0  0  0  0  0  0  0  0  0  0
  -22.0490   -9.0580   20.4550 C   0  0  0  0  0  3  0  0  0  0  0  0
  -22.7650  -10.2540   20.2790 C   0  0  0  0  0  3  0  0  0  0  0  0
  -21.7250   -6.9510   21.4790 O   0  0  0  0  0  0  0  0  0  0  0  0
  -21.6880   -6.1990   22.6260 C   0  0  0  0  0  0  0  0  0  0  0  0
  -21.2770   -6.7450   23.8620 C   0  0  0  0  0  3  0  0  0  0  0  0
  -21.1890   -5.9210   25.0010 C   0  0  0  0  0  3  0  0  0  0  0  0
  -21.5000   -4.5510   24.9070 C   0  0  0  0  0  0  0  0  0  0  0  0
  -21.9040   -4.0050   23.6750 C   0  0  0  0  0  3  0  0  0  0  0  0
  -21.9950   -4.8270   22.5380 C   0  0  0  0  0  0  0  0  0  0  0  0
  -22.3640   -4.2910   21.3500 F   0  0  0  0  0  0  0  0  0  0  0  0
  -21.4080   -3.7570   25.9990 F   0  0  0  0  0  0  0  0  0  0  0  0
  -22.7530  -13.5970   21.1360 C   0  0  0  0  0  0  0  0  0  0  0  0
  -22.0260  -12.9010   22.0030 N   0  0  0  0  0  0  0  0  0  0  0  0
  -22.3100  -14.6150   20.6050 O   0  0  0  0  0  0  0  0  0  0  0  0
  -22.3980  -12.0780   22.4510 H   0  0  0  0  0  0  0  0  0  0  0  0
  -21.0860  -13.1990   22.2220 H   0  0  0  0  0  0  0  0  0  0  0  0
  -25.3700  -15.2860   20.3350 N   0  0  0  0  0  0  0  0  0  0  0  0
  -24.5920  -15.9280   20.4360 H   0  0  0  0  0  0  0  0  0  0  0  0
  -26.2080  -15.7310   19.9830 H   0  0  0  0  0  0  0  0  0  0  0  0
  -29.6670  -24.2390   18.9010 C   0  0  0  0  0  2  0  0  0  0  0  0
  -29.4330  -23.9120   17.4120 C   0  0  0  0  0  2  0  0  0  0  0  0
  -30.5150  -23.0080   16.7910 C   0  0  0  0  0  2  0  0  0  0  0  0
  -30.4970  -22.9940   15.2500 C   0  0  0  0  0  2  0  0  0  0  0  0
  -31.1010  -24.2080   14.6720 N   0  0  0  0  0  4  0  0  0  0  0  0
  -30.6420  -25.0360   15.0050 H   0  0  0  0  0  0  0  0  0  0  0  0
  -31.0160  -24.1830   13.6720 H   0  0  0  0  0  0  0  0  0  0  0  0
  -32.0770  -24.2620   14.9010 H   0  0  0  0  0  0  0  0  0  0  0  0
  1 99  1  0
  1 51  1  0
  1  2  1  0
  2 44  1  0
  3  5  1  0
  3  2  1  0
  4 15  2  0
  5 10  1  0
  6 14  1  0
  6 16  1  0
  7 13  1  0
  7  9  1  0
  8 14  1  0
  9 10  2  0
  9  8  1  0
 11 12  1  0
 11  5  2  0
 12  7  2  0
 13  6  1  0
 14  4  1  0
 16 18  2  0
 17 16  1  0
 19 17  1  0
 20 29  2  0
 20 25  1  0
 21 17  1  0
 21 25  1  0
 22 21  1  0
 23 24  1  0
 23 22  1  0
 24 20  1  0
 25 26  2  0
 26 27  1  0
 28 27  2  0
 29 28  1  0
 30  4  1  0
 30 35  1  0
 30 31  1  0
 31 34  1  1
 31 32  1  0
 33 31  1  0
 35 38  1  0
 36 40  1  0
 36 35  1  0
 37 36  2  0
 40 39  1  0
 42 43  1  0
 42 40  1  0
 42 41  1  0
 45 44  1  0
 45 46  1  0
 47 46  1  0
 47 49  1  0
 48 47  1  0
 50 47  1  0
 51 52  1  0
 52 53  1  0
 53 54  1  0
 55 53  1  0
 56 53  1  0
 57 51  1  0
 57 58  1  0
 59 58  1  0
 59 60  1  0
 61 69  1  0
 62 67  1  0
 63 64  1  0
 63 62  1  0
 65 64  1  0
 65 74  1  0
 65 66  1  0
 67 61  1  0
 67 66  1  0
 68 61  2  0
 69 70  1  0
 69 60  1  0
 71 72  2  0
 72 91  1  0
 73 72  1  0
 73 76  1  0
 74 71  1  0
 74 75  1  0
 75 73  2  0
 76 77  1  0
 77 78  2  0
 79 82  1  0
 79 78  1  0
 80 79  2  0
 81 80  1  0
 81 76  2  0
 82 83  1  0
 83 84  1  0
 84 85  2  0
 86 85  1  0
 86 90  1  0
 87 86  2  0
 88 83  2  0
 88 87  1  0
 89 88  1  0
 91 92  1  0
 92 95  1  0
 92 94  1  0
 93 91  2  0
 96 97  1  0
 96 71  1  0
 98 96  1  0
100 99  1  0
101100  1  0
102101  1  0
103106  1  0
103104  1  0
103102  1  0
105103  1  0
M  ISO  4   2 101   3 101  61 100  69 100
M  END
>  <TORSDO>  (1) 
F 33

>  <SCORE>  (1) 
-10.770

>  <name>  (1) 
0

>  <ligand_id>  (1) 
0

>  <original_smiles>  (1) 
[H]c1c([H])c([H])c2c(c1[H])C([H])([H])C([H])([H])C([H])([H])C2([H])N([H])C(=O)C1([H])N(C(=O)C([H])(N([H])C(=O)C([H])(N([H])C([H])([H])[H])C([H])([H])[H])C(C([H])([H])[H])(C([H])([H])[H])C([H])([H])[H])C([H])([H])c2c([H])c(ON(C([H])([H])C([H])([H])C([H])([H])[N+]([H])([H])[H])C([H])(C([H])([H])C([H])([H])C([H])([H])C([H])([H])[N+]([H])([H])[H])C([H])(C([H])([H])C([H])([H])C([H])([H])C([H])([H])N([H])C(=O)N3C([H])([H])C([H])([H])C([H])([H])C([H])(n4nc(-c5c([H])c([H])c(Oc6c([H])c([H])c(F)c([H])c6F)c([H])c5[H])c(C(=O)N([H])[H])c4N([H])[H])C3([H])[H])C([H])([H])[N+]([H])([H])[H])c([H])c([H])c2C1([H])[H]

>  <smiles>  (1) 
[H]c1c([H])c([H])c2c(c1[H])C([H])([H])C([H])([H])C([H])([H])C2([H])N([H])C(=O)C1([H])N(C(=O)C([H])(N([H])C(=O)C([H])(N([H])C([H])([H])[H])C([H])([H])[H])C(C([H])([H])[H])(C([H])([H])[H])C([H])([H])[H])C([H])([H])c2c([H])c(ON(C([H])([H])C([H])([H])C([H])([H])[N+]([H])([H])[H])C([H])(C([H])([H])C([H])([H])C([H])([H])C([H])([H])[N+]([H])([H])[H])C([H])(C([H])([H])C([H])([H])C([H])([H])C([H])([H])N([H])C(=O)N3C([H])([H])C([H])([H])C([H])([H])C([H])(n4nc(-c5c([H])c([H])c(Oc6c([H])c([H])c(F)c([H])c6F)c([H])c5[H])c(C(=O)N([H])[H])c4N([H])[H])C3([H])[H])C([H])([H])[N+]([H])([H])[H])c([H])c([H])c2C1([H])[H]

$$$$
1:0:0
     RDKit          3D

 97105  0  0  1  0  0  0  0  0999 V2000
  -29.5650  -22.8480   19.5950 N   0  0  0  0  0  0  0  0  0  0  0  0
  -29.2600  -21.8700   20.6710 C   0  0  0  0  0  2  0  0  0  0  0  0
  -32.5200  -21.4090   19.8070 C   0  0  0  0  0  2  0  0  0  0  0  0
  -31.9150  -20.6430   18.6240 C   0  0  0  0  0  2  0  0  0  0  0  0
  -31.7570  -21.1430   21.1200 C   0  0  0  0  0  2  0  0  0  0  0  0
  -31.2840  -19.3180   19.0560 C   0  0  0  0  0  2  0  0  0  0  0  0
  -30.2870  -20.6860   20.9320 C   0  0  0  0  0  3  0  0  0  0  0  0
  -30.1760  -19.4510   20.0560 N   0  0  2  0  0  4  0  0  0  0  0  0
  -29.3290  -19.5820   19.5240 H   0  0  0  0  0  0  0  0  0  0  0  0
  -29.9810  -18.1560   20.8200 C   0  0  0  0  0  3  0  0  0  0  0  0
  -29.9300  -16.8600   19.9320 C   0  0  0  0  0  3  0  0  0  0  0  0
  -30.6430  -14.4930   20.2920 C   0  0  0  0  0  0  0  0  0  0  0  0
  -30.3340  -12.3290   19.1590 C   0  0  0  0  0  2  0  0  0  0  0  0
  -29.3860  -12.5910   17.9710 C   0  0  0  0  0  2  0  0  0  0  0  0
  -27.9160  -12.4580   18.4140 C   0  0  0  0  0  2  0  0  0  0  0  0
  -27.6040  -13.2530   19.7120 C   0  0  0  0  0  3  0  0  0  0  0  0
  -28.6770  -12.9990   20.7970 C   0  0  0  0  0  2  0  0  0  0  0  0
  -29.9920  -13.3010   20.2120 N   0  0  0  0  0  0  0  0  0  0  0  0
  -31.7770  -14.6650   19.8400 O   0  0  0  0  0  0  0  0  0  0  0  0
  -29.8630  -15.5480   20.6270 N   0  0  0  0  0  0  0  0  0  0  0  0
  -28.9810  -15.3060   21.0530 H   0  0  0  0  0  0  0  0  0  0  0  0
  -25.2090  -13.8430   20.4480 C   0  0  0  0  0  0  0  0  0  0  0  0
  -24.1520  -13.0650   20.8340 C   0  0  0  0  0  0  0  0  0  0  0  0
  -24.6200  -11.7150   20.7990 C   0  0  0  0  0  0  0  0  0  0  0  0
  -26.2570  -12.9670   20.2050 N   0  0  0  0  0  0  0  0  0  0  0  0
  -25.9080  -11.6850   20.4770 N   0  0  0  0  0  0  0  0  0  0  0  0
  -23.9040  -10.4480   20.9960 C   0  0  0  0  0  0  0  0  0  0  0  0
  -24.3550   -9.4850   21.9260 C   0  0  0  0  0  3  0  0  0  0  0  0
  -23.6360   -8.2850   22.1140 C   0  0  0  0  0  3  0  0  0  0  0  0
  -22.4550   -8.0390   21.3760 C   0  0  0  0  0  0  0  0  0  0  0  0
  -22.0250   -8.9910   20.4330 C   0  0  0  0  0  3  0  0  0  0  0  0
  -22.7450  -10.1820   20.2410 C   0  0  0  0  0  3  0  0  0  0  0  0
  -21.7090   -6.8890   21.4720 O   0  0  0  0  0  0  0  0  0  0  0  0
  -21.6810   -6.1430   22.6220 C   0  0  0  0  0  0  0  0  0  0  0  0
  -21.2700   -6.6920   23.8570 C   0  0  0  0  0  3  0  0  0  0  0  0
  -21.1930   -5.8730   25.0010 C   0  0  0  0  0  3  0  0  0  0  0  0
  -21.5160   -4.5050   24.9120 C   0  0  0  0  0  0  0  0  0  0  0  0
  -21.9210   -3.9560   23.6820 C   0  0  0  0  0  3  0  0  0  0  0  0
  -22.0020   -4.7730   22.5410 C   0  0  0  0  0  0  0  0  0  0  0  0
  -22.3700   -4.2330   21.3530 F   0  0  0  0  0  0  0  0  0  0  0  0
  -21.4330   -3.7160   26.0080 F   0  0  0  0  0  0  0  0  0  0  0  0
  -22.7550  -13.5320   21.1250 C   0  0  0  0  0  0  0  0  0  0  0  0
  -22.0440  -12.8310   22.0010 N   0  0  0  0  0  0  0  0  0  0  0  0
  -22.3050  -14.5550   20.6110 O   0  0  0  0  0  0  0  0  0  0  0  0
  -22.4240  -12.0040   22.4350 H   0  0  0  0  0  0  0  0  0  0  0  0
  -21.1080  -13.1270   22.2370 H   0  0  0  0  0  0  0  0  0  0  0  0
  -25.3620  -15.2150   20.2620 N   0  0  0  0  0  0  0  0  0  0  0  0
  -24.5850  -15.8590   20.3510 H   0  0  0  0  0  0  0  0  0  0  0  0
  -26.1870  -15.6480   19.8660 H   0  0  0  0  0  0  0  0  0  0  0  0
  -29.5830  -24.2970   19.9840 C   0  0  0  0  0  3  0  0  0  0  0  0
  -28.2370  -25.1080   20.0310 C   0  0  0  0  0  3  0  0  0  0  0  0
  -28.3710  -26.5580   20.2260 O   0  0  0  0  0  0  0  0  0  0  0  0
  -24.5940  -31.9020   23.2490 C   0  0  0  0  0  0  0  0  0  0  0  0
  -27.2190  -27.3500   20.2100 C   0  0  0  0  0  0  0  0  0  0  0  0
  -23.3950  -30.4940   21.6120 C   0  0  0  0  0  3  0  0  0  0  0  0
  -24.8440  -28.9380   20.2030 C   0  0  0  0  0  0  0  0  0  0  0  0
  -25.9310  -30.8160   21.4320 C   0  0  0  0  0  2  0  0  0  0  0  0
  -26.0110  -29.4350   20.7950 C   0  0  0  0  0  0  0  0  0  0  0  0
  -27.2000  -28.6530   20.7920 C   0  0  0  0  0  3  0  0  0  0  0  0
  -26.0180  -26.8910   19.6170 C   0  0  0  0  0  3  0  0  0  0  0  0
  -24.8470  -27.6680   19.6110 C   0  0  0  0  0  3  0  0  0  0  0  0
  -23.6120  -29.8150   20.2360 C   0  0  0  0  0  2  0  0  0  0  0  0
  -24.6600  -31.0860   22.1550 N   0  0  0  0  0  0  0  0  0  0  0  0
  -23.5090  -32.1830   23.7770 O   0  0  0  0  0  0  0  0  0  0  0  0
  -22.7290  -29.4800   22.5740 C   0  0  0  0  0  0  0  0  0  0  0  0
  -21.4020  -29.3060   22.4440 N   0  0  0  0  0  0  0  0  0  0  0  0
  -23.4030  -28.8550   23.3950 O   0  0  0  0  0  0  0  0  0  0  0  0
  -20.9140  -29.8690   21.7610 H   0  0  0  0  0  0  0  0  0  0  0  0
  -18.0190  -28.1290   22.9440 C   0  0  0  0  0  0  0  0  0  0  0  0
  -20.5790  -28.3760   23.2170 C   0  0  0  0  0  3  0  0  0  0  0  0
  -20.6750  -26.9400   22.6490 C   0  0  0  0  0  2  0  0  0  0  0  0
  -19.5730  -26.6190   21.6340 C   0  0  0  0  0  2  0  0  0  0  0  0
  -18.1910  -26.7760   22.2730 C   0  0  0  0  0  2  0  0  0  0  0  0
  -19.1420  -28.8870   23.3720 C   0  0  0  0  0  0  0  0  0  0  0  0
  -18.9290  -30.1560   23.9560 C   0  0  0  0  0  3  0  0  0  0  0  0
  -17.6260  -30.6620   24.1200 C   0  0  0  0  0  3  0  0  0  0  0  0
  -16.5190  -29.9020   23.7070 C   0  0  0  0  0  3  0  0  0  0  0  0
  -16.7160  -28.6360   23.1250 C   0  0  0  0  0  3  0  0  0  0  0  0
  -25.8770  -32.5350   23.8710 C   0  0  0  0  0  3  0  0  0  0  0  0
  -26.3830  -31.7760   25.1580 C   0  0  1  0  0  0  0  0  0  0  0  0
  -25.2850  -31.5520   26.2240 C   0  0  0  0  0  1  0  0  0  0  0  0
  -26.9660  -30.3940   24.7830 C   0  0  0  0  0  1  0  0  0  0  0  0
  -27.5340  -32.5710   25.8180 C   0  0  0  0  0  1  0  0  0  0  0  0
  -25.5730  -33.9380   24.1850 N   0  0  0  0  0  0  0  0  0  0  0  0
  -25.9060  -34.9800   23.4120 C   0  0  0  0  0  0  0  0  0  0  0  0
  -26.5770  -34.8640   22.3820 O   0  0  0  0  0  0  0  0  0  0  0  0
  -24.9880  -34.1050   24.9900 H   0  0  0  0  0  0  0  0  0  0  0  0
  -24.1860  -36.7770   23.0300 C   0  0  0  0  0  1  0  0  0  0  0  0
  -25.4220  -36.3760   23.8530 C   0  0  0  0  0  3  0  0  0  0  0  0
  -27.5550  -37.2630   24.6860 C   0  0  0  0  0  1  0  0  0  0  0  0
  -26.4580  -37.4240   23.7350 N   0  0  0  0  0  0  0  0  0  0  0  0
  -26.0550  -38.3470   23.8730 H   0  0  0  0  0  0  0  0  0  0  0  0
  -28.8400  -22.5060   18.3590 C   0  0  0  0  0  2  0  0  0  0  0  0
  -29.4900  -22.9930   17.0420 C   0  0  0  0  0  2  0  0  0  0  0  0
  -29.0840  -24.4030   16.5990 C   0  0  0  0  0  2  0  0  0  0  0  0
  -29.2490  -26.1990   14.8200 C   0  0  0  0  0  1  0  0  0  0  0  0
  -29.5340  -24.7330   15.1690 C   0  0  0  0  0  2  0  0  0  0  0  0
  1 50  1  0
  1  2  1  0
  3  5  1  0
  4  6  1  0
  4  3  1  0
  6  8  1  0
  7  2  1  0
  7  5  1  0
  8 10  1  0
  8  7  1  0
  8  9  1  6
 11 20  1  0
 11 10  2  0
 12 20  1  0
 13 18  1  0
 14 15  1  0
 14 13  1  0
 16 15  1  0
 16 25  1  0
 16 17  1  0
 18 12  1  0
 18 17  1  0
 19 12  2  0
 20 21  1  0
 22 23  2  0
 23 42  1  0
 24 23  1  0
 24 27  1  0
 25 22  1  0
 25 26  1  0
 26 24  2  0
 27 28  1  0
 28 29  2  0
 30 33  1  0
 30 29  1  0
 31 30  2  0
 32 31  1  0
 32 27  2  0
 33 34  1  0
 34 35  1  0
 35 36  2  0
 37 36  1  0
 37 41  1  0
 38 37  2  0
 39 34  2  0
 39 38  1  0
 40 39  1  0
 42 43  1  0
 43 46  1  0
 43 45  1  0
 44 42  2  0
 47 48  1  0
 47 22  1  0
 49 47  1  0
 50 51  2  0
 51 52  1  0
 53 64  2  0
 54 52  1  0
 54 59  1  0
 55 63  1  0
 55 65  1  0
 56 62  1  0
 56 58  1  0
 57 63  1  0
 58 57  1  0
 59 58  2  0
 60 54  2  0
 61 60  1  0
 61 56  2  0
 62 55  1  0
 63 53  1  0
 65 67  2  0
 66 65  1  0
 68 66  1  0
 69 78  2  0
 69 74  1  0
 70 66  1  0
 70 74  1  0
 71 70  1  0
 72 73  1  0
 72 71  1  0
 73 69  1  0
 74 75  2  0
 75 76  1  0
 77 76  2  0
 78 77  1  0
 79 53  1  0
 79 84  1  0
 79 80  1  0
 80 83  1  1
 80 81  1  0
 82 80  1  0
 84 87  1  0
 85 89  1  0
 85 84  1  0
 86 85  2  0
 89 88  1  0
 91 89  1  0
 91 92  1  0
 91 90  1  0
 93  1  1  0
 94 93  1  0
 95 94  1  0
 96 97  1  0
 97 95  1  0
M  ISO  4  12 100  20 100  51 101  52 101
M  END
>  <TORSDO>  (2) 
F 26

>  <SCORE>  (2) 
-12.076

>  <name>  (2) 
1

>  <ligand_id>  (2) 
1

>  <original_smiles>  (2) 
[H]c1c([H])c([H])c2c(c1[H])C([H])([H])C([H])([H])C([H])([H])C2([H])N([H])C(=O)C1([H])N(C(=O)C([H])(N([H])C(=O)C([H])(N([H])C([H])([H])[H])C([H])([H])[H])C(C([H])([H])[H])(C([H])([H])[H])C([H])([H])[H])C([H])([H])c2c([H])c(OC([H])([H])C([H])([H])N(C([H])([H])C([H])([H])C([H])([H])C([H])([H])C([H])([H])[H])C([H])([H])C3([H])C([H])([H])C([H])([H])C([H])([H])C([H])([H])[N+]3([H])C([H])([H])C([H])([H])N([H])C(=O)N3C([H])([H])C([H])([H])C([H])([H])C([H])(n4nc(-c5c([H])c([H])c(Oc6c([H])c([H])c(F)c([H])c6F)c([H])c5[H])c(C(=O)N([H])[H])c4N([H])[H])C3([H])[H])c([H])c([H])c2C1([H])[H]

>  <smiles>  (2) 
[H]c1c([H])c([H])c2c(c1[H])C([H])([H])C([H])([H])C([H])([H])C2([H])N([H])C(=O)C1([H])N(C(=O)C([H])(N([H])C(=O)C([H])(N([H])C([H])([H])[H])C([H])([H])[H])C(C([H])([H])[H])(C([H])([H])[H])C([H])([H])[H])C([H])([H])c2c([H])c(OC([H])([H])C([H])([H])N(C([H])([H])C([H])([H])C([H])([H])C([H])([H])C([H])([H])[H])C([H])([H])C3([H])C([H])([H])C([H])([H])C([H])([H])C([H])([H])[N+]3([H])C([H])([H])C([H])([H])N([H])C(=O)N3C([H])([H])C([H])([H])C([H])([H])C([H])(n4nc(-c5c([H])c([H])c(Oc6c([H])c([H])c(F)c([H])c6F)c([H])c5[H])c(C(=O)N([H])[H])c4N([H])[H])C3([H])[H])c([H])c([H])c2C1([H])[H]

$$$$
2:0:0
     RDKit          3D

 97105  0  0  1  0  0  0  0  0999 V2000
  -29.9610  -21.7830   23.8430 C   0  0  0  0  0  2  0  0  0  0  0  0
  -28.7010  -22.2200   23.0600 C   0  0  0  0  0  2  0  0  0  0  0  0
  -29.6330  -21.7310   20.7260 C   0  0  0  0  0  2  0  0  0  0  0  0
  -30.5070  -20.3580   23.5450 C   0  0  0  0  0  2  0  0  0  0  0  0
  -30.9860  -21.1350   21.1600 C   0  0  0  0  0  2  0  0  0  0  0  0
  -29.0900  -22.8080   21.6800 C   0  0  0  0  0  3  0  0  0  0  0  0
  -30.8130  -20.0120   22.1190 N   0  0  1  0  0  4  0  0  0  0  0  0
  -29.9790  -19.5590   21.7850 H   0  0  0  0  0  0  0  0  0  0  0  0
  -28.0240  -23.6130   21.0150 N   0  0  1  0  0  4  0  0  0  0  0  0
  -28.2400  -23.4910   20.0370 H   0  0  0  0  0  0  0  0  0  0  0  0
  -25.9510  -23.2840   19.7350 C   0  0  0  0  0  1  0  0  0  0  0  0
  -26.6360  -23.0970   21.0940 C   0  0  0  0  0  2  0  0  0  0  0  0
  -28.1340  -25.0820   21.2250 C   0  0  0  0  0  2  0  0  0  0  0  0
  -28.7580  -25.7880   19.9870 C   0  0  0  0  0  2  0  0  0  0  0  0
  -28.6050  -27.2050   20.0530 O   0  0  0  0  0  0  0  0  0  0  0  0
  -24.6830  -31.9300   23.4900 C   0  0  0  0  0  0  0  0  0  0  0  0
  -27.3630  -27.8120   20.0740 C   0  0  0  0  0  0  0  0  0  0  0  0
  -23.4410  -30.6210   21.7870 C   0  0  0  0  0  3  0  0  0  0  0  0
  -24.8910  -29.2050   20.2240 C   0  0  0  0  0  0  0  0  0  0  0  0
  -25.9320  -31.0880   21.5040 C   0  0  0  0  0  2  0  0  0  0  0  0
  -26.0480  -29.7590   20.7890 C   0  0  0  0  0  0  0  0  0  0  0  0
  -27.2730  -29.0770   20.7000 C   0  0  0  0  0  3  0  0  0  0  0  0
  -26.1870  -27.2600   19.5150 C   0  0  0  0  0  3  0  0  0  0  0  0
  -24.9590  -27.9530   19.5780 C   0  0  0  0  0  3  0  0  0  0  0  0
  -23.6140  -30.0140   20.3660 C   0  0  0  0  0  2  0  0  0  0  0  0
  -24.7080  -31.2190   22.3250 N   0  0  0  0  0  0  0  0  0  0  0  0
  -23.6210  -32.1310   24.0930 O   0  0  0  0  0  0  0  0  0  0  0  0
  -22.8400  -29.5340   22.7070 C   0  0  0  0  0  0  0  0  0  0  0  0
  -21.5420  -29.2370   22.5190 N   0  0  0  0  0  0  0  0  0  0  0  0
  -23.5450  -28.9510   23.5360 O   0  0  0  0  0  0  0  0  0  0  0  0
  -21.0270  -29.7580   21.8210 H   0  0  0  0  0  0  0  0  0  0  0  0
  -18.3200  -27.6230   22.7180 C   0  0  0  0  0  0  0  0  0  0  0  0
  -20.7830  -28.2120   23.2400 C   0  0  0  0  0  3  0  0  0  0  0  0
  -21.1250  -26.8000   22.7140 C   0  0  0  0  0  2  0  0  0  0  0  0
  -20.1800  -26.3230   21.6080 C   0  0  0  0  0  2  0  0  0  0  0  0
  -18.7330  -26.3000   22.1010 C   0  0  0  0  0  2  0  0  0  0  0  0
  -19.2850  -28.5250   23.2410 C   0  0  0  0  0  0  0  0  0  0  0  0
  -18.8480  -29.7560   23.7760 C   0  0  0  0  0  3  0  0  0  0  0  0
  -17.4780  -30.0900   23.8010 C   0  0  0  0  0  3  0  0  0  0  0  0
  -16.5250  -29.1810   23.3040 C   0  0  0  0  0  3  0  0  0  0  0  0
  -16.9490  -27.9530   22.7640 C   0  0  0  0  0  3  0  0  0  0  0  0
  -25.9770  -32.5510   24.1060 C   0  0  0  0  0  3  0  0  0  0  0  0
  -25.6830  -33.9480   24.4460 N   0  0  0  0  0  0  0  0  0  0  0  0
  -26.0330  -35.0050   23.7010 C   0  0  0  0  0  0  0  0  0  0  0  0
  -26.7020  -34.8990   22.6670 O   0  0  0  0  0  0  0  0  0  0  0  0
  -25.0920  -34.0950   25.2480 H   0  0  0  0  0  0  0  0  0  0  0  0
  -24.3220  -36.8180   23.3620 C   0  0  0  0  0  1  0  0  0  0  0  0
  -25.5600  -36.3960   24.1720 C   0  0  0  0  0  3  0  0  0  0  0  0
  -27.7070  -37.2440   25.0030 C   0  0  0  0  0  1  0  0  0  0  0  0
  -26.6020  -37.4400   24.0690 N   0  0  0  0  0  0  0  0  0  0  0  0
  -26.2090  -38.3640   24.2270 H   0  0  0  0  0  0  0  0  0  0  0  0
  -26.4890  -31.7650   25.3730 C   0  0  1  0  0  0  0  0  0  0  0  0
  -25.3840  -31.5010   26.4230 C   0  0  0  0  0  1  0  0  0  0  0  0
  -27.0880  -30.4010   24.9610 C   0  0  0  0  0  1  0  0  0  0  0  0
  -27.6290  -32.5540   26.0580 C   0  0  0  0  0  1  0  0  0  0  0  0
  -31.8220  -18.9280   21.9730 C   0  0  0  0  0  2  0  0  0  0  0  0
  -31.0910  -17.5790   21.8120 C   0  0  0  0  0  2  0  0  0  0  0  0
  -31.9710  -16.4050   21.3520 C   0  0  0  0  0  2  0  0  0  0  0  0
  -31.3890  -15.0260   21.7380 C   0  0  0  0  0  2  0  0  0  0  0  0
  -30.0990  -14.2450   19.7620 C   0  0  0  0  0  0  0  0  0  0  0  0
  -29.5290  -12.2420   18.4440 C   0  0  0  0  0  2  0  0  0  0  0  0
  -28.3900  -12.4240   17.4310 C   0  0  0  0  0  2  0  0  0  0  0  0
  -27.0410  -12.1530   18.1100 C   0  0  0  0  0  2  0  0  0  0  0  0
  -26.8660  -12.9730   19.4110 C   0  0  0  0  0  3  0  0  0  0  0  0
  -28.0950  -12.8360   20.3400 C   0  0  0  0  0  2  0  0  0  0  0  0
  -29.3120  -13.1580   19.5730 N   0  0  0  0  0  0  0  0  0  0  0  0
  -30.8810  -14.6780   18.9120 O   0  0  0  0  0  0  0  0  0  0  0  0
  -30.1590  -14.6400   21.0380 N   0  0  0  0  0  0  0  0  0  0  0  0
  -29.4250  -14.2640   21.6220 H   0  0  0  0  0  0  0  0  0  0  0  0
  -24.5970  -13.4300   20.5330 C   0  0  0  0  0  0  0  0  0  0  0  0
  -23.6400  -12.5850   21.0330 C   0  0  0  0  0  0  0  0  0  0  0  0
  -24.1500  -11.2640   20.8620 C   0  0  0  0  0  0  0  0  0  0  0  0
  -25.6280  -12.6130   20.0960 N   0  0  0  0  0  0  0  0  0  0  0  0
  -25.3720  -11.3040   20.3490 N   0  0  0  0  0  0  0  0  0  0  0  0
  -23.5250   -9.9570   21.1040 C   0  0  0  0  0  0  0  0  0  0  0  0
  -24.0850   -9.0240   22.0050 C   0  0  0  0  0  3  0  0  0  0  0  0
  -23.4540   -7.7820   22.2340 C   0  0  0  0  0  3  0  0  0  0  0  0
  -22.2460   -7.4660   21.5630 C   0  0  0  0  0  0  0  0  0  0  0  0
  -21.7050   -8.3890   20.6510 C   0  0  0  0  0  3  0  0  0  0  0  0
  -22.3380   -9.6230   20.4210 C   0  0  0  0  0  3  0  0  0  0  0  0
  -21.5770   -6.2750   21.7050 O   0  0  0  0  0  0  0  0  0  0  0  0
  -21.6070   -5.5680   22.8810 C   0  0  0  0  0  0  0  0  0  0  0  0
  -21.1540   -6.1270   24.0960 C   0  0  0  0  0  3  0  0  0  0  0  0
  -21.1350   -5.3420   25.2670 C   0  0  0  0  0  3  0  0  0  0  0  0
  -21.5590   -4.0000   25.2220 C   0  0  0  0  0  0  0  0  0  0  0  0
  -22.0030   -3.4410   24.0100 C   0  0  0  0  0  3  0  0  0  0  0  0
  -22.0220   -4.2220   22.8420 C   0  0  0  0  0  0  0  0  0  0  0  0
  -22.4330   -3.6740   21.6750 F   0  0  0  0  0  0  0  0  0  0  0  0
  -21.5330   -3.2420   26.3440 F   0  0  0  0  0  0  0  0  0  0  0  0
  -22.2890  -12.9830   21.5530 C   0  0  0  0  0  0  0  0  0  0  0  0
  -21.7660  -12.2340   22.5190 N   0  0  0  0  0  0  0  0  0  0  0  0
  -21.7090  -13.9830   21.1400 O   0  0  0  0  0  0  0  0  0  0  0  0
  -22.2420  -11.4160   22.8630 H   0  0  0  0  0  0  0  0  0  0  0  0
  -20.8750  -12.4860   22.9230 H   0  0  0  0  0  0  0  0  0  0  0  0
  -24.6700  -14.8130   20.3970 N   0  0  0  0  0  0  0  0  0  0  0  0
  -23.9050  -15.4240   20.6550 H   0  0  0  0  0  0  0  0  0  0  0  0
  -25.4350  -15.2980   19.9460 H   0  0  0  0  0  0  0  0  0  0  0  0
  2  1  1  0
  3  5  1  0
  3  6  1  0
  4  1  1  0
  5  7  1  0
  6  9  1  0
  6  2  1  0
  7  4  1  0
  7  8  1  6
  9 12  1  0
  9 13  1  0
  9 10  1  6
 11 12  1  0
 14 15  1  0
 14 13  1  0
 15 17  1  0
 16 27  2  0
 17 22  1  0
 18 26  1  0
 18 28  1  0
 19 25  1  0
 19 21  1  0
 20 26  1  0
 21 20  1  0
 22 21  2  0
 23 24  1  0
 23 17  2  0
 24 19  2  0
 25 18  1  0
 26 16  1  0
 28 30  2  0
 29 28  1  0
 31 29  1  0
 32 41  2  0
 32 37  1  0
 33 29  1  0
 33 37  1  0
 34 33  1  0
 35 36  1  0
 35 34  1  0
 36 32  1  0
 37 38  2  0
 38 39  1  0
 40 39  2  0
 41 40  1  0
 42 16  1  0
 42 43  1  0
 42 52  1  0
 43 46  1  0
 44 48  1  0
 44 43  1  0
 45 44  2  0
 48 47  1  0
 50 48  1  0
 50 51  1  0
 50 49  1  0
 52 55  1  1
 52 53  1  0
 54 52  1  0
 56  7  1  0
 57 56  1  0
 58 59  1  0
 58 57  1  0
 60 68  1  0
 61 66  1  0
 62 63  1  0
 62 61  1  0
 64 63  1  0
 64 73  1  0
 64 65  1  0
 66 60  1  0
 66 65  1  0
 67 60  2  0
 68 69  1  0
 68 59  1  0
 70 71  2  0
 71 90  1  0
 72 71  1  0
 72 75  1  0
 73 74  1  0
 73 70  1  0
 74 72  2  0
 75 76  1  0
 76 77  2  0
 78 81  1  0
 78 77  1  0
 79 78  2  0
 80 79  1  0
 80 75  2  0
 81 82  1  0
 82 83  1  0
 83 84  2  0
 85 84  1  0
 85 89  1  0
 86 85  2  0
 87 82  2  0
 87 86  1  0
 88 87  1  0
 90 91  1  0
 91 93  1  0
 91 94  1  0
 92 90  2  0
 95 70  1  0
 95 96  1  0
 97 95  1  0
M  ISO  4  14 101  15 101  60 100  68 100
M  END
>  <TORSDO>  (3) 
F 24

>  <SCORE>  (3) 
-9.775

>  <name>  (3) 
2

>  <ligand_id>  (3) 
2

>  <original_smiles>  (3) 
[H]c1c([H])c([H])c2c(c1[H])C([H])([H])C([H])([H])C([H])([H])C2([H])N([H])C(=O)C1([H])N(C(=O)C([H])(N([H])C(=O)C([H])(N([H])C([H])([H])[H])C([H])([H])[H])C(C([H])([H])[H])(C([H])([H])[H])C([H])([H])[H])C([H])([H])c2c([H])c(OC([H])([H])C([H])([H])[N+]([H])(C([H])([H])C([H])([H])[H])C3([H])C([H])([H])C([H])([H])C([H])([H])[N+]([H])(C([H])([H])C([H])([H])C([H])([H])C([H])([H])N([H])C(=O)N4C([H])([H])C([H])([H])C([H])([H])C([H])(n5nc(-c6c([H])c([H])c(Oc7c([H])c([H])c(F)c([H])c7F)c([H])c6[H])c(C(=O)N([H])[H])c5N([H])[H])C4([H])[H])C([H])([H])C3([H])[H])c([H])c([H])c2C1([H])[H]

>  <smiles>  (3) 
[H]c1c([H])c([H])c2c(c1[H])C([H])([H])C([H])([H])C([H])([H])C2([H])N([H])C(=O)C1([H])N(C(=O)C([H])(N([H])C(=O)C([H])(N([H])C([H])([H])[H])C([H])([H])[H])C(C([H])([H])[H])(C([H])([H])[H])C([H])([H])[H])C([H])([H])c2c([H])c(OC([H])([H])C([H])([H])[N+]([H])(C([H])([H])C([H])([H])[H])C3([H])C([H])([H])C([H])([H])C([H])([H])[N+]([H])(C([H])([H])C([H])([H])C([H])([H])C([H])([H])N([H])C(=O)N4C([H])([H])C([H])([H])C([H])([H])C([H])(n5nc(-c6c([H])c([H])c(Oc7c([H])c([H])c(F)c([H])c7F)c([H])c6[H])c(C(=O)N([H])[H])c5N([H])[H])C4([H])[H])C([H])([H])C3([H])[H])c([H])c([H])c2C1([H])[H]

$$$$
3:0:0
     RDKit          3D

 93101  0  0  1  0  0  0  0  0999 V2000
  -29.5450  -17.4090   20.0650 C   0  0  0  0  0  0  0  0  0  0  0  0
  -29.7490  -19.6960   21.0910 C   0  0  0  0  0  2  0  0  0  0  0  0
  -28.4680  -19.3630   19.0150 C   0  0  0  0  0  2  0  0  0  0  0  0
  -30.3530  -20.9920   20.5010 C   0  0  0  0  0  2  0  0  0  0  0  0
  -29.1310  -20.6080   18.3990 C   0  0  0  0  0  2  0  0  0  0  0  0
  -29.3240  -18.7490   20.0450 N   0  0  0  0  0  0  0  0  0  0  0  0
  -29.5060  -21.5970   19.4390 N   0  0  2  0  0  4  0  0  0  0  0  0
  -29.1300  -16.6760   19.1620 O   0  0  0  0  0  0  0  0  0  0  0  0
  -28.6420  -21.8730   19.8810 H   0  0  0  0  0  0  0  0  0  0  0  0
  -30.3020  -16.7600   21.2460 C   0  0  0  0  0  2  0  0  0  0  0  0
  -30.7080  -14.4130   20.5160 C   0  0  0  0  0  0  0  0  0  0  0  0
  -30.3610  -12.3370   19.2350 C   0  0  0  0  0  2  0  0  0  0  0  0
  -29.4000  -12.6230   18.0620 C   0  0  0  0  0  2  0  0  0  0  0  0
  -27.9310  -12.4800   18.5040 C   0  0  0  0  0  2  0  0  0  0  0  0
  -27.6270  -13.2590   19.8110 C   0  0  0  0  0  3  0  0  0  0  0  0
  -28.6910  -12.9460   20.8880 C   0  0  0  0  0  2  0  0  0  0  0  0
  -30.0210  -13.2550   20.3300 N   0  0  0  0  0  0  0  0  0  0  0  0
  -31.7670  -14.6800   19.9380 O   0  0  0  0  0  0  0  0  0  0  0  0
  -30.0920  -15.3080   21.2950 N   0  0  0  0  0  0  0  0  0  0  0  0
  -29.2450  -14.9940   21.7440 H   0  0  0  0  0  0  0  0  0  0  0  0
  -25.2300  -13.8660   20.5330 C   0  0  0  0  0  0  0  0  0  0  0  0
  -24.1640  -13.0940   20.9070 C   0  0  0  0  0  0  0  0  0  0  0  0
  -24.6240  -11.7420   20.8660 C   0  0  0  0  0  0  0  0  0  0  0  0
  -26.2730  -12.9860   20.2920 N   0  0  0  0  0  0  0  0  0  0  0  0
  -25.9110  -11.7030   20.5470 N   0  0  0  0  0  0  0  0  0  0  0  0
  -23.9000  -10.4790   21.0580 C   0  0  0  0  0  0  0  0  0  0  0  0
  -24.3430   -9.5070   21.9830 C   0  0  0  0  0  3  0  0  0  0  0  0
  -23.6180   -8.3100   22.1640 C   0  0  0  0  0  3  0  0  0  0  0  0
  -22.4380   -8.0730   21.4200 C   0  0  0  0  0  0  0  0  0  0  0  0
  -22.0140   -9.0340   20.4860 C   0  0  0  0  0  3  0  0  0  0  0  0
  -22.7390  -10.2230   20.3030 C   0  0  0  0  0  3  0  0  0  0  0  0
  -21.6880   -6.9250   21.5090 O   0  0  0  0  0  0  0  0  0  0  0  0
  -21.6560   -6.1740   22.6560 C   0  0  0  0  0  0  0  0  0  0  0  0
  -21.2480   -6.7200   23.8920 C   0  0  0  0  0  3  0  0  0  0  0  0
  -21.1600   -5.8940   25.0320 C   0  0  0  0  0  3  0  0  0  0  0  0
  -21.4720   -4.5250   24.9360 C   0  0  0  0  0  0  0  0  0  0  0  0
  -21.8750   -3.9790   23.7050 C   0  0  0  0  0  3  0  0  0  0  0  0
  -21.9630   -4.8000   22.5680 C   0  0  0  0  0  0  0  0  0  0  0  0
  -22.3300   -4.2640   21.3790 F   0  0  0  0  0  0  0  0  0  0  0  0
  -21.3810   -3.7310   26.0280 F   0  0  0  0  0  0  0  0  0  0  0  0
  -22.7700  -13.5710   21.1940 C   0  0  0  0  0  0  0  0  0  0  0  0
  -22.0520  -12.8710   22.0660 N   0  0  0  0  0  0  0  0  0  0  0  0
  -22.3260  -14.5990   20.6830 O   0  0  0  0  0  0  0  0  0  0  0  0
  -22.4250  -12.0400   22.5030 H   0  0  0  0  0  0  0  0  0  0  0  0
  -21.1170  -13.1720   22.3020 H   0  0  0  0  0  0  0  0  0  0  0  0
  -25.3970  -15.2380   20.3580 N   0  0  0  0  0  0  0  0  0  0  0  0
  -24.6350  -15.8970   20.4740 H   0  0  0  0  0  0  0  0  0  0  0  0
  -26.2450  -15.6690   20.0120 H   0  0  0  0  0  0  0  0  0  0  0  0
  -30.0890  -22.8440   18.8740 C   0  0  0  0  0  2  0  0  0  0  0  0
  -29.3450  -24.1030   19.3620 C   0  0  0  0  0  2  0  0  0  0  0  0
  -30.0110  -25.4100   18.8900 C   0  0  0  0  0  2  0  0  0  0  0  0
  -29.0590  -26.6130   18.8960 C   0  0  0  0  0  2  0  0  0  0  0  0
  -28.5250  -26.8250   20.1990 O   0  0  0  0  0  0  0  0  0  0  0  0
  -24.6080  -31.9070   23.2670 C   0  0  0  0  0  0  0  0  0  0  0  0
  -27.3360  -27.5110   20.2160 C   0  0  0  0  0  0  0  0  0  0  0  0
  -23.4300  -30.4840   21.6180 C   0  0  0  0  0  3  0  0  0  0  0  0
  -24.9130  -28.9550   20.2200 C   0  0  0  0  0  0  0  0  0  0  0  0
  -25.9510  -30.8730   21.4460 C   0  0  0  0  0  2  0  0  0  0  0  0
  -26.0560  -29.5010   20.8170 C   0  0  0  0  0  0  0  0  0  0  0  0
  -27.2680  -28.7780   20.8290 C   0  0  0  0  0  3  0  0  0  0  0  0
  -26.1740  -26.9580   19.6370 C   0  0  0  0  0  3  0  0  0  0  0  0
  -24.9640  -27.6750   19.6360 C   0  0  0  0  0  3  0  0  0  0  0  0
  -23.6570  -29.7940   20.2480 C   0  0  0  0  0  2  0  0  0  0  0  0
  -24.6800  -31.1030   22.1680 N   0  0  0  0  0  0  0  0  0  0  0  0
  -23.5200  -32.1730   23.7960 O   0  0  0  0  0  0  0  0  0  0  0  0
  -22.7810  -29.4630   22.5780 C   0  0  0  0  0  0  0  0  0  0  0  0
  -21.4590  -29.2720   22.4420 N   0  0  0  0  0  0  0  0  0  0  0  0
  -23.4630  -28.8430   23.4000 O   0  0  0  0  0  0  0  0  0  0  0  0
  -20.9710  -29.8230   21.7490 H   0  0  0  0  0  0  0  0  0  0  0  0
  -18.0860  -28.0750   22.9220 C   0  0  0  0  0  0  0  0  0  0  0  0
  -20.6410  -28.3320   23.2070 C   0  0  0  0  0  3  0  0  0  0  0  0
  -20.7460  -26.9030   22.6270 C   0  0  0  0  0  2  0  0  0  0  0  0
  -19.6490  -26.5820   21.6090 C   0  0  0  0  0  2  0  0  0  0  0  0
  -18.2640  -26.7250   22.2480 C   0  0  0  0  0  2  0  0  0  0  0  0
  -19.2010  -28.8360   23.3590 C   0  0  0  0  0  0  0  0  0  0  0  0
  -18.9820  -30.0990   23.9480 C   0  0  0  0  0  3  0  0  0  0  0  0
  -17.6760  -30.6010   24.1100 C   0  0  0  0  0  3  0  0  0  0  0  0
  -16.5730  -29.8350   23.6920 C   0  0  0  0  0  3  0  0  0  0  0  0
  -16.7790  -28.5740   23.1040 C   0  0  0  0  0  3  0  0  0  0  0  0
  -25.8860  -32.5500   23.8950 C   0  0  0  0  0  3  0  0  0  0  0  0
  -25.5700  -33.9500   24.2040 N   0  0  0  0  0  0  0  0  0  0  0  0
  -25.9110  -34.9940   23.4360 C   0  0  0  0  0  0  0  0  0  0  0  0
  -26.5980  -34.8790   22.4170 O   0  0  0  0  0  0  0  0  0  0  0  0
  -24.9600  -34.1120   24.9920 H   0  0  0  0  0  0  0  0  0  0  0  0
  -24.1850  -36.7750   23.0280 C   0  0  0  0  0  1  0  0  0  0  0  0
  -25.4100  -36.3840   23.8680 C   0  0  0  0  0  3  0  0  0  0  0  0
  -27.5260  -37.2820   24.7310 C   0  0  0  0  0  1  0  0  0  0  0  0
  -26.4420  -37.4400   23.7660 N   0  0  0  0  0  0  0  0  0  0  0  0
  -26.0290  -38.3600   23.8990 H   0  0  0  0  0  0  0  0  0  0  0  0
  -26.3960  -31.7930   25.1840 C   0  0  1  0  0  0  0  0  0  0  0  0
  -25.2940  -31.5610   26.2440 C   0  0  0  0  0  1  0  0  0  0  0  0
  -26.9890  -30.4150   24.8110 C   0  0  0  0  0  1  0  0  0  0  0  0
  -27.5330  -32.6040   25.8500 C   0  0  0  0  0  1  0  0  0  0  0  0
  1 10  1  0
  3  6  1  0
  4  2  1  0
  5  3  1  0
  5  7  1  0
  6  1  1  0
  6  2  1  0
  7  9  1  1
  7  4  1  0
  8  1  2  0
 10 19  1  0
 11 19  1  0
 12 17  1  0
 13 14  1  0
 13 12  1  0
 15 14  1  0
 15 24  1  0
 15 16  1  0
 17 11  1  0
 17 16  1  0
 18 11  2  0
 19 20  1  0
 21 22  2  0
 22 41  1  0
 23 22  1  0
 23 26  1  0
 24 21  1  0
 24 25  1  0
 25 23  2  0
 26 27  1  0
 27 28  2  0
 29 32  1  0
 29 28  1  0
 30 29  2  0
 31 30  1  0
 31 26  2  0
 32 33  1  0
 33 34  1  0
 34 35  2  0
 36 35  1  0
 36 40  1  0
 37 36  2  0
 38 33  2  0
 38 37  1  0
 39 38  1  0
 41 42  1  0
 42 45  1  0
 42 44  1  0
 43 41  2  0
 46 47  1  0
 46 21  1  0
 48 46  1  0
 49 50  1  0
 49  7  1  0
 51 52  1  0
 51 50  1  0
 52 53  1  0
 53 55  1  0
 54 65  2  0
 55 60  1  0
 56 64  1  0
 56 66  1  0
 57 63  1  0
 57 59  1  0
 58 64  1  0
 59 60  2  0
 59 58  1  0
 61 55  2  0
 62 61  1  0
 62 57  2  0
 63 56  1  0
 64 54  1  0
 66 68  2  0
 67 66  1  0
 69 67  1  0
 70 79  2  0
 70 75  1  0
 71 67  1  0
 71 75  1  0
 72 71  1  0
 73 74  1  0
 73 72  1  0
 74 70  1  0
 75 76  2  0
 76 77  1  0
 78 77  2  0
 79 78  1  0
 80 54  1  0
 80 81  1  0
 80 90  1  0
 81 84  1  0
 82 86  1  0
 82 81  1  0
 83 82  2  0
 86 85  1  0
 88 86  1  0
 88 89  1  0
 88 87  1  0
 90 93  1  1
 90 91  1  0
 92 90  1  0
M  ISO  4  11 100  19 100  52 101  53 101
M  END
>  <TORSDO>  (4) 
F 21

>  <SCORE>  (4) 
-13.604

>  <name>  (4) 
3

>  <ligand_id>  (4) 
3

>  <original_smiles>  (4) 
[H]c1c([H])c([H])c2c(c1[H])C([H])([H])C([H])([H])C([H])([H])C2([H])N([H])C(=O)C1([H])N(C(=O)C([H])(N([H])C(=O)C([H])(N([H])C([H])([H])[H])C([H])([H])[H])C(C([H])([H])[H])(C([H])([H])[H])C([H])([H])[H])C([H])([H])c2c([H])c(OC([H])([H])C([H])([H])C([H])([H])C([H])([H])[N+]3([H])C([H])([H])C([H])([H])N(C(=O)C([H])([H])N([H])C(=O)N4C([H])([H])C([H])([H])C([H])([H])C([H])(n5nc(-c6c([H])c([H])c(Oc7c([H])c([H])c(F)c([H])c7F)c([H])c6[H])c(C(=O)N([H])[H])c5N([H])[H])C4([H])[H])C([H])([H])C3([H])[H])c([H])c([H])c2C1([H])[H]

>  <smiles>  (4) 
[H]c1c([H])c([H])c2c(c1[H])C([H])([H])C([H])([H])C([H])([H])C2([H])N([H])C(=O)C1([H])N(C(=O)C([H])(N([H])C(=O)C([H])(N([H])C([H])([H])[H])C([H])([H])[H])C(C([H])([H])[H])(C([H])([H])[H])C([H])([H])[H])C([H])([H])c2c([H])c(OC([H])([H])C([H])([H])C([H])([H])C([H])([H])[N+]3([H])C([H])([H])C([H])([H])N(C(=O)C([H])([H])N([H])C(=O)N4C([H])([H])C([H])([H])C([H])([H])C([H])(n5nc(-c6c([H])c([H])c(Oc7c([H])c([H])c(F)c([H])c7F)c([H])c6[H])c(C(=O)N([H])[H])c5N([H])[H])C4([H])[H])C([H])([H])C3([H])[H])c([H])c([H])c2C1([H])[H]

$$$$
4:0:0
     RDKit          3D

 96104  0  0  1  0  0  0  0  0999 V2000
  -28.4360  -22.0810   21.1100 C   0  0  0  0  0  2  0  0  0  0  0  0
  -30.2790  -21.9860   19.6180 C   0  0  0  0  0  2  0  0  0  0  0  0
  -28.3020  -20.5140   21.0360 C   0  0  0  0  0  2  0  0  0  0  0  0
  -30.1820  -20.4100   19.5420 C   0  0  0  0  0  2  0  0  0  0  0  0
  -28.9990  -22.6950   19.8890 N   0  0  0  0  0  0  0  0  0  0  0  0
  -29.6240  -19.8580   20.8050 N   0  0  2  0  0  4  0  0  0  0  0  0
  -30.2010  -20.3000   21.5010 H   0  0  0  0  0  0  0  0  0  0  0  0
  -29.2130  -24.1840   20.0260 C   0  0  0  0  0  3  0  0  0  0  0  0
  -27.9680  -25.1530   19.8540 C   0  0  0  0  0  3  0  0  0  0  0  0
  -28.1700  -26.6080   20.0320 O   0  0  0  0  0  0  0  0  0  0  0  0
  -24.5190  -31.9540   23.2180 C   0  0  0  0  0  0  0  0  0  0  0  0
  -27.0390  -27.4380   20.0360 C   0  0  0  0  0  0  0  0  0  0  0  0
  -23.2630  -30.5720   21.6030 C   0  0  0  0  0  3  0  0  0  0  0  0
  -24.6680  -29.0390   20.1200 C   0  0  0  0  0  0  0  0  0  0  0  0
  -25.7940  -30.8980   21.3410 C   0  0  0  0  0  2  0  0  0  0  0  0
  -25.8550  -29.5270   20.6810 C   0  0  0  0  0  0  0  0  0  0  0  0
  -27.0420  -28.7390   20.6290 C   0  0  0  0  0  3  0  0  0  0  0  0
  -25.8230  -27.0010   19.4600 C   0  0  0  0  0  3  0  0  0  0  0  0
  -24.6540  -27.7810   19.5010 C   0  0  0  0  0  3  0  0  0  0  0  0
  -23.4340  -29.9100   20.2100 C   0  0  0  0  0  2  0  0  0  0  0  0
  -24.5460  -31.1570   22.1100 N   0  0  0  0  0  0  0  0  0  0  0  0
  -23.4530  -32.2250   23.7900 O   0  0  0  0  0  0  0  0  0  0  0  0
  -22.6330  -29.5440   22.5730 C   0  0  0  0  0  0  0  0  0  0  0  0
  -21.3110  -29.3300   22.4520 N   0  0  0  0  0  0  0  0  0  0  0  0
  -23.3300  -28.9420   23.3940 O   0  0  0  0  0  0  0  0  0  0  0  0
  -20.8060  -29.8690   21.7620 H   0  0  0  0  0  0  0  0  0  0  0  0
  -17.9740  -28.0230   22.9370 C   0  0  0  0  0  0  0  0  0  0  0  0
  -20.5180  -28.3790   23.2330 C   0  0  0  0  0  3  0  0  0  0  0  0
  -20.6790  -26.9410   22.6870 C   0  0  0  0  0  2  0  0  0  0  0  0
  -19.6010  -26.5580   21.6670 C   0  0  0  0  0  2  0  0  0  0  0  0
  -18.2080  -26.6670   22.2920 C   0  0  0  0  0  2  0  0  0  0  0  0
  -19.0610  -28.8330   23.3640 C   0  0  0  0  0  0  0  0  0  0  0  0
  -18.7890  -30.1000   23.9260 C   0  0  0  0  0  3  0  0  0  0  0  0
  -17.4650  -30.5560   24.0680 C   0  0  0  0  0  3  0  0  0  0  0  0
  -16.3940  -29.7440   23.6580 C   0  0  0  0  0  3  0  0  0  0  0  0
  -16.6490  -28.4790   23.0980 C   0  0  0  0  0  3  0  0  0  0  0  0
  -25.8210  -32.5800   23.8050 C   0  0  0  0  0  3  0  0  0  0  0  0
  -26.3550  -31.8170   25.0800 C   0  0  1  0  0  0  0  0  0  0  0  0
  -25.2820  -31.6030   26.1720 C   0  0  0  0  0  1  0  0  0  0  0  0
  -26.9190  -30.4310   24.6920 C   0  0  0  0  0  1  0  0  0  0  0  0
  -27.5250  -32.6090   25.7110 C   0  0  0  0  0  1  0  0  0  0  0  0
  -25.5320  -33.9850   24.1250 N   0  0  0  0  0  0  0  0  0  0  0  0
  -25.8350  -35.0230   23.3360 C   0  0  0  0  0  0  0  0  0  0  0  0
  -26.4570  -34.9010   22.2780 O   0  0  0  0  0  0  0  0  0  0  0  0
  -24.9750  -34.1540   24.9490 H   0  0  0  0  0  0  0  0  0  0  0  0
  -24.0870  -36.8110   23.0470 C   0  0  0  0  0  1  0  0  0  0  0  0
  -25.3740  -36.4210   23.7940 C   0  0  0  0  0  3  0  0  0  0  0  0
  -27.5480  -37.3280   24.4830 C   0  0  0  0  0  1  0  0  0  0  0  0
  -26.3950  -37.4720   23.5990 N   0  0  0  0  0  0  0  0  0  0  0  0
  -25.9950  -38.3950   23.7450 H   0  0  0  0  0  0  0  0  0  0  0  0
  -29.7440  -18.3620   21.1490 C   0  0  0  0  0  3  0  0  0  0  0  0
  -30.8300  -18.1700   22.2480 C   0  0  0  0  0  2  0  0  0  0  0  0
  -30.4340  -18.6470   23.6680 C   0  0  0  0  0  2  0  0  0  0  0  0
  -31.5300  -18.4900   24.6450 N   0  0  0  0  0  4  0  0  0  0  0  0
  -31.8140  -17.5290   24.7250 H   0  0  0  0  0  0  0  0  0  0  0  0
  -31.2250  -18.7940   25.5530 H   0  0  0  0  0  0  0  0  0  0  0  0
  -32.3320  -19.0400   24.3950 H   0  0  0  0  0  0  0  0  0  0  0  0
  -29.9990  -17.3040   19.9880 C   0  0  0  0  0  2  0  0  0  0  0  0
  -30.6180  -14.7720   19.9440 C   0  0  0  0  0  0  0  0  0  0  0  0
  -30.3020  -12.5740   18.8320 C   0  0  0  0  0  2  0  0  0  0  0  0
  -29.2770  -12.7560   17.6910 C   0  0  0  0  0  2  0  0  0  0  0  0
  -27.8370  -12.5880   18.2150 C   0  0  0  0  0  2  0  0  0  0  0  0
  -27.5740  -13.4050   19.5080 C   0  0  0  0  0  3  0  0  0  0  0  0
  -28.7100  -13.2120   20.5420 C   0  0  0  0  0  2  0  0  0  0  0  0
  -29.9780  -13.5590   19.8850 N   0  0  0  0  0  0  0  0  0  0  0  0
  -31.7350  -14.9350   19.4490 O   0  0  0  0  0  0  0  0  0  0  0  0
  -29.8710  -15.8410   20.3610 N   0  0  0  0  0  0  0  0  0  0  0  0
  -28.9880  -15.5820   20.7770 H   0  0  0  0  0  0  0  0  0  0  0  0
  -25.2350  -13.9860   20.4010 C   0  0  0  0  0  0  0  0  0  0  0  0
  -24.1960  -13.2050   20.8290 C   0  0  0  0  0  0  0  0  0  0  0  0
  -24.6540  -11.8540   20.7360 C   0  0  0  0  0  0  0  0  0  0  0  0
  -26.2600  -13.1120   20.0760 N   0  0  0  0  0  0  0  0  0  0  0  0
  -25.9200  -11.8230   20.3380 N   0  0  0  0  0  0  0  0  0  0  0  0
  -23.9390  -10.5890   20.9500 C   0  0  0  0  0  0  0  0  0  0  0  0
  -24.4030   -9.6260   21.8730 C   0  0  0  0  0  3  0  0  0  0  0  0
  -23.6910   -8.4240   22.0720 C   0  0  0  0  0  3  0  0  0  0  0  0
  -22.5000   -8.1760   21.3490 C   0  0  0  0  0  0  0  0  0  0  0  0
  -22.0550   -9.1280   20.4150 C   0  0  0  0  0  3  0  0  0  0  0  0
  -22.7690  -10.3210   20.2140 C   0  0  0  0  0  3  0  0  0  0  0  0
  -21.7550   -7.0260   21.4600 O   0  0  0  0  0  0  0  0  0  0  0  0
  -21.7100   -6.3080   22.6280 C   0  0  0  0  0  0  0  0  0  0  0  0
  -21.2670   -6.8810   23.8410 C   0  0  0  0  0  3  0  0  0  0  0  0
  -21.1710   -6.0880   25.0010 C   0  0  0  0  0  3  0  0  0  0  0  0
  -21.5060   -4.7210   24.9510 C   0  0  0  0  0  0  0  0  0  0  0  0
  -21.9420   -4.1470   23.7440 C   0  0  0  0  0  3  0  0  0  0  0  0
  -22.0400   -4.9390   22.5850 C   0  0  0  0  0  0  0  0  0  0  0  0
  -22.4410   -4.3750   21.4210 F   0  0  0  0  0  0  0  0  0  0  0  0
  -21.4070   -3.9570   26.0630 F   0  0  0  0  0  0  0  0  0  0  0  0
  -22.8210  -13.6760   21.2050 C   0  0  0  0  0  0  0  0  0  0  0  0
  -22.1500  -12.9630   22.1040 N   0  0  0  0  0  0  0  0  0  0  0  0
  -22.3490  -14.7120   20.7380 O   0  0  0  0  0  0  0  0  0  0  0  0
  -22.5420  -12.1240   22.5070 H   0  0  0  0  0  0  0  0  0  0  0  0
  -21.2300  -13.2620   22.3940 H   0  0  0  0  0  0  0  0  0  0  0  0
  -25.3880  -15.3600   20.2400 N   0  0  0  0  0  0  0  0  0  0  0  0
  -24.6240  -16.0070   20.4010 H   0  0  0  0  0  0  0  0  0  0  0  0
  -26.2010  -15.8000   19.8270 H   0  0  0  0  0  0  0  0  0  0  0  0
  2  5  1  0
  3  1  1  0
  4  2  1  0
  4  6  1  0
  5  8  1  0
  5  1  1  0
  6  3  1  0
  6 51  1  0
  6  7  1  1
  9  8  2  0
  9 10  1  0
 10 12  1  0
 11 22  2  0
 12 17  1  0
 13 21  1  0
 13 23  1  0
 14 20  1  0
 14 16  1  0
 15 21  1  0
 16 15  1  0
 17 16  2  0
 18 19  1  0
 18 12  2  0
 19 14  2  0
 20 13  1  0
 21 11  1  0
 23 25  2  0
 24 23  1  0
 26 24  1  0
 27 36  2  0
 27 32  1  0
 28 24  1  0
 28 32  1  0
 29 28  1  0
 30 31  1  0
 30 29  1  0
 31 27  1  0
 32 33  2  0
 33 34  1  0
 35 34  2  0
 36 35  1  0
 37 11  1  0
 37 42  1  0
 37 38  1  0
 38 41  1  1
 38 39  1  0
 40 38  1  0
 42 45  1  0
 43 47  1  0
 43 42  1  0
 44 43  2  0
 47 46  1  0
 49 50  1  0
 49 47  1  0
 49 48  1  0
 51 58  1  0
 51 52  1  0
 52 53  1  0
 53 54  1  0
 54 55  1  0
 54 56  1  0
 57 54  1  0
 58 67  1  0
 59 67  1  0
 60 65  1  0
 61 62  1  0
 61 60  1  0
 63 62  1  0
 63 72  1  0
 63 64  1  0
 65 59  1  0
 65 64  1  0
 66 59  2  0
 67 68  1  0
 69 70  2  0
 70 89  1  0
 71 70  1  0
 71 74  1  0
 72 73  1  0
 72 69  1  0
 73 71  2  0
 74 75  1  0
 75 76  2  0
 77 80  1  0
 77 76  1  0
 78 77  2  0
 79 78  1  0
 79 74  2  0
 80 81  1  0
 81 82  1  0
 82 83  2  0
 84 83  1  0
 84 88  1  0
 85 84  2  0
 86 81  2  0
 86 85  1  0
 87 86  1  0
 89 90  1  0
 90 93  1  0
 90 92  1  0
 91 89  2  0
 94 69  1  0
 94 95  1  0
 96 94  1  0
M  ISO  4   9 101  10 101  59 100  67 100
M  END
>  <TORSDO>  (5) 
F 23

>  <SCORE>  (5) 
-10.471

>  <name>  (5) 
4

>  <ligand_id>  (5) 
4

>  <original_smiles>  (5) 
[H]c1c([H])c([H])c2c(c1[H])C([H])([H])C([H])([H])C([H])([H])C2([H])N([H])C(=O)C1([H])N(C(=O)C([H])(N([H])C(=O)C([H])(N([H])C([H])([H])[H])C([H])([H])[H])C(C([H])([H])[H])(C([H])([H])[H])C([H])([H])[H])C([H])([H])c2c([H])c(OC([H])([H])C([H])([H])N3C([H])([H])C([H])([H])[N+]([H])(C([H])(C([H])([H])N([H])C(=O)N4C([H])([H])C([H])([H])C([H])([H])C([H])(n5nc(-c6c([H])c([H])c(Oc7c([H])c([H])c(F)c([H])c7F)c([H])c6[H])c(C(=O)N([H])[H])c5N([H])[H])C4([H])[H])C([H])([H])C([H])([H])[N+]([H])([H])[H])C([H])([H])C3([H])[H])c([H])c([H])c2C1([H])[H]

>  <smiles>  (5) 
[H]c1c([H])c([H])c2c(c1[H])C([H])([H])C([H])([H])C([H])([H])C2([H])N([H])C(=O)C1([H])N(C(=O)C([H])(N([H])C(=O)C([H])(N([H])C([H])([H])[H])C([H])([H])[H])C(C([H])([H])[H])(C([H])([H])[H])C([H])([H])[H])C([H])([H])c2c([H])c(OC([H])([H])C([H])([H])N3C([H])([H])C([H])([H])[N+]([H])(C([H])(C([H])([H])N([H])C(=O)N4C([H])([H])C([H])([H])C([H])([H])C([H])(n5nc(-c6c([H])c([H])c(Oc7c([H])c([H])c(F)c([H])c7F)c([H])c6[H])c(C(=O)N([H])[H])c5N([H])[H])C4([H])[H])C([H])([H])C([H])([H])[N+]([H])([H])[H])C([H])([H])C3([H])[H])c([H])c([H])c2C1([H])[H]

$$$$
5:0:0
     RDKit          3D

101110  0  0  1  0  0  0  0  0999 V2000
  -33.9940  -19.1320   22.4720 C   0  0  0  0  0  2  0  0  0  0  0  0
  -33.8350  -20.0940   21.2900 C   0  0  0  0  0  2  0  0  0  0  0  0
  -32.4110  -20.9340   19.3610 C   0  0  0  0  0  2  0  0  0  0  0  0
  -31.0410  -21.5230   18.9670 C   0  0  0  0  0  2  0  0  0  0  0  0
  -32.7430  -19.1810   23.3570 C   0  0  0  0  0  2  0  0  0  0  0  0
  -30.0490  -22.1020   21.2200 C   0  0  0  0  0  2  0  0  0  0  0  0
  -31.0710  -21.2970   22.0430 C   0  0  0  0  0  2  0  0  0  0  0  0
  -32.4840  -19.9310   20.5450 C   0  0  0  0  0  3  0  0  0  0  0  0
  -30.5970  -22.6710   19.8980 C   0  0  0  0  0  3  0  0  0  0  0  0
  -31.4480  -18.9340   22.5390 C   0  0  0  0  0  3  0  0  0  0  0  0
  -31.3310  -19.9600   21.4720 N   0  0  0  0  0  0  0  0  0  0  0  0
  -29.5930  -23.5390   19.2300 N   0  0  0  0  0  4  0  0  0  0  0  0
  -28.6800  -23.1250   19.3450 H   0  0  0  0  0  0  0  0  0  0  0  0
  -29.7950  -23.5290   18.2410 H   0  0  0  0  0  0  0  0  0  0  0  0
  -29.5740  -24.9620   19.6720 C   0  0  0  0  0  2  0  0  0  0  0  0
  -28.3210  -25.7090   19.1710 C   0  0  0  0  0  2  0  0  0  0  0  0
  -28.3200  -27.0910   19.5690 O   0  0  0  0  0  0  0  0  0  0  0  0
  -24.3710  -31.8620   23.0720 C   0  0  0  0  0  0  0  0  0  0  0  0
  -27.1020  -27.7440   19.6280 C   0  0  0  0  0  0  0  0  0  0  0  0
  -23.1660  -30.4910   21.4040 C   0  0  0  0  0  3  0  0  0  0  0  0
  -24.6300  -29.1190   19.8310 C   0  0  0  0  0  0  0  0  0  0  0  0
  -25.6580  -30.9950   21.1200 C   0  0  0  0  0  2  0  0  0  0  0  0
  -25.7860  -29.6680   20.3990 C   0  0  0  0  0  0  0  0  0  0  0  0
  -27.0220  -28.9890   20.2950 C   0  0  0  0  0  3  0  0  0  0  0  0
  -25.9230  -27.2150   19.0470 C   0  0  0  0  0  3  0  0  0  0  0  0
  -24.6940  -27.8920   19.1540 C   0  0  0  0  0  3  0  0  0  0  0  0
  -23.3470  -29.9040   19.9800 C   0  0  0  0  0  2  0  0  0  0  0  0
  -24.4190  -31.1270   21.9240 N   0  0  0  0  0  0  0  0  0  0  0  0
  -23.3020  -32.0440   23.6710 O   0  0  0  0  0  0  0  0  0  0  0  0
  -22.6140  -29.3820   22.3290 C   0  0  0  0  0  0  0  0  0  0  0  0
  -21.2960  -29.1370   22.2490 N   0  0  0  0  0  0  0  0  0  0  0  0
  -23.3650  -28.7470   23.0730 O   0  0  0  0  0  0  0  0  0  0  0  0
  -20.7460  -29.7070   21.6220 H   0  0  0  0  0  0  0  0  0  0  0  0
  -18.0140  -27.7350   22.8110 C   0  0  0  0  0  0  0  0  0  0  0  0
  -20.5640  -28.1160   22.9960 C   0  0  0  0  0  3  0  0  0  0  0  0
  -20.7160  -26.7250   22.3370 C   0  0  0  0  0  2  0  0  0  0  0  0
  -19.5920  -26.3990   21.3500 C   0  0  0  0  0  2  0  0  0  0  0  0
  -18.2320  -26.4340   22.0560 C   0  0  0  0  0  2  0  0  0  0  0  0
  -19.1090  -28.5320   23.2390 C   0  0  0  0  0  0  0  0  0  0  0  0
  -18.8500  -29.7490   23.9070 C   0  0  0  0  0  3  0  0  0  0  0  0
  -17.5290  -30.1700   24.1510 C   0  0  0  0  0  3  0  0  0  0  0  0
  -16.4500  -29.3690   23.7390 C   0  0  0  0  0  3  0  0  0  0  0  0
  -16.6930  -28.1540   23.0730 C   0  0  0  0  0  3  0  0  0  0  0  0
  -25.6490  -32.5260   23.6720 C   0  0  0  0  0  3  0  0  0  0  0  0
  -25.3050  -33.9110   24.0210 N   0  0  0  0  0  0  0  0  0  0  0  0
  -25.6010  -34.9790   23.2680 C   0  0  0  0  0  0  0  0  0  0  0  0
  -26.2640  -34.9060   22.2300 O   0  0  0  0  0  0  0  0  0  0  0  0
  -24.7150  -34.0410   24.8300 H   0  0  0  0  0  0  0  0  0  0  0  0
  -23.8160  -36.7230   22.9520 C   0  0  0  0  0  1  0  0  0  0  0  0
  -25.0780  -36.3480   23.7450 C   0  0  0  0  0  3  0  0  0  0  0  0
  -27.1940  -37.2890   24.5600 C   0  0  0  0  0  1  0  0  0  0  0  0
  -26.0770  -37.4330   23.6310 N   0  0  0  0  0  0  0  0  0  0  0  0
  -25.6450  -38.3380   23.7910 H   0  0  0  0  0  0  0  0  0  0  0  0
  -26.2180  -31.7580   24.9270 C   0  0  1  0  0  0  0  0  0  0  0  0
  -25.1590  -31.4790   26.0190 C   0  0  0  0  0  1  0  0  0  0  0  0
  -26.8300  -30.4020   24.5050 C   0  0  0  0  0  1  0  0  0  0  0  0
  -27.3620  -32.5770   25.5700 C   0  0  0  0  0  1  0  0  0  0  0  0
  -31.3150  -17.4420   22.0670 C   0  0  0  0  0  3  0  0  0  0  0  0
  -31.3000  -16.5450   23.2400 N   0  0  0  0  0  4  0  0  0  0  0  0
  -30.5120  -16.7430   23.8320 H   0  0  0  0  0  0  0  0  0  0  0  0
  -32.1410  -16.6530   23.7780 H   0  0  0  0  0  0  0  0  0  0  0  0
  -31.2410  -15.5900   22.9400 H   0  0  0  0  0  0  0  0  0  0  0  0
  -30.0830  -17.1530   21.1710 C   0  0  0  0  0  2  0  0  0  0  0  0
  -30.3690  -14.8960   20.0780 C   0  0  0  0  0  0  0  0  0  0  0  0
  -30.0360  -12.8170   18.7840 C   0  0  0  0  0  2  0  0  0  0  0  0
  -28.9720  -13.0390   17.6900 C   0  0  0  0  0  2  0  0  0  0  0  0
  -27.5500  -12.8190   18.2460 C   0  0  0  0  0  2  0  0  0  0  0  0
  -27.3060  -13.5820   19.5750 C   0  0  0  0  0  3  0  0  0  0  0  0
  -28.4620  -13.3210   20.5660 C   0  0  0  0  0  2  0  0  0  0  0  0
  -29.7260  -13.7110   19.9100 N   0  0  0  0  0  0  0  0  0  0  0  0
  -31.3660  -15.2320   19.4340 O   0  0  0  0  0  0  0  0  0  0  0  0
  -29.8020  -15.7190   20.9760 N   0  0  0  0  0  0  0  0  0  0  0  0
  -28.9760  -15.3540   21.4310 H   0  0  0  0  0  0  0  0  0  0  0  0
  -24.9790  -14.0780   20.5600 C   0  0  0  0  0  0  0  0  0  0  0  0
  -23.9640  -13.2540   20.9700 C   0  0  0  0  0  0  0  0  0  0  0  0
  -24.4410  -11.9200   20.7820 C   0  0  0  0  0  0  0  0  0  0  0  0
  -26.0090  -13.2430   20.1580 N   0  0  0  0  0  0  0  0  0  0  0  0
  -25.6930  -11.9350   20.3440 N   0  0  0  0  0  0  0  0  0  0  0  0
  -23.7570  -10.6310   20.9400 C   0  0  0  0  0  0  0  0  0  0  0  0
  -24.2730   -9.6200   21.7810 C   0  0  0  0  0  3  0  0  0  0  0  0
  -23.5900   -8.3940   21.9300 C   0  0  0  0  0  3  0  0  0  0  0  0
  -22.3760   -8.1710   21.2380 C   0  0  0  0  0  0  0  0  0  0  0  0
  -21.8790   -9.1700   20.3830 C   0  0  0  0  0  3  0  0  0  0  0  0
  -22.5630  -10.3880   20.2320 C   0  0  0  0  0  3  0  0  0  0  0  0
  -21.6570   -7.0010   21.3010 O   0  0  0  0  0  0  0  0  0  0  0  0
  -21.6740   -6.2050   22.4170 C   0  0  0  0  0  0  0  0  0  0  0  0
  -21.2910   -6.6920   23.6860 C   0  0  0  0  0  3  0  0  0  0  0  0
  -21.2580   -5.8210   24.7930 C   0  0  0  0  0  3  0  0  0  0  0  0
  -21.5960   -4.4640   24.6340 C   0  0  0  0  0  0  0  0  0  0  0  0
  -21.9730   -3.9760   23.3700 C   0  0  0  0  0  3  0  0  0  0  0  0
  -22.0080   -4.8440   22.2640 C   0  0  0  0  0  0  0  0  0  0  0  0
  -22.3510   -4.3650   21.0440 F   0  0  0  0  0  0  0  0  0  0  0  0
  -21.5570   -3.6250   25.6950 F   0  0  0  0  0  0  0  0  0  0  0  0
  -22.5950  -13.6750   21.4190 C   0  0  0  0  0  0  0  0  0  0  0  0
  -21.9760  -12.9030   22.3060 N   0  0  0  0  0  0  0  0  0  0  0  0
  -22.0830  -14.7220   21.0220 O   0  0  0  0  0  0  0  0  0  0  0  0
  -22.4030  -12.0550   22.6480 H   0  0  0  0  0  0  0  0  0  0  0  0
  -21.0620  -13.1630   22.6470 H   0  0  0  0  0  0  0  0  0  0  0  0
  -25.1040  -15.4620   20.4810 N   0  0  0  0  0  0  0  0  0  0  0  0
  -24.3410  -16.0890   20.7150 H   0  0  0  0  0  0  0  0  0  0  0  0
  -25.9130  -15.9450   20.1080 H   0  0  0  0  0  0  0  0  0  0  0  0
  1  5  1  0
  2  1  1  0
  4  3  1  0
  4  9  1  0
  6  7  1  0
  8  3  1  0
  8  2  1  0
  8 11  1  0
  9 12  1  0
  9  6  1  0
 10 58  1  0
 10  5  1  0
 11  7  1  0
 11 10  1  0
 12 13  1  0
 12 15  1  0
 14 12  1  0
 16 17  1  0
 16 15  1  0
 17 19  1  0
 18 29  2  0
 19 24  1  0
 20 28  1  0
 20 30  1  0
 21 27  1  0
 21 23  1  0
 22 28  1  0
 23 22  1  0
 24 23  2  0
 25 26  1  0
 25 19  2  0
 26 21  2  0
 27 20  1  0
 28 18  1  0
 30 32  2  0
 31 30  1  0
 33 31  1  0
 34 43  2  0
 34 39  1  0
 35 31  1  0
 35 39  1  0
 36 35  1  0
 37 38  1  0
 37 36  1  0
 38 34  1  0
 39 40  2  0
 40 41  1  0
 42 41  2  0
 43 42  1  0
 44 18  1  0
 44 45  1  0
 44 54  1  0
 45 48  1  0
 46 50  1  0
 46 45  1  0
 47 46  2  0
 50 49  1  0
 52 50  1  0
 52 53  1  0
 52 51  1  0
 54 57  1  1
 54 55  1  0
 56 54  1  0
 58 63  1  0
 58 59  1  0
 59 61  1  0
 59 60  1  0
 62 59  1  0
 64 72  1  0
 65 70  1  0
 66 67  1  0
 66 65  1  0
 68 67  1  0
 68 77  1  0
 68 69  1  0
 70 64  1  0
 70 69  1  0
 71 64  2  0
 72 63  1  0
 72 73  1  0
 74 75  2  0
 75 94  1  0
 76 79  1  0
 76 75  1  0
 77 78  1  0
 77 74  1  0
 78 76  2  0
 79 80  1  0
 80 81  2  0
 82 85  1  0
 82 81  1  0
 83 82  2  0
 84 83  1  0
 84 79  2  0
 85 86  1  0
 86 87  1  0
 87 88  2  0
 89 88  1  0
 89 93  1  0
 90 89  2  0
 91 86  2  0
 91 90  1  0
 92 91  1  0
 94 95  1  0
 95 98  1  0
 95 97  1  0
 96 94  2  0
 99 74  1  0
 99100  1  0
101 99  1  0
M  ISO  4  16 101  17 101  64 100  72 100
M  END
>  <TORSDO>  (6) 
F 22

>  <SCORE>  (6) 
-9.710

>  <name>  (6) 
5

>  <ligand_id>  (6) 
5

>  <original_smiles>  (6) 
[H]c1c([H])c([H])c2c(c1[H])C([H])([H])C([H])([H])C([H])([H])C2([H])N([H])C(=O)C1([H])N(C(=O)C([H])(N([H])C(=O)C([H])(N([H])C([H])([H])[H])C([H])([H])[H])C(C([H])([H])[H])(C([H])([H])[H])C([H])([H])[H])C([H])([H])c2c([H])c(OC([H])([H])C([H])([H])[N+]([H])([H])C3([H])C([H])([H])C([H])([H])N4C([H])(C([H])([H])C([H])([H])C([H])([H])C4([H])C([H])(C([H])([H])N([H])C(=O)N4C([H])([H])C([H])([H])C([H])([H])C([H])(n5nc(-c6c([H])c([H])c(Oc7c([H])c([H])c(F)c([H])c7F)c([H])c6[H])c(C(=O)N([H])[H])c5N([H])[H])C4([H])[H])[N+]([H])([H])[H])C([H])([H])C3([H])[H])c([H])c([H])c2C1([H])[H]

>  <smiles>  (6) 
[H]c1c([H])c([H])c2c(c1[H])C([H])([H])C([H])([H])C([H])([H])C2([H])N([H])C(=O)C1([H])N(C(=O)C([H])(N([H])C(=O)C([H])(N([H])C([H])([H])[H])C([H])([H])[H])C(C([H])([H])[H])(C([H])([H])[H])C([H])([H])[H])C([H])([H])c2c([H])c(OC([H])([H])C([H])([H])[N+]([H])([H])C3([H])C([H])([H])C([H])([H])N4C([H])(C([H])([H])C([H])([H])C([H])([H])C4([H])C([H])(C([H])([H])N([H])C(=O)N4C([H])([H])C([H])([H])C([H])([H])C([H])(n5nc(-c6c([H])c([H])c(Oc7c([H])c([H])c(F)c([H])c7F)c([H])c6[H])c(C(=O)N([H])[H])c5N([H])[H])C4([H])[H])[N+]([H])([H])[H])C([H])([H])C3([H])[H])c([H])c([H])c2C1([H])[H]

$$$$
6:0:0
     RDKit          3D

 90 98  0  0  1  0  0  0  0  0999 V2000
  -31.0800  -15.4510   19.5260 C   0  0  0  0  0  0  0  0  0  0  0  0
  -30.9410  -12.9180   18.8510 C   0  0  0  0  0  2  0  0  0  0  0  0
  -29.9500  -12.5780   17.7060 C   0  0  0  0  0  2  0  0  0  0  0  0
  -28.5290  -12.3600   18.2530 C   0  0  0  0  0  2  0  0  0  0  0  0
  -28.1540  -13.4280   19.3070 C   0  0  0  0  0  3  0  0  0  0  0  0
  -29.2750  -13.6740   20.3390 C   0  0  0  0  0  2  0  0  0  0  0  0
  -30.4570  -14.1510   19.5940 N   0  0  0  0  0  0  0  0  0  0  0  0
  -32.2720  -15.3280   19.1860 O   0  0  0  0  0  0  0  0  0  0  0  0
  -30.8640  -18.2730   19.2600 C   0  0  0  0  0  3  0  0  0  0  0  0
  -28.7450  -18.6240   19.6900 C   0  0  0  0  0  2  0  0  0  0  0  0
  -29.1840  -17.2060   20.2840 C   0  0  0  0  0  3  0  0  0  0  0  0
  -30.4330  -16.8250   19.5950 N   0  0  0  0  0  0  0  0  0  0  0  0
  -29.9480  -19.4210   19.3290 N   0  0  0  0  0  0  0  0  0  0  0  0
  -32.1440  -18.5480   18.9580 N   0  0  0  0  0  0  0  0  0  0  0  0
  -32.8370  -17.8130   18.8890 H   0  0  0  0  0  0  0  0  0  0  0  0
  -32.4350  -19.4960   18.7620 H   0  0  0  0  0  0  0  0  0  0  0  0
  -25.9350  -14.1150   20.3560 C   0  0  0  0  0  0  0  0  0  0  0  0
  -24.8520  -13.4030   20.7850 C   0  0  0  0  0  0  0  0  0  0  0  0
  -25.1840  -12.0260   20.5970 C   0  0  0  0  0  0  0  0  0  0  0  0
  -26.8620  -13.1800   19.9330 N   0  0  0  0  0  0  0  0  0  0  0  0
  -26.4310  -11.9100   20.1460 N   0  0  0  0  0  0  0  0  0  0  0  0
  -24.3610  -10.8220   20.7620 C   0  0  0  0  0  0  0  0  0  0  0  0
  -24.7770   -9.7470   21.5800 C   0  0  0  0  0  3  0  0  0  0  0  0
  -23.9570   -8.6100   21.7400 C   0  0  0  0  0  3  0  0  0  0  0  0
  -22.7050   -8.5400   21.0820 C   0  0  0  0  0  0  0  0  0  0  0  0
  -22.3060   -9.6020   20.2510 C   0  0  0  0  0  3  0  0  0  0  0  0
  -23.1260  -10.7310   20.0900 C   0  0  0  0  0  3  0  0  0  0  0  0
  -21.8540   -7.4650   21.1600 O   0  0  0  0  0  0  0  0  0  0  0  0
  -21.8310   -6.6410   22.2560 C   0  0  0  0  0  0  0  0  0  0  0  0
  -21.5430   -7.1300   23.5490 C   0  0  0  0  0  3  0  0  0  0  0  0
  -21.4620   -6.2380   24.6370 C   0  0  0  0  0  3  0  0  0  0  0  0
  -21.6590   -4.8580   24.4340 C   0  0  0  0  0  0  0  0  0  0  0  0
  -21.9400   -4.3690   23.1460 C   0  0  0  0  0  3  0  0  0  0  0  0
  -22.0220   -5.2590   22.0600 C   0  0  0  0  0  0  0  0  0  0  0  0
  -22.2730   -4.7800   20.8180 F   0  0  0  0  0  0  0  0  0  0  0  0
  -21.5730   -4.0010   25.4770 F   0  0  0  0  0  0  0  0  0  0  0  0
  -23.5390  -13.9760   21.2330 C   0  0  0  0  0  0  0  0  0  0  0  0
  -22.8350  -13.2790   22.1160 N   0  0  0  0  0  0  0  0  0  0  0  0
  -23.1560  -15.0760   20.8360 O   0  0  0  0  0  0  0  0  0  0  0  0
  -23.1620  -12.3860   22.4570 H   0  0  0  0  0  0  0  0  0  0  0  0
  -21.9550  -13.6420   22.4550 H   0  0  0  0  0  0  0  0  0  0  0  0
  -26.1900  -15.4780   20.2520 N   0  0  0  0  0  0  0  0  0  0  0  0
  -25.4610  -16.1550   20.4510 H   0  0  0  0  0  0  0  0  0  0  0  0
  -26.9410  -15.8620   19.6990 H   0  0  0  0  0  0  0  0  0  0  0  0
  -30.3920  -16.5270   22.5600 C   0  0  0  0  0  1  0  0  0  0  0  0
  -29.4270  -17.4510   21.8040 C   0  0  0  0  0  2  0  0  0  0  0  0
  -29.9990  -21.1220   19.5430 C   0  0  0  0  0  2  0  0  0  0  0  0
  -29.2420  -22.6150   18.8110 C   0  0  0  0  0  2  0  0  0  0  0  0
  -28.6240  -24.2110   19.4700 C   0  0  0  0  0  2  0  0  0  0  0  0
  -28.5800  -25.8360   19.0800 O   0  0  0  0  0  0  0  0  0  0  0  0
  -24.7310  -31.2180   22.8500 C   0  0  0  0  0  0  0  0  0  0  0  0
  -27.4920  -26.8550   19.2500 C   0  0  0  0  0  0  0  0  0  0  0  0
  -23.5850  -29.9600   21.0730 C   0  0  0  0  0  3  0  0  0  0  0  0
  -25.0910  -28.6100   19.4570 C   0  0  0  0  0  0  0  0  0  0  0  0
  -26.1350  -30.3260   20.9200 C   0  0  0  0  0  2  0  0  0  0  0  0
  -26.2700  -29.0050   20.1020 C   0  0  0  0  0  0  0  0  0  0  0  0
  -27.4640  -28.1560   19.9670 C   0  0  0  0  0  3  0  0  0  0  0  0
  -26.2690  -26.6170   18.5840 C   0  0  0  0  0  3  0  0  0  0  0  0
  -25.1150  -27.4410   18.6790 C   0  0  0  0  0  3  0  0  0  0  0  0
  -23.8260  -29.4550   19.6240 C   0  0  0  0  0  2  0  0  0  0  0  0
  -24.8380  -30.5250   21.6690 N   0  0  0  0  0  0  0  0  0  0  0  0
  -23.6370  -31.3820   23.4160 O   0  0  0  0  0  0  0  0  0  0  0  0
  -22.9610  -28.8220   21.9230 C   0  0  0  0  0  0  0  0  0  0  0  0
  -21.6380  -28.6070   21.8050 N   0  0  0  0  0  0  0  0  0  0  0  0
  -23.6760  -28.1340   22.6560 O   0  0  0  0  0  0  0  0  0  0  0  0
  -21.1100  -29.2170   21.1960 H   0  0  0  0  0  0  0  0  0  0  0  0
  -18.3300  -27.1790   22.2360 C   0  0  0  0  0  0  0  0  0  0  0  0
  -20.8810  -27.5400   22.4710 C   0  0  0  0  0  3  0  0  0  0  0  0
  -21.0330  -26.1990   21.7170 C   0  0  0  0  0  2  0  0  0  0  0  0
  -19.9180  -25.9490   20.6970 C   0  0  0  0  0  2  0  0  0  0  0  0
  -18.5510  -25.9390   21.3860 C   0  0  0  0  0  2  0  0  0  0  0  0
  -19.4220  -27.9400   22.7320 C   0  0  0  0  0  0  0  0  0  0  0  0
  -19.1570  -29.1000   23.4910 C   0  0  0  0  0  3  0  0  0  0  0  0
  -17.8340  -29.5010   23.7580 C   0  0  0  0  0  3  0  0  0  0  0  0
  -16.7580  -28.7370   23.2750 C   0  0  0  0  0  3  0  0  0  0  0  0
  -17.0070  -27.5780   22.5200 C   0  0  0  0  0  3  0  0  0  0  0  0
  -25.9750  -31.8530   23.5420 C   0  0  0  0  0  3  0  0  0  0  0  0
  -26.5530  -30.9650   24.7120 C   0  0  1  0  0  0  0  0  0  0  0  0
  -25.4930  -30.5440   25.7570 C   0  0  0  0  0  1  0  0  0  0  0  0
  -27.2000  -29.6740   24.1600 C   0  0  0  0  0  1  0  0  0  0  0  0
  -27.6730  -31.7360   25.4500 C   0  0  0  0  0  1  0  0  0  0  0  0
  -25.5810  -33.1770   24.0580 N   0  0  0  0  0  0  0  0  0  0  0  0
  -25.8700  -34.3470   23.4750 C   0  0  0  0  0  0  0  0  0  0  0  0
  -26.5580  -34.4290   22.4540 O   0  0  0  0  0  0  0  0  0  0  0  0
  -24.9690  -33.1810   24.8620 H   0  0  0  0  0  0  0  0  0  0  0  0
  -24.0570  -36.0930   23.3670 C   0  0  0  0  0  1  0  0  0  0  0  0
  -25.3130  -35.6320   24.1250 C   0  0  0  0  0  3  0  0  0  0  0  0
  -27.3920  -36.4960   25.1060 C   0  0  0  0  0  1  0  0  0  0  0  0
  -26.2920  -36.7400   24.1770 N   0  0  0  0  0  0  0  0  0  0  0  0
  -25.8390  -37.6100   24.4440 H   0  0  0  0  0  0  0  0  0  0  0  0
  1  7  1  0
  1 12  1  0
  2  7  1  0
  3  4  1  0
  3  2  1  0
  5  4  1  0
  5 20  1  0
  5  6  1  0
  7  6  1  0
  8  1  2  0
  9 14  1  0
  9 13  1  0
  9 12  1  0
 10 11  1  0
 11 46  1  0
 12 11  1  0
 13 47  1  0
 13 10  1  0
 15 14  1  0
 16 14  1  0
 17 18  2  0
 18 37  1  0
 19 22  1  0
 19 18  1  0
 20 21  1  0
 20 17  1  0
 21 19  2  0
 22 23  1  0
 23 24  2  0
 25 28  1  0
 25 24  1  0
 26 25  2  0
 27 26  1  0
 27 22  2  0
 28 29  1  0
 29 30  1  0
 30 31  2  0
 32 31  1  0
 32 36  1  0
 33 32  2  0
 34 29  2  0
 34 33  1  0
 35 34  1  0
 37 38  1  0
 38 41  1  0
 38 40  1  0
 39 37  2  0
 42 17  1  0
 42 43  1  0
 44 42  1  0
 46 45  1  0
 48 49  1  0
 48 47  1  0
 50 52  1  0
 50 49  1  0
 51 62  2  0
 52 57  1  0
 53 61  1  0
 53 63  1  0
 54 60  1  0
 54 56  1  0
 55 61  1  0
 56 55  1  0
 57 56  2  0
 58 59  1  0
 58 52  2  0
 59 54  2  0
 60 53  1  0
 61 51  1  0
 63 65  2  0
 64 63  1  0
 66 64  1  0
 67 76  2  0
 67 72  1  0
 68 64  1  0
 68 72  1  0
 69 68  1  0
 70 71  1  0
 70 69  1  0
 71 67  1  0
 72 73  2  0
 73 74  1  0
 75 74  2  0
 76 75  1  0
 77 51  1  0
 77 82  1  0
 77 78  1  0
 78 81  1  1
 78 79  1  0
 80 78  1  0
 82 85  1  0
 83 82  1  0
 83 87  1  0
 84 83  2  0
 87 86  1  0
 87 89  1  0
 89 90  1  0
 89 88  1  0
M  ISO  4   1 100  12 100  49 101  50 101
M  END
>  <TORSDO>  (7) 
F 19

>  <SCORE>  (7) 
-12.673

>  <name>  (7) 
6

>  <ligand_id>  (7) 
6

>  <original_smiles>  (7) 
[H]c1c([H])c([H])c2c(c1[H])C([H])([H])C([H])([H])C([H])([H])C2([H])N([H])C(=O)C1([H])N(C(=O)C([H])(N([H])C(=O)C([H])(N([H])C([H])([H])[H])C([H])([H])[H])C(C([H])([H])[H])(C([H])([H])[H])C([H])([H])[H])C([H])([H])c2c([H])c(OC([H])([H])C([H])([H])C([H])([H])N3C(=[N+]([H])[H])N(C(=O)N4C([H])([H])C([H])([H])C([H])([H])C([H])(n5nc(-c6c([H])c([H])c(Oc7c([H])c([H])c(F)c([H])c7F)c([H])c6[H])c(C(=O)N([H])[H])c5N([H])[H])C4([H])[H])C([H])(C([H])([H])C([H])([H])[H])C3([H])[H])c([H])c([H])c2C1([H])[H]

>  <smiles>  (7) 
[H]c1c([H])c([H])c2c(c1[H])C([H])([H])C([H])([H])C([H])([H])C2([H])N([H])C(=O)C1([H])N(C(=O)C([H])(N([H])C(=O)C([H])(N([H])C([H])([H])[H])C([H])([H])[H])C(C([H])([H])[H])(C([H])([H])[H])C([H])([H])[H])C([H])([H])c2c([H])c(OC([H])([H])C([H])([H])C([H])([H])N3C(=[N+]([H])[H])N(C(=O)N4C([H])([H])C([H])([H])C([H])([H])C([H])(n5nc(-c6c([H])c([H])c(Oc7c([H])c([H])c(F)c([H])c7F)c([H])c6[H])c(C(=O)N([H])[H])c5N([H])[H])C4([H])[H])C([H])(C([H])([H])C([H])([H])[H])C3([H])[H])c([H])c([H])c2C1([H])[H]

$$$$
7:0:0
     RDKit          3D

 99107  0  0  1  0  0  0  0  0999 V2000
  -30.8690  -22.6050   18.9270 C   0  0  0  0  0  2  0  0  0  0  0  0
  -28.6710  -22.3770   18.2880 C   0  0  0  0  0  2  0  0  0  0  0  0
  -30.9190  -21.2060   19.6280 C   0  0  0  0  0  2  0  0  0  0  0  0
  -28.5410  -20.9280   18.9070 C   0  0  0  0  0  3  0  0  0  0  0  0
  -29.5590  -23.2750   19.0500 N   0  0  0  0  0  0  0  0  0  0  0  0
  -29.8420  -20.2420   19.2440 N   0  0  1  0  0  4  0  0  0  0  0  0
  -29.6180  -19.8770   20.1570 H   0  0  0  0  0  0  0  0  0  0  0  0
  -27.6160  -20.9060   20.1470 C   0  0  0  0  0  2  0  0  0  0  0  0
  -25.2800  -21.5130   19.2620 C   0  0  0  0  0  1  0  0  0  0  0  0
  -25.9620  -22.1570   21.5970 C   0  0  0  0  0  1  0  0  0  0  0  0
  -26.4580  -21.9350   20.1600 C   0  0  0  0  0  3  0  0  0  0  0  0
  -29.6260  -24.6860   18.5300 C   0  0  0  0  0  3  0  0  0  0  0  0
  -28.5500  -25.7300   19.0410 C   0  0  0  0  0  3  0  0  0  0  0  0
  -28.3800  -26.9640   18.2460 O   0  0  0  0  0  0  0  0  0  0  0  0
  -24.6750  -31.4340   22.5040 C   0  0  0  0  0  0  0  0  0  0  0  0
  -27.2270  -27.7170   18.4630 C   0  0  0  0  0  0  0  0  0  0  0  0
  -23.4060  -30.3120   20.7080 C   0  0  0  0  0  3  0  0  0  0  0  0
  -24.8040  -29.1490   18.9110 C   0  0  0  0  0  0  0  0  0  0  0  0
  -25.9050  -30.8090   20.4170 C   0  0  0  0  0  2  0  0  0  0  0  0
  -25.9900  -29.5860   19.5150 C   0  0  0  0  0  0  0  0  0  0  0  0
  -27.2070  -28.8840   19.2810 C   0  0  0  0  0  3  0  0  0  0  0  0
  -26.0200  -27.3300   17.8430 C   0  0  0  0  0  3  0  0  0  0  0  0
  -24.8190  -28.0280   18.0650 C   0  0  0  0  0  3  0  0  0  0  0  0
  -23.5380  -29.9240   19.2110 C   0  0  0  0  0  2  0  0  0  0  0  0
  -24.6850  -30.8590   21.2680 N   0  0  0  0  0  0  0  0  0  0  0  0
  -23.6270  -31.5420   23.1560 O   0  0  0  0  0  0  0  0  0  0  0  0
  -22.8640  -29.0950   21.4920 C   0  0  0  0  0  0  0  0  0  0  0  0
  -21.5390  -28.8790   21.4320 N   0  0  0  0  0  0  0  0  0  0  0  0
  -23.6300  -28.3550   22.1140 O   0  0  0  0  0  0  0  0  0  0  0  0
  -20.9760  -29.5360   20.9110 H   0  0  0  0  0  0  0  0  0  0  0  0
  -18.2450  -27.5270   22.0600 C   0  0  0  0  0  0  0  0  0  0  0  0
  -20.8180  -27.7700   22.0590 C   0  0  0  0  0  3  0  0  0  0  0  0
  -20.8340  -26.5140   21.1580 C   0  0  0  0  0  2  0  0  0  0  0  0
  -19.6090  -26.4110   20.2440 C   0  0  0  0  0  2  0  0  0  0  0  0
  -18.3220  -26.3760   21.0720 C   0  0  0  0  0  2  0  0  0  0  0  0
  -19.4150  -28.1920   22.5110 C   0  0  0  0  0  0  0  0  0  0  0  0
  -19.2840  -29.2800   23.4020 C   0  0  0  0  0  3  0  0  0  0  0  0
  -18.0160  -29.7010   23.8430 C   0  0  0  0  0  3  0  0  0  0  0  0
  -16.8610  -29.0300   23.4050 C   0  0  0  0  0  3  0  0  0  0  0  0
  -16.9770  -27.9430   22.5190 C   0  0  0  0  0  3  0  0  0  0  0  0
  -25.9770  -32.0050   23.1500 C   0  0  0  0  0  3  0  0  0  0  0  0
  -26.6570  -31.0040   24.1630 C   0  0  1  0  0  0  0  0  0  0  0  0
  -25.6890  -30.4520   25.2350 C   0  0  0  0  0  1  0  0  0  0  0  0
  -27.2680  -29.7980   23.4130 C   0  0  0  0  0  1  0  0  0  0  0  0
  -27.8250  -31.7090   24.8920 C   0  0  0  0  0  1  0  0  0  0  0  0
  -25.6240  -33.2620   23.8230 N   0  0  0  0  0  0  0  0  0  0  0  0
  -25.8540  -34.4840   23.3230 C   0  0  0  0  0  0  0  0  0  0  0  0
  -26.4560  -34.6690   22.2610 O   0  0  0  0  0  0  0  0  0  0  0  0
  -25.0810  -33.1860   24.6700 H   0  0  0  0  0  0  0  0  0  0  0  0
  -24.0280  -36.2030   23.4970 C   0  0  0  0  0  1  0  0  0  0  0  0
  -25.3340  -35.6900   24.1250 C   0  0  0  0  0  3  0  0  0  0  0  0
  -27.4680  -36.4800   25.0480 C   0  0  0  0  0  1  0  0  0  0  0  0
  -26.3090  -36.7990   24.2200 N   0  0  0  0  0  0  0  0  0  0  0  0
  -25.8690  -37.6340   24.5980 H   0  0  0  0  0  0  0  0  0  0  0  0
  -30.1200  -18.9230   18.5160 C   0  0  0  0  0  2  0  0  0  0  0  0
  -31.3950  -18.0040   18.8630 C   0  0  0  0  0  3  0  0  0  0  0  0
  -31.7920  -15.5510   19.6400 C   0  0  0  0  0  0  0  0  0  0  0  0
  -31.5450  -13.1720   19.0240 C   0  0  0  0  0  2  0  0  0  0  0  0
  -30.6080  -13.0870   17.8000 C   0  0  0  0  0  2  0  0  0  0  0  0
  -29.1350  -13.0140   18.2500 C   0  0  0  0  0  2  0  0  0  0  0  0
  -28.7730  -14.0900   19.3090 C   0  0  0  0  0  3  0  0  0  0  0  0
  -29.8330  -14.1600   20.4320 C   0  0  0  0  0  2  0  0  0  0  0  0
  -31.1400  -14.3620   19.7940 N   0  0  0  0  0  0  0  0  0  0  0  0
  -32.9910  -15.5950   19.3680 O   0  0  0  0  0  0  0  0  0  0  0  0
  -31.0120  -16.6690   19.4790 N   0  0  0  0  0  0  0  0  0  0  0  0
  -30.0340  -16.5330   19.6890 H   0  0  0  0  0  0  0  0  0  0  0  0
  -26.4690  -14.8490   20.1550 C   0  0  0  0  0  0  0  0  0  0  0  0
  -25.3590  -14.1490   20.5410 C   0  0  0  0  0  0  0  0  0  0  0  0
  -25.7060  -12.7670   20.4400 C   0  0  0  0  0  0  0  0  0  0  0  0
  -27.4280  -13.8970   19.8430 N   0  0  0  0  0  0  0  0  0  0  0  0
  -26.9770  -12.6380   20.0770 N   0  0  0  0  0  0  0  0  0  0  0  0
  -24.8870  -11.5610   20.6100 C   0  0  0  0  0  0  0  0  0  0  0  0
  -25.2040  -10.5820   21.5780 C   0  0  0  0  0  3  0  0  0  0  0  0
  -24.3890   -9.4410   21.7350 C   0  0  0  0  0  3  0  0  0  0  0  0
  -23.2430   -9.2700   20.9240 C   0  0  0  0  0  0  0  0  0  0  0  0
  -22.9450  -10.2350   19.9460 C   0  0  0  0  0  3  0  0  0  0  0  0
  -23.7600  -11.3680   19.7860 C   0  0  0  0  0  3  0  0  0  0  0  0
  -22.4070   -8.1800   20.9880 O   0  0  0  0  0  0  0  0  0  0  0  0
  -22.1300   -7.5570   22.1780 C   0  0  0  0  0  0  0  0  0  0  0  0
  -21.5350   -8.2440   23.2590 C   0  0  0  0  0  3  0  0  0  0  0  0
  -21.2030   -7.5480   24.4380 C   0  0  0  0  0  3  0  0  0  0  0  0
  -21.4550   -6.1670   24.5360 C   0  0  0  0  0  0  0  0  0  0  0  0
  -22.0420   -5.4790   23.4580 C   0  0  0  0  0  3  0  0  0  0  0  0
  -22.3750   -6.1730   22.2820 C   0  0  0  0  0  0  0  0  0  0  0  0
  -22.9210   -5.5010   21.2390 F   0  0  0  0  0  0  0  0  0  0  0  0
  -21.1280   -5.4960   25.6650 F   0  0  0  0  0  0  0  0  0  0  0  0
  -24.0150  -14.7260   20.8830 C   0  0  0  0  0  0  0  0  0  0  0  0
  -23.2700  -14.0640   21.7600 N   0  0  0  0  0  0  0  0  0  0  0  0
  -23.6400  -15.7970   20.4070 O   0  0  0  0  0  0  0  0  0  0  0  0
  -23.5870  -13.1960   22.1670 H   0  0  0  0  0  0  0  0  0  0  0  0
  -22.3670  -14.4300   22.0290 H   0  0  0  0  0  0  0  0  0  0  0  0
  -26.7340  -16.2080   20.0170 N   0  0  0  0  0  0  0  0  0  0  0  0
  -26.0060  -16.9000   20.1580 H   0  0  0  0  0  0  0  0  0  0  0  0
  -27.5590  -16.5860   19.5740 H   0  0  0  0  0  0  0  0  0  0  0  0
  -32.2070  -17.6590   17.5570 C   0  0  0  0  0  2  0  0  0  0  0  0
  -32.8550  -18.7790   16.8490 N   0  0  0  0  0  4  0  0  0  0  0  0
  -32.2010  -19.4210   16.4430 H   0  0  0  0  0  0  0  0  0  0  0  0
  -33.3860  -18.3960   16.0850 H   0  0  0  0  0  0  0  0  0  0  0  0
  -33.5150  -19.2570   17.4370 H   0  0  0  0  0  0  0  0  0  0  0  0
  1  5  1  0
  1  3  1  0
  2  4  1  0
  2  5  1  0
  4  6  1  0
  4  8  1  0
  6  3  1  0
  6  7  1  1
  8 11  1  0
  9 11  1  0
 11 10  1  0
 12 13  2  0
 12  5  1  0
 14 16  1  0
 14 13  1  0
 15 26  2  0
 16 21  1  0
 17 25  1  0
 17 27  1  0
 18 24  1  0
 18 20  1  0
 19 25  1  0
 20 19  1  0
 21 20  2  0
 22 23  1  0
 22 16  2  0
 23 18  2  0
 24 17  1  0
 25 15  1  0
 27 29  2  0
 28 27  1  0
 30 28  1  0
 31 36  2  0
 31 40  1  0
 32 28  1  0
 32 36  1  0
 33 32  1  0
 34 35  1  0
 34 33  1  0
 35 31  1  0
 36 37  1  0
 37 38  2  0
 39 38  1  0
 40 39  2  0
 41 15  1  0
 41 46  1  0
 41 42  1  0
 42 45  1  1
 42 43  1  0
 44 42  1  0
 46 49  1  0
 47 46  1  0
 47 51  1  0
 48 47  2  0
 51 50  1  0
 51 53  1  0
 53 54  1  0
 53 52  1  0
 55 56  1  0
 55  6  1  0
 56 95  1  0
 56 65  1  0
 57 63  1  0
 58 63  1  0
 59 60  1  0
 59 58  1  0
 61 60  1  0
 61 70  1  0
 61 62  1  0
 63 62  1  0
 64 57  2  0
 65 57  1  0
 65 66  1  0
 67 68  2  0
 68 87  1  0
 69 68  1  0
 69 72  1  0
 70 71  1  0
 70 67  1  0
 71 69  2  0
 72 73  1  0
 73 74  2  0
 75 78  1  0
 75 74  1  0
 76 75  2  0
 77 76  1  0
 77 72  2  0
 78 79  1  0
 79 84  2  0
 79 80  1  0
 80 81  2  0
 81 82  1  0
 82 86  1  0
 83 82  2  0
 84 83  1  0
 85 84  1  0
 87 88  1  0
 88 91  1  0
 88 90  1  0
 89 87  2  0
 92 67  1  0
 92 93  1  0
 94 92  1  0
 96 99  1  0
 96 95  1  0
 97 96  1  0
 98 96  1  0
M  ISO  4  13 101  14 101  57 100  65 100
M  END
>  <TORSDO>  (8) 
F 24

>  <SCORE>  (8) 
-5.154

>  <name>  (8) 
7

>  <ligand_id>  (8) 
7

>  <original_smiles>  (8) 
[H]c1c([H])c([H])c2c(c1[H])C([H])([H])C([H])([H])C([H])([H])C2([H])N([H])C(=O)C1([H])N(C(=O)C([H])(N([H])C(=O)C([H])(N([H])C([H])([H])[H])C([H])([H])[H])C(C([H])([H])[H])(C([H])([H])[H])C([H])([H])[H])C([H])([H])c2c([H])c(OC([H])([H])C([H])([H])N3C([H])([H])C([H])([H])[N+]([H])(C([H])([H])C([H])(N([H])C(=O)N4C([H])([H])C([H])([H])C([H])([H])C([H])(n5nc(-c6c([H])c([H])c(Oc7c([H])c([H])c(F)c([H])c7F)c([H])c6[H])c(C(=O)N([H])[H])c5N([H])[H])C4([H])[H])C([H])([H])[N+]([H])([H])[H])C([H])(C([H])([H])C([H])(C([H])([H])[H])C([H])([H])[H])C3([H])[H])c([H])c([H])c2C1([H])[H]

>  <smiles>  (8) 
[H]c1c([H])c([H])c2c(c1[H])C([H])([H])C([H])([H])C([H])([H])C2([H])N([H])C(=O)C1([H])N(C(=O)C([H])(N([H])C(=O)C([H])(N([H])C([H])([H])[H])C([H])([H])[H])C(C([H])([H])[H])(C([H])([H])[H])C([H])([H])[H])C([H])([H])c2c([H])c(OC([H])([H])C([H])([H])N3C([H])([H])C([H])([H])[N+]([H])(C([H])([H])C([H])(N([H])C(=O)N4C([H])([H])C([H])([H])C([H])([H])C([H])(n5nc(-c6c([H])c([H])c(Oc7c([H])c([H])c(F)c([H])c7F)c([H])c6[H])c(C(=O)N([H])[H])c5N([H])[H])C4([H])[H])C([H])([H])[N+]([H])([H])[H])C([H])(C([H])([H])C([H])(C([H])([H])[H])C([H])([H])[H])C3([H])[H])c([H])c([H])c2C1([H])[H]

$$$$
8:0:0
     RDKit          3D

 91 99  0  0  1  0  0  0  0  0999 V2000
  -29.1850  -21.3540   19.8220 C   0  0  0  0  0  2  0  0  0  0  0  0
  -30.2100  -21.1200   21.9730 C   0  0  0  0  0  2  0  0  0  0  0  0
  -29.8320  -20.0170   19.3710 C   0  0  0  0  0  2  0  0  0  0  0  0
  -30.8590  -19.7850   21.5420 C   0  0  0  0  0  2  0  0  0  0  0  0
  -30.0210  -22.0340   20.8310 N   0  0  0  0  0  0  0  0  0  0  0  0
  -29.9880  -19.1180   20.5420 N   0  0  2  0  0  4  0  0  0  0  0  0
  -29.0670  -19.0780   20.9530 H   0  0  0  0  0  0  0  0  0  0  0  0
  -29.3670  -23.2400   21.3620 C   0  0  0  0  0  2  0  0  0  0  0  0
  -29.2900  -24.4370   20.3880 C   0  0  0  0  0  2  0  0  0  0  0  0
  -28.4350  -25.5800   20.9810 C   0  0  0  0  0  2  0  0  0  0  0  0
  -28.4410  -26.7450   20.1510 O   0  0  0  0  0  0  0  0  0  0  0  0
  -24.5990  -31.8880   23.2430 C   0  0  0  0  0  0  0  0  0  0  0  0
  -27.2680  -27.4640   20.1770 C   0  0  0  0  0  0  0  0  0  0  0  0
  -23.4000  -30.4810   21.5970 C   0  0  0  0  0  3  0  0  0  0  0  0
  -24.8620  -28.9420   20.1820 C   0  0  0  0  0  0  0  0  0  0  0  0
  -25.9190  -30.8540   21.4020 C   0  0  0  0  0  2  0  0  0  0  0  0
  -26.0150  -29.4790   20.7690 C   0  0  0  0  0  0  0  0  0  0  0  0
  -27.2240  -28.7480   20.7660 C   0  0  0  0  0  3  0  0  0  0  0  0
  -26.0970  -26.9260   19.6050 C   0  0  0  0  0  3  0  0  0  0  0  0
  -24.8930  -27.6570   19.6060 C   0  0  0  0  0  3  0  0  0  0  0  0
  -23.6130  -29.7940   20.2210 C   0  0  0  0  0  2  0  0  0  0  0  0
  -24.6570  -31.0890   22.1390 N   0  0  0  0  0  0  0  0  0  0  0  0
  -23.5170  -32.1530   23.7830 O   0  0  0  0  0  0  0  0  0  0  0  0
  -22.7520  -29.4590   22.5590 C   0  0  0  0  0  0  0  0  0  0  0  0
  -21.4270  -29.2780   22.4310 N   0  0  0  0  0  0  0  0  0  0  0  0
  -23.4360  -28.8330   23.3740 O   0  0  0  0  0  0  0  0  0  0  0  0
  -20.9360  -29.8430   21.7540 H   0  0  0  0  0  0  0  0  0  0  0  0
  -18.0560  -28.0650   22.9050 C   0  0  0  0  0  0  0  0  0  0  0  0
  -20.6090  -28.3380   23.1930 C   0  0  0  0  0  3  0  0  0  0  0  0
  -20.7220  -26.9030   22.6290 C   0  0  0  0  0  2  0  0  0  0  0  0
  -19.6310  -26.5680   21.6070 C   0  0  0  0  0  2  0  0  0  0  0  0
  -18.2430  -26.7120   22.2410 C   0  0  0  0  0  2  0  0  0  0  0  0
  -19.1680  -28.8350   23.3400 C   0  0  0  0  0  0  0  0  0  0  0  0
  -18.9420  -30.1000   23.9230 C   0  0  0  0  0  3  0  0  0  0  0  0
  -17.6350  -30.5990   24.0770 C   0  0  0  0  0  3  0  0  0  0  0  0
  -16.5370  -29.8250   23.6620 C   0  0  0  0  0  3  0  0  0  0  0  0
  -16.7470  -28.5620   23.0790 C   0  0  0  0  0  3  0  0  0  0  0  0
  -25.8840  -32.5250   23.8640 C   0  0  0  0  0  3  0  0  0  0  0  0
  -25.5690  -33.9210   24.1930 N   0  0  0  0  0  0  0  0  0  0  0  0
  -25.9050  -34.9730   23.4330 C   0  0  0  0  0  0  0  0  0  0  0  0
  -26.5810  -34.8670   22.4050 O   0  0  0  0  0  0  0  0  0  0  0  0
  -24.9700  -34.0720   24.9920 H   0  0  0  0  0  0  0  0  0  0  0  0
  -24.1790  -36.7610   23.0670 C   0  0  0  0  0  1  0  0  0  0  0  0
  -25.4160  -36.3590   23.8840 C   0  0  0  0  0  3  0  0  0  0  0  0
  -27.5490  -37.2470   24.7210 C   0  0  0  0  0  1  0  0  0  0  0  0
  -26.4500  -37.4140   23.7750 N   0  0  0  0  0  0  0  0  0  0  0  0
  -26.0410  -38.3330   23.9220 H   0  0  0  0  0  0  0  0  0  0  0  0
  -26.4060  -31.7540   25.1400 C   0  0  1  0  0  0  0  0  0  0  0  0
  -25.3180  -31.5090   26.2120 C   0  0  0  0  0  1  0  0  0  0  0  0
  -26.9980  -30.3810   24.7420 C   0  0  0  0  0  1  0  0  0  0  0  0
  -27.5550  -32.5490   25.8020 C   0  0  0  0  0  1  0  0  0  0  0  0
  -30.3230  -17.7020   20.2120 C   0  0  0  0  0  2  0  0  0  0  0  0
  -30.2440  -16.7710   21.4530 C   0  0  0  0  0  2  0  0  0  0  0  0
  -30.6630  -14.4440   20.4820 C   0  0  0  0  0  0  0  0  0  0  0  0
  -30.3700  -12.3100   19.2780 C   0  0  0  0  0  2  0  0  0  0  0  0
  -29.4190  -12.5300   18.0840 C   0  0  0  0  0  2  0  0  0  0  0  0
  -27.9440  -12.4020   18.5200 C   0  0  0  0  0  2  0  0  0  0  0  0
  -27.6160  -13.2320   19.7910 C   0  0  0  0  0  3  0  0  0  0  0  0
  -28.6710  -12.9560   20.8860 C   0  0  0  0  0  2  0  0  0  0  0  0
  -30.0000  -13.2690   20.3240 N   0  0  0  0  0  0  0  0  0  0  0  0
  -31.7570  -14.6990   19.9720 O   0  0  0  0  0  0  0  0  0  0  0  0
  -29.9590  -15.3660   21.1520 N   0  0  0  0  0  0  0  0  0  0  0  0
  -29.0670  -15.0280   21.4830 H   0  0  0  0  0  0  0  0  0  0  0  0
  -25.2130  -13.8620   20.4910 C   0  0  0  0  0  0  0  0  0  0  0  0
  -24.1410  -13.0970   20.8680 C   0  0  0  0  0  0  0  0  0  0  0  0
  -24.5980  -11.7430   20.8440 C   0  0  0  0  0  0  0  0  0  0  0  0
  -26.2560  -12.9730   20.2670 N   0  0  0  0  0  0  0  0  0  0  0  0
  -25.8860  -11.6950   20.5340 N   0  0  0  0  0  0  0  0  0  0  0  0
  -23.8680  -10.4840   21.0430 C   0  0  0  0  0  0  0  0  0  0  0  0
  -24.3070   -9.5110   21.9700 C   0  0  0  0  0  3  0  0  0  0  0  0
  -23.5780   -8.3170   22.1520 C   0  0  0  0  0  3  0  0  0  0  0  0
  -22.3950   -8.0860   21.4090 C   0  0  0  0  0  0  0  0  0  0  0  0
  -21.9750   -9.0470   20.4730 C   0  0  0  0  0  3  0  0  0  0  0  0
  -22.7070  -10.2330   20.2870 C   0  0  0  0  0  3  0  0  0  0  0  0
  -21.6370   -6.9440   21.5040 O   0  0  0  0  0  0  0  0  0  0  0  0
  -21.6100   -6.1910   22.6510 C   0  0  0  0  0  0  0  0  0  0  0  0
  -21.2270   -6.7410   23.8940 C   0  0  0  0  0  3  0  0  0  0  0  0
  -21.1440   -5.9150   25.0320 C   0  0  0  0  0  3  0  0  0  0  0  0
  -21.4360   -4.5420   24.9320 C   0  0  0  0  0  0  0  0  0  0  0  0
  -21.8150   -3.9930   23.6930 C   0  0  0  0  0  3  0  0  0  0  0  0
  -21.8980   -4.8150   22.5560 C   0  0  0  0  0  0  0  0  0  0  0  0
  -22.2420   -4.2750   21.3620 F   0  0  0  0  0  0  0  0  0  0  0  0
  -21.3500   -3.7470   26.0230 F   0  0  0  0  0  0  0  0  0  0  0  0
  -22.7450  -13.5810   21.1390 C   0  0  0  0  0  0  0  0  0  0  0  0
  -22.0140  -12.8890   22.0090 N   0  0  0  0  0  0  0  0  0  0  0  0
  -22.3080  -14.6060   20.6200 O   0  0  0  0  0  0  0  0  0  0  0  0
  -22.3720  -12.0520   22.4420 H   0  0  0  0  0  0  0  0  0  0  0  0
  -21.0810  -13.1990   22.2380 H   0  0  0  0  0  0  0  0  0  0  0  0
  -25.3860  -15.2290   20.3000 N   0  0  0  0  0  0  0  0  0  0  0  0
  -24.6310  -15.8970   20.4060 H   0  0  0  0  0  0  0  0  0  0  0  0
  -26.2340  -15.6470   19.9360 H   0  0  0  0  0  0  0  0  0  0  0  0
  1  5  1  0
  3  1  1  0
  3  6  1  0
  4  2  1  0
  5  8  1  0
  5  2  1  0
  6  7  1  1
  6  4  1  0
  9 10  1  0
  9  8  1  0
 11 13  1  0
 11 10  1  0
 12 23  2  0
 13 18  1  0
 14 22  1  0
 14 24  1  0
 15 21  1  0
 15 17  1  0
 16 22  1  0
 17 16  1  0
 18 17  2  0
 19 20  1  0
 19 13  2  0
 20 15  2  0
 21 14  1  0
 22 12  1  0
 24 26  2  0
 25 24  1  0
 27 25  1  0
 28 37  2  0
 28 33  1  0
 29 25  1  0
 29 33  1  0
 30 29  1  0
 31 32  1  0
 31 30  1  0
 32 28  1  0
 33 34  2  0
 34 35  1  0
 36 35  2  0
 37 36  1  0
 38 12  1  0
 38 39  1  0
 38 48  1  0
 39 42  1  0
 40 44  1  0
 40 39  1  0
 41 40  2  0
 44 43  1  0
 46 44  1  0
 46 47  1  0
 46 45  1  0
 48 51  1  1
 48 49  1  0
 50 48  1  0
 52  6  1  0
 52 53  1  0
 54 62  1  0
 55 60  1  0
 56 57  1  0
 56 55  1  0
 58 57  1  0
 58 67  1  0
 58 59  1  0
 60 54  1  0
 60 59  1  0
 61 54  2  0
 62 53  1  0
 62 63  1  0
 64 65  2  0
 65 84  1  0
 66 65  1  0
 66 69  1  0
 67 64  1  0
 67 68  1  0
 68 66  2  0
 69 70  1  0
 70 71  2  0
 72 75  1  0
 72 71  1  0
 73 72  2  0
 74 73  1  0
 74 69  2  0
 75 76  1  0
 76 77  1  0
 77 78  2  0
 79 78  1  0
 79 83  1  0
 80 79  2  0
 81 76  2  0
 81 80  1  0
 82 81  1  0
 84 85  1  0
 85 88  1  0
 85 87  1  0
 86 84  2  0
 89 90  1  0
 89 64  1  0
 91 89  1  0
M  ISO  4  10 101  11 101  54 100  62 100
M  END
>  <TORSDO>  (9) 
F 21

>  <SCORE>  (9) 
-13.625

>  <name>  (9) 
8

>  <ligand_id>  (9) 
8

>  <original_smiles>  (9) 
[H]c1c([H])c([H])c2c(c1[H])C([H])([H])C([H])([H])C([H])([H])C2([H])N([H])C(=O)C1([H])N(C(=O)C([H])(N([H])C(=O)C([H])(N([H])C([H])([H])[H])C([H])([H])[H])C(C([H])([H])[H])(C([H])([H])[H])C([H])([H])[H])C([H])([H])c2c([H])c(OC([H])([H])C([H])([H])C([H])([H])N3C([H])([H])C([H])([H])[N+]([H])(C([H])([H])C([H])([H])N([H])C(=O)N4C([H])([H])C([H])([H])C([H])([H])C([H])(n5nc(-c6c([H])c([H])c(Oc7c([H])c([H])c(F)c([H])c7F)c([H])c6[H])c(C(=O)N([H])[H])c5N([H])[H])C4([H])[H])C([H])([H])C3([H])[H])c([H])c([H])c2C1([H])[H]

>  <smiles>  (9) 
[H]c1c([H])c([H])c2c(c1[H])C([H])([H])C([H])([H])C([H])([H])C2([H])N([H])C(=O)C1([H])N(C(=O)C([H])(N([H])C(=O)C([H])(N([H])C([H])([H])[H])C([H])([H])[H])C(C([H])([H])[H])(C([H])([H])[H])C([H])([H])[H])C([H])([H])c2c([H])c(OC([H])([H])C([H])([H])C([H])([H])N3C([H])([H])C([H])([H])[N+]([H])(C([H])([H])C([H])([H])N([H])C(=O)N4C([H])([H])C([H])([H])C([H])([H])C([H])(n5nc(-c6c([H])c([H])c(Oc7c([H])c([H])c(F)c([H])c7F)c([H])c6[H])c(C(=O)N([H])[H])c5N([H])[H])C4([H])[H])C([H])([H])C3([H])[H])c([H])c([H])c2C1([H])[H]

$$$$
9:0:0
     RDKit          3D

 91 98  0  0  1  0  0  0  0  0999 V2000
  -28.8930  -20.6720   20.4410 C   0  0  0  0  0  0  0  0  0  0  0  0
  -28.6680  -22.1350   20.4790 N   0  0  0  0  0  0  0  0  0  0  0  0
  -28.0200  -19.9070   21.1350 N   0  0  0  0  0  4  0  0  0  0  0  0
  -28.0670  -18.8980   21.0990 H   0  0  0  0  0  0  0  0  0  0  0  0
  -27.2460  -20.3150   21.6370 H   0  0  0  0  0  0  0  0  0  0  0  0
  -26.2970  -22.9340   20.8160 C   0  0  0  0  0  1  0  0  0  0  0  0
  -27.6180  -22.5010   21.4780 C   0  0  0  0  0  2  0  0  0  0  0  0
  -30.2820  -23.3230   18.8230 C   0  0  0  0  0  1  0  0  0  0  0  0
  -29.2420  -23.5380   19.9290 C   0  0  0  0  0  3  0  0  0  0  0  0
  -28.2520  -24.9070   19.5850 C   0  0  0  0  0  2  0  0  0  0  0  0
  -28.4970  -26.4520   19.7740 O   0  0  0  0  0  0  0  0  0  0  0  0
  -24.6910  -31.8310   23.1460 C   0  0  0  0  0  0  0  0  0  0  0  0
  -27.4110  -27.4150   19.7850 C   0  0  0  0  0  0  0  0  0  0  0  0
  -23.5270  -30.4930   21.4380 C   0  0  0  0  0  3  0  0  0  0  0  0
  -25.0160  -29.0770   19.8930 C   0  0  0  0  0  0  0  0  0  0  0  0
  -26.0660  -30.8770   21.2530 C   0  0  0  0  0  2  0  0  0  0  0  0
  -26.1870  -29.5300   20.5130 C   0  0  0  0  0  0  0  0  0  0  0  0
  -27.3850  -28.7150   20.4410 C   0  0  0  0  0  3  0  0  0  0  0  0
  -26.2050  -27.0760   19.1280 C   0  0  0  0  0  3  0  0  0  0  0  0
  -25.0400  -27.8690   19.1840 C   0  0  0  0  0  3  0  0  0  0  0  0
  -23.7520  -29.9150   20.0150 C   0  0  0  0  0  2  0  0  0  0  0  0
  -24.7820  -31.0860   22.0020 N   0  0  0  0  0  0  0  0  0  0  0  0
  -23.6010  -32.0320   23.7050 O   0  0  0  0  0  0  0  0  0  0  0  0
  -22.9070  -29.3970   22.3420 C   0  0  0  0  0  0  0  0  0  0  0  0
  -21.5920  -29.1500   22.2000 N   0  0  0  0  0  0  0  0  0  0  0  0
  -23.6120  -28.7700   23.1360 O   0  0  0  0  0  0  0  0  0  0  0  0
  -21.0740  -29.7120   21.5380 H   0  0  0  0  0  0  0  0  0  0  0  0
  -18.2880  -27.7280   22.6320 C   0  0  0  0  0  0  0  0  0  0  0  0
  -20.8280  -28.1270   22.9180 C   0  0  0  0  0  3  0  0  0  0  0  0
  -21.0120  -26.7350   22.2680 C   0  0  0  0  0  2  0  0  0  0  0  0
  -19.9300  -26.4040   21.2350 C   0  0  0  0  0  2  0  0  0  0  0  0
  -18.5430  -26.4310   21.8840 C   0  0  0  0  0  2  0  0  0  0  0  0
  -19.3610  -28.5320   23.1040 C   0  0  0  0  0  0  0  0  0  0  0  0
  -19.0660  -29.7420   23.7670 C   0  0  0  0  0  3  0  0  0  0  0  0
  -17.7330  -30.1500   23.9670 C   0  0  0  0  0  3  0  0  0  0  0  0
  -16.6760  -29.3440   23.5090 C   0  0  0  0  0  3  0  0  0  0  0  0
  -16.9540  -28.1370   22.8440 C   0  0  0  0  0  3  0  0  0  0  0  0
  -25.9460  -32.4850   23.7970 C   0  0  0  0  0  3  0  0  0  0  0  0
  -25.5940  -33.8650   24.1680 N   0  0  0  0  0  0  0  0  0  0  0  0
  -25.8640  -34.9500   23.4280 C   0  0  0  0  0  0  0  0  0  0  0  0
  -26.5010  -34.8950   22.3740 O   0  0  0  0  0  0  0  0  0  0  0  0
  -25.0200  -33.9770   24.9900 H   0  0  0  0  0  0  0  0  0  0  0  0
  -24.0450  -36.6780   23.2040 C   0  0  0  0  0  1  0  0  0  0  0  0
  -25.3450  -36.3100   23.9380 C   0  0  0  0  0  3  0  0  0  0  0  0
  -27.4800  -37.2810   24.6690 C   0  0  0  0  0  1  0  0  0  0  0  0
  -26.3250  -37.4080   23.7840 N   0  0  0  0  0  0  0  0  0  0  0  0
  -25.8870  -38.3090   23.9600 H   0  0  0  0  0  0  0  0  0  0  0  0
  -26.4710  -31.6970   25.0610 C   0  0  1  0  0  0  0  0  0  0  0  0
  -25.3750  -31.4070   26.1140 C   0  0  0  0  0  1  0  0  0  0  0  0
  -27.0920  -30.3430   24.6440 C   0  0  0  0  0  1  0  0  0  0  0  0
  -27.5990  -32.5020   25.7480 C   0  0  0  0  0  1  0  0  0  0  0  0
  -29.9090  -19.6010   19.7270 C   0  0  0  0  0  2  0  0  0  0  0  0
  -30.4040  -18.1260   20.4690 C   0  0  0  0  0  2  0  0  0  0  0  0
  -30.8190  -15.3910   20.0740 C   0  0  0  0  0  0  0  0  0  0  0  0
  -30.7030  -13.0130   19.1700 C   0  0  0  0  0  2  0  0  0  0  0  0
  -29.7520  -12.9170   17.9550 C   0  0  0  0  0  2  0  0  0  0  0  0
  -28.3010  -12.6890   18.4200 C   0  0  0  0  0  2  0  0  0  0  0  0
  -27.8990  -13.6440   19.5740 C   0  0  0  0  0  3  0  0  0  0  0  0
  -28.9700  -13.7080   20.6810 C   0  0  0  0  0  2  0  0  0  0  0  0
  -30.2200  -14.1290   20.0340 N   0  0  0  0  0  0  0  0  0  0  0  0
  -32.0320  -15.4350   19.8390 O   0  0  0  0  0  0  0  0  0  0  0  0
  -30.0450  -16.5930   20.1790 N   0  0  0  0  0  0  0  0  0  0  0  0
  -29.0560  -16.3980   20.2220 H   0  0  0  0  0  0  0  0  0  0  0  0
  -25.5420  -14.2280   20.3770 C   0  0  0  0  0  0  0  0  0  0  0  0
  -24.4810  -13.4540   20.7600 C   0  0  0  0  0  0  0  0  0  0  0  0
  -24.9360  -12.1010   20.7000 C   0  0  0  0  0  0  0  0  0  0  0  0
  -26.5730  -13.3460   20.1020 N   0  0  0  0  0  0  0  0  0  0  0  0
  -26.2200  -12.0600   20.3630 N   0  0  0  0  0  0  0  0  0  0  0  0
  -24.2040  -10.8410   20.8850 C   0  0  0  0  0  0  0  0  0  0  0  0
  -24.6160   -9.8800   21.8330 C   0  0  0  0  0  3  0  0  0  0  0  0
  -23.8840   -8.6850   22.0060 C   0  0  0  0  0  3  0  0  0  0  0  0
  -22.7250   -8.4440   21.2310 C   0  0  0  0  0  0  0  0  0  0  0  0
  -22.3310   -9.3950   20.2720 C   0  0  0  0  0  3  0  0  0  0  0  0
  -23.0640  -10.5810   20.0980 C   0  0  0  0  0  3  0  0  0  0  0  0
  -21.9650   -7.3020   21.3120 O   0  0  0  0  0  0  0  0  0  0  0  0
  -21.8600   -6.5900   22.4800 C   0  0  0  0  0  0  0  0  0  0  0  0
  -21.3540   -7.1720   23.6650 C   0  0  0  0  0  3  0  0  0  0  0  0
  -21.2000   -6.3850   24.8240 C   0  0  0  0  0  3  0  0  0  0  0  0
  -21.5380   -5.0190   24.8000 C   0  0  0  0  0  0  0  0  0  0  0  0
  -22.0350   -4.4370   23.6200 C   0  0  0  0  0  3  0  0  0  0  0  0
  -22.1940   -5.2210   22.4630 C   0  0  0  0  0  0  0  0  0  0  0  0
  -22.6540   -4.6510   21.3240 F   0  0  0  0  0  0  0  0  0  0  0  0
  -21.3820   -4.2610   25.9100 F   0  0  0  0  0  0  0  0  0  0  0  0
  -23.0930  -13.9380   21.0610 C   0  0  0  0  0  0  0  0  0  0  0  0
  -22.3750  -13.2340   21.9310 N   0  0  0  0  0  0  0  0  0  0  0  0
  -22.6540  -14.9720   20.5620 O   0  0  0  0  0  0  0  0  0  0  0  0
  -22.7440  -12.3960   22.3540 H   0  0  0  0  0  0  0  0  0  0  0  0
  -21.4440  -13.5380   22.1760 H   0  0  0  0  0  0  0  0  0  0  0  0
  -25.7090  -15.5990   20.2080 N   0  0  0  0  0  0  0  0  0  0  0  0
  -24.9340  -16.2450   20.3110 H   0  0  0  0  0  0  0  0  0  0  0  0
  -26.5260  -16.0260   19.7920 H   0  0  0  0  0  0  0  0  0  0  0  0
  1  2  1  0
  1  3  2  0
  2  7  1  0
  3  5  1  0
  4  3  1  0
  6  7  1  0
  9  8  1  0
  9  2  1  0
 10 11  1  0
 10  9  1  0
 11 13  1  0
 12 23  2  0
 13 18  1  0
 14 22  1  0
 14 24  1  0
 15 21  1  0
 15 17  1  0
 16 22  1  0
 17 16  1  0
 18 17  2  0
 19 20  1  0
 19 13  2  0
 20 15  2  0
 21 14  1  0
 22 12  1  0
 24 26  2  0
 25 24  1  0
 27 25  1  0
 28 37  2  0
 28 33  1  0
 29 25  1  0
 29 33  1  0
 30 29  1  0
 31 32  1  0
 31 30  1  0
 32 28  1  0
 33 34  2  0
 34 35  1  0
 36 35  2  0
 37 36  1  0
 38 12  1  0
 38 39  1  0
 38 48  1  0
 39 42  1  0
 40 44  1  0
 40 39  1  0
 41 40  2  0
 44 43  1  0
 46 44  1  0
 46 47  1  0
 46 45  1  0
 48 51  1  1
 48 49  1  0
 50 48  1  0
 52  1  1  0
 52 53  1  0
 54 62  1  0
 55 60  1  0
 56 57  1  0
 56 55  1  0
 58 57  1  0
 58 67  1  0
 58 59  1  0
 60 54  1  0
 60 59  1  0
 61 54  2  0
 62 63  1  0
 62 53  1  0
 64 65  2  0
 65 84  1  0
 66 65  1  0
 66 69  1  0
 67 68  1  0
 67 64  1  0
 68 66  2  0
 69 70  1  0
 70 71  2  0
 72 75  1  0
 72 71  1  0
 73 72  2  0
 74 73  1  0
 74 69  2  0
 75 76  1  0
 76 77  1  0
 77 78  2  0
 79 78  1  0
 79 83  1  0
 80 79  2  0
 81 76  2  0
 81 80  1  0
 82 81  1  0
 84 85  1  0
 85 88  1  0
 85 87  1  0
 86 84  2  0
 89 90  1  0
 89 64  1  0
 91 89  1  0
M  ISO  4  10 101  11 101  54 100  62 100
M  END
>  <TORSDO>  (10) 
F 21

>  <SCORE>  (10) 
-14.040

>  <name>  (10) 
9

>  <ligand_id>  (10) 
9

>  <original_smiles>  (10) 
[H]c1c([H])c([H])c2c(c1[H])C([H])([H])C([H])([H])C([H])([H])C2([H])N([H])C(=O)C1([H])N(C(=O)C([H])(N([H])C(=O)C([H])(N([H])C([H])([H])[H])C([H])([H])[H])C(C([H])([H])[H])(C([H])([H])[H])C([H])([H])[H])C([H])([H])c2c([H])c(OC([H])([H])C([H])(N(C(=[N+]([H])[H])C([H])([H])C([H])([H])N([H])C(=O)N3C([H])([H])C([H])([H])C([H])([H])C([H])(n4nc(-c5c([H])c([H])c(Oc6c([H])c([H])c(F)c([H])c6F)c([H])c5[H])c(C(=O)N([H])[H])c4N([H])[H])C3([H])[H])C([H])([H])C([H])([H])[H])C([H])([H])[H])c([H])c([H])c2C1([H])[H]

>  <smiles>  (10) 
[H]c1c([H])c([H])c2c(c1[H])C([H])([H])C([H])([H])C([H])([H])C2([H])N([H])C(=O)C1([H])N(C(=O)C([H])(N([H])C(=O)C([H])(N([H])C([H])([H])[H])C([H])([H])[H])C(C([H])([H])[H])(C([H])([H])[H])C([H])([H])[H])C([H])([H])c2c([H])c(OC([H])([H])C([H])(N(C(=[N+]([H])[H])C([H])([H])C([H])([H])N([H])C(=O)N3C([H])([H])C([H])([H])C([H])([H])C([H])(n4nc(-c5c([H])c([H])c(Oc6c([H])c([H])c(F)c([H])c6F)c([H])c5[H])c(C(=O)N([H])[H])c4N([H])[H])C3([H])[H])C([H])([H])C([H])([H])[H])C([H])([H])[H])c([H])c([H])c2C1([H])[H]

$$$$
10:0:0
     RDKit          3D

100107  0  0  1  0  0  0  0  0999 V2000
  -28.6490  -22.2770   20.3510 N   0  0  0  0  0  0  0  0  0  0  0  0
  -29.7760  -21.2740   20.1710 C   0  0  0  0  0  2  0  0  0  0  0  0
  -30.2010  -18.6080   20.2130 C   0  0  0  0  0  3  0  0  0  0  0  0
  -29.7210  -19.7920   20.7500 C   0  0  0  0  0  3  0  0  0  0  0  0
  -30.4690  -17.2370   20.9670 C   0  0  0  0  0  2  0  0  0  0  0  0
  -30.9090  -14.7400   20.2520 C   0  0  0  0  0  0  0  0  0  0  0  0
  -30.7220  -12.4260   19.3190 C   0  0  0  0  0  2  0  0  0  0  0  0
  -29.7860  -12.4270   18.0910 C   0  0  0  0  0  2  0  0  0  0  0  0
  -28.3130  -12.2750   18.5220 C   0  0  0  0  0  2  0  0  0  0  0  0
  -27.9310  -13.2240   19.6890 C   0  0  0  0  0  3  0  0  0  0  0  0
  -28.9830  -13.1930   20.8180 C   0  0  0  0  0  2  0  0  0  0  0  0
  -30.2800  -13.5180   20.2090 N   0  0  0  0  0  0  0  0  0  0  0  0
  -32.1050  -14.8430   19.9700 O   0  0  0  0  0  0  0  0  0  0  0  0
  -30.1190  -15.8560   20.4380 N   0  0  0  0  0  0  0  0  0  0  0  0
  -29.1360  -15.6330   20.4960 H   0  0  0  0  0  0  0  0  0  0  0  0
  -25.5530  -13.8570   20.4150 C   0  0  0  0  0  0  0  0  0  0  0  0
  -24.4770  -13.1020   20.7910 C   0  0  0  0  0  0  0  0  0  0  0  0
  -24.9180  -11.7450   20.7680 C   0  0  0  0  0  0  0  0  0  0  0  0
  -26.5830  -12.9610   20.1840 N   0  0  0  0  0  0  0  0  0  0  0  0
  -26.2080  -11.6850   20.4590 N   0  0  0  0  0  0  0  0  0  0  0  0
  -24.1740  -10.4940   20.9650 C   0  0  0  0  0  0  0  0  0  0  0  0
  -24.5780   -9.5360   21.9180 C   0  0  0  0  0  3  0  0  0  0  0  0
  -23.8340   -8.3510   22.1020 C   0  0  0  0  0  3  0  0  0  0  0  0
  -22.6720   -8.1160   21.3310 C   0  0  0  0  0  0  0  0  0  0  0  0
  -22.2860   -9.0640   20.3650 C   0  0  0  0  0  3  0  0  0  0  0  0
  -23.0300  -10.2400   20.1800 C   0  0  0  0  0  3  0  0  0  0  0  0
  -21.9010   -6.9820   21.4220 O   0  0  0  0  0  0  0  0  0  0  0  0
  -21.8010   -6.2730   22.5910 C   0  0  0  0  0  0  0  0  0  0  0  0
  -21.3110   -6.8590   23.7800 C   0  0  0  0  0  3  0  0  0  0  0  0
  -21.1600   -6.0750   24.9420 C   0  0  0  0  0  3  0  0  0  0  0  0
  -21.4870   -4.7060   24.9150 C   0  0  0  0  0  0  0  0  0  0  0  0
  -21.9690   -4.1200   23.7320 C   0  0  0  0  0  3  0  0  0  0  0  0
  -22.1220   -4.9010   22.5720 C   0  0  0  0  0  0  0  0  0  0  0  0
  -22.5670   -4.3260   21.4290 F   0  0  0  0  0  0  0  0  0  0  0  0
  -21.3340   -3.9500   26.0280 F   0  0  0  0  0  0  0  0  0  0  0  0
  -23.0870  -13.6020   21.0590 C   0  0  0  0  0  0  0  0  0  0  0  0
  -22.3520  -12.9290   21.9360 N   0  0  0  0  0  0  0  0  0  0  0  0
  -22.6620  -14.6270   20.5260 O   0  0  0  0  0  0  0  0  0  0  0  0
  -22.7090  -12.0990   22.3870 H   0  0  0  0  0  0  0  0  0  0  0  0
  -21.4200  -13.2470   22.1620 H   0  0  0  0  0  0  0  0  0  0  0  0
  -25.7330  -15.2250   20.2270 N   0  0  0  0  0  0  0  0  0  0  0  0
  -24.9620  -15.8770   20.3270 H   0  0  0  0  0  0  0  0  0  0  0  0
  -26.5720  -15.6540   19.8570 H   0  0  0  0  0  0  0  0  0  0  0  0
  -29.0420  -23.7560   20.2470 C   0  0  0  0  0  3  0  0  0  0  0  0
  -27.9140  -24.9290   20.2850 C   0  0  0  0  0  3  0  0  0  0  0  0
  -28.2230  -26.4040   20.2520 O   0  0  0  0  0  0  0  0  0  0  0  0
  -24.6080  -31.9540   23.2470 C   0  0  0  0  0  0  0  0  0  0  0  0
  -27.1380  -27.3150   20.1940 C   0  0  0  0  0  0  0  0  0  0  0  0
  -23.3850  -30.5730   21.6130 C   0  0  0  0  0  3  0  0  0  0  0  0
  -24.8090  -29.0060   20.1830 C   0  0  0  0  0  0  0  0  0  0  0  0
  -25.9340  -30.8430   21.4300 C   0  0  0  0  0  2  0  0  0  0  0  0
  -25.9920  -29.4620   20.7780 C   0  0  0  0  0  0  0  0  0  0  0  0
  -27.1600  -28.6320   20.7690 C   0  0  0  0  0  3  0  0  0  0  0  0
  -25.9240  -26.9300   19.5750 C   0  0  0  0  0  3  0  0  0  0  0  0
  -24.7800  -27.7470   19.5720 C   0  0  0  0  0  3  0  0  0  0  0  0
  -23.5900  -29.9040   20.2310 C   0  0  0  0  0  2  0  0  0  0  0  0
  -24.6630  -31.1410   22.1520 N   0  0  0  0  0  0  0  0  0  0  0  0
  -23.5280  -32.2480   23.7820 O   0  0  0  0  0  0  0  0  0  0  0  0
  -22.7110  -29.5610   22.5730 C   0  0  0  0  0  0  0  0  0  0  0  0
  -21.3850  -29.3830   22.4330 N   0  0  0  0  0  0  0  0  0  0  0  0
  -23.3790  -28.9420   23.4040 O   0  0  0  0  0  0  0  0  0  0  0  0
  -20.9050  -29.9350   21.7360 H   0  0  0  0  0  0  0  0  0  0  0  0
  -17.9950  -28.2140   22.9360 C   0  0  0  0  0  0  0  0  0  0  0  0
  -20.5570  -28.4540   23.2050 C   0  0  0  0  0  3  0  0  0  0  0  0
  -20.6460  -27.0220   22.6320 C   0  0  0  0  0  2  0  0  0  0  0  0
  -19.5410  -26.7080   21.6180 C   0  0  0  0  0  2  0  0  0  0  0  0
  -18.1590  -26.8640   22.2590 C   0  0  0  0  0  2  0  0  0  0  0  0
  -19.1220  -28.9670   23.3650 C   0  0  0  0  0  0  0  0  0  0  0  0
  -18.9140  -30.2320   23.9600 C   0  0  0  0  0  3  0  0  0  0  0  0
  -17.6140  -30.7440   24.1270 C   0  0  0  0  0  3  0  0  0  0  0  0
  -16.5030  -29.9900   23.7090 C   0  0  0  0  0  3  0  0  0  0  0  0
  -16.6940  -28.7260   23.1230 C   0  0  0  0  0  3  0  0  0  0  0  0
  -25.8990  -32.5690   23.8680 C   0  0  0  0  0  3  0  0  0  0  0  0
  -26.4060  -31.7890   25.1430 C   0  0  1  0  0  0  0  0  0  0  0  0
  -25.3080  -31.5600   26.2080 C   0  0  0  0  0  1  0  0  0  0  0  0
  -26.9800  -30.4050   24.7560 C   0  0  0  0  0  1  0  0  0  0  0  0
  -27.5610  -32.5760   25.8090 C   0  0  0  0  0  1  0  0  0  0  0  0
  -25.6020  -33.9690   24.2020 N   0  0  0  0  0  0  0  0  0  0  0  0
  -25.9220  -35.0210   23.4360 C   0  0  0  0  0  0  0  0  0  0  0  0
  -26.5680  -34.9140   22.3900 O   0  0  0  0  0  0  0  0  0  0  0  0
  -25.0200  -34.1260   25.0120 H   0  0  0  0  0  0  0  0  0  0  0  0
  -24.1900  -36.8230   23.1290 C   0  0  0  0  0  1  0  0  0  0  0  0
  -25.4530  -36.4120   23.9040 C   0  0  0  0  0  3  0  0  0  0  0  0
  -27.6070  -37.2970   24.6810 C   0  0  0  0  0  1  0  0  0  0  0  0
  -26.4850  -37.4620   23.7600 N   0  0  0  0  0  0  0  0  0  0  0  0
  -26.0850  -38.3840   23.9110 H   0  0  0  0  0  0  0  0  0  0  0  0
  -27.4270  -22.0310   19.5480 C   0  0  0  0  0  2  0  0  0  0  0  0
  -27.2530  -20.7030   18.7530 C   0  0  0  0  0  3  0  0  0  0  0  0
  -26.8490  -19.5910   19.6290 N   0  0  0  0  0  4  0  0  0  0  0  0
  -25.9730  -19.7730   20.0870 H   0  0  0  0  0  0  0  0  0  0  0  0
  -27.5570  -19.4620   20.3320 H   0  0  0  0  0  0  0  0  0  0  0  0
  -26.7710  -18.7410   19.0970 H   0  0  0  0  0  0  0  0  0  0  0  0
  -26.2830  -20.8580   17.5560 C   0  0  0  0  0  2  0  0  0  0  0  0
  -24.9300  -21.5410   17.8480 C   0  0  0  0  0  2  0  0  0  0  0  0
  -24.1950  -21.9290   16.5520 C   0  0  0  0  0  2  0  0  0  0  0  0
  -22.9450  -22.7940   16.8050 C   0  0  0  0  0  2  0  0  0  0  0  0
  -22.3270  -23.2590   15.5520 N   0  0  0  0  0  4  0  0  0  0  0  0
  -22.9460  -23.8740   15.0550 H   0  0  0  0  0  0  0  0  0  0  0  0
  -21.4840  -23.7660   15.7560 H   0  0  0  0  0  0  0  0  0  0  0  0
  -22.0900  -22.4870   14.9570 H   0  0  0  0  0  0  0  0  0  0  0  0
  2  1  1  0
  2  4  1  0
  3  4  2  0
  3  5  1  0
  6 14  1  0
  7 12  1  0
  8  9  1  0
  8  7  1  0
 10  9  1  0
 10 19  1  0
 10 11  1  0
 12  6  1  0
 12 11  1  0
 13  6  2  0
 14 15  1  0
 14  5  1  0
 16 17  2  0
 17 36  1  0
 18 17  1  0
 18 21  1  0
 19 16  1  0
 19 20  1  0
 20 18  2  0
 21 22  1  0
 22 23  2  0
 24 27  1  0
 24 23  1  0
 25 24  2  0
 26 25  1  0
 26 21  2  0
 27 28  1  0
 28 29  1  0
 29 30  2  0
 31 30  1  0
 31 35  1  0
 32 31  2  0
 33 28  2  0
 33 32  1  0
 34 33  1  0
 36 37  1  0
 37 40  1  0
 37 39  1  0
 38 36  2  0
 41 42  1  0
 41 16  1  0
 43 41  1  0
 44 45  2  0
 44  1  1  0
 46 45  1  0
 47 58  2  0
 48 46  1  0
 48 53  1  0
 49 57  1  0
 49 59  1  0
 50 56  1  0
 50 52  1  0
 51 57  1  0
 52 51  1  0
 53 52  2  0
 54 48  2  0
 55 54  1  0
 55 50  2  0
 56 49  1  0
 57 47  1  0
 59 61  2  0
 60 59  1  0
 62 60  1  0
 63 72  2  0
 63 68  1  0
 64 60  1  0
 64 68  1  0
 65 64  1  0
 66 67  1  0
 66 65  1  0
 67 63  1  0
 68 69  2  0
 69 70  1  0
 71 70  2  0
 72 71  1  0
 73 47  1  0
 73 78  1  0
 73 74  1  0
 74 77  1  1
 74 75  1  0
 76 74  1  0
 78 81  1  0
 79 83  1  0
 79 78  1  0
 80 79  2  0
 83 82  1  0
 85 83  1  0
 85 86  1  0
 85 84  1  0
 87  1  1  0
 88 93  1  0
 88 87  1  0
 88 89  1  0
 89 90  1  0
 89 91  1  0
 92 89  1  0
 93 94  1  0
 95 96  1  0
 95 94  1  0
 97 99  1  0
 97 96  1  0
 98 97  1  0
100 97  1  0
M  ISO  4   6 100  14 100  45 101  46 101
M  END
>  <TORSDO>  (11) 
F 29

>  <SCORE>  (11) 
-11.433

>  <name>  (11) 
10

>  <ligand_id>  (11) 
10

>  <original_smiles>  (11) 
[H]C(=C([H])C([H])([H])N(C([H])([H])C([H])([H])Oc1c([H])c([H])c2c(c1[H])C([H])([H])N(C(=O)C([H])(N([H])C(=O)C([H])(N([H])C([H])([H])[H])C([H])([H])[H])C(C([H])([H])[H])(C([H])([H])[H])C([H])([H])[H])C([H])(C(=O)N([H])C1([H])c3c([H])c([H])c([H])c([H])c3C([H])([H])C([H])([H])C1([H])[H])C2([H])[H])C([H])([H])C([H])(C([H])([H])C([H])([H])C([H])([H])C([H])([H])[N+]([H])([H])[H])[N+]([H])([H])[H])C([H])([H])N([H])C(=O)N1C([H])([H])C([H])([H])C([H])([H])C([H])(n2nc(-c3c([H])c([H])c(Oc4c([H])c([H])c(F)c([H])c4F)c([H])c3[H])c(C(=O)N([H])[H])c2N([H])[H])C1([H])[H]

>  <smiles>  (11) 
[H]C(=C([H])C([H])([H])N(C([H])([H])C([H])([H])Oc1c([H])c([H])c2c(c1[H])C([H])([H])N(C(=O)C([H])(N([H])C(=O)C([H])(N([H])C([H])([H])[H])C([H])([H])[H])C(C([H])([H])[H])(C([H])([H])[H])C([H])([H])[H])C([H])(C(=O)N([H])C1([H])c3c([H])c([H])c([H])c([H])c3C([H])([H])C([H])([H])C1([H])[H])C2([H])[H])C([H])([H])C([H])(C([H])([H])C([H])([H])C([H])([H])C([H])([H])[N+]([H])([H])[H])[N+]([H])([H])[H])C([H])([H])N([H])C(=O)N1C([H])([H])C([H])([H])C([H])([H])C([H])(n2nc(-c3c([H])c([H])c(Oc4c([H])c([H])c(F)c([H])c4F)c([H])c3[H])c(C(=O)N([H])[H])c2N([H])[H])C1([H])[H]

$$$$
11:0:0
     RDKit          3D

102109  0  0  1  0  0  0  0  0999 V2000
  -29.1290  -21.9180   19.9950 N   0  0  2  0  0  4  0  0  0  0  0  0
  -28.9830  -21.8310   18.9990 H   0  0  0  0  0  0  0  0  0  0  0  0
  -30.5860  -22.2620   20.1800 C   0  0  0  0  0  3  0  0  0  0  0  0
  -31.1530  -21.5630   21.4670 C   0  0  0  0  0  2  0  0  0  0  0  0
  -32.6770  -21.4810   21.6880 C   0  0  0  0  0  2  0  0  0  0  0  0
  -33.0230  -20.3610   22.6970 C   0  0  0  0  0  2  0  0  0  0  0  0
  -34.4720  -20.1640   22.8670 N   0  0  0  0  0  4  0  0  0  0  0  0
  -34.9230  -19.9590   21.9930 H   0  0  0  0  0  0  0  0  0  0  0  0
  -34.6320  -19.3880   23.4840 H   0  0  0  0  0  0  0  0  0  0  0  0
  -34.8960  -20.9770   23.2780 H   0  0  0  0  0  0  0  0  0  0  0  0
  -30.8080  -23.8050   20.1760 C   0  0  0  0  0  2  0  0  0  0  0  0
  -32.2600  -24.3000   19.9720 C   0  0  0  0  0  2  0  0  0  0  0  0
  -32.4610  -25.7500   20.4650 C   0  0  0  0  0  2  0  0  0  0  0  0
  -33.8860  -26.2910   20.2210 C   0  0  0  0  0  2  0  0  0  0  0  0
  -33.9800  -27.7380   20.4830 N   0  0  0  0  0  4  0  0  0  0  0  0
  -33.3610  -28.2600   19.8880 H   0  0  0  0  0  0  0  0  0  0  0  0
  -34.9170  -28.0650   20.3200 H   0  0  0  0  0  0  0  0  0  0  0  0
  -33.7520  -27.9370   21.4400 H   0  0  0  0  0  0  0  0  0  0  0  0
  -28.1920  -23.1560   20.4390 C   0  0  0  0  0  2  0  0  0  0  0  0
  -27.8880  -24.5820   19.5620 C   0  0  0  0  0  2  0  0  0  0  0  0
  -27.9080  -26.1100   19.9080 O   0  0  0  0  0  0  0  0  0  0  0  0
  -24.6510  -31.8480   23.1340 C   0  0  0  0  0  0  0  0  0  0  0  0
  -26.8620  -27.1020   19.8560 C   0  0  0  0  0  0  0  0  0  0  0  0
  -23.3000  -30.5220   21.5520 C   0  0  0  0  0  3  0  0  0  0  0  0
  -24.5970  -28.9260   20.0000 C   0  0  0  0  0  0  0  0  0  0  0  0
  -25.8430  -30.7030   21.2250 C   0  0  0  0  0  2  0  0  0  0  0  0
  -25.8230  -29.3250   20.5410 C   0  0  0  0  0  0  0  0  0  0  0  0
  -26.9500  -28.4260   20.4550 C   0  0  0  0  0  3  0  0  0  0  0  0
  -25.6120  -26.8030   19.2780 C   0  0  0  0  0  3  0  0  0  0  0  0
  -24.5040  -27.6820   19.3520 C   0  0  0  0  0  3  0  0  0  0  0  0
  -23.4050  -29.8620   20.1500 C   0  0  0  0  0  2  0  0  0  0  0  0
  -24.6230  -31.0430   22.0250 N   0  0  0  0  0  0  0  0  0  0  0  0
  -23.6120  -32.1600   23.7360 O   0  0  0  0  0  0  0  0  0  0  0  0
  -22.6490  -29.5240   22.5410 C   0  0  0  0  0  0  0  0  0  0  0  0
  -21.3250  -29.3200   22.4240 N   0  0  0  0  0  0  0  0  0  0  0  0
  -23.3380  -28.9300   23.3760 O   0  0  0  0  0  0  0  0  0  0  0  0
  -20.8210  -29.8470   21.7260 H   0  0  0  0  0  0  0  0  0  0  0  0
  -18.0030  -27.9440   22.8680 C   0  0  0  0  0  0  0  0  0  0  0  0
  -20.5280  -28.3850   23.2240 C   0  0  0  0  0  3  0  0  0  0  0  0
  -20.7410  -26.9280   22.7490 C   0  0  0  0  0  2  0  0  0  0  0  0
  -19.7080  -26.4760   21.7140 C   0  0  0  0  0  2  0  0  0  0  0  0
  -18.2920  -26.5710   22.2870 C   0  0  0  0  0  2  0  0  0  0  0  0
  -19.0530  -28.8020   23.2930 C   0  0  0  0  0  0  0  0  0  0  0  0
  -18.7280  -30.0810   23.7950 C   0  0  0  0  0  3  0  0  0  0  0  0
  -17.3890  -30.5060   23.8730 C   0  0  0  0  0  3  0  0  0  0  0  0
  -16.3540  -29.6460   23.4680 C   0  0  0  0  0  3  0  0  0  0  0  0
  -16.6610  -28.3670   22.9700 C   0  0  0  0  0  3  0  0  0  0  0  0
  -25.9870  -32.4300   23.6880 C   0  0  0  0  0  3  0  0  0  0  0  0
  -25.7390  -33.8230   24.0930 N   0  0  0  0  0  0  0  0  0  0  0  0
  -26.0840  -34.9020   23.3780 C   0  0  0  0  0  0  0  0  0  0  0  0
  -26.7090  -34.8250   22.3170 O   0  0  0  0  0  0  0  0  0  0  0  0
  -25.1790  -33.9590   24.9220 H   0  0  0  0  0  0  0  0  0  0  0  0
  -24.4160  -36.7770   23.1800 C   0  0  0  0  0  1  0  0  0  0  0  0
  -25.6680  -36.2830   23.9230 C   0  0  0  0  0  3  0  0  0  0  0  0
  -27.8650  -37.0410   24.7190 C   0  0  0  0  0  1  0  0  0  0  0  0
  -26.7380  -37.3010   23.8260 N   0  0  0  0  0  0  0  0  0  0  0  0
  -26.3750  -38.2270   24.0370 H   0  0  0  0  0  0  0  0  0  0  0  0
  -26.5720  -31.6000   24.8980 C   0  0  1  0  0  0  0  0  0  0  0  0
  -25.5530  -31.3580   26.0370 C   0  0  0  0  0  1  0  0  0  0  0  0
  -27.0780  -30.2190   24.4230 C   0  0  0  0  0  1  0  0  0  0  0  0
  -27.7910  -32.3390   25.4970 C   0  0  0  0  0  1  0  0  0  0  0  0
  -28.8580  -20.4380   20.5490 C   0  0  0  0  0  2  0  0  0  0  0  0
  -29.6530  -18.9690   20.1650 C   0  0  0  0  0  2  0  0  0  0  0  0
  -30.1950  -17.6730   21.1130 C   0  0  0  0  0  2  0  0  0  0  0  0
  -31.0160  -14.9690   20.8690 C   0  0  0  0  0  0  0  0  0  0  0  0
  -31.0230  -12.5570   20.0620 C   0  0  0  0  0  2  0  0  0  0  0  0
  -30.1910  -12.4060   18.7670 C   0  0  0  0  0  2  0  0  0  0  0  0
  -28.6940  -12.2230   19.0900 C   0  0  0  0  0  2  0  0  0  0  0  0
  -28.1890  -13.2210   20.1670 C   0  0  0  0  0  3  0  0  0  0  0  0
  -29.1470  -13.3030   21.3710 C   0  0  0  0  0  2  0  0  0  0  0  0
  -30.4560  -13.6970   20.8350 N   0  0  0  0  0  0  0  0  0  0  0  0
  -32.2460  -15.0550   20.7850 O   0  0  0  0  0  0  0  0  0  0  0  0
  -30.1620  -16.1120   20.7920 N   0  0  0  0  0  0  0  0  0  0  0  0
  -29.2100  -15.7920   20.7000 H   0  0  0  0  0  0  0  0  0  0  0  0
  -25.7720  -13.8540   20.7190 C   0  0  0  0  0  0  0  0  0  0  0  0
  -24.6680  -13.1020   21.0150 C   0  0  0  0  0  0  0  0  0  0  0  0
  -25.1100  -11.7430   21.0350 C   0  0  0  0  0  0  0  0  0  0  0  0
  -26.8140  -12.9540   20.5710 N   0  0  0  0  0  0  0  0  0  0  0  0
  -26.4200  -11.6800   20.8280 N   0  0  0  0  0  0  0  0  0  0  0  0
  -24.3490  -10.4960   21.1810 C   0  0  0  0  0  0  0  0  0  0  0  0
  -24.6950   -9.5280   22.1510 C   0  0  0  0  0  3  0  0  0  0  0  0
  -23.9330   -8.3480   22.2850 C   0  0  0  0  0  3  0  0  0  0  0  0
  -22.8110   -8.1270   21.4510 C   0  0  0  0  0  0  0  0  0  0  0  0
  -22.4850   -9.0840   20.4740 C   0  0  0  0  0  3  0  0  0  0  0  0
  -23.2470  -10.2560   20.3370 C   0  0  0  0  0  3  0  0  0  0  0  0
  -22.0290   -6.9990   21.4930 O   0  0  0  0  0  0  0  0  0  0  0  0
  -21.8740   -6.2710   22.6470 C   0  0  0  0  0  0  0  0  0  0  0  0
  -21.3840   -6.8570   23.8330 C   0  0  0  0  0  3  0  0  0  0  0  0
  -21.1740   -6.0590   24.9770 C   0  0  0  0  0  3  0  0  0  0  0  0
  -21.4450   -4.6780   24.9320 C   0  0  0  0  0  0  0  0  0  0  0  0
  -21.9300   -4.0930   23.7480 C   0  0  0  0  0  3  0  0  0  0  0  0
  -22.1400   -4.8880   22.6070 C   0  0  0  0  0  0  0  0  0  0  0  0
  -22.5850   -4.3170   21.4630 F   0  0  0  0  0  0  0  0  0  0  0  0
  -21.2380   -3.9090   26.0270 F   0  0  0  0  0  0  0  0  0  0  0  0
  -23.2630  -13.6080   21.1650 C   0  0  0  0  0  0  0  0  0  0  0  0
  -22.4620  -12.9470   21.9900 N   0  0  0  0  0  0  0  0  0  0  0  0
  -22.8860  -14.6250   20.5850 O   0  0  0  0  0  0  0  0  0  0  0  0
  -22.7790  -12.1240   22.4810 H   0  0  0  0  0  0  0  0  0  0  0  0
  -21.5160  -13.2680   22.1350 H   0  0  0  0  0  0  0  0  0  0  0  0
  -25.9690  -15.2210   20.5370 N   0  0  0  0  0  0  0  0  0  0  0  0
  -25.1970  -15.8760   20.5780 H   0  0  0  0  0  0  0  0  0  0  0  0
  -26.8300  -15.6460   20.2190 H   0  0  0  0  0  0  0  0  0  0  0  0
  1  3  1  0
  1 19  1  0
  1 62  1  0
  1  2  1  6
  3 11  1  0
  3  4  1  0
  4  5  1  0
  5  6  1  0
  6  7  1  0
  7 10  1  0
  7  9  1  0
  8  7  1  0
 12 11  1  0
 12 13  1  0
 14 13  1  0
 14 15  1  0
 15 18  1  0
 16 15  1  0
 17 15  1  0
 20 21  1  0
 20 19  1  0
 22 33  2  0
 23 21  1  0
 23 28  1  0
 24 32  1  0
 24 34  1  0
 25 31  1  0
 25 27  1  0
 26 32  1  0
 27 26  1  0
 28 27  2  0
 29 30  1  0
 29 23  2  0
 30 25  2  0
 31 24  1  0
 32 22  1  0
 34 36  2  0
 35 34  1  0
 37 35  1  0
 38 47  2  0
 38 43  1  0
 39 35  1  0
 39 43  1  0
 40 39  1  0
 41 42  1  0
 41 40  1  0
 42 38  1  0
 43 44  2  0
 44 45  1  0
 46 45  2  0
 47 46  1  0
 48 22  1  0
 48 49  1  0
 48 58  1  0
 49 52  1  0
 50 54  1  0
 50 49  1  0
 51 50  2  0
 54 53  1  0
 56 54  1  0
 56 57  1  0
 56 55  1  0
 58 61  1  1
 58 59  1  0
 60 58  1  0
 63 62  1  0
 63 64  1  0
 66 71  1  0
 67 68  1  0
 67 66  1  0
 69 68  1  0
 69 78  1  0
 69 70  1  0
 71 65  1  0
 71 70  1  0
 72 65  2  0
 73 65  1  0
 73 64  1  0
 74 73  1  0
 75 76  2  0
 76 77  1  0
 76 95  1  0
 77 80  1  0
 78 75  1  0
 78 79  1  0
 79 77  2  0
 80 81  1  0
 81 82  2  0
 83 86  1  0
 83 82  1  0
 84 83  2  0
 85 84  1  0
 85 80  2  0
 86 87  1  0
 87 88  1  0
 88 89  2  0
 90 89  1  0
 90 94  1  0
 91 90  2  0
 92 87  2  0
 92 91  1  0
 93 92  1  0
 95 96  1  0
 96 99  1  0
 96 98  1  0
 97 95  2  0
100101  1  0
100 75  1  0
102100  1  0
M  ISO  4  20 101  21 101  65 100  73 100
M  END
>  <TORSDO>  (12) 
F 31

>  <SCORE>  (12) 
-11.735

>  <name>  (12) 
11

>  <ligand_id>  (12) 
11

>  <original_smiles>  (12) 
[H]c1c([H])c([H])c2c(c1[H])C([H])([H])C([H])([H])C([H])([H])C2([H])N([H])C(=O)C1([H])N(C(=O)C([H])(N([H])C(=O)C([H])(N([H])C([H])([H])[H])C([H])([H])[H])C(C([H])([H])[H])(C([H])([H])[H])C([H])([H])[H])C([H])([H])c2c([H])c(OC([H])([H])C([H])([H])[N+]([H])(C([H])([H])C([H])([H])C([H])([H])N([H])C(=O)N3C([H])([H])C([H])([H])C([H])([H])C([H])(n4nc(-c5c([H])c([H])c(Oc6c([H])c([H])c(F)c([H])c6F)c([H])c5[H])c(C(=O)N([H])[H])c4N([H])[H])C3([H])[H])C([H])(C([H])([H])C([H])([H])C([H])([H])C([H])([H])[N+]([H])([H])[H])C([H])([H])C([H])([H])C([H])([H])[N+]([H])([H])[H])c([H])c([H])c2C1([H])[H]

>  <smiles>  (12) 
[H]c1c([H])c([H])c2c(c1[H])C([H])([H])C([H])([H])C([H])([H])C2([H])N([H])C(=O)C1([H])N(C(=O)C([H])(N([H])C(=O)C([H])(N([H])C([H])([H])[H])C([H])([H])[H])C(C([H])([H])[H])(C([H])([H])[H])C([H])([H])[H])C([H])([H])c2c([H])c(OC([H])([H])C([H])([H])[N+]([H])(C([H])([H])C([H])([H])C([H])([H])N([H])C(=O)N3C([H])([H])C([H])([H])C([H])([H])C([H])(n4nc(-c5c([H])c([H])c(Oc6c([H])c([H])c(F)c([H])c6F)c([H])c5[H])c(C(=O)N([H])[H])c4N([H])[H])C3([H])[H])C([H])(C([H])([H])C([H])([H])C([H])([H])C([H])([H])[N+]([H])([H])[H])C([H])([H])C([H])([H])C([H])([H])[N+]([H])([H])[H])c([H])c([H])c2C1([H])[H]

$$$$
12:0:0
     RDKit          3D

 96104  0  0  1  0  0  0  0  0999 V2000
  -26.6400  -22.2160   19.5200 C   0  0  0  0  0  2  0  0  0  0  0  0
  -27.1990  -21.5740   20.7850 C   0  0  0  0  0  2  0  0  0  0  0  0
  -27.2760  -23.5940   19.4880 C   0  0  0  0  0  2  0  0  0  0  0  0
  -28.3080  -22.5190   21.3050 C   0  0  0  0  0  3  0  0  0  0  0  0
  -28.5600  -23.3690   20.1390 N   0  0  0  0  0  0  0  0  0  0  0  0
  -29.6010  -21.7750   21.7240 C   0  0  0  0  0  2  0  0  0  0  0  0
  -29.3120  -20.5620   22.5170 N   0  0  0  0  0  4  0  0  0  0  0  0
  -28.4830  -20.1570   22.1170 H   0  0  0  0  0  0  0  0  0  0  0  0
  -29.1010  -20.8220   23.4670 H   0  0  0  0  0  0  0  0  0  0  0  0
  -30.3820  -19.5410   22.4880 C   0  0  0  0  0  2  0  0  0  0  0  0
  -29.8450  -18.1520   22.8840 C   0  0  0  0  0  2  0  0  0  0  0  0
  -31.9870  -17.0710   23.7120 C   0  0  0  0  0  1  0  0  0  0  0  0
  -30.8510  -16.9960   22.6720 C   0  0  0  0  0  3  0  0  0  0  0  0
  -30.1070  -15.6350   22.7080 C   0  0  0  0  0  2  0  0  0  0  0  0
  -30.8390  -14.2550   20.8030 C   0  0  0  0  0  0  0  0  0  0  0  0
  -30.4110  -12.3030   19.3560 C   0  0  0  0  0  2  0  0  0  0  0  0
  -29.4660  -12.5590   18.1730 C   0  0  0  0  0  2  0  0  0  0  0  0
  -28.0010  -12.3890   18.6090 C   0  0  0  0  0  2  0  0  0  0  0  0
  -27.6670  -13.2050   19.8850 C   0  0  0  0  0  3  0  0  0  0  0  0
  -28.7070  -12.9390   20.9940 C   0  0  0  0  0  2  0  0  0  0  0  0
  -30.0560  -13.2020   20.4610 N   0  0  0  0  0  0  0  0  0  0  0  0
  -31.7270  -14.7130   20.0720 O   0  0  0  0  0  0  0  0  0  0  0  0
  -30.8440  -14.4900   22.1340 N   0  0  0  0  0  0  0  0  0  0  0  0
  -25.2590  -13.8150   20.5710 C   0  0  0  0  0  0  0  0  0  0  0  0
  -24.1840  -13.0430   20.9180 C   0  0  0  0  0  0  0  0  0  0  0  0
  -24.6390  -11.6900   20.8730 C   0  0  0  0  0  0  0  0  0  0  0  0
  -26.3050  -12.9330   20.3430 N   0  0  0  0  0  0  0  0  0  0  0  0
  -25.9320  -11.6480   20.5770 N   0  0  0  0  0  0  0  0  0  0  0  0
  -23.9050  -10.4290   21.0400 C   0  0  0  0  0  0  0  0  0  0  0  0
  -24.3610   -9.4200   21.9170 C   0  0  0  0  0  3  0  0  0  0  0  0
  -23.6290   -8.2240   22.0750 C   0  0  0  0  0  3  0  0  0  0  0  0
  -22.4270   -8.0270   21.3530 C   0  0  0  0  0  0  0  0  0  0  0  0
  -21.9900   -9.0240   20.4630 C   0  0  0  0  0  3  0  0  0  0  0  0
  -22.7230  -10.2120   20.3040 C   0  0  0  0  0  3  0  0  0  0  0  0
  -21.6650   -6.8860   21.4230 O   0  0  0  0  0  0  0  0  0  0  0  0
  -21.6850   -6.0710   22.5270 C   0  0  0  0  0  0  0  0  0  0  0  0
  -21.4020   -6.5620   23.8200 C   0  0  0  0  0  3  0  0  0  0  0  0
  -21.3660   -5.6780   24.9160 C   0  0  0  0  0  3  0  0  0  0  0  0
  -21.6050   -4.3040   24.7220 C   0  0  0  0  0  0  0  0  0  0  0  0
  -21.8820   -3.8130   23.4340 C   0  0  0  0  0  3  0  0  0  0  0  0
  -21.9200   -4.6940   22.3400 C   0  0  0  0  0  0  0  0  0  0  0  0
  -22.1670   -4.2130   21.0970 F   0  0  0  0  0  0  0  0  0  0  0  0
  -21.5630   -3.4520   25.7730 F   0  0  0  0  0  0  0  0  0  0  0  0
  -22.7870  -13.5230   21.1860 C   0  0  0  0  0  0  0  0  0  0  0  0
  -22.0510  -12.8200   22.0410 N   0  0  0  0  0  0  0  0  0  0  0  0
  -22.3550  -14.5540   20.6740 O   0  0  0  0  0  0  0  0  0  0  0  0
  -22.4150  -11.9880   22.4800 H   0  0  0  0  0  0  0  0  0  0  0  0
  -21.1110  -13.1180   22.2600 H   0  0  0  0  0  0  0  0  0  0  0  0
  -25.4310  -15.1880   20.4130 N   0  0  0  0  0  0  0  0  0  0  0  0
  -24.6650  -15.8440   20.5230 H   0  0  0  0  0  0  0  0  0  0  0  0
  -26.2870  -15.6260   20.0960 H   0  0  0  0  0  0  0  0  0  0  0  0
  -31.3500  -13.4130   24.3700 C   0  0  0  0  0  1  0  0  0  0  0  0
  -31.8310  -13.7610   22.9520 C   0  0  0  0  0  2  0  0  0  0  0  0
  -29.3570  -24.5850   20.3650 C   0  0  0  0  0  2  0  0  0  0  0  0
  -28.6280  -25.7820   21.0220 C   0  0  0  0  0  2  0  0  0  0  0  0
  -28.4140  -26.7660   20.0140 O   0  0  0  0  0  0  0  0  0  0  0  0
  -24.6100  -31.8700   23.2130 C   0  0  0  0  0  0  0  0  0  0  0  0
  -27.2410  -27.4680   20.1000 C   0  0  0  0  0  0  0  0  0  0  0  0
  -23.3990  -30.4930   21.5500 C   0  0  0  0  0  3  0  0  0  0  0  0
  -24.8490  -28.9580   20.1210 C   0  0  0  0  0  0  0  0  0  0  0  0
  -25.9240  -30.8420   21.3660 C   0  0  0  0  0  2  0  0  0  0  0  0
  -26.0030  -29.4740   20.7260 C   0  0  0  0  0  0  0  0  0  0  0  0
  -27.2030  -28.7310   20.7230 C   0  0  0  0  0  3  0  0  0  0  0  0
  -26.0820  -26.9660   19.4760 C   0  0  0  0  0  3  0  0  0  0  0  0
  -24.8810  -27.6990   19.4970 C   0  0  0  0  0  3  0  0  0  0  0  0
  -23.6080  -29.8200   20.1660 C   0  0  0  0  0  2  0  0  0  0  0  0
  -24.6610  -31.0820   22.1020 N   0  0  0  0  0  0  0  0  0  0  0  0
  -23.5300  -32.1430   23.7540 O   0  0  0  0  0  0  0  0  0  0  0  0
  -22.7380  -29.4680   22.4980 C   0  0  0  0  0  0  0  0  0  0  0  0
  -21.4110  -29.3060   22.3730 N   0  0  0  0  0  0  0  0  0  0  0  0
  -23.4160  -28.8210   23.3010 O   0  0  0  0  0  0  0  0  0  0  0  0
  -20.9260  -29.8790   21.6960 H   0  0  0  0  0  0  0  0  0  0  0  0
  -18.0260  -28.1390   22.8480 C   0  0  0  0  0  0  0  0  0  0  0  0
  -20.5850  -28.3680   23.1320 C   0  0  0  0  0  3  0  0  0  0  0  0
  -20.6760  -26.9420   22.5410 C   0  0  0  0  0  2  0  0  0  0  0  0
  -19.5750  -26.6400   21.5200 C   0  0  0  0  0  2  0  0  0  0  0  0
  -18.1920  -26.7940   22.1610 C   0  0  0  0  0  2  0  0  0  0  0  0
  -19.1510  -28.8840   23.2900 C   0  0  0  0  0  0  0  0  0  0  0  0
  -18.9440  -30.1440   23.8930 C   0  0  0  0  0  3  0  0  0  0  0  0
  -17.6450  -30.6600   24.0570 C   0  0  0  0  0  3  0  0  0  0  0  0
  -16.5340  -29.9110   23.6330 C   0  0  0  0  0  3  0  0  0  0  0  0
  -16.7250  -28.6520   23.0350 C   0  0  0  0  0  3  0  0  0  0  0  0
  -25.9010  -32.4820   23.8410 C   0  0  0  0  0  3  0  0  0  0  0  0
  -26.4480  -31.6580   25.0710 C   0  0  1  0  0  0  0  0  0  0  0  0
  -25.3780  -31.3640   26.1480 C   0  0  0  0  0  1  0  0  0  0  0  0
  -27.0300  -30.3040   24.6040 C   0  0  0  0  0  1  0  0  0  0  0  0
  -27.6060  -32.4290   25.7470 C   0  0  0  0  0  1  0  0  0  0  0  0
  -25.5900  -33.8620   24.2350 N   0  0  0  0  0  0  0  0  0  0  0  0
  -25.9030  -34.9470   23.5140 C   0  0  0  0  0  0  0  0  0  0  0  0
  -26.5560  -34.8910   22.4680 O   0  0  0  0  0  0  0  0  0  0  0  0
  -25.0120  -33.9800   25.0550 H   0  0  0  0  0  0  0  0  0  0  0  0
  -24.1490  -36.7310   23.2640 C   0  0  0  0  0  1  0  0  0  0  0  0
  -25.4110  -36.3110   24.0340 C   0  0  0  0  0  3  0  0  0  0  0  0
  -27.5580  -37.1800   24.8470 C   0  0  0  0  0  1  0  0  0  0  0  0
  -26.4300  -37.3780   23.9410 N   0  0  0  0  0  0  0  0  0  0  0  0
  -26.0180  -38.2860   24.1400 H   0  0  0  0  0  0  0  0  0  0  0  0
  1  2  1  0
  2  4  1  0
  3  1  1  0
  3  5  1  0
  4  6  1  0
  5 54  1  0
  5  4  1  0
  6  7  1  0
  7  9  1  0
  8  7  1  0
 10  7  1  0
 10 11  1  0
 13 14  1  0
 13 11  1  0
 13 12  1  0
 15 23  1  0
 16 21  1  0
 17 18  1  0
 17 16  1  0
 19 18  1  0
 19 27  1  0
 19 20  1  0
 21 15  1  0
 21 20  1  0
 22 15  2  0
 23 14  1  0
 23 53  1  0
 24 25  2  0
 25 44  1  0
 26 25  1  0
 26 29  1  0
 27 24  1  0
 27 28  1  0
 28 26  2  0
 29 30  1  0
 30 31  2  0
 32 35  1  0
 32 31  1  0
 33 32  2  0
 34 33  1  0
 34 29  2  0
 35 36  1  0
 36 37  1  0
 37 38  2  0
 39 38  1  0
 39 43  1  0
 40 39  2  0
 41 36  2  0
 41 40  1  0
 42 41  1  0
 44 45  1  0
 45 48  1  0
 45 47  1  0
 46 44  2  0
 49 50  1  0
 49 24  1  0
 51 49  1  0
 53 52  1  0
 54 55  1  0
 56 58  1  0
 56 55  1  0
 57 68  2  0
 58 63  1  0
 59 67  1  0
 59 69  1  0
 60 66  1  0
 60 62  1  0
 61 67  1  0
 62 61  1  0
 63 62  2  0
 64 65  1  0
 64 58  2  0
 65 60  2  0
 66 59  1  0
 67 57  1  0
 69 71  2  0
 70 69  1  0
 72 70  1  0
 73 82  2  0
 73 78  1  0
 74 70  1  0
 74 78  1  0
 75 74  1  0
 76 77  1  0
 76 75  1  0
 77 73  1  0
 78 79  2  0
 79 80  1  0
 81 80  2  0
 82 81  1  0
 83 57  1  0
 83 88  1  0
 83 84  1  0
 84 87  1  1
 84 85  1  0
 86 84  1  0
 88 91  1  0
 89 93  1  0
 89 88  1  0
 90 89  2  0
 93 92  1  0
 95 93  1  0
 95 96  1  0
 95 94  1  0
M  ISO  4  15 100  23 100  55 101  56 101
M  END
>  <TORSDO>  (13) 
F 25

>  <SCORE>  (13) 
2.377

>  <name>  (13) 
12

>  <ligand_id>  (13) 
12

>  <original_smiles>  (13) 
[H]c1c([H])c([H])c2c(c1[H])C([H])([H])C([H])([H])C([H])([H])C2([H])N([H])C(=O)C1([H])N(C(=O)C([H])(N([H])C(=O)C([H])(N([H])C([H])([H])[H])C([H])([H])[H])C(C([H])([H])[H])(C([H])([H])[H])C([H])([H])[H])C([H])([H])c2c([H])c(OC([H])([H])C([H])([H])N3C([H])([H])C([H])([H])C([H])([H])C3([H])C([H])([H])[N+]([H])([H])C([H])([H])C([H])([H])C([H])(C([H])([H])[H])C([H])([H])N(C(=O)N3C([H])([H])C([H])([H])C([H])([H])C([H])(n4nc(-c5c([H])c([H])c(Oc6c([H])c([H])c(F)c([H])c6F)c([H])c5[H])c(C(=O)N([H])[H])c4N([H])[H])C3([H])[H])C([H])([H])C([H])([H])[H])c([H])c([H])c2C1([H])[H]

>  <smiles>  (13) 
[H]c1c([H])c([H])c2c(c1[H])C([H])([H])C([H])([H])C([H])([H])C2([H])N([H])C(=O)C1([H])N(C(=O)C([H])(N([H])C(=O)C([H])(N([H])C([H])([H])[H])C([H])([H])[H])C(C([H])([H])[H])(C([H])([H])[H])C([H])([H])[H])C([H])([H])c2c([H])c(OC([H])([H])C([H])([H])N3C([H])([H])C([H])([H])C([H])([H])C3([H])C([H])([H])[N+]([H])([H])C([H])([H])C([H])([H])C([H])(C([H])([H])[H])C([H])([H])N(C(=O)N3C([H])([H])C([H])([H])C([H])([H])C([H])(n4nc(-c5c([H])c([H])c(Oc6c([H])c([H])c(F)c([H])c6F)c([H])c5[H])c(C(=O)N([H])[H])c4N([H])[H])C3([H])[H])C([H])([H])C([H])([H])[H])c([H])c([H])c2C1([H])[H]

$$$$
13:0:0
     RDKit          3D

 90 98  0  0  1  0  0  0  0  0999 V2000
  -28.8970  -22.9880   20.1360 C   0  0  0  0  0  3  0  0  0  0  0  0
  -30.2700  -23.2870   20.5850 N   0  0  0  0  0  4  0  0  0  0  0  0
  -30.3140  -23.4230   21.5810 H   0  0  0  0  0  0  0  0  0  0  0  0
  -30.6070  -24.1270   20.1440 H   0  0  0  0  0  0  0  0  0  0  0  0
  -30.8900  -22.5360   20.3370 H   0  0  0  0  0  0  0  0  0  0  0  0
  -28.5600  -21.3310   20.6100 C   0  0  0  0  0  2  0  0  0  0  0  0
  -30.5590  -15.1620   20.1510 C   0  0  0  0  0  0  0  0  0  0  0  0
  -30.3790  -12.7830   19.2190 C   0  0  0  0  0  2  0  0  0  0  0  0
  -29.4310  -12.6520   18.0070 C   0  0  0  0  0  2  0  0  0  0  0  0
  -27.9910  -12.4020   18.4830 C   0  0  0  0  0  2  0  0  0  0  0  0
  -27.5830  -13.3460   19.6420 C   0  0  0  0  0  3  0  0  0  0  0  0
  -28.6630  -13.4640   20.7380 C   0  0  0  0  0  2  0  0  0  0  0  0
  -29.8900  -13.9230   20.0730 N   0  0  0  0  0  0  0  0  0  0  0  0
  -31.7740  -15.0710   19.9300 O   0  0  0  0  0  0  0  0  0  0  0  0
  -30.8590  -17.7710   20.2680 C   0  0  0  0  0  2  0  0  0  0  0  0
  -28.6360  -17.1140   19.9900 C   0  0  0  0  0  2  0  0  0  0  0  0
  -30.3370  -19.2580   20.7510 C   0  0  0  0  0  2  0  0  0  0  0  0
  -28.2410  -18.6740   20.4020 C   0  0  0  0  0  2  0  0  0  0  0  0
  -29.9910  -16.5120   20.3040 N   0  0  0  0  0  0  0  0  0  0  0  0
  -29.1190  -19.8890   20.1330 N   0  0  0  0  0  0  0  0  0  0  0  0
  -25.2270  -13.8850   20.4600 C   0  0  0  0  0  0  0  0  0  0  0  0
  -24.1790  -13.0980   20.8480 C   0  0  0  0  0  0  0  0  0  0  0  0
  -24.6540  -11.7500   20.7900 C   0  0  0  0  0  0  0  0  0  0  0  0
  -26.2700  -13.0180   20.1820 N   0  0  0  0  0  0  0  0  0  0  0  0
  -25.9380  -11.7280   20.4510 N   0  0  0  0  0  0  0  0  0  0  0  0
  -23.9380  -10.4820   20.9820 C   0  0  0  0  0  0  0  0  0  0  0  0
  -24.3720   -9.5210   21.9230 C   0  0  0  0  0  3  0  0  0  0  0  0
  -23.6520   -8.3200   22.1040 C   0  0  0  0  0  3  0  0  0  0  0  0
  -22.4840   -8.0710   21.3440 C   0  0  0  0  0  0  0  0  0  0  0  0
  -22.0680   -9.0200   20.3920 C   0  0  0  0  0  3  0  0  0  0  0  0
  -22.7890  -10.2130   20.2110 C   0  0  0  0  0  3  0  0  0  0  0  0
  -21.7360   -6.9200   21.4340 O   0  0  0  0  0  0  0  0  0  0  0  0
  -21.6610   -6.2000   22.5990 C   0  0  0  0  0  0  0  0  0  0  0  0
  -21.1710   -6.7690   23.7950 C   0  0  0  0  0  3  0  0  0  0  0  0
  -21.0420   -5.9730   24.9510 C   0  0  0  0  0  3  0  0  0  0  0  0
  -21.3960   -4.6120   24.9130 C   0  0  0  0  0  0  0  0  0  0  0  0
  -21.8800   -4.0420   23.7230 C   0  0  0  0  0  3  0  0  0  0  0  0
  -22.0100   -4.8340   22.5680 C   0  0  0  0  0  0  0  0  0  0  0  0
  -22.4570   -4.2770   21.4170 F   0  0  0  0  0  0  0  0  0  0  0  0
  -21.2650   -3.8470   26.0220 F   0  0  0  0  0  0  0  0  0  0  0  0
  -22.7860  -13.5670   21.1470 C   0  0  0  0  0  0  0  0  0  0  0  0
  -22.0740  -12.8560   22.0160 N   0  0  0  0  0  0  0  0  0  0  0  0
  -22.3390  -14.5990   20.6470 O   0  0  0  0  0  0  0  0  0  0  0  0
  -22.4500  -12.0250   22.4440 H   0  0  0  0  0  0  0  0  0  0  0  0
  -21.1410  -13.1580   22.2620 H   0  0  0  0  0  0  0  0  0  0  0  0
  -25.3750  -15.2570   20.2930 N   0  0  0  0  0  0  0  0  0  0  0  0
  -24.5960  -15.8980   20.4130 H   0  0  0  0  0  0  0  0  0  0  0  0
  -26.1960  -15.6970   19.9010 H   0  0  0  0  0  0  0  0  0  0  0  0
  -27.9350  -24.4290   20.4310 C   0  0  0  0  0  2  0  0  0  0  0  0
  -28.2210  -26.0070   20.2440 O   0  0  0  0  0  0  0  0  0  0  0  0
  -24.6080  -31.8650   23.1900 C   0  0  0  0  0  0  0  0  0  0  0  0
  -27.1920  -27.0560   20.1980 C   0  0  0  0  0  0  0  0  0  0  0  0
  -23.4270  -30.4700   21.5410 C   0  0  0  0  0  3  0  0  0  0  0  0
  -24.8880  -28.8820   20.1300 C   0  0  0  0  0  0  0  0  0  0  0  0
  -25.9910  -30.7040   21.4110 C   0  0  0  0  0  2  0  0  0  0  0  0
  -26.0680  -29.3030   20.7580 C   0  0  0  0  0  0  0  0  0  0  0  0
  -27.2200  -28.4100   20.7690 C   0  0  0  0  0  3  0  0  0  0  0  0
  -25.9890  -26.7710   19.5180 C   0  0  0  0  0  3  0  0  0  0  0  0
  -24.8690  -27.6340   19.4910 C   0  0  0  0  0  3  0  0  0  0  0  0
  -23.6680  -29.7940   20.1640 C   0  0  0  0  0  2  0  0  0  0  0  0
  -24.6960  -31.0380   22.1010 N   0  0  0  0  0  0  0  0  0  0  0  0
  -23.5150  -32.1510   23.7050 O   0  0  0  0  0  0  0  0  0  0  0  0
  -22.7360  -29.4640   22.4980 C   0  0  0  0  0  0  0  0  0  0  0  0
  -21.4080  -29.2930   22.3610 N   0  0  0  0  0  0  0  0  0  0  0  0
  -23.3990  -28.8410   23.3310 O   0  0  0  0  0  0  0  0  0  0  0  0
  -20.9270  -29.8480   21.6670 H   0  0  0  0  0  0  0  0  0  0  0  0
  -18.0240  -28.0850   22.8420 C   0  0  0  0  0  0  0  0  0  0  0  0
  -20.5820  -28.3530   23.1250 C   0  0  0  0  0  3  0  0  0  0  0  0
  -20.6900  -26.9210   22.5510 C   0  0  0  0  0  2  0  0  0  0  0  0
  -19.5960  -26.5970   21.5290 C   0  0  0  0  0  2  0  0  0  0  0  0
  -18.2090  -26.7370   22.1640 C   0  0  0  0  0  2  0  0  0  0  0  0
  -19.1380  -28.8500   23.2800 C   0  0  0  0  0  0  0  0  0  0  0  0
  -18.9100  -30.1100   23.8760 C   0  0  0  0  0  3  0  0  0  0  0  0
  -17.6010  -30.6020   24.0380 C   0  0  0  0  0  3  0  0  0  0  0  0
  -16.5020  -29.8340   23.6140 C   0  0  0  0  0  3  0  0  0  0  0  0
  -16.7140  -28.5770   23.0220 C   0  0  0  0  0  3  0  0  0  0  0  0
  -25.8770  -32.5060   23.8300 C   0  0  0  0  0  3  0  0  0  0  0  0
  -26.3690  -31.7460   25.1230 C   0  0  1  0  0  0  0  0  0  0  0  0
  -25.2590  -31.5230   26.1760 C   0  0  0  0  0  1  0  0  0  0  0  0
  -26.9570  -30.3620   24.7620 C   0  0  0  0  0  1  0  0  0  0  0  0
  -27.5080  -32.5470   25.7990 C   0  0  0  0  0  1  0  0  0  0  0  0
  -25.5570  -33.9070   24.1540 N   0  0  0  0  0  0  0  0  0  0  0  0
  -25.8970  -34.9640   23.4050 C   0  0  0  0  0  0  0  0  0  0  0  0
  -26.5740  -34.8640   22.3790 O   0  0  0  0  0  0  0  0  0  0  0  0
  -24.9530  -34.0580   24.9490 H   0  0  0  0  0  0  0  0  0  0  0  0
  -24.1770  -36.7690   23.0440 C   0  0  0  0  0  1  0  0  0  0  0  0
  -25.4070  -36.3530   23.8650 C   0  0  0  0  0  3  0  0  0  0  0  0
  -27.5330  -37.2340   24.7250 C   0  0  0  0  0  1  0  0  0  0  0  0
  -26.4420  -37.4060   23.7700 N   0  0  0  0  0  0  0  0  0  0  0  0
  -26.0340  -38.3250   23.9170 H   0  0  0  0  0  0  0  0  0  0  0  0
  1 49  1  0
  1  2  1  0
  1  6  1  0
  2  3  1  0
  4  2  1  0
  5  2  1  0
  7 19  1  0
  8 13  1  0
  9 10  1  0
  9  8  1  0
 11 10  1  0
 11 24  1  0
 11 12  1  0
 13  7  1  0
 13 12  1  0
 14  7  2  0
 15 19  1  0
 15 17  1  0
 16 19  1  0
 16 18  1  0
 20 18  1  0
 20  6  1  0
 20 17  1  0
 21 22  2  0
 22 41  1  0
 23 22  1  0
 23 26  1  0
 24 25  1  0
 24 21  1  0
 25 23  2  0
 26 27  1  0
 27 28  2  0
 29 32  1  0
 29 28  1  0
 30 29  2  0
 31 30  1  0
 31 26  2  0
 32 33  1  0
 33 34  1  0
 34 35  2  0
 36 35  1  0
 36 40  1  0
 37 36  2  0
 38 33  2  0
 38 37  1  0
 39 38  1  0
 41 42  1  0
 42 45  1  0
 42 44  1  0
 43 41  2  0
 46 47  1  0
 46 21  1  0
 48 46  1  0
 50 49  1  0
 51 62  2  0
 52 50  1  0
 52 57  1  0
 53 61  1  0
 53 63  1  0
 54 60  1  0
 54 56  1  0
 55 61  1  0
 56 57  2  0
 56 55  1  0
 58 52  2  0
 59 58  1  0
 59 54  2  0
 60 53  1  0
 61 51  1  0
 63 65  2  0
 64 63  1  0
 66 64  1  0
 67 76  2  0
 67 72  1  0
 68 64  1  0
 68 72  1  0
 69 68  1  0
 70 71  1  0
 70 69  1  0
 71 67  1  0
 72 73  2  0
 73 74  1  0
 75 74  2  0
 76 75  1  0
 77 51  1  0
 77 82  1  0
 77 78  1  0
 78 81  1  1
 78 79  1  0
 80 78  1  0
 82 85  1  0
 83 87  1  0
 83 82  1  0
 84 83  2  0
 87 86  1  0
 89 87  1  0
 89 90  1  0
 89 88  1  0
M  ISO  4   7 100  19 100  49 101  50 101
M  END
>  <TORSDO>  (14) 
F 19

>  <SCORE>  (14) 
-16.081

>  <name>  (14) 
13

>  <ligand_id>  (14) 
13

>  <original_smiles>  (14) 
[H]c1c([H])c([H])c2c(c1[H])C([H])([H])C([H])([H])C([H])([H])C2([H])N([H])C(=O)C1([H])N(C(=O)C([H])(N([H])C(=O)C([H])(N([H])C([H])([H])[H])C([H])([H])[H])C(C([H])([H])[H])(C([H])([H])[H])C([H])([H])[H])C([H])([H])c2c([H])c(OC([H])([H])C([H])(C([H])([H])N3C([H])([H])C([H])([H])N(C(=O)N4C([H])([H])C([H])([H])C([H])([H])C([H])(n5nc(-c6c([H])c([H])c(Oc7c([H])c([H])c(F)c([H])c7F)c([H])c6[H])c(C(=O)N([H])[H])c5N([H])[H])C4([H])[H])C([H])([H])C3([H])[H])[N+]([H])([H])[H])c([H])c([H])c2C1([H])[H]

>  <smiles>  (14) 
[H]c1c([H])c([H])c2c(c1[H])C([H])([H])C([H])([H])C([H])([H])C2([H])N([H])C(=O)C1([H])N(C(=O)C([H])(N([H])C(=O)C([H])(N([H])C([H])([H])[H])C([H])([H])[H])C(C([H])([H])[H])(C([H])([H])[H])C([H])([H])[H])C([H])([H])c2c([H])c(OC([H])([H])C([H])(C([H])([H])N3C([H])([H])C([H])([H])N(C(=O)N4C([H])([H])C([H])([H])C([H])([H])C([H])(n5nc(-c6c([H])c([H])c(Oc7c([H])c([H])c(F)c([H])c7F)c([H])c6[H])c(C(=O)N([H])[H])c5N([H])[H])C4([H])[H])C([H])([H])C3([H])[H])[N+]([H])([H])[H])c([H])c([H])c2C1([H])[H]

$$$$
14:0:0
     RDKit          3D

 98107  0  0  1  0  0  0  0  0999 V2000
  -30.9030  -19.6500   20.8930 C   0  0  0  0  0  2  0  0  0  0  0  0
  -28.6450  -18.9260   20.2540 C   0  0  0  0  0  2  0  0  0  0  0  0
  -30.6190  -21.0770   20.2960 C   0  0  0  0  0  2  0  0  0  0  0  0
  -28.4040  -20.3610   19.6400 C   0  0  0  0  0  2  0  0  0  0  0  0
  -30.1280  -18.4280   20.2850 C   0  0  1  0  0  0  0  0  0  0  0  0
  -29.1780  -21.4720   20.2930 N   0  0  2  0  0  4  0  0  0  0  0  0
  -28.8660  -21.4870   21.2530 H   0  0  0  0  0  0  0  0  0  0  0  0
  -30.6100  -18.0930   18.9250 N   0  0  0  0  0  4  0  0  0  0  0  0
  -30.5710  -18.8610   18.2780 H   0  0  0  0  0  0  0  0  0  0  0  0
  -30.0710  -17.3370   18.5410 H   0  0  0  0  0  0  0  0  0  0  0  0
  -31.5650  -17.7820   18.9640 H   0  0  0  0  0  0  0  0  0  0  0  0
  -28.8660  -22.8740   19.7410 C   0  0  0  0  0  2  0  0  0  0  0  0
  -30.5620  -25.5460   22.1250 C   0  0  0  0  0  2  0  0  0  0  0  0
  -29.4310  -26.5670   22.3580 C   0  0  0  0  0  2  0  0  0  0  0  0
  -30.3910  -24.7710   20.8020 C   0  0  0  0  0  2  0  0  0  0  0  0
  -28.0320  -25.9460   22.1590 C   0  0  0  0  0  2  0  0  0  0  0  0
  -28.9960  -24.1100   20.7370 C   0  0  0  0  0  3  0  0  0  0  0  0
  -27.9080  -25.2920   20.7590 C   0  0  0  0  0  3  0  0  0  0  0  0
  -27.9880  -26.4270   19.8200 O   0  0  0  0  0  0  0  0  0  0  0  0
  -24.4500  -31.8020   23.0520 C   0  0  0  0  0  0  0  0  0  0  0  0
  -26.8920  -27.2960   19.8300 C   0  0  0  0  0  0  0  0  0  0  0  0
  -23.1690  -30.4600   21.4210 C   0  0  0  0  0  3  0  0  0  0  0  0
  -24.5470  -28.9140   19.9190 C   0  0  0  0  0  0  0  0  0  0  0  0
  -25.7010  -30.7510   21.1570 C   0  0  0  0  0  2  0  0  0  0  0  0
  -25.7400  -29.3870   20.4830 C   0  0  0  0  0  0  0  0  0  0  0  0
  -26.9190  -28.5930   20.4240 C   0  0  0  0  0  3  0  0  0  0  0  0
  -25.6830  -26.8640   19.2500 C   0  0  0  0  0  3  0  0  0  0  0  0
  -24.5190  -27.6570   19.2920 C   0  0  0  0  0  3  0  0  0  0  0  0
  -23.3250  -29.8030   20.0240 C   0  0  0  0  0  2  0  0  0  0  0  0
  -24.4610  -31.0200   21.9340 N   0  0  0  0  0  0  0  0  0  0  0  0
  -23.3920  -32.0880   23.6300 O   0  0  0  0  0  0  0  0  0  0  0  0
  -22.5180  -29.4370   22.3830 C   0  0  0  0  0  0  0  0  0  0  0  0
  -21.1840  -29.2930   22.3000 N   0  0  0  0  0  0  0  0  0  0  0  0
  -23.2110  -28.7770   23.1620 O   0  0  0  0  0  0  0  0  0  0  0  0
  -20.6850  -29.8780   21.6440 H   0  0  0  0  0  0  0  0  0  0  0  0
  -17.7980  -28.1620   22.8840 C   0  0  0  0  0  0  0  0  0  0  0  0
  -20.3700  -28.3580   23.0770 C   0  0  0  0  0  3  0  0  0  0  0  0
  -20.4200  -26.9370   22.4680 C   0  0  0  0  0  2  0  0  0  0  0  0
  -19.2790  -26.6620   21.4840 C   0  0  0  0  0  2  0  0  0  0  0  0
  -17.9220  -26.8250   22.1760 C   0  0  0  0  0  2  0  0  0  0  0  0
  -18.9480  -28.8890   23.2930 C   0  0  0  0  0  0  0  0  0  0  0  0
  -18.7780  -30.1450   23.9180 C   0  0  0  0  0  3  0  0  0  0  0  0
  -17.4910  -30.6710   24.1370 C   0  0  0  0  0  3  0  0  0  0  0  0
  -16.3570  -29.9390   23.7440 C   0  0  0  0  0  3  0  0  0  0  0  0
  -16.5120  -28.6870   23.1240 C   0  0  0  0  0  3  0  0  0  0  0  0
  -25.7650  -32.3960   23.6460 C   0  0  0  0  0  3  0  0  0  0  0  0
  -26.3200  -31.5740   24.8740 C   0  0  1  0  0  0  0  0  0  0  0  0
  -25.2670  -31.3190   25.9780 C   0  0  0  0  0  1  0  0  0  0  0  0
  -26.8600  -30.2000   24.4110 C   0  0  0  0  0  1  0  0  0  0  0  0
  -27.5110  -32.3250   25.5120 C   0  0  0  0  0  1  0  0  0  0  0  0
  -25.4890  -33.7850   24.0370 N   0  0  0  0  0  0  0  0  0  0  0  0
  -25.8410  -34.8630   23.3200 C   0  0  0  0  0  0  0  0  0  0  0  0
  -26.5010  -34.7860   22.2800 O   0  0  0  0  0  0  0  0  0  0  0  0
  -24.9040  -33.9190   24.8480 H   0  0  0  0  0  0  0  0  0  0  0  0
  -24.1680  -36.7200   23.0360 C   0  0  0  0  0  1  0  0  0  0  0  0
  -25.3880  -36.2410   23.8390 C   0  0  0  0  0  3  0  0  0  0  0  0
  -27.5350  -37.0240   24.7370 C   0  0  0  0  0  1  0  0  0  0  0  0
  -26.4510  -37.2670   23.7880 N   0  0  0  0  0  0  0  0  0  0  0  0
  -26.0700  -38.1900   23.9730 H   0  0  0  0  0  0  0  0  0  0  0  0
  -30.3770  -17.1420   21.2060 C   0  0  0  0  0  2  0  0  0  0  0  0
  -30.6500  -14.6740   20.4950 C   0  0  0  0  0  0  0  0  0  0  0  0
  -30.4280  -12.4150   19.4790 C   0  0  0  0  0  2  0  0  0  0  0  0
  -29.4970  -12.4790   18.2490 C   0  0  0  0  0  2  0  0  0  0  0  0
  -28.0240  -12.3300   18.6730 C   0  0  0  0  0  2  0  0  0  0  0  0
  -27.6420  -13.2450   19.8670 C   0  0  0  0  0  3  0  0  0  0  0  0
  -28.6880  -13.1550   21.0000 C   0  0  0  0  0  2  0  0  0  0  0  0
  -30.0000  -13.4710   20.4150 N   0  0  0  0  0  0  0  0  0  0  0  0
  -31.8250  -14.8000   20.1470 O   0  0  0  0  0  0  0  0  0  0  0  0
  -29.8960  -15.7740   20.7980 N   0  0  0  0  0  0  0  0  0  0  0  0
  -28.9260  -15.5780   20.9920 H   0  0  0  0  0  0  0  0  0  0  0  0
  -25.2490  -13.8590   20.5730 C   0  0  0  0  0  0  0  0  0  0  0  0
  -24.1720  -13.0940   20.9320 C   0  0  0  0  0  0  0  0  0  0  0  0
  -24.6250  -11.7400   20.9020 C   0  0  0  0  0  0  0  0  0  0  0  0
  -26.2880  -12.9730   20.3440 N   0  0  0  0  0  0  0  0  0  0  0  0
  -25.9180  -11.6920   20.6040 N   0  0  0  0  0  0  0  0  0  0  0  0
  -23.8890  -10.4810   21.0820 C   0  0  0  0  0  0  0  0  0  0  0  0
  -24.3080   -9.5090   22.0160 C   0  0  0  0  0  3  0  0  0  0  0  0
  -23.5730   -8.3160   22.1860 C   0  0  0  0  0  3  0  0  0  0  0  0
  -22.4040   -8.0880   21.4220 C   0  0  0  0  0  0  0  0  0  0  0  0
  -22.0040   -9.0490   20.4770 C   0  0  0  0  0  3  0  0  0  0  0  0
  -22.7390  -10.2340   20.3070 C   0  0  0  0  0  3  0  0  0  0  0  0
  -21.6420   -6.9480   21.5010 O   0  0  0  0  0  0  0  0  0  0  0  0
  -21.5730   -6.2050   22.6530 C   0  0  0  0  0  0  0  0  0  0  0  0
  -21.1260   -6.7620   23.8710 C   0  0  0  0  0  3  0  0  0  0  0  0
  -21.0070   -5.9480   25.0160 C   0  0  0  0  0  3  0  0  0  0  0  0
  -21.3200   -4.5770   24.9400 C   0  0  0  0  0  0  0  0  0  0  0  0
  -21.7580   -4.0210   23.7260 C   0  0  0  0  0  3  0  0  0  0  0  0
  -21.8820   -4.8330   22.5860 C   0  0  0  0  0  0  0  0  0  0  0  0
  -22.2840   -4.2880   21.4140 F   0  0  0  0  0  0  0  0  0  0  0  0
  -21.1970   -3.7920   26.0360 F   0  0  0  0  0  0  0  0  0  0  0  0
  -22.7760  -13.5820   21.1900 C   0  0  0  0  0  0  0  0  0  0  0  0
  -22.0330  -12.8920   22.0500 N   0  0  0  0  0  0  0  0  0  0  0  0
  -22.3520  -14.6110   20.6680 O   0  0  0  0  0  0  0  0  0  0  0  0
  -22.3870  -12.0620   22.4980 H   0  0  0  0  0  0  0  0  0  0  0  0
  -21.0960  -13.2020   22.2620 H   0  0  0  0  0  0  0  0  0  0  0  0
  -25.4250  -15.2280   20.3970 N   0  0  0  0  0  0  0  0  0  0  0  0
  -24.6580  -15.8840   20.4990 H   0  0  0  0  0  0  0  0  0  0  0  0
  -26.2600  -15.6530   20.0190 H   0  0  0  0  0  0  0  0  0  0  0  0
  2  5  1  0
  3  1  1  0
  4  2  1  0
  4  6  1  0
  5  1  1  0
  5 60  1  1
  6  3  1  0
  6  7  1  1
  8 11  1  0
  8  5  1  0
  9  8  1  0
 10  8  1  0
 12  6  1  0
 13 14  1  0
 15 13  1  0
 16 14  1  0
 17 12  1  0
 17 18  1  0
 17 15  1  0
 18 19  1  0
 18 16  1  0
 19 21  1  0
 20 31  2  0
 21 26  1  0
 22 30  1  0
 22 32  1  0
 23 29  1  0
 23 25  1  0
 24 30  1  0
 25 24  1  0
 26 25  2  0
 27 28  1  0
 27 21  2  0
 28 23  2  0
 29 22  1  0
 30 20  1  0
 32 34  2  0
 33 32  1  0
 35 33  1  0
 36 45  2  0
 36 41  1  0
 37 33  1  0
 37 41  1  0
 38 37  1  0
 39 40  1  0
 39 38  1  0
 40 36  1  0
 41 42  2  0
 42 43  1  0
 44 43  2  0
 45 44  1  0
 46 20  1  0
 46 51  1  0
 46 47  1  0
 47 50  1  1
 47 48  1  0
 49 47  1  0
 51 54  1  0
 52 56  1  0
 52 51  1  0
 53 52  2  0
 56 55  1  0
 58 56  1  0
 58 59  1  0
 58 57  1  0
 61 69  1  0
 62 67  1  0
 63 64  1  0
 63 62  1  0
 65 64  1  0
 65 74  1  0
 65 66  1  0
 67 61  1  0
 67 66  1  0
 68 61  2  0
 69 70  1  0
 69 60  1  0
 71 72  2  0
 72 91  1  0
 73 72  1  0
 73 76  1  0
 74 71  1  0
 74 75  1  0
 75 73  2  0
 76 77  1  0
 77 78  2  0
 79 82  1  0
 79 78  1  0
 80 79  2  0
 81 80  1  0
 81 76  2  0
 82 83  1  0
 83 84  1  0
 84 85  2  0
 86 85  1  0
 86 90  1  0
 87 86  2  0
 88 83  2  0
 88 87  1  0
 89 88  1  0
 91 92  1  0
 92 95  1  0
 92 94  1  0
 93 91  2  0
 96 97  1  0
 96 71  1  0
 98 96  1  0
M  ISO  4  18 101  19 101  61 100  69 100
M  END
>  <TORSDO>  (15) 
F 20

>  <SCORE>  (15) 
-13.988

>  <name>  (15) 
14

>  <ligand_id>  (15) 
14

>  <original_smiles>  (15) 
[H]c1c([H])c([H])c2c(c1[H])C([H])([H])C([H])([H])C([H])([H])C2([H])N([H])C(=O)C1([H])N(C(=O)C([H])(N([H])C(=O)C([H])(N([H])C([H])([H])[H])C([H])([H])[H])C(C([H])([H])[H])(C([H])([H])[H])C([H])([H])[H])C([H])([H])c2c([H])c(OC3([H])C([H])([H])C([H])([H])C([H])([H])C([H])([H])C3([H])C([H])([H])[N+]3([H])C([H])([H])C([H])([H])C(C([H])([H])N([H])C(=O)N4C([H])([H])C([H])([H])C([H])([H])C([H])(n5nc(-c6c([H])c([H])c(Oc7c([H])c([H])c(F)c([H])c7F)c([H])c6[H])c(C(=O)N([H])[H])c5N([H])[H])C4([H])[H])([N+]([H])([H])[H])C([H])([H])C3([H])[H])c([H])c([H])c2C1([H])[H]

>  <smiles>  (15) 
[H]c1c([H])c([H])c2c(c1[H])C([H])([H])C([H])([H])C([H])([H])C2([H])N([H])C(=O)C1([H])N(C(=O)C([H])(N([H])C(=O)C([H])(N([H])C([H])([H])[H])C([H])([H])[H])C(C([H])([H])[H])(C([H])([H])[H])C([H])([H])[H])C([H])([H])c2c([H])c(OC3([H])C([H])([H])C([H])([H])C([H])([H])C([H])([H])C3([H])C([H])([H])[N+]3([H])C([H])([H])C([H])([H])C(C([H])([H])N([H])C(=O)N4C([H])([H])C([H])([H])C([H])([H])C([H])(n5nc(-c6c([H])c([H])c(Oc7c([H])c([H])c(F)c([H])c7F)c([H])c6[H])c(C(=O)N([H])[H])c5N([H])[H])C4([H])[H])([N+]([H])([H])[H])C([H])([H])C3([H])[H])c([H])c([H])c2C1([H])[H]

$$$$
15:0:0
     RDKit          3D

 91 99  0  0  1  0  0  0  0  0999 V2000
  -28.3260  -18.8590   20.1130 C   0  0  0  0  0  2  0  0  0  0  0  0
  -30.5630  -19.1350   20.9340 C   0  0  0  0  0  2  0  0  0  0  0  0
  -28.2130  -20.4780   19.7300 C   0  0  0  0  0  2  0  0  0  0  0  0
  -29.7090  -18.0230   20.1400 C   0  0  0  0  0  3  0  0  0  0  0  0
  -30.0030  -20.6590   21.3090 C   0  0  0  0  0  3  0  0  0  0  0  0
  -29.1730  -21.5200   20.3260 N   0  0  2  0  0  4  0  0  0  0  0  0
  -29.7920  -21.7210   19.5550 H   0  0  0  0  0  0  0  0  0  0  0  0
  -30.4860  -15.2020   20.2810 C   0  0  0  0  0  0  0  0  0  0  0  0
  -30.4230  -12.7950   19.3730 C   0  0  0  0  0  2  0  0  0  0  0  0
  -29.4890  -12.6820   18.1430 C   0  0  0  0  0  2  0  0  0  0  0  0
  -28.0360  -12.4320   18.5850 C   0  0  0  0  0  2  0  0  0  0  0  0
  -27.6160  -13.3610   19.7500 C   0  0  0  0  0  3  0  0  0  0  0  0
  -28.6750  -13.4370   20.8720 C   0  0  0  0  0  2  0  0  0  0  0  0
  -29.9240  -13.9070   20.2540 N   0  0  0  0  0  0  0  0  0  0  0  0
  -31.6770  -15.2540   19.9500 O   0  0  0  0  0  0  0  0  0  0  0  0
  -29.6950  -16.4120   20.4880 N   0  0  0  0  0  0  0  0  0  0  0  0
  -28.7860  -16.1400   20.8300 H   0  0  0  0  0  0  0  0  0  0  0  0
  -25.2390  -13.9060   20.5040 C   0  0  0  0  0  0  0  0  0  0  0  0
  -24.1840  -13.1200   20.8770 C   0  0  0  0  0  0  0  0  0  0  0  0
  -24.6620  -11.7730   20.8420 C   0  0  0  0  0  0  0  0  0  0  0  0
  -26.2890  -13.0390   20.2570 N   0  0  0  0  0  0  0  0  0  0  0  0
  -25.9520  -11.7500   20.5270 N   0  0  0  0  0  0  0  0  0  0  0  0
  -23.9450  -10.5040   21.0300 C   0  0  0  0  0  0  0  0  0  0  0  0
  -24.3810   -9.5390   21.9640 C   0  0  0  0  0  3  0  0  0  0  0  0
  -23.6590   -8.3380   22.1420 C   0  0  0  0  0  3  0  0  0  0  0  0
  -22.4890   -8.0940   21.3860 C   0  0  0  0  0  0  0  0  0  0  0  0
  -22.0720   -9.0480   20.4410 C   0  0  0  0  0  3  0  0  0  0  0  0
  -22.7940  -10.2400   20.2610 C   0  0  0  0  0  3  0  0  0  0  0  0
  -21.7380   -6.9470   21.4730 O   0  0  0  0  0  0  0  0  0  0  0  0
  -21.6840   -6.2090   22.6300 C   0  0  0  0  0  0  0  0  0  0  0  0
  -21.2230   -6.7620   23.8440 C   0  0  0  0  0  3  0  0  0  0  0  0
  -21.1160   -5.9500   24.9910 C   0  0  0  0  0  3  0  0  0  0  0  0
  -21.4610   -4.5870   24.9250 C   0  0  0  0  0  0  0  0  0  0  0  0
  -21.9150   -4.0340   23.7140 C   0  0  0  0  0  3  0  0  0  0  0  0
  -22.0230   -4.8430   22.5690 C   0  0  0  0  0  0  0  0  0  0  0  0
  -22.4410   -4.2990   21.4000 F   0  0  0  0  0  0  0  0  0  0  0  0
  -21.3520   -3.8050   26.0240 F   0  0  0  0  0  0  0  0  0  0  0  0
  -22.7850  -13.5840   21.1520 C   0  0  0  0  0  0  0  0  0  0  0  0
  -22.0650  -12.8800   22.0180 N   0  0  0  0  0  0  0  0  0  0  0  0
  -22.3400  -14.6100   20.6380 O   0  0  0  0  0  0  0  0  0  0  0  0
  -22.4400  -12.0500   22.4520 H   0  0  0  0  0  0  0  0  0  0  0  0
  -21.1280  -13.1750   22.2510 H   0  0  0  0  0  0  0  0  0  0  0  0
  -25.3870  -15.2790   20.3280 N   0  0  0  0  0  0  0  0  0  0  0  0
  -24.6070  -15.9180   20.4250 H   0  0  0  0  0  0  0  0  0  0  0  0
  -26.2210  -15.7240   19.9680 H   0  0  0  0  0  0  0  0  0  0  0  0
  -31.1520  -21.4300   21.7610 N   0  0  0  0  0  0  0  0  0  0  0  0
  -31.9200  -21.2980   21.1120 H   0  0  0  0  0  0  0  0  0  0  0  0
  -31.4970  -21.0180   22.6210 H   0  0  0  0  0  0  0  0  0  0  0  0
  -28.6900  -23.0170   20.8430 C   0  0  0  0  0  2  0  0  0  0  0  0
  -28.1780  -24.4690   20.0040 C   0  0  0  0  0  2  0  0  0  0  0  0
  -28.2180  -26.0320   20.4310 O   0  0  0  0  0  0  0  0  0  0  0  0
  -24.6000  -31.9110   23.2500 C   0  0  0  0  0  0  0  0  0  0  0  0
  -27.1870  -27.0740   20.2940 C   0  0  0  0  0  0  0  0  0  0  0  0
  -23.4180  -30.5090   21.6030 C   0  0  0  0  0  3  0  0  0  0  0  0
  -24.8820  -28.9050   20.2030 C   0  0  0  0  0  0  0  0  0  0  0  0
  -25.9820  -30.7330   21.4830 C   0  0  0  0  0  2  0  0  0  0  0  0
  -26.0550  -29.3260   20.8400 C   0  0  0  0  0  0  0  0  0  0  0  0
  -27.2000  -28.4260   20.8690 C   0  0  0  0  0  3  0  0  0  0  0  0
  -25.9910  -26.7900   19.5970 C   0  0  0  0  0  3  0  0  0  0  0  0
  -24.8710  -27.6560   19.5640 C   0  0  0  0  0  3  0  0  0  0  0  0
  -23.6600  -29.8180   20.2330 C   0  0  0  0  0  2  0  0  0  0  0  0
  -24.6870  -31.0770   22.1660 N   0  0  0  0  0  0  0  0  0  0  0  0
  -23.5070  -32.2050   23.7610 O   0  0  0  0  0  0  0  0  0  0  0  0
  -22.7180  -29.5160   22.5670 C   0  0  0  0  0  0  0  0  0  0  0  0
  -21.3880  -29.3600   22.4380 N   0  0  0  0  0  0  0  0  0  0  0  0
  -23.3770  -28.8860   23.3980 O   0  0  0  0  0  0  0  0  0  0  0  0
  -20.9100  -29.9230   21.7480 H   0  0  0  0  0  0  0  0  0  0  0  0
  -17.9910  -28.1930   22.9410 C   0  0  0  0  0  0  0  0  0  0  0  0
  -20.5530  -28.4310   23.2080 C   0  0  0  0  0  3  0  0  0  0  0  0
  -20.6420  -26.9980   22.6340 C   0  0  0  0  0  2  0  0  0  0  0  0
  -19.5370  -26.6850   21.6200 C   0  0  0  0  0  2  0  0  0  0  0  0
  -18.1540  -26.8440   22.2610 C   0  0  0  0  0  2  0  0  0  0  0  0
  -19.1180  -28.9440   23.3710 C   0  0  0  0  0  0  0  0  0  0  0  0
  -18.9090  -30.2050   23.9700 C   0  0  0  0  0  3  0  0  0  0  0  0
  -17.6080  -30.7160   24.1390 C   0  0  0  0  0  3  0  0  0  0  0  0
  -16.4970  -29.9620   23.7240 C   0  0  0  0  0  3  0  0  0  0  0  0
  -16.6900  -28.7020   23.1300 C   0  0  0  0  0  3  0  0  0  0  0  0
  -25.8690  -32.5510   23.8910 C   0  0  0  0  0  3  0  0  0  0  0  0
  -26.3490  -31.8050   25.1970 C   0  0  1  0  0  0  0  0  0  0  0  0
  -25.2290  -31.6040   26.2440 C   0  0  0  0  0  1  0  0  0  0  0  0
  -26.9300  -30.4130   24.8570 C   0  0  0  0  0  1  0  0  0  0  0  0
  -27.4900  -32.6080   25.8690 C   0  0  0  0  0  1  0  0  0  0  0  0
  -25.5590  -33.9580   24.1960 N   0  0  0  0  0  0  0  0  0  0  0  0
  -25.9090  -35.0040   23.4360 C   0  0  0  0  0  0  0  0  0  0  0  0
  -26.5930  -34.8850   22.4150 O   0  0  0  0  0  0  0  0  0  0  0  0
  -24.9550  -34.1240   24.9880 H   0  0  0  0  0  0  0  0  0  0  0  0
  -24.2040  -36.8160   23.0460 C   0  0  0  0  0  1  0  0  0  0  0  0
  -25.4290  -36.4010   23.8770 C   0  0  0  0  0  3  0  0  0  0  0  0
  -27.5560  -37.2790   24.7390 C   0  0  0  0  0  1  0  0  0  0  0  0
  -26.4740  -37.4450   23.7720 N   0  0  0  0  0  0  0  0  0  0  0  0
  -26.0710  -38.3700   23.9040 H   0  0  0  0  0  0  0  0  0  0  0  0
  1  4  1  0
  2  5  1  0
  3  1  1  0
  3  6  1  0
  4 16  1  0
  4  2  1  0
  5 46  1  0
  6 49  1  0
  6  5  1  0
  6  7  1  6
  8 16  1  0
  9 14  1  0
 10 11  1  0
 10  9  1  0
 12 11  1  0
 12 21  1  0
 12 13  1  0
 14  8  1  0
 14 13  1  0
 15  8  2  0
 16 17  1  0
 18 19  2  0
 19 38  1  0
 20 19  1  0
 20 23  1  0
 21 18  1  0
 21 22  1  0
 22 20  2  0
 23 24  1  0
 24 25  2  0
 26 29  1  0
 26 25  1  0
 27 26  2  0
 28 27  1  0
 28 23  2  0
 29 30  1  0
 30 31  1  0
 31 32  2  0
 33 32  1  0
 33 37  1  0
 34 33  2  0
 35 30  2  0
 35 34  1  0
 36 35  1  0
 38 39  1  0
 39 42  1  0
 39 41  1  0
 40 38  2  0
 43 44  1  0
 43 18  1  0
 45 43  1  0
 46 48  1  0
 47 46  1  0
 50 51  1  0
 50 49  1  0
 52 63  2  0
 53 51  1  0
 53 58  1  0
 54 62  1  0
 54 64  1  0
 55 61  1  0
 55 57  1  0
 56 62  1  0
 57 58  2  0
 57 56  1  0
 59 53  2  0
 60 59  1  0
 60 55  2  0
 61 54  1  0
 62 52  1  0
 64 66  2  0
 65 64  1  0
 67 65  1  0
 68 77  2  0
 68 73  1  0
 69 65  1  0
 69 73  1  0
 70 69  1  0
 71 72  1  0
 71 70  1  0
 72 68  1  0
 73 74  2  0
 74 75  1  0
 76 75  2  0
 77 76  1  0
 78 52  1  0
 78 83  1  0
 78 79  1  0
 79 82  1  1
 79 80  1  0
 81 79  1  0
 83 86  1  0
 84 88  1  0
 84 83  1  0
 85 84  2  0
 88 87  1  0
 90 88  1  0
 90 91  1  0
 90 89  1  0
M  ISO  4   8 100  16 100  50 101  51 101
M  END
>  <TORSDO>  (16) 
F 19

>  <SCORE>  (16) 
-15.403

>  <name>  (16) 
15

>  <ligand_id>  (16) 
15

>  <original_smiles>  (16) 
[H]c1c([H])c([H])c2c(c1[H])C([H])([H])C([H])([H])C([H])([H])C2([H])N([H])C(=O)C1([H])N(C(=O)C([H])(N([H])C(=O)C([H])(N([H])C([H])([H])[H])C([H])([H])[H])C(C([H])([H])[H])(C([H])([H])[H])C([H])([H])[H])C([H])([H])c2c([H])c(OC([H])([H])C([H])([H])[N+]3([H])C([H])([H])C([H])([H])C([H])(N([H])C(=O)N4C([H])([H])C([H])([H])C([H])([H])C([H])(n5nc(-c6c([H])c([H])c(Oc7c([H])c([H])c(F)c([H])c7F)c([H])c6[H])c(C(=O)N([H])[H])c5N([H])[H])C4([H])[H])C([H])([H])C3([H])N([H])[H])c([H])c([H])c2C1([H])[H]

>  <smiles>  (16) 
[H]c1c([H])c([H])c2c(c1[H])C([H])([H])C([H])([H])C([H])([H])C2([H])N([H])C(=O)C1([H])N(C(=O)C([H])(N([H])C(=O)C([H])(N([H])C([H])([H])[H])C([H])([H])[H])C(C([H])([H])[H])(C([H])([H])[H])C([H])([H])[H])C([H])([H])c2c([H])c(OC([H])([H])C([H])([H])[N+]3([H])C([H])([H])C([H])([H])C([H])(N([H])C(=O)N4C([H])([H])C([H])([H])C([H])([H])C([H])(n5nc(-c6c([H])c([H])c(Oc7c([H])c([H])c(F)c([H])c7F)c([H])c6[H])c(C(=O)N([H])[H])c5N([H])[H])C4([H])[H])C([H])([H])C3([H])N([H])[H])c([H])c([H])c2C1([H])[H]

$$$$
16:0:0
     RDKit          3D

 92100  0  0  1  0  0  0  0  0999 V2000
  -29.7080  -22.0060   19.0930 N   0  0  0  0  0  0  0  0  0  0  0  0
  -29.5430  -20.8890   16.8590 C   0  0  0  0  0  1  0  0  0  0  0  0
  -28.8240  -21.6810   17.9610 C   0  0  0  0  0  2  0  0  0  0  0  0
  -29.0710  -22.9400   20.0300 C   0  0  0  0  0  2  0  0  0  0  0  0
  -29.0750  -24.4070   19.5320 C   0  0  0  0  0  2  0  0  0  0  0  0
  -28.4180  -25.3510   20.5570 C   0  0  0  0  0  2  0  0  0  0  0  0
  -28.4950  -26.7340   20.1780 O   0  0  0  0  0  0  0  0  0  0  0  0
  -24.6030  -31.8730   23.2260 C   0  0  0  0  0  0  0  0  0  0  0  0
  -27.3100  -27.4390   20.1850 C   0  0  0  0  0  0  0  0  0  0  0  0
  -23.4240  -30.4630   21.5700 C   0  0  0  0  0  3  0  0  0  0  0  0
  -24.9030  -28.9230   20.1700 C   0  0  0  0  0  0  0  0  0  0  0  0
  -25.9500  -30.8280   21.4050 C   0  0  0  0  0  2  0  0  0  0  0  0
  -26.0480  -29.4540   20.7760 C   0  0  0  0  0  0  0  0  0  0  0  0
  -27.2550  -28.7170   20.7810 C   0  0  0  0  0  3  0  0  0  0  0  0
  -26.1490  -26.9180   19.5720 C   0  0  0  0  0  3  0  0  0  0  0  0
  -24.9470  -27.6530   19.5670 C   0  0  0  0  0  3  0  0  0  0  0  0
  -23.6550  -29.7790   20.1970 C   0  0  0  0  0  2  0  0  0  0  0  0
  -24.6770  -31.0700   22.1260 N   0  0  0  0  0  0  0  0  0  0  0  0
  -23.5150  -32.1440   23.7490 O   0  0  0  0  0  0  0  0  0  0  0  0
  -22.7630  -29.4430   22.5240 C   0  0  0  0  0  0  0  0  0  0  0  0
  -21.4380  -29.2660   22.3850 N   0  0  0  0  0  0  0  0  0  0  0  0
  -23.4370  -28.8120   23.3420 O   0  0  0  0  0  0  0  0  0  0  0  0
  -20.9570  -29.8340   21.7010 H   0  0  0  0  0  0  0  0  0  0  0  0
  -18.0510  -28.1040   22.8590 C   0  0  0  0  0  0  0  0  0  0  0  0
  -20.6100  -28.3300   23.1410 C   0  0  0  0  0  3  0  0  0  0  0  0
  -20.6970  -26.9040   22.5500 C   0  0  0  0  0  2  0  0  0  0  0  0
  -19.5930  -26.6060   21.5290 C   0  0  0  0  0  2  0  0  0  0  0  0
  -18.2110  -26.7600   22.1690 C   0  0  0  0  0  2  0  0  0  0  0  0
  -19.1770  -28.8490   23.3010 C   0  0  0  0  0  0  0  0  0  0  0  0
  -18.9730  -30.1080   23.9030 C   0  0  0  0  0  3  0  0  0  0  0  0
  -17.6740  -30.6250   24.0680 C   0  0  0  0  0  3  0  0  0  0  0  0
  -16.5610  -29.8760   23.6440 C   0  0  0  0  0  3  0  0  0  0  0  0
  -16.7510  -28.6180   23.0470 C   0  0  0  0  0  3  0  0  0  0  0  0
  -25.8790  -32.5060   23.8660 C   0  0  0  0  0  3  0  0  0  0  0  0
  -26.3800  -31.7350   25.1500 C   0  0  1  0  0  0  0  0  0  0  0  0
  -25.2740  -31.4910   26.2030 C   0  0  0  0  0  1  0  0  0  0  0  0
  -26.9720  -30.3620   24.7570 C   0  0  0  0  0  1  0  0  0  0  0  0
  -27.5180  -32.5330   25.8290 C   0  0  0  0  0  1  0  0  0  0  0  0
  -25.5640  -33.9040   24.1880 N   0  0  0  0  0  0  0  0  0  0  0  0
  -25.9010  -34.9550   23.4270 C   0  0  0  0  0  0  0  0  0  0  0  0
  -26.5820  -34.8480   22.4020 O   0  0  0  0  0  0  0  0  0  0  0  0
  -24.9640  -34.0610   24.9850 H   0  0  0  0  0  0  0  0  0  0  0  0
  -24.1750  -36.7430   23.0390 C   0  0  0  0  0  1  0  0  0  0  0  0
  -25.4040  -36.3440   23.8720 C   0  0  0  0  0  3  0  0  0  0  0  0
  -27.5230  -37.2370   24.7330 C   0  0  0  0  0  1  0  0  0  0  0  0
  -26.4360  -37.3990   23.7710 N   0  0  0  0  0  0  0  0  0  0  0  0
  -26.0260  -38.3190   23.9040 H   0  0  0  0  0  0  0  0  0  0  0  0
  -30.2810  -20.8350   19.7890 C   0  0  0  0  0  2  0  0  0  0  0  0
  -29.2680  -19.8950   20.4980 C   0  0  0  0  0  2  0  0  0  0  0  0
  -30.7190  -14.4860   20.1040 C   0  0  0  0  0  0  0  0  0  0  0  0
  -30.2650  -12.3650   18.9230 C   0  0  0  0  0  2  0  0  0  0  0  0
  -29.2610  -12.5830   17.7770 C   0  0  0  0  0  2  0  0  0  0  0  0
  -27.8160  -12.4150   18.2870 C   0  0  0  0  0  2  0  0  0  0  0  0
  -27.5540  -13.2190   19.5830 C   0  0  0  0  0  3  0  0  0  0  0  0
  -28.6840  -13.0080   20.6260 C   0  0  0  0  0  2  0  0  0  0  0  0
  -29.9600  -13.3520   19.9800 N   0  0  0  0  0  0  0  0  0  0  0  0
  -31.8420  -14.5310   19.5990 O   0  0  0  0  0  0  0  0  0  0  0  0
  -28.8670  -16.1070   20.4340 C   0  0  0  0  0  2  0  0  0  0  0  0
  -31.2270  -16.6170   21.2120 C   0  0  0  0  0  2  0  0  0  0  0  0
  -28.5360  -17.5640   20.7770 C   0  0  0  0  0  2  0  0  0  0  0  0
  -30.7910  -18.1030   21.3390 C   0  0  0  0  0  2  0  0  0  0  0  0
  -30.2290  -15.6090   20.7310 N   0  0  0  0  0  0  0  0  0  0  0  0
  -29.6610  -18.4570   20.4590 N   0  0  2  0  0  4  0  0  0  0  0  0
  -29.9320  -18.2560   19.5100 H   0  0  0  0  0  0  0  0  0  0  0  0
  -25.2110  -13.8570   20.4310 C   0  0  0  0  0  0  0  0  0  0  0  0
  -24.1550  -13.0940   20.8550 C   0  0  0  0  0  0  0  0  0  0  0  0
  -24.5980  -11.7390   20.7750 C   0  0  0  0  0  0  0  0  0  0  0  0
  -26.2280  -12.9630   20.1350 N   0  0  0  0  0  0  0  0  0  0  0  0
  -25.8680  -11.6860   20.3980 N   0  0  0  0  0  0  0  0  0  0  0  0
  -23.8700  -10.4840   20.9820 C   0  0  0  0  0  0  0  0  0  0  0  0
  -24.3260   -9.5110   21.8970 C   0  0  0  0  0  3  0  0  0  0  0  0
  -23.6050   -8.3130   22.0870 C   0  0  0  0  0  3  0  0  0  0  0  0
  -22.4120   -8.0820   21.3620 C   0  0  0  0  0  0  0  0  0  0  0  0
  -21.9770   -9.0430   20.4330 C   0  0  0  0  0  3  0  0  0  0  0  0
  -22.7000  -10.2320   20.2410 C   0  0  0  0  0  3  0  0  0  0  0  0
  -21.6580   -6.9380   21.4620 O   0  0  0  0  0  0  0  0  0  0  0  0
  -21.6160   -6.2060   22.6210 C   0  0  0  0  0  0  0  0  0  0  0  0
  -21.1790   -6.7650   23.8410 C   0  0  0  0  0  3  0  0  0  0  0  0
  -21.0850   -5.9580   24.9920 C   0  0  0  0  0  3  0  0  0  0  0  0
  -21.4220   -4.5910   24.9240 C   0  0  0  0  0  0  0  0  0  0  0  0
  -21.8530   -4.0330   23.7090 C   0  0  0  0  0  3  0  0  0  0  0  0
  -21.9490   -4.8380   22.5600 C   0  0  0  0  0  0  0  0  0  0  0  0
  -22.3440   -4.2880   21.3870 F   0  0  0  0  0  0  0  0  0  0  0  0
  -21.3280   -3.8150   26.0290 F   0  0  0  0  0  0  0  0  0  0  0  0
  -22.7800  -13.5840   21.2080 C   0  0  0  0  0  0  0  0  0  0  0  0
  -22.0850  -12.8780   22.0940 N   0  0  0  0  0  0  0  0  0  0  0  0
  -22.3290  -14.6260   20.7340 O   0  0  0  0  0  0  0  0  0  0  0  0
  -22.4610  -12.0320   22.4950 H   0  0  0  0  0  0  0  0  0  0  0  0
  -21.1660  -13.1920   22.3760 H   0  0  0  0  0  0  0  0  0  0  0  0
  -25.3850  -15.2240   20.2500 N   0  0  0  0  0  0  0  0  0  0  0  0
  -24.6170  -15.8740   20.3680 H   0  0  0  0  0  0  0  0  0  0  0  0
  -26.1560  -15.6150   19.7270 H   0  0  0  0  0  0  0  0  0  0  0  0
  1 48  1  0
  1  4  1  0
  2  3  1  0
  3  1  1  0
  5  4  1  0
  5  6  1  0
  7  9  1  0
  7  6  1  0
  8 19  2  0
  9 14  1  0
 10 18  1  0
 10 20  1  0
 11 17  1  0
 11 13  1  0
 12 18  1  0
 13 14  2  0
 13 12  1  0
 15  9  2  0
 16 15  1  0
 16 11  2  0
 17 10  1  0
 18  8  1  0
 20 22  2  0
 21 20  1  0
 23 21  1  0
 24 33  2  0
 24 29  1  0
 25 21  1  0
 25 29  1  0
 26 25  1  0
 27 28  1  0
 27 26  1  0
 28 24  1  0
 29 30  2  0
 30 31  1  0
 32 31  2  0
 33 32  1  0
 34  8  1  0
 34 39  1  0
 34 35  1  0
 35 38  1  1
 35 36  1  0
 37 35  1  0
 39 42  1  0
 40 44  1  0
 40 39  1  0
 41 40  2  0
 44 43  1  0
 46 44  1  0
 46 47  1  0
 46 45  1  0
 48 49  1  0
 50 62  1  0
 51 56  1  0
 52 53  1  0
 52 51  1  0
 54 53  1  0
 54 68  1  0
 54 55  1  0
 56 50  1  0
 56 55  1  0
 57 50  2  0
 58 62  1  0
 58 60  1  0
 59 61  1  0
 62 59  1  0
 63 49  1  0
 63 60  1  0
 63 61  1  0
 63 64  1  6
 65 66  2  0
 66 85  1  0
 67 66  1  0
 67 70  1  0
 68 69  1  0
 68 65  1  0
 69 67  2  0
 70 71  1  0
 71 72  2  0
 73 76  1  0
 73 72  1  0
 74 73  2  0
 75 74  1  0
 75 70  2  0
 76 77  1  0
 77 78  1  0
 78 79  2  0
 80 79  1  0
 80 84  1  0
 81 80  2  0
 82 77  2  0
 82 81  1  0
 83 82  1  0
 85 86  1  0
 86 89  1  0
 86 88  1  0
 87 85  2  0
 90 91  1  0
 90 65  1  0
 92 90  1  0
M  ISO  4   6 101   7 101  50 100  62 100
M  END
>  <TORSDO>  (17) 
F 22

>  <SCORE>  (17) 
-13.222

>  <name>  (17) 
16

>  <ligand_id>  (17) 
16

>  <original_smiles>  (17) 
[H]c1c([H])c([H])c2c(c1[H])C([H])([H])C([H])([H])C([H])([H])C2([H])N([H])C(=O)C1([H])N(C(=O)C([H])(N([H])C(=O)C([H])(N([H])C([H])([H])[H])C([H])([H])[H])C(C([H])([H])[H])(C([H])([H])[H])C([H])([H])[H])C([H])([H])c2c([H])c(OC([H])([H])C([H])([H])C([H])([H])N(C([H])([H])C([H])([H])[H])C([H])([H])C([H])([H])[N+]3([H])C([H])([H])C([H])([H])N(C(=O)N4C([H])([H])C([H])([H])C([H])([H])C([H])(n5nc(-c6c([H])c([H])c(Oc7c([H])c([H])c(F)c([H])c7F)c([H])c6[H])c(C(=O)N([H])[H])c5N([H])[H])C4([H])[H])C([H])([H])C3([H])[H])c([H])c([H])c2C1([H])[H]

>  <smiles>  (17) 
[H]c1c([H])c([H])c2c(c1[H])C([H])([H])C([H])([H])C([H])([H])C2([H])N([H])C(=O)C1([H])N(C(=O)C([H])(N([H])C(=O)C([H])(N([H])C([H])([H])[H])C([H])([H])[H])C(C([H])([H])[H])(C([H])([H])[H])C([H])([H])[H])C([H])([H])c2c([H])c(OC([H])([H])C([H])([H])C([H])([H])N(C([H])([H])C([H])([H])[H])C([H])([H])C([H])([H])[N+]3([H])C([H])([H])C([H])([H])N(C(=O)N4C([H])([H])C([H])([H])C([H])([H])C([H])(n5nc(-c6c([H])c([H])c(Oc7c([H])c([H])c(F)c([H])c7F)c([H])c6[H])c(C(=O)N([H])[H])c5N([H])[H])C4([H])[H])C([H])([H])C3([H])[H])c([H])c([H])c2C1([H])[H]

$$$$
17:0:0
     RDKit          3D

 93101  0  0  1  0  0  0  0  0999 V2000
  -29.7100  -21.8430   21.0870 C   0  0  0  0  0  2  0  0  0  0  0  0
  -30.2880  -21.2430   17.9030 C   0  0  0  0  0  2  0  0  0  0  0  0
  -28.9340  -20.5300   18.0720 C   0  0  0  0  0  2  0  0  0  0  0  0
  -31.2190  -20.9420   19.1010 C   0  0  0  0  0  2  0  0  0  0  0  0
  -29.1320  -19.1910   18.7980 C   0  0  0  0  0  2  0  0  0  0  0  0
  -30.4350  -20.5980   20.4010 C   0  0  0  0  0  3  0  0  0  0  0  0
  -29.6000  -19.3700   20.1890 N   0  0  0  0  0  0  0  0  0  0  0  0
  -30.2560  -18.1170   20.6780 C   0  0  0  0  0  2  0  0  0  0  0  0
  -29.4660  -16.7950   20.3760 C   0  0  0  0  0  2  0  0  0  0  0  0
  -30.6090  -14.5500   20.4800 C   0  0  0  0  0  0  0  0  0  0  0  0
  -30.3610  -12.3690   19.3450 C   0  0  0  0  0  2  0  0  0  0  0  0
  -29.4220  -12.5930   18.1410 C   0  0  0  0  0  2  0  0  0  0  0  0
  -27.9450  -12.4390   18.5540 C   0  0  0  0  0  2  0  0  0  0  0  0
  -27.6050  -13.2400   19.8390 C   0  0  0  0  0  3  0  0  0  0  0  0
  -28.6610  -13.0060   20.9460 C   0  0  0  0  0  2  0  0  0  0  0  0
  -29.9890  -13.3360   20.3950 N   0  0  0  0  0  0  0  0  0  0  0  0
  -31.6890  -14.7850   19.9300 O   0  0  0  0  0  0  0  0  0  0  0  0
  -29.8810  -15.5370   21.0460 N   0  0  0  0  0  0  0  0  0  0  0  0
  -29.1870  -15.1910   21.6910 H   0  0  0  0  0  0  0  0  0  0  0  0
  -25.2040  -13.8380   20.5400 C   0  0  0  0  0  0  0  0  0  0  0  0
  -24.1380  -13.0640   20.9150 C   0  0  0  0  0  0  0  0  0  0  0  0
  -24.6000  -11.7120   20.8780 C   0  0  0  0  0  0  0  0  0  0  0  0
  -26.2500  -12.9580   20.3080 N   0  0  0  0  0  0  0  0  0  0  0  0
  -25.8910  -11.6750   20.5680 N   0  0  0  0  0  0  0  0  0  0  0  0
  -23.8760  -10.4500   21.0700 C   0  0  0  0  0  0  0  0  0  0  0  0
  -24.3250   -9.4820   21.9950 C   0  0  0  0  0  3  0  0  0  0  0  0
  -23.6090   -8.2790   22.1750 C   0  0  0  0  0  3  0  0  0  0  0  0
  -22.4300   -8.0370   21.4340 C   0  0  0  0  0  0  0  0  0  0  0  0
  -21.9990   -8.9960   20.4980 C   0  0  0  0  0  3  0  0  0  0  0  0
  -22.7150  -10.1910   20.3160 C   0  0  0  0  0  3  0  0  0  0  0  0
  -21.6790   -6.8910   21.5260 O   0  0  0  0  0  0  0  0  0  0  0  0
  -21.6560   -6.1350   22.6710 C   0  0  0  0  0  0  0  0  0  0  0  0
  -21.2560   -6.6750   23.9130 C   0  0  0  0  0  3  0  0  0  0  0  0
  -21.1780   -5.8450   25.0490 C   0  0  0  0  0  3  0  0  0  0  0  0
  -21.4880   -4.4770   24.9460 C   0  0  0  0  0  0  0  0  0  0  0  0
  -21.8810   -3.9360   23.7080 C   0  0  0  0  0  3  0  0  0  0  0  0
  -21.9630   -4.7630   22.5750 C   0  0  0  0  0  0  0  0  0  0  0  0
  -22.3190   -4.2310   21.3810 F   0  0  0  0  0  0  0  0  0  0  0  0
  -21.4080   -3.6770   26.0340 F   0  0  0  0  0  0  0  0  0  0  0  0
  -22.7390  -13.5350   21.1950 C   0  0  0  0  0  0  0  0  0  0  0  0
  -22.0180  -12.8350   22.0640 N   0  0  0  0  0  0  0  0  0  0  0  0
  -22.2940  -14.5590   20.6790 O   0  0  0  0  0  0  0  0  0  0  0  0
  -22.3970  -12.0160   22.5170 H   0  0  0  0  0  0  0  0  0  0  0  0
  -21.0710  -13.1200   22.2740 H   0  0  0  0  0  0  0  0  0  0  0  0
  -25.3720  -15.2090   20.3570 N   0  0  0  0  0  0  0  0  0  0  0  0
  -24.6110  -15.8710   20.4450 H   0  0  0  0  0  0  0  0  0  0  0  0
  -26.2250  -15.6360   20.0190 H   0  0  0  0  0  0  0  0  0  0  0  0
  -29.3430  -22.9850   20.1850 N   0  0  0  0  0  4  0  0  0  0  0  0
  -28.6580  -22.6330   19.5360 H   0  0  0  0  0  0  0  0  0  0  0  0
  -30.1770  -23.2080   19.6630 H   0  0  0  0  0  0  0  0  0  0  0  0
  -28.8370  -24.2690   20.7810 C   0  0  0  0  0  2  0  0  0  0  0  0
  -28.6280  -25.3900   19.7050 C   0  0  0  0  0  2  0  0  0  0  0  0
  -28.4430  -26.7260   20.2350 O   0  0  0  0  0  0  0  0  0  0  0  0
  -24.5750  -31.8950   23.2370 C   0  0  0  0  0  0  0  0  0  0  0  0
  -27.2370  -27.4140   20.1820 C   0  0  0  0  0  0  0  0  0  0  0  0
  -23.3710  -30.4790   21.6000 C   0  0  0  0  0  3  0  0  0  0  0  0
  -24.8270  -28.9320   20.1840 C   0  0  0  0  0  0  0  0  0  0  0  0
  -25.9000  -30.8280   21.4140 C   0  0  0  0  0  2  0  0  0  0  0  0
  -25.9850  -29.4550   20.7730 C   0  0  0  0  0  0  0  0  0  0  0  0
  -27.1820  -28.7020   20.7720 C   0  0  0  0  0  3  0  0  0  0  0  0
  -26.0550  -26.9110   19.5840 C   0  0  0  0  0  3  0  0  0  0  0  0
  -24.8610  -27.6590   19.5910 C   0  0  0  0  0  3  0  0  0  0  0  0
  -23.5820  -29.7870   20.2270 C   0  0  0  0  0  2  0  0  0  0  0  0
  -24.6310  -31.0870   22.1390 N   0  0  0  0  0  0  0  0  0  0  0  0
  -23.4930  -32.1690   23.7750 O   0  0  0  0  0  0  0  0  0  0  0  0
  -22.7210  -29.4640   22.5660 C   0  0  0  0  0  0  0  0  0  0  0  0
  -21.3980  -29.2800   22.4370 N   0  0  0  0  0  0  0  0  0  0  0  0
  -23.4050  -28.8420   23.3840 O   0  0  0  0  0  0  0  0  0  0  0  0
  -20.9050  -29.8350   21.7490 H   0  0  0  0  0  0  0  0  0  0  0  0
  -18.0290  -28.0710   22.9240 C   0  0  0  0  0  0  0  0  0  0  0  0
  -20.5830  -28.3400   23.2050 C   0  0  0  0  0  3  0  0  0  0  0  0
  -20.6950  -26.9070   22.6340 C   0  0  0  0  0  2  0  0  0  0  0  0
  -19.6010  -26.5760   21.6160 C   0  0  0  0  0  2  0  0  0  0  0  0
  -18.2160  -26.7190   22.2550 C   0  0  0  0  0  2  0  0  0  0  0  0
  -19.1420  -28.8400   23.3550 C   0  0  0  0  0  0  0  0  0  0  0  0
  -18.9160  -30.1050   23.9390 C   0  0  0  0  0  3  0  0  0  0  0  0
  -17.6100  -30.6030   24.0940 C   0  0  0  0  0  3  0  0  0  0  0  0
  -16.5100  -29.8300   23.6850 C   0  0  0  0  0  3  0  0  0  0  0  0
  -16.7200  -28.5650   23.1080 C   0  0  0  0  0  3  0  0  0  0  0  0
  -25.8610  -32.5280   23.8530 C   0  0  0  0  0  3  0  0  0  0  0  0
  -25.5530  -33.9260   24.1820 N   0  0  0  0  0  0  0  0  0  0  0  0
  -25.8860  -34.9770   23.4210 C   0  0  0  0  0  0  0  0  0  0  0  0
  -26.5540  -34.8730   22.3890 O   0  0  0  0  0  0  0  0  0  0  0  0
  -24.9600  -34.0850   24.9820 H   0  0  0  0  0  0  0  0  0  0  0  0
  -24.1550  -36.7630   23.0690 C   0  0  0  0  0  1  0  0  0  0  0  0
  -25.3990  -36.3640   23.8770 C   0  0  0  0  0  3  0  0  0  0  0  0
  -27.5320  -37.2530   24.7040 C   0  0  0  0  0  1  0  0  0  0  0  0
  -26.4290  -37.4190   23.7610 N   0  0  0  0  0  0  0  0  0  0  0  0
  -26.0220  -38.3380   23.9140 H   0  0  0  0  0  0  0  0  0  0  0  0
  -26.3870  -31.7620   25.1300 C   0  0  1  0  0  0  0  0  0  0  0  0
  -25.2950  -31.5220   26.2000 C   0  0  0  0  0  1  0  0  0  0  0  0
  -26.9690  -30.3840   24.7400 C   0  0  0  0  0  1  0  0  0  0  0  0
  -27.5390  -32.5600   25.7860 C   0  0  0  0  0  1  0  0  0  0  0  0
  2  3  1  0
  2  4  1  0
  3  5  1  0
  4  6  1  0
  5  7  1  0
  6  1  1  0
  7  6  1  0
  7  8  1  0
  9  8  1  0
  9 18  1  0
 10 18  1  0
 11 16  1  0
 12 13  1  0
 12 11  1  0
 14 13  1  0
 14 23  1  0
 14 15  1  0
 16 10  1  0
 16 15  1  0
 17 10  2  0
 18 19  1  0
 20 21  2  0
 21 40  1  0
 22 21  1  0
 22 25  1  0
 23 20  1  0
 23 24  1  0
 24 22  2  0
 25 26  1  0
 26 27  2  0
 28 31  1  0
 28 27  1  0
 29 28  2  0
 30 29  1  0
 30 25  2  0
 31 32  1  0
 32 33  1  0
 33 34  2  0
 35 34  1  0
 35 39  1  0
 36 35  2  0
 37 32  2  0
 37 36  1  0
 38 37  1  0
 40 41  1  0
 41 44  1  0
 41 43  1  0
 42 40  2  0
 45 46  1  0
 45 20  1  0
 47 45  1  0
 48 51  1  0
 48  1  1  0
 49 48  1  0
 50 48  1  0
 52 53  1  0
 52 51  1  0
 54 65  2  0
 55 53  1  0
 55 60  1  0
 56 64  1  0
 56 66  1  0
 57 63  1  0
 57 59  1  0
 58 64  1  0
 59 58  1  0
 60 59  2  0
 61 62  1  0
 61 55  2  0
 62 57  2  0
 63 56  1  0
 64 54  1  0
 66 68  2  0
 67 66  1  0
 69 67  1  0
 70 79  2  0
 70 75  1  0
 71 67  1  0
 71 75  1  0
 72 71  1  0
 73 74  1  0
 73 72  1  0
 74 70  1  0
 75 76  2  0
 76 77  1  0
 78 77  2  0
 79 78  1  0
 80 54  1  0
 80 81  1  0
 80 90  1  0
 81 84  1  0
 82 86  1  0
 82 81  1  0
 83 82  2  0
 86 85  1  0
 88 86  1  0
 88 89  1  0
 88 87  1  0
 90 93  1  1
 90 91  1  0
 92 90  1  0
M  ISO  4  10 100  18 100  52 101  53 101
M  END
>  <TORSDO>  (18) 
F 22

>  <SCORE>  (18) 
-13.215

>  <name>  (18) 
17

>  <ligand_id>  (18) 
17

>  <original_smiles>  (18) 
[H]c1c([H])c([H])c2c(c1[H])C([H])([H])C([H])([H])C([H])([H])C2([H])N([H])C(=O)C1([H])N(C(=O)C([H])(N([H])C(=O)C([H])(N([H])C([H])([H])[H])C([H])([H])[H])C(C([H])([H])[H])(C([H])([H])[H])C([H])([H])[H])C([H])([H])c2c([H])c(OC([H])([H])C([H])([H])[N+]([H])([H])C([H])([H])C3([H])N(C([H])([H])C([H])([H])N([H])C(=O)N4C([H])([H])C([H])([H])C([H])([H])C([H])(n5nc(-c6c([H])c([H])c(Oc7c([H])c([H])c(F)c([H])c7F)c([H])c6[H])c(C(=O)N([H])[H])c5N([H])[H])C4([H])[H])C([H])([H])C([H])([H])C([H])([H])C3([H])[H])c([H])c([H])c2C1([H])[H]

>  <smiles>  (18) 
[H]c1c([H])c([H])c2c(c1[H])C([H])([H])C([H])([H])C([H])([H])C2([H])N([H])C(=O)C1([H])N(C(=O)C([H])(N([H])C(=O)C([H])(N([H])C([H])([H])[H])C([H])([H])[H])C(C([H])([H])[H])(C([H])([H])[H])C([H])([H])[H])C([H])([H])c2c([H])c(OC([H])([H])C([H])([H])[N+]([H])([H])C([H])([H])C3([H])N(C([H])([H])C([H])([H])N([H])C(=O)N4C([H])([H])C([H])([H])C([H])([H])C([H])(n5nc(-c6c([H])c([H])c(Oc7c([H])c([H])c(F)c([H])c7F)c([H])c6[H])c(C(=O)N([H])[H])c5N([H])[H])C4([H])[H])C([H])([H])C([H])([H])C([H])([H])C3([H])[H])c([H])c([H])c2C1([H])[H]

$$$$
18:0:0
     RDKit          3D

 92100  0  0  1  0  0  0  0  0999 V2000
  -29.0100  -22.4550   19.9780 C   0  0  0  0  0  2  0  0  0  0  0  0
  -29.0170  -20.9450   19.3400 C   0  0  0  0  0  2  0  0  0  0  0  0
  -29.5200  -19.7900   20.2290 N   0  0  0  0  0  4  0  0  0  0  0  0
  -30.2740  -20.1820   20.7690 H   0  0  0  0  0  0  0  0  0  0  0  0
  -28.7850  -19.6010   20.8910 H   0  0  0  0  0  0  0  0  0  0  0  0
  -30.0450  -18.4180   19.7290 C   0  0  0  0  0  2  0  0  0  0  0  0
  -30.7090  -14.7190   19.7540 C   0  0  0  0  0  0  0  0  0  0  0  0
  -30.3170  -12.4830   18.7090 C   0  0  0  0  0  2  0  0  0  0  0  0
  -29.2850  -12.6130   17.5670 C   0  0  0  0  0  2  0  0  0  0  0  0
  -27.8630  -12.4300   18.1270 C   0  0  0  0  0  2  0  0  0  0  0  0
  -27.6110  -13.2990   19.3890 C   0  0  0  0  0  3  0  0  0  0  0  0
  -28.7630  -13.1890   20.4150 C   0  0  0  0  0  2  0  0  0  0  0  0
  -30.0140  -13.5250   19.7200 N   0  0  0  0  0  0  0  0  0  0  0  0
  -31.7830  -14.8000   19.1480 O   0  0  0  0  0  0  0  0  0  0  0  0
  -30.5680  -17.0520   22.6160 C   0  0  0  0  0  2  0  0  0  0  0  0
  -29.2360  -17.3680   21.9550 C   0  0  0  0  0  2  0  0  0  0  0  0
  -31.1310  -15.8900   21.7980 C   0  0  0  0  0  2  0  0  0  0  0  0
  -29.4870  -17.0670   20.4650 C   0  0  0  0  0  3  0  0  0  0  0  0
  -30.3210  -15.7680   20.5780 N   0  0  0  0  0  0  0  0  0  0  0  0
  -25.2980  -13.8850   20.3310 C   0  0  0  0  0  0  0  0  0  0  0  0
  -24.2580  -13.1140   20.7630 C   0  0  0  0  0  0  0  0  0  0  0  0
  -24.7030  -11.7590   20.6650 C   0  0  0  0  0  0  0  0  0  0  0  0
  -26.3110  -13.0070   19.9900 N   0  0  0  0  0  0  0  0  0  0  0  0
  -25.9640  -11.7180   20.2520 N   0  0  0  0  0  0  0  0  0  0  0  0
  -23.9780  -10.5010   20.8820 C   0  0  0  0  0  0  0  0  0  0  0  0
  -24.4480   -9.5280   21.7950 C   0  0  0  0  0  3  0  0  0  0  0  0
  -23.7250   -8.3350   22.0030 C   0  0  0  0  0  3  0  0  0  0  0  0
  -22.5180   -8.1050   21.3020 C   0  0  0  0  0  0  0  0  0  0  0  0
  -22.0680   -9.0630   20.3760 C   0  0  0  0  0  3  0  0  0  0  0  0
  -22.7920  -10.2480   20.1660 C   0  0  0  0  0  3  0  0  0  0  0  0
  -21.7600   -6.9660   21.4230 O   0  0  0  0  0  0  0  0  0  0  0  0
  -21.7290   -6.2420   22.5880 C   0  0  0  0  0  0  0  0  0  0  0  0
  -21.3350   -6.8220   23.8130 C   0  0  0  0  0  3  0  0  0  0  0  0
  -21.2460   -6.0280   24.9730 C   0  0  0  0  0  3  0  0  0  0  0  0
  -21.5420   -4.6520   24.9090 C   0  0  0  0  0  0  0  0  0  0  0  0
  -21.9320   -4.0720   23.6900 C   0  0  0  0  0  3  0  0  0  0  0  0
  -22.0210   -4.8650   22.5320 C   0  0  0  0  0  0  0  0  0  0  0  0
  -22.3730   -4.2970   21.3540 F   0  0  0  0  0  0  0  0  0  0  0  0
  -21.4520   -3.8850   26.0220 F   0  0  0  0  0  0  0  0  0  0  0  0
  -22.8930  -13.5940   21.1620 C   0  0  0  0  0  0  0  0  0  0  0  0
  -22.2520  -12.8980   22.0930 N   0  0  0  0  0  0  0  0  0  0  0  0
  -22.4150  -14.6220   20.6840 O   0  0  0  0  0  0  0  0  0  0  0  0
  -22.6640  -12.0690   22.4950 H   0  0  0  0  0  0  0  0  0  0  0  0
  -21.3390  -13.1910   22.4070 H   0  0  0  0  0  0  0  0  0  0  0  0
  -25.4560  -15.2610   20.1720 N   0  0  0  0  0  0  0  0  0  0  0  0
  -24.6990  -15.9070   20.3640 H   0  0  0  0  0  0  0  0  0  0  0  0
  -26.2830  -15.7110   19.8030 H   0  0  0  0  0  0  0  0  0  0  0  0
  -28.0830  -23.7110   19.4760 C   0  0  0  0  0  3  0  0  0  0  0  0
  -26.0480  -22.7240   18.1700 C   0  0  0  0  0  1  0  0  0  0  0  0
  -27.4340  -23.3910   18.0980 C   0  0  0  0  0  2  0  0  0  0  0  0
  -28.6870  -25.2370   19.4070 C   0  0  0  0  0  2  0  0  0  0  0  0
  -28.3700  -26.4280   20.2550 O   0  0  0  0  0  0  0  0  0  0  0  0
  -24.6400  -31.8860   23.1990 C   0  0  0  0  0  0  0  0  0  0  0  0
  -27.2470  -27.2740   20.1380 C   0  0  0  0  0  0  0  0  0  0  0  0
  -23.4240  -30.4660   21.5760 C   0  0  0  0  0  3  0  0  0  0  0  0
  -24.8700  -28.8900   20.1470 C   0  0  0  0  0  0  0  0  0  0  0  0
  -25.9650  -30.7650   21.3880 C   0  0  0  0  0  2  0  0  0  0  0  0
  -26.0380  -29.3810   20.7400 C   0  0  0  0  0  0  0  0  0  0  0  0
  -27.2210  -28.5790   20.7360 C   0  0  0  0  0  3  0  0  0  0  0  0
  -26.0590  -26.8380   19.5140 C   0  0  0  0  0  3  0  0  0  0  0  0
  -24.8860  -27.6260   19.5210 C   0  0  0  0  0  3  0  0  0  0  0  0
  -23.6340  -29.7660   20.2040 C   0  0  0  0  0  2  0  0  0  0  0  0
  -24.6930  -31.0620   22.1090 N   0  0  0  0  0  0  0  0  0  0  0  0
  -23.5640  -32.1720   23.7420 O   0  0  0  0  0  0  0  0  0  0  0  0
  -22.7620  -29.4680   22.5590 C   0  0  0  0  0  0  0  0  0  0  0  0
  -21.4330  -29.3000   22.4550 N   0  0  0  0  0  0  0  0  0  0  0  0
  -23.4470  -28.8500   23.3750 O   0  0  0  0  0  0  0  0  0  0  0  0
  -20.9370  -29.8680   21.7860 H   0  0  0  0  0  0  0  0  0  0  0  0
  -18.0600  -28.0950   22.9870 C   0  0  0  0  0  0  0  0  0  0  0  0
  -20.6220  -28.3630   23.2370 C   0  0  0  0  0  3  0  0  0  0  0  0
  -20.7180  -26.9260   22.6740 C   0  0  0  0  0  2  0  0  0  0  0  0
  -19.6140  -26.5980   21.6680 C   0  0  0  0  0  2  0  0  0  0  0  0
  -18.2390  -26.7390   22.3250 C   0  0  0  0  0  2  0  0  0  0  0  0
  -19.1800  -28.8630   23.4010 C   0  0  0  0  0  0  0  0  0  0  0  0
  -18.9650  -30.1280   23.9880 C   0  0  0  0  0  3  0  0  0  0  0  0
  -17.6600  -30.6300   24.1560 C   0  0  0  0  0  3  0  0  0  0  0  0
  -16.5540  -29.8610   23.7550 C   0  0  0  0  0  3  0  0  0  0  0  0
  -16.7550  -28.5950   23.1770 C   0  0  0  0  0  3  0  0  0  0  0  0
  -25.9270  -32.5250   23.8050 C   0  0  0  0  0  3  0  0  0  0  0  0
  -26.4620  -31.7620   25.0800 C   0  0  1  0  0  0  0  0  0  0  0  0
  -25.3800  -31.5270   26.1580 C   0  0  0  0  0  1  0  0  0  0  0  0
  -27.0470  -30.3850   24.6950 C   0  0  0  0  0  1  0  0  0  0  0  0
  -27.6160  -32.5640   25.7230 C   0  0  0  0  0  1  0  0  0  0  0  0
  -25.6200  -33.9220   24.1380 N   0  0  0  0  0  0  0  0  0  0  0  0
  -25.9400  -34.9800   23.3780 C   0  0  0  0  0  0  0  0  0  0  0  0
  -26.5970  -34.8780   22.3400 O   0  0  0  0  0  0  0  0  0  0  0  0
  -25.0320  -34.0740   24.9450 H   0  0  0  0  0  0  0  0  0  0  0  0
  -24.2090  -36.7750   23.0420 C   0  0  0  0  0  1  0  0  0  0  0  0
  -25.4560  -36.3680   23.8420 C   0  0  0  0  0  3  0  0  0  0  0  0
  -27.5950  -37.2520   24.6590 C   0  0  0  0  0  1  0  0  0  0  0  0
  -26.4880  -37.4210   23.7250 N   0  0  0  0  0  0  0  0  0  0  0  0
  -26.0840  -38.3430   23.8760 H   0  0  0  0  0  0  0  0  0  0  0  0
  2  1  1  0
  2  3  1  0
  3  4  1  0
  3  5  1  0
  6  3  1  0
  7 19  1  0
  8 13  1  0
  9 10  1  0
  9  8  1  0
 11 10  1  0
 11 23  1  0
 11 12  1  0
 13  7  1  0
 13 12  1  0
 14  7  2  0
 16 15  1  0
 17 15  1  0
 18  6  1  0
 18 19  1  0
 18 16  1  0
 19 17  1  0
 20 21  2  0
 21 40  1  0
 22 21  1  0
 22 25  1  0
 23 24  1  0
 23 20  1  0
 24 22  2  0
 25 26  1  0
 26 27  2  0
 28 31  1  0
 28 27  1  0
 29 28  2  0
 30 29  1  0
 30 25  2  0
 31 32  1  0
 32 33  1  0
 33 34  2  0
 35 34  1  0
 35 39  1  0
 36 35  2  0
 37 32  2  0
 37 36  1  0
 38 37  1  0
 40 41  1  0
 41 44  1  0
 41 43  1  0
 42 40  2  0
 45 20  1  0
 45 46  1  0
 47 45  1  0
 48 50  1  0
 48  1  1  0
 50 49  1  0
 51 48  1  0
 51 52  1  0
 53 64  2  0
 54 52  1  0
 54 59  1  0
 55 63  1  0
 55 65  1  0
 56 62  1  0
 56 58  1  0
 57 63  1  0
 58 57  1  0
 59 58  2  0
 60 61  1  0
 60 54  2  0
 61 56  2  0
 62 55  1  0
 63 53  1  0
 65 67  2  0
 66 65  1  0
 68 66  1  0
 69 78  2  0
 69 74  1  0
 70 66  1  0
 70 74  1  0
 71 70  1  0
 72 73  1  0
 72 71  1  0
 73 69  1  0
 74 75  2  0
 75 76  1  0
 77 76  2  0
 78 77  1  0
 79 53  1  0
 79 84  1  0
 79 80  1  0
 80 83  1  1
 80 81  1  0
 82 80  1  0
 84 87  1  0
 85 89  1  0
 85 84  1  0
 86 85  2  0
 89 88  1  0
 91 89  1  0
 91 92  1  0
 91 90  1  0
M  ISO  4   7 100  19 100  51 101  52 101
M  END
>  <TORSDO>  (19) 
F 22

>  <SCORE>  (19) 
-11.867

>  <name>  (19) 
18

>  <ligand_id>  (19) 
18

>  <original_smiles>  (19) 
[H]c1c([H])c([H])c2c(c1[H])C([H])([H])C([H])([H])C([H])([H])C2([H])N([H])C(=O)C1([H])N(C(=O)C([H])(N([H])C(=O)C([H])(N([H])C([H])([H])[H])C([H])([H])[H])C(C([H])([H])[H])(C([H])([H])[H])C([H])([H])[H])C([H])([H])c2c([H])c(OC([H])([H])C([H])(C([H])([H])C([H])([H])[H])C([H])([H])C([H])([H])[N+]([H])([H])C([H])([H])C3([H])N(C(=O)N4C([H])([H])C([H])([H])C([H])([H])C([H])(n5nc(-c6c([H])c([H])c(Oc7c([H])c([H])c(F)c([H])c7F)c([H])c6[H])c(C(=O)N([H])[H])c5N([H])[H])C4([H])[H])C([H])([H])C([H])([H])C3([H])[H])c([H])c([H])c2C1([H])[H]

>  <smiles>  (19) 
[H]c1c([H])c([H])c2c(c1[H])C([H])([H])C([H])([H])C([H])([H])C2([H])N([H])C(=O)C1([H])N(C(=O)C([H])(N([H])C(=O)C([H])(N([H])C([H])([H])[H])C([H])([H])[H])C(C([H])([H])[H])(C([H])([H])[H])C([H])([H])[H])C([H])([H])c2c([H])c(OC([H])([H])C([H])(C([H])([H])C([H])([H])[H])C([H])([H])C([H])([H])[N+]([H])([H])C([H])([H])C3([H])N(C(=O)N4C([H])([H])C([H])([H])C([H])([H])C([H])(n5nc(-c6c([H])c([H])c(Oc7c([H])c([H])c(F)c([H])c7F)c([H])c6[H])c(C(=O)N([H])[H])c5N([H])[H])C4([H])[H])C([H])([H])C([H])([H])C3([H])[H])c([H])c([H])c2C1([H])[H]

$$$$
19:0:0
     RDKit          3D

 89 97  0  0  1  0  0  0  0  0999 V2000
  -29.2870  -21.1890   20.5750 N   0  0  1  0  0  4  0  0  0  0  0  0
  -29.1160  -21.0980   21.5660 H   0  0  0  0  0  0  0  0  0  0  0  0
  -30.3850  -15.3820   20.1460 C   0  0  0  0  0  0  0  0  0  0  0  0
  -30.3380  -12.9500   19.2000 C   0  0  0  0  0  2  0  0  0  0  0  0
  -29.3950  -12.7380   17.9910 C   0  0  0  0  0  2  0  0  0  0  0  0
  -27.9570  -12.4520   18.4610 C   0  0  0  0  0  2  0  0  0  0  0  0
  -27.5370  -13.3800   19.6310 C   0  0  0  0  0  3  0  0  0  0  0  0
  -28.6180  -13.5300   20.7190 C   0  0  0  0  0  2  0  0  0  0  0  0
  -29.8020  -14.0810   20.0500 N   0  0  0  0  0  0  0  0  0  0  0  0
  -31.6090  -15.3380   19.9430 O   0  0  0  0  0  0  0  0  0  0  0  0
  -28.0870  -18.7020   19.7200 C   0  0  0  0  0  2  0  0  0  0  0  0
  -28.2850  -17.1120   20.0020 C   0  0  0  0  0  2  0  0  0  0  0  0
  -30.1840  -18.2290   20.5420 C   0  0  0  0  0  2  0  0  0  0  0  0
  -29.0310  -19.5120   20.6410 C   0  0  0  0  0  3  0  0  0  0  0  0
  -29.6930  -16.7130   20.3170 N   0  0  0  0  0  0  0  0  0  0  0  0
  -25.1930  -13.9090   20.4700 C   0  0  0  0  0  0  0  0  0  0  0  0
  -24.1510  -13.1200   20.8620 C   0  0  0  0  0  0  0  0  0  0  0  0
  -24.6270  -11.7740   20.7980 C   0  0  0  0  0  0  0  0  0  0  0  0
  -26.2340  -13.0450   20.1820 N   0  0  0  0  0  0  0  0  0  0  0  0
  -25.9090  -11.7530   20.4470 N   0  0  0  0  0  0  0  0  0  0  0  0
  -23.9150  -10.5060   20.9920 C   0  0  0  0  0  0  0  0  0  0  0  0
  -24.3630   -9.5420   21.9220 C   0  0  0  0  0  3  0  0  0  0  0  0
  -23.6480   -8.3400   22.1100 C   0  0  0  0  0  3  0  0  0  0  0  0
  -22.4700   -8.0920   21.3640 C   0  0  0  0  0  0  0  0  0  0  0  0
  -22.0390   -9.0450   20.4260 C   0  0  0  0  0  3  0  0  0  0  0  0
  -22.7540  -10.2390   20.2360 C   0  0  0  0  0  3  0  0  0  0  0  0
  -21.7250   -6.9410   21.4590 O   0  0  0  0  0  0  0  0  0  0  0  0
  -21.6740   -6.2100   22.6180 C   0  0  0  0  0  0  0  0  0  0  0  0
  -21.2100   -6.7640   23.8300 C   0  0  0  0  0  3  0  0  0  0  0  0
  -21.1110   -5.9590   24.9810 C   0  0  0  0  0  3  0  0  0  0  0  0
  -21.4650   -4.5970   24.9200 C   0  0  0  0  0  0  0  0  0  0  0  0
  -21.9220   -4.0410   23.7130 C   0  0  0  0  0  3  0  0  0  0  0  0
  -22.0250   -4.8450   22.5640 C   0  0  0  0  0  0  0  0  0  0  0  0
  -22.4450   -4.3010   21.3970 F   0  0  0  0  0  0  0  0  0  0  0  0
  -21.3640   -3.8210   26.0230 F   0  0  0  0  0  0  0  0  0  0  0  0
  -22.7590  -13.5870   21.1720 C   0  0  0  0  0  0  0  0  0  0  0  0
  -22.0580  -12.8800   22.0480 N   0  0  0  0  0  0  0  0  0  0  0  0
  -22.3050  -14.6180   20.6760 O   0  0  0  0  0  0  0  0  0  0  0  0
  -22.4330  -12.0470   22.4760 H   0  0  0  0  0  0  0  0  0  0  0  0
  -21.1250  -13.1770   22.2970 H   0  0  0  0  0  0  0  0  0  0  0  0
  -25.3280  -15.2840   20.3040 N   0  0  0  0  0  0  0  0  0  0  0  0
  -24.5540  -15.9170   20.4690 H   0  0  0  0  0  0  0  0  0  0  0  0
  -26.1500  -15.7510   19.9440 H   0  0  0  0  0  0  0  0  0  0  0  0
  -30.7250  -21.4410   20.8360 C   0  0  0  0  0  2  0  0  0  0  0  0
  -32.9200  -22.2850   19.9370 C   0  0  0  0  0  1  0  0  0  0  0  0
  -31.3970  -22.4610   19.9230 C   0  0  0  0  0  2  0  0  0  0  0  0
  -28.3580  -22.5950   20.7700 C   0  0  0  0  0  2  0  0  0  0  0  0
  -28.2880  -24.2490   19.9960 C   0  0  0  0  0  2  0  0  0  0  0  0
  -28.2030  -25.8620   20.4380 O   0  0  0  0  0  0  0  0  0  0  0  0
  -24.6210  -31.8900   23.2040 C   0  0  0  0  0  0  0  0  0  0  0  0
  -27.1910  -26.9570   20.2700 C   0  0  0  0  0  0  0  0  0  0  0  0
  -23.4370  -30.4770   21.5700 C   0  0  0  0  0  3  0  0  0  0  0  0
  -24.8960  -28.8550   20.1680 C   0  0  0  0  0  0  0  0  0  0  0  0
  -26.0030  -30.6800   21.4430 C   0  0  0  0  0  2  0  0  0  0  0  0
  -26.0750  -29.2610   20.8010 C   0  0  0  0  0  0  0  0  0  0  0  0
  -27.2100  -28.3310   20.8310 C   0  0  0  0  0  3  0  0  0  0  0  0
  -25.9890  -26.7120   19.5650 C   0  0  0  0  0  3  0  0  0  0  0  0
  -24.8800  -27.6040   19.5260 C   0  0  0  0  0  3  0  0  0  0  0  0
  -23.6770  -29.7780   20.2030 C   0  0  0  0  0  2  0  0  0  0  0  0
  -24.7080  -31.0460   22.1260 N   0  0  0  0  0  0  0  0  0  0  0  0
  -23.5280  -32.1850   23.7170 O   0  0  0  0  0  0  0  0  0  0  0  0
  -22.7360  -29.4930   22.5440 C   0  0  0  0  0  0  0  0  0  0  0  0
  -21.4040  -29.3380   22.4200 N   0  0  0  0  0  0  0  0  0  0  0  0
  -23.3950  -28.8720   23.3800 O   0  0  0  0  0  0  0  0  0  0  0  0
  -20.9270  -29.8900   21.7220 H   0  0  0  0  0  0  0  0  0  0  0  0
  -18.0110  -28.1530   22.9450 C   0  0  0  0  0  0  0  0  0  0  0  0
  -20.5750  -28.4090   23.1950 C   0  0  0  0  0  3  0  0  0  0  0  0
  -20.6660  -26.9750   22.6260 C   0  0  0  0  0  2  0  0  0  0  0  0
  -19.5580  -26.6540   21.6170 C   0  0  0  0  0  2  0  0  0  0  0  0
  -18.1790  -26.8040   22.2660 C   0  0  0  0  0  2  0  0  0  0  0  0
  -19.1360  -28.9140   23.3660 C   0  0  0  0  0  0  0  0  0  0  0  0
  -18.9230  -30.1730   23.9670 C   0  0  0  0  0  3  0  0  0  0  0  0
  -17.6200  -30.6760   24.1440 C   0  0  0  0  0  3  0  0  0  0  0  0
  -16.5100  -29.9140   23.7370 C   0  0  0  0  0  3  0  0  0  0  0  0
  -16.7070  -28.6550   23.1440 C   0  0  0  0  0  3  0  0  0  0  0  0
  -25.8870  -32.5400   23.8410 C   0  0  0  0  0  3  0  0  0  0  0  0
  -26.3810  -31.7900   25.1400 C   0  0  1  0  0  0  0  0  0  0  0  0
  -25.2720  -31.5740   26.1970 C   0  0  0  0  0  1  0  0  0  0  0  0
  -26.9670  -30.4040   24.7910 C   0  0  0  0  0  1  0  0  0  0  0  0
  -27.5300  -32.5900   25.8010 C   0  0  0  0  0  1  0  0  0  0  0  0
  -25.5710  -33.9450   24.1590 N   0  0  0  0  0  0  0  0  0  0  0  0
  -25.9190  -34.9990   23.4080 C   0  0  0  0  0  0  0  0  0  0  0  0
  -26.6030  -34.8900   22.3870 O   0  0  0  0  0  0  0  0  0  0  0  0
  -24.9630  -34.1020   24.9490 H   0  0  0  0  0  0  0  0  0  0  0  0
  -24.2160  -36.8130   23.0270 C   0  0  0  0  0  1  0  0  0  0  0  0
  -25.4380  -36.3950   23.8610 C   0  0  0  0  0  3  0  0  0  0  0  0
  -27.5610  -37.2610   24.7360 C   0  0  0  0  0  1  0  0  0  0  0  0
  -26.4820  -37.4390   23.7680 N   0  0  0  0  0  0  0  0  0  0  0  0
  -26.0820  -38.3640   23.9030 H   0  0  0  0  0  0  0  0  0  0  0  0
  1 47  1  0
  1 44  1  0
  1  2  1  1
  3 15  1  0
  4  9  1  0
  5  6  1  0
  5  4  1  0
  7  6  1  0
  7 19  1  0
  7  8  1  0
  9  3  1  0
  9  8  1  0
 10  3  2  0
 11 12  1  0
 11 14  1  0
 12 15  1  0
 13 14  1  0
 14  1  1  0
 15 13  1  0
 16 17  2  0
 17 36  1  0
 18 17  1  0
 18 21  1  0
 19 20  1  0
 19 16  1  0
 20 18  2  0
 21 22  1  0
 22 23  2  0
 24 27  1  0
 24 23  1  0
 25 24  2  0
 26 25  1  0
 26 21  2  0
 27 28  1  0
 28 29  1  0
 29 30  2  0
 31 30  1  0
 31 35  1  0
 32 31  2  0
 33 28  2  0
 33 32  1  0
 34 33  1  0
 36 37  1  0
 37 40  1  0
 37 39  1  0
 38 36  2  0
 41 42  1  0
 41 16  1  0
 43 41  1  0
 46 45  1  0
 46 44  1  0
 48 49  1  0
 48 47  1  0
 50 61  2  0
 51 49  1  0
 51 56  1  0
 52 60  1  0
 52 62  1  0
 53 59  1  0
 53 55  1  0
 54 60  1  0
 55 56  2  0
 55 54  1  0
 57 51  2  0
 58 57  1  0
 58 53  2  0
 59 52  1  0
 60 50  1  0
 62 64  2  0
 63 62  1  0
 65 63  1  0
 66 75  2  0
 66 71  1  0
 67 63  1  0
 67 71  1  0
 68 67  1  0
 69 70  1  0
 69 68  1  0
 70 66  1  0
 71 72  2  0
 72 73  1  0
 74 73  2  0
 75 74  1  0
 76 50  1  0
 76 81  1  0
 76 77  1  0
 77 80  1  1
 77 78  1  0
 79 77  1  0
 81 84  1  0
 82 86  1  0
 82 81  1  0
 83 82  2  0
 86 85  1  0
 88 86  1  0
 88 89  1  0
 88 87  1  0
M  ISO  4   3 100  15 100  48 101  49 101
M  END
>  <TORSDO>  (20) 
F 20

>  <SCORE>  (20) 
-16.165

>  <name>  (20) 
19

>  <ligand_id>  (20) 
19

>  <original_smiles>  (20) 
[H]c1c([H])c([H])c2c(c1[H])C([H])([H])C([H])([H])C([H])([H])C2([H])N([H])C(=O)C1([H])N(C(=O)C([H])(N([H])C(=O)C([H])(N([H])C([H])([H])[H])C([H])([H])[H])C(C([H])([H])[H])(C([H])([H])[H])C([H])([H])[H])C([H])([H])c2c([H])c(OC([H])([H])C([H])([H])[N+]([H])(C([H])([H])C([H])([H])C([H])([H])[H])C3([H])C([H])([H])N(C(=O)N4C([H])([H])C([H])([H])C([H])([H])C([H])(n5nc(-c6c([H])c([H])c(Oc7c([H])c([H])c(F)c([H])c7F)c([H])c6[H])c(C(=O)N([H])[H])c5N([H])[H])C4([H])[H])C([H])([H])C3([H])[H])c([H])c([H])c2C1([H])[H]

>  <smiles>  (20) 
[H]c1c([H])c([H])c2c(c1[H])C([H])([H])C([H])([H])C([H])([H])C2([H])N([H])C(=O)C1([H])N(C(=O)C([H])(N([H])C(=O)C([H])(N([H])C([H])([H])[H])C([H])([H])[H])C(C([H])([H])[H])(C([H])([H])[H])C([H])([H])[H])C([H])([H])c2c([H])c(OC([H])([H])C([H])([H])[N+]([H])(C([H])([H])C([H])([H])C([H])([H])[H])C3([H])C([H])([H])N(C(=O)N4C([H])([H])C([H])([H])C([H])([H])C([H])(n5nc(-c6c([H])c([H])c(Oc7c([H])c([H])c(F)c([H])c7F)c([H])c6[H])c(C(=O)N([H])[H])c5N([H])[H])C4([H])[H])C([H])([H])C3([H])[H])c([H])c([H])c2C1([H])[H]

$$$$
20:0:0
     RDKit          3D

 98107  0  0  1  0  0  0  0  0999 V2000
  -30.2550  -24.0780   17.1390 C   0  0  0  0  0  2  0  0  0  0  0  0
  -31.5710  -22.9000   18.7640 C   0  0  0  0  0  2  0  0  0  0  0  0
  -30.4450  -22.9290   16.1290 C   0  0  0  0  0  2  0  0  0  0  0  0
  -31.7410  -21.6920   17.7980 C   0  0  0  0  0  3  0  0  0  0  0  0
  -30.2850  -23.5790   18.5260 N   0  0  0  0  0  0  0  0  0  0  0  0
  -31.6940  -22.1890   16.4050 N   0  0  0  0  0  4  0  0  0  0  0  0
  -32.4760  -22.7990   16.2360 H   0  0  0  0  0  0  0  0  0  0  0  0
  -31.7560  -21.4180   15.7610 H   0  0  0  0  0  0  0  0  0  0  0  0
  -33.0370  -20.8740   18.0510 C   0  0  0  0  0  2  0  0  0  0  0  0
  -32.9970  -19.9140   19.2610 C   0  0  0  0  0  2  0  0  0  0  0  0
  -31.9390  -17.7030   19.7590 C   0  0  0  0  0  0  0  0  0  0  0  0
  -31.9900  -18.8650   19.0930 N   0  0  0  0  0  0  0  0  0  0  0  0
  -32.8050  -17.3530   20.5640 O   0  0  0  0  0  0  0  0  0  0  0  0
  -31.2240  -19.0440   18.4580 H   0  0  0  0  0  0  0  0  0  0  0  0
  -31.3040  -14.4930   20.0250 C   0  0  0  0  0  0  0  0  0  0  0  0
  -30.9710  -12.2810   18.9710 C   0  0  0  0  0  2  0  0  0  0  0  0
  -29.9900  -12.4340   17.7840 C   0  0  0  0  0  2  0  0  0  0  0  0
  -28.5150  -12.3930   18.2420 C   0  0  0  0  0  2  0  0  0  0  0  0
  -28.2510  -13.2850   19.4860 C   0  0  0  0  0  3  0  0  0  0  0  0
  -29.3200  -12.9720   20.5610 C   0  0  0  0  0  2  0  0  0  0  0  0
  -30.6260  -13.3050   19.9740 N   0  0  0  0  0  0  0  0  0  0  0  0
  -32.4160  -14.6040   19.4930 O   0  0  0  0  0  0  0  0  0  0  0  0
  -29.2980  -17.3410   21.4170 C   0  0  0  0  0  2  0  0  0  0  0  0
  -29.4290  -17.6560   19.9380 C   0  0  0  0  0  2  0  0  0  0  0  0
  -29.6800  -15.8630   21.4590 C   0  0  0  0  0  2  0  0  0  0  0  0
  -30.6720  -16.8540   19.5120 C   0  0  0  0  0  3  0  0  0  0  0  0
  -30.5760  -15.6140   20.3120 N   0  0  0  0  0  0  0  0  0  0  0  0
  -25.9240  -14.0790   20.2540 C   0  0  0  0  0  0  0  0  0  0  0  0
  -24.8080  -13.3880   20.6450 C   0  0  0  0  0  0  0  0  0  0  0  0
  -25.1610  -12.0060   20.5830 C   0  0  0  0  0  0  0  0  0  0  0  0
  -26.8930  -13.1200   19.9920 N   0  0  0  0  0  0  0  0  0  0  0  0
  -26.4340  -11.8670   20.2360 N   0  0  0  0  0  0  0  0  0  0  0  0
  -24.3470  -10.8020   20.7800 C   0  0  0  0  0  0  0  0  0  0  0  0
  -24.7220   -9.8030   21.7040 C   0  0  0  0  0  3  0  0  0  0  0  0
  -23.9160   -8.6580   21.8850 C   0  0  0  0  0  3  0  0  0  0  0  0
  -22.7200   -8.5090   21.1450 C   0  0  0  0  0  0  0  0  0  0  0  0
  -22.3630   -9.4950   20.2080 C   0  0  0  0  0  3  0  0  0  0  0  0
  -23.1700  -10.6300   20.0250 C   0  0  0  0  0  3  0  0  0  0  0  0
  -21.8850   -7.4230   21.2400 O   0  0  0  0  0  0  0  0  0  0  0  0
  -21.7700   -6.7040   22.4020 C   0  0  0  0  0  0  0  0  0  0  0  0
  -21.3860   -7.3100   23.6200 C   0  0  0  0  0  3  0  0  0  0  0  0
  -21.2100   -6.5200   24.7730 C   0  0  0  0  0  3  0  0  0  0  0  0
  -21.4110   -5.1280   24.7110 C   0  0  0  0  0  0  0  0  0  0  0  0
  -21.7880   -4.5240   23.4990 C   0  0  0  0  0  3  0  0  0  0  0  0
  -21.9640   -5.3100   22.3480 C   0  0  0  0  0  0  0  0  0  0  0  0
  -22.3070   -4.7200   21.1760 F   0  0  0  0  0  0  0  0  0  0  0  0
  -21.2360   -4.3670   25.8170 F   0  0  0  0  0  0  0  0  0  0  0  0
  -23.4620  -13.9700   20.9640 C   0  0  0  0  0  0  0  0  0  0  0  0
  -22.7150  -13.3300   21.8570 N   0  0  0  0  0  0  0  0  0  0  0  0
  -23.0800  -15.0220   20.4550 O   0  0  0  0  0  0  0  0  0  0  0  0
  -23.0350  -12.4800   22.2960 H   0  0  0  0  0  0  0  0  0  0  0  0
  -21.8080  -13.7000   22.1040 H   0  0  0  0  0  0  0  0  0  0  0  0
  -26.1860  -15.4340   20.0840 N   0  0  0  0  0  0  0  0  0  0  0  0
  -25.4680  -16.1400   20.2000 H   0  0  0  0  0  0  0  0  0  0  0  0
  -27.0630  -15.8070   19.7450 H   0  0  0  0  0  0  0  0  0  0  0  0
  -30.1120  -24.7030   19.4600 C   0  0  0  0  0  2  0  0  0  0  0  0
  -28.6490  -25.1900   19.5090 C   0  0  0  0  0  2  0  0  0  0  0  0
  -28.5690  -26.4400   20.1910 O   0  0  0  0  0  0  0  0  0  0  0  0
  -24.6980  -31.6100   23.1580 C   0  0  0  0  0  0  0  0  0  0  0  0
  -27.3720  -27.1280   20.1640 C   0  0  0  0  0  0  0  0  0  0  0  0
  -23.5140  -30.2130   21.4960 C   0  0  0  0  0  3  0  0  0  0  0  0
  -24.9810  -28.6450   20.1250 C   0  0  0  0  0  0  0  0  0  0  0  0
  -26.0480  -30.5410   21.3570 C   0  0  0  0  0  2  0  0  0  0  0  0
  -26.1310  -29.1660   20.7290 C   0  0  0  0  0  0  0  0  0  0  0  0
  -27.3260  -28.4130   20.7480 C   0  0  0  0  0  3  0  0  0  0  0  0
  -26.1910  -26.6100   19.5770 C   0  0  0  0  0  3  0  0  0  0  0  0
  -25.0020  -27.3610   19.5560 C   0  0  0  0  0  3  0  0  0  0  0  0
  -23.7480  -29.5180   20.1280 C   0  0  0  0  0  2  0  0  0  0  0  0
  -24.7690  -30.8030   22.0610 N   0  0  0  0  0  0  0  0  0  0  0  0
  -23.6080  -31.9000   23.6680 O   0  0  0  0  0  0  0  0  0  0  0  0
  -22.8270  -29.2050   22.4460 C   0  0  0  0  0  0  0  0  0  0  0  0
  -21.5020  -29.0500   22.2950 N   0  0  0  0  0  0  0  0  0  0  0  0
  -23.4840  -28.5660   23.2710 O   0  0  0  0  0  0  0  0  0  0  0  0
  -21.0360  -29.6150   21.5990 H   0  0  0  0  0  0  0  0  0  0  0  0
  -18.0930  -27.9410   22.7400 C   0  0  0  0  0  0  0  0  0  0  0  0
  -20.6520  -28.1310   23.0510 C   0  0  0  0  0  3  0  0  0  0  0  0
  -20.7270  -26.7010   22.4710 C   0  0  0  0  0  2  0  0  0  0  0  0
  -19.6320  -26.4090   21.4400 C   0  0  0  0  0  2  0  0  0  0  0  0
  -18.2450  -26.5890   22.0640 C   0  0  0  0  0  2  0  0  0  0  0  0
  -19.2250  -28.6730   23.1880 C   0  0  0  0  0  0  0  0  0  0  0  0
  -19.0320  -29.9420   23.7760 C   0  0  0  0  0  3  0  0  0  0  0  0
  -17.7390  -30.4770   23.9240 C   0  0  0  0  0  3  0  0  0  0  0  0
  -16.6200  -29.7420   23.4940 C   0  0  0  0  0  3  0  0  0  0  0  0
  -16.7990  -28.4770   22.9080 C   0  0  0  0  0  3  0  0  0  0  0  0
  -25.9780  -32.2270   23.8050 C   0  0  0  0  0  3  0  0  0  0  0  0
  -25.6690  -33.6210   24.1500 N   0  0  0  0  0  0  0  0  0  0  0  0
  -26.0030  -34.6810   23.4020 C   0  0  0  0  0  0  0  0  0  0  0  0
  -26.6760  -34.5900   22.3710 O   0  0  0  0  0  0  0  0  0  0  0  0
  -25.0720  -33.7660   24.9500 H   0  0  0  0  0  0  0  0  0  0  0  0
  -24.2670  -36.4690   23.0690 C   0  0  0  0  0  1  0  0  0  0  0  0
  -25.5130  -36.0630   23.8730 C   0  0  0  0  0  3  0  0  0  0  0  0
  -27.6480  -36.9460   24.7040 C   0  0  0  0  0  1  0  0  0  0  0  0
  -26.5420  -37.1210   23.7660 N   0  0  0  0  0  0  0  0  0  0  0  0
  -26.1340  -38.0380   23.9250 H   0  0  0  0  0  0  0  0  0  0  0  0
  -26.4760  -31.4350   25.0750 C   0  0  1  0  0  0  0  0  0  0  0  0
  -25.3690  -31.1890   26.1260 C   0  0  0  0  0  1  0  0  0  0  0  0
  -27.0560  -30.0590   24.6680 C   0  0  0  0  0  1  0  0  0  0  0  0
  -27.6210  -32.2140   25.7630 C   0  0  0  0  0  1  0  0  0  0  0  0
  1  5  1  0
  3  6  1  0
  3  1  1  0
  4  9  1  0
  4  2  1  0
  5  2  1  0
  5 56  1  0
  6  4  1  0
  7  6  1  0
  8  6  1  0
  9 10  1  0
 11 13  2  0
 12 10  1  0
 12 11  1  0
 14 12  1  0
 15 27  1  0
 16 21  1  0
 17 18  1  0
 17 16  1  0
 19 18  1  0
 19 31  1  0
 19 20  1  0
 21 15  1  0
 21 20  1  0
 22 15  2  0
 23 25  1  0
 24 23  1  0
 26 11  1  0
 26 24  1  0
 26 27  1  0
 27 25  1  0
 28 29  2  0
 29 48  1  0
 30 29  1  0
 30 33  1  0
 31 32  1  0
 31 28  1  0
 32 30  2  0
 33 34  1  0
 34 35  2  0
 36 39  1  0
 36 35  1  0
 37 36  2  0
 38 37  1  0
 38 33  2  0
 39 40  1  0
 40 41  1  0
 41 42  2  0
 43 42  1  0
 43 47  1  0
 44 43  2  0
 45 40  2  0
 45 44  1  0
 46 45  1  0
 48 49  1  0
 49 52  1  0
 49 51  1  0
 50 48  2  0
 53 54  1  0
 53 28  1  0
 55 53  1  0
 56 57  1  0
 57 58  1  0
 59 70  2  0
 60 58  1  0
 60 65  1  0
 61 69  1  0
 61 71  1  0
 62 68  1  0
 62 64  1  0
 63 69  1  0
 64 65  2  0
 64 63  1  0
 66 60  2  0
 67 66  1  0
 67 62  2  0
 68 61  1  0
 69 59  1  0
 71 73  2  0
 72 71  1  0
 74 72  1  0
 75 84  2  0
 75 80  1  0
 76 72  1  0
 76 80  1  0
 77 76  1  0
 78 79  1  0
 78 77  1  0
 79 75  1  0
 80 81  2  0
 81 82  1  0
 83 82  2  0
 84 83  1  0
 85 59  1  0
 85 86  1  0
 85 95  1  0
 86 89  1  0
 87 91  1  0
 87 86  1  0
 88 87  2  0
 91 90  1  0
 93 91  1  0
 93 94  1  0
 93 92  1  0
 95 98  1  1
 95 96  1  0
 97 95  1  0
M  ISO  4  15 100  27 100  57 101  58 101
M  END
>  <TORSDO>  (21) 
F 21

>  <SCORE>  (21) 
-12.624

>  <name>  (21) 
20

>  <ligand_id>  (21) 
20

>  <original_smiles>  (21) 
[H]c1c([H])c([H])c2c(c1[H])C([H])([H])C([H])([H])C([H])([H])C2([H])N([H])C(=O)C1([H])N(C(=O)C([H])(N([H])C(=O)C([H])(N([H])C([H])([H])[H])C([H])([H])[H])C(C([H])([H])[H])(C([H])([H])[H])C([H])([H])[H])C([H])([H])c2c([H])c(OC([H])([H])C([H])([H])N3C([H])([H])C([H])([H])[N+]([H])([H])C([H])(C([H])([H])C([H])([H])N([H])C(=O)C4([H])N(C(=O)N5C([H])([H])C([H])([H])C([H])([H])C([H])(n6nc(-c7c([H])c([H])c(Oc8c([H])c([H])c(F)c([H])c8F)c([H])c7[H])c(C(=O)N([H])[H])c6N([H])[H])C5([H])[H])C([H])([H])C([H])([H])C4([H])[H])C3([H])[H])c([H])c([H])c2C1([H])[H]

>  <smiles>  (21) 
[H]c1c([H])c([H])c2c(c1[H])C([H])([H])C([H])([H])C([H])([H])C2([H])N([H])C(=O)C1([H])N(C(=O)C([H])(N([H])C(=O)C([H])(N([H])C([H])([H])[H])C([H])([H])[H])C(C([H])([H])[H])(C([H])([H])[H])C([H])([H])[H])C([H])([H])c2c([H])c(OC([H])([H])C([H])([H])N3C([H])([H])C([H])([H])[N+]([H])([H])C([H])(C([H])([H])C([H])([H])N([H])C(=O)C4([H])N(C(=O)N5C([H])([H])C([H])([H])C([H])([H])C([H])(n6nc(-c7c([H])c([H])c(Oc8c([H])c([H])c(F)c([H])c8F)c([H])c7[H])c(C(=O)N([H])[H])c6N([H])[H])C5([H])[H])C([H])([H])C([H])([H])C4([H])[H])C3([H])[H])c([H])c([H])c2C1([H])[H]

$$$$
21:0:0
     RDKit          3D

100108  0  0  1  0  0  0  0  0999 V2000
  -28.9500  -19.8640   18.9450 C   0  0  0  0  0  2  0  0  0  0  0  0
  -31.1000  -20.6820   18.4060 C   0  0  0  0  0  2  0  0  0  0  0  0
  -28.4270  -21.3010   19.1900 C   0  0  0  0  0  2  0  0  0  0  0  0
  -30.6360  -22.1540   18.6340 C   0  0  0  0  0  2  0  0  0  0  0  0
  -30.3740  -19.7620   19.2950 N   0  0  0  0  0  0  0  0  0  0  0  0
  -29.1730  -22.3140   18.3920 N   0  0  2  0  0  4  0  0  0  0  0  0
  -29.0140  -22.0710   17.4260 H   0  0  0  0  0  0  0  0  0  0  0  0
  -30.8450  -18.3610   19.2310 C   0  0  0  0  0  2  0  0  0  0  0  0
  -30.5650  -17.6700   20.5980 C   0  0  0  0  0  3  0  0  0  0  0  0
  -31.4150  -15.2040   20.4310 C   0  0  0  0  0  0  0  0  0  0  0  0
  -31.3250  -12.8160   19.7830 C   0  0  0  0  0  2  0  0  0  0  0  0
  -30.4750  -12.6970   18.4990 C   0  0  0  0  0  2  0  0  0  0  0  0
  -28.9670  -12.6170   18.8230 C   0  0  0  0  0  2  0  0  0  0  0  0
  -28.5110  -13.7050   19.8310 C   0  0  0  0  0  3  0  0  0  0  0  0
  -29.4680  -13.7320   21.0440 C   0  0  0  0  0  2  0  0  0  0  0  0
  -30.8310  -13.9790   20.5320 N   0  0  0  0  0  0  0  0  0  0  0  0
  -32.5780  -15.3820   20.0580 O   0  0  0  0  0  0  0  0  0  0  0  0
  -30.5290  -16.2000   20.6230 N   0  0  0  0  0  0  0  0  0  0  0  0
  -29.6180  -15.8260   20.8380 H   0  0  0  0  0  0  0  0  0  0  0  0
  -26.1260  -14.4730   20.4300 C   0  0  0  0  0  0  0  0  0  0  0  0
  -24.9910  -13.7710   20.7360 C   0  0  0  0  0  0  0  0  0  0  0  0
  -25.3620  -12.3920   20.7090 C   0  0  0  0  0  0  0  0  0  0  0  0
  -27.1180  -13.5240   20.2370 N   0  0  0  0  0  0  0  0  0  0  0  0
  -26.6590  -12.2680   20.4600 N   0  0  0  0  0  0  0  0  0  0  0  0
  -24.5460  -11.1800   20.8470 C   0  0  0  0  0  0  0  0  0  0  0  0
  -24.8720  -10.1750   21.7850 C   0  0  0  0  0  3  0  0  0  0  0  0
  -24.0630   -9.0250   21.9130 C   0  0  0  0  0  3  0  0  0  0  0  0
  -22.9130   -8.8740   21.1030 C   0  0  0  0  0  0  0  0  0  0  0  0
  -22.6060   -9.8660   20.1560 C   0  0  0  0  0  3  0  0  0  0  0  0
  -23.4150  -11.0070   20.0260 C   0  0  0  0  0  3  0  0  0  0  0  0
  -22.0830   -7.7790   21.1390 O   0  0  0  0  0  0  0  0  0  0  0  0
  -21.8740   -7.0730   22.2950 C   0  0  0  0  0  0  0  0  0  0  0  0
  -21.3800   -7.6890   23.4660 C   0  0  0  0  0  3  0  0  0  0  0  0
  -21.1140   -6.9140   24.6120 C   0  0  0  0  0  3  0  0  0  0  0  0
  -21.3310   -5.5220   24.5870 C   0  0  0  0  0  0  0  0  0  0  0  0
  -21.8180   -4.9060   23.4210 C   0  0  0  0  0  3  0  0  0  0  0  0
  -22.0860   -5.6790   22.2780 C   0  0  0  0  0  0  0  0  0  0  0  0
  -22.5360   -5.0780   21.1510 F   0  0  0  0  0  0  0  0  0  0  0  0
  -21.0680   -4.7760   25.6850 F   0  0  0  0  0  0  0  0  0  0  0  0
  -23.6160  -14.3380   20.9450 C   0  0  0  0  0  0  0  0  0  0  0  0
  -22.8100  -13.7040   21.7880 N   0  0  0  0  0  0  0  0  0  0  0  0
  -23.2640  -15.3820   20.3930 O   0  0  0  0  0  0  0  0  0  0  0  0
  -23.1010  -12.8590   22.2560 H   0  0  0  0  0  0  0  0  0  0  0  0
  -21.8840  -14.0660   21.9660 H   0  0  0  0  0  0  0  0  0  0  0  0
  -26.3880  -15.8320   20.2820 N   0  0  0  0  0  0  0  0  0  0  0  0
  -25.6440  -16.5200   20.3280 H   0  0  0  0  0  0  0  0  0  0  0  0
  -27.2550  -16.2120   19.9230 H   0  0  0  0  0  0  0  0  0  0  0  0
  -31.4740  -18.2090   21.7280 C   0  0  0  0  0  2  0  0  0  0  0  0
  -31.0120  -19.5210   22.4260 C   0  0  0  0  0  3  0  0  0  0  0  0
  -30.2190  -18.5470   24.6980 C   0  0  0  0  0  1  0  0  0  0  0  0
  -31.2380  -19.4280   23.9560 C   0  0  0  0  0  2  0  0  0  0  0  0
  -31.7180  -20.7750   21.8370 C   0  0  0  0  0  2  0  0  0  0  0  0
  -31.5280  -21.9890   22.6510 N   0  0  0  0  0  4  0  0  0  0  0  0
  -30.5540  -22.1940   22.7790 H   0  0  0  0  0  0  0  0  0  0  0  0
  -31.9560  -22.7750   22.1910 H   0  0  0  0  0  0  0  0  0  0  0  0
  -31.9610  -21.8900   23.5520 H   0  0  0  0  0  0  0  0  0  0  0  0
  -28.6320  -23.7010   18.5940 C   0  0  0  0  0  2  0  0  0  0  0  0
  -29.2430  -24.8010   17.6750 C   0  0  0  0  0  2  0  0  0  0  0  0
  -28.3460  -26.0520   17.4200 C   0  0  0  0  0  2  0  0  0  0  0  0
  -28.1990  -26.9450   18.5440 O   0  0  0  0  0  0  0  0  0  0  0  0
  -24.5290  -31.2090   22.9420 C   0  0  0  0  0  0  0  0  0  0  0  0
  -26.9920  -27.5920   18.7740 C   0  0  0  0  0  0  0  0  0  0  0  0
  -23.2010  -30.0560   21.2040 C   0  0  0  0  0  3  0  0  0  0  0  0
  -24.5430  -28.9120   19.3570 C   0  0  0  0  0  0  0  0  0  0  0  0
  -25.6700  -30.6060   20.8070 C   0  0  0  0  0  2  0  0  0  0  0  0
  -25.7390  -29.3860   19.9080 C   0  0  0  0  0  0  0  0  0  0  0  0
  -26.9620  -28.7280   19.6230 C   0  0  0  0  0  3  0  0  0  0  0  0
  -25.7650  -27.1250   18.2450 C   0  0  0  0  0  3  0  0  0  0  0  0
  -24.5530  -27.7790   18.5290 C   0  0  0  0  0  3  0  0  0  0  0  0
  -23.2750  -29.6590   19.7050 C   0  0  0  0  0  2  0  0  0  0  0  0
  -24.4900  -30.6300   21.7080 N   0  0  0  0  0  0  0  0  0  0  0  0
  -23.5080  -31.3030   23.6380 O   0  0  0  0  0  0  0  0  0  0  0  0
  -22.7170  -28.8330   22.0160 C   0  0  0  0  0  0  0  0  0  0  0  0
  -21.4210  -28.5030   21.8880 N   0  0  0  0  0  0  0  0  0  0  0  0
  -23.5030  -28.1890   22.7170 O   0  0  0  0  0  0  0  0  0  0  0  0
  -20.8410  -29.0840   21.3000 H   0  0  0  0  0  0  0  0  0  0  0  0
  -18.2900  -26.7140   22.1120 C   0  0  0  0  0  0  0  0  0  0  0  0
  -20.7560  -27.3680   22.5270 C   0  0  0  0  0  3  0  0  0  0  0  0
  -21.1200  -26.0410   21.8220 C   0  0  0  0  0  2  0  0  0  0  0  0
  -20.1210  -25.6440   20.7310 C   0  0  0  0  0  2  0  0  0  0  0  0
  -18.7150  -25.4900   21.3190 C   0  0  0  0  0  2  0  0  0  0  0  0
  -19.2480  -27.6040   22.6640 C   0  0  0  0  0  0  0  0  0  0  0  0
  -18.7980  -28.7470   23.3610 C   0  0  0  0  0  3  0  0  0  0  0  0
  -17.4220  -29.0040   23.5140 C   0  0  0  0  0  3  0  0  0  0  0  0
  -16.4780  -28.1100   22.9780 C   0  0  0  0  0  3  0  0  0  0  0  0
  -16.9120  -26.9670   22.2840 C   0  0  0  0  0  3  0  0  0  0  0  0
  -25.8480  -31.8000   23.5270 C   0  0  0  0  0  3  0  0  0  0  0  0
  -26.5310  -30.8600   24.5950 C   0  0  1  0  0  0  0  0  0  0  0  0
  -25.5770  -30.4060   25.7240 C   0  0  0  0  0  1  0  0  0  0  0  0
  -27.1030  -29.5910   23.9200 C   0  0  0  0  0  1  0  0  0  0  0  0
  -27.7270  -31.5930   25.2490 C   0  0  0  0  0  1  0  0  0  0  0  0
  -25.5240  -33.1060   24.1180 N   0  0  0  0  0  0  0  0  0  0  0  0
  -25.7520  -34.2870   23.5270 C   0  0  0  0  0  0  0  0  0  0  0  0
  -26.3290  -34.3910   22.4410 O   0  0  0  0  0  0  0  0  0  0  0  0
  -25.0000  -33.0940   24.9800 H   0  0  0  0  0  0  0  0  0  0  0  0
  -23.9440  -36.0320   23.6210 C   0  0  0  0  0  1  0  0  0  0  0  0
  -25.2590  -35.5510   24.2550 C   0  0  0  0  0  3  0  0  0  0  0  0
  -27.4250  -36.3780   25.0650 C   0  0  0  0  0  1  0  0  0  0  0  0
  -26.2450  -36.6550   24.2510 N   0  0  0  0  0  0  0  0  0  0  0  0
  -25.8220  -37.5150   24.5870 H   0  0  0  0  0  0  0  0  0  0  0  0
  1  3  1  0
  1  5  1  0
  2  4  1  0
  2  5  1  0
  6 57  1  0
  6  4  1  0
  6  3  1  0
  6  7  1  6
  8  5  1  0
  9  8  1  0
  9 18  1  0
  9 48  1  0
 10 16  1  0
 10 18  1  0
 11 16  1  0
 12 13  1  0
 12 11  1  0
 14 13  1  0
 14 23  1  0
 14 15  1  0
 16 15  1  0
 17 10  2  0
 18 19  1  0
 20 21  2  0
 21 40  1  0
 22 21  1  0
 22 25  1  0
 23 20  1  0
 23 24  1  0
 24 22  2  0
 25 26  1  0
 26 27  2  0
 28 31  1  0
 28 27  1  0
 29 28  2  0
 30 29  1  0
 30 25  2  0
 31 32  1  0
 32 33  1  0
 33 34  2  0
 35 34  1  0
 35 39  1  0
 36 35  2  0
 37 32  2  0
 37 36  1  0
 38 37  1  0
 40 41  1  0
 41 44  1  0
 41 43  1  0
 42 40  2  0
 45 46  1  0
 45 20  1  0
 47 45  1  0
 49 48  1  0
 49 51  1  0
 51 50  1  0
 52 49  1  0
 52 53  1  0
 53 54  1  0
 53 56  1  0
 55 53  1  0
 58 57  1  0
 59 58  1  0
 59 60  1  0
 60 62  1  0
 61 72  2  0
 62 67  1  0
 63 71  1  0
 63 73  1  0
 64 70  1  0
 64 66  1  0
 65 71  1  0
 66 65  1  0
 67 66  2  0
 68 69  1  0
 68 62  2  0
 69 64  2  0
 70 63  1  0
 71 61  1  0
 73 75  2  0
 74 73  1  0
 76 74  1  0
 77 86  2  0
 77 82  1  0
 78 74  1  0
 78 82  1  0
 79 78  1  0
 80 81  1  0
 80 79  1  0
 81 77  1  0
 82 83  2  0
 83 84  1  0
 85 84  2  0
 86 85  1  0
 87 61  1  0
 87 92  1  0
 87 88  1  0
 88 91  1  1
 88 89  1  0
 90 88  1  0
 92 95  1  0
 93 92  1  0
 93 97  1  0
 94 93  2  0
 97 96  1  0
 99 97  1  0
 99100  1  0
 99 98  1  0
M  ISO  4  10 100  18 100  59 101  60 101
M  END
>  <TORSDO>  (22) 
F 26

>  <SCORE>  (22) 
-8.362

>  <name>  (22) 
21

>  <ligand_id>  (22) 
21

>  <original_smiles>  (22) 
[H]c1c([H])c([H])c2c(c1[H])C([H])([H])C([H])([H])C([H])([H])C2([H])N([H])C(=O)C1([H])N(C(=O)C([H])(N([H])C(=O)C([H])(N([H])C([H])([H])[H])C([H])([H])[H])C(C([H])([H])[H])(C([H])([H])[H])C([H])([H])[H])C([H])([H])c2c([H])c(OC([H])([H])C([H])([H])C([H])([H])[N+]3([H])C([H])([H])C([H])([H])N(C([H])([H])C([H])(N([H])C(=O)N4C([H])([H])C([H])([H])C([H])([H])C([H])(n5nc(-c6c([H])c([H])c(Oc7c([H])c([H])c(F)c([H])c7F)c([H])c6[H])c(C(=O)N([H])[H])c5N([H])[H])C4([H])[H])C([H])([H])C([H])(C([H])([H])C([H])([H])[H])C([H])([H])[N+]([H])([H])[H])C([H])([H])C3([H])[H])c([H])c([H])c2C1([H])[H]

>  <smiles>  (22) 
[H]c1c([H])c([H])c2c(c1[H])C([H])([H])C([H])([H])C([H])([H])C2([H])N([H])C(=O)C1([H])N(C(=O)C([H])(N([H])C(=O)C([H])(N([H])C([H])([H])[H])C([H])([H])[H])C(C([H])([H])[H])(C([H])([H])[H])C([H])([H])[H])C([H])([H])c2c([H])c(OC([H])([H])C([H])([H])C([H])([H])[N+]3([H])C([H])([H])C([H])([H])N(C([H])([H])C([H])(N([H])C(=O)N4C([H])([H])C([H])([H])C([H])([H])C([H])(n5nc(-c6c([H])c([H])c(Oc7c([H])c([H])c(F)c([H])c7F)c([H])c6[H])c(C(=O)N([H])[H])c5N([H])[H])C4([H])[H])C([H])([H])C([H])(C([H])([H])C([H])([H])[H])C([H])([H])[N+]([H])([H])[H])C([H])([H])C3([H])[H])c([H])c([H])c2C1([H])[H]

$$$$
22:0:0
     RDKit          3D

 88 96  0  0  1  0  0  0  0  0999 V2000
  -28.7530  -23.1110   20.1740 C   0  0  0  0  0  3  0  0  0  0  0  0
  -27.7980  -24.3750   20.5070 N   0  0  0  0  0  0  0  0  0  0  0  0
  -27.5790  -24.3580   21.5000 H   0  0  0  0  0  0  0  0  0  0  0  0
  -28.2140  -25.9560   20.1900 O   0  0  0  0  0  0  0  0  0  0  0  0
  -24.6140  -31.8470   23.1890 C   0  0  0  0  0  0  0  0  0  0  0  0
  -27.1780  -27.0080   20.1970 C   0  0  0  0  0  0  0  0  0  0  0  0
  -23.4180  -30.4350   21.5640 C   0  0  0  0  0  3  0  0  0  0  0  0
  -24.8670  -28.8340   20.1480 C   0  0  0  0  0  0  0  0  0  0  0  0
  -25.9780  -30.6700   21.4030 C   0  0  0  0  0  2  0  0  0  0  0  0
  -26.0510  -29.2600   20.7640 C   0  0  0  0  0  0  0  0  0  0  0  0
  -27.2030  -28.3630   20.7710 C   0  0  0  0  0  3  0  0  0  0  0  0
  -25.9690  -26.7200   19.5290 C   0  0  0  0  0  3  0  0  0  0  0  0
  -24.8450  -27.5820   19.5140 C   0  0  0  0  0  3  0  0  0  0  0  0
  -23.6430  -29.7440   20.1910 C   0  0  0  0  0  2  0  0  0  0  0  0
  -24.6910  -31.0100   22.1050 N   0  0  0  0  0  0  0  0  0  0  0  0
  -23.5270  -32.1340   23.7140 O   0  0  0  0  0  0  0  0  0  0  0  0
  -22.7370  -29.4380   22.5380 C   0  0  0  0  0  0  0  0  0  0  0  0
  -21.4060  -29.2710   22.4240 N   0  0  0  0  0  0  0  0  0  0  0  0
  -23.4110  -28.8160   23.3630 O   0  0  0  0  0  0  0  0  0  0  0  0
  -20.9170  -29.8230   21.7340 H   0  0  0  0  0  0  0  0  0  0  0  0
  -18.0300  -28.0620   22.9610 C   0  0  0  0  0  0  0  0  0  0  0  0
  -20.5900  -28.3370   23.2070 C   0  0  0  0  0  3  0  0  0  0  0  0
  -20.6920  -26.9010   22.6400 C   0  0  0  0  0  2  0  0  0  0  0  0
  -19.5840  -26.5700   21.6350 C   0  0  0  0  0  2  0  0  0  0  0  0
  -18.2060  -26.7120   22.2880 C   0  0  0  0  0  2  0  0  0  0  0  0
  -19.1490  -28.8320   23.3770 C   0  0  0  0  0  0  0  0  0  0  0  0
  -18.9270  -30.0940   23.9700 C   0  0  0  0  0  3  0  0  0  0  0  0
  -17.6200  -30.5890   24.1470 C   0  0  0  0  0  3  0  0  0  0  0  0
  -16.5160  -29.8160   23.7440 C   0  0  0  0  0  3  0  0  0  0  0  0
  -16.7220  -28.5550   23.1570 C   0  0  0  0  0  3  0  0  0  0  0  0
  -25.8870  -32.4970   23.8100 C   0  0  0  0  0  3  0  0  0  0  0  0
  -25.5590  -33.8900   24.1570 N   0  0  0  0  0  0  0  0  0  0  0  0
  -25.8710  -34.9590   23.4120 C   0  0  0  0  0  0  0  0  0  0  0  0
  -26.5270  -34.8770   22.3710 O   0  0  0  0  0  0  0  0  0  0  0  0
  -24.9730  -34.0260   24.9670 H   0  0  0  0  0  0  0  0  0  0  0  0
  -24.1170  -36.7420   23.1160 C   0  0  0  0  0  1  0  0  0  0  0  0
  -25.3780  -36.3380   23.8970 C   0  0  0  0  0  3  0  0  0  0  0  0
  -27.5200  -37.2380   24.6960 C   0  0  0  0  0  1  0  0  0  0  0  0
  -26.3970  -37.4050   23.7770 N   0  0  0  0  0  0  0  0  0  0  0  0
  -25.9850  -38.3180   23.9420 H   0  0  0  0  0  0  0  0  0  0  0  0
  -26.4160  -31.7280   25.0850 C   0  0  1  0  0  0  0  0  0  0  0  0
  -25.3300  -31.4840   26.1590 C   0  0  0  0  0  1  0  0  0  0  0  0
  -27.0060  -30.3540   24.6960 C   0  0  0  0  0  1  0  0  0  0  0  0
  -27.5650  -32.5300   25.7390 C   0  0  0  0  0  1  0  0  0  0  0  0
  -28.4760  -21.4300   20.6710 C   0  0  0  0  0  3  0  0  0  0  0  0
  -30.4940  -15.1900   20.2220 C   0  0  0  0  0  0  0  0  0  0  0  0
  -30.3360  -12.7870   19.3160 C   0  0  0  0  0  2  0  0  0  0  0  0
  -29.3950  -12.6130   18.1020 C   0  0  0  0  0  2  0  0  0  0  0  0
  -27.9560  -12.3560   18.5770 C   0  0  0  0  0  2  0  0  0  0  0  0
  -27.5360  -13.3220   19.7130 C   0  0  0  0  0  3  0  0  0  0  0  0
  -28.6080  -13.4740   20.8140 C   0  0  0  0  0  2  0  0  0  0  0  0
  -29.8300  -13.9420   20.1450 N   0  0  0  0  0  0  0  0  0  0  0  0
  -31.7140  -15.0880   20.0280 O   0  0  0  0  0  0  0  0  0  0  0  0
  -28.5960  -17.1710   19.9470 C   0  0  0  0  0  2  0  0  0  0  0  0
  -30.8070  -17.8110   20.4140 C   0  0  0  0  0  2  0  0  0  0  0  0
  -28.1350  -18.7440   20.2830 C   0  0  0  0  0  2  0  0  0  0  0  0
  -30.3010  -19.3370   20.8320 C   0  0  0  0  0  2  0  0  0  0  0  0
  -29.9260  -16.5530   20.3590 N   0  0  0  0  0  0  0  0  0  0  0  0
  -29.0740  -19.9650   20.1750 N   0  0  2  0  0  4  0  0  0  0  0  0
  -29.2810  -20.0740   19.1940 H   0  0  0  0  0  0  0  0  0  0  0  0
  -25.1820  -13.8730   20.5200 C   0  0  0  0  0  0  0  0  0  0  0  0
  -24.1300  -13.0930   20.9040 C   0  0  0  0  0  0  0  0  0  0  0  0
  -24.5980  -11.7440   20.8560 C   0  0  0  0  0  0  0  0  0  0  0  0
  -26.2210  -13.0020   20.2510 N   0  0  0  0  0  0  0  0  0  0  0  0
  -25.8850  -11.7140   20.5240 N   0  0  0  0  0  0  0  0  0  0  0  0
  -23.8760  -10.4790   21.0470 C   0  0  0  0  0  0  0  0  0  0  0  0
  -24.3310   -9.4980   21.9550 C   0  0  0  0  0  3  0  0  0  0  0  0
  -23.6040   -8.3010   22.1380 C   0  0  0  0  0  3  0  0  0  0  0  0
  -22.4100   -8.0770   21.4130 C   0  0  0  0  0  0  0  0  0  0  0  0
  -21.9750   -9.0470   20.4930 C   0  0  0  0  0  3  0  0  0  0  0  0
  -22.7020  -10.2350   20.3090 C   0  0  0  0  0  3  0  0  0  0  0  0
  -21.6540   -6.9340   21.5060 O   0  0  0  0  0  0  0  0  0  0  0  0
  -21.6450   -6.1690   22.6450 C   0  0  0  0  0  0  0  0  0  0  0  0
  -21.2770   -6.7030   23.8990 C   0  0  0  0  0  3  0  0  0  0  0  0
  -21.2130   -5.8650   25.0310 C   0  0  0  0  0  3  0  0  0  0  0  0
  -21.5080   -4.4940   24.9100 C   0  0  0  0  0  0  0  0  0  0  0  0
  -21.8710   -3.9590   23.6610 C   0  0  0  0  0  3  0  0  0  0  0  0
  -21.9350   -4.7930   22.5310 C   0  0  0  0  0  0  0  0  0  0  0  0
  -22.2640   -4.2690   21.3260 F   0  0  0  0  0  0  0  0  0  0  0  0
  -21.4400   -3.6870   25.9940 F   0  0  0  0  0  0  0  0  0  0  0  0
  -22.7360  -13.5660   21.1960 C   0  0  0  0  0  0  0  0  0  0  0  0
  -22.0220  -12.8690   22.0710 N   0  0  0  0  0  0  0  0  0  0  0  0
  -22.2910  -14.5920   20.6820 O   0  0  0  0  0  0  0  0  0  0  0  0
  -22.3970  -12.0380   22.5070 H   0  0  0  0  0  0  0  0  0  0  0  0
  -21.0890  -13.1700   22.3120 H   0  0  0  0  0  0  0  0  0  0  0  0
  -25.3330  -15.2440   20.3420 N   0  0  0  0  0  0  0  0  0  0  0  0
  -24.5560  -15.8860   20.4530 H   0  0  0  0  0  0  0  0  0  0  0  0
  -26.1530  -15.6780   19.9420 H   0  0  0  0  0  0  0  0  0  0  0  0
  1  2  1  0
  1 45  2  0
  2  3  1  0
  4  6  1  0
  4  2  1  0
  5 16  2  0
  6 11  1  0
  7 15  1  0
  7 17  1  0
  8 14  1  0
  8 10  1  0
  9 15  1  0
 10 11  2  0
 10  9  1  0
 12  6  2  0
 13 12  1  0
 13  8  2  0
 14  7  1  0
 15  5  1  0
 17 19  2  0
 18 17  1  0
 20 18  1  0
 21 30  2  0
 21 26  1  0
 22 18  1  0
 22 26  1  0
 23 22  1  0
 24 25  1  0
 24 23  1  0
 25 21  1  0
 26 27  2  0
 27 28  1  0
 29 28  2  0
 30 29  1  0
 31  5  1  0
 31 32  1  0
 31 41  1  0
 32 35  1  0
 33 37  1  0
 33 32  1  0
 34 33  2  0
 37 36  1  0
 39 37  1  0
 39 40  1  0
 39 38  1  0
 41 44  1  1
 41 42  1  0
 43 41  1  0
 46 58  1  0
 47 52  1  0
 48 49  1  0
 48 47  1  0
 50 49  1  0
 50 64  1  0
 50 51  1  0
 52 46  1  0
 52 51  1  0
 53 46  2  0
 54 56  1  0
 54 58  1  0
 55 57  1  0
 58 55  1  0
 59 56  1  0
 59 45  1  0
 59 57  1  0
 59 60  1  6
 61 62  2  0
 62 81  1  0
 63 62  1  0
 63 66  1  0
 64 61  1  0
 64 65  1  0
 65 63  2  0
 66 67  1  0
 67 68  2  0
 69 72  1  0
 69 68  1  0
 70 69  2  0
 71 70  1  0
 71 66  2  0
 72 73  1  0
 73 74  1  0
 74 75  2  0
 76 75  1  0
 76 80  1  0
 77 76  2  0
 78 73  2  0
 78 77  1  0
 79 78  1  0
 81 82  1  0
 82 85  1  0
 82 84  1  0
 83 81  2  0
 86 87  1  0
 86 61  1  0
 88 86  1  0
M  ISO  4   2 101   4 101  46 100  58 100
M  END
>  <TORSDO>  (23) 
F 18

>  <SCORE>  (23) 
-16.491

>  <name>  (23) 
22

>  <ligand_id>  (23) 
22

>  <original_smiles>  (23) 
[H]c1c([H])c([H])c2c(c1[H])C([H])([H])C([H])([H])C([H])([H])C2([H])N([H])C(=O)C1([H])N(C(=O)C([H])(N([H])C(=O)C([H])(N([H])C([H])([H])[H])C([H])([H])[H])C(C([H])([H])[H])(C([H])([H])[H])C([H])([H])[H])C([H])([H])c2c([H])c(ON([H])C([H])([H])C([H])([H])[N+]3([H])C([H])([H])C([H])([H])N(C(=O)N4C([H])([H])C([H])([H])C([H])([H])C([H])(n5nc(-c6c([H])c([H])c(Oc7c([H])c([H])c(F)c([H])c7F)c([H])c6[H])c(C(=O)N([H])[H])c5N([H])[H])C4([H])[H])C([H])([H])C3([H])[H])c([H])c([H])c2C1([H])[H]

>  <smiles>  (23) 
[H]c1c([H])c([H])c2c(c1[H])C([H])([H])C([H])([H])C([H])([H])C2([H])N([H])C(=O)C1([H])N(C(=O)C([H])(N([H])C(=O)C([H])(N([H])C([H])([H])[H])C([H])([H])[H])C(C([H])([H])[H])(C([H])([H])[H])C([H])([H])[H])C([H])([H])c2c([H])c(ON([H])C([H])([H])C([H])([H])[N+]3([H])C([H])([H])C([H])([H])N(C(=O)N4C([H])([H])C([H])([H])C([H])([H])C([H])(n5nc(-c6c([H])c([H])c(Oc7c([H])c([H])c(F)c([H])c7F)c([H])c6[H])c(C(=O)N([H])[H])c5N([H])[H])C4([H])[H])C([H])([H])C3([H])[H])c([H])c([H])c2C1([H])[H]

$$$$
23:0:0
     RDKit          3D

 97106  0  0  1  0  0  0  0  0999 V2000
  -29.9970  -22.7480   18.9920 C   0  0  0  0  0  2  0  0  0  0  0  0
  -31.5360  -22.2540   17.0830 C   0  0  0  0  0  2  0  0  0  0  0  0
  -30.3120  -24.2460   18.8230 C   0  0  0  0  0  2  0  0  0  0  0  0
  -31.8290  -23.7630   16.9540 C   0  0  0  0  0  2  0  0  0  0  0  0
  -31.1530  -21.8500   18.5200 C   0  0  0  0  0  3  0  0  0  0  0  0
  -30.6960  -24.6030   17.4300 N   0  0  2  0  0  4  0  0  0  0  0  0
  -29.9080  -24.3790   16.8390 H   0  0  0  0  0  0  0  0  0  0  0  0
  -30.7670  -20.3560   18.6030 C   0  0  0  0  0  2  0  0  0  0  0  0
  -30.9640  -19.7000   19.9970 C   0  0  0  0  0  2  0  0  0  0  0  0
  -30.6940  -14.4420   20.2080 C   0  0  0  0  0  0  0  0  0  0  0  0
  -30.3580  -12.3100   19.0190 C   0  0  0  0  0  2  0  0  0  0  0  0
  -29.3750  -12.5560   17.8560 C   0  0  0  0  0  2  0  0  0  0  0  0
  -27.9140  -12.4130   18.3370 C   0  0  0  0  0  2  0  0  0  0  0  0
  -27.6230  -13.2120   19.6350 C   0  0  0  0  0  3  0  0  0  0  0  0
  -28.7200  -12.9720   20.6980 C   0  0  0  0  0  2  0  0  0  0  0  0
  -30.0240  -13.2650   20.0840 N   0  0  0  0  0  0  0  0  0  0  0  0
  -31.8440  -14.6170   19.7910 O   0  0  0  0  0  0  0  0  0  0  0  0
  -29.9270  -16.3430   21.6450 C   0  0  0  0  0  2  0  0  0  0  0  0
  -29.3780  -16.2570   19.2810 C   0  0  0  0  0  2  0  0  0  0  0  0
  -30.6850  -17.6800   21.4220 C   0  0  0  0  0  2  0  0  0  0  0  0
  -30.2290  -17.5090   19.0060 C   0  0  0  0  0  2  0  0  0  0  0  0
  -29.8850  -15.5070   20.4340 N   0  0  0  0  0  0  0  0  0  0  0  0
  -30.2480  -18.4040   20.1910 N   0  0  2  0  0  4  0  0  0  0  0  0
  -29.2840  -18.6590   20.3490 H   0  0  0  0  0  0  0  0  0  0  0  0
  -25.2610  -13.8350   20.4400 C   0  0  0  0  0  0  0  0  0  0  0  0
  -24.2020  -13.0680   20.8410 C   0  0  0  0  0  0  0  0  0  0  0  0
  -24.6540  -11.7130   20.7820 C   0  0  0  0  0  0  0  0  0  0  0  0
  -26.2890  -12.9470   20.1580 N   0  0  0  0  0  0  0  0  0  0  0  0
  -25.9300  -11.6660   20.4240 N   0  0  0  0  0  0  0  0  0  0  0  0
  -23.9270  -10.4550   20.9870 C   0  0  0  0  0  0  0  0  0  0  0  0
  -24.3760   -9.4850   21.9120 C   0  0  0  0  0  3  0  0  0  0  0  0
  -23.6500   -8.2900   22.1050 C   0  0  0  0  0  3  0  0  0  0  0  0
  -22.4620   -8.0560   21.3730 C   0  0  0  0  0  0  0  0  0  0  0  0
  -22.0340   -9.0140   20.4370 C   0  0  0  0  0  3  0  0  0  0  0  0
  -22.7600  -10.2000   20.2400 C   0  0  0  0  0  3  0  0  0  0  0  0
  -21.7080   -6.9130   21.4720 O   0  0  0  0  0  0  0  0  0  0  0  0
  -21.6700   -6.1750   22.6280 C   0  0  0  0  0  0  0  0  0  0  0  0
  -21.2430   -6.7330   23.8530 C   0  0  0  0  0  3  0  0  0  0  0  0
  -21.1520   -5.9230   25.0030 C   0  0  0  0  0  3  0  0  0  0  0  0
  -21.4770   -4.5560   24.9280 C   0  0  0  0  0  0  0  0  0  0  0  0
  -21.8970   -3.9970   23.7090 C   0  0  0  0  0  3  0  0  0  0  0  0
  -21.9910   -4.8040   22.5610 C   0  0  0  0  0  0  0  0  0  0  0  0
  -22.3750   -4.2550   21.3830 F   0  0  0  0  0  0  0  0  0  0  0  0
  -21.3820   -3.7750   26.0300 F   0  0  0  0  0  0  0  0  0  0  0  0
  -22.8200  -13.5530   21.1720 C   0  0  0  0  0  0  0  0  0  0  0  0
  -22.1170  -12.8530   22.0540 N   0  0  0  0  0  0  0  0  0  0  0  0
  -22.3750  -14.5900   20.6820 O   0  0  0  0  0  0  0  0  0  0  0  0
  -22.4910  -12.0140   22.4730 H   0  0  0  0  0  0  0  0  0  0  0  0
  -21.1900  -13.1640   22.3130 H   0  0  0  0  0  0  0  0  0  0  0  0
  -25.4250  -15.2090   20.2730 N   0  0  0  0  0  0  0  0  0  0  0  0
  -24.6680  -15.8660   20.4330 H   0  0  0  0  0  0  0  0  0  0  0  0
  -26.2680  -15.6500   19.9370 H   0  0  0  0  0  0  0  0  0  0  0  0
  -30.9610  -26.0590   17.2280 C   0  0  0  0  0  2  0  0  0  0  0  0
  -29.7370  -26.9890   17.4420 C   0  0  0  0  0  2  0  0  0  0  0  0
  -29.8520  -28.0200   18.5920 C   0  0  0  0  0  2  0  0  0  0  0  0
  -29.7080  -27.4410   20.0140 C   0  0  0  0  0  2  0  0  0  0  0  0
  -28.4680  -26.7480   20.1670 O   0  0  0  0  0  0  0  0  0  0  0  0
  -24.5850  -31.8830   23.2380 C   0  0  0  0  0  0  0  0  0  0  0  0
  -27.3080  -27.4830   20.2160 C   0  0  0  0  0  0  0  0  0  0  0  0
  -23.3970  -30.4600   21.5970 C   0  0  0  0  0  3  0  0  0  0  0  0
  -24.8740  -28.9150   20.2070 C   0  0  0  0  0  0  0  0  0  0  0  0
  -25.9080  -30.8530   21.3970 C   0  0  0  0  0  2  0  0  0  0  0  0
  -26.0140  -29.4700   20.7970 C   0  0  0  0  0  0  0  0  0  0  0  0
  -27.2260  -28.7590   20.8200 C   0  0  0  0  0  3  0  0  0  0  0  0
  -26.1470  -26.9200   19.6460 C   0  0  0  0  0  3  0  0  0  0  0  0
  -24.9280  -27.6300   19.6390 C   0  0  0  0  0  3  0  0  0  0  0  0
  -23.6190  -29.7580   20.2280 C   0  0  0  0  0  2  0  0  0  0  0  0
  -24.6500  -31.0780   22.1410 N   0  0  0  0  0  0  0  0  0  0  0  0
  -23.4990  -32.1560   23.7710 O   0  0  0  0  0  0  0  0  0  0  0  0
  -22.7470  -29.4460   22.5650 C   0  0  0  0  0  0  0  0  0  0  0  0
  -21.4240  -29.2620   22.4290 N   0  0  0  0  0  0  0  0  0  0  0  0
  -23.4270  -28.8300   23.3880 O   0  0  0  0  0  0  0  0  0  0  0  0
  -20.9390  -29.8100   21.7320 H   0  0  0  0  0  0  0  0  0  0  0  0
  -18.0440  -28.0900   22.9220 C   0  0  0  0  0  0  0  0  0  0  0  0
  -20.6030  -28.3300   23.1980 C   0  0  0  0  0  3  0  0  0  0  0  0
  -20.7000  -26.9020   22.6180 C   0  0  0  0  0  2  0  0  0  0  0  0
  -19.5950  -26.5840   21.6060 C   0  0  0  0  0  2  0  0  0  0  0  0
  -18.2130  -26.7410   22.2450 C   0  0  0  0  0  2  0  0  0  0  0  0
  -19.1660  -28.8440   23.3550 C   0  0  0  0  0  0  0  0  0  0  0  0
  -18.9560  -30.1090   23.9470 C   0  0  0  0  0  3  0  0  0  0  0  0
  -17.6540  -30.6190   24.1110 C   0  0  0  0  0  3  0  0  0  0  0  0
  -16.5460  -29.8620   23.6930 C   0  0  0  0  0  3  0  0  0  0  0  0
  -16.7420  -28.5980   23.1070 C   0  0  0  0  0  3  0  0  0  0  0  0
  -25.8660  -32.5230   23.8640 C   0  0  0  0  0  3  0  0  0  0  0  0
  -25.5520  -33.9200   24.1820 N   0  0  0  0  0  0  0  0  0  0  0  0
  -25.8950  -34.9670   23.4180 C   0  0  0  0  0  0  0  0  0  0  0  0
  -26.5820  -34.8560   22.3990 O   0  0  0  0  0  0  0  0  0  0  0  0
  -24.9400  -34.0810   24.9690 H   0  0  0  0  0  0  0  0  0  0  0  0
  -24.1780  -36.7610   23.0060 C   0  0  0  0  0  1  0  0  0  0  0  0
  -25.3960  -36.3590   23.8530 C   0  0  0  0  0  3  0  0  0  0  0  0
  -27.5120  -37.2470   24.7280 C   0  0  0  0  0  1  0  0  0  0  0  0
  -26.4310  -37.4110   23.7600 N   0  0  0  0  0  0  0  0  0  0  0  0
  -26.0200  -38.3300   23.9020 H   0  0  0  0  0  0  0  0  0  0  0  0
  -26.3810  -31.7530   25.1420 C   0  0  1  0  0  0  0  0  0  0  0  0
  -25.2770  -31.4870   26.1900 C   0  0  0  0  0  1  0  0  0  0  0  0
  -26.9880  -30.3850   24.7430 C   0  0  0  0  0  1  0  0  0  0  0  0
  -27.5110  -32.5590   25.8240 C   0  0  0  0  0  1  0  0  0  0  0  0
  2  5  1  0
  3  1  1  0
  4  2  1  0
  4  6  1  0
  5  8  1  0
  5  1  1  0
  6  3  1  0
  6  7  1  6
  8  9  1  0
  9 23  1  0
 10 22  1  0
 11 16  1  0
 12 13  1  0
 12 11  1  0
 14 13  1  0
 14 28  1  0
 14 15  1  0
 16 10  1  0
 16 15  1  0
 17 10  2  0
 19 22  1  0
 20 18  1  0
 21 19  1  0
 21 23  1  0
 22 18  1  0
 23 24  1  1
 23 20  1  0
 25 26  2  0
 26 45  1  0
 27 26  1  0
 27 30  1  0
 28 29  1  0
 28 25  1  0
 29 27  2  0
 30 31  1  0
 31 32  2  0
 33 36  1  0
 33 32  1  0
 34 33  2  0
 35 34  1  0
 35 30  2  0
 36 37  1  0
 37 38  1  0
 38 39  2  0
 40 39  1  0
 40 44  1  0
 41 40  2  0
 42 37  2  0
 42 41  1  0
 43 42  1  0
 45 46  1  0
 46 49  1  0
 46 48  1  0
 47 45  2  0
 50 51  1  0
 50 25  1  0
 52 50  1  0
 53  6  1  0
 53 54  1  0
 54 55  1  0
 55 56  1  0
 56 57  1  0
 57 59  1  0
 58 69  2  0
 59 64  1  0
 60 68  1  0
 60 70  1  0
 61 67  1  0
 61 63  1  0
 62 68  1  0
 63 64  2  0
 63 62  1  0
 65 59  2  0
 66 65  1  0
 66 61  2  0
 67 60  1  0
 68 58  1  0
 70 72  2  0
 71 70  1  0
 73 71  1  0
 74 83  2  0
 74 79  1  0
 75 71  1  0
 75 79  1  0
 76 75  1  0
 77 78  1  0
 77 76  1  0
 78 74  1  0
 79 80  2  0
 80 81  1  0
 82 81  2  0
 83 82  1  0
 84 58  1  0
 84 85  1  0
 84 94  1  0
 85 88  1  0
 86 90  1  0
 86 85  1  0
 87 86  2  0
 90 89  1  0
 92 90  1  0
 92 93  1  0
 92 91  1  0
 94 97  1  1
 94 95  1  0
 96 94  1  0
M  ISO  4  10 100  22 100  56 101  57 101
M  END
>  <TORSDO>  (24) 
F 22

>  <SCORE>  (24) 
-13.062

>  <name>  (24) 
23

>  <ligand_id>  (24) 
23

>  <original_smiles>  (24) 
[H]c1c([H])c([H])c2c(c1[H])C([H])([H])C([H])([H])C([H])([H])C2([H])N([H])C(=O)C1([H])N(C(=O)C([H])(N([H])C(=O)C([H])(N([H])C([H])([H])[H])C([H])([H])[H])C(C([H])([H])[H])(C([H])([H])[H])C([H])([H])[H])C([H])([H])c2c([H])c(OC([H])([H])C([H])([H])C([H])([H])C([H])([H])[N+]3([H])C([H])([H])C([H])([H])C([H])(C([H])([H])C([H])([H])[N+]4([H])C([H])([H])C([H])([H])N(C(=O)N5C([H])([H])C([H])([H])C([H])([H])C([H])(n6nc(-c7c([H])c([H])c(Oc8c([H])c([H])c(F)c([H])c8F)c([H])c7[H])c(C(=O)N([H])[H])c6N([H])[H])C5([H])[H])C([H])([H])C4([H])[H])C([H])([H])C3([H])[H])c([H])c([H])c2C1([H])[H]

>  <smiles>  (24) 
[H]c1c([H])c([H])c2c(c1[H])C([H])([H])C([H])([H])C([H])([H])C2([H])N([H])C(=O)C1([H])N(C(=O)C([H])(N([H])C(=O)C([H])(N([H])C([H])([H])[H])C([H])([H])[H])C(C([H])([H])[H])(C([H])([H])[H])C([H])([H])[H])C([H])([H])c2c([H])c(OC([H])([H])C([H])([H])C([H])([H])C([H])([H])[N+]3([H])C([H])([H])C([H])([H])C([H])(C([H])([H])C([H])([H])[N+]4([H])C([H])([H])C([H])([H])N(C(=O)N5C([H])([H])C([H])([H])C([H])([H])C([H])(n6nc(-c7c([H])c([H])c(Oc8c([H])c([H])c(F)c([H])c8F)c([H])c7[H])c(C(=O)N([H])[H])c6N([H])[H])C5([H])[H])C([H])([H])C4([H])[H])C([H])([H])C3([H])[H])c([H])c([H])c2C1([H])[H]

$$$$
24:0:0
     RDKit          3D

 96104  0  0  1  0  0  0  0  0999 V2000
  -29.7910  -18.1420   20.5060 C   0  0  0  0  0  0  0  0  0  0  0  0
  -30.9260  -19.9260   21.8210 C   0  0  0  0  0  2  0  0  0  0  0  0
  -30.2110  -22.2950   21.5050 C   0  0  0  0  0  2  0  0  0  0  0  0
  -29.4530  -20.5660   19.8660 C   0  0  0  0  0  2  0  0  0  0  0  0
  -30.4180  -21.1830   22.5450 C   0  0  0  0  0  3  0  0  0  0  0  0
  -29.9810  -19.4840   20.7690 N   0  0  0  0  0  0  0  0  0  0  0  0
  -28.9920  -17.7210   19.5010 N   0  0  0  0  0  0  0  0  0  0  0  0
  -29.1900  -21.9120   20.4980 N   0  0  2  0  0  4  0  0  0  0  0  0
  -28.9380  -16.7320   19.3030 H   0  0  0  0  0  0  0  0  0  0  0  0
  -28.4550  -18.3300   18.9030 H   0  0  0  0  0  0  0  0  0  0  0  0
  -28.3220  -21.8070   21.0010 H   0  0  0  0  0  0  0  0  0  0  0  0
  -31.3460  -20.7530   24.9180 C   0  0  0  0  0  1  0  0  0  0  0  0
  -31.3750  -21.6450   23.6680 C   0  0  0  0  0  2  0  0  0  0  0  0
  -30.4840  -17.0390   21.3130 C   0  0  0  0  0  3  0  0  0  0  0  0
  -30.8090  -14.6560   20.4970 C   0  0  0  0  0  0  0  0  0  0  0  0
  -30.6070  -12.4170   19.4590 C   0  0  0  0  0  2  0  0  0  0  0  0
  -29.6800  -12.4980   18.2280 C   0  0  0  0  0  2  0  0  0  0  0  0
  -28.1990  -12.3550   18.6390 C   0  0  0  0  0  2  0  0  0  0  0  0
  -27.8170  -13.2690   19.8340 C   0  0  0  0  0  3  0  0  0  0  0  0
  -28.8520  -13.1390   20.9730 C   0  0  0  0  0  2  0  0  0  0  0  0
  -30.1780  -13.4530   20.4120 N   0  0  0  0  0  0  0  0  0  0  0  0
  -31.9380  -14.8550   20.0390 O   0  0  0  0  0  0  0  0  0  0  0  0
  -30.0600  -15.6590   20.9950 N   0  0  0  0  0  0  0  0  0  0  0  0
  -29.1420  -15.4000   21.3220 H   0  0  0  0  0  0  0  0  0  0  0  0
  -25.4210  -13.8940   20.5390 C   0  0  0  0  0  0  0  0  0  0  0  0
  -24.3430  -13.1290   20.8930 C   0  0  0  0  0  0  0  0  0  0  0  0
  -24.7920  -11.7730   20.8490 C   0  0  0  0  0  0  0  0  0  0  0  0
  -26.4580  -13.0050   20.3020 N   0  0  0  0  0  0  0  0  0  0  0  0
  -26.0830  -11.7230   20.5460 N   0  0  0  0  0  0  0  0  0  0  0  0
  -24.0520  -10.5160   21.0210 C   0  0  0  0  0  0  0  0  0  0  0  0
  -24.4620   -9.5420   21.9570 C   0  0  0  0  0  3  0  0  0  0  0  0
  -23.7240   -8.3480   22.1180 C   0  0  0  0  0  3  0  0  0  0  0  0
  -22.5630   -8.1230   21.3410 C   0  0  0  0  0  0  0  0  0  0  0  0
  -22.1720   -9.0870   20.3950 C   0  0  0  0  0  3  0  0  0  0  0  0
  -22.9100  -10.2710   20.2330 C   0  0  0  0  0  3  0  0  0  0  0  0
  -21.7990   -6.9830   21.4100 O   0  0  0  0  0  0  0  0  0  0  0  0
  -21.7070   -6.2470   22.5640 C   0  0  0  0  0  0  0  0  0  0  0  0
  -21.2060   -6.8010   23.7620 C   0  0  0  0  0  3  0  0  0  0  0  0
  -21.0630   -5.9900   24.9060 C   0  0  0  0  0  3  0  0  0  0  0  0
  -21.4110   -4.6270   24.8520 C   0  0  0  0  0  0  0  0  0  0  0  0
  -21.9050   -4.0730   23.6580 C   0  0  0  0  0  3  0  0  0  0  0  0
  -22.0490   -4.8810   22.5160 C   0  0  0  0  0  0  0  0  0  0  0  0
  -22.5060   -4.3380   21.3620 F   0  0  0  0  0  0  0  0  0  0  0  0
  -21.2670   -3.8460   25.9480 F   0  0  0  0  0  0  0  0  0  0  0  0
  -22.9490  -13.6180   21.1640 C   0  0  0  0  0  0  0  0  0  0  0  0
  -22.2100  -12.9200   22.0200 N   0  0  0  0  0  0  0  0  0  0  0  0
  -22.5240  -14.6520   20.6510 O   0  0  0  0  0  0  0  0  0  0  0  0
  -22.5670  -12.0830   22.4570 H   0  0  0  0  0  0  0  0  0  0  0  0
  -21.2750  -13.2290   22.2410 H   0  0  0  0  0  0  0  0  0  0  0  0
  -25.5990  -15.2660   20.3770 N   0  0  0  0  0  0  0  0  0  0  0  0
  -24.8340  -15.9210   20.4920 H   0  0  0  0  0  0  0  0  0  0  0  0
  -26.4450  -15.7040   20.0380 H   0  0  0  0  0  0  0  0  0  0  0  0
  -28.9600  -22.9820   19.4630 C   0  0  0  0  0  2  0  0  0  0  0  0
  -28.4860  -24.3850   19.9810 C   0  0  0  0  0  2  0  0  0  0  0  0
  -28.4270  -25.4730   18.8710 C   0  0  0  0  0  2  0  0  0  0  0  0
  -28.3000  -26.8120   19.3890 O   0  0  0  0  0  0  0  0  0  0  0  0
  -24.4960  -31.6340   22.9910 C   0  0  0  0  0  0  0  0  0  0  0  0
  -27.0810  -27.4630   19.4800 C   0  0  0  0  0  0  0  0  0  0  0  0
  -23.2380  -30.3130   21.3200 C   0  0  0  0  0  3  0  0  0  0  0  0
  -24.6490  -28.9100   19.7240 C   0  0  0  0  0  0  0  0  0  0  0  0
  -25.7420  -30.7470   21.0190 C   0  0  0  0  0  2  0  0  0  0  0  0
  -25.8240  -29.4220   20.2850 C   0  0  0  0  0  0  0  0  0  0  0  0
  -27.0370  -28.7040   20.1610 C   0  0  0  0  0  3  0  0  0  0  0  0
  -25.8780  -26.9610   18.9280 C   0  0  0  0  0  3  0  0  0  0  0  0
  -24.6720  -27.6790   19.0460 C   0  0  0  0  0  3  0  0  0  0  0  0
  -23.3920  -29.7330   19.8890 C   0  0  0  0  0  2  0  0  0  0  0  0
  -24.5130  -30.9100   21.8350 N   0  0  0  0  0  0  0  0  0  0  0  0
  -23.4380  -31.8400   23.6020 O   0  0  0  0  0  0  0  0  0  0  0  0
  -22.6620  -29.2140   22.2410 C   0  0  0  0  0  0  0  0  0  0  0  0
  -21.3400  -28.9870   22.1510 N   0  0  0  0  0  0  0  0  0  0  0  0
  -23.3980  -28.5720   22.9940 O   0  0  0  0  0  0  0  0  0  0  0  0
  -20.8040  -29.5620   21.5170 H   0  0  0  0  0  0  0  0  0  0  0  0
  -18.0400  -27.6120   22.6640 C   0  0  0  0  0  0  0  0  0  0  0  0
  -20.5890  -27.9740   22.8910 C   0  0  0  0  0  3  0  0  0  0  0  0
  -20.7420  -26.5790   22.2410 C   0  0  0  0  0  2  0  0  0  0  0  0
  -19.6300  -26.2580   21.2370 C   0  0  0  0  0  2  0  0  0  0  0  0
  -18.2600  -26.3070   21.9180 C   0  0  0  0  0  2  0  0  0  0  0  0
  -19.1330  -28.4030   23.1070 C   0  0  0  0  0  0  0  0  0  0  0  0
  -18.8730  -29.6250   23.7640 C   0  0  0  0  0  3  0  0  0  0  0  0
  -17.5520  -30.0560   23.9850 C   0  0  0  0  0  3  0  0  0  0  0  0
  -16.4730  -29.2620   23.5610 C   0  0  0  0  0  3  0  0  0  0  0  0
  -16.7180  -28.0420   22.9040 C   0  0  0  0  0  3  0  0  0  0  0  0
  -25.7980  -32.2560   23.5860 C   0  0  0  0  0  3  0  0  0  0  0  0
  -25.4760  -33.6220   24.0220 N   0  0  0  0  0  0  0  0  0  0  0  0
  -25.7780  -34.7310   23.3330 C   0  0  0  0  0  0  0  0  0  0  0  0
  -26.4270  -34.7110   22.2840 O   0  0  0  0  0  0  0  0  0  0  0  0
  -24.8960  -33.7090   24.8430 H   0  0  0  0  0  0  0  0  0  0  0  0
  -24.0310  -36.5280   23.1230 C   0  0  0  0  0  1  0  0  0  0  0  0
  -25.2780  -36.0740   23.8980 C   0  0  0  0  0  3  0  0  0  0  0  0
  -27.4040  -36.9160   24.7930 C   0  0  0  0  0  1  0  0  0  0  0  0
  -26.3010  -37.1430   23.8640 N   0  0  0  0  0  0  0  0  0  0  0  0
  -25.8860  -38.0460   24.0790 H   0  0  0  0  0  0  0  0  0  0  0  0
  -26.3990  -31.4160   24.7790 C   0  0  1  0  0  0  0  0  0  0  0  0
  -25.3720  -31.0870   25.8890 C   0  0  0  0  0  1  0  0  0  0  0  0
  -26.9820  -30.0800   24.2630 C   0  0  0  0  0  1  0  0  0  0  0  0
  -27.5690  -32.1910   25.4280 C   0  0  0  0  0  1  0  0  0  0  0  0
  1  6  1  0
  1 14  2  0
  2  5  1  0
  3  5  1  0
  4  8  1  0
  4  6  1  0
  5 13  1  0
  6  2  1  0
  7  1  1  0
  8 11  1  1
  8  3  1  0
  9  7  1  0
 10  7  1  0
 13 12  1  0
 15 23  1  0
 16 21  1  0
 17 18  1  0
 17 16  1  0
 19 18  1  0
 19 28  1  0
 19 20  1  0
 21 15  1  0
 21 20  1  0
 22 15  2  0
 23 14  1  0
 23 24  1  0
 25 26  2  0
 26 45  1  0
 27 26  1  0
 27 30  1  0
 28 25  1  0
 28 29  1  0
 29 27  2  0
 30 31  1  0
 31 32  2  0
 33 36  1  0
 33 32  1  0
 34 33  2  0
 35 34  1  0
 35 30  2  0
 36 37  1  0
 37 38  1  0
 38 39  2  0
 40 39  1  0
 40 44  1  0
 41 40  2  0
 42 37  2  0
 42 41  1  0
 43 42  1  0
 45 46  1  0
 46 49  1  0
 46 48  1  0
 47 45  2  0
 50 51  1  0
 50 25  1  0
 52 50  1  0
 53 54  1  0
 53  8  1  0
 55 56  1  0
 55 54  1  0
 56 58  1  0
 57 68  2  0
 58 63  1  0
 59 67  1  0
 59 69  1  0
 60 66  1  0
 60 62  1  0
 61 67  1  0
 62 61  1  0
 63 62  2  0
 64 65  1  0
 64 58  2  0
 65 60  2  0
 66 59  1  0
 67 57  1  0
 69 71  2  0
 70 69  1  0
 72 70  1  0
 73 82  2  0
 73 78  1  0
 74 70  1  0
 74 78  1  0
 75 74  1  0
 76 77  1  0
 76 75  1  0
 77 73  1  0
 78 79  2  0
 79 80  1  0
 81 80  2  0
 82 81  1  0
 83 57  1  0
 83 84  1  0
 83 93  1  0
 84 87  1  0
 85 89  1  0
 85 84  1  0
 86 85  2  0
 89 88  1  0
 91 89  1  0
 91 92  1  0
 91 90  1  0
 93 96  1  1
 93 94  1  0
 95 93  1  0
M  ISO  4  15 100  23 100  55 101  56 101
M  END
>  <TORSDO>  (25) 
F 21

>  <SCORE>  (25) 
-12.829

>  <name>  (25) 
24

>  <ligand_id>  (25) 
24

>  <original_smiles>  (25) 
[H]c1c([H])c([H])c2c(c1[H])C([H])([H])C([H])([H])C([H])([H])C2([H])N([H])C(=O)C1([H])N(C(=O)C([H])(N([H])C(=O)C([H])(N([H])C([H])([H])[H])C([H])([H])[H])C(C([H])([H])[H])(C([H])([H])[H])C([H])([H])[H])C([H])([H])c2c([H])c(OC([H])([H])C([H])([H])C([H])([H])[N+]3([H])C([H])([H])N(C(=[N+]([H])[H])C([H])([H])N([H])C(=O)N4C([H])([H])C([H])([H])C([H])([H])C([H])(n5nc(-c6c([H])c([H])c(Oc7c([H])c([H])c(F)c([H])c7F)c([H])c6[H])c(C(=O)N([H])[H])c5N([H])[H])C4([H])[H])C([H])([H])C([H])(C([H])([H])C([H])([H])[H])C3([H])[H])c([H])c([H])c2C1([H])[H]

>  <smiles>  (25) 
[H]c1c([H])c([H])c2c(c1[H])C([H])([H])C([H])([H])C([H])([H])C2([H])N([H])C(=O)C1([H])N(C(=O)C([H])(N([H])C(=O)C([H])(N([H])C([H])([H])[H])C([H])([H])[H])C(C([H])([H])[H])(C([H])([H])[H])C([H])([H])[H])C([H])([H])c2c([H])c(OC([H])([H])C([H])([H])C([H])([H])[N+]3([H])C([H])([H])N(C(=[N+]([H])[H])C([H])([H])N([H])C(=O)N4C([H])([H])C([H])([H])C([H])([H])C([H])(n5nc(-c6c([H])c([H])c(Oc7c([H])c([H])c(F)c([H])c7F)c([H])c6[H])c(C(=O)N([H])[H])c5N([H])[H])C4([H])[H])C([H])([H])C([H])(C([H])([H])C([H])([H])[H])C3([H])[H])c([H])c([H])c2C1([H])[H]

$$$$
25:0:0
     RDKit          3D

 87 95  0  0  1  0  0  0  0  0999 V2000
  -29.1860  -21.2150   18.0690 C   0  0  0  0  0  1  0  0  0  0  0  0
  -29.4950  -21.1820   19.5260 N   0  0  2  0  0  4  0  0  0  0  0  0
  -30.4740  -21.4450   19.5090 H   0  0  0  0  0  0  0  0  0  0  0  0
  -30.6120  -15.3370   19.9040 C   0  0  0  0  0  0  0  0  0  0  0  0
  -30.4320  -12.8710   19.1100 C   0  0  0  0  0  2  0  0  0  0  0  0
  -29.4700  -12.6860   17.9210 C   0  0  0  0  0  2  0  0  0  0  0  0
  -28.0460  -12.4080   18.4320 C   0  0  0  0  0  2  0  0  0  0  0  0
  -27.6450  -13.3670   19.5860 C   0  0  0  0  0  3  0  0  0  0  0  0
  -28.7660  -13.5710   20.6420 C   0  0  0  0  0  2  0  0  0  0  0  0
  -29.9570  -14.0600   19.9200 N   0  0  0  0  0  0  0  0  0  0  0  0
  -31.8010  -15.2250   19.5850 O   0  0  0  0  0  0  0  0  0  0  0  0
  -28.4090  -18.7220   20.3810 C   0  0  0  0  0  2  0  0  0  0  0  0
  -28.8240  -17.1910   20.7000 C   0  0  0  0  0  2  0  0  0  0  0  0
  -30.4640  -18.2050   19.4410 C   0  0  0  0  0  2  0  0  0  0  0  0
  -29.6560  -19.5940   20.0930 C   0  0  0  0  0  3  0  0  0  0  0  0
  -30.0090  -16.7230   19.9360 N   0  0  0  0  0  0  0  0  0  0  0  0
  -25.3000  -13.8990   20.4500 C   0  0  0  0  0  0  0  0  0  0  0  0
  -24.2510  -13.1150   20.8550 C   0  0  0  0  0  0  0  0  0  0  0  0
  -24.7200  -11.7670   20.7780 C   0  0  0  0  0  0  0  0  0  0  0  0
  -26.3390  -13.0340   20.1570 N   0  0  0  0  0  0  0  0  0  0  0  0
  -25.9980  -11.7420   20.4130 N   0  0  0  0  0  0  0  0  0  0  0  0
  -23.9920  -10.5010   20.9720 C   0  0  0  0  0  0  0  0  0  0  0  0
  -24.4370   -9.5280   21.8940 C   0  0  0  0  0  3  0  0  0  0  0  0
  -23.7060   -8.3350   22.0840 C   0  0  0  0  0  3  0  0  0  0  0  0
  -22.5180   -8.1030   21.3490 C   0  0  0  0  0  0  0  0  0  0  0  0
  -22.0930   -9.0670   20.4150 C   0  0  0  0  0  3  0  0  0  0  0  0
  -22.8250  -10.2530   20.2230 C   0  0  0  0  0  3  0  0  0  0  0  0
  -21.7620   -6.9580   21.4450 O   0  0  0  0  0  0  0  0  0  0  0  0
  -21.7010   -6.2290   22.6050 C   0  0  0  0  0  0  0  0  0  0  0  0
  -21.2240   -6.7900   23.8130 C   0  0  0  0  0  3  0  0  0  0  0  0
  -21.1060   -5.9870   24.9640 C   0  0  0  0  0  3  0  0  0  0  0  0
  -21.4620   -4.6240   24.9120 C   0  0  0  0  0  0  0  0  0  0  0  0
  -21.9320   -4.0660   23.7140 C   0  0  0  0  0  3  0  0  0  0  0  0
  -22.0480   -4.8640   22.5620 C   0  0  0  0  0  0  0  0  0  0  0  0
  -22.4760   -4.3120   21.4020 F   0  0  0  0  0  0  0  0  0  0  0  0
  -21.3500   -3.8520   26.0180 F   0  0  0  0  0  0  0  0  0  0  0  0
  -22.8690  -13.5930   21.1880 C   0  0  0  0  0  0  0  0  0  0  0  0
  -22.1660  -12.8880   22.0660 N   0  0  0  0  0  0  0  0  0  0  0  0
  -22.4150  -14.6310   20.7070 O   0  0  0  0  0  0  0  0  0  0  0  0
  -22.5370  -12.0520   22.4910 H   0  0  0  0  0  0  0  0  0  0  0  0
  -21.2390  -13.2010   22.3220 H   0  0  0  0  0  0  0  0  0  0  0  0
  -25.4410  -15.2680   20.2780 N   0  0  0  0  0  0  0  0  0  0  0  0
  -24.6940  -15.9210   20.4770 H   0  0  0  0  0  0  0  0  0  0  0  0
  -26.2530  -15.7180   19.8760 H   0  0  0  0  0  0  0  0  0  0  0  0
  -28.8380  -22.5490   20.2780 C   0  0  0  0  0  3  0  0  0  0  0  0
  -28.6070  -24.2780   19.6770 C   0  0  0  0  0  3  0  0  0  0  0  0
  -28.3340  -25.8250   20.2940 O   0  0  0  0  0  0  0  0  0  0  0  0
  -24.6390  -31.8070   23.1770 C   0  0  0  0  0  0  0  0  0  0  0  0
  -27.2770  -26.9010   20.1700 C   0  0  0  0  0  0  0  0  0  0  0  0
  -23.4640  -30.4030   21.5280 C   0  0  0  0  0  3  0  0  0  0  0  0
  -24.9400  -28.7890   20.1160 C   0  0  0  0  0  0  0  0  0  0  0  0
  -26.0320  -30.6060   21.4090 C   0  0  0  0  0  2  0  0  0  0  0  0
  -26.1170  -29.1900   20.7540 C   0  0  0  0  0  0  0  0  0  0  0  0
  -27.2690  -28.2690   20.7590 C   0  0  0  0  0  3  0  0  0  0  0  0
  -26.0610  -26.6540   19.4900 C   0  0  0  0  0  3  0  0  0  0  0  0
  -24.9380  -27.5360   19.4710 C   0  0  0  0  0  3  0  0  0  0  0  0
  -23.7010  -29.6950   20.1620 C   0  0  0  0  0  2  0  0  0  0  0  0
  -24.7310  -30.9710   22.0910 N   0  0  0  0  0  0  0  0  0  0  0  0
  -23.5380  -32.1010   23.6810 O   0  0  0  0  0  0  0  0  0  0  0  0
  -22.7540  -29.4180   22.4920 C   0  0  0  0  0  0  0  0  0  0  0  0
  -21.4230  -29.2770   22.3690 N   0  0  0  0  0  0  0  0  0  0  0  0
  -23.4100  -28.7780   23.3180 O   0  0  0  0  0  0  0  0  0  0  0  0
  -20.9450  -29.8410   21.6790 H   0  0  0  0  0  0  0  0  0  0  0  0
  -18.0180  -28.1340   22.8910 C   0  0  0  0  0  0  0  0  0  0  0  0
  -20.5860  -28.3420   23.1310 C   0  0  0  0  0  3  0  0  0  0  0  0
  -20.6480  -26.9190   22.5280 C   0  0  0  0  0  2  0  0  0  0  0  0
  -19.5300  -26.6400   21.5190 C   0  0  0  0  0  2  0  0  0  0  0  0
  -18.1600  -26.7980   22.1830 C   0  0  0  0  0  2  0  0  0  0  0  0
  -19.1570  -28.8670   23.3220 C   0  0  0  0  0  0  0  0  0  0  0  0
  -18.9680  -30.1200   23.9480 C   0  0  0  0  0  3  0  0  0  0  0  0
  -17.6740  -30.6360   24.1460 C   0  0  0  0  0  3  0  0  0  0  0  0
  -16.5520  -29.9020   23.7300 C   0  0  0  0  0  3  0  0  0  0  0  0
  -16.7220  -28.6520   23.1080 C   0  0  0  0  0  3  0  0  0  0  0  0
  -25.8970  -32.4500   23.8340 C   0  0  0  0  0  3  0  0  0  0  0  0
  -25.5700  -33.8510   24.1610 N   0  0  0  0  0  0  0  0  0  0  0  0
  -25.9100  -34.9130   23.4250 C   0  0  0  0  0  0  0  0  0  0  0  0
  -26.5930  -34.8210   22.3990 O   0  0  0  0  0  0  0  0  0  0  0  0
  -24.9450  -33.9920   24.9430 H   0  0  0  0  0  0  0  0  0  0  0  0
  -24.1810  -36.7190   23.0780 C   0  0  0  0  0  1  0  0  0  0  0  0
  -25.4170  -36.3000   23.8920 C   0  0  0  0  0  3  0  0  0  0  0  0
  -27.5360  -37.1940   24.7580 C   0  0  0  0  0  1  0  0  0  0  0  0
  -26.4500  -37.3550   23.7940 N   0  0  0  0  0  0  0  0  0  0  0  0
  -26.0390  -38.2750   23.9250 H   0  0  0  0  0  0  0  0  0  0  0  0
  -26.3780  -31.6880   25.1310 C   0  0  1  0  0  0  0  0  0  0  0  0
  -25.2560  -31.4620   26.1710 C   0  0  0  0  0  1  0  0  0  0  0  0
  -26.9720  -30.3060   24.7720 C   0  0  0  0  0  1  0  0  0  0  0  0
  -27.5150  -32.4840   25.8190 C   0  0  0  0  0  1  0  0  0  0  0  0
  1  2  1  0
  2 45  1  0
  2  3  1  6
  4 10  1  0
  4 16  1  0
  5 10  1  0
  6  7  1  0
  6  5  1  0
  8  7  1  0
  8 20  1  0
  8  9  1  0
 10  9  1  0
 11  4  2  0
 12 13  1  0
 14 16  1  0
 14 15  1  0
 15  2  1  0
 15 12  1  0
 16 13  1  0
 17 18  2  0
 18 37  1  0
 19 18  1  0
 19 22  1  0
 20 21  1  0
 20 17  1  0
 21 19  2  0
 22 23  1  0
 23 24  2  0
 25 28  1  0
 25 24  1  0
 26 25  2  0
 27 26  1  0
 27 22  2  0
 28 29  1  0
 29 30  1  0
 30 31  2  0
 32 31  1  0
 32 36  1  0
 33 32  2  0
 34 29  2  0
 34 33  1  0
 35 34  1  0
 37 38  1  0
 38 41  1  0
 38 40  1  0
 39 37  2  0
 42 17  1  0
 42 43  1  0
 44 42  1  0
 46 45  2  0
 46 47  1  0
 48 59  2  0
 49 47  1  0
 49 54  1  0
 50 58  1  0
 50 60  1  0
 51 57  1  0
 51 53  1  0
 52 58  1  0
 53 54  2  0
 53 52  1  0
 55 49  2  0
 56 55  1  0
 56 51  2  0
 57 50  1  0
 58 48  1  0
 60 62  2  0
 61 60  1  0
 63 61  1  0
 64 73  2  0
 64 69  1  0
 65 61  1  0
 65 69  1  0
 66 65  1  0
 67 68  1  0
 67 66  1  0
 68 64  1  0
 69 70  2  0
 70 71  1  0
 72 71  2  0
 73 72  1  0
 74 48  1  0
 74 75  1  0
 74 84  1  0
 75 78  1  0
 76 80  1  0
 76 75  1  0
 77 76  2  0
 80 79  1  0
 82 80  1  0
 82 83  1  0
 82 81  1  0
 84 87  1  1
 84 85  1  0
 86 84  1  0
M  ISO  4   4 100  16 100  46 101  47 101
M  END
>  <TORSDO>  (26) 
F 18

>  <SCORE>  (26) 
-16.661

>  <name>  (26) 
25

>  <ligand_id>  (26) 
25

>  <original_smiles>  (26) 
[H]c1c([H])c([H])c2c(c1[H])C([H])([H])C([H])([H])C([H])([H])C2([H])N([H])C(=O)C1([H])N(C(=O)C([H])(N([H])C(=O)C([H])(N([H])C([H])([H])[H])C([H])([H])[H])C(C([H])([H])[H])(C([H])([H])[H])C([H])([H])[H])C([H])([H])c2c([H])c(OC([H])([H])C([H])([H])[N+]([H])(C([H])([H])[H])C3([H])C([H])([H])N(C(=O)N4C([H])([H])C([H])([H])C([H])([H])C([H])(n5nc(-c6c([H])c([H])c(Oc7c([H])c([H])c(F)c([H])c7F)c([H])c6[H])c(C(=O)N([H])[H])c5N([H])[H])C4([H])[H])C([H])([H])C3([H])[H])c([H])c([H])c2C1([H])[H]

>  <smiles>  (26) 
[H]c1c([H])c([H])c2c(c1[H])C([H])([H])C([H])([H])C([H])([H])C2([H])N([H])C(=O)C1([H])N(C(=O)C([H])(N([H])C(=O)C([H])(N([H])C([H])([H])[H])C([H])([H])[H])C(C([H])([H])[H])(C([H])([H])[H])C([H])([H])[H])C([H])([H])c2c([H])c(OC([H])([H])C([H])([H])[N+]([H])(C([H])([H])[H])C3([H])C([H])([H])N(C(=O)N4C([H])([H])C([H])([H])C([H])([H])C([H])(n5nc(-c6c([H])c([H])c(Oc7c([H])c([H])c(F)c([H])c7F)c([H])c6[H])c(C(=O)N([H])[H])c5N([H])[H])C4([H])[H])C([H])([H])C3([H])[H])c([H])c([H])c2C1([H])[H]

$$$$
26:0:0
     RDKit          3D

103111  0  0  1  0  0  0  0  0999 V2000
  -29.6570  -19.3630   20.3040 C   0  0  0  0  0  3  0  0  0  0  0  0
  -30.0940  -22.2300   23.6580 C   0  0  0  0  0  2  0  0  0  0  0  0
  -31.3110  -21.4890   23.1430 C   0  0  0  0  0  2  0  0  0  0  0  0
  -29.5220  -22.9640   22.4650 C   0  0  0  0  0  2  0  0  0  0  0  0
  -30.8320  -20.3770   22.2170 C   0  0  0  0  0  2  0  0  0  0  0  0
  -29.1440  -22.1110   21.2190 C   0  0  0  0  0  3  0  0  0  0  0  0
  -30.0600  -20.7710   20.9910 N   0  0  2  0  0  4  0  0  0  0  0  0
  -30.7890  -21.1170   20.3830 H   0  0  0  0  0  0  0  0  0  0  0  0
  -28.7780  -23.3500   20.1190 C   0  0  0  0  0  2  0  0  0  0  0  0
  -29.5190  -25.3720   18.5830 C   0  0  0  0  0  1  0  0  0  0  0  0
  -29.2230  -25.0090   20.0480 C   0  0  0  0  0  3  0  0  0  0  0  0
  -28.7740  -26.3480   20.7240 O   0  0  0  0  0  0  0  0  0  0  0  0
  -24.7670  -31.9730   23.2330 C   0  0  0  0  0  0  0  0  0  0  0  0
  -27.6560  -27.2380   20.5020 C   0  0  0  0  0  0  0  0  0  0  0  0
  -23.6880  -30.4590   21.6110 C   0  0  0  0  0  3  0  0  0  0  0  0
  -25.2530  -28.8790   20.3070 C   0  0  0  0  0  0  0  0  0  0  0  0
  -26.2320  -30.8170   21.5330 C   0  0  0  0  0  2  0  0  0  0  0  0
  -26.3840  -29.4020   20.9440 C   0  0  0  0  0  0  0  0  0  0  0  0
  -27.5770  -28.5920   21.0290 C   0  0  0  0  0  3  0  0  0  0  0  0
  -26.4930  -26.8050   19.8310 C   0  0  0  0  0  3  0  0  0  0  0  0
  -25.3190  -27.5940   19.7400 C   0  0  0  0  0  3  0  0  0  0  0  0
  -23.9890  -29.7290   20.2710 C   0  0  0  0  0  2  0  0  0  0  0  0
  -24.9120  -31.1080   22.1810 N   0  0  0  0  0  0  0  0  0  0  0  0
  -23.6510  -32.2370   23.7060 O   0  0  0  0  0  0  0  0  0  0  0  0
  -23.0080  -29.4720   22.5910 C   0  0  0  0  0  0  0  0  0  0  0  0
  -21.6880  -29.2640   22.4370 N   0  0  0  0  0  0  0  0  0  0  0  0
  -23.6710  -28.8940   23.4550 O   0  0  0  0  0  0  0  0  0  0  0  0
  -21.2070  -29.7830   21.7160 H   0  0  0  0  0  0  0  0  0  0  0  0
  -18.3080  -28.0710   22.9650 C   0  0  0  0  0  0  0  0  0  0  0  0
  -20.8690  -28.3340   23.2190 C   0  0  0  0  0  3  0  0  0  0  0  0
  -20.9680  -26.8980   22.6560 C   0  0  0  0  0  2  0  0  0  0  0  0
  -19.8610  -26.5680   21.6490 C   0  0  0  0  0  2  0  0  0  0  0  0
  -18.4820  -26.7170   22.2980 C   0  0  0  0  0  2  0  0  0  0  0  0
  -19.4290  -28.8370   23.3840 C   0  0  0  0  0  0  0  0  0  0  0  0
  -19.2150  -30.1020   23.9720 C   0  0  0  0  0  3  0  0  0  0  0  0
  -17.9100  -30.6030   24.1460 C   0  0  0  0  0  3  0  0  0  0  0  0
  -16.8040  -29.8360   23.7420 C   0  0  0  0  0  3  0  0  0  0  0  0
  -17.0040  -28.5720   23.1570 C   0  0  0  0  0  3  0  0  0  0  0  0
  -25.9940  -32.6840   23.8800 C   0  0  0  0  0  3  0  0  0  0  0  0
  -26.5230  -31.9550   25.1780 C   0  0  1  0  0  0  0  0  0  0  0  0
  -25.4080  -31.6100   26.1950 C   0  0  0  0  0  1  0  0  0  0  0  0
  -27.2510  -30.6400   24.8160 C   0  0  0  0  0  1  0  0  0  0  0  0
  -27.5610  -32.8520   25.8940 C   0  0  0  0  0  1  0  0  0  0  0  0
  -25.5960  -34.0650   24.1960 N   0  0  0  0  0  0  0  0  0  0  0  0
  -25.8710  -35.1330   23.4360 C   0  0  0  0  0  0  0  0  0  0  0  0
  -26.5540  -35.0640   22.4090 O   0  0  0  0  0  0  0  0  0  0  0  0
  -24.9860  -34.1880   24.9910 H   0  0  0  0  0  0  0  0  0  0  0  0
  -24.0370  -36.8180   23.0770 C   0  0  0  0  0  1  0  0  0  0  0  0
  -25.3020  -36.4940   23.8850 C   0  0  0  0  0  3  0  0  0  0  0  0
  -27.3760  -37.5200   24.7080 C   0  0  0  0  0  1  0  0  0  0  0  0
  -26.2680  -37.6080   23.7610 N   0  0  0  0  0  0  0  0  0  0  0  0
  -25.8050  -38.5010   23.9030 H   0  0  0  0  0  0  0  0  0  0  0  0
  -28.1610  -19.3640   19.8770 C   0  0  0  0  0  2  0  0  0  0  0  0
  -27.8030  -19.0650   18.3860 C   0  0  0  0  0  3  0  0  0  0  0  0
  -26.2730  -19.2660   18.1530 C   0  0  0  0  0  2  0  0  0  0  0  0
  -25.7730  -20.6460   18.3400 N   0  0  0  0  0  4  0  0  0  0  0  0
  -25.8810  -20.9590   19.2880 H   0  0  0  0  0  0  0  0  0  0  0  0
  -24.7870  -20.6630   18.1420 H   0  0  0  0  0  0  0  0  0  0  0  0
  -26.2040  -21.3090   17.7210 H   0  0  0  0  0  0  0  0  0  0  0  0
  -28.6800  -19.8240   17.3380 C   0  0  0  0  0  2  0  0  0  0  0  0
  -28.6230  -19.2580   15.9720 N   0  0  0  0  0  4  0  0  0  0  0  0
  -28.9460  -18.3070   15.9520 H   0  0  0  0  0  0  0  0  0  0  0  0
  -29.2350  -19.7870   15.3740 H   0  0  0  0  0  0  0  0  0  0  0  0
  -27.7080  -19.2990   15.5630 H   0  0  0  0  0  0  0  0  0  0  0  0
  -30.2650  -17.8380   20.8790 C   0  0  0  0  0  2  0  0  0  0  0  0
  -30.6290  -15.1320   20.3480 C   0  0  0  0  0  0  0  0  0  0  0  0
  -30.4690  -12.8450   19.2460 C   0  0  0  0  0  2  0  0  0  0  0  0
  -29.5030  -12.8750   18.0400 C   0  0  0  0  0  2  0  0  0  0  0  0
  -28.0510  -12.6430   18.5000 C   0  0  0  0  0  2  0  0  0  0  0  0
  -27.6810  -13.4900   19.7460 C   0  0  0  0  0  3  0  0  0  0  0  0
  -28.7660  -13.4320   20.8380 C   0  0  0  0  0  2  0  0  0  0  0  0
  -30.0140  -13.8860   20.2130 N   0  0  0  0  0  0  0  0  0  0  0  0
  -31.8410  -15.1810   20.1150 O   0  0  0  0  0  0  0  0  0  0  0  0
  -29.8670  -16.3310   20.5360 N   0  0  0  0  0  0  0  0  0  0  0  0
  -28.8800  -16.1480   20.6070 H   0  0  0  0  0  0  0  0  0  0  0  0
  -25.3060  -14.0250   20.5210 C   0  0  0  0  0  0  0  0  0  0  0  0
  -24.2490  -13.2360   20.8740 C   0  0  0  0  0  0  0  0  0  0  0  0
  -24.7310  -11.8920   20.8270 C   0  0  0  0  0  0  0  0  0  0  0  0
  -26.3560  -13.1650   20.2600 N   0  0  0  0  0  0  0  0  0  0  0  0
  -26.0220  -11.8740   20.5130 N   0  0  0  0  0  0  0  0  0  0  0  0
  -24.0210  -10.6210   21.0080 C   0  0  0  0  0  0  0  0  0  0  0  0
  -24.4400   -9.6690   21.9630 C   0  0  0  0  0  3  0  0  0  0  0  0
  -23.7270   -8.4630   22.1310 C   0  0  0  0  0  3  0  0  0  0  0  0
  -22.5820   -8.2010   21.3430 C   0  0  0  0  0  0  0  0  0  0  0  0
  -22.1810   -9.1430   20.3790 C   0  0  0  0  0  3  0  0  0  0  0  0
  -22.8950  -10.3390   20.2090 C   0  0  0  0  0  3  0  0  0  0  0  0
  -21.8410   -7.0470   21.4180 O   0  0  0  0  0  0  0  0  0  0  0  0
  -21.7290   -6.3390   22.5880 C   0  0  0  0  0  0  0  0  0  0  0  0
  -21.1880   -6.9130   23.7580 C   0  0  0  0  0  3  0  0  0  0  0  0
  -21.0280   -6.1290   24.9180 C   0  0  0  0  0  3  0  0  0  0  0  0
  -21.3980   -4.7720   24.9080 C   0  0  0  0  0  0  0  0  0  0  0  0
  -21.9330   -4.1960   23.7410 C   0  0  0  0  0  3  0  0  0  0  0  0
  -22.0950   -4.9770   22.5840 C   0  0  0  0  0  0  0  0  0  0  0  0
  -22.5910   -4.4120   21.4570 F   0  0  0  0  0  0  0  0  0  0  0  0
  -21.2370   -4.0160   26.0190 F   0  0  0  0  0  0  0  0  0  0  0  0
  -22.8500  -13.6960   21.1600 C   0  0  0  0  0  0  0  0  0  0  0  0
  -22.1350  -12.9850   22.0230 N   0  0  0  0  0  0  0  0  0  0  0  0
  -22.4050  -14.7280   20.6580 O   0  0  0  0  0  0  0  0  0  0  0  0
  -22.5090  -12.1510   22.4500 H   0  0  0  0  0  0  0  0  0  0  0  0
  -21.1970  -13.2780   22.2600 H   0  0  0  0  0  0  0  0  0  0  0  0
  -25.4590  -15.3990   20.3890 N   0  0  0  0  0  0  0  0  0  0  0  0
  -24.6810  -15.9200   20.7760 H   0  0  0  0  0  0  0  0  0  0  0  0
  -26.3440  -15.7540   20.7180 H   0  0  0  0  0  0  0  0  0  0  0  0
  1 53  1  0
  1 65  1  0
  1  7  1  0
  3  2  1  0
  4  2  1  0
  5  3  1  0
  6  9  1  0
  6  4  1  0
  7  6  1  0
  7  5  1  0
  7  8  1  6
 11 10  1  0
 11  9  1  0
 11 12  1  0
 13 24  2  0
 14 12  1  0
 14 19  1  0
 15 23  1  0
 15 25  1  0
 16 18  1  0
 17 23  1  0
 18 19  2  0
 18 17  1  0
 20 14  2  0
 21 20  1  0
 21 16  2  0
 22 16  1  0
 22 15  1  0
 23 13  1  0
 25 27  2  0
 26 25  1  0
 28 26  1  0
 29 38  2  0
 29 34  1  0
 30 26  1  0
 30 34  1  0
 31 30  1  0
 32 33  1  0
 32 31  1  0
 33 29  1  0
 34 35  2  0
 35 36  1  0
 37 36  2  0
 38 37  1  0
 39 13  1  0
 39 44  1  0
 39 40  1  0
 40 43  1  1
 40 41  1  0
 42 40  1  0
 44 47  1  0
 45 49  1  0
 45 44  1  0
 46 45  2  0
 49 48  1  0
 51 49  1  0
 51 52  1  0
 51 50  1  0
 54 53  1  0
 55 56  1  0
 55 54  1  0
 56 57  1  0
 58 56  1  0
 59 56  1  0
 60 54  1  0
 61 60  1  0
 62 61  1  0
 63 61  1  0
 64 61  1  0
 66 74  1  0
 67 72  1  0
 68 69  1  0
 68 67  1  0
 70 69  1  0
 70 79  1  0
 70 71  1  0
 72 66  1  0
 72 71  1  0
 73 66  2  0
 74 75  1  0
 74 65  1  0
 76 77  2  0
 77 96  1  0
 78 77  1  0
 78 81  1  0
 79 80  1  0
 79 76  1  0
 80 78  2  0
 81 82  1  0
 82 83  2  0
 84 87  1  0
 84 83  1  0
 85 84  2  0
 86 85  1  0
 86 81  2  0
 87 88  1  0
 88 89  1  0
 89 90  2  0
 91 90  1  0
 91 95  1  0
 92 91  2  0
 93 88  2  0
 93 92  1  0
 94 93  1  0
 96 97  1  0
 97100  1  0
 97 99  1  0
 98 96  2  0
101 76  1  0
101103  1  0
101102  1  0
M  ISO  4  11 101  12 101  66 100  74 100
M  END
>  <TORSDO>  (27) 
F 26

>  <SCORE>  (27) 
-13.770

>  <name>  (27) 
26

>  <ligand_id>  (27) 
26

>  <original_smiles>  (27) 
[H]c1c([H])c([H])c2c(c1[H])C([H])([H])C([H])([H])C([H])([H])C2([H])N([H])C(=O)C1([H])N(C(=O)C([H])(N([H])C(=O)C([H])(N([H])C([H])([H])[H])C([H])([H])[H])C(C([H])([H])[H])(C([H])([H])[H])C([H])([H])[H])C([H])([H])c2c([H])c(OC([H])(C([H])([H])[H])C([H])([H])C3([H])C([H])([H])C([H])([H])C([H])([H])C([H])([H])[N+]3([H])C([H])(C([H])([H])N([H])C(=O)N3C([H])([H])C([H])([H])C([H])([H])C([H])(n4nc(-c5c([H])c([H])c(Oc6c([H])c([H])c(F)c([H])c6F)c([H])c5[H])c(C(=O)N([H])[H])c4N([H])[H])C3([H])[H])C([H])([H])C([H])(C([H])([H])[N+]([H])([H])[H])C([H])([H])[N+]([H])([H])[H])c([H])c([H])c2C1([H])[H]

>  <smiles>  (27) 
[H]c1c([H])c([H])c2c(c1[H])C([H])([H])C([H])([H])C([H])([H])C2([H])N([H])C(=O)C1([H])N(C(=O)C([H])(N([H])C(=O)C([H])(N([H])C([H])([H])[H])C([H])([H])[H])C(C([H])([H])[H])(C([H])([H])[H])C([H])([H])[H])C([H])([H])c2c([H])c(OC([H])(C([H])([H])[H])C([H])([H])C3([H])C([H])([H])C([H])([H])C([H])([H])C([H])([H])[N+]3([H])C([H])(C([H])([H])N([H])C(=O)N3C([H])([H])C([H])([H])C([H])([H])C([H])(n4nc(-c5c([H])c([H])c(Oc6c([H])c([H])c(F)c([H])c6F)c([H])c5[H])c(C(=O)N([H])[H])c4N([H])[H])C3([H])[H])C([H])([H])C([H])(C([H])([H])[N+]([H])([H])[H])C([H])([H])[N+]([H])([H])[H])c([H])c([H])c2C1([H])[H]

$$$$
27:0:0
     RDKit          3D

101108  0  0  1  0  0  0  0  0999 V2000
  -27.3930  -22.8900   25.9360 N   0  0  0  0  0  4  0  0  0  0  0  0
  -27.0260  -22.7400   26.8640 H   0  0  0  0  0  0  0  0  0  0  0  0
  -26.8090  -22.3830   25.2920 H   0  0  0  0  0  0  0  0  0  0  0  0
  -27.3130  -24.3240   25.5940 C   0  0  0  0  0  2  0  0  0  0  0  0
  -25.8740  -24.7580   25.2710 C   0  0  0  0  0  2  0  0  0  0  0  0
  -25.7400  -26.2170   24.7910 C   0  0  0  0  0  2  0  0  0  0  0  0
  -26.1170  -26.4690   23.3140 C   0  0  0  0  0  2  0  0  0  0  0  0
  -27.5130  -26.9300   23.1130 N   0  0  0  0  0  4  0  0  0  0  0  0
  -27.9110  -27.2810   23.9710 H   0  0  0  0  0  0  0  0  0  0  0  0
  -27.4270  -27.7210   22.4890 H   0  0  0  0  0  0  0  0  0  0  0  0
  -28.4450  -25.9970   22.4280 C   0  0  0  0  0  2  0  0  0  0  0  0
  -29.1890  -26.6710   21.2490 C   0  0  0  0  0  2  0  0  0  0  0  0
  -28.3840  -26.7100   20.0660 O   0  0  0  0  0  0  0  0  0  0  0  0
  -24.6080  -31.8730   23.2140 C   0  0  0  0  0  0  0  0  0  0  0  0
  -27.2540  -27.4920   20.0880 C   0  0  0  0  0  0  0  0  0  0  0  0
  -23.3950  -30.4930   21.5530 C   0  0  0  0  0  3  0  0  0  0  0  0
  -24.8470  -28.9630   20.1210 C   0  0  0  0  0  0  0  0  0  0  0  0
  -25.9150  -30.8630   21.3510 C   0  0  0  0  0  2  0  0  0  0  0  0
  -26.0020  -29.4960   20.7070 C   0  0  0  0  0  0  0  0  0  0  0  0
  -27.2110  -28.7750   20.6820 C   0  0  0  0  0  3  0  0  0  0  0  0
  -26.0880  -26.9680   19.4940 C   0  0  0  0  0  3  0  0  0  0  0  0
  -24.8830  -27.6960   19.5120 C   0  0  0  0  0  3  0  0  0  0  0  0
  -23.6020  -29.8180   20.1710 C   0  0  0  0  0  2  0  0  0  0  0  0
  -24.6580  -31.0870   22.1010 N   0  0  0  0  0  0  0  0  0  0  0  0
  -23.5290  -32.1440   23.7570 O   0  0  0  0  0  0  0  0  0  0  0  0
  -22.7370  -29.4680   22.5030 C   0  0  0  0  0  0  0  0  0  0  0  0
  -21.4110  -29.3030   22.3760 N   0  0  0  0  0  0  0  0  0  0  0  0
  -23.4170  -28.8220   23.3040 O   0  0  0  0  0  0  0  0  0  0  0  0
  -20.9260  -29.8760   21.6990 H   0  0  0  0  0  0  0  0  0  0  0  0
  -18.0270  -28.1380   22.8500 C   0  0  0  0  0  0  0  0  0  0  0  0
  -20.5860  -28.3650   23.1350 C   0  0  0  0  0  3  0  0  0  0  0  0
  -20.6770  -26.9390   22.5440 C   0  0  0  0  0  2  0  0  0  0  0  0
  -19.5750  -26.6390   21.5220 C   0  0  0  0  0  2  0  0  0  0  0  0
  -18.1920  -26.7930   22.1630 C   0  0  0  0  0  2  0  0  0  0  0  0
  -19.1520  -28.8830   23.2920 C   0  0  0  0  0  0  0  0  0  0  0  0
  -18.9460  -30.1440   23.8930 C   0  0  0  0  0  3  0  0  0  0  0  0
  -17.6460  -30.6590   24.0560 C   0  0  0  0  0  3  0  0  0  0  0  0
  -16.5350  -29.9100   23.6320 C   0  0  0  0  0  3  0  0  0  0  0  0
  -16.7260  -28.6510   23.0340 C   0  0  0  0  0  3  0  0  0  0  0  0
  -25.8990  -32.4860   23.8430 C   0  0  0  0  0  3  0  0  0  0  0  0
  -25.5880  -33.8650   24.2370 N   0  0  0  0  0  0  0  0  0  0  0  0
  -25.9030  -34.9490   23.5160 C   0  0  0  0  0  0  0  0  0  0  0  0
  -26.5590  -34.8920   22.4720 O   0  0  0  0  0  0  0  0  0  0  0  0
  -25.0030  -33.9830   25.0520 H   0  0  0  0  0  0  0  0  0  0  0  0
  -24.1480  -36.7330   23.2640 C   0  0  0  0  0  1  0  0  0  0  0  0
  -25.4100  -36.3130   24.0340 C   0  0  0  0  0  3  0  0  0  0  0  0
  -27.5590  -37.1810   24.8460 C   0  0  0  0  0  1  0  0  0  0  0  0
  -26.4300  -37.3810   23.9400 N   0  0  0  0  0  0  0  0  0  0  0  0
  -26.0210  -38.2890   24.1400 H   0  0  0  0  0  0  0  0  0  0  0  0
  -26.4450  -31.6610   25.0730 C   0  0  1  0  0  0  0  0  0  0  0  0
  -25.3740  -31.3680   26.1490 C   0  0  0  0  0  1  0  0  0  0  0  0
  -27.0240  -30.3070   24.6040 C   0  0  0  0  0  1  0  0  0  0  0  0
  -27.6030  -32.4310   25.7500 C   0  0  0  0  0  1  0  0  0  0  0  0
  -28.7570  -22.3290   25.8450 C   0  0  0  0  0  2  0  0  0  0  0  0
  -28.7430  -20.7920   25.8540 C   0  0  0  0  0  2  0  0  0  0  0  0
  -30.0800  -20.1960   25.3840 C   0  0  0  0  0  2  0  0  0  0  0  0
  -30.0080  -18.6720   25.1970 C   0  0  0  0  0  2  0  0  0  0  0  0
  -31.1720  -18.1620   24.4480 N   0  0  0  0  0  4  0  0  0  0  0  0
  -32.0090  -18.3190   24.9880 H   0  0  0  0  0  0  0  0  0  0  0  0
  -31.2540  -18.6880   23.5930 H   0  0  0  0  0  0  0  0  0  0  0  0
  -31.0750  -16.7310   24.1030 C   0  0  0  0  0  2  0  0  0  0  0  0
  -32.1750  -16.3120   23.1160 C   0  0  0  0  0  2  0  0  0  0  0  0
  -32.1740  -14.8050   22.8200 C   0  0  0  0  0  2  0  0  0  0  0  0
  -30.8900  -14.2020   20.7850 C   0  0  0  0  0  0  0  0  0  0  0  0
  -30.4000  -12.2820   19.3430 C   0  0  0  0  0  2  0  0  0  0  0  0
  -29.4560  -12.5450   18.1650 C   0  0  0  0  0  2  0  0  0  0  0  0
  -27.9940  -12.3820   18.6070 C   0  0  0  0  0  2  0  0  0  0  0  0
  -27.6670  -13.2070   19.8770 C   0  0  0  0  0  3  0  0  0  0  0  0
  -28.7130  -12.9710   20.9910 C   0  0  0  0  0  2  0  0  0  0  0  0
  -30.0640  -13.1910   20.4440 N   0  0  0  0  0  0  0  0  0  0  0  0
  -31.7280  -14.7020   20.0290 O   0  0  0  0  0  0  0  0  0  0  0  0
  -30.9740  -14.3530   22.1130 N   0  0  0  0  0  0  0  0  0  0  0  0
  -30.2990  -13.8250   22.6490 H   0  0  0  0  0  0  0  0  0  0  0  0
  -25.2610  -13.8170   20.5700 C   0  0  0  0  0  0  0  0  0  0  0  0
  -24.1850  -13.0450   20.9170 C   0  0  0  0  0  0  0  0  0  0  0  0
  -24.6400  -11.6910   20.8740 C   0  0  0  0  0  0  0  0  0  0  0  0
  -26.3060  -12.9350   20.3420 N   0  0  0  0  0  0  0  0  0  0  0  0
  -25.9340  -11.6510   20.5780 N   0  0  0  0  0  0  0  0  0  0  0  0
  -23.9060  -10.4300   21.0400 C   0  0  0  0  0  0  0  0  0  0  0  0
  -24.3610   -9.4210   21.9180 C   0  0  0  0  0  3  0  0  0  0  0  0
  -23.6290   -8.2250   22.0750 C   0  0  0  0  0  3  0  0  0  0  0  0
  -22.4270   -8.0280   21.3540 C   0  0  0  0  0  0  0  0  0  0  0  0
  -21.9910   -9.0260   20.4640 C   0  0  0  0  0  3  0  0  0  0  0  0
  -22.7240  -10.2140   20.3050 C   0  0  0  0  0  3  0  0  0  0  0  0
  -21.6640   -6.8880   21.4240 O   0  0  0  0  0  0  0  0  0  0  0  0
  -21.6850   -6.0730   22.5280 C   0  0  0  0  0  0  0  0  0  0  0  0
  -21.4010   -6.5640   23.8210 C   0  0  0  0  0  3  0  0  0  0  0  0
  -21.3660   -5.6790   24.9170 C   0  0  0  0  0  3  0  0  0  0  0  0
  -21.6050   -4.3050   24.7220 C   0  0  0  0  0  0  0  0  0  0  0  0
  -21.8820   -3.8150   23.4340 C   0  0  0  0  0  3  0  0  0  0  0  0
  -21.9190   -4.6960   22.3400 C   0  0  0  0  0  0  0  0  0  0  0  0
  -22.1660   -4.2150   21.0980 F   0  0  0  0  0  0  0  0  0  0  0  0
  -21.5630   -3.4540   25.7740 F   0  0  0  0  0  0  0  0  0  0  0  0
  -22.7870  -13.5240   21.1840 C   0  0  0  0  0  0  0  0  0  0  0  0
  -22.0500  -12.8230   22.0390 N   0  0  0  0  0  0  0  0  0  0  0  0
  -22.3560  -14.5560   20.6690 O   0  0  0  0  0  0  0  0  0  0  0  0
  -22.4110  -11.9890   22.4770 H   0  0  0  0  0  0  0  0  0  0  0  0
  -21.1120  -13.1260   22.2590 H   0  0  0  0  0  0  0  0  0  0  0  0
  -25.4340  -15.1890   20.4110 N   0  0  0  0  0  0  0  0  0  0  0  0
  -24.6730  -15.8500   20.5200 H   0  0  0  0  0  0  0  0  0  0  0  0
  -26.2980  -15.6250   20.1110 H   0  0  0  0  0  0  0  0  0  0  0  0
  1  2  1  0
  3  1  1  0
  4  1  1  0
  5  4  1  0
  6  5  1  0
  7  6  1  0
  8  7  1  0
  8  9  1  0
 10  8  1  0
 11  8  1  0
 12 11  1  0
 13 15  1  0
 13 12  1  0
 14 25  2  0
 15 20  1  0
 16 24  1  0
 16 26  1  0
 17 23  1  0
 17 19  1  0
 18 24  1  0
 19 18  1  0
 20 19  2  0
 21 22  1  0
 21 15  2  0
 22 17  2  0
 23 16  1  0
 24 14  1  0
 26 28  2  0
 27 26  1  0
 29 27  1  0
 30 39  2  0
 30 35  1  0
 31 27  1  0
 31 35  1  0
 32 31  1  0
 33 34  1  0
 33 32  1  0
 34 30  1  0
 35 36  2  0
 36 37  1  0
 38 37  2  0
 39 38  1  0
 40 14  1  0
 40 41  1  0
 40 50  1  0
 41 44  1  0
 42 46  1  0
 42 41  1  0
 43 42  2  0
 46 45  1  0
 48 46  1  0
 48 49  1  0
 48 47  1  0
 50 53  1  1
 50 51  1  0
 52 50  1  0
 54 55  1  0
 54  1  1  0
 56 55  1  0
 57 56  1  0
 58 59  1  0
 58 57  1  0
 60 58  1  0
 61 58  1  0
 62 61  1  0
 63 62  1  0
 64 72  1  0
 65 70  1  0
 66 67  1  0
 66 65  1  0
 68 67  1  0
 68 77  1  0
 68 69  1  0
 70 64  1  0
 70 69  1  0
 71 64  2  0
 72 73  1  0
 72 63  1  0
 74 75  2  0
 75 94  1  0
 76 75  1  0
 76 79  1  0
 77 74  1  0
 77 78  1  0
 78 76  2  0
 79 80  1  0
 80 81  2  0
 82 85  1  0
 82 81  1  0
 83 82  2  0
 84 83  1  0
 84 79  2  0
 85 86  1  0
 86 87  1  0
 87 88  2  0
 89 88  1  0
 89 93  1  0
 90 89  2  0
 91 86  2  0
 91 90  1  0
 92 91  1  0
 94 95  1  0
 95 98  1  0
 95 97  1  0
 96 94  2  0
 99100  1  0
 99 74  1  0
101 99  1  0
M  ISO  4  12 101  13 101  64 100  72 100
M  END
>  <TORSDO>  (28) 
F 31

>  <SCORE>  (28) 
12.456

>  <name>  (28) 
27

>  <ligand_id>  (28) 
27

>  <original_smiles>  (28) 
[H]c1c([H])c([H])c2c(c1[H])C([H])([H])C([H])([H])C([H])([H])C2([H])N([H])C(=O)C1([H])N(C(=O)C([H])(N([H])C(=O)C([H])(N([H])C([H])([H])[H])C([H])([H])[H])C(C([H])([H])[H])(C([H])([H])[H])C([H])([H])[H])C([H])([H])c2c([H])c(OC([H])([H])C([H])([H])[N+]([H])([H])C([H])([H])C([H])([H])C([H])([H])C([H])([H])[N+]([H])([H])C([H])([H])C([H])([H])C([H])([H])C([H])([H])[N+]([H])([H])C([H])([H])C([H])([H])C([H])([H])N([H])C(=O)N3C([H])([H])C([H])([H])C([H])([H])C([H])(n4nc(-c5c([H])c([H])c(Oc6c([H])c([H])c(F)c([H])c6F)c([H])c5[H])c(C(=O)N([H])[H])c4N([H])[H])C3([H])[H])c([H])c([H])c2C1([H])[H]

>  <smiles>  (28) 
[H]c1c([H])c([H])c2c(c1[H])C([H])([H])C([H])([H])C([H])([H])C2([H])N([H])C(=O)C1([H])N(C(=O)C([H])(N([H])C(=O)C([H])(N([H])C([H])([H])[H])C([H])([H])[H])C(C([H])([H])[H])(C([H])([H])[H])C([H])([H])[H])C([H])([H])c2c([H])c(OC([H])([H])C([H])([H])[N+]([H])([H])C([H])([H])C([H])([H])C([H])([H])C([H])([H])[N+]([H])([H])C([H])([H])C([H])([H])C([H])([H])C([H])([H])[N+]([H])([H])C([H])([H])C([H])([H])C([H])([H])N([H])C(=O)N3C([H])([H])C([H])([H])C([H])([H])C([H])(n4nc(-c5c([H])c([H])c(Oc6c([H])c([H])c(F)c([H])c6F)c([H])c5[H])c(C(=O)N([H])[H])c4N([H])[H])C3([H])[H])c([H])c([H])c2C1([H])[H]

$$$$
28:0:0
     RDKit          3D

 92100  0  0  1  0  0  0  0  0999 V2000
  -28.9460  -22.3110   19.7730 C   0  0  0  0  0  2  0  0  0  0  0  0
  -26.6450  -22.8130   18.9570 C   0  0  0  0  0  1  0  0  0  0  0  0
  -27.6250  -22.9350   20.0690 N   0  0  2  0  0  4  0  0  0  0  0  0
  -27.2300  -22.4040   20.8310 H   0  0  0  0  0  0  0  0  0  0  0  0
  -27.7290  -24.3340   20.5980 C   0  0  0  0  0  2  0  0  0  0  0  0
  -28.3950  -25.3640   19.6410 C   0  0  0  0  0  2  0  0  0  0  0  0
  -28.3680  -26.7050   20.1590 O   0  0  0  0  0  0  0  0  0  0  0  0
  -24.5440  -31.8520   23.2270 C   0  0  0  0  0  0  0  0  0  0  0  0
  -27.1840  -27.4150   20.1290 C   0  0  0  0  0  0  0  0  0  0  0  0
  -23.3410  -30.4540   21.5810 C   0  0  0  0  0  3  0  0  0  0  0  0
  -24.7910  -28.9280   20.1510 C   0  0  0  0  0  0  0  0  0  0  0  0
  -25.8700  -30.8120   21.3890 C   0  0  0  0  0  2  0  0  0  0  0  0
  -25.9500  -29.4440   20.7440 C   0  0  0  0  0  0  0  0  0  0  0  0
  -27.1470  -28.6940   20.7320 C   0  0  0  0  0  3  0  0  0  0  0  0
  -26.0020  -26.9210   19.5240 C   0  0  0  0  0  3  0  0  0  0  0  0
  -24.8120  -27.6670   19.5410 C   0  0  0  0  0  3  0  0  0  0  0  0
  -23.5500  -29.7860   20.1970 C   0  0  0  0  0  2  0  0  0  0  0  0
  -24.6040  -31.0530   22.1240 N   0  0  0  0  0  0  0  0  0  0  0  0
  -23.4620  -32.1230   23.7650 O   0  0  0  0  0  0  0  0  0  0  0  0
  -22.6900  -29.4270   22.5350 C   0  0  0  0  0  0  0  0  0  0  0  0
  -21.3650  -29.2540   22.4110 N   0  0  0  0  0  0  0  0  0  0  0  0
  -23.3720  -28.7890   23.3410 O   0  0  0  0  0  0  0  0  0  0  0  0
  -20.8810  -29.8160   21.7250 H   0  0  0  0  0  0  0  0  0  0  0  0
  -17.9800  -28.0920   22.9210 C   0  0  0  0  0  0  0  0  0  0  0  0
  -20.5420  -28.3190   23.1780 C   0  0  0  0  0  3  0  0  0  0  0  0
  -20.6290  -26.8940   22.5860 C   0  0  0  0  0  2  0  0  0  0  0  0
  -19.5160  -26.5930   21.5770 C   0  0  0  0  0  2  0  0  0  0  0  0
  -18.1380  -26.7470   22.2310 C   0  0  0  0  0  2  0  0  0  0  0  0
  -19.1110  -28.8350   23.3510 C   0  0  0  0  0  0  0  0  0  0  0  0
  -18.9100  -30.0940   23.9590 C   0  0  0  0  0  3  0  0  0  0  0  0
  -17.6140  -30.6100   24.1370 C   0  0  0  0  0  3  0  0  0  0  0  0
  -16.4970  -29.8620   23.7240 C   0  0  0  0  0  3  0  0  0  0  0  0
  -16.6820  -28.6050   23.1230 C   0  0  0  0  0  3  0  0  0  0  0  0
  -25.8290  -32.4790   23.8480 C   0  0  0  0  0  3  0  0  0  0  0  0
  -25.5220  -33.8780   24.1780 N   0  0  0  0  0  0  0  0  0  0  0  0
  -25.8580  -34.9300   23.4200 C   0  0  0  0  0  0  0  0  0  0  0  0
  -26.5340  -34.8250   22.3930 O   0  0  0  0  0  0  0  0  0  0  0  0
  -24.9260  -34.0330   24.9780 H   0  0  0  0  0  0  0  0  0  0  0  0
  -24.1430  -36.7310   23.0400 C   0  0  0  0  0  1  0  0  0  0  0  0
  -25.3700  -36.3200   23.8710 C   0  0  0  0  0  3  0  0  0  0  0  0
  -27.4950  -37.1990   24.7340 C   0  0  0  0  0  1  0  0  0  0  0  0
  -26.4090  -37.3680   23.7710 N   0  0  0  0  0  0  0  0  0  0  0  0
  -26.0060  -38.2910   23.9070 H   0  0  0  0  0  0  0  0  0  0  0  0
  -26.3440  -31.7030   25.1230 C   0  0  1  0  0  0  0  0  0  0  0  0
  -25.2480  -31.4630   26.1880 C   0  0  0  0  0  1  0  0  0  0  0  0
  -26.9300  -30.3280   24.7240 C   0  0  0  0  0  1  0  0  0  0  0  0
  -27.4910  -32.4980   25.7870 C   0  0  0  0  0  1  0  0  0  0  0  0
  -28.9510  -20.7540   19.6870 C   0  0  0  0  0  2  0  0  0  0  0  0
  -29.4650  -20.0450   20.9800 C   0  0  0  0  0  2  0  0  0  0  0  0
  -30.9700  -14.5100   20.0940 C   0  0  0  0  0  0  0  0  0  0  0  0
  -30.5300  -12.3960   18.9040 C   0  0  0  0  0  2  0  0  0  0  0  0
  -29.5180  -12.6010   17.7610 C   0  0  0  0  0  2  0  0  0  0  0  0
  -28.0710  -12.4770   18.2760 C   0  0  0  0  0  2  0  0  0  0  0  0
  -27.8200  -13.2750   19.5850 C   0  0  0  0  0  3  0  0  0  0  0  0
  -28.9470  -13.0140   20.6080 C   0  0  0  0  0  2  0  0  0  0  0  0
  -30.2050  -13.3850   19.9520 N   0  0  0  0  0  0  0  0  0  0  0  0
  -32.1420  -14.4830   19.7070 O   0  0  0  0  0  0  0  0  0  0  0  0
  -29.3770  -16.1480   21.2480 C   0  0  0  0  0  2  0  0  0  0  0  0
  -31.2170  -16.8720   19.7180 C   0  0  0  0  0  2  0  0  0  0  0  0
  -28.8140  -17.6020   21.1450 C   0  0  0  0  0  2  0  0  0  0  0  0
  -30.5620  -18.2450   19.6130 C   0  0  0  0  0  2  0  0  0  0  0  0
  -30.3830  -15.7500   20.2290 N   0  0  0  0  0  0  0  0  0  0  0  0
  -29.8630  -18.6020   20.8570 N   0  0  1  0  0  4  0  0  0  0  0  0
  -30.5370  -18.4790   21.5990 H   0  0  0  0  0  0  0  0  0  0  0  0
  -25.4710  -13.8700   20.4420 C   0  0  0  0  0  0  0  0  0  0  0  0
  -24.4220  -13.0940   20.8510 C   0  0  0  0  0  0  0  0  0  0  0  0
  -24.8720  -11.7400   20.7570 C   0  0  0  0  0  0  0  0  0  0  0  0
  -26.4980  -12.9910   20.1350 N   0  0  0  0  0  0  0  0  0  0  0  0
  -26.1430  -11.7030   20.3780 N   0  0  0  0  0  0  0  0  0  0  0  0
  -24.1480  -10.4780   20.9500 C   0  0  0  0  0  0  0  0  0  0  0  0
  -24.5760   -9.5170   21.8940 C   0  0  0  0  0  3  0  0  0  0  0  0
  -23.8530   -8.3180   22.0720 C   0  0  0  0  0  3  0  0  0  0  0  0
  -22.6870   -8.0730   21.3100 C   0  0  0  0  0  0  0  0  0  0  0  0
  -22.2790   -9.0200   20.3550 C   0  0  0  0  0  3  0  0  0  0  0  0
  -23.0020  -10.2100   20.1740 C   0  0  0  0  0  3  0  0  0  0  0  0
  -21.9340   -6.9270   21.4000 O   0  0  0  0  0  0  0  0  0  0  0  0
  -21.8200   -6.2330   22.5780 C   0  0  0  0  0  0  0  0  0  0  0  0
  -21.3130   -6.8350   23.7510 C   0  0  0  0  0  3  0  0  0  0  0  0
  -21.1490   -6.0690   24.9210 C   0  0  0  0  0  3  0  0  0  0  0  0
  -21.4760   -4.7000   24.9190 C   0  0  0  0  0  0  0  0  0  0  0  0
  -21.9740   -4.0970   23.7510 C   0  0  0  0  0  3  0  0  0  0  0  0
  -22.1430   -4.8600   22.5830 C   0  0  0  0  0  0  0  0  0  0  0  0
  -22.6040   -4.2710   21.4540 F   0  0  0  0  0  0  0  0  0  0  0  0
  -21.3110   -3.9610   26.0410 F   0  0  0  0  0  0  0  0  0  0  0  0
  -23.0440  -13.5690   21.2120 C   0  0  0  0  0  0  0  0  0  0  0  0
  -22.3620  -12.8550   22.1000 N   0  0  0  0  0  0  0  0  0  0  0  0
  -22.5840  -14.6090   20.7430 O   0  0  0  0  0  0  0  0  0  0  0  0
  -22.7500  -12.0160   22.5030 H   0  0  0  0  0  0  0  0  0  0  0  0
  -21.4360  -13.1500   22.3780 H   0  0  0  0  0  0  0  0  0  0  0  0
  -25.6300  -15.2450   20.2830 N   0  0  0  0  0  0  0  0  0  0  0  0
  -24.8430  -15.8770   20.3860 H   0  0  0  0  0  0  0  0  0  0  0  0
  -26.4190  -15.6660   19.8140 H   0  0  0  0  0  0  0  0  0  0  0  0
  1  3  1  0
  2  3  1  0
  3  5  1  0
  3  4  1  1
  6  7  1  0
  6  5  1  0
  8 19  2  0
  9  7  1  0
  9 14  1  0
 10 18  1  0
 10 20  1  0
 11 17  1  0
 11 13  1  0
 12 18  1  0
 13 12  1  0
 14 13  2  0
 15 16  1  0
 15  9  2  0
 16 11  2  0
 17 10  1  0
 18  8  1  0
 20 22  2  0
 21 20  1  0
 23 21  1  0
 24 33  2  0
 24 29  1  0
 25 21  1  0
 25 29  1  0
 26 25  1  0
 27 28  1  0
 27 26  1  0
 28 24  1  0
 29 30  2  0
 30 31  1  0
 32 31  2  0
 33 32  1  0
 34  8  1  0
 34 35  1  0
 34 44  1  0
 35 38  1  0
 36 40  1  0
 36 35  1  0
 37 36  2  0
 40 39  1  0
 42 40  1  0
 42 43  1  0
 42 41  1  0
 44 47  1  1
 44 45  1  0
 46 44  1  0
 48  1  1  0
 48 49  1  0
 50 62  1  0
 51 56  1  0
 52 53  1  0
 52 51  1  0
 54 53  1  0
 54 68  1  0
 54 55  1  0
 56 50  1  0
 56 55  1  0
 57 50  2  0
 59 62  1  0
 60 58  1  0
 61 59  1  0
 61 63  1  0
 62 58  1  0
 63 49  1  0
 63 60  1  0
 63 64  1  1
 65 66  2  0
 66 85  1  0
 67 66  1  0
 67 70  1  0
 68 69  1  0
 68 65  1  0
 69 67  2  0
 70 71  1  0
 71 72  2  0
 73 76  1  0
 73 72  1  0
 74 73  2  0
 75 74  1  0
 75 70  2  0
 76 77  1  0
 77 82  2  0
 77 78  1  0
 78 79  2  0
 80 79  1  0
 80 84  1  0
 81 80  2  0
 82 81  1  0
 83 82  1  0
 85 86  1  0
 86 89  1  0
 86 88  1  0
 87 85  2  0
 90 91  1  0
 90 65  1  0
 92 90  1  0
M  ISO  4   6 101   7 101  50 100  62 100
M  END
>  <TORSDO>  (29) 
F 21

>  <SCORE>  (29) 
-13.003

>  <name>  (29) 
28

>  <ligand_id>  (29) 
28

>  <original_smiles>  (29) 
[H]c1c([H])c([H])c2c(c1[H])C([H])([H])C([H])([H])C([H])([H])C2([H])N([H])C(=O)C1([H])N(C(=O)C([H])(N([H])C(=O)C([H])(N([H])C([H])([H])[H])C([H])([H])[H])C(C([H])([H])[H])(C([H])([H])[H])C([H])([H])[H])C([H])([H])c2c([H])c(OC([H])([H])C([H])([H])[N+]([H])(C([H])([H])[H])C([H])([H])C([H])([H])C([H])([H])[N+]3([H])C([H])([H])C([H])([H])N(C(=O)N4C([H])([H])C([H])([H])C([H])([H])C([H])(n5nc(-c6c([H])c([H])c(Oc7c([H])c([H])c(F)c([H])c7F)c([H])c6[H])c(C(=O)N([H])[H])c5N([H])[H])C4([H])[H])C([H])([H])C3([H])[H])c([H])c([H])c2C1([H])[H]

>  <smiles>  (29) 
[H]c1c([H])c([H])c2c(c1[H])C([H])([H])C([H])([H])C([H])([H])C2([H])N([H])C(=O)C1([H])N(C(=O)C([H])(N([H])C(=O)C([H])(N([H])C([H])([H])[H])C([H])([H])[H])C(C([H])([H])[H])(C([H])([H])[H])C([H])([H])[H])C([H])([H])c2c([H])c(OC([H])([H])C([H])([H])[N+]([H])(C([H])([H])[H])C([H])([H])C([H])([H])C([H])([H])[N+]3([H])C([H])([H])C([H])([H])N(C(=O)N4C([H])([H])C([H])([H])C([H])([H])C([H])(n5nc(-c6c([H])c([H])c(Oc7c([H])c([H])c(F)c([H])c7F)c([H])c6[H])c(C(=O)N([H])[H])c5N([H])[H])C4([H])[H])C([H])([H])C3([H])[H])c([H])c([H])c2C1([H])[H]

$$$$
29:0:0
     RDKit          3D

 92100  0  0  1  0  0  0  0  0999 V2000
  -29.5260  -20.0990   19.1100 N   0  0  1  0  0  4  0  0  0  0  0  0
  -29.3550  -20.3500   18.1490 H   0  0  0  0  0  0  0  0  0  0  0  0
  -31.9010  -15.5570   20.6180 C   0  0  0  0  0  0  0  0  0  0  0  0
  -31.9960  -13.0820   20.4500 C   0  0  0  0  0  2  0  0  0  0  0  0
  -31.2590  -12.5970   19.1820 C   0  0  0  0  0  2  0  0  0  0  0  0
  -29.7530  -12.4210   19.4580 C   0  0  0  0  0  2  0  0  0  0  0  0
  -29.1270  -13.6130   20.2290 C   0  0  0  0  0  3  0  0  0  0  0  0
  -30.0040  -14.0700   21.4140 C   0  0  0  0  0  2  0  0  0  0  0  0
  -31.3410  -14.3330   20.8780 N   0  0  0  0  0  0  0  0  0  0  0  0
  -33.1240  -15.6960   20.6780 O   0  0  0  0  0  0  0  0  0  0  0  0
  -30.8620  -16.9220   17.3000 C   0  0  0  0  0  2  0  0  0  0  0  0
  -30.6670  -18.4220   17.5300 C   0  0  0  0  0  2  0  0  0  0  0  0
  -31.7760  -16.3410   18.3850 C   0  0  0  0  0  2  0  0  0  0  0  0
  -30.8340  -17.8450   20.0580 C   0  0  0  0  0  2  0  0  0  0  0  0
  -30.0280  -18.6510   18.9090 C   0  0  0  0  0  3  0  0  0  0  0  0
  -31.2070  -16.3980   19.7520 N   0  0  0  0  0  0  0  0  0  0  0  0
  -26.7180  -14.2140   20.8610 C   0  0  0  0  0  0  0  0  0  0  0  0
  -25.6160  -13.4470   21.1210 C   0  0  0  0  0  0  0  0  0  0  0  0
  -26.0530  -12.0890   21.0450 C   0  0  0  0  0  0  0  0  0  0  0  0
  -27.7550  -13.3260   20.6390 N   0  0  0  0  0  0  0  0  0  0  0  0
  -27.3600  -12.0380   20.8160 N   0  0  0  0  0  0  0  0  0  0  0  0
  -25.2920  -10.8330   21.1150 C   0  0  0  0  0  0  0  0  0  0  0  0
  -25.5260   -9.8880   22.1380 C   0  0  0  0  0  3  0  0  0  0  0  0
  -24.7720   -8.6960   22.1980 C   0  0  0  0  0  3  0  0  0  0  0  0
  -23.7690   -8.4430   21.2320 C   0  0  0  0  0  0  0  0  0  0  0  0
  -23.5570   -9.3760   20.2020 C   0  0  0  0  0  3  0  0  0  0  0  0
  -24.3110  -10.5600   20.1410 C   0  0  0  0  0  3  0  0  0  0  0  0
  -23.0020   -7.3030   21.1970 O   0  0  0  0  0  0  0  0  0  0  0  0
  -22.4180   -6.7920   22.3270 C   0  0  0  0  0  0  0  0  0  0  0  0
  -21.5110   -7.5450   23.1040 C   0  0  0  0  0  3  0  0  0  0  0  0
  -20.8860   -6.9580   24.2220 C   0  0  0  0  0  3  0  0  0  0  0  0
  -21.1550   -5.6160   24.5560 C   0  0  0  0  0  0  0  0  0  0  0  0
  -22.0530   -4.8610   23.7780 C   0  0  0  0  0  3  0  0  0  0  0  0
  -22.6800   -5.4490   22.6660 C   0  0  0  0  0  0  0  0  0  0  0  0
  -23.5280   -4.7110   21.9090 F   0  0  0  0  0  0  0  0  0  0  0  0
  -20.5480   -5.0470   25.6230 F   0  0  0  0  0  0  0  0  0  0  0  0
  -24.2130  -13.9400   21.3290 C   0  0  0  0  0  0  0  0  0  0  0  0
  -23.4280  -13.2360   22.1360 N   0  0  0  0  0  0  0  0  0  0  0  0
  -23.8190  -14.9830   20.8080 O   0  0  0  0  0  0  0  0  0  0  0  0
  -23.7570  -12.3920   22.5800 H   0  0  0  0  0  0  0  0  0  0  0  0
  -22.4830  -13.5470   22.3110 H   0  0  0  0  0  0  0  0  0  0  0  0
  -26.9250  -15.5860   20.7670 N   0  0  0  0  0  0  0  0  0  0  0  0
  -26.1780  -16.2610   20.8780 H   0  0  0  0  0  0  0  0  0  0  0  0
  -27.8120  -16.0040   20.5210 H   0  0  0  0  0  0  0  0  0  0  0  0
  -28.1600  -20.1970   19.6950 C   0  0  0  0  0  2  0  0  0  0  0  0
  -25.7210  -19.3960   19.4310 C   0  0  0  0  0  1  0  0  0  0  0  0
  -27.1250  -19.4660   18.8140 C   0  0  0  0  0  2  0  0  0  0  0  0
  -30.4360  -21.2760   19.4900 C   0  0  0  0  0  3  0  0  0  0  0  0
  -29.8260  -22.7400   19.2110 C   0  0  0  0  0  3  0  0  0  0  0  0
  -30.4510  -24.0770   19.8490 C   0  0  0  0  0  3  0  0  0  0  0  0
  -29.6040  -25.4230   19.6540 C   0  0  0  0  0  3  0  0  0  0  0  0
  -29.7830  -26.6610   20.4690 O   0  0  0  0  0  0  0  0  0  0  0  0
  -25.6230  -31.0510   24.4720 C   0  0  0  0  0  0  0  0  0  0  0  0
  -28.6860  -27.5480   20.5420 C   0  0  0  0  0  0  0  0  0  0  0  0
  -24.6810  -30.2650   22.3330 C   0  0  0  0  0  3  0  0  0  0  0  0
  -26.3330  -29.1820   20.7140 C   0  0  0  0  0  0  0  0  0  0  0  0
  -27.2200  -30.5260   22.6140 C   0  0  0  0  0  2  0  0  0  0  0  0
  -27.4050  -29.4150   21.5850 C   0  0  0  0  0  0  0  0  0  0  0  0
  -28.5840  -28.6130   21.4960 C   0  0  0  0  0  3  0  0  0  0  0  0
  -27.5860  -27.3830   19.6630 C   0  0  0  0  0  3  0  0  0  0  0  0
  -26.4280  -28.1740   19.7480 C   0  0  0  0  0  3  0  0  0  0  0  0
  -25.0970  -30.0460   20.8560 C   0  0  0  0  0  2  0  0  0  0  0  0
  -25.8530  -30.6130   23.1990 N   0  0  0  0  0  0  0  0  0  0  0  0
  -24.4720  -31.1900   24.9090 O   0  0  0  0  0  0  0  0  0  0  0  0
  -23.9000  -29.0240   22.8280 C   0  0  0  0  0  0  0  0  0  0  0  0
  -22.6230  -28.9120   22.4230 N   0  0  0  0  0  0  0  0  0  0  0  0
  -24.4480  -28.1780   23.5390 O   0  0  0  0  0  0  0  0  0  0  0  0
  -22.2430  -29.6520   21.8500 H   0  0  0  0  0  0  0  0  0  0  0  0
  -19.2390  -27.7050   22.0040 C   0  0  0  0  0  0  0  0  0  0  0  0
  -21.7160  -27.8080   22.7390 C   0  0  0  0  0  3  0  0  0  0  0  0
  -21.9400  -26.6120   21.7850 C   0  0  0  0  0  2  0  0  0  0  0  0
  -21.0210  -26.6340   20.5610 C   0  0  0  0  0  2  0  0  0  0  0  0
  -19.5520  -26.6160   20.9910 C   0  0  0  0  0  2  0  0  0  0  0  0
  -20.2570  -28.2760   22.8120 C   0  0  0  0  0  0  0  0  0  0  0  0
  -19.9170  -29.3080   23.7140 C   0  0  0  0  0  3  0  0  0  0  0  0
  -18.5900  -29.7660   23.8170 C   0  0  0  0  0  3  0  0  0  0  0  0
  -17.5830  -29.1880   23.0240 C   0  0  0  0  0  3  0  0  0  0  0  0
  -17.9080  -28.1580   22.1230 C   0  0  0  0  0  3  0  0  0  0  0  0
  -26.7970  -31.4170   25.4310 C   0  0  0  0  0  3  0  0  0  0  0  0
  -26.8600  -30.5010   26.7150 C   0  0  1  0  0  0  0  0  0  0  0  0
  -25.5130  -30.3960   27.4680 C   0  0  0  0  0  1  0  0  0  0  0  0
  -27.3070  -29.0680   26.3450 C   0  0  0  0  0  1  0  0  0  0  0  0
  -27.9200  -31.0510   27.6970 C   0  0  0  0  0  1  0  0  0  0  0  0
  -26.6340  -32.8280   25.8100 N   0  0  0  0  0  0  0  0  0  0  0  0
  -27.2740  -33.8520   25.2290 C   0  0  0  0  0  0  0  0  0  0  0  0
  -28.1240  -33.6970   24.3480 O   0  0  0  0  0  0  0  0  0  0  0  0
  -25.9120  -33.0350   26.4830 H   0  0  0  0  0  0  0  0  0  0  0  0
  -25.9320  -35.9140   24.6990 C   0  0  0  0  0  1  0  0  0  0  0  0
  -26.9110  -35.2750   25.6980 C   0  0  0  0  0  3  0  0  0  0  0  0
  -28.9080  -35.7920   27.0270 C   0  0  0  0  0  1  0  0  0  0  0  0
  -28.0860  -36.1540   25.8750 N   0  0  0  0  0  0  0  0  0  0  0  0
  -27.7990  -37.1220   25.9840 H   0  0  0  0  0  0  0  0  0  0  0  0
  1 48  1  0
  1 45  1  0
  1  2  1  6
  3 10  2  0
  3  9  1  0
  4  9  1  0
  5  6  1  0
  5  4  1  0
  7  6  1  0
  7 20  1  0
  7  8  1  0
  9  8  1  0
 11 12  1  0
 11 13  1  0
 12 15  1  0
 13 16  1  0
 15  1  1  0
 15 14  1  0
 16 14  1  0
 16  3  1  0
 17 18  2  0
 18 37  1  0
 19 22  1  0
 19 18  1  0
 20 21  1  0
 20 17  1  0
 21 19  2  0
 22 23  1  0
 23 24  2  0
 25 24  1  0
 26 25  2  0
 27 26  1  0
 27 22  2  0
 28 25  1  0
 28 29  1  0
 29 34  2  0
 29 30  1  0
 30 31  2  0
 31 32  1  0
 32 36  1  0
 33 32  2  0
 34 33  1  0
 35 34  1  0
 37 38  1  0
 38 41  1  0
 38 40  1  0
 39 37  2  0
 42 17  1  0
 42 43  1  0
 44 42  1  0
 47 46  1  0
 47 45  1  0
 49 48  2  0
 49 50  1  0
 51 50  2  0
 51 52  1  0
 52 54  1  0
 53 64  2  0
 54 59  1  0
 55 65  1  0
 55 63  1  0
 56 62  1  0
 56 58  1  0
 57 63  1  0
 58 57  1  0
 59 58  2  0
 60 61  1  0
 60 54  2  0
 61 56  2  0
 62 55  1  0
 63 53  1  0
 65 67  2  0
 66 65  1  0
 68 66  1  0
 69 78  2  0
 69 74  1  0
 70 66  1  0
 70 74  1  0
 71 70  1  0
 72 73  1  0
 72 71  1  0
 73 69  1  0
 74 75  2  0
 75 76  1  0
 77 76  2  0
 78 77  1  0
 79 53  1  0
 79 84  1  0
 79 80  1  0
 80 81  1  1
 80 83  1  0
 82 80  1  0
 84 87  1  0
 85 89  1  0
 85 84  1  0
 86 85  2  0
 89 88  1  0
 89 91  1  0
 91 92  1  0
 91 90  1  0
M  ISO  4   3 100  16 100  51 101  52 101
M  END
>  <TORSDO>  (30) 
F 22

>  <SCORE>  (30) 
-7.023

>  <name>  (30) 
29

>  <ligand_id>  (30) 
29

>  <original_smiles>  (30) 
[H]c1c([H])c([H])c2c(c1[H])C([H])([H])C([H])([H])C([H])([H])C2([H])N([H])C(=O)C1([H])N(C(=O)C([H])(N([H])C(=O)C([H])(N([H])C([H])([H])[H])C([H])([H])[H])C(C([H])([H])[H])(C([H])([H])[H])C([H])([H])[H])C([H])([H])c2c([H])c(OC([H])([H])C([H])([H])C([H])([H])C([H])([H])[N+]([H])(C([H])([H])C([H])([H])C([H])([H])[H])C3([H])C([H])([H])N(C(=O)N4C([H])([H])C([H])([H])C([H])([H])C([H])(n5nc(-c6c([H])c([H])c(Oc7c([H])c([H])c(F)c([H])c7F)c([H])c6[H])c(C(=O)N([H])[H])c5N([H])[H])C4([H])[H])C([H])([H])C([H])([H])C3([H])[H])c([H])c([H])c2C1([H])[H]

>  <smiles>  (30) 
[H]c1c([H])c([H])c2c(c1[H])C([H])([H])C([H])([H])C([H])([H])C2([H])N([H])C(=O)C1([H])N(C(=O)C([H])(N([H])C(=O)C([H])(N([H])C([H])([H])[H])C([H])([H])[H])C(C([H])([H])[H])(C([H])([H])[H])C([H])([H])[H])C([H])([H])c2c([H])c(OC([H])([H])C([H])([H])C([H])([H])C([H])([H])[N+]([H])(C([H])([H])C([H])([H])C([H])([H])[H])C3([H])C([H])([H])N(C(=O)N4C([H])([H])C([H])([H])C([H])([H])C([H])(n5nc(-c6c([H])c([H])c(Oc7c([H])c([H])c(F)c([H])c7F)c([H])c6[H])c(C(=O)N([H])[H])c5N([H])[H])C4([H])[H])C([H])([H])C([H])([H])C3([H])[H])c([H])c([H])c2C1([H])[H]

$$$$
30:0:0
     RDKit          3D

 91100  0  0  1  0  0  0  0  0999 V2000
  -31.2410  -20.2970   17.1990 C   0  0  0  0  0  3  0  0  0  0  0  0
  -31.1020  -21.6750   17.2520 C   0  0  0  0  0  3  0  0  0  0  0  0
  -30.6340  -19.4890   18.1690 C   0  0  0  0  0  3  0  0  0  0  0  0
  -30.2750  -22.2510   18.2170 C   0  0  0  0  0  3  0  0  0  0  0  0
  -29.9440  -19.9730   19.3160 C   0  0  0  0  0  0  0  0  0  0  0  0
  -29.6470  -21.5640   19.2990 C   0  0  0  0  0  0  0  0  0  0  0  0
  -30.4660  -15.5100   20.1080 C   0  0  0  0  0  0  0  0  0  0  0  0
  -30.4760  -13.0100   19.2640 C   0  0  0  0  0  2  0  0  0  0  0  0
  -29.5530  -12.7010   18.0560 C   0  0  0  0  0  2  0  0  0  0  0  0
  -28.1070  -12.3930   18.4980 C   0  0  0  0  0  2  0  0  0  0  0  0
  -27.6450  -13.3340   19.6310 C   0  0  0  0  0  3  0  0  0  0  0  0
  -28.7230  -13.5670   20.7190 C   0  0  0  0  0  2  0  0  0  0  0  0
  -29.8940  -14.1780   20.0340 N   0  0  0  0  0  0  0  0  0  0  0  0
  -31.7120  -15.4310   20.0870 O   0  0  0  0  0  0  0  0  0  0  0  0
  -27.5900  -18.0760   20.2120 C   0  0  0  0  0  2  0  0  0  0  0  0
  -28.5960  -18.7440   21.1210 C   0  0  0  0  0  2  0  0  0  0  0  0
  -28.3090  -16.8120   19.6870 C   0  0  0  0  0  2  0  0  0  0  0  0
  -29.8620  -18.5400   20.3190 C   0  0  0  0  0  3  0  0  0  0  0  0
  -29.7470  -16.8590   19.9920 N   0  0  0  0  0  0  0  0  0  0  0  0
  -25.2710  -13.8740   20.4030 C   0  0  0  0  0  0  0  0  0  0  0  0
  -24.2160  -13.0950   20.7700 C   0  0  0  0  0  0  0  0  0  0  0  0
  -24.7010  -11.7520   20.7670 C   0  0  0  0  0  0  0  0  0  0  0  0
  -26.3270  -13.0110   20.1670 N   0  0  0  0  0  0  0  0  0  0  0  0
  -25.9970  -11.7270   20.4610 N   0  0  0  0  0  0  0  0  0  0  0  0
  -23.9890  -10.4890   20.9770 C   0  0  0  0  0  0  0  0  0  0  0  0
  -24.4160   -9.5440   21.9390 C   0  0  0  0  0  3  0  0  0  0  0  0
  -23.6920   -8.3470   22.1300 C   0  0  0  0  0  3  0  0  0  0  0  0
  -22.5300   -8.0870   21.3690 C   0  0  0  0  0  0  0  0  0  0  0  0
  -22.1250   -9.0190   20.4010 C   0  0  0  0  0  3  0  0  0  0  0  0
  -22.8460  -10.2080   20.2010 C   0  0  0  0  0  3  0  0  0  0  0  0
  -21.7750   -6.9440   21.4700 O   0  0  0  0  0  0  0  0  0  0  0  0
  -21.7200   -6.2180   22.6330 C   0  0  0  0  0  0  0  0  0  0  0  0
  -21.2790   -6.7920   23.8440 C   0  0  0  0  0  3  0  0  0  0  0  0
  -21.1820   -5.9980   25.0060 C   0  0  0  0  0  3  0  0  0  0  0  0
  -21.5080   -4.6280   24.9550 C   0  0  0  0  0  0  0  0  0  0  0  0
  -21.9390   -4.0540   23.7460 C   0  0  0  0  0  3  0  0  0  0  0  0
  -22.0440   -4.8470   22.5900 C   0  0  0  0  0  0  0  0  0  0  0  0
  -22.4430   -4.2830   21.4240 F   0  0  0  0  0  0  0  0  0  0  0  0
  -21.3960   -3.8650   26.0670 F   0  0  0  0  0  0  0  0  0  0  0  0
  -22.8100  -13.5620   21.0120 C   0  0  0  0  0  0  0  0  0  0  0  0
  -22.0770  -12.8780   21.8800 N   0  0  0  0  0  0  0  0  0  0  0  0
  -22.3750  -14.5780   20.4680 O   0  0  0  0  0  0  0  0  0  0  0  0
  -22.4350  -12.0510   22.3350 H   0  0  0  0  0  0  0  0  0  0  0  0
  -21.1370  -13.1840   22.0920 H   0  0  0  0  0  0  0  0  0  0  0  0
  -25.4040  -15.2470   20.2260 N   0  0  0  0  0  0  0  0  0  0  0  0
  -24.6460  -15.8770   20.4520 H   0  0  0  0  0  0  0  0  0  0  0  0
  -26.2810  -15.7120   20.0340 H   0  0  0  0  0  0  0  0  0  0  0  0
  -28.9820  -22.9320   20.1760 C   0  0  0  0  0  2  0  0  0  0  0  0
  -28.1560  -24.2490   19.5970 N   0  0  0  0  0  0  0  0  0  0  0  0
  -28.2030  -24.2510   18.5800 H   0  0  0  0  0  0  0  0  0  0  0  0
  -28.3550  -25.8810   20.0850 O   0  0  0  0  0  0  0  0  0  0  0  0
  -24.7040  -31.8250   23.1190 C   0  0  0  0  0  0  0  0  0  0  0  0
  -27.2920  -26.9460   20.0390 C   0  0  0  0  0  0  0  0  0  0  0  0
  -23.5040  -30.4160   21.4940 C   0  0  0  0  0  3  0  0  0  0  0  0
  -24.9510  -28.8050   20.0600 C   0  0  0  0  0  0  0  0  0  0  0  0
  -26.0690  -30.6340   21.3240 C   0  0  0  0  0  2  0  0  0  0  0  0
  -26.1440  -29.2210   20.6600 C   0  0  0  0  0  0  0  0  0  0  0  0
  -27.2990  -28.3110   20.6280 C   0  0  0  0  0  3  0  0  0  0  0  0
  -26.0540  -26.6790   19.4080 C   0  0  0  0  0  3  0  0  0  0  0  0
  -24.9270  -27.5500   19.4230 C   0  0  0  0  0  3  0  0  0  0  0  0
  -23.7230  -29.7210   20.1220 C   0  0  0  0  0  2  0  0  0  0  0  0
  -24.7820  -30.9840   22.0350 N   0  0  0  0  0  0  0  0  0  0  0  0
  -23.6160  -32.1180   23.6410 O   0  0  0  0  0  0  0  0  0  0  0  0
  -22.8160  -29.4280   22.4720 C   0  0  0  0  0  0  0  0  0  0  0  0
  -21.4850  -29.2710   22.3630 N   0  0  0  0  0  0  0  0  0  0  0  0
  -23.4890  -28.8000   23.2940 O   0  0  0  0  0  0  0  0  0  0  0  0
  -20.9970  -29.8210   21.6720 H   0  0  0  0  0  0  0  0  0  0  0  0
  -18.1040  -28.0750   22.9200 C   0  0  0  0  0  0  0  0  0  0  0  0
  -20.6710  -28.3290   23.1400 C   0  0  0  0  0  3  0  0  0  0  0  0
  -20.7550  -26.9020   22.5530 C   0  0  0  0  0  2  0  0  0  0  0  0
  -19.6350  -26.5900   21.5560 C   0  0  0  0  0  2  0  0  0  0  0  0
  -18.2660  -26.7320   22.2250 C   0  0  0  0  0  2  0  0  0  0  0  0
  -19.2340  -28.8310   23.3340 C   0  0  0  0  0  0  0  0  0  0  0  0
  -19.0290  -30.0870   23.9450 C   0  0  0  0  0  3  0  0  0  0  0  0
  -17.7300  -30.5860   24.1490 C   0  0  0  0  0  3  0  0  0  0  0  0
  -16.6150  -29.8280   23.7500 C   0  0  0  0  0  3  0  0  0  0  0  0
  -16.8040  -28.5740   23.1400 C   0  0  0  0  0  3  0  0  0  0  0  0
  -25.9720  -32.4750   23.7490 C   0  0  0  0  0  3  0  0  0  0  0  0
  -25.6420  -33.8690   24.1000 N   0  0  0  0  0  0  0  0  0  0  0  0
  -25.9610  -34.9430   23.3670 C   0  0  0  0  0  0  0  0  0  0  0  0
  -26.6270  -34.8670   22.3330 O   0  0  0  0  0  0  0  0  0  0  0  0
  -25.0420  -33.9990   24.9020 H   0  0  0  0  0  0  0  0  0  0  0  0
  -24.2200  -36.7430   23.0660 C   0  0  0  0  0  1  0  0  0  0  0  0
  -25.4660  -36.3200   23.8610 C   0  0  0  0  0  3  0  0  0  0  0  0
  -27.5960  -37.2050   24.7060 C   0  0  0  0  0  1  0  0  0  0  0  0
  -26.4900  -37.3840   23.7690 N   0  0  0  0  0  0  0  0  0  0  0  0
  -26.0770  -38.2980   23.9340 H   0  0  0  0  0  0  0  0  0  0  0  0
  -26.4950  -31.7060   25.0270 C   0  0  1  0  0  0  0  0  0  0  0  0
  -25.4100  -31.4600   26.1030 C   0  0  0  0  0  1  0  0  0  0  0  0
  -27.0860  -30.3330   24.6380 C   0  0  0  0  0  1  0  0  0  0  0  0
  -27.6370  -32.5080   25.6920 C   0  0  0  0  0  1  0  0  0  0  0  0
  1  2  2  0
  1  3  1  0
  2  4  1  0
  3  5  2  0
  4  6  2  0
  6  5  1  0
  6 48  1  0
  8 13  1  0
  9 10  1  0
  9  8  1  0
 11 10  1  0
 11 23  1  0
 11 12  1  0
 13  7  1  0
 13 12  1  0
 14  7  2  0
 15 16  1  0
 17 19  1  0
 17 15  1  0
 18  5  1  0
 18 16  1  0
 19  7  1  0
 19 18  1  0
 20 21  2  0
 21 40  1  0
 22 21  1  0
 22 25  1  0
 23 20  1  0
 23 24  1  0
 24 22  2  0
 25 26  1  0
 26 27  2  0
 28 31  1  0
 28 27  1  0
 29 28  2  0
 30 29  1  0
 30 25  2  0
 31 32  1  0
 32 33  1  0
 33 34  2  0
 35 34  1  0
 35 39  1  0
 36 35  2  0
 37 32  2  0
 37 36  1  0
 38 37  1  0
 40 41  1  0
 41 44  1  0
 41 43  1  0
 42 40  2  0
 45 20  1  0
 45 46  1  0
 47 45  1  0
 49 51  1  0
 49 48  1  0
 50 49  1  0
 52 63  2  0
 53 51  1  0
 53 58  1  0
 54 62  1  0
 54 64  1  0
 55 61  1  0
 55 57  1  0
 56 62  1  0
 57 56  1  0
 58 57  2  0
 59 60  1  0
 59 53  2  0
 60 55  2  0
 61 54  1  0
 62 52  1  0
 64 66  2  0
 65 64  1  0
 67 65  1  0
 68 77  2  0
 68 73  1  0
 69 65  1  0
 69 73  1  0
 70 69  1  0
 71 72  1  0
 71 70  1  0
 72 68  1  0
 73 74  2  0
 74 75  1  0
 76 75  2  0
 77 76  1  0
 78 52  1  0
 78 79  1  0
 78 88  1  0
 79 82  1  0
 80 84  1  0
 80 79  1  0
 81 80  2  0
 84 83  1  0
 86 84  1  0
 86 87  1  0
 86 85  1  0
 88 91  1  1
 88 89  1  0
 90 88  1  0
M  ISO  4   7 100  19 100  49 101  51 101
M  END
>  <TORSDO>  (31) 
F 18

>  <SCORE>  (31) 
-16.187

>  <name>  (31) 
30

>  <ligand_id>  (31) 
30

>  <original_smiles>  (31) 
[H]c1c([H])c([H])c(C2([H])N(C(=O)N3C([H])([H])C([H])([H])C([H])([H])C([H])(n4nc(-c5c([H])c([H])c(Oc6c([H])c([H])c(F)c([H])c6F)c([H])c5[H])c(C(=O)N([H])[H])c4N([H])[H])C3([H])[H])C([H])([H])C([H])([H])C2([H])[H])c(C([H])([H])N([H])Oc2c([H])c([H])c3c(c2[H])C([H])([H])N(C(=O)C([H])(N([H])C(=O)C([H])(N([H])C([H])([H])[H])C([H])([H])[H])C(C([H])([H])[H])(C([H])([H])[H])C([H])([H])[H])C([H])(C(=O)N([H])C2([H])c4c([H])c([H])c([H])c([H])c4C([H])([H])C([H])([H])C2([H])[H])C3([H])[H])c1[H]

>  <smiles>  (31) 
[H]c1c([H])c([H])c(C2([H])N(C(=O)N3C([H])([H])C([H])([H])C([H])([H])C([H])(n4nc(-c5c([H])c([H])c(Oc6c([H])c([H])c(F)c([H])c6F)c([H])c5[H])c(C(=O)N([H])[H])c4N([H])[H])C3([H])[H])C([H])([H])C([H])([H])C2([H])[H])c(C([H])([H])N([H])Oc2c([H])c([H])c3c(c2[H])C([H])([H])N(C(=O)C([H])(N([H])C(=O)C([H])(N([H])C([H])([H])[H])C([H])([H])[H])C(C([H])([H])[H])(C([H])([H])[H])C([H])([H])[H])C([H])(C(=O)N([H])C2([H])c4c([H])c([H])c([H])c([H])c4C([H])([H])C([H])([H])C2([H])[H])C3([H])[H])c1[H]

$$$$
31:0:0
     RDKit          3D

 99107  0  0  1  0  0  0  0  0999 V2000
  -31.2090  -17.5050   19.2360 C   0  0  0  0  0  0  0  0  0  0  0  0
  -32.0050  -19.0890   20.9730 C   0  0  0  0  0  2  0  0  0  0  0  0
  -30.9450  -20.2160   21.0200 C   0  0  0  0  0  2  0  0  0  0  0  0
  -29.1840  -18.4640   20.7490 C   0  0  0  0  0  3  0  0  0  0  0  0
  -29.9590  -17.1970   20.0930 C   0  0  0  0  0  0  0  0  0  0  0  0
  -32.1090  -18.4270   19.6580 N   0  0  0  0  0  0  0  0  0  0  0  0
  -29.6520  -19.8800   20.3620 N   0  0  1  0  0  4  0  0  0  0  0  0
  -31.2950  -16.9520   18.1350 O   0  0  0  0  0  0  0  0  0  0  0  0
  -29.8690  -19.8150   19.3780 H   0  0  0  0  0  0  0  0  0  0  0  0
  -30.5860  -14.6620   20.4250 C   0  0  0  0  0  0  0  0  0  0  0  0
  -30.3570  -12.4150   19.3910 C   0  0  0  0  0  2  0  0  0  0  0  0
  -29.4530  -12.5600   18.1480 C   0  0  0  0  0  2  0  0  0  0  0  0
  -27.9630  -12.4390   18.5340 C   0  0  0  0  0  2  0  0  0  0  0  0
  -27.5900  -13.2830   19.7840 C   0  0  0  0  0  3  0  0  0  0  0  0
  -28.6270  -13.1240   20.9160 C   0  0  0  0  0  2  0  0  0  0  0  0
  -29.9440  -13.4500   20.3590 N   0  0  0  0  0  0  0  0  0  0  0  0
  -31.7680  -14.7500   20.0900 O   0  0  0  0  0  0  0  0  0  0  0  0
  -29.8140  -15.7830   20.6630 N   0  0  0  0  0  0  0  0  0  0  0  0
  -28.8950  -15.5650   21.0190 H   0  0  0  0  0  0  0  0  0  0  0  0
  -25.1880  -13.8780   20.4680 C   0  0  0  0  0  0  0  0  0  0  0  0
  -24.1190  -13.1110   20.8380 C   0  0  0  0  0  0  0  0  0  0  0  0
  -24.5820  -11.7580   20.8250 C   0  0  0  0  0  0  0  0  0  0  0  0
  -26.2370  -12.9980   20.2500 N   0  0  0  0  0  0  0  0  0  0  0  0
  -25.8750  -11.7180   20.5260 N   0  0  0  0  0  0  0  0  0  0  0  0
  -23.8550  -10.4960   21.0160 C   0  0  0  0  0  0  0  0  0  0  0  0
  -24.2760   -9.5360   21.9620 C   0  0  0  0  0  3  0  0  0  0  0  0
  -23.5490   -8.3400   22.1420 C   0  0  0  0  0  3  0  0  0  0  0  0
  -22.3860   -8.0940   21.3760 C   0  0  0  0  0  0  0  0  0  0  0  0
  -21.9850   -9.0410   20.4180 C   0  0  0  0  0  3  0  0  0  0  0  0
  -22.7120  -10.2290   20.2350 C   0  0  0  0  0  3  0  0  0  0  0  0
  -21.6310   -6.9490   21.4650 O   0  0  0  0  0  0  0  0  0  0  0  0
  -21.5660   -6.2160   22.6240 C   0  0  0  0  0  0  0  0  0  0  0  0
  -21.1170   -6.7810   23.8380 C   0  0  0  0  0  3  0  0  0  0  0  0
  -21.0020   -5.9750   24.9880 C   0  0  0  0  0  3  0  0  0  0  0  0
  -21.3210   -4.6060   24.9250 C   0  0  0  0  0  0  0  0  0  0  0  0
  -21.7630   -4.0410   23.7160 C   0  0  0  0  0  3  0  0  0  0  0  0
  -21.8820   -4.8440   22.5690 C   0  0  0  0  0  0  0  0  0  0  0  0
  -22.2860   -4.2910   21.3990 F   0  0  0  0  0  0  0  0  0  0  0  0
  -21.2050   -3.8280   26.0270 F   0  0  0  0  0  0  0  0  0  0  0  0
  -22.7160  -13.5870   21.0890 C   0  0  0  0  0  0  0  0  0  0  0  0
  -21.9750  -12.8970   21.9470 N   0  0  0  0  0  0  0  0  0  0  0  0
  -22.2880  -14.6110   20.5570 O   0  0  0  0  0  0  0  0  0  0  0  0
  -22.3300  -12.0720   22.4080 H   0  0  0  0  0  0  0  0  0  0  0  0
  -21.0330  -13.1990   22.1510 H   0  0  0  0  0  0  0  0  0  0  0  0
  -25.3560  -15.2490   20.2730 N   0  0  0  0  0  0  0  0  0  0  0  0
  -24.5870  -15.9040   20.3500 H   0  0  0  0  0  0  0  0  0  0  0  0
  -26.1810  -15.6610   19.8590 H   0  0  0  0  0  0  0  0  0  0  0  0
  -33.0760  -19.0000   18.7020 C   0  0  0  0  0  2  0  0  0  0  0  0
  -34.5430  -19.1050   19.1780 C   0  0  0  0  0  2  0  0  0  0  0  0
  -35.0350  -20.5660   19.2350 C   0  0  0  0  0  2  0  0  0  0  0  0
  -35.0190  -21.2210   17.9110 N   0  0  0  0  0  4  0  0  0  0  0  0
  -35.5950  -20.7230   17.2570 H   0  0  0  0  0  0  0  0  0  0  0  0
  -35.3710  -22.1590   17.9850 H   0  0  0  0  0  0  0  0  0  0  0  0
  -34.0870  -21.2740   17.5420 H   0  0  0  0  0  0  0  0  0  0  0  0
  -28.6160  -21.0260   20.3530 C   0  0  0  0  0  2  0  0  0  0  0  0
  -28.9770  -22.5260   20.8570 C   0  0  0  0  0  2  0  0  0  0  0  0
  -28.4850  -23.8410   20.0740 C   0  0  0  0  0  2  0  0  0  0  0  0
  -28.3540  -25.1960   20.9210 C   0  0  0  0  0  2  0  0  0  0  0  0
  -28.4480  -26.5330   20.3000 O   0  0  0  0  0  0  0  0  0  0  0  0
  -24.6070  -31.8840   23.2700 C   0  0  0  0  0  0  0  0  0  0  0  0
  -27.3130  -27.3480   20.3020 C   0  0  0  0  0  0  0  0  0  0  0  0
  -23.4420  -30.4660   21.6160 C   0  0  0  0  0  3  0  0  0  0  0  0
  -24.9310  -28.9130   20.2370 C   0  0  0  0  0  0  0  0  0  0  0  0
  -25.9760  -30.8120   21.4760 C   0  0  0  0  0  2  0  0  0  0  0  0
  -26.0830  -29.4300   20.8430 C   0  0  0  0  0  0  0  0  0  0  0  0
  -27.2820  -28.6580   20.8660 C   0  0  0  0  0  3  0  0  0  0  0  0
  -26.1410  -26.8680   19.6850 C   0  0  0  0  0  3  0  0  0  0  0  0
  -24.9600  -27.6360   19.6510 C   0  0  0  0  0  3  0  0  0  0  0  0
  -23.6880  -29.7760   20.2470 C   0  0  0  0  0  2  0  0  0  0  0  0
  -24.6920  -31.0720   22.1780 N   0  0  0  0  0  0  0  0  0  0  0  0
  -23.5130  -32.1520   23.7880 O   0  0  0  0  0  0  0  0  0  0  0  0
  -22.7690  -29.4520   22.5720 C   0  0  0  0  0  0  0  0  0  0  0  0
  -21.4440  -29.2700   22.4270 N   0  0  0  0  0  0  0  0  0  0  0  0
  -23.4370  -28.8290   23.4020 O   0  0  0  0  0  0  0  0  0  0  0  0
  -20.9610  -29.8280   21.7360 H   0  0  0  0  0  0  0  0  0  0  0  0
  -18.0610  -28.0780   22.8870 C   0  0  0  0  0  0  0  0  0  0  0  0
  -20.6170  -28.3330   23.1890 C   0  0  0  0  0  3  0  0  0  0  0  0
  -20.7250  -26.9010   22.6190 C   0  0  0  0  0  2  0  0  0  0  0  0
  -19.6360  -26.5770   21.5900 C   0  0  0  0  0  2  0  0  0  0  0  0
  -18.2460  -26.7270   22.2170 C   0  0  0  0  0  2  0  0  0  0  0  0
  -19.1770  -28.8390   23.3300 C   0  0  0  0  0  0  0  0  0  0  0  0
  -18.9550  -30.1030   23.9180 C   0  0  0  0  0  3  0  0  0  0  0  0
  -17.6500  -30.6080   24.0700 C   0  0  0  0  0  3  0  0  0  0  0  0
  -16.5490  -29.8450   23.6470 C   0  0  0  0  0  3  0  0  0  0  0  0
  -16.7550  -28.5830   23.0600 C   0  0  0  0  0  3  0  0  0  0  0  0
  -25.8730  -32.5310   23.9130 C   0  0  0  0  0  3  0  0  0  0  0  0
  -26.3600  -31.7860   25.2180 C   0  0  1  0  0  0  0  0  0  0  0  0
  -25.2460  -31.5680   26.2670 C   0  0  0  0  0  1  0  0  0  0  0  0
  -26.9580  -30.4040   24.8660 C   0  0  0  0  0  1  0  0  0  0  0  0
  -27.4910  -32.5970   25.8960 C   0  0  0  0  0  1  0  0  0  0  0  0
  -25.5530  -33.9340   24.2130 N   0  0  0  0  0  0  0  0  0  0  0  0
  -25.9010  -34.9750   23.4460 C   0  0  0  0  0  0  0  0  0  0  0  0
  -26.5930  -34.8550   22.4310 O   0  0  0  0  0  0  0  0  0  0  0  0
  -24.9480  -34.1030   25.0030 H   0  0  0  0  0  0  0  0  0  0  0  0
  -24.1810  -36.7600   23.0200 C   0  0  0  0  0  1  0  0  0  0  0  0
  -25.3990  -36.3700   23.8700 C   0  0  0  0  0  3  0  0  0  0  0  0
  -27.5050  -37.2690   24.7480 C   0  0  0  0  0  1  0  0  0  0  0  0
  -26.4290  -37.4250   23.7710 N   0  0  0  0  0  0  0  0  0  0  0  0
  -26.0160  -38.3440   23.9010 H   0  0  0  0  0  0  0  0  0  0  0  0
  1  6  1  0
  1  5  1  0
  2  3  1  0
  5 18  1  0
  5  4  2  0
  6  2  1  0
  7  4  1  0
  7  3  1  0
  8  1  2  0
  7  9  1  6
 10 18  1  0
 11 16  1  0
 12 13  1  0
 12 11  1  0
 14 13  1  0
 14 23  1  0
 14 15  1  0
 16 10  1  0
 16 15  1  0
 17 10  2  0
 18 19  1  0
 20 21  2  0
 21 40  1  0
 22 21  1  0
 22 25  1  0
 23 20  1  0
 23 24  1  0
 24 22  2  0
 25 26  1  0
 26 27  2  0
 28 31  1  0
 28 27  1  0
 29 28  2  0
 30 29  1  0
 30 25  2  0
 31 32  1  0
 32 33  1  0
 33 34  2  0
 35 34  1  0
 35 39  1  0
 36 35  2  0
 37 32  2  0
 37 36  1  0
 38 37  1  0
 40 41  1  0
 41 44  1  0
 41 43  1  0
 42 40  2  0
 45 46  1  0
 45 20  1  0
 47 45  1  0
 48 49  1  0
 48  6  1  0
 49 50  1  0
 51 53  1  0
 51 50  1  0
 52 51  1  0
 54 51  1  0
 55  7  1  0
 55 56  1  0
 57 56  1  0
 57 58  1  0
 59 61  1  0
 59 58  1  0
 60 71  2  0
 61 66  1  0
 62 70  1  0
 62 72  1  0
 63 69  1  0
 63 65  1  0
 64 70  1  0
 65 66  2  0
 65 64  1  0
 67 61  2  0
 68 67  1  0
 68 63  2  0
 69 62  1  0
 70 60  1  0
 72 74  2  0
 73 72  1  0
 75 73  1  0
 76 85  2  0
 76 81  1  0
 77 73  1  0
 77 81  1  0
 78 77  1  0
 79 80  1  0
 79 78  1  0
 80 76  1  0
 81 82  2  0
 82 83  1  0
 84 83  2  0
 85 84  1  0
 86 60  1  0
 86 91  1  0
 86 87  1  0
 87 90  1  1
 87 88  1  0
 89 87  1  0
 91 94  1  0
 92 96  1  0
 92 91  1  0
 93 92  2  0
 96 95  1  0
 98 96  1  0
 98 99  1  0
 98 97  1  0
M  ISO  4  10 100  18 100  58 101  59 101
M  END
>  <TORSDO>  (32) 
F 24

>  <SCORE>  (32) 
-12.812

>  <name>  (32) 
31

>  <ligand_id>  (32) 
31

>  <original_smiles>  (32) 
[H]c1c([H])c([H])c2c(c1[H])C([H])([H])C([H])([H])C([H])([H])C2([H])N([H])C(=O)C1([H])N(C(=O)C([H])(N([H])C(=O)C([H])(N([H])C([H])([H])[H])C([H])([H])[H])C(C([H])([H])[H])(C([H])([H])[H])C([H])([H])[H])C([H])([H])c2c([H])c(OC([H])([H])C([H])([H])C([H])([H])C([H])([H])[N+]3([H])C([H])([H])C([H])([H])N(C([H])([H])C([H])([H])C([H])([H])[N+]([H])([H])[H])C(=O)C([H])(N([H])C(=O)N4C([H])([H])C([H])([H])C([H])([H])C([H])(n5nc(-c6c([H])c([H])c(Oc7c([H])c([H])c(F)c([H])c7F)c([H])c6[H])c(C(=O)N([H])[H])c5N([H])[H])C4([H])[H])C3([H])[H])c([H])c([H])c2C1([H])[H]

>  <smiles>  (32) 
[H]c1c([H])c([H])c2c(c1[H])C([H])([H])C([H])([H])C([H])([H])C2([H])N([H])C(=O)C1([H])N(C(=O)C([H])(N([H])C(=O)C([H])(N([H])C([H])([H])[H])C([H])([H])[H])C(C([H])([H])[H])(C([H])([H])[H])C([H])([H])[H])C([H])([H])c2c([H])c(OC([H])([H])C([H])([H])C([H])([H])C([H])([H])[N+]3([H])C([H])([H])C([H])([H])N(C([H])([H])C([H])([H])C([H])([H])[N+]([H])([H])[H])C(=O)C([H])(N([H])C(=O)N4C([H])([H])C([H])([H])C([H])([H])C([H])(n5nc(-c6c([H])c([H])c(Oc7c([H])c([H])c(F)c([H])c7F)c([H])c6[H])c(C(=O)N([H])[H])c5N([H])[H])C4([H])[H])C3([H])[H])c([H])c([H])c2C1([H])[H]

$$$$
32:0:0
     RDKit          3D

108115  0  0  1  0  0  0  0  0999 V2000
  -25.2650  -28.1710   17.9530 C   0  0  0  0  0  2  0  0  0  0  0  0
  -24.9250  -28.0850   19.4730 C   0  0  0  0  0  2  0  0  0  0  0  0
  -25.6310  -27.0180   20.2280 N   0  0  0  0  0  4  0  0  0  0  0  0
  -25.0580  -26.1900   20.1920 H   0  0  0  0  0  0  0  0  0  0  0  0
  -26.4820  -26.7930   19.7310 H   0  0  0  0  0  0  0  0  0  0  0  0
  -25.9750  -27.2840   21.6470 C   0  0  0  0  0  2  0  0  0  0  0  0
  -26.9240  -28.4920   21.7340 C   0  0  0  0  0  2  0  0  0  0  0  0
  -28.4030  -28.1750   22.0490 C   0  0  0  0  0  2  0  0  0  0  0  0
  -28.5090  -26.7440   22.6140 C   0  0  0  0  0  2  0  0  0  0  0  0
  -29.3090  -25.7900   21.8040 N   0  0  0  0  0  4  0  0  0  0  0  0
  -29.9740  -26.2880   21.2360 H   0  0  0  0  0  0  0  0  0  0  0  0
  -28.6810  -25.2970   21.1900 H   0  0  0  0  0  0  0  0  0  0  0  0
  -30.0360  -24.8520   22.6960 C   0  0  0  0  0  2  0  0  0  0  0  0
  -29.9200  -23.3330   22.4070 C   0  0  0  0  0  2  0  0  0  0  0  0
  -30.3890  -22.9730   21.0850 O   0  0  0  0  0  0  0  0  0  0  0  0
  -37.2410  -21.6110   19.7010 C   0  0  0  0  0  0  0  0  0  0  0  0
  -31.6220  -23.4770   20.7420 C   0  0  0  0  0  0  0  0  0  0  0  0
  -36.6730  -23.9740   20.1770 C   0  0  0  0  0  3  0  0  0  0  0  0
  -34.1820  -24.5310   20.1960 C   0  0  0  0  0  0  0  0  0  0  0  0
  -34.9470  -22.4020   19.1380 C   0  0  0  0  0  2  0  0  0  0  0  0
  -33.8710  -23.2130   19.8300 C   0  0  0  0  0  0  0  0  0  0  0  0
  -32.5950  -22.6740   20.1090 C   0  0  0  0  0  3  0  0  0  0  0  0
  -31.9260  -24.8260   21.0310 C   0  0  0  0  0  3  0  0  0  0  0  0
  -33.2120  -25.3420   20.8030 C   0  0  0  0  0  3  0  0  0  0  0  0
  -35.5740  -25.0270   19.8720 C   0  0  0  0  0  2  0  0  0  0  0  0
  -36.3060  -22.6040   19.6890 N   0  0  0  0  0  0  0  0  0  0  0  0
  -38.4020  -21.8280   20.0710 O   0  0  0  0  0  0  0  0  0  0  0  0
  -36.9950  -24.0150   21.6870 C   0  0  0  0  0  0  0  0  0  0  0  0
  -37.8160  -24.9960   22.1010 N   0  0  0  0  0  0  0  0  0  0  0  0
  -36.4920  -23.1950   22.4620 O   0  0  0  0  0  0  0  0  0  0  0  0
  -38.1890  -25.6250   21.4040 H   0  0  0  0  0  0  0  0  0  0  0  0
  -40.6320  -25.8850   24.1730 C   0  0  0  0  0  0  0  0  0  0  0  0
  -38.2250  -25.2430   23.4830 C   0  0  0  0  0  3  0  0  0  0  0  0
  -37.8250  -26.6640   23.9370 C   0  0  0  0  0  2  0  0  0  0  0  0
  -38.9280  -27.7030   23.7160 C   0  0  0  0  0  2  0  0  0  0  0  0
  -40.1960  -27.3080   24.4800 C   0  0  0  0  0  2  0  0  0  0  0  0
  -39.7100  -24.9210   23.6880 C   0  0  0  0  0  0  0  0  0  0  0  0
  -40.1760  -23.6250   23.3790 C   0  0  0  0  0  3  0  0  0  0  0  0
  -41.5310  -23.2850   23.5540 C   0  0  0  0  0  3  0  0  0  0  0  0
  -42.4360  -24.2400   24.0490 C   0  0  0  0  0  3  0  0  0  0  0  0
  -41.9850  -25.5340   24.3600 C   0  0  0  0  0  3  0  0  0  0  0  0
  -36.8960  -20.1660   19.2260 C   0  0  0  0  0  3  0  0  0  0  0  0
  -35.8150  -20.2750   18.2370 N   0  0  0  0  0  0  0  0  0  0  0  0
  -34.5220  -20.0450   18.4990 C   0  0  0  0  0  0  0  0  0  0  0  0
  -34.1190  -19.6430   19.5940 O   0  0  0  0  0  0  0  0  0  0  0  0
  -36.0620  -20.6620   17.3370 H   0  0  0  0  0  0  0  0  0  0  0  0
  -33.1130  -21.7850   17.3530 C   0  0  0  0  0  1  0  0  0  0  0  0
  -33.5120  -20.3020   17.3640 C   0  0  0  0  0  3  0  0  0  0  0  0
  -32.5880  -18.0300   17.4830 C   0  0  0  0  0  1  0  0  0  0  0  0
  -32.2990  -19.4610   17.4560 N   0  0  0  0  0  0  0  0  0  0  0  0
  -31.6730  -19.6430   16.6760 H   0  0  0  0  0  0  0  0  0  0  0  0
  -38.1340  -19.3990   18.6210 C   0  0  1  0  0  0  0  0  0  0  0  0
  -39.2210  -20.3340   18.0400 C   0  0  0  0  0  1  0  0  0  0  0  0
  -38.8010  -18.5040   19.6910 C   0  0  0  0  0  1  0  0  0  0  0  0
  -37.6620  -18.4560   17.4870 C   0  0  0  0  0  1  0  0  0  0  0  0
  -24.7960  -29.5180   17.3790 C   0  0  0  0  0  2  0  0  0  0  0  0
  -24.4770  -29.6380   15.8730 C   0  0  0  0  0  2  0  0  0  0  0  0
  -24.3520  -28.2640   15.3380 N   0  0  0  0  0  4  0  0  0  0  0  0
  -24.9350  -28.1780   14.5120 H   0  0  0  0  0  0  0  0  0  0  0  0
  -23.3810  -28.1450   15.0390 H   0  0  0  0  0  0  0  0  0  0  0  0
  -24.6640  -27.0880   16.1710 C   0  0  0  0  0  2  0  0  0  0  0  0
  -23.4360  -26.1410   16.2270 C   0  0  0  0  0  0  0  0  0  0  0  0
  -22.6650  -26.5930   13.7200 C   0  0  0  0  0  0  0  0  0  0  0  0
  -23.4170  -24.7160   12.3940 C   0  0  0  0  0  2  0  0  0  0  0  0
  -24.1990  -23.7540   13.2970 C   0  0  0  0  0  2  0  0  0  0  0  0
  -25.6830  -24.1600   13.3990 C   0  0  0  0  0  2  0  0  0  0  0  0
  -25.9310  -25.6830   13.6050 C   0  0  0  0  0  3  0  0  0  0  0  0
  -25.0050  -26.5400   12.7260 C   0  0  0  0  0  2  0  0  0  0  0  0
  -23.6390  -26.0490   12.9490 N   0  0  0  0  0  0  0  0  0  0  0  0
  -21.5320  -26.7790   13.2990 O   0  0  0  0  0  0  0  0  0  0  0  0
  -22.6120  -26.1400   14.9990 N   0  0  0  0  0  4  0  0  0  0  0  0
  -21.6370  -26.0880   15.2540 H   0  0  0  0  0  0  0  0  0  0  0  0
  -28.3640  -25.8780   14.3900 C   0  0  0  0  0  0  0  0  0  0  0  0
  -29.5200  -26.1600   13.7220 C   0  0  0  0  0  0  0  0  0  0  0  0
  -29.1240  -26.4860   12.3870 C   0  0  0  0  0  0  0  0  0  0  0  0
  -27.3420  -26.0110   13.4670 N   0  0  0  0  0  0  0  0  0  0  0  0
  -27.8040  -26.4580   12.2750 N   0  0  0  0  0  0  0  0  0  0  0  0
  -29.9270  -26.7810   11.1940 C   0  0  0  0  0  0  0  0  0  0  0  0
  -31.2390  -26.2790   11.0420 C   0  0  0  0  0  3  0  0  0  0  0  0
  -31.9870  -26.5640    9.8780 C   0  0  0  0  0  3  0  0  0  0  0  0
  -31.4110  -27.3360    8.8390 C   0  0  0  0  0  0  0  0  0  0  0  0
  -30.1090  -27.8380    9.0000 C   0  0  0  0  0  3  0  0  0  0  0  0
  -29.3790  -27.5800   10.1710 C   0  0  0  0  0  3  0  0  0  0  0  0
  -32.0670  -27.6750    7.6810 O   0  0  0  0  0  0  0  0  0  0  0  0
  -31.4010  -27.7590    6.4870 C   0  0  0  0  0  0  0  0  0  0  0  0
  -30.5430  -28.8400    6.1710 C   0  0  0  0  0  3  0  0  0  0  0  0
  -29.9360  -28.9070    4.9020 C   0  0  0  0  0  3  0  0  0  0  0  0
  -30.1940  -27.9060    3.9420 C   0  0  0  0  0  0  0  0  0  0  0  0
  -31.0490  -26.8340    4.2550 C   0  0  0  0  0  3  0  0  0  0  0  0
  -31.6450  -26.7600    5.5220 C   0  0  0  0  0  0  0  0  0  0  0  0
  -32.4820  -25.7340    5.8120 F   0  0  0  0  0  0  0  0  0  0  0  0
  -29.6190  -27.9780    2.7190 F   0  0  0  0  0  0  0  0  0  0  0  0
  -30.9170  -26.0720   14.2560 C   0  0  0  0  0  0  0  0  0  0  0  0
  -31.8340  -26.8520   13.6900 N   0  0  0  0  0  0  0  0  0  0  0  0
  -31.1850  -25.3480   15.2160 O   0  0  0  0  0  0  0  0  0  0  0  0
  -31.5960  -27.4000   12.8790 H   0  0  0  0  0  0  0  0  0  0  0  0
  -32.8030  -26.8160   13.9740 H   0  0  0  0  0  0  0  0  0  0  0  0
  -28.0900  -25.5270   15.7100 N   0  0  0  0  0  0  0  0  0  0  0  0
  -29.0080  -25.5240   16.1480 H   0  0  0  0  0  0  0  0  0  0  0  0
  -27.5970  -26.3320   16.0820 H   0  0  0  0  0  0  0  0  0  0  0  0
  -23.5950  -24.7280   16.9030 C   0  0  0  0  0  2  0  0  0  0  0  0
  -22.4770  -23.6750   16.6070 C   0  0  0  0  0  2  0  0  0  0  0  0
  -21.8820  -23.6540   15.1650 C   0  0  0  0  0  2  0  0  0  0  0  0
  -21.1670  -24.9300   14.6640 C   0  0  0  0  0  2  0  0  0  0  0  0
  -19.6980  -24.8180   14.7760 N   0  0  0  0  0  4  0  0  0  0  0  0
  -19.3370  -24.0810   14.1920 H   0  0  0  0  0  0  0  0  0  0  0  0
  -19.2700  -25.6730   14.4720 H   0  0  0  0  0  0  0  0  0  0  0  0
  -19.4190  -24.6570   15.7270 H   0  0  0  0  0  0  0  0  0  0  0  0
  1  2  1  0
  2  3  1  0
  3  6  1  0
  4  3  1  0
  5  3  1  0
  6  7  1  0
  7  8  1  0
  8  9  1  0
 10  9  1  0
 10 13  1  0
 11 10  1  0
 12 10  1  0
 14 13  1  0
 15 14  1  0
 16 27  2  0
 17 23  1  0
 17 15  1  0
 18 28  1  0
 19 24  1  0
 20 26  1  0
 20 21  1  0
 21 22  1  0
 21 19  2  0
 22 17  2  0
 24 23  2  0
 25 18  1  0
 25 19  1  0
 26 16  1  0
 26 18  1  0
 28 29  1  0
 28 30  2  0
 31 29  1  0
 32 41  1  0
 32 36  1  0
 33 29  1  0
 33 37  1  0
 33 34  1  0
 35 34  1  0
 35 36  1  0
 37 32  2  0
 38 39  2  0
 38 37  1  0
 39 40  1  0
 40 41  2  0
 42 16  1  0
 43 44  1  0
 43 42  1  0
 44 45  2  0
 46 43  1  0
 48 47  1  0
 48 50  1  0
 48 44  1  0
 50 49  1  0
 51 50  1  0
 52 42  1  0
 52 54  1  1
 53 52  1  0
 55 52  1  0
 56  1  1  0
 57 56  1  0
 58 57  1  0
 58 61  1  0
 59 58  1  0
 60 58  1  0
 61 62  1  0
 62101  1  0
 63 71  1  0
 64 69  1  0
 64 65  1  0
 65 66  1  0
 66 67  1  0
 67 68  1  0
 68 69  1  0
 69 63  1  0
 70 63  2  0
 71 72  1  0
 71 62  2  0
 73 98  1  0
 74 93  1  0
 74 73  2  0
 75 74  1  0
 76 67  1  0
 76 73  1  0
 77 75  2  0
 77 76  1  0
 78 75  1  0
 79 78  1  0
 80 79  2  0
 81 82  2  0
 81 80  1  0
 82 83  1  0
 83 78  2  0
 84 81  1  0
 85 84  1  0
 86 85  1  0
 87 86  2  0
 88 89  2  0
 88 87  1  0
 89 90  1  0
 90 91  1  0
 90 85  2  0
 92 88  1  0
 93 95  2  0
 94 97  1  0
 94 93  1  0
 96 94  1  0
 98100  1  0
 98 99  1  0
102101  1  0
103102  1  0
104105  1  0
104103  1  0
105108  1  0
106105  1  0
107105  1  0
M  ISO  4  14 101  15 101  63 100  71 100
M  END
>  <TORSDO>  (33) 
F 35

>  <SCORE>  (33) 
-0.158

>  <name>  (33) 
32

>  <ligand_id>  (33) 
32

>  <original_smiles>  (33) 
[H]c1c([H])c([H])c2c(c1[H])C([H])([H])C([H])([H])C([H])([H])C2([H])N([H])C(=O)C1([H])N(C(=O)C([H])(N([H])C(=O)C([H])(N([H])C([H])([H])[H])C([H])([H])[H])C(C([H])([H])[H])(C([H])([H])[H])C([H])([H])[H])C([H])([H])c2c([H])c(OC([H])([H])C([H])([H])[N+]([H])([H])C([H])([H])C([H])([H])C([H])([H])C([H])([H])[N+]([H])([H])C([H])([H])C([H])([H])C([H])([H])C([H])([H])[N+]([H])([H])C([H])([H])C([H])(N([H])C(=O)N3C([H])([H])C([H])([H])C([H])([H])C([H])(n4nc(-c5c([H])c([H])c(Oc6c([H])c([H])c(F)c([H])c6F)c([H])c5[H])c(C(=O)N([H])[H])c4N([H])[H])C3([H])[H])C([H])([H])C([H])([H])C([H])([H])C([H])([H])[N+]([H])([H])[H])c([H])c([H])c2C1([H])[H]

>  <smiles>  (33) 
[H]c1c([H])c([H])c2c(c1[H])C([H])([H])C([H])([H])C([H])([H])C2([H])N([H])C(=O)C1([H])N(C(=O)C([H])(N([H])C(=O)C([H])(N([H])C([H])([H])[H])C([H])([H])[H])C(C([H])([H])[H])(C([H])([H])[H])C([H])([H])[H])C([H])([H])c2c([H])c(OC([H])([H])C([H])([H])[N+]([H])([H])C([H])([H])C([H])([H])C([H])([H])C([H])([H])[N+]([H])([H])C([H])([H])C([H])([H])C([H])([H])C([H])([H])[N+]([H])([H])C([H])([H])C([H])(N([H])C(=O)N3C([H])([H])C([H])([H])C([H])([H])C([H])(n4nc(-c5c([H])c([H])c(Oc6c([H])c([H])c(F)c([H])c6F)c([H])c5[H])c(C(=O)N([H])[H])c4N([H])[H])C3([H])[H])C([H])([H])C([H])([H])C([H])([H])C([H])([H])[N+]([H])([H])[H])c([H])c([H])c2C1([H])[H]

$$$$
33:0:0
     RDKit          3D

 97106  0  0  1  0  0  0  0  0999 V2000
  -29.9600  -20.2670   19.8600 C   0  0  0  0  0  3  0  0  0  0  0  0
  -30.6820  -14.6260   20.3060 C   0  0  0  0  0  0  0  0  0  0  0  0
  -30.3590  -12.4070   19.2510 C   0  0  0  0  0  2  0  0  0  0  0  0
  -29.4030  -12.5460   18.0480 C   0  0  0  0  0  2  0  0  0  0  0  0
  -27.9410  -12.3930   18.5070 C   0  0  0  0  0  2  0  0  0  0  0  0
  -27.6060  -13.2560   19.7550 C   0  0  0  0  0  3  0  0  0  0  0  0
  -28.6900  -13.1440   20.8490 C   0  0  0  0  0  2  0  0  0  0  0  0
  -29.9820  -13.4500   20.2250 N   0  0  0  0  0  0  0  0  0  0  0  0
  -31.8720  -14.6660   19.9830 O   0  0  0  0  0  0  0  0  0  0  0  0
  -30.6000  -16.7930   21.4490 C   0  0  0  0  0  2  0  0  0  0  0  0
  -29.6030  -16.5150   19.2500 C   0  0  0  0  0  2  0  0  0  0  0  0
  -29.9790  -18.2370   21.5150 C   0  0  0  0  0  2  0  0  0  0  0  0
  -28.9110  -17.9050   19.4190 C   0  0  0  0  0  2  0  0  0  0  0  0
  -29.9980  -15.8090   20.4990 N   0  0  0  0  0  0  0  0  0  0  0  0
  -29.7890  -18.8000   20.1760 N   0  0  0  0  0  0  0  0  0  0  0  0
  -25.2340  -13.8450   20.5270 C   0  0  0  0  0  0  0  0  0  0  0  0
  -24.1730  -13.0680   20.9050 C   0  0  0  0  0  0  0  0  0  0  0  0
  -24.6360  -11.7180   20.8580 C   0  0  0  0  0  0  0  0  0  0  0  0
  -26.2730  -12.9670   20.2690 N   0  0  0  0  0  0  0  0  0  0  0  0
  -25.9220  -11.6820   20.5300 N   0  0  0  0  0  0  0  0  0  0  0  0
  -23.9130  -10.4540   21.0490 C   0  0  0  0  0  0  0  0  0  0  0  0
  -24.3620   -9.4770   21.9650 C   0  0  0  0  0  3  0  0  0  0  0  0
  -23.6380   -8.2790   22.1450 C   0  0  0  0  0  3  0  0  0  0  0  0
  -22.4520   -8.0470   21.4070 C   0  0  0  0  0  0  0  0  0  0  0  0
  -22.0240   -9.0120   20.4790 C   0  0  0  0  0  3  0  0  0  0  0  0
  -22.7480  -10.2030   20.2980 C   0  0  0  0  0  3  0  0  0  0  0  0
  -21.6990   -6.9020   21.4980 O   0  0  0  0  0  0  0  0  0  0  0  0
  -21.6710   -6.1470   22.6430 C   0  0  0  0  0  0  0  0  0  0  0  0
  -21.2600   -6.6870   23.8820 C   0  0  0  0  0  3  0  0  0  0  0  0
  -21.1780   -5.8570   25.0190 C   0  0  0  0  0  3  0  0  0  0  0  0
  -21.5000   -4.4910   24.9180 C   0  0  0  0  0  0  0  0  0  0  0  0
  -21.9060   -3.9510   23.6840 C   0  0  0  0  0  3  0  0  0  0  0  0
  -21.9880   -4.7770   22.5500 C   0  0  0  0  0  0  0  0  0  0  0  0
  -22.3580   -4.2480   21.3590 F   0  0  0  0  0  0  0  0  0  0  0  0
  -21.4160   -3.6920   26.0080 F   0  0  0  0  0  0  0  0  0  0  0  0
  -22.7810  -13.5420   21.2020 C   0  0  0  0  0  0  0  0  0  0  0  0
  -22.0660  -12.8380   22.0730 N   0  0  0  0  0  0  0  0  0  0  0  0
  -22.3360  -14.5740   20.6990 O   0  0  0  0  0  0  0  0  0  0  0  0
  -22.4410  -12.0050   22.5010 H   0  0  0  0  0  0  0  0  0  0  0  0
  -21.1330  -13.1380   22.3150 H   0  0  0  0  0  0  0  0  0  0  0  0
  -25.3980  -15.2170   20.3610 N   0  0  0  0  0  0  0  0  0  0  0  0
  -24.6390  -15.8750   20.5010 H   0  0  0  0  0  0  0  0  0  0  0  0
  -26.2580  -15.6600   20.0680 H   0  0  0  0  0  0  0  0  0  0  0  0
  -30.7000  -20.2480   18.4850 C   0  0  0  0  0  2  0  0  0  0  0  0
  -31.8410  -24.4130   17.3840 C   0  0  0  0  0  2  0  0  0  0  0  0
  -31.1150  -23.5410   16.3490 C   0  0  0  0  0  2  0  0  0  0  0  0
  -32.8130  -23.5770   18.2330 C   0  0  0  0  0  2  0  0  0  0  0  0
  -30.3900  -22.3550   17.0070 C   0  0  0  0  0  2  0  0  0  0  0  0
  -32.0970  -22.4050   18.9220 C   0  0  0  0  0  2  0  0  0  0  0  0
  -31.3420  -21.5300   17.9000 C   0  0  0  0  0  3  0  0  0  0  0  0
  -28.7030  -21.2570   19.9160 C   0  0  0  0  0  2  0  0  0  0  0  0
  -28.9000  -22.6010   20.6020 N   0  0  0  0  0  4  0  0  0  0  0  0
  -28.3790  -22.5330   21.4640 H   0  0  0  0  0  0  0  0  0  0  0  0
  -29.8670  -22.6800   20.8750 H   0  0  0  0  0  0  0  0  0  0  0  0
  -28.4810  -23.8940   19.9030 C   0  0  0  0  0  2  0  0  0  0  0  0
  -28.3160  -25.1820   20.8230 C   0  0  0  0  0  2  0  0  0  0  0  0
  -28.4090  -26.5300   20.2290 O   0  0  0  0  0  0  0  0  0  0  0  0
  -24.6100  -31.8760   23.2370 C   0  0  0  0  0  0  0  0  0  0  0  0
  -27.2710  -27.3380   20.2270 C   0  0  0  0  0  0  0  0  0  0  0  0
  -23.4260  -30.4650   21.5890 C   0  0  0  0  0  3  0  0  0  0  0  0
  -24.8970  -28.9120   20.1870 C   0  0  0  0  0  0  0  0  0  0  0  0
  -25.9620  -30.8030   21.4230 C   0  0  0  0  0  2  0  0  0  0  0  0
  -26.0550  -29.4220   20.7870 C   0  0  0  0  0  0  0  0  0  0  0  0
  -27.2490  -28.6450   20.7940 C   0  0  0  0  0  3  0  0  0  0  0  0
  -26.0940  -26.8660   19.6130 C   0  0  0  0  0  3  0  0  0  0  0  0
  -24.9170  -27.6400   19.5920 C   0  0  0  0  0  3  0  0  0  0  0  0
  -23.6550  -29.7810   20.2150 C   0  0  0  0  0  2  0  0  0  0  0  0
  -24.6840  -31.0640   22.1400 N   0  0  0  0  0  0  0  0  0  0  0  0
  -23.5220  -32.1490   23.7620 O   0  0  0  0  0  0  0  0  0  0  0  0
  -22.7600  -29.4490   22.5480 C   0  0  0  0  0  0  0  0  0  0  0  0
  -21.4340  -29.2780   22.4220 N   0  0  0  0  0  0  0  0  0  0  0  0
  -23.4380  -28.8180   23.3630 O   0  0  0  0  0  0  0  0  0  0  0  0
  -20.9500  -29.8410   21.7370 H   0  0  0  0  0  0  0  0  0  0  0  0
  -18.0470  -28.1200   22.9300 C   0  0  0  0  0  0  0  0  0  0  0  0
  -20.6090  -28.3440   23.1890 C   0  0  0  0  0  3  0  0  0  0  0  0
  -20.6910  -26.9160   22.5990 C   0  0  0  0  0  2  0  0  0  0  0  0
  -19.5770  -26.6180   21.5890 C   0  0  0  0  0  2  0  0  0  0  0  0
  -18.2010  -26.7760   22.2430 C   0  0  0  0  0  2  0  0  0  0  0  0
  -19.1780  -28.8640   23.3610 C   0  0  0  0  0  0  0  0  0  0  0  0
  -18.9790  -30.1250   23.9650 C   0  0  0  0  0  3  0  0  0  0  0  0
  -17.6810  -30.6400   24.1440 C   0  0  0  0  0  3  0  0  0  0  0  0
  -16.5650  -29.8930   23.7310 C   0  0  0  0  0  3  0  0  0  0  0  0
  -16.7480  -28.6350   23.1300 C   0  0  0  0  0  3  0  0  0  0  0  0
  -25.8860  -32.5140   23.8690 C   0  0  0  0  0  3  0  0  0  0  0  0
  -25.5690  -33.9120   24.1940 N   0  0  0  0  0  0  0  0  0  0  0  0
  -25.9070  -34.9640   23.4370 C   0  0  0  0  0  0  0  0  0  0  0  0
  -26.5860  -34.8620   22.4130 O   0  0  0  0  0  0  0  0  0  0  0  0
  -24.9670  -34.0660   24.9890 H   0  0  0  0  0  0  0  0  0  0  0  0
  -24.1770  -36.7530   23.0650 C   0  0  0  0  0  1  0  0  0  0  0  0
  -25.4110  -36.3520   23.8890 C   0  0  0  0  0  3  0  0  0  0  0  0
  -27.5320  -37.2410   24.7450 C   0  0  0  0  0  1  0  0  0  0  0  0
  -26.4410  -37.4080   23.7890 N   0  0  0  0  0  0  0  0  0  0  0  0
  -26.0320  -38.3270   23.9320 H   0  0  0  0  0  0  0  0  0  0  0  0
  -26.3940  -31.7480   25.1510 C   0  0  1  0  0  0  0  0  0  0  0  0
  -25.2920  -31.5080   26.2090 C   0  0  0  0  0  1  0  0  0  0  0  0
  -26.9860  -30.3720   24.7640 C   0  0  0  0  0  1  0  0  0  0  0  0
  -27.5370  -32.5460   25.8200 C   0  0  0  0  0  1  0  0  0  0  0  0
  1 44  1  0
  1 51  1  0
  1 15  1  0
  2 14  1  0
  3  8  1  0
  4  5  1  0
  4  3  1  0
  6  5  1  0
  6 19  1  0
  6  7  1  0
  8  2  1  0
  8  7  1  0
  9  2  2  0
 10 12  1  0
 11 13  1  0
 11 14  1  0
 13 15  1  0
 14 10  1  0
 15 12  1  0
 16 17  2  0
 17 36  1  0
 18 17  1  0
 18 21  1  0
 19 16  1  0
 19 20  1  0
 20 18  2  0
 21 22  1  0
 22 23  2  0
 24 27  1  0
 24 23  1  0
 25 24  2  0
 26 25  1  0
 26 21  2  0
 27 28  1  0
 28 29  1  0
 29 30  2  0
 31 30  1  0
 31 35  1  0
 32 31  2  0
 33 28  2  0
 33 32  1  0
 34 33  1  0
 36 37  1  0
 37 40  1  0
 37 39  1  0
 38 36  2  0
 41 42  1  0
 41 16  1  0
 43 41  1  0
 45 47  1  0
 46 48  1  0
 46 45  1  0
 47 49  1  0
 48 50  1  0
 50 44  1  0
 50 49  1  0
 51 52  1  0
 52 54  1  0
 52 53  1  0
 55 52  1  0
 55 56  1  0
 57 56  1  0
 58 69  2  0
 59 57  1  0
 59 64  1  0
 60 68  1  0
 60 70  1  0
 61 67  1  0
 61 63  1  0
 62 68  1  0
 63 64  2  0
 63 62  1  0
 65 59  2  0
 66 65  1  0
 66 61  2  0
 67 60  1  0
 68 58  1  0
 70 72  2  0
 71 70  1  0
 73 71  1  0
 74 83  2  0
 74 79  1  0
 75 71  1  0
 75 79  1  0
 76 75  1  0
 77 78  1  0
 77 76  1  0
 78 74  1  0
 79 80  2  0
 80 81  1  0
 82 81  2  0
 83 82  1  0
 84 58  1  0
 84 85  1  0
 84 94  1  0
 85 88  1  0
 86 90  1  0
 86 85  1  0
 87 86  2  0
 90 89  1  0
 92 90  1  0
 92 93  1  0
 92 91  1  0
 94 97  1  1
 94 95  1  0
 96 94  1  0
M  ISO  4   2 100  14 100  56 101  57 101
M  END
>  <TORSDO>  (34) 
F 22

>  <SCORE>  (34) 
-13.154

>  <name>  (34) 
33

>  <ligand_id>  (34) 
33

>  <original_smiles>  (34) 
[H]c1c([H])c([H])c2c(c1[H])C([H])([H])C([H])([H])C([H])([H])C2([H])N([H])C(=O)C1([H])N(C(=O)C([H])(N([H])C(=O)C([H])(N([H])C([H])([H])[H])C([H])([H])[H])C(C([H])([H])[H])(C([H])([H])[H])C([H])([H])[H])C([H])([H])c2c([H])c(OC([H])([H])C([H])([H])[N+]([H])([H])C([H])([H])C([H])(N3C([H])([H])C([H])([H])N(C(=O)N4C([H])([H])C([H])([H])C([H])([H])C([H])(n5nc(-c6c([H])c([H])c(Oc7c([H])c([H])c(F)c([H])c7F)c([H])c6[H])c(C(=O)N([H])[H])c5N([H])[H])C4([H])[H])C([H])([H])C3([H])[H])C([H])([H])C3([H])C([H])([H])C([H])([H])C([H])([H])C([H])([H])C3([H])[H])c([H])c([H])c2C1([H])[H]

>  <smiles>  (34) 
[H]c1c([H])c([H])c2c(c1[H])C([H])([H])C([H])([H])C([H])([H])C2([H])N([H])C(=O)C1([H])N(C(=O)C([H])(N([H])C(=O)C([H])(N([H])C([H])([H])[H])C([H])([H])[H])C(C([H])([H])[H])(C([H])([H])[H])C([H])([H])[H])C([H])([H])c2c([H])c(OC([H])([H])C([H])([H])[N+]([H])([H])C([H])([H])C([H])(N3C([H])([H])C([H])([H])N(C(=O)N4C([H])([H])C([H])([H])C([H])([H])C([H])(n5nc(-c6c([H])c([H])c(Oc7c([H])c([H])c(F)c([H])c7F)c([H])c6[H])c(C(=O)N([H])[H])c5N([H])[H])C4([H])[H])C([H])([H])C3([H])[H])C([H])([H])C3([H])C([H])([H])C([H])([H])C([H])([H])C([H])([H])C3([H])[H])c([H])c([H])c2C1([H])[H]

$$$$
34:0:0
     RDKit          3D

103111  0  0  1  0  0  0  0  0999 V2000
  -29.6190  -18.6250   20.3850 C   0  0  0  0  0  3  0  0  0  0  0  0
  -28.4100  -22.3130   21.1760 C   0  0  0  0  0  2  0  0  0  0  0  0
  -30.7410  -22.3960   21.0230 C   0  0  0  0  0  2  0  0  0  0  0  0
  -28.3990  -20.8490   20.6140 C   0  0  0  0  0  2  0  0  0  0  0  0
  -30.8150  -20.9340   20.4550 C   0  0  0  0  0  2  0  0  0  0  0  0
  -29.5140  -23.1190   20.6220 N   0  0  0  0  0  0  0  0  0  0  0  0
  -29.6600  -20.0800   20.8860 N   0  0  2  0  0  4  0  0  0  0  0  0
  -29.7100  -20.0500   21.8920 H   0  0  0  0  0  0  0  0  0  0  0  0
  -29.5230  -24.5410   21.1000 C   0  0  0  0  0  3  0  0  0  0  0  0
  -28.4180  -25.5020   20.5120 C   0  0  0  0  0  3  0  0  0  0  0  0
  -28.5570  -26.9410   20.7800 O   0  0  0  0  0  0  0  0  0  0  0  0
  -24.7250  -32.3310   23.5970 C   0  0  0  0  0  0  0  0  0  0  0  0
  -27.4100  -27.7370   20.6960 C   0  0  0  0  0  0  0  0  0  0  0  0
  -23.5430  -30.8660   21.9980 C   0  0  0  0  0  3  0  0  0  0  0  0
  -25.0170  -29.2930   20.6300 C   0  0  0  0  0  0  0  0  0  0  0  0
  -26.0750  -31.2180   21.8100 C   0  0  0  0  0  2  0  0  0  0  0  0
  -26.1750  -29.8230   21.2110 C   0  0  0  0  0  0  0  0  0  0  0  0
  -27.3730  -29.0570   21.2350 C   0  0  0  0  0  3  0  0  0  0  0  0
  -26.2270  -27.2510   20.0900 C   0  0  0  0  0  3  0  0  0  0  0  0
  -25.0430  -28.0090   20.0620 C   0  0  0  0  0  3  0  0  0  0  0  0
  -23.7680  -30.1480   20.6430 C   0  0  0  0  0  2  0  0  0  0  0  0
  -24.8000  -31.4900   22.5260 N   0  0  0  0  0  0  0  0  0  0  0  0
  -23.6370  -32.6140   24.1190 O   0  0  0  0  0  0  0  0  0  0  0  0
  -22.8900  -29.8730   22.9880 C   0  0  0  0  0  0  0  0  0  0  0  0
  -21.6200  -29.5160   22.7360 N   0  0  0  0  0  0  0  0  0  0  0  0
  -23.5310  -29.4210   23.9410 O   0  0  0  0  0  0  0  0  0  0  0  0
  -21.1590  -29.9370   21.9400 H   0  0  0  0  0  0  0  0  0  0  0  0
  -18.3860  -27.9110   22.9470 C   0  0  0  0  0  0  0  0  0  0  0  0
  -20.8230  -28.5650   23.5110 C   0  0  0  0  0  3  0  0  0  0  0  0
  -21.1890  -27.1070   23.1500 C   0  0  0  0  0  2  0  0  0  0  0  0
  -20.2980  -26.5150   22.0540 C   0  0  0  0  0  2  0  0  0  0  0  0
  -18.8290  -26.5330   22.4870 C   0  0  0  0  0  2  0  0  0  0  0  0
  -19.3230  -28.8710   23.4120 C   0  0  0  0  0  0  0  0  0  0  0  0
  -18.8620  -30.1480   23.7960 C   0  0  0  0  0  3  0  0  0  0  0  0
  -17.4940  -30.4730   23.7220 C   0  0  0  0  0  3  0  0  0  0  0  0
  -16.5690  -29.5150   23.2740 C   0  0  0  0  0  3  0  0  0  0  0  0
  -17.0140  -28.2360   22.8920 C   0  0  0  0  0  3  0  0  0  0  0  0
  -25.9990  -32.9970   24.2030 C   0  0  0  0  0  3  0  0  0  0  0  0
  -26.4850  -32.3080   25.5380 C   0  0  1  0  0  0  0  0  0  0  0  0
  -25.3530  -32.0770   26.5640 C   0  0  0  0  0  1  0  0  0  0  0  0
  -27.1380  -30.9390   25.2400 C   0  0  0  0  0  1  0  0  0  0  0  0
  -27.5710  -33.1790   26.2110 C   0  0  0  0  0  1  0  0  0  0  0  0
  -25.6910  -34.4150   24.4330 N   0  0  0  0  0  0  0  0  0  0  0  0
  -26.0160  -35.4100   23.5970 C   0  0  0  0  0  0  0  0  0  0  0  0
  -26.6790  -35.2320   22.5710 O   0  0  0  0  0  0  0  0  0  0  0  0
  -25.1040  -34.6270   25.2260 H   0  0  0  0  0  0  0  0  0  0  0  0
  -24.2680  -37.1620   23.1490 C   0  0  0  0  0  1  0  0  0  0  0  0
  -25.5320  -36.8280   23.9570 C   0  0  0  0  0  3  0  0  0  0  0  0
  -27.6840  -37.7820   24.6570 C   0  0  0  0  0  1  0  0  0  0  0  0
  -26.5550  -37.8730   23.7350 N   0  0  0  0  0  0  0  0  0  0  0  0
  -26.1470  -38.8010   23.8240 H   0  0  0  0  0  0  0  0  0  0  0  0
  -29.6680  -18.5980   18.8230 C   0  0  0  0  0  2  0  0  0  0  0  0
  -28.4550  -18.0140   18.0750 C   0  0  0  0  0  2  0  0  0  0  0  0
  -28.3040  -18.6010   16.6590 C   0  0  0  0  0  2  0  0  0  0  0  0
  -26.9720  -18.2240   15.9840 C   0  0  0  0  0  2  0  0  0  0  0  0
  -26.8050  -18.8790   14.6750 N   0  0  0  0  0  4  0  0  0  0  0  0
  -26.8100  -19.8780   14.7680 H   0  0  0  0  0  0  0  0  0  0  0  0
  -25.9260  -18.6110   14.2660 H   0  0  0  0  0  0  0  0  0  0  0  0
  -27.5360  -18.6080   14.0410 H   0  0  0  0  0  0  0  0  0  0  0  0
  -30.6600  -17.5800   21.0350 C   0  0  0  0  0  3  0  0  0  0  0  0
  -31.0100  -15.0280   20.6920 C   0  0  0  0  0  0  0  0  0  0  0  0
  -30.7840  -12.7800   19.6690 C   0  0  0  0  0  2  0  0  0  0  0  0
  -29.8990  -12.8840   18.4090 C   0  0  0  0  0  2  0  0  0  0  0  0
  -28.4060  -12.7590   18.7760 C   0  0  0  0  0  2  0  0  0  0  0  0
  -28.0040  -13.6690   19.9670 C   0  0  0  0  0  3  0  0  0  0  0  0
  -29.0090  -13.5440   21.1340 C   0  0  0  0  0  2  0  0  0  0  0  0
  -30.3480  -13.8350   20.6010 N   0  0  0  0  0  0  0  0  0  0  0  0
  -32.1950  -15.1430   20.3740 O   0  0  0  0  0  0  0  0  0  0  0  0
  -30.2460  -16.1270   20.9670 N   0  0  0  0  0  0  0  0  0  0  0  0
  -29.2680  -15.9280   21.1070 H   0  0  0  0  0  0  0  0  0  0  0  0
  -25.6270  -14.3410   20.6790 C   0  0  0  0  0  0  0  0  0  0  0  0
  -24.5120  -13.6000   20.9560 C   0  0  0  0  0  0  0  0  0  0  0  0
  -24.9020  -12.2330   20.8230 C   0  0  0  0  0  0  0  0  0  0  0  0
  -26.6300  -13.4260   20.3960 N   0  0  0  0  0  0  0  0  0  0  0  0
  -26.1960  -12.1490   20.5430 N   0  0  0  0  0  0  0  0  0  0  0  0
  -24.1060  -11.0020   20.8880 C   0  0  0  0  0  0  0  0  0  0  0  0
  -24.4470   -9.9470   21.7630 C   0  0  0  0  0  3  0  0  0  0  0  0
  -23.6550   -8.7810   21.8200 C   0  0  0  0  0  3  0  0  0  0  0  0
  -22.5080   -8.6610   21.0010 C   0  0  0  0  0  0  0  0  0  0  0  0
  -22.1850   -9.7040   20.1150 C   0  0  0  0  0  3  0  0  0  0  0  0
  -22.9780  -10.8630   20.0550 C   0  0  0  0  0  3  0  0  0  0  0  0
  -21.6930   -7.5550   20.9720 O   0  0  0  0  0  0  0  0  0  0  0  0
  -21.5260   -6.7550   22.0740 C   0  0  0  0  0  0  0  0  0  0  0  0
  -21.0430   -7.2670   23.2980 C   0  0  0  0  0  3  0  0  0  0  0  0
  -20.8190   -6.3970   24.3850 C   0  0  0  0  0  3  0  0  0  0  0  0
  -21.0670   -5.0180   24.2470 C   0  0  0  0  0  0  0  0  0  0  0  0
  -21.5440   -4.5070   23.0260 C   0  0  0  0  0  3  0  0  0  0  0  0
  -21.7690   -5.3730   21.9420 C   0  0  0  0  0  0  0  0  0  0  0  0
  -22.2070   -4.8730   20.7620 F   0  0  0  0  0  0  0  0  0  0  0  0
  -20.8460   -4.1810   25.2870 F   0  0  0  0  0  0  0  0  0  0  0  0
  -23.1340  -14.1310   21.2330 C   0  0  0  0  0  0  0  0  0  0  0  0
  -22.3510  -13.4160   22.0330 N   0  0  0  0  0  0  0  0  0  0  0  0
  -22.7620  -15.2110   20.7780 O   0  0  0  0  0  0  0  0  0  0  0  0
  -22.6630  -12.5390   22.4240 H   0  0  0  0  0  0  0  0  0  0  0  0
  -21.4250  -13.7500   22.2590 H   0  0  0  0  0  0  0  0  0  0  0  0
  -25.8670  -15.7110   20.6210 N   0  0  0  0  0  0  0  0  0  0  0  0
  -25.1200  -16.3820   20.7620 H   0  0  0  0  0  0  0  0  0  0  0  0
  -26.7310  -16.1370   20.3220 H   0  0  0  0  0  0  0  0  0  0  0  0
  -31.1030  -17.9090   22.4920 C   0  0  0  0  0  2  0  0  0  0  0  0
  -30.2390  -17.3380   23.5490 N   0  0  0  0  0  4  0  0  0  0  0  0
  -29.2980  -17.6850   23.5100 H   0  0  0  0  0  0  0  0  0  0  0  0
  -30.6130  -17.5780   24.4500 H   0  0  0  0  0  0  0  0  0  0  0  0
  -30.2210  -16.3360   23.4940 H   0  0  0  0  0  0  0  0  0  0  0  0
  1 52  1  0
  1  7  1  0
  1 60  1  0
  4  7  1  0
  4  2  1  0
  5  7  1  0
  5  3  1  0
  6  3  1  0
  6  9  1  0
  6  2  1  0
  7  8  1  1
 10 11  1  0
 10  9  2  0
 12 23  2  0
 13 11  1  0
 13 18  1  0
 14 22  1  0
 14 24  1  0
 15 21  1  0
 15 17  1  0
 16 22  1  0
 17 18  2  0
 17 16  1  0
 19 13  2  0
 20 19  1  0
 20 15  2  0
 21 14  1  0
 22 12  1  0
 24 26  2  0
 25 24  1  0
 27 25  1  0
 28 33  1  0
 29 25  1  0
 30 29  1  0
 31 32  1  0
 31 30  1  0
 32 28  1  0
 33 29  1  0
 33 34  2  0
 35 34  1  0
 36 35  2  0
 37 28  2  0
 37 36  1  0
 38 12  1  0
 38 43  1  0
 38 39  1  0
 39 42  1  1
 39 40  1  0
 41 39  1  0
 43 46  1  0
 44 48  1  0
 44 43  1  0
 45 44  2  0
 48 47  1  0
 50 51  1  0
 50 48  1  0
 50 49  1  0
 53 52  1  0
 54 53  1  0
 55 54  1  0
 56 57  1  0
 56 55  1  0
 58 56  1  0
 59 56  1  0
 60 99  1  0
 61 69  1  0
 62 67  1  0
 63 64  1  0
 63 62  1  0
 65 64  1  0
 65 74  1  0
 65 66  1  0
 67 61  1  0
 67 66  1  0
 68 61  2  0
 69 60  1  0
 69 70  1  0
 71 72  2  0
 72 91  1  0
 73 76  1  0
 73 72  1  0
 74 75  1  0
 74 71  1  0
 75 73  2  0
 76 77  1  0
 77 78  2  0
 79 78  1  0
 80 79  2  0
 81 80  1  0
 81 76  2  0
 82 79  1  0
 82 83  1  0
 83 84  1  0
 84 85  2  0
 86 85  1  0
 86 90  1  0
 87 86  2  0
 88 83  2  0
 88 87  1  0
 89 88  1  0
 91 92  1  0
 92 95  1  0
 92 94  1  0
 93 91  2  0
 96 71  1  0
 96 97  1  0
 98 96  1  0
 99100  1  0
100102  1  0
101100  1  0
103100  1  0
M  ISO  4  10 101  11 101  61 100  69 100
M  END
>  <TORSDO>  (35) 
F 27

>  <SCORE>  (35) 
-8.440

>  <name>  (35) 
34

>  <ligand_id>  (35) 
34

>  <original_smiles>  (35) 
[H]c1c([H])c([H])c2c(c1[H])C([H])([H])C([H])([H])C([H])([H])C2([H])N([H])C(=O)C1([H])N(C(=O)C([H])(N([H])C(=O)C([H])(N([H])C([H])([H])[H])C([H])([H])[H])C(C([H])([H])[H])(C([H])([H])[H])C([H])([H])[H])C([H])([H])c2c([H])c(OC([H])([H])C([H])([H])N3C([H])([H])C([H])([H])[N+]([H])(C([H])(C([H])([H])C([H])([H])C([H])([H])C([H])([H])[N+]([H])([H])[H])C([H])(N([H])C(=O)N4C([H])([H])C([H])([H])C([H])([H])C([H])(n5nc(-c6c([H])c([H])c(Oc7c([H])c([H])c(F)c([H])c7F)c([H])c6[H])c(C(=O)N([H])[H])c5N([H])[H])C4([H])[H])C([H])([H])[N+]([H])([H])[H])C([H])([H])C3([H])[H])c([H])c([H])c2C1([H])[H]

>  <smiles>  (35) 
[H]c1c([H])c([H])c2c(c1[H])C([H])([H])C([H])([H])C([H])([H])C2([H])N([H])C(=O)C1([H])N(C(=O)C([H])(N([H])C(=O)C([H])(N([H])C([H])([H])[H])C([H])([H])[H])C(C([H])([H])[H])(C([H])([H])[H])C([H])([H])[H])C([H])([H])c2c([H])c(OC([H])([H])C([H])([H])N3C([H])([H])C([H])([H])[N+]([H])(C([H])(C([H])([H])C([H])([H])C([H])([H])C([H])([H])[N+]([H])([H])[H])C([H])(N([H])C(=O)N4C([H])([H])C([H])([H])C([H])([H])C([H])(n5nc(-c6c([H])c([H])c(Oc7c([H])c([H])c(F)c([H])c7F)c([H])c6[H])c(C(=O)N([H])[H])c5N([H])[H])C4([H])[H])C([H])([H])[N+]([H])([H])[H])C([H])([H])C3([H])[H])c([H])c([H])c2C1([H])[H]

$$$$
35:0:0
     RDKit          3D

 98107  0  0  1  0  0  0  0  0999 V2000
  -29.7890  -21.1240   21.2910 C   0  0  0  0  0  2  0  0  0  0  0  0
  -28.8630  -22.2550   21.7850 C   0  0  0  0  0  2  0  0  0  0  0  0
  -30.1420  -24.1710   20.6030 C   0  0  0  0  0  2  0  0  0  0  0  0
  -28.4090  -24.6610   22.3840 C   0  0  0  0  0  2  0  0  0  0  0  0
  -30.6460  -25.6270   20.7140 C   0  0  0  0  0  2  0  0  0  0  0  0
  -28.9130  -26.1130   22.4650 C   0  0  0  0  0  2  0  0  0  0  0  0
  -29.4940  -23.6650   21.9130 C   0  0  0  0  0  3  0  0  0  0  0  0
  -29.5290  -26.5960   21.1320 C   0  0  0  0  0  3  0  0  0  0  0  0
  -28.5850  -26.6090   20.0600 O   0  0  0  0  0  0  0  0  0  0  0  0
  -24.8330  -31.7400   23.3350 C   0  0  0  0  0  0  0  0  0  0  0  0
  -27.4720  -27.4160   20.1260 C   0  0  0  0  0  0  0  0  0  0  0  0
  -23.6320  -30.4300   21.6110 C   0  0  0  0  0  3  0  0  0  0  0  0
  -25.0900  -28.9350   20.1470 C   0  0  0  0  0  0  0  0  0  0  0  0
  -26.1610  -30.7620   21.4750 C   0  0  0  0  0  2  0  0  0  0  0  0
  -26.2370  -29.4190   20.7870 C   0  0  0  0  0  0  0  0  0  0  0  0
  -27.4310  -28.6670   20.7840 C   0  0  0  0  0  3  0  0  0  0  0  0
  -26.3150  -26.9480   19.4750 C   0  0  0  0  0  3  0  0  0  0  0  0
  -25.1200  -27.6930   19.4870 C   0  0  0  0  0  3  0  0  0  0  0  0
  -23.8560  -29.8060   20.2070 C   0  0  0  0  0  2  0  0  0  0  0  0
  -24.8920  -30.9890   22.2000 N   0  0  0  0  0  0  0  0  0  0  0  0
  -23.7470  -32.0080   23.8680 O   0  0  0  0  0  0  0  0  0  0  0  0
  -22.9510  -29.3790   22.5150 C   0  0  0  0  0  0  0  0  0  0  0  0
  -21.6220  -29.2490   22.3800 N   0  0  0  0  0  0  0  0  0  0  0  0
  -23.6150  -28.6850   23.2900 O   0  0  0  0  0  0  0  0  0  0  0  0
  -21.1510  -29.8580   21.7250 H   0  0  0  0  0  0  0  0  0  0  0  0
  -18.2080  -28.1740   22.8540 C   0  0  0  0  0  0  0  0  0  0  0  0
  -20.7770  -28.2990   23.1000 C   0  0  0  0  0  3  0  0  0  0  0  0
  -20.8060  -26.9070   22.4280 C   0  0  0  0  0  2  0  0  0  0  0  0
  -19.6780  -26.7010   21.4130 C   0  0  0  0  0  2  0  0  0  0  0  0
  -18.3130  -26.8660   22.0860 C   0  0  0  0  0  2  0  0  0  0  0  0
  -19.3650  -28.8540   23.3150 C   0  0  0  0  0  0  0  0  0  0  0  0
  -19.2140  -30.0850   23.9910 C   0  0  0  0  0  3  0  0  0  0  0  0
  -17.9360  -30.6330   24.2070 C   0  0  0  0  0  3  0  0  0  0  0  0
  -16.7920  -29.9500   23.7610 C   0  0  0  0  0  3  0  0  0  0  0  0
  -16.9280  -28.7200   23.0910 C   0  0  0  0  0  3  0  0  0  0  0  0
  -26.1190  -32.3180   24.0050 C   0  0  0  0  0  3  0  0  0  0  0  0
  -26.6350  -31.4530   25.2190 C   0  0  1  0  0  0  0  0  0  0  0  0
  -25.5370  -31.1230   26.2570 C   0  0  0  0  0  1  0  0  0  0  0  0
  -27.2330  -30.1150   24.7240 C   0  0  0  0  0  1  0  0  0  0  0  0
  -27.7790  -32.1990   25.9470 C   0  0  0  0  0  1  0  0  0  0  0  0
  -25.8160  -33.6900   24.4310 N   0  0  0  0  0  0  0  0  0  0  0  0
  -26.1250  -34.7880   23.7300 C   0  0  0  0  0  0  0  0  0  0  0  0
  -26.7680  -34.7540   22.6770 O   0  0  0  0  0  0  0  0  0  0  0  0
  -25.2430  -33.7930   25.2560 H   0  0  0  0  0  0  0  0  0  0  0  0
  -24.3780  -36.5860   23.5330 C   0  0  0  0  0  1  0  0  0  0  0  0
  -25.6430  -36.1420   24.2840 C   0  0  0  0  0  3  0  0  0  0  0  0
  -27.7900  -36.9920   25.1230 C   0  0  0  0  0  1  0  0  0  0  0  0
  -26.6680  -37.2060   24.2110 N   0  0  0  0  0  0  0  0  0  0  0  0
  -26.2600  -38.1150   24.4160 H   0  0  0  0  0  0  0  0  0  0  0  0
  -28.9840  -19.9020   20.8030 C   0  0  0  0  0  2  0  0  0  0  0  0
  -29.5390  -17.4950   20.4850 C   0  0  0  0  0  0  0  0  0  0  0  0
  -29.8410  -18.7990   20.3610 N   0  0  0  0  0  0  0  0  0  0  0  0
  -28.5160  -17.1080   21.0550 O   0  0  0  0  0  0  0  0  0  0  0  0
  -30.6870  -19.0450   19.8620 H   0  0  0  0  0  0  0  0  0  0  0  0
  -30.2470  -14.1810   19.1090 C   0  0  0  0  0  0  0  0  0  0  0  0
  -29.6810  -12.0220   18.0770 C   0  0  0  0  0  2  0  0  0  0  0  0
  -28.5100  -12.1310   17.0860 C   0  0  0  0  0  2  0  0  0  0  0  0
  -27.1800  -11.9130   17.8190 C   0  0  0  0  0  2  0  0  0  0  0  0
  -27.0540  -12.7900   19.0920 C   0  0  0  0  0  3  0  0  0  0  0  0
  -28.3280  -12.7460   19.9680 C   0  0  0  0  0  2  0  0  0  0  0  0
  -29.5140  -13.0330   19.1360 N   0  0  0  0  0  0  0  0  0  0  0  0
  -30.9850  -14.4540   18.1580 O   0  0  0  0  0  0  0  0  0  0  0  0
  -30.4830  -14.5930   21.5190 C   0  0  0  0  0  2  0  0  0  0  0  0
  -31.6650  -15.3630   22.1620 C   0  0  0  0  0  2  0  0  0  0  0  0
  -32.0310  -16.7410   20.1290 C   0  0  0  0  0  2  0  0  0  0  0  0
  -30.5180  -16.4740   19.8680 C   0  0  0  0  0  3  0  0  0  0  0  0
  -30.1680  -15.0520   20.1450 N   0  0  0  0  0  0  0  0  0  0  0  0
  -32.6250  -15.8380   21.1430 N   0  0  0  0  0  4  0  0  0  0  0  0
  -33.0120  -15.0320   20.6750 H   0  0  0  0  0  0  0  0  0  0  0  0
  -33.3950  -16.3090   21.5920 H   0  0  0  0  0  0  0  0  0  0  0  0
  -24.9040  -13.2750   20.4170 C   0  0  0  0  0  0  0  0  0  0  0  0
  -23.9650  -12.4490   20.9750 C   0  0  0  0  0  0  0  0  0  0  0  0
  -24.4080  -11.1150   20.7170 C   0  0  0  0  0  0  0  0  0  0  0  0
  -25.8620  -12.4390   19.8630 N   0  0  0  0  0  0  0  0  0  0  0  0
  -25.5820  -11.1310   20.0980 N   0  0  0  0  0  0  0  0  0  0  0  0
  -23.7540   -9.8270   20.9770 C   0  0  0  0  0  0  0  0  0  0  0  0
  -24.2630   -8.9180   21.9320 C   0  0  0  0  0  3  0  0  0  0  0  0
  -23.6050   -7.6910   22.1770 C   0  0  0  0  0  3  0  0  0  0  0  0
  -22.4230   -7.3670   21.4670 C   0  0  0  0  0  0  0  0  0  0  0  0
  -21.9340   -8.2650   20.5010 C   0  0  0  0  0  3  0  0  0  0  0  0
  -22.5950   -9.4800   20.2560 C   0  0  0  0  0  3  0  0  0  0  0  0
  -21.7330   -6.1880   21.6180 O   0  0  0  0  0  0  0  0  0  0  0  0
  -21.6420   -5.5590   22.8340 C   0  0  0  0  0  0  0  0  0  0  0  0
  -21.0520   -6.1840   23.9550 C   0  0  0  0  0  3  0  0  0  0  0  0
  -20.9170   -5.4770   25.1670 C   0  0  0  0  0  3  0  0  0  0  0  0
  -21.3630   -4.1440   25.2590 C   0  0  0  0  0  0  0  0  0  0  0  0
  -21.9400   -3.5170   24.1400 C   0  0  0  0  0  3  0  0  0  0  0  0
  -22.0790   -4.2230   22.9320 C   0  0  0  0  0  0  0  0  0  0  0  0
  -22.6200   -3.6070   21.8520 F   0  0  0  0  0  0  0  0  0  0  0  0
  -21.2210   -3.4590   26.4170 F   0  0  0  0  0  0  0  0  0  0  0  0
  -22.6780  -12.8690   21.6230 C   0  0  0  0  0  0  0  0  0  0  0  0
  -22.2330  -12.1270   22.6310 N   0  0  0  0  0  0  0  0  0  0  0  0
  -22.0820  -13.8860   21.2720 O   0  0  0  0  0  0  0  0  0  0  0  0
  -22.7410  -11.3100   22.9380 H   0  0  0  0  0  0  0  0  0  0  0  0
  -21.3760  -12.3830   23.1030 H   0  0  0  0  0  0  0  0  0  0  0  0
  -25.0210  -14.6570   20.3190 N   0  0  0  0  0  0  0  0  0  0  0  0
  -24.3150  -15.2950   20.6750 H   0  0  0  0  0  0  0  0  0  0  0  0
  -25.7830  -15.1350   19.8490 H   0  0  0  0  0  0  0  0  0  0  0  0
  1  2  1  0
  3  5  1  0
  3  7  1  0
  4  6  1  0
  5  8  1  0
  7  2  1  0
  7  4  1  0
  8  9  1  0
  8  6  1  0
  9 11  1  0
 10 21  2  0
 11 16  1  0
 12 20  1  0
 12 22  1  0
 13 19  1  0
 13 15  1  0
 14 20  1  0
 15 14  1  0
 16 15  2  0
 17 18  1  0
 17 11  2  0
 18 13  2  0
 19 12  1  0
 20 10  1  0
 22 24  2  0
 23 22  1  0
 25 23  1  0
 26 35  2  0
 26 31  1  0
 27 23  1  0
 27 31  1  0
 28 27  1  0
 29 30  1  0
 29 28  1  0
 30 26  1  0
 31 32  2  0
 32 33  1  0
 34 33  2  0
 35 34  1  0
 36 10  1  0
 36 41  1  0
 36 37  1  0
 37 40  1  1
 37 38  1  0
 39 37  1  0
 41 44  1  0
 42 46  1  0
 42 41  1  0
 43 42  2  0
 46 45  1  0
 48 46  1  0
 48 49  1  0
 48 47  1  0
 50  1  1  0
 51 53  2  0
 52 51  1  0
 52 50  1  0
 54 52  1  0
 55 61  1  0
 55 67  1  0
 56 61  1  0
 57 58  1  0
 57 56  1  0
 59 58  1  0
 59 74  1  0
 59 60  1  0
 61 60  1  0
 62 55  2  0
 63 64  1  0
 65 68  1  0
 66 65  1  0
 66 67  1  0
 66 51  1  0
 67 63  1  0
 68 70  1  0
 68 64  1  0
 69 68  1  0
 71 72  2  0
 72 91  1  0
 73 72  1  0
 73 76  1  0
 74 75  1  0
 74 71  1  0
 75 73  2  0
 76 77  1  0
 77 78  2  0
 79 82  1  0
 79 78  1  0
 80 79  2  0
 81 80  1  0
 81 76  2  0
 82 83  1  0
 83 88  2  0
 83 84  1  0
 84 85  2  0
 85 86  1  0
 86 90  1  0
 87 86  2  0
 88 87  1  0
 89 88  1  0
 91 92  1  0
 92 94  1  0
 92 95  1  0
 93 91  2  0
 96 71  1  0
 96 97  1  0
 98 96  1  0
M  ISO  4   8 101   9 101  55 100  67 100
M  END
>  <TORSDO>  (36) 
F 20

>  <SCORE>  (36) 
-9.261

>  <name>  (36) 
35

>  <ligand_id>  (36) 
35

>  <original_smiles>  (36) 
[H]c1c([H])c([H])c2c(c1[H])C([H])([H])C([H])([H])C([H])([H])C2([H])N([H])C(=O)C1([H])N(C(=O)C([H])(N([H])C(=O)C([H])(N([H])C([H])([H])[H])C([H])([H])[H])C(C([H])([H])[H])(C([H])([H])[H])C([H])([H])[H])C([H])([H])c2c([H])c(OC3([H])C([H])([H])C([H])([H])C([H])(C([H])([H])C([H])([H])C([H])([H])N([H])C(=O)C4([H])N(C(=O)N5C([H])([H])C([H])([H])C([H])([H])C([H])(n6nc(-c7c([H])c([H])c(Oc8c([H])c([H])c(F)c([H])c8F)c([H])c7[H])c(C(=O)N([H])[H])c6N([H])[H])C5([H])[H])C([H])([H])C([H])([H])[N+]([H])([H])C4([H])[H])C([H])([H])C3([H])[H])c([H])c([H])c2C1([H])[H]

>  <smiles>  (36) 
[H]c1c([H])c([H])c2c(c1[H])C([H])([H])C([H])([H])C([H])([H])C2([H])N([H])C(=O)C1([H])N(C(=O)C([H])(N([H])C(=O)C([H])(N([H])C([H])([H])[H])C([H])([H])[H])C(C([H])([H])[H])(C([H])([H])[H])C([H])([H])[H])C([H])([H])c2c([H])c(OC3([H])C([H])([H])C([H])([H])C([H])(C([H])([H])C([H])([H])C([H])([H])N([H])C(=O)C4([H])N(C(=O)N5C([H])([H])C([H])([H])C([H])([H])C([H])(n6nc(-c7c([H])c([H])c(Oc8c([H])c([H])c(F)c([H])c8F)c([H])c7[H])c(C(=O)N([H])[H])c6N([H])[H])C5([H])[H])C([H])([H])C([H])([H])[N+]([H])([H])C4([H])[H])C([H])([H])C3([H])[H])c([H])c([H])c2C1([H])[H]

$$$$
36:0:0
     RDKit          3D

100108  0  0  1  0  0  0  0  0999 V2000
  -27.4210  -19.5540   20.3680 C   0  0  0  0  0  2  0  0  0  0  0  0
  -28.7230  -17.4190   20.9540 C   0  0  0  0  0  0  0  0  0  0  0  0
  -29.2330  -17.8840   22.1090 N   0  0  0  0  0  4  0  0  0  0  0  0
  -27.9240  -18.1760   20.1610 N   0  0  0  0  0  0  0  0  0  0  0  0
  -29.7700  -17.2890   22.7260 H   0  0  0  0  0  0  0  0  0  0  0  0
  -29.1310  -18.8440   22.3980 H   0  0  0  0  0  0  0  0  0  0  0  0
  -27.5990  -17.7600   19.2970 H   0  0  0  0  0  0  0  0  0  0  0  0
  -28.9860  -15.9810   20.5740 C   0  0  0  0  0  2  0  0  0  0  0  0
  -30.7600  -14.5360   19.3890 C   0  0  0  0  0  0  0  0  0  0  0  0
  -30.4790  -12.1990   18.6400 C   0  0  0  0  0  2  0  0  0  0  0  0
  -29.4150  -12.1230   17.5260 C   0  0  0  0  0  2  0  0  0  0  0  0
  -28.0100  -11.9370   18.1310 C   0  0  0  0  0  2  0  0  0  0  0  0
  -27.7300  -12.9330   19.2880 C   0  0  0  0  0  3  0  0  0  0  0  0
  -28.9120  -12.9560   20.2870 C   0  0  0  0  0  2  0  0  0  0  0  0
  -30.1200  -13.3250   19.5350 N   0  0  0  0  0  0  0  0  0  0  0  0
  -31.7990  -14.5750   18.7270 O   0  0  0  0  0  0  0  0  0  0  0  0
  -30.2300  -15.7320   19.8210 N   0  0  0  0  0  0  0  0  0  0  0  0
  -25.4920  -13.5370   20.4060 C   0  0  0  0  0  0  0  0  0  0  0  0
  -24.4850  -12.7590   20.9070 C   0  0  0  0  0  0  0  0  0  0  0  0
  -24.9070  -11.4080   20.7330 C   0  0  0  0  0  0  0  0  0  0  0  0
  -26.4630  -12.6550   19.9550 N   0  0  0  0  0  0  0  0  0  0  0  0
  -26.1240  -11.3680   20.2100 N   0  0  0  0  0  0  0  0  0  0  0  0
  -24.1970  -10.1460   20.9760 C   0  0  0  0  0  0  0  0  0  0  0  0
  -24.6690   -9.2020   21.9140 C   0  0  0  0  0  3  0  0  0  0  0  0
  -23.9600   -8.0030   22.1440 C   0  0  0  0  0  3  0  0  0  0  0  0
  -22.7630   -7.7410   21.4340 C   0  0  0  0  0  0  0  0  0  0  0  0
  -22.3080   -8.6740   20.4860 C   0  0  0  0  0  3  0  0  0  0  0  0
  -23.0200   -9.8650   20.2560 C   0  0  0  0  0  3  0  0  0  0  0  0
  -22.0220   -6.5920   21.5700 O   0  0  0  0  0  0  0  0  0  0  0  0
  -21.8990   -5.9570   22.7800 C   0  0  0  0  0  0  0  0  0  0  0  0
  -21.3870   -6.6130   23.9190 C   0  0  0  0  0  3  0  0  0  0  0  0
  -21.2120   -5.9000   25.1210 C   0  0  0  0  0  3  0  0  0  0  0  0
  -21.5440   -4.5320   25.1850 C   0  0  0  0  0  0  0  0  0  0  0  0
  -22.0480   -3.8760   24.0500 C   0  0  0  0  0  3  0  0  0  0  0  0
  -22.2240   -4.5850   22.8490 C   0  0  0  0  0  0  0  0  0  0  0  0
  -22.6940   -3.9470   21.7500 F   0  0  0  0  0  0  0  0  0  0  0  0
  -21.3670   -3.8440   26.3370 F   0  0  0  0  0  0  0  0  0  0  0  0
  -23.1590  -13.2400   21.4230 C   0  0  0  0  0  0  0  0  0  0  0  0
  -22.5710  -12.5220   22.3740 N   0  0  0  0  0  0  0  0  0  0  0  0
  -22.6600  -14.2870   21.0160 O   0  0  0  0  0  0  0  0  0  0  0  0
  -22.9880  -11.6730   22.7240 H   0  0  0  0  0  0  0  0  0  0  0  0
  -21.6850  -12.8240   22.7510 H   0  0  0  0  0  0  0  0  0  0  0  0
  -25.6480  -14.9120   20.2740 N   0  0  0  0  0  0  0  0  0  0  0  0
  -24.8510  -15.5020   20.4880 H   0  0  0  0  0  0  0  0  0  0  0  0
  -26.2220  -15.2990   19.5380 H   0  0  0  0  0  0  0  0  0  0  0  0
  -30.9210  -16.9810   19.4060 C   0  0  0  0  0  2  0  0  0  0  0  0
  -33.2620  -19.5380   20.7360 C   0  0  0  0  0  2  0  0  0  0  0  0
  -31.9380  -19.6620   21.4790 C   0  0  0  0  0  2  0  0  0  0  0  0
  -32.9610  -18.4750   19.6870 C   0  0  0  0  0  2  0  0  0  0  0  0
  -31.4720  -18.2130   21.6190 C   0  0  0  0  0  2  0  0  0  0  0  0
  -32.0160  -17.4770   20.3810 C   0  0  0  0  0  3  0  0  0  0  0  0
  -28.4970  -20.5530   20.8260 C   0  0  0  0  0  2  0  0  0  0  0  0
  -28.0150  -22.0130   20.8770 C   0  0  0  0  0  2  0  0  0  0  0  0
  -29.1340  -22.9340   21.4070 C   0  0  0  0  0  2  0  0  0  0  0  0
  -28.7620  -24.3650   21.3710 N   0  0  0  0  0  4  0  0  0  0  0  0
  -28.1790  -24.5780   22.1650 H   0  0  0  0  0  0  0  0  0  0  0  0
  -28.2210  -24.5390   20.5380 H   0  0  0  0  0  0  0  0  0  0  0  0
  -29.9270  -25.2760   21.3270 C   0  0  0  0  0  2  0  0  0  0  0  0
  -29.5190  -26.7200   21.0110 C   0  0  0  0  0  2  0  0  0  0  0  0
  -28.7710  -26.7540   19.7890 O   0  0  0  0  0  0  0  0  0  0  0  0
  -24.7540  -31.5930   23.1180 C   0  0  0  0  0  0  0  0  0  0  0  0
  -27.6020  -27.4800   19.8280 C   0  0  0  0  0  0  0  0  0  0  0  0
  -23.6050  -30.2190   21.4060 C   0  0  0  0  0  3  0  0  0  0  0  0
  -25.1290  -28.8340   19.9030 C   0  0  0  0  0  0  0  0  0  0  0  0
  -26.1050  -30.7270   21.2130 C   0  0  0  0  0  2  0  0  0  0  0  0
  -26.2570  -29.3960   20.5150 C   0  0  0  0  0  0  0  0  0  0  0  0
  -27.4980  -28.7320   20.4710 C   0  0  0  0  0  3  0  0  0  0  0  0
  -26.4640  -26.9310   19.1990 C   0  0  0  0  0  3  0  0  0  0  0  0
  -25.2280  -27.6010   19.2380 C   0  0  0  0  0  3  0  0  0  0  0  0
  -23.8410  -29.6150   19.9930 C   0  0  0  0  0  2  0  0  0  0  0  0
  -24.8400  -30.8570   21.9730 N   0  0  0  0  0  0  0  0  0  0  0  0
  -23.6640  -31.7780   23.6730 O   0  0  0  0  0  0  0  0  0  0  0  0
  -23.0090  -29.1230   22.3170 C   0  0  0  0  0  0  0  0  0  0  0  0
  -21.7020  -28.8700   22.1630 N   0  0  0  0  0  0  0  0  0  0  0  0
  -23.7220  -28.5090   23.1170 O   0  0  0  0  0  0  0  0  0  0  0  0
  -21.1950  -29.4170   21.4820 H   0  0  0  0  0  0  0  0  0  0  0  0
  -18.4090  -27.4310   22.5400 C   0  0  0  0  0  0  0  0  0  0  0  0
  -20.9350  -27.8550   22.8830 C   0  0  0  0  0  3  0  0  0  0  0  0
  -21.1540  -26.4570   22.2630 C   0  0  0  0  0  2  0  0  0  0  0  0
  -20.0960  -26.0830   21.2220 C   0  0  0  0  0  2  0  0  0  0  0  0
  -18.6940  -26.1150   21.8350 C   0  0  0  0  0  2  0  0  0  0  0  0
  -19.4610  -28.2530   23.0220 C   0  0  0  0  0  0  0  0  0  0  0  0
  -19.1390  -29.4780   23.6440 C   0  0  0  0  0  3  0  0  0  0  0  0
  -17.7990  -29.8860   23.7900 C   0  0  0  0  0  3  0  0  0  0  0  0
  -16.7630  -29.0640   23.3200 C   0  0  0  0  0  3  0  0  0  0  0  0
  -17.0670  -27.8340   22.7090 C   0  0  0  0  0  3  0  0  0  0  0  0
  -26.0130  -32.2500   23.7670 C   0  0  0  0  0  3  0  0  0  0  0  0
  -26.5560  -31.4570   25.0170 C   0  0  1  0  0  0  0  0  0  0  0  0
  -25.4710  -31.1430   26.0720 C   0  0  0  0  0  1  0  0  0  0  0  0
  -27.1860  -30.1150   24.5740 C   0  0  0  0  0  1  0  0  0  0  0  0
  -27.6760  -32.2690   25.7080 C   0  0  0  0  0  1  0  0  0  0  0  0
  -25.6490  -33.6230   24.1400 N   0  0  0  0  0  0  0  0  0  0  0  0
  -25.9500  -34.7110   23.4160 C   0  0  0  0  0  0  0  0  0  0  0  0
  -26.6280  -34.6660   22.3870 O   0  0  0  0  0  0  0  0  0  0  0  0
  -25.0490  -33.7300   24.9450 H   0  0  0  0  0  0  0  0  0  0  0  0
  -24.1580  -36.4490   23.1050 C   0  0  0  0  0  1  0  0  0  0  0  0
  -25.4070  -36.0650   23.9130 C   0  0  0  0  0  3  0  0  0  0  0  0
  -27.5020  -37.0000   24.7910 C   0  0  0  0  0  1  0  0  0  0  0  0
  -26.3990  -37.1560   23.8430 N   0  0  0  0  0  0  0  0  0  0  0  0
  -25.9560  -38.0510   24.0200 H   0  0  0  0  0  0  0  0  0  0  0  0
  1 52  1  0
  2  3  2  0
  3  6  1  0
  3  5  1  0
  4  1  1  0
  4  2  1  0
  7  4  1  0
  8  2  1  0
  9 15  1  0
  9 17  1  0
 10 15  1  0
 11 12  1  0
 11 10  1  0
 13 12  1  0
 13 21  1  0
 13 14  1  0
 15 14  1  0
 16  9  2  0
 17  8  1  0
 18 19  2  0
 19 38  1  0
 20 19  1  0
 20 23  1  0
 21 22  1  0
 21 18  1  0
 22 20  2  0
 23 24  1  0
 24 25  2  0
 26 29  1  0
 26 25  1  0
 27 26  2  0
 28 27  1  0
 28 23  2  0
 29 30  1  0
 30 35  2  0
 30 31  1  0
 31 32  2  0
 32 33  1  0
 33 37  1  0
 34 33  2  0
 35 34  1  0
 36 35  1  0
 38 39  1  0
 39 41  1  0
 39 42  1  0
 40 38  2  0
 43 18  1  0
 43 44  1  0
 45 43  1  0
 46 17  1  0
 46 51  1  0
 47 48  1  0
 48 50  1  0
 49 51  1  0
 49 47  1  0
 51 50  1  0
 52 53  1  0
 53 54  1  0
 55 54  1  0
 55 56  1  0
 57 55  1  0
 58 55  1  0
 59 58  1  0
 60 62  1  0
 60 59  1  0
 61 72  2  0
 62 67  1  0
 63 71  1  0
 63 73  1  0
 64 70  1  0
 64 66  1  0
 65 71  1  0
 66 65  1  0
 67 66  2  0
 68 69  1  0
 68 62  2  0
 69 64  2  0
 70 63  1  0
 71 61  1  0
 73 75  2  0
 74 73  1  0
 76 74  1  0
 77 86  2  0
 77 82  1  0
 78 74  1  0
 78 82  1  0
 79 78  1  0
 80 81  1  0
 80 79  1  0
 81 77  1  0
 82 83  2  0
 83 84  1  0
 85 84  2  0
 86 85  1  0
 87 61  1  0
 87 92  1  0
 87 88  1  0
 88 91  1  1
 88 89  1  0
 90 88  1  0
 92 95  1  0
 93 97  1  0
 93 92  1  0
 94 93  2  0
 97 96  1  0
 99 97  1  0
 99100  1  0
 99 98  1  0
M  ISO  4   9 100  17 100  59 101  60 101
M  END
>  <TORSDO>  (37) 
F 26

>  <SCORE>  (37) 
-9.905

>  <name>  (37) 
36

>  <ligand_id>  (37) 
36

>  <original_smiles>  (37) 
[H]c1c([H])c([H])c2c(c1[H])C([H])([H])C([H])([H])C([H])([H])C2([H])N([H])C(=O)C1([H])N(C(=O)C([H])(N([H])C(=O)C([H])(N([H])C([H])([H])[H])C([H])([H])[H])C(C([H])([H])[H])(C([H])([H])[H])C([H])([H])[H])C([H])([H])c2c([H])c(OC([H])([H])C([H])([H])[N+]([H])([H])C([H])([H])C([H])([H])C([H])([H])C([H])([H])[N+]([H])=C(N([H])[H])C([H])([H])N(C(=O)N3C([H])([H])C([H])([H])C([H])([H])C([H])(n4nc(-c5c([H])c([H])c(Oc6c([H])c([H])c(F)c([H])c6F)c([H])c5[H])c(C(=O)N([H])[H])c4N([H])[H])C3([H])[H])C([H])([H])C3([H])C([H])([H])C([H])([H])C([H])([H])C3([H])[H])c([H])c([H])c2C1([H])[H]

>  <smiles>  (37) 
[H]c1c([H])c([H])c2c(c1[H])C([H])([H])C([H])([H])C([H])([H])C2([H])N([H])C(=O)C1([H])N(C(=O)C([H])(N([H])C(=O)C([H])(N([H])C([H])([H])[H])C([H])([H])[H])C(C([H])([H])[H])(C([H])([H])[H])C([H])([H])[H])C([H])([H])c2c([H])c(OC([H])([H])C([H])([H])[N+]([H])([H])C([H])([H])C([H])([H])C([H])([H])C([H])([H])[N+]([H])=C(N([H])[H])C([H])([H])N(C(=O)N3C([H])([H])C([H])([H])C([H])([H])C([H])(n4nc(-c5c([H])c([H])c(Oc6c([H])c([H])c(F)c([H])c6F)c([H])c5[H])c(C(=O)N([H])[H])c4N([H])[H])C3([H])[H])C([H])([H])C3([H])C([H])([H])C([H])([H])C([H])([H])C3([H])[H])c([H])c([H])c2C1([H])[H]

$$$$
38:0:0
     RDKit          3D

 98106  0  0  1  0  0  0  0  0999 V2000
  -31.9750  -22.0750   20.7190 C   0  0  0  0  0  2  0  0  0  0  0  0
  -30.4100  -23.8380   20.3210 C   0  0  0  0  0  2  0  0  0  0  0  0
  -30.9410  -21.0430   20.3020 C   0  0  0  0  0  2  0  0  0  0  0  0
  -31.7780  -23.3270   19.9000 C   0  0  0  0  0  3  0  0  0  0  0  0
  -29.1630  -22.9350   20.0640 C   0  0  0  0  0  3  0  0  0  0  0  0
  -29.5090  -21.3440   20.5400 N   0  0  0  0  0  0  0  0  0  0  0  0
  -32.8770  -24.3900   20.1430 C   0  0  0  0  0  2  0  0  0  0  0  0
  -34.1920  -23.9860   19.6160 N   0  0  0  0  0  4  0  0  0  0  0  0
  -34.5430  -23.1780   20.0970 H   0  0  0  0  0  0  0  0  0  0  0  0
  -34.8530  -24.7320   19.7440 H   0  0  0  0  0  0  0  0  0  0  0  0
  -34.1380  -23.7860   18.6340 H   0  0  0  0  0  0  0  0  0  0  0  0
  -28.0390  -24.2880   20.4620 C   0  0  0  0  0  2  0  0  0  0  0  0
  -28.2060  -25.9280   20.2920 O   0  0  0  0  0  0  0  0  0  0  0  0
  -24.5850  -31.8960   23.1970 C   0  0  0  0  0  0  0  0  0  0  0  0
  -27.1710  -26.9990   20.2540 C   0  0  0  0  0  0  0  0  0  0  0  0
  -23.4100  -30.4920   21.5530 C   0  0  0  0  0  3  0  0  0  0  0  0
  -24.8730  -28.8730   20.1640 C   0  0  0  0  0  0  0  0  0  0  0  0
  -25.9770  -30.7000   21.4360 C   0  0  0  0  0  2  0  0  0  0  0  0
  -26.0540  -29.2860   20.7920 C   0  0  0  0  0  0  0  0  0  0  0  0
  -27.1990  -28.3710   20.8060 C   0  0  0  0  0  3  0  0  0  0  0  0
  -25.9580  -26.7310   19.5810 C   0  0  0  0  0  3  0  0  0  0  0  0
  -24.8480  -27.6150   19.5370 C   0  0  0  0  0  3  0  0  0  0  0  0
  -23.6550  -29.7960   20.1850 C   0  0  0  0  0  2  0  0  0  0  0  0
  -24.6790  -31.0560   22.1160 N   0  0  0  0  0  0  0  0  0  0  0  0
  -23.4900  -32.1910   23.7030 O   0  0  0  0  0  0  0  0  0  0  0  0
  -22.7010  -29.5040   22.5160 C   0  0  0  0  0  0  0  0  0  0  0  0
  -21.3700  -29.3490   22.3810 N   0  0  0  0  0  0  0  0  0  0  0  0
  -23.3550  -28.8770   23.3530 O   0  0  0  0  0  0  0  0  0  0  0  0
  -20.8950  -29.9060   21.6840 H   0  0  0  0  0  0  0  0  0  0  0  0
  -17.9710  -28.1860   22.8880 C   0  0  0  0  0  0  0  0  0  0  0  0
  -20.5350  -28.4190   23.1490 C   0  0  0  0  0  3  0  0  0  0  0  0
  -20.6170  -26.9880   22.5680 C   0  0  0  0  0  2  0  0  0  0  0  0
  -19.5090  -26.6840   21.5530 C   0  0  0  0  0  2  0  0  0  0  0  0
  -18.1310  -26.8410   22.2000 C   0  0  0  0  0  2  0  0  0  0  0  0
  -19.1000  -28.9340   23.3190 C   0  0  0  0  0  0  0  0  0  0  0  0
  -18.8930  -30.1930   23.9250 C   0  0  0  0  0  3  0  0  0  0  0  0
  -17.5950  -30.7040   24.1000 C   0  0  0  0  0  3  0  0  0  0  0  0
  -16.4810  -29.9540   23.6830 C   0  0  0  0  0  3  0  0  0  0  0  0
  -16.6700  -28.6970   23.0840 C   0  0  0  0  0  3  0  0  0  0  0  0
  -25.8490  -32.5390   23.8430 C   0  0  0  0  0  3  0  0  0  0  0  0
  -26.3430  -31.7750   25.1330 C   0  0  1  0  0  0  0  0  0  0  0  0
  -25.2320  -31.5400   26.1840 C   0  0  0  0  0  1  0  0  0  0  0  0
  -26.9350  -30.3950   24.7650 C   0  0  0  0  0  1  0  0  0  0  0  0
  -27.4820  -32.5720   25.8120 C   0  0  0  0  0  1  0  0  0  0  0  0
  -25.5260  -33.9380   24.1780 N   0  0  0  0  0  0  0  0  0  0  0  0
  -25.8610  -35.0020   23.4370 C   0  0  0  0  0  0  0  0  0  0  0  0
  -26.5370  -34.9100   22.4100 O   0  0  0  0  0  0  0  0  0  0  0  0
  -24.9240  -34.0820   24.9760 H   0  0  0  0  0  0  0  0  0  0  0  0
  -24.1330  -36.8040   23.0970 C   0  0  0  0  0  1  0  0  0  0  0  0
  -25.3710  -36.3880   23.9070 C   0  0  0  0  0  3  0  0  0  0  0  0
  -27.5000  -37.2710   24.7590 C   0  0  0  0  0  1  0  0  0  0  0  0
  -26.4040  -37.4430   23.8090 N   0  0  0  0  0  0  0  0  0  0  0  0
  -25.9960  -38.3630   23.9580 H   0  0  0  0  0  0  0  0  0  0  0  0
  -28.9960  -19.7800   20.3080 C   0  0  0  0  0  3  0  0  0  0  0  0
  -29.9450  -18.2220   20.4530 C   0  0  0  0  0  2  0  0  0  0  0  0
  -30.3630  -15.3170   20.2610 C   0  0  0  0  0  0  0  0  0  0  0  0
  -30.3290  -12.8890   19.3440 C   0  0  0  0  0  2  0  0  0  0  0  0
  -29.3850  -12.7000   18.1310 C   0  0  0  0  0  2  0  0  0  0  0  0
  -27.9490  -12.4100   18.6020 C   0  0  0  0  0  2  0  0  0  0  0  0
  -27.5150  -13.3510   19.7530 C   0  0  0  0  0  3  0  0  0  0  0  0
  -28.5880  -13.4930   20.8550 C   0  0  0  0  0  2  0  0  0  0  0  0
  -29.7970  -14.0140   20.1970 N   0  0  0  0  0  0  0  0  0  0  0  0
  -31.5800  -15.3240   20.0280 O   0  0  0  0  0  0  0  0  0  0  0  0
  -29.6040  -16.5870   20.3850 N   0  0  0  0  0  0  0  0  0  0  0  0
  -28.6200  -16.4020   20.5060 H   0  0  0  0  0  0  0  0  0  0  0  0
  -25.1590  -13.8780   20.5690 C   0  0  0  0  0  0  0  0  0  0  0  0
  -24.1120  -13.0850   20.9490 C   0  0  0  0  0  0  0  0  0  0  0  0
  -24.5900  -11.7400   20.8850 C   0  0  0  0  0  0  0  0  0  0  0  0
  -26.2040  -13.0160   20.2870 N   0  0  0  0  0  0  0  0  0  0  0  0
  -25.8750  -11.7220   20.5460 N   0  0  0  0  0  0  0  0  0  0  0  0
  -23.8770  -10.4680   21.0690 C   0  0  0  0  0  0  0  0  0  0  0  0
  -24.3280   -9.4940   21.9860 C   0  0  0  0  0  3  0  0  0  0  0  0
  -23.6110   -8.2900   22.1610 C   0  0  0  0  0  3  0  0  0  0  0  0
  -22.4300   -8.0510   21.4180 C   0  0  0  0  0  0  0  0  0  0  0  0
  -21.9990   -9.0160   20.4900 C   0  0  0  0  0  3  0  0  0  0  0  0
  -22.7160  -10.2110   20.3130 C   0  0  0  0  0  3  0  0  0  0  0  0
  -21.6860   -6.9000   21.5020 O   0  0  0  0  0  0  0  0  0  0  0  0
  -21.6510   -6.1490   22.6490 C   0  0  0  0  0  0  0  0  0  0  0  0
  -21.2080   -6.6840   23.8780 C   0  0  0  0  0  3  0  0  0  0  0  0
  -21.1200   -5.8570   25.0160 C   0  0  0  0  0  3  0  0  0  0  0  0
  -21.4660   -4.4950   24.9260 C   0  0  0  0  0  0  0  0  0  0  0  0
  -21.9030   -3.9590   23.7020 C   0  0  0  0  0  3  0  0  0  0  0  0
  -21.9920   -4.7830   22.5660 C   0  0  0  0  0  0  0  0  0  0  0  0
  -22.3910   -4.2560   21.3840 F   0  0  0  0  0  0  0  0  0  0  0  0
  -21.3760   -3.6990   26.0160 F   0  0  0  0  0  0  0  0  0  0  0  0
  -22.7170  -13.5460   21.2520 C   0  0  0  0  0  0  0  0  0  0  0  0
  -22.0110  -12.8320   22.1200 N   0  0  0  0  0  0  0  0  0  0  0  0
  -22.2640  -14.5770   20.7550 O   0  0  0  0  0  0  0  0  0  0  0  0
  -22.3910  -11.9990   22.5440 H   0  0  0  0  0  0  0  0  0  0  0  0
  -21.0760  -13.1240   22.3660 H   0  0  0  0  0  0  0  0  0  0  0  0
  -25.3040  -15.2520   20.4090 N   0  0  0  0  0  0  0  0  0  0  0  0
  -24.5250  -15.8900   20.5380 H   0  0  0  0  0  0  0  0  0  0  0  0
  -26.1240  -15.7020   20.0260 H   0  0  0  0  0  0  0  0  0  0  0  0
  -28.2590  -19.7520   18.9550 C   0  0  0  0  0  2  0  0  0  0  0  0
  -27.0330  -20.5580   19.0060 N   0  0  0  0  0  4  0  0  0  0  0  0
  -26.3600  -20.1400   19.6240 H   0  0  0  0  0  0  0  0  0  0  0  0
  -26.6250  -20.6430   18.0930 H   0  0  0  0  0  0  0  0  0  0  0  0
  -27.2690  -21.4660   19.3570 H   0  0  0  0  0  0  0  0  0  0  0  0
  3  6  1  0
  3  1  1  0
  4  7  1  0
  4  2  1  0
  4  1  1  0
  5  2  1  0
  5 12  1  0
  5  6  1  0
  8 10  1  0
  8  9  1  0
  8  7  1  0
 11  8  1  0
 13 12  1  0
 14 25  2  0
 15 13  1  0
 15 20  1  0
 16 24  1  0
 16 26  1  0
 17 23  1  0
 17 19  1  0
 18 24  1  0
 19 20  2  0
 19 18  1  0
 21 15  2  0
 22 21  1  0
 22 17  2  0
 23 16  1  0
 24 14  1  0
 26 28  2  0
 27 26  1  0
 29 27  1  0
 30 39  2  0
 30 35  1  0
 31 27  1  0
 31 35  1  0
 32 31  1  0
 33 34  1  0
 33 32  1  0
 34 30  1  0
 35 36  2  0
 36 37  1  0
 38 37  2  0
 39 38  1  0
 40 14  1  0
 40 45  1  0
 40 41  1  0
 41 44  1  1
 41 42  1  0
 43 41  1  0
 45 48  1  0
 46 50  1  0
 46 45  1  0
 47 46  2  0
 50 49  1  0
 52 50  1  0
 52 53  1  0
 52 51  1  0
 54 94  1  0
 54 55  1  0
 54  6  1  0
 56 64  1  0
 57 62  1  0
 58 59  1  0
 58 57  1  0
 60 59  1  0
 60 69  1  0
 60 61  1  0
 62 56  1  0
 62 61  1  0
 63 56  2  0
 64 55  1  0
 64 65  1  0
 66 67  2  0
 67 86  1  0
 68 67  1  0
 68 71  1  0
 69 70  1  0
 69 66  1  0
 70 68  2  0
 71 72  1  0
 72 73  2  0
 74 77  1  0
 74 73  1  0
 75 74  2  0
 76 75  1  0
 76 71  2  0
 77 78  1  0
 78 79  1  0
 79 80  2  0
 81 80  1  0
 81 85  1  0
 82 81  2  0
 83 78  2  0
 83 82  1  0
 84 83  1  0
 86 87  1  0
 87 90  1  0
 87 89  1  0
 88 86  2  0
 91 92  1  0
 91 66  1  0
 93 91  1  0
 94 95  1  0
 95 98  1  0
 95 96  1  0
 97 95  1  0
M  ISO  4  12 101  13 101  56 100  64 100
M  END
>  <TORSDO>  (38) 
F 23

>  <SCORE>  (38) 
-14.754

>  <name>  (38) 
38

>  <ligand_id>  (38) 
38

>  <original_smiles>  (38) 
[H]c1c([H])c([H])c2c(c1[H])C([H])([H])C([H])([H])C([H])([H])C2([H])N([H])C(=O)C1([H])N(C(=O)C([H])(N([H])C(=O)C([H])(N([H])C([H])([H])[H])C([H])([H])[H])C(C([H])([H])[H])(C([H])([H])[H])C([H])([H])[H])C([H])([H])c2c([H])c(OC([H])([H])C3([H])N(C([H])(C([H])([H])N([H])C(=O)N4C([H])([H])C([H])([H])C([H])([H])C([H])(n5nc(-c6c([H])c([H])c(Oc7c([H])c([H])c(F)c([H])c7F)c([H])c6[H])c(C(=O)N([H])[H])c5N([H])[H])C4([H])[H])C([H])([H])[N+]([H])([H])[H])C([H])([H])C([H])([H])C([H])(C([H])([H])[N+]([H])([H])[H])C3([H])[H])c([H])c([H])c2C1([H])[H]

>  <smiles>  (38) 
[H]c1c([H])c([H])c2c(c1[H])C([H])([H])C([H])([H])C([H])([H])C2([H])N([H])C(=O)C1([H])N(C(=O)C([H])(N([H])C(=O)C([H])(N([H])C([H])([H])[H])C([H])([H])[H])C(C([H])([H])[H])(C([H])([H])[H])C([H])([H])[H])C([H])([H])c2c([H])c(OC([H])([H])C3([H])N(C([H])(C([H])([H])N([H])C(=O)N4C([H])([H])C([H])([H])C([H])([H])C([H])(n5nc(-c6c([H])c([H])c(Oc7c([H])c([H])c(F)c([H])c7F)c([H])c6[H])c(C(=O)N([H])[H])c5N([H])[H])C4([H])[H])C([H])([H])[N+]([H])([H])[H])C([H])([H])C([H])([H])C([H])(C([H])([H])[N+]([H])([H])[H])C3([H])[H])c([H])c([H])c2C1([H])[H]

$$$$
39:0:0
     RDKit          3D

101110  0  0  1  0  0  0  0  0999 V2000
  -31.7210  -19.3690   17.3450 C   0  0  0  0  0  2  0  0  0  0  0  0
  -32.3830  -18.2110   16.5940 C   0  0  0  0  0  2  0  0  0  0  0  0
  -31.1300  -16.6430   17.9320 C   0  0  0  0  0  2  0  0  0  0  0  0
  -30.4950  -17.7930   18.7660 C   0  0  0  0  0  3  0  0  0  0  0  0
  -31.3270  -19.0490   18.7310 N   0  0  0  0  0  0  0  0  0  0  0  0
  -31.4490  -17.0790   16.5600 N   0  0  0  0  0  4  0  0  0  0  0  0
  -31.8650  -16.3150   16.0560 H   0  0  0  0  0  0  0  0  0  0  0  0
  -30.6100  -17.3520   16.0710 H   0  0  0  0  0  0  0  0  0  0  0  0
  -30.6550  -20.2340   19.3250 C   0  0  0  0  0  2  0  0  0  0  0  0
  -31.4100  -21.5880   19.2930 C   0  0  0  0  0  2  0  0  0  0  0  0
  -31.7670  -23.6380   18.0510 C   0  0  0  0  0  1  0  0  0  0  0  0
  -30.7630  -22.6690   18.5050 N   0  0  0  0  0  0  0  0  0  0  0  0
  -29.6730  -23.3310   19.2720 C   0  0  0  0  0  2  0  0  0  0  0  0
  -29.0270  -24.6290   18.6710 C   0  0  0  0  0  2  0  0  0  0  0  0
  -28.1590  -25.4280   19.6920 C   0  0  0  0  0  2  0  0  0  0  0  0
  -28.1800  -26.8590   19.4790 O   0  0  0  0  0  0  0  0  0  0  0  0
  -24.5460  -31.8930   23.0960 C   0  0  0  0  0  0  0  0  0  0  0  0
  -27.0020  -27.5730   19.6310 C   0  0  0  0  0  0  0  0  0  0  0  0
  -23.2530  -30.5660   21.4590 C   0  0  0  0  0  3  0  0  0  0  0  0
  -24.6190  -29.0930   19.8860 C   0  0  0  0  0  0  0  0  0  0  0  0
  -25.7790  -30.9060   21.1620 C   0  0  0  0  0  2  0  0  0  0  0  0
  -25.8160  -29.5760   20.4310 C   0  0  0  0  0  0  0  0  0  0  0  0
  -27.0110  -28.8270   20.2900 C   0  0  0  0  0  3  0  0  0  0  0  0
  -25.7810  -27.1070   19.0890 C   0  0  0  0  0  3  0  0  0  0  0  0
  -24.6000  -27.8610   19.2140 C   0  0  0  0  0  3  0  0  0  0  0  0
  -23.3870  -29.9560   20.0410 C   0  0  0  0  0  2  0  0  0  0  0  0
  -24.5450  -31.1400   21.9580 N   0  0  0  0  0  0  0  0  0  0  0  0
  -23.4920  -32.1420   23.7000 O   0  0  0  0  0  0  0  0  0  0  0  0
  -22.6490  -29.5000   22.4020 C   0  0  0  0  0  0  0  0  0  0  0  0
  -21.3220  -29.3040   22.3110 N   0  0  0  0  0  0  0  0  0  0  0  0
  -23.3640  -28.8570   23.1740 O   0  0  0  0  0  0  0  0  0  0  0  0
  -20.8060  -29.8800   21.6610 H   0  0  0  0  0  0  0  0  0  0  0  0
  -17.9850  -28.0120   22.8460 C   0  0  0  0  0  0  0  0  0  0  0  0
  -20.5420  -28.3270   23.0680 C   0  0  0  0  0  3  0  0  0  0  0  0
  -20.6660  -26.9150   22.4500 C   0  0  0  0  0  2  0  0  0  0  0  0
  -19.5480  -26.5900   21.4540 C   0  0  0  0  0  2  0  0  0  0  0  0
  -18.1760  -26.6870   22.1300 C   0  0  0  0  0  2  0  0  0  0  0  0
  -19.0970  -28.7910   23.2700 C   0  0  0  0  0  0  0  0  0  0  0  0
  -18.8630  -30.0330   23.8990 C   0  0  0  0  0  3  0  0  0  0  0  0
  -17.5520  -30.5020   24.1060 C   0  0  0  0  0  3  0  0  0  0  0  0
  -16.4540  -29.7230   23.6950 C   0  0  0  0  0  3  0  0  0  0  0  0
  -16.6730  -28.4790   23.0740 C   0  0  0  0  0  3  0  0  0  0  0  0
  -25.8610  -32.4970   23.6800 C   0  0  0  0  0  3  0  0  0  0  0  0
  -26.4390  -31.6750   24.8970 C   0  0  1  0  0  0  0  0  0  0  0  0
  -25.3950  -31.3960   26.0040 C   0  0  0  0  0  1  0  0  0  0  0  0
  -26.9940  -30.3140   24.4200 C   0  0  0  0  0  1  0  0  0  0  0  0
  -27.6170  -32.4440   25.5380 C   0  0  0  0  0  1  0  0  0  0  0  0
  -25.5710  -33.8780   24.0840 N   0  0  0  0  0  0  0  0  0  0  0  0
  -25.8800  -34.9660   23.3640 C   0  0  0  0  0  0  0  0  0  0  0  0
  -26.5110  -34.9090   22.3050 O   0  0  0  0  0  0  0  0  0  0  0  0
  -25.0030  -33.9960   24.9110 H   0  0  0  0  0  0  0  0  0  0  0  0
  -24.1390  -36.7710   23.1640 C   0  0  0  0  0  1  0  0  0  0  0  0
  -25.4130  -36.3320   23.9040 C   0  0  0  0  0  3  0  0  0  0  0  0
  -27.5810  -37.1660   24.6950 C   0  0  0  0  0  1  0  0  0  0  0  0
  -26.4440  -37.3880   23.8050 N   0  0  0  0  0  0  0  0  0  0  0  0
  -26.0480  -38.2990   24.0200 H   0  0  0  0  0  0  0  0  0  0  0  0
  -29.9990  -17.3480   20.2190 C   0  0  0  0  0  3  0  0  0  0  0  0
  -30.8460  -14.8840   20.6060 C   0  0  0  0  0  0  0  0  0  0  0  0
  -30.7340  -12.5750   19.7630 C   0  0  0  0  0  2  0  0  0  0  0  0
  -29.8930  -12.6370   18.4700 C   0  0  0  0  0  2  0  0  0  0  0  0
  -28.3800  -12.5400   18.7710 C   0  0  0  0  0  2  0  0  0  0  0  0
  -27.9320  -13.4710   19.9300 C   0  0  0  0  0  3  0  0  0  0  0  0
  -28.8990  -13.3860   21.1320 C   0  0  0  0  0  2  0  0  0  0  0  0
  -30.2570  -13.6590   20.6330 N   0  0  0  0  0  0  0  0  0  0  0  0
  -32.0480  -15.0610   20.4060 O   0  0  0  0  0  0  0  0  0  0  0  0
  -29.9390  -15.8820   20.5000 N   0  0  0  0  0  0  0  0  0  0  0  0
  -29.0040  -15.5360   20.6540 H   0  0  0  0  0  0  0  0  0  0  0  0
  -25.5090  -14.1350   20.4870 C   0  0  0  0  0  0  0  0  0  0  0  0
  -24.4020  -13.3830   20.7860 C   0  0  0  0  0  0  0  0  0  0  0  0
  -24.8370  -12.0240   20.7850 C   0  0  0  0  0  0  0  0  0  0  0  0
  -26.5480  -13.2290   20.3200 N   0  0  0  0  0  0  0  0  0  0  0  0
  -26.1430  -11.9560   20.5520 N   0  0  0  0  0  0  0  0  0  0  0  0
  -24.0700  -10.7810   20.9370 C   0  0  0  0  0  0  0  0  0  0  0  0
  -24.4530   -9.7850   21.8670 C   0  0  0  0  0  3  0  0  0  0  0  0
  -23.6890   -8.6050   22.0010 C   0  0  0  0  0  3  0  0  0  0  0  0
  -22.5320   -8.4130   21.2060 C   0  0  0  0  0  0  0  0  0  0  0  0
  -22.1710   -9.3980   20.2710 C   0  0  0  0  0  3  0  0  0  0  0  0
  -22.9320  -10.5710   20.1350 C   0  0  0  0  0  3  0  0  0  0  0  0
  -21.7410   -7.2910   21.2510 O   0  0  0  0  0  0  0  0  0  0  0  0
  -21.6800   -6.4990   22.3690 C   0  0  0  0  0  0  0  0  0  0  0  0
  -21.3080   -7.0170   23.6300 C   0  0  0  0  0  3  0  0  0  0  0  0
  -21.1910   -6.1570   24.7400 C   0  0  0  0  0  3  0  0  0  0  0  0
  -21.4350   -4.7770   24.5910 C   0  0  0  0  0  0  0  0  0  0  0  0
  -21.8040   -4.2600   23.3390 C   0  0  0  0  0  3  0  0  0  0  0  0
  -21.9260   -5.1180   22.2320 C   0  0  0  0  0  0  0  0  0  0  0  0
  -22.2610   -4.6120   21.0210 F   0  0  0  0  0  0  0  0  0  0  0  0
  -21.3180   -3.9480   25.6550 F   0  0  0  0  0  0  0  0  0  0  0  0
  -23.0050  -13.9020   20.9710 C   0  0  0  0  0  0  0  0  0  0  0  0
  -22.2150  -13.2280   21.7980 N   0  0  0  0  0  0  0  0  0  0  0  0
  -22.6210  -14.9310   20.4220 O   0  0  0  0  0  0  0  0  0  0  0  0
  -22.5410  -12.3950   22.2660 H   0  0  0  0  0  0  0  0  0  0  0  0
  -21.2760  -13.5520   21.9700 H   0  0  0  0  0  0  0  0  0  0  0  0
  -25.7100  -15.5010   20.3210 N   0  0  0  0  0  0  0  0  0  0  0  0
  -24.9420  -16.1610   20.3790 H   0  0  0  0  0  0  0  0  0  0  0  0
  -26.5760  -15.9320   20.0340 H   0  0  0  0  0  0  0  0  0  0  0  0
  -28.5050  -17.8020   20.4890 C   0  0  0  0  0  2  0  0  0  0  0  0
  -26.4160  -20.9060   19.2690 C   0  0  0  0  0  2  0  0  0  0  0  0
  -26.1580  -19.8720   18.1700 C   0  0  0  0  0  2  0  0  0  0  0  0
  -27.6330  -20.3620   20.0290 C   0  0  0  0  0  2  0  0  0  0  0  0
  -26.6100  -18.5240   18.7450 C   0  0  0  0  0  2  0  0  0  0  0  0
  -27.3880  -18.8280   20.0540 C   0  0  0  0  0  3  0  0  0  0  0  0
  1  5  1  0
  2  1  1  0
  3  4  1  0
  4 57  1  0
  5  4  1  0
  5  9  1  0
  6  2  1  0
  6  3  1  0
  7  6  1  0
  8  6  1  0
 10  9  1  0
 11 12  1  0
 12 13  1  0
 12 10  1  0
 14 13  1  0
 14 15  1  0
 16 18  1  0
 16 15  1  0
 17 28  2  0
 18 23  1  0
 19 27  1  0
 19 29  1  0
 20 26  1  0
 20 22  1  0
 21 27  1  0
 22 21  1  0
 23 22  2  0
 24 25  1  0
 24 18  2  0
 25 20  2  0
 26 19  1  0
 27 17  1  0
 29 31  2  0
 30 29  1  0
 32 30  1  0
 33 42  2  0
 33 38  1  0
 34 30  1  0
 34 38  1  0
 35 34  1  0
 36 37  1  0
 36 35  1  0
 37 33  1  0
 38 39  2  0
 39 40  1  0
 41 40  2  0
 42 41  1  0
 43 17  1  0
 43 48  1  0
 43 44  1  0
 44 47  1  1
 44 45  1  0
 46 44  1  0
 48 51  1  0
 49 53  1  0
 49 48  1  0
 50 49  2  0
 53 52  1  0
 55 53  1  0
 55 56  1  0
 55 54  1  0
 57 96  1  0
 57 66  1  0
 58 64  1  0
 59 64  1  0
 60 61  1  0
 60 59  1  0
 62 61  1  0
 62 71  1  0
 62 63  1  0
 64 63  1  0
 65 58  2  0
 66 58  1  0
 66 67  1  0
 68 69  2  0
 69 88  1  0
 70 69  1  0
 70 73  1  0
 71 68  1  0
 71 72  1  0
 72 70  2  0
 73 74  1  0
 74 75  2  0
 76 79  1  0
 76 75  1  0
 77 76  2  0
 78 77  1  0
 78 73  2  0
 79 80  1  0
 80 81  1  0
 81 82  2  0
 83 82  1  0
 83 87  1  0
 84 83  2  0
 85 80  2  0
 85 84  1  0
 86 85  1  0
 88 89  1  0
 89 92  1  0
 89 91  1  0
 90 88  2  0
 93 94  1  0
 93 68  1  0
 95 93  1  0
 97 99  1  0
 98100  1  0
 98 97  1  0
 99101  1  0
100101  1  0
101 96  1  0
M  ISO  4  15 101  16 101  58 100  66 100
M  END
>  <TORSDO>  (39) 
F 25

>  <SCORE>  (39) 
-11.114

>  <name>  (39) 
39

>  <ligand_id>  (39) 
39

>  <original_smiles>  (39) 
[H]c1c([H])c([H])c2c(c1[H])C([H])([H])C([H])([H])C([H])([H])C2([H])N([H])C(=O)C1([H])N(C(=O)C([H])(N([H])C(=O)C([H])(N([H])C([H])([H])[H])C([H])([H])[H])C(C([H])([H])[H])(C([H])([H])[H])C([H])([H])[H])C([H])([H])c2c([H])c(OC([H])([H])C([H])([H])C([H])([H])N(C([H])([H])[H])C([H])([H])C([H])([H])N3C([H])([H])C([H])([H])[N+]([H])([H])C([H])([H])C3([H])C([H])(N([H])C(=O)N3C([H])([H])C([H])([H])C([H])([H])C([H])(n4nc(-c5c([H])c([H])c(Oc6c([H])c([H])c(F)c([H])c6F)c([H])c5[H])c(C(=O)N([H])[H])c4N([H])[H])C3([H])[H])C([H])([H])C3([H])C([H])([H])C([H])([H])C([H])([H])C3([H])[H])c([H])c([H])c2C1([H])[H]

>  <smiles>  (39) 
[H]c1c([H])c([H])c2c(c1[H])C([H])([H])C([H])([H])C([H])([H])C2([H])N([H])C(=O)C1([H])N(C(=O)C([H])(N([H])C(=O)C([H])(N([H])C([H])([H])[H])C([H])([H])[H])C(C([H])([H])[H])(C([H])([H])[H])C([H])([H])[H])C([H])([H])c2c([H])c(OC([H])([H])C([H])([H])C([H])([H])N(C([H])([H])[H])C([H])([H])C([H])([H])N3C([H])([H])C([H])([H])[N+]([H])([H])C([H])([H])C3([H])C([H])(N([H])C(=O)N3C([H])([H])C([H])([H])C([H])([H])C([H])(n4nc(-c5c([H])c([H])c(Oc6c([H])c([H])c(F)c([H])c6F)c([H])c5[H])c(C(=O)N([H])[H])c4N([H])[H])C3([H])[H])C([H])([H])C3([H])C([H])([H])C([H])([H])C([H])([H])C3([H])[H])c([H])c([H])c2C1([H])[H]

$$$$
40:0:0
     RDKit          3D

100107  0  0  1  0  0  0  0  0999 V2000
  -30.5440  -19.5780   21.2150 C   0  0  0  0  0  2  0  0  0  0  0  0
  -31.5610  -18.5110   21.2210 N   0  0  0  0  0  4  0  0  0  0  0  0
  -32.2410  -18.7090   21.9390 H   0  0  0  0  0  0  0  0  0  0  0  0
  -32.0360  -18.5200   20.3330 H   0  0  0  0  0  0  0  0  0  0  0  0
  -31.0100  -17.1590   21.4390 C   0  0  0  0  0  2  0  0  0  0  0  0
  -32.0630  -16.0760   21.1540 C   0  0  0  0  0  2  0  0  0  0  0  0
  -31.6690  -14.6550   21.6180 C   0  0  0  0  0  3  0  0  0  0  0  0
  -30.2630  -13.9120   19.6420 C   0  0  0  0  0  0  0  0  0  0  0  0
  -29.4890  -12.0800   18.2010 C   0  0  0  0  0  2  0  0  0  0  0  0
  -28.3240  -12.4210   17.2630 C   0  0  0  0  0  2  0  0  0  0  0  0
  -26.9780  -12.2290   17.9820 C   0  0  0  0  0  2  0  0  0  0  0  0
  -26.9310  -12.9580   19.3490 C   0  0  0  0  0  3  0  0  0  0  0  0
  -28.1780  -12.6260   20.1990 C   0  0  0  0  0  2  0  0  0  0  0  0
  -29.3890  -12.9080   19.4070 N   0  0  0  0  0  0  0  0  0  0  0  0
  -30.9920  -14.4070   18.7780 O   0  0  0  0  0  0  0  0  0  0  0  0
  -30.4750  -14.1130   20.9510 N   0  0  0  0  0  0  0  0  0  0  0  0
  -29.8130  -13.6400   21.5510 H   0  0  0  0  0  0  0  0  0  0  0  0
  -24.7100  -13.5170   20.5310 C   0  0  0  0  0  0  0  0  0  0  0  0
  -23.7310  -12.7210   21.0620 C   0  0  0  0  0  0  0  0  0  0  0  0
  -24.1750  -11.3750   20.8810 C   0  0  0  0  0  0  0  0  0  0  0  0
  -25.6920  -12.6550   20.0660 N   0  0  0  0  0  0  0  0  0  0  0  0
  -25.3820  -11.3590   20.3290 N   0  0  0  0  0  0  0  0  0  0  0  0
  -23.4980  -10.1000   21.1480 C   0  0  0  0  0  0  0  0  0  0  0  0
  -24.0590   -9.1290   22.0060 C   0  0  0  0  0  3  0  0  0  0  0  0
  -23.3790   -7.9180   22.2590 C   0  0  0  0  0  3  0  0  0  0  0  0
  -22.1230   -7.6700   21.6550 C   0  0  0  0  0  0  0  0  0  0  0  0
  -21.5800   -8.6290   20.7840 C   0  0  0  0  0  3  0  0  0  0  0  0
  -22.2600   -9.8310   20.5280 C   0  0  0  0  0  3  0  0  0  0  0  0
  -21.4020   -6.5120   21.8240 O   0  0  0  0  0  0  0  0  0  0  0  0
  -21.4920   -5.7700   22.9750 C   0  0  0  0  0  0  0  0  0  0  0  0
  -21.1900   -6.3180   24.2400 C   0  0  0  0  0  3  0  0  0  0  0  0
  -21.2270   -5.5010   25.3890 C   0  0  0  0  0  3  0  0  0  0  0  0
  -21.5560   -4.1370   25.2730 C   0  0  0  0  0  0  0  0  0  0  0  0
  -21.8510   -3.5880   24.0130 C   0  0  0  0  0  3  0  0  0  0  0  0
  -21.8160   -4.4020   22.8660 C   0  0  0  0  0  0  0  0  0  0  0  0
  -22.0810   -3.8640   21.6520 F   0  0  0  0  0  0  0  0  0  0  0  0
  -21.5850   -3.3510   26.3740 F   0  0  0  0  0  0  0  0  0  0  0  0
  -22.4120  -13.1740   21.6210 C   0  0  0  0  0  0  0  0  0  0  0  0
  -21.8840  -12.4570   22.6050 N   0  0  0  0  0  0  0  0  0  0  0  0
  -21.8660  -14.2000   21.2170 O   0  0  0  0  0  0  0  0  0  0  0  0
  -22.3410  -11.6260   22.9520 H   0  0  0  0  0  0  0  0  0  0  0  0
  -21.0070  -12.7410   23.0200 H   0  0  0  0  0  0  0  0  0  0  0  0
  -24.8410  -14.8950   20.3880 N   0  0  0  0  0  0  0  0  0  0  0  0
  -24.1180  -15.5460   20.6770 H   0  0  0  0  0  0  0  0  0  0  0  0
  -25.6230  -15.3490   19.9320 H   0  0  0  0  0  0  0  0  0  0  0  0
  -32.8760  -13.6870   21.5160 C   0  0  0  0  0  2  0  0  0  0  0  0
  -32.5920  -12.2430   21.9830 C   0  0  0  0  0  2  0  0  0  0  0  0
  -33.7910  -11.3880   21.9010 N   0  0  0  0  0  4  0  0  0  0  0  0
  -34.1390  -11.3400   20.9610 H   0  0  0  0  0  0  0  0  0  0  0  0
  -33.5640  -10.4540   22.1960 H   0  0  0  0  0  0  0  0  0  0  0  0
  -34.5200  -11.7330   22.4990 H   0  0  0  0  0  0  0  0  0  0  0  0
  -31.1210  -20.9020   20.6900 C   0  0  0  0  0  2  0  0  0  0  0  0
  -30.0290  -21.9550   20.4540 C   0  0  0  0  0  2  0  0  0  0  0  0
  -30.5790  -23.2370   19.8120 C   0  0  0  0  0  2  0  0  0  0  0  0
  -29.4940  -24.1910   19.5220 N   0  0  0  0  0  4  0  0  0  0  0  0
  -29.0280  -24.4230   20.3870 H   0  0  0  0  0  0  0  0  0  0  0  0
  -28.8170  -23.7500   18.9200 H   0  0  0  0  0  0  0  0  0  0  0  0
  -29.9440  -25.4590   18.9100 C   0  0  0  0  0  2  0  0  0  0  0  0
  -28.7650  -26.4220   18.7780 C   0  0  0  0  0  2  0  0  0  0  0  0
  -28.2650  -26.6500   20.0950 O   0  0  0  0  0  0  0  0  0  0  0  0
  -24.5180  -31.7980   23.2490 C   0  0  0  0  0  0  0  0  0  0  0  0
  -27.0910  -27.3550   20.1380 C   0  0  0  0  0  0  0  0  0  0  0  0
  -23.2800  -30.4050   21.6200 C   0  0  0  0  0  3  0  0  0  0  0  0
  -24.7030  -28.8440   20.1930 C   0  0  0  0  0  0  0  0  0  0  0  0
  -25.8040  -30.7390   21.3990 C   0  0  0  0  0  2  0  0  0  0  0  0
  -25.8660  -29.3650   20.7710 C   0  0  0  0  0  0  0  0  0  0  0  0
  -27.0630  -28.6200   20.7560 C   0  0  0  0  0  3  0  0  0  0  0  0
  -25.9080  -26.8250   19.5810 C   0  0  0  0  0  3  0  0  0  0  0  0
  -24.7130  -27.5680   19.6040 C   0  0  0  0  0  3  0  0  0  0  0  0
  -23.4680  -29.7150   20.2430 C   0  0  0  0  0  2  0  0  0  0  0  0
  -24.5530  -30.9950   22.1470 N   0  0  0  0  0  0  0  0  0  0  0  0
  -23.4450  -32.0860   23.7970 O   0  0  0  0  0  0  0  0  0  0  0  0
  -22.6250  -29.3960   22.5890 C   0  0  0  0  0  0  0  0  0  0  0  0
  -21.3060  -29.1980   22.4450 N   0  0  0  0  0  0  0  0  0  0  0  0
  -23.3030  -28.7910   23.4250 O   0  0  0  0  0  0  0  0  0  0  0  0
  -20.8220  -29.7390   21.7410 H   0  0  0  0  0  0  0  0  0  0  0  0
  -17.9420  -27.9560   22.8760 C   0  0  0  0  0  0  0  0  0  0  0  0
  -20.4840  -28.2680   23.2180 C   0  0  0  0  0  3  0  0  0  0  0  0
  -20.6310  -26.8240   22.6860 C   0  0  0  0  0  2  0  0  0  0  0  0
  -19.5660  -26.4510   21.6510 C   0  0  0  0  0  2  0  0  0  0  0  0
  -18.1630  -26.5900   22.2470 C   0  0  0  0  0  2  0  0  0  0  0  0
  -19.0340  -28.7510   23.3160 C   0  0  0  0  0  0  0  0  0  0  0  0
  -18.7750  -30.0280   23.8600 C   0  0  0  0  0  3  0  0  0  0  0  0
  -17.4580  -30.5110   23.9690 C   0  0  0  0  0  3  0  0  0  0  0  0
  -16.3800  -29.7140   23.5460 C   0  0  0  0  0  3  0  0  0  0  0  0
  -16.6230  -28.4380   23.0060 C   0  0  0  0  0  3  0  0  0  0  0  0
  -25.8200  -32.4130   23.8550 C   0  0  0  0  0  3  0  0  0  0  0  0
  -25.5250  -33.8060   24.2140 N   0  0  0  0  0  0  0  0  0  0  0  0
  -25.8500  -34.8670   23.4650 C   0  0  0  0  0  0  0  0  0  0  0  0
  -26.5000  -34.7770   22.4200 O   0  0  0  0  0  0  0  0  0  0  0  0
  -24.9480  -33.9500   25.0290 H   0  0  0  0  0  0  0  0  0  0  0  0
  -24.1190  -36.6680   23.1700 C   0  0  0  0  0  1  0  0  0  0  0  0
  -25.3740  -36.2500   23.9520 C   0  0  0  0  0  3  0  0  0  0  0  0
  -27.5290  -37.1140   24.7520 C   0  0  0  0  0  1  0  0  0  0  0  0
  -26.4080  -37.3020   23.8340 N   0  0  0  0  0  0  0  0  0  0  0  0
  -26.0090  -38.2200   24.0040 H   0  0  0  0  0  0  0  0  0  0  0  0
  -26.3610  -31.6140   25.1030 C   0  0  1  0  0  0  0  0  0  0  0  0
  -25.2860  -31.3460   26.1820 C   0  0  0  0  0  1  0  0  0  0  0  0
  -26.9440  -30.2500   24.6680 C   0  0  0  0  0  1  0  0  0  0  0  0
  -27.5180  -32.3990   25.7670 C   0  0  0  0  0  1  0  0  0  0  0  0
  1  2  1  0
  2  5  1  0
  2  3  1  0
  4  2  1  0
  6  5  1  0
  7  6  1  0
  8 16  1  0
  9 14  1  0
 10 11  1  0
 10  9  1  0
 12 11  1  0
 12 21  1  0
 12 13  1  0
 14  8  1  0
 14 13  1  0
 15  8  2  0
 16 17  1  0
 16  7  1  0
 18 19  2  0
 19 38  1  0
 20 19  1  0
 20 23  1  0
 21 22  1  0
 21 18  1  0
 22 20  2  0
 23 24  1  0
 24 25  2  0
 26 29  1  0
 26 25  1  0
 27 26  2  0
 28 27  1  0
 28 23  2  0
 29 30  1  0
 30 31  1  0
 31 32  2  0
 33 32  1  0
 33 37  1  0
 34 33  2  0
 35 30  2  0
 35 34  1  0
 36 35  1  0
 38 39  1  0
 39 41  1  0
 39 42  1  0
 40 38  2  0
 43 18  1  0
 43 44  1  0
 45 43  1  0
 46  7  1  0
 46 47  1  0
 48 47  1  0
 48 50  1  0
 48 51  1  0
 49 48  1  0
 52  1  1  0
 53 52  1  0
 54 53  1  0
 55 54  1  0
 55 56  1  0
 57 55  1  0
 58 55  1  0
 59 58  1  0
 59 60  1  0
 60 62  1  0
 61 72  2  0
 62 67  1  0
 63 71  1  0
 63 73  1  0
 64 70  1  0
 64 66  1  0
 65 71  1  0
 66 65  1  0
 67 66  2  0
 68 69  1  0
 68 62  2  0
 69 64  2  0
 70 63  1  0
 71 61  1  0
 73 75  2  0
 74 73  1  0
 76 74  1  0
 77 86  2  0
 77 82  1  0
 78 74  1  0
 78 82  1  0
 79 78  1  0
 80 81  1  0
 80 79  1  0
 81 77  1  0
 82 83  2  0
 83 84  1  0
 85 84  2  0
 86 85  1  0
 87 61  1  0
 87 88  1  0
 87 97  1  0
 88 91  1  0
 89 93  1  0
 89 88  1  0
 90 89  2  0
 93 92  1  0
 95 93  1  0
 95 96  1  0
 95 94  1  0
 97100  1  1
 97 98  1  0
 99 97  1  0
M  ISO  4   8 100  16 100  59 101  60 101
M  END
>  <TORSDO>  (40) 
F 29

>  <SCORE>  (40) 
-8.795

>  <name>  (40) 
40

>  <ligand_id>  (40) 
40

>  <original_smiles>  (40) 
[H]c1c([H])c([H])c2c(c1[H])C([H])([H])C([H])([H])C([H])([H])C2([H])N([H])C(=O)C1([H])N(C(=O)C([H])(N([H])C(=O)C([H])(N([H])C([H])([H])[H])C([H])([H])[H])C(C([H])([H])[H])(C([H])([H])[H])C([H])([H])[H])C([H])([H])c2c([H])c(OC([H])([H])C([H])([H])[N+]([H])([H])C([H])([H])C([H])([H])C([H])([H])C([H])([H])[N+]([H])([H])C([H])([H])C([H])([H])C([H])(N([H])C(=O)N3C([H])([H])C([H])([H])C([H])([H])C([H])(n4nc(-c5c([H])c([H])c(Oc6c([H])c([H])c(F)c([H])c6F)c([H])c5[H])c(C(=O)N([H])[H])c4N([H])[H])C3([H])[H])C([H])([H])C([H])([H])[N+]([H])([H])[H])c([H])c([H])c2C1([H])[H]

>  <smiles>  (40) 
[H]c1c([H])c([H])c2c(c1[H])C([H])([H])C([H])([H])C([H])([H])C2([H])N([H])C(=O)C1([H])N(C(=O)C([H])(N([H])C(=O)C([H])(N([H])C([H])([H])[H])C([H])([H])[H])C(C([H])([H])[H])(C([H])([H])[H])C([H])([H])[H])C([H])([H])c2c([H])c(OC([H])([H])C([H])([H])[N+]([H])([H])C([H])([H])C([H])([H])C([H])([H])C([H])([H])[N+]([H])([H])C([H])([H])C([H])([H])C([H])(N([H])C(=O)N3C([H])([H])C([H])([H])C([H])([H])C([H])(n4nc(-c5c([H])c([H])c(Oc6c([H])c([H])c(F)c([H])c6F)c([H])c5[H])c(C(=O)N([H])[H])c4N([H])[H])C3([H])[H])C([H])([H])C([H])([H])[N+]([H])([H])[H])c([H])c([H])c2C1([H])[H]

$$$$
41:0:0
     RDKit          3D

 97105  0  0  1  0  0  0  0  0999 V2000
  -28.8270  -22.8420   20.5930 C   0  0  0  0  0  2  0  0  0  0  0  0
  -31.0490  -19.3270   19.5120 C   0  0  0  0  0  2  0  0  0  0  0  0
  -29.2900  -20.3130   20.7980 C   0  0  0  0  0  2  0  0  0  0  0  0
  -31.7620  -20.6880   19.4210 C   0  0  0  0  0  2  0  0  0  0  0  0
  -29.9220  -21.7370   20.6500 C   0  0  0  0  0  3  0  0  0  0  0  0
  -30.2930  -19.2270   20.7730 N   0  0  0  0  0  0  0  0  0  0  0  0
  -30.7700  -21.7770   19.4360 N   0  0  0  0  0  4  0  0  0  0  0  0
  -30.1920  -21.6830   18.6180 H   0  0  0  0  0  0  0  0  0  0  0  0
  -31.2610  -22.6530   19.3770 H   0  0  0  0  0  0  0  0  0  0  0  0
  -29.6450  -17.9050   20.8470 C   0  0  0  0  0  2  0  0  0  0  0  0
  -30.6290  -16.7990   21.3060 C   0  0  0  0  0  2  0  0  0  0  0  0
  -30.6960  -14.4360   20.4900 C   0  0  0  0  0  0  0  0  0  0  0  0
  -30.3490  -12.2920   19.3190 C   0  0  0  0  0  2  0  0  0  0  0  0
  -29.4260  -12.5160   18.1060 C   0  0  0  0  0  2  0  0  0  0  0  0
  -27.9450  -12.4060   18.5180 C   0  0  0  0  0  2  0  0  0  0  0  0
  -27.6100  -13.2370   19.7870 C   0  0  0  0  0  3  0  0  0  0  0  0
  -28.6520  -13.0040   20.9040 C   0  0  0  0  0  2  0  0  0  0  0  0
  -29.9870  -13.2820   20.3480 N   0  0  0  0  0  0  0  0  0  0  0  0
  -31.8000  -14.6030   19.9670 O   0  0  0  0  0  0  0  0  0  0  0  0
  -30.0850  -15.4390   21.1470 N   0  0  0  0  0  0  0  0  0  0  0  0
  -29.1790  -15.2450   21.5500 H   0  0  0  0  0  0  0  0  0  0  0  0
  -25.2080  -13.8660   20.4570 C   0  0  0  0  0  0  0  0  0  0  0  0
  -24.1290  -13.1050   20.8200 C   0  0  0  0  0  0  0  0  0  0  0  0
  -24.5800  -11.7500   20.8100 C   0  0  0  0  0  0  0  0  0  0  0  0
  -26.2490  -12.9750   20.2510 N   0  0  0  0  0  0  0  0  0  0  0  0
  -25.8740  -11.6980   20.5190 N   0  0  0  0  0  0  0  0  0  0  0  0
  -23.8420  -10.4950   21.0040 C   0  0  0  0  0  0  0  0  0  0  0  0
  -24.2610   -9.5310   21.9470 C   0  0  0  0  0  3  0  0  0  0  0  0
  -23.5240   -8.3410   22.1290 C   0  0  0  0  0  3  0  0  0  0  0  0
  -22.3530   -8.1060   21.3680 C   0  0  0  0  0  0  0  0  0  0  0  0
  -21.9530   -9.0590   20.4160 C   0  0  0  0  0  3  0  0  0  0  0  0
  -22.6910  -10.2410   20.2320 C   0  0  0  0  0  3  0  0  0  0  0  0
  -21.5880   -6.9680   21.4590 O   0  0  0  0  0  0  0  0  0  0  0  0
  -21.5310   -6.2310   22.6150 C   0  0  0  0  0  0  0  0  0  0  0  0
  -21.1120   -6.7940   23.8400 C   0  0  0  0  0  3  0  0  0  0  0  0
  -21.0030   -5.9830   24.9870 C   0  0  0  0  0  3  0  0  0  0  0  0
  -21.2990   -4.6090   24.9110 C   0  0  0  0  0  0  0  0  0  0  0  0
  -21.7070   -4.0440   23.6900 C   0  0  0  0  0  3  0  0  0  0  0  0
  -21.8210   -4.8540   22.5450 C   0  0  0  0  0  0  0  0  0  0  0  0
  -22.1950   -4.3000   21.3660 F   0  0  0  0  0  0  0  0  0  0  0  0
  -21.1880   -3.8280   26.0100 F   0  0  0  0  0  0  0  0  0  0  0  0
  -22.7320  -13.5960   21.0710 C   0  0  0  0  0  0  0  0  0  0  0  0
  -21.9870  -12.9150   21.9340 N   0  0  0  0  0  0  0  0  0  0  0  0
  -22.3090  -14.6200   20.5340 O   0  0  0  0  0  0  0  0  0  0  0  0
  -22.3360  -12.0850   22.3890 H   0  0  0  0  0  0  0  0  0  0  0  0
  -21.0470  -13.2270   22.1410 H   0  0  0  0  0  0  0  0  0  0  0  0
  -25.3880  -15.2320   20.2640 N   0  0  0  0  0  0  0  0  0  0  0  0
  -24.6250  -15.8960   20.3370 H   0  0  0  0  0  0  0  0  0  0  0  0
  -26.2480  -15.6520   19.9300 H   0  0  0  0  0  0  0  0  0  0  0  0
  -29.2900  -24.3380   20.5640 C   0  0  0  0  0  3  0  0  0  0  0  0
  -29.8520  -24.8440   21.9180 C   0  0  0  0  0  2  0  0  0  0  0  0
  -28.8680  -24.8480   23.0200 N   0  0  0  0  0  4  0  0  0  0  0  0
  -28.0850  -25.4400   22.8070 H   0  0  0  0  0  0  0  0  0  0  0  0
  -29.3050  -25.2080   23.8520 H   0  0  0  0  0  0  0  0  0  0  0  0
  -28.5370  -23.9230   23.2290 H   0  0  0  0  0  0  0  0  0  0  0  0
  -28.1540  -25.2380   20.0100 C   0  0  0  0  0  2  0  0  0  0  0  0
  -28.3450  -26.6600   20.1680 O   0  0  0  0  0  0  0  0  0  0  0  0
  -24.5790  -31.8810   23.2300 C   0  0  0  0  0  0  0  0  0  0  0  0
  -27.1920  -27.4270   20.1250 C   0  0  0  0  0  0  0  0  0  0  0  0
  -23.3630  -30.4860   21.5920 C   0  0  0  0  0  3  0  0  0  0  0  0
  -24.8050  -28.9560   20.1510 C   0  0  0  0  0  0  0  0  0  0  0  0
  -25.8910  -30.8380   21.3820 C   0  0  0  0  0  2  0  0  0  0  0  0
  -25.9700  -29.4690   20.7360 C   0  0  0  0  0  0  0  0  0  0  0  0
  -27.1680  -28.7120   20.7190 C   0  0  0  0  0  3  0  0  0  0  0  0
  -26.0060  -26.9490   19.5160 C   0  0  0  0  0  3  0  0  0  0  0  0
  -24.8190  -27.6960   19.5370 C   0  0  0  0  0  3  0  0  0  0  0  0
  -23.5610  -29.8110   20.2090 C   0  0  0  0  0  2  0  0  0  0  0  0
  -24.6310  -31.0810   22.1260 N   0  0  0  0  0  0  0  0  0  0  0  0
  -23.4990  -32.1520   23.7740 O   0  0  0  0  0  0  0  0  0  0  0  0
  -22.7150  -29.4590   22.5510 C   0  0  0  0  0  0  0  0  0  0  0  0
  -21.3900  -29.2800   22.4310 N   0  0  0  0  0  0  0  0  0  0  0  0
  -23.4020  -28.8290   23.3590 O   0  0  0  0  0  0  0  0  0  0  0  0
  -20.8960  -29.8440   21.7530 H   0  0  0  0  0  0  0  0  0  0  0  0
  -18.0140  -28.0980   22.9390 C   0  0  0  0  0  0  0  0  0  0  0  0
  -20.5740  -28.3400   23.1990 C   0  0  0  0  0  3  0  0  0  0  0  0
  -20.6660  -26.9110   22.6160 C   0  0  0  0  0  2  0  0  0  0  0  0
  -19.5590  -26.6000   21.6030 C   0  0  0  0  0  2  0  0  0  0  0  0
  -18.1790  -26.7530   22.2510 C   0  0  0  0  0  2  0  0  0  0  0  0
  -19.1380  -28.8510   23.3670 C   0  0  0  0  0  0  0  0  0  0  0  0
  -18.9300  -30.1140   23.9640 C   0  0  0  0  0  3  0  0  0  0  0  0
  -17.6300  -30.6220   24.1380 C   0  0  0  0  0  3  0  0  0  0  0  0
  -16.5180  -29.8640   23.7300 C   0  0  0  0  0  3  0  0  0  0  0  0
  -16.7120  -28.6040   23.1360 C   0  0  0  0  0  3  0  0  0  0  0  0
  -25.8680  -32.5080   23.8450 C   0  0  0  0  0  3  0  0  0  0  0  0
  -26.3980  -31.7250   25.1080 C   0  0  1  0  0  0  0  0  0  0  0  0
  -25.3150  -31.4710   26.1810 C   0  0  0  0  0  1  0  0  0  0  0  0
  -26.9830  -30.3540   24.6920 C   0  0  0  0  0  1  0  0  0  0  0  0
  -27.5520  -32.5150   25.7710 C   0  0  0  0  0  1  0  0  0  0  0  0
  -25.5590  -33.9020   24.1900 N   0  0  0  0  0  0  0  0  0  0  0  0
  -25.8690  -34.9600   23.4310 C   0  0  0  0  0  0  0  0  0  0  0  0
  -26.5210  -34.8680   22.3880 O   0  0  0  0  0  0  0  0  0  0  0  0
  -24.9840  -34.0490   25.0070 H   0  0  0  0  0  0  0  0  0  0  0  0
  -24.1170  -36.7370   23.1260 C   0  0  0  0  0  1  0  0  0  0  0  0
  -25.3820  -36.3420   23.9070 C   0  0  0  0  0  3  0  0  0  0  0  0
  -27.5270  -37.2430   24.6920 C   0  0  0  0  0  1  0  0  0  0  0  0
  -26.4020  -37.4040   23.7730 N   0  0  0  0  0  0  0  0  0  0  0  0
  -25.9920  -38.3200   23.9300 H   0  0  0  0  0  0  0  0  0  0  0  0
  2  6  1  0
  4  7  1  0
  4  2  1  0
  5  1  1  0
  5  3  1  0
  6  3  1  0
  6 10  1  0
  7  5  1  0
  8  7  1  0
  9  7  1  0
 10 11  1  0
 12 20  1  0
 13 18  1  0
 14 15  1  0
 14 13  1  0
 16 15  1  0
 16 25  1  0
 16 17  1  0
 18 12  1  0
 18 17  1  0
 19 12  2  0
 20 11  1  0
 20 21  1  0
 22 23  2  0
 23 42  1  0
 24 23  1  0
 24 27  1  0
 25 22  1  0
 25 26  1  0
 26 24  2  0
 27 28  1  0
 28 29  2  0
 30 33  1  0
 30 29  1  0
 31 30  2  0
 32 31  1  0
 32 27  2  0
 33 34  1  0
 34 35  1  0
 35 36  2  0
 37 36  1  0
 37 41  1  0
 38 37  2  0
 39 34  2  0
 39 38  1  0
 40 39  1  0
 42 43  1  0
 43 46  1  0
 43 45  1  0
 44 42  2  0
 47 48  1  0
 47 22  1  0
 49 47  1  0
 50 56  1  0
 50  1  1  0
 50 51  1  0
 51 52  1  0
 52 55  1  0
 52 54  1  0
 53 52  1  0
 56 57  1  0
 58 69  2  0
 59 57  1  0
 59 64  1  0
 60 68  1  0
 60 70  1  0
 61 67  1  0
 61 63  1  0
 62 68  1  0
 63 62  1  0
 64 63  2  0
 65 66  1  0
 65 59  2  0
 66 61  2  0
 67 60  1  0
 68 58  1  0
 70 72  2  0
 71 70  1  0
 73 71  1  0
 74 83  2  0
 74 79  1  0
 75 71  1  0
 75 79  1  0
 76 75  1  0
 77 78  1  0
 77 76  1  0
 78 74  1  0
 79 80  2  0
 80 81  1  0
 82 81  2  0
 83 82  1  0
 84 58  1  0
 84 89  1  0
 84 85  1  0
 85 88  1  1
 85 86  1  0
 87 85  1  0
 89 92  1  0
 90 94  1  0
 90 89  1  0
 91 90  2  0
 94 93  1  0
 96 94  1  0
 96 97  1  0
 96 95  1  0
M  ISO  4  12 100  20 100  56 101  57 101
M  END
>  <TORSDO>  (41) 
F 23

>  <SCORE>  (41) 
-13.206

>  <name>  (41) 
41

>  <ligand_id>  (41) 
41

>  <original_smiles>  (41) 
[H]c1c([H])c([H])c2c(c1[H])C([H])([H])C([H])([H])C([H])([H])C2([H])N([H])C(=O)C1([H])N(C(=O)C([H])(N([H])C(=O)C([H])(N([H])C([H])([H])[H])C([H])([H])[H])C(C([H])([H])[H])(C([H])([H])[H])C([H])([H])[H])C([H])([H])c2c([H])c(OC([H])([H])C([H])(C([H])([H])C3([H])C([H])([H])N(C([H])([H])C([H])([H])N([H])C(=O)N4C([H])([H])C([H])([H])C([H])([H])C([H])(n5nc(-c6c([H])c([H])c(Oc7c([H])c([H])c(F)c([H])c7F)c([H])c6[H])c(C(=O)N([H])[H])c5N([H])[H])C4([H])[H])C([H])([H])C([H])([H])[N+]3([H])[H])C([H])([H])[N+]([H])([H])[H])c([H])c([H])c2C1([H])[H]

>  <smiles>  (41) 
[H]c1c([H])c([H])c2c(c1[H])C([H])([H])C([H])([H])C([H])([H])C2([H])N([H])C(=O)C1([H])N(C(=O)C([H])(N([H])C(=O)C([H])(N([H])C([H])([H])[H])C([H])([H])[H])C(C([H])([H])[H])(C([H])([H])[H])C([H])([H])[H])C([H])([H])c2c([H])c(OC([H])([H])C([H])(C([H])([H])C3([H])C([H])([H])N(C([H])([H])C([H])([H])N([H])C(=O)N4C([H])([H])C([H])([H])C([H])([H])C([H])(n5nc(-c6c([H])c([H])c(Oc7c([H])c([H])c(F)c([H])c7F)c([H])c6[H])c(C(=O)N([H])[H])c5N([H])[H])C4([H])[H])C([H])([H])C([H])([H])[N+]3([H])[H])C([H])([H])[N+]([H])([H])[H])c([H])c([H])c2C1([H])[H]

$$$$
42:0:0
     RDKit          3D

107115  0  0  1  0  0  0  0  0999 V2000
  -31.8990  -24.8060   16.8200 C   0  0  0  0  0  2  0  0  0  0  0  0
  -32.6300  -23.6590   16.1140 C   0  0  0  0  0  2  0  0  0  0  0  0
  -31.3260  -22.0920   17.4380 C   0  0  0  0  0  2  0  0  0  0  0  0
  -30.6460  -23.2630   18.2160 C   0  0  0  0  0  3  0  0  0  0  0  0
  -31.5650  -24.4400   18.2130 N   0  0  0  0  0  0  0  0  0  0  0  0
  -31.7430  -22.4890   16.0770 N   0  0  0  0  0  4  0  0  0  0  0  0
  -32.2160  -21.7230   15.6290 H   0  0  0  0  0  0  0  0  0  0  0  0
  -30.9290  -22.7160   15.5310 H   0  0  0  0  0  0  0  0  0  0  0  0
  -30.2470  -22.8140   19.6610 C   0  0  0  0  0  2  0  0  0  0  0  0
  -30.2000  -20.3720   20.2110 C   0  0  0  0  0  0  0  0  0  0  0  0
  -29.6120  -21.4900   19.7460 N   0  0  0  0  0  0  0  0  0  0  0  0
  -31.3840  -20.3520   20.5480 O   0  0  0  0  0  0  0  0  0  0  0  0
  -28.6290  -21.4400   19.5100 H   0  0  0  0  0  0  0  0  0  0  0  0
  -29.3440  -19.0990   20.3200 C   0  0  0  0  0  2  0  0  0  0  0  0
  -30.0820  -17.7640   19.9620 C   0  0  0  0  0  3  0  0  0  0  0  0
  -29.4280  -17.0600   18.8340 N   0  0  0  0  0  4  0  0  0  0  0  0
  -28.4970  -16.7660   19.0720 H   0  0  0  0  0  0  0  0  0  0  0  0
  -29.9670  -16.2550   18.5670 H   0  0  0  0  0  0  0  0  0  0  0  0
  -29.3700  -17.6580   18.0280 H   0  0  0  0  0  0  0  0  0  0  0  0
  -30.3630  -16.8500   21.2050 C   0  0  0  0  0  2  0  0  0  0  0  0
  -30.6620  -14.4420   20.5790 C   0  0  0  0  0  0  0  0  0  0  0  0
  -30.3610  -12.3080   19.3990 C   0  0  0  0  0  2  0  0  0  0  0  0
  -29.4240  -12.5360   18.1960 C   0  0  0  0  0  2  0  0  0  0  0  0
  -27.9470  -12.4100   18.6170 C   0  0  0  0  0  2  0  0  0  0  0  0
  -27.6070  -13.2260   19.8960 C   0  0  0  0  0  3  0  0  0  0  0  0
  -28.6590  -12.9740   21.0030 C   0  0  0  0  0  2  0  0  0  0  0  0
  -29.9870  -13.2720   20.4390 N   0  0  0  0  0  0  0  0  0  0  0  0
  -31.7790  -14.6510   20.1050 O   0  0  0  0  0  0  0  0  0  0  0  0
  -29.9350  -15.4480   21.0760 N   0  0  0  0  0  0  0  0  0  0  0  0
  -29.0210  -15.2070   21.4340 H   0  0  0  0  0  0  0  0  0  0  0  0
  -25.1920  -13.8340   20.5620 C   0  0  0  0  0  0  0  0  0  0  0  0
  -24.1240  -13.0610   20.9310 C   0  0  0  0  0  0  0  0  0  0  0  0
  -24.5900  -11.7100   20.9120 C   0  0  0  0  0  0  0  0  0  0  0  0
  -26.2470  -12.9560   20.3590 N   0  0  0  0  0  0  0  0  0  0  0  0
  -25.8850  -11.6750   20.6190 N   0  0  0  0  0  0  0  0  0  0  0  0
  -23.8680  -10.4460   21.0980 C   0  0  0  0  0  0  0  0  0  0  0  0
  -24.3110   -9.4720   22.0190 C   0  0  0  0  0  3  0  0  0  0  0  0
  -23.5870   -8.2730   22.1950 C   0  0  0  0  0  3  0  0  0  0  0  0
  -22.4080   -8.0400   21.4500 C   0  0  0  0  0  0  0  0  0  0  0  0
  -21.9840   -9.0020   20.5180 C   0  0  0  0  0  3  0  0  0  0  0  0
  -22.7080  -10.1920   20.3390 C   0  0  0  0  0  3  0  0  0  0  0  0
  -21.6560   -6.8920   21.5330 O   0  0  0  0  0  0  0  0  0  0  0  0
  -21.6370   -6.1290   22.6710 C   0  0  0  0  0  0  0  0  0  0  0  0
  -21.2570   -6.6640   23.9210 C   0  0  0  0  0  3  0  0  0  0  0  0
  -21.1820   -5.8270   25.0520 C   0  0  0  0  0  3  0  0  0  0  0  0
  -21.4770   -4.4550   24.9350 C   0  0  0  0  0  0  0  0  0  0  0  0
  -21.8510   -3.9200   23.6890 C   0  0  0  0  0  3  0  0  0  0  0  0
  -21.9290   -4.7540   22.5610 C   0  0  0  0  0  0  0  0  0  0  0  0
  -22.2670   -4.2290   21.3590 F   0  0  0  0  0  0  0  0  0  0  0  0
  -21.3980   -3.6500   26.0190 F   0  0  0  0  0  0  0  0  0  0  0  0
  -22.7230  -13.5380   21.1860 C   0  0  0  0  0  0  0  0  0  0  0  0
  -21.9860  -12.8480   22.0460 N   0  0  0  0  0  0  0  0  0  0  0  0
  -22.2870  -14.5610   20.6560 O   0  0  0  0  0  0  0  0  0  0  0  0
  -22.3470  -12.0240   22.5060 H   0  0  0  0  0  0  0  0  0  0  0  0
  -21.0480  -13.1520   22.2600 H   0  0  0  0  0  0  0  0  0  0  0  0
  -25.3460  -15.2020   20.3590 N   0  0  0  0  0  0  0  0  0  0  0  0
  -24.5360  -15.8140   20.3580 H   0  0  0  0  0  0  0  0  0  0  0  0
  -26.1550  -15.6220   19.9280 H   0  0  0  0  0  0  0  0  0  0  0  0
  -31.1850  -25.6230   19.0360 C   0  0  0  0  0  3  0  0  0  0  0  0
  -30.1370  -26.5660   18.3850 C   0  0  0  0  0  2  0  0  0  0  0  0
  -28.6820  -26.2620   18.7200 C   0  0  0  0  0  2  0  0  0  0  0  0
  -28.4120  -26.7920   20.0170 O   0  0  0  0  0  0  0  0  0  0  0  0
  -24.6040  -31.8810   23.2210 C   0  0  0  0  0  0  0  0  0  0  0  0
  -27.2260  -27.4760   20.1030 C   0  0  0  0  0  0  0  0  0  0  0  0
  -23.3860  -30.4800   21.5880 C   0  0  0  0  0  3  0  0  0  0  0  0
  -24.8250  -28.9460   20.1560 C   0  0  0  0  0  0  0  0  0  0  0  0
  -25.9050  -30.8530   21.3640 C   0  0  0  0  0  2  0  0  0  0  0  0
  -25.9870  -29.4800   20.7310 C   0  0  0  0  0  0  0  0  0  0  0  0
  -27.1900  -28.7460   20.7150 C   0  0  0  0  0  3  0  0  0  0  0  0
  -26.0430  -26.9350   19.5560 C   0  0  0  0  0  3  0  0  0  0  0  0
  -24.8450  -27.6690   19.5740 C   0  0  0  0  0  3  0  0  0  0  0  0
  -23.5830  -29.8030   20.2060 C   0  0  0  0  0  2  0  0  0  0  0  0
  -24.6510  -31.0870   22.1160 N   0  0  0  0  0  0  0  0  0  0  0  0
  -23.5280  -32.1470   23.7720 O   0  0  0  0  0  0  0  0  0  0  0  0
  -22.7500  -29.4530   22.5510 C   0  0  0  0  0  0  0  0  0  0  0  0
  -21.4240  -29.2650   22.4320 N   0  0  0  0  0  0  0  0  0  0  0  0
  -23.4440  -28.8250   23.3560 O   0  0  0  0  0  0  0  0  0  0  0  0
  -20.9270  -29.8200   21.7510 H   0  0  0  0  0  0  0  0  0  0  0  0
  -18.0600  -28.0670   22.9520 C   0  0  0  0  0  0  0  0  0  0  0  0
  -20.6180  -28.3260   23.2100 C   0  0  0  0  0  3  0  0  0  0  0  0
  -20.7190  -26.8960   22.6340 C   0  0  0  0  0  2  0  0  0  0  0  0
  -19.6140  -26.5720   21.6230 C   0  0  0  0  0  2  0  0  0  0  0  0
  -18.2330  -26.7190   22.2700 C   0  0  0  0  0  2  0  0  0  0  0  0
  -19.1800  -28.8290   23.3770 C   0  0  0  0  0  0  0  0  0  0  0  0
  -18.9660  -30.0910   23.9710 C   0  0  0  0  0  3  0  0  0  0  0  0
  -17.6630  -30.5940   24.1440 C   0  0  0  0  0  3  0  0  0  0  0  0
  -16.5560  -29.8290   23.7380 C   0  0  0  0  0  3  0  0  0  0  0  0
  -16.7560  -28.5670   23.1490 C   0  0  0  0  0  3  0  0  0  0  0  0
  -25.8950  -32.5150   23.8270 C   0  0  0  0  0  3  0  0  0  0  0  0
  -26.4330  -31.7410   25.0920 C   0  0  1  0  0  0  0  0  0  0  0  0
  -25.3580  -31.5000   26.1780 C   0  0  0  0  0  1  0  0  0  0  0  0
  -27.0120  -30.3670   24.6860 C   0  0  0  0  0  1  0  0  0  0  0  0
  -27.5960  -32.5370   25.7360 C   0  0  0  0  0  1  0  0  0  0  0  0
  -25.5860  -33.9100   24.1640 N   0  0  0  0  0  0  0  0  0  0  0  0
  -25.9090  -34.9630   23.4040 C   0  0  0  0  0  0  0  0  0  0  0  0
  -26.5720  -34.8640   22.3670 O   0  0  0  0  0  0  0  0  0  0  0  0
  -25.0040  -34.0620   24.9750 H   0  0  0  0  0  0  0  0  0  0  0  0
  -24.1730  -36.7490   23.0590 C   0  0  0  0  0  1  0  0  0  0  0  0
  -25.4180  -36.3480   23.8660 C   0  0  0  0  0  3  0  0  0  0  0  0
  -27.5560  -37.2320   24.6880 C   0  0  0  0  0  1  0  0  0  0  0  0
  -26.4460  -37.4050   23.7540 N   0  0  0  0  0  0  0  0  0  0  0  0
  -26.0380  -38.3220   23.9150 H   0  0  0  0  0  0  0  0  0  0  0  0
  -32.4580  -26.4410   19.3700 C   0  0  0  0  0  2  0  0  0  0  0  0
  -33.5580  -25.5780   19.8230 N   0  0  0  0  0  4  0  0  0  0  0  0
  -33.3070  -25.0960   20.6660 H   0  0  0  0  0  0  0  0  0  0  0  0
  -34.3920  -26.1130   19.9830 H   0  0  0  0  0  0  0  0  0  0  0  0
  -33.7270  -24.8940   19.1070 H   0  0  0  0  0  0  0  0  0  0  0  0
  1  5  1  0
  2  1  1  0
  3  4  1  0
  4  9  1  0
  5  4  1  0
  5 59  1  0
  6  2  1  0
  6  3  1  0
  7  6  1  0
  8  6  1  0
  9 11  1  0
 10 14  1  0
 10 12  2  0
 11 10  1  0
 13 11  1  0
 15 14  1  0
 15 20  1  0
 16 17  1  0
 16 15  1  0
 18 16  1  0
 19 16  1  0
 21 29  1  0
 22 27  1  0
 23 24  1  0
 23 22  1  0
 25 24  1  0
 25 34  1  0
 25 26  1  0
 27 21  1  0
 27 26  1  0
 28 21  2  0
 29 20  1  0
 29 30  1  0
 31 32  2  0
 32 51  1  0
 33 32  1  0
 33 36  1  0
 34 31  1  0
 34 35  1  0
 35 33  2  0
 36 37  1  0
 37 38  2  0
 39 42  1  0
 39 38  1  0
 40 39  2  0
 41 40  1  0
 41 36  2  0
 42 43  1  0
 43 44  1  0
 44 45  2  0
 46 45  1  0
 46 50  1  0
 47 46  2  0
 48 43  2  0
 48 47  1  0
 49 48  1  0
 51 52  1  0
 52 55  1  0
 52 54  1  0
 53 51  2  0
 56 31  1  0
 57 56  1  0
 58 56  1  0
 59 60  1  0
 59103  1  0
 60 61  1  0
 61 62  1  0
 62 64  1  0
 63 74  2  0
 64 69  1  0
 65 73  1  0
 65 75  1  0
 66 72  1  0
 66 68  1  0
 67 73  1  0
 68 67  1  0
 69 68  2  0
 70 71  1  0
 70 64  2  0
 71 66  2  0
 72 65  1  0
 73 63  1  0
 75 77  2  0
 76 75  1  0
 78 76  1  0
 79 88  2  0
 79 84  1  0
 80 76  1  0
 80 84  1  0
 81 80  1  0
 82 83  1  0
 82 81  1  0
 83 79  1  0
 84 85  2  0
 85 86  1  0
 87 86  2  0
 88 87  1  0
 89 63  1  0
 89 94  1  0
 89 90  1  0
 90 93  1  1
 90 91  1  0
 92 90  1  0
 94 97  1  0
 95 99  1  0
 95 94  1  0
 96 95  2  0
 99 98  1  0
101 99  1  0
101102  1  0
101100  1  0
103104  1  0
104106  1  0
104105  1  0
107104  1  0
M  ISO  4  21 100  29 100  61 101  62 101
M  END
>  <TORSDO>  (42) 
F 27

>  <SCORE>  (42) 
-12.052

>  <name>  (42) 
42

>  <ligand_id>  (42) 
42

>  <original_smiles>  (42) 
[H]c1c([H])c([H])c2c(c1[H])C([H])([H])C([H])([H])C([H])([H])C2([H])N([H])C(=O)C1([H])N(C(=O)C([H])(N([H])C(=O)C([H])(N([H])C([H])([H])[H])C([H])([H])[H])C(C([H])([H])[H])(C([H])([H])[H])C([H])([H])[H])C([H])([H])c2c([H])c(OC([H])([H])C([H])([H])C([H])(N3C([H])([H])C([H])([H])[N+]([H])([H])C([H])([H])C3([H])C([H])([H])N([H])C(=O)C([H])([H])C([H])(C([H])([H])N([H])C(=O)N3C([H])([H])C([H])([H])C([H])([H])C([H])(n4nc(-c5c([H])c([H])c(Oc6c([H])c([H])c(F)c([H])c6F)c([H])c5[H])c(C(=O)N([H])[H])c4N([H])[H])C3([H])[H])[N+]([H])([H])[H])C([H])([H])[N+]([H])([H])[H])c([H])c([H])c2C1([H])[H]

>  <smiles>  (42) 
[H]c1c([H])c([H])c2c(c1[H])C([H])([H])C([H])([H])C([H])([H])C2([H])N([H])C(=O)C1([H])N(C(=O)C([H])(N([H])C(=O)C([H])(N([H])C([H])([H])[H])C([H])([H])[H])C(C([H])([H])[H])(C([H])([H])[H])C([H])([H])[H])C([H])([H])c2c([H])c(OC([H])([H])C([H])([H])C([H])(N3C([H])([H])C([H])([H])[N+]([H])([H])C([H])([H])C3([H])C([H])([H])N([H])C(=O)C([H])([H])C([H])(C([H])([H])N([H])C(=O)N3C([H])([H])C([H])([H])C([H])([H])C([H])(n4nc(-c5c([H])c([H])c(Oc6c([H])c([H])c(F)c([H])c6F)c([H])c5[H])c(C(=O)N([H])[H])c4N([H])[H])C3([H])[H])[N+]([H])([H])[H])C([H])([H])[N+]([H])([H])[H])c([H])c([H])c2C1([H])[H]

$$$$
43:0:0
     RDKit          3D

105114  0  0  1  0  0  0  0  0999 V2000
  -29.5160  -21.5760   19.2900 N   0  0  1  0  0  4  0  0  0  0  0  0
  -29.1780  -21.1200   20.1240 H   0  0  0  0  0  0  0  0  0  0  0  0
  -30.6990  -22.3940   19.7670 C   0  0  0  0  0  2  0  0  0  0  0  0
  -34.7560  -19.7150   21.7650 C   0  0  0  0  0  3  0  0  0  0  0  0
  -33.6330  -20.3240   22.3480 C   0  0  0  0  0  3  0  0  0  0  0  0
  -33.5960  -21.5700   17.4010 C   0  0  0  0  0  3  0  0  0  0  0  0
  -35.0240  -19.8980   20.3950 C   0  0  0  0  0  3  0  0  0  0  0  0
  -32.7560  -21.0910   21.5530 C   0  0  0  0  0  3  0  0  0  0  0  0
  -34.4380  -20.8070   18.2240 C   0  0  0  0  0  3  0  0  0  0  0  0
  -32.4470  -22.1640   17.9560 C   0  0  0  0  0  3  0  0  0  0  0  0
  -34.1560  -20.6640   19.5950 C   0  0  0  0  0  0  0  0  0  0  0  0
  -32.9950  -21.2560   20.1650 C   0  0  0  0  0  0  0  0  0  0  0  0
  -32.1050  -21.9590   19.3170 C   0  0  0  0  0  0  0  0  0  0  0  0
  -28.3820  -22.5600   18.9050 C   0  0  0  0  0  2  0  0  0  0  0  0
  -27.9220  -23.6950   19.9550 C   0  0  0  0  0  2  0  0  0  0  0  0
  -25.5560  -24.5200   20.8020 C   0  0  0  0  0  0  0  0  0  0  0  0
  -23.0690  -24.7100   20.8660 C   0  0  0  0  0  2  0  0  0  0  0  0
  -22.4830  -23.6370   19.9250 C   0  0  0  0  0  2  0  0  0  0  0  0
  -22.4380  -24.1480   18.4690 C   0  0  0  0  0  2  0  0  0  0  0  0
  -23.7700  -24.8020   18.0210 C   0  0  0  0  0  3  0  0  0  0  0  0
  -24.2740  -25.8120   19.0690 C   0  0  0  0  0  2  0  0  0  0  0  0
  -24.4000  -25.0840   20.3390 N   0  0  0  0  0  0  0  0  0  0  0  0
  -25.6460  -24.1100   21.9640 O   0  0  0  0  0  0  0  0  0  0  0  0
  -26.5160  -24.2620   19.8530 N   0  0  0  0  0  0  0  0  0  0  0  0
  -26.2800  -24.6500   18.9480 H   0  0  0  0  0  0  0  0  0  0  0  0
  -24.6720  -25.9310   15.8980 C   0  0  0  0  0  0  0  0  0  0  0  0
  -24.0630  -26.2900   14.7250 C   0  0  0  0  0  0  0  0  0  0  0  0
  -22.6880  -25.9440   14.8740 C   0  0  0  0  0  0  0  0  0  0  0  0
  -23.6710  -25.3990   16.6960 N   0  0  0  0  0  0  0  0  0  0  0  0
  -22.4590  -25.4680   16.0900 N   0  0  0  0  0  0  0  0  0  0  0  0
  -21.5820  -25.9900   13.9080 C   0  0  0  0  0  0  0  0  0  0  0  0
  -20.8020  -27.1550   13.7340 C   0  0  0  0  0  3  0  0  0  0  0  0
  -19.7530  -27.1750   12.7890 C   0  0  0  0  0  3  0  0  0  0  0  0
  -19.4770  -26.0260   12.0100 C   0  0  0  0  0  0  0  0  0  0  0  0
  -20.2410  -24.8630   12.2070 C   0  0  0  0  0  3  0  0  0  0  0  0
  -21.2820  -24.8420   13.1500 C   0  0  0  0  0  3  0  0  0  0  0  0
  -18.4630  -25.9490   11.0850 O   0  0  0  0  0  0  0  0  0  0  0  0
  -18.5730  -26.5320    9.8490 C   0  0  0  0  0  0  0  0  0  0  0  0
  -19.2400  -25.8940    8.7810 C   0  0  0  0  0  3  0  0  0  0  0  0
  -19.2660  -26.4970    7.5070 C   0  0  0  0  0  3  0  0  0  0  0  0
  -18.6170  -27.7290    7.2970 C   0  0  0  0  0  0  0  0  0  0  0  0
  -17.9450  -28.3600    8.3580 C   0  0  0  0  0  3  0  0  0  0  0  0
  -17.9170  -27.7610    9.6290 C   0  0  0  0  0  0  0  0  0  0  0  0
  -17.2530  -28.3630   10.6430 F   0  0  0  0  0  0  0  0  0  0  0  0
  -18.6350  -28.3040    6.0730 F   0  0  0  0  0  0  0  0  0  0  0  0
  -24.7420  -26.8180   13.4970 C   0  0  0  0  0  0  0  0  0  0  0  0
  -24.4220  -28.0470   13.1040 N   0  0  0  0  0  0  0  0  0  0  0  0
  -25.6010  -26.1650   12.9070 O   0  0  0  0  0  0  0  0  0  0  0  0
  -23.7250  -28.5910   13.5940 H   0  0  0  0  0  0  0  0  0  0  0  0
  -24.8750  -28.4470   12.2940 H   0  0  0  0  0  0  0  0  0  0  0  0
  -25.9910  -25.9890   16.3400 N   0  0  0  0  0  0  0  0  0  0  0  0
  -26.7350  -26.2970   15.7260 H   0  0  0  0  0  0  0  0  0  0  0  0
  -26.3290  -25.4960   17.1540 H   0  0  0  0  0  0  0  0  0  0  0  0
  -29.8750  -20.3760   18.3480 C   0  0  0  0  0  3  0  0  0  0  0  0
  -28.9320  -20.2700   17.0970 C   0  0  0  0  0  2  0  0  0  0  0  0
  -29.4740  -19.4280   15.9110 C   0  0  0  0  0  2  0  0  0  0  0  0
  -30.4650  -20.1970   14.9930 C   0  0  0  0  0  2  0  0  0  0  0  0
  -31.1310  -19.3160   14.0170 N   0  0  0  0  0  4  0  0  0  0  0  0
  -31.7600  -18.6770   14.4690 H   0  0  0  0  0  0  0  0  0  0  0  0
  -31.6630  -19.8670   13.3660 H   0  0  0  0  0  0  0  0  0  0  0  0
  -30.4610  -18.7830   13.4930 H   0  0  0  0  0  0  0  0  0  0  0  0
  -30.1540  -18.9210   19.0290 C   0  0  0  0  0  2  0  0  0  0  0  0
  -31.6350  -18.3370   19.3640 C   0  0  0  0  0  3  0  0  0  0  0  0
  -31.9800  -16.8000   18.9940 C   0  0  0  0  0  3  0  0  0  0  0  0
  -33.3310  -16.1440   19.1000 O   0  0  0  0  0  0  0  0  0  0  0  0
  -40.1070  -18.5930   19.8470 C   0  0  0  0  0  0  0  0  0  0  0  0
  -34.5020  -16.5980   18.4630 C   0  0  0  0  0  0  0  0  0  0  0  0
  -38.9970  -19.0210   17.6890 C   0  0  0  0  0  3  0  0  0  0  0  0
  -36.8480  -17.7000   17.2370 C   0  0  0  0  0  0  0  0  0  0  0  0
  -38.3710  -16.9450   19.0700 C   0  0  0  0  0  2  0  0  0  0  0  0
  -36.9700  -17.0210   18.4570 C   0  0  0  0  0  0  0  0  0  0  0  0
  -35.8010  -16.4600   19.0630 C   0  0  0  0  0  3  0  0  0  0  0  0
  -34.4410  -17.2630   17.2230 C   0  0  0  0  0  3  0  0  0  0  0  0
  -35.5920  -17.8090   16.6200 C   0  0  0  0  0  3  0  0  0  0  0  0
  -38.1020  -18.3100   16.6390 C   0  0  0  0  0  2  0  0  0  0  0  0
  -39.1760  -18.1960   18.9290 N   0  0  0  0  0  0  0  0  0  0  0  0
  -40.8190  -19.5910   19.6620 O   0  0  0  0  0  0  0  0  0  0  0  0
  -38.4350  -20.4370   17.9670 C   0  0  0  0  0  0  0  0  0  0  0  0
  -38.6760  -21.3750   17.0350 N   0  0  0  0  0  0  0  0  0  0  0  0
  -37.7770  -20.6680   18.9860 O   0  0  0  0  0  0  0  0  0  0  0  0
  -39.2280  -21.1190   16.2270 H   0  0  0  0  0  0  0  0  0  0  0  0
  -38.9970  -24.6670   15.5320 C   0  0  0  0  0  0  0  0  0  0  0  0
  -38.1820  -22.7570   17.0750 C   0  0  0  0  0  3  0  0  0  0  0  0
  -36.8290  -22.8790   16.3310 C   0  0  0  0  0  2  0  0  0  0  0  0
  -36.9750  -23.3030   14.8710 C   0  0  0  0  0  2  0  0  0  0  0  0
  -37.6800  -24.6590   14.7740 C   0  0  0  0  0  2  0  0  0  0  0  0
  -39.2380  -23.7650   16.6060 C   0  0  0  0  0  0  0  0  0  0  0  0
  -40.4910  -23.8000   17.2550 C   0  0  0  0  0  3  0  0  0  0  0  0
  -41.4910  -24.7020   16.8490 C   0  0  0  0  0  3  0  0  0  0  0  0
  -41.2420  -25.5970   15.7930 C   0  0  0  0  0  3  0  0  0  0  0  0
  -39.9930  -25.5860   15.1470 C   0  0  0  0  0  3  0  0  0  0  0  0
  -40.3450  -17.7930   21.1640 C   0  0  0  0  0  3  0  0  0  0  0  0
  -41.7970  -17.6820   21.3610 N   0  0  0  0  0  0  0  0  0  0  0  0
  -42.5250  -16.5940   21.0700 C   0  0  0  0  0  0  0  0  0  0  0  0
  -42.0240  -15.5430   20.6570 O   0  0  0  0  0  0  0  0  0  0  0  0
  -42.2810  -18.5220   21.6470 H   0  0  0  0  0  0  0  0  0  0  0  0
  -44.7510  -16.6530   19.8930 C   0  0  0  0  0  1  0  0  0  0  0  0
  -44.0530  -16.6800   21.2640 C   0  0  0  0  0  3  0  0  0  0  0  0
  -44.2740  -15.7750   23.5350 C   0  0  0  0  0  1  0  0  0  0  0  0
  -44.6030  -15.6070   22.1210 N   0  0  0  0  0  0  0  0  0  0  0  0
  -45.6140  -15.5630   22.0380 H   0  0  0  0  0  0  0  0  0  0  0  0
  -39.6700  -18.4600   22.4240 C   0  0  1  0  0  0  0  0  0  0  0  0
  -40.3180  -19.8050   22.8410 C   0  0  0  0  0  1  0  0  0  0  0  0
  -38.1670  -18.7190   22.1610 C   0  0  0  0  0  1  0  0  0  0  0  0
  -39.7480  -17.4910   23.6300 C   0  0  0  0  0  1  0  0  0  0  0  0
  1  3  1  0
  1  2  1  1
  4  5  1  0
  6 10  2  0
  6  9  1  0
  7  4  2  0
  8  5  2  0
  9 11  2  0
 10 13  1  0
 11 12  1  0
 11  7  1  0
 12  8  1  0
 13  3  1  0
 13 12  2  0
 14  1  1  0
 14 15  1  0
 16 23  2  0
 18 17  1  0
 19 18  1  0
 20 29  1  0
 20 19  1  0
 20 21  1  0
 21 22  1  0
 22 16  1  0
 22 17  1  0
 24 15  1  0
 24 16  1  0
 25 24  1  0
 26 51  1  0
 26 29  1  0
 27 28  1  0
 27 26  2  0
 28 30  2  0
 30 29  1  0
 31 28  1  0
 32 31  1  0
 33 32  2  0
 34 35  2  0
 34 33  1  0
 35 36  1  0
 36 31  2  0
 37 34  1  0
 38 37  1  0
 39 38  2  0
 40 39  1  0
 41 40  2  0
 41 42  1  0
 42 43  2  0
 43 38  1  0
 43 44  1  0
 45 41  1  0
 46 27  1  0
 47 46  1  0
 47 49  1  0
 48 46  2  0
 50 47  1  0
 51 53  1  0
 52 51  1  0
 54 55  1  0
 54 62  1  0
 54  1  1  0
 56 55  1  0
 57 56  1  0
 58 59  1  0
 58 57  1  0
 60 58  1  0
 61 58  1  0
 62 63  1  0
 64 65  1  0
 64 63  2  0
 67 72  1  0
 67 65  1  0
 68 78  1  0
 68 76  1  0
 69 71  1  0
 71 72  2  0
 71 70  1  0
 73 67  2  0
 74 73  1  0
 74 69  2  0
 75 69  1  0
 75 68  1  0
 76 70  1  0
 76 66  1  0
 77 66  2  0
 78 80  2  0
 79 78  1  0
 81 79  1  0
 82 87  1  0
 83 79  1  0
 84 83  1  0
 85 84  1  0
 86 85  1  0
 86 82  1  0
 87 83  1  0
 87 88  2  0
 89 88  1  0
 90 89  2  0
 91 82  2  0
 91 90  1  0
 92 66  1  0
 92 93  1  0
 92102  1  0
 93 96  1  0
 94 98  1  0
 94 93  1  0
 95 94  2  0
 98 97  1  0
 98100  1  0
100 99  1  0
101100  1  0
102103  1  1
102105  1  0
104102  1  0
M  ISO  4  16 100  24 100  64 101  65 101
M  END
>  <TORSDO>  (43) 
F 28

>  <SCORE>  (43) 
-3.889

>  <name>  (43) 
43

>  <ligand_id>  (43) 
43

>  <original_smiles>  (43) 
[H]c1c([H])c([H])c2c(c1[H])C([H])([H])C([H])([H])C([H])([H])C2([H])N([H])C(=O)C1([H])N(C(=O)C([H])(N([H])C(=O)C([H])(N([H])C([H])([H])[H])C([H])([H])[H])C(C([H])([H])[H])(C([H])([H])[H])C([H])([H])[H])C([H])([H])c2c([H])c(OC([H])([H])C([H])([H])C([H])([H])C([H])(C([H])([H])C([H])([H])C([H])([H])[N+]([H])([H])[H])[N+]([H])(C([H])([H])c3c([H])c([H])c([H])c4c([H])c([H])c([H])c([H])c34)C([H])([H])C([H])([H])N([H])C(=O)N3C([H])([H])C([H])([H])C([H])([H])C([H])(n4nc(-c5c([H])c([H])c(Oc6c([H])c([H])c(F)c([H])c6F)c([H])c5[H])c(C(=O)N([H])[H])c4N([H])[H])C3([H])[H])c([H])c([H])c2C1([H])[H]

>  <smiles>  (43) 
[H]c1c([H])c([H])c2c(c1[H])C([H])([H])C([H])([H])C([H])([H])C2([H])N([H])C(=O)C1([H])N(C(=O)C([H])(N([H])C(=O)C([H])(N([H])C([H])([H])[H])C([H])([H])[H])C(C([H])([H])[H])(C([H])([H])[H])C([H])([H])[H])C([H])([H])c2c([H])c(OC([H])([H])C([H])([H])C([H])([H])C([H])(C([H])([H])C([H])([H])C([H])([H])[N+]([H])([H])[H])[N+]([H])(C([H])([H])c3c([H])c([H])c([H])c4c([H])c([H])c([H])c([H])c34)C([H])([H])C([H])([H])N([H])C(=O)N3C([H])([H])C([H])([H])C([H])([H])C([H])(n4nc(-c5c([H])c([H])c(Oc6c([H])c([H])c(F)c([H])c6F)c([H])c5[H])c(C(=O)N([H])[H])c4N([H])[H])C3([H])[H])c([H])c([H])c2C1([H])[H]

$$$$
44:0:0
     RDKit          3D

 97106  0  0  1  0  0  0  0  0999 V2000
  -29.1540  -22.3280   20.3260 N   0  0  1  0  0  4  0  0  0  0  0  0
  -29.1580  -22.3680   21.3370 H   0  0  0  0  0  0  0  0  0  0  0  0
  -28.6190  -20.8890   20.0010 C   0  0  0  0  0  2  0  0  0  0  0  0
  -30.6600  -14.9140   20.1450 C   0  0  0  0  0  0  0  0  0  0  0  0
  -30.3530  -12.6430   19.1040 C   0  0  0  0  0  2  0  0  0  0  0  0
  -29.3850  -12.6650   17.9040 C   0  0  0  0  0  2  0  0  0  0  0  0
  -27.9330  -12.4690   18.3750 C   0  0  0  0  0  2  0  0  0  0  0  0
  -27.5830  -13.3400   19.6100 C   0  0  0  0  0  3  0  0  0  0  0  0
  -28.6860  -13.3240   20.6930 C   0  0  0  0  0  2  0  0  0  0  0  0
  -29.9310  -13.7340   20.0310 N   0  0  0  0  0  0  0  0  0  0  0  0
  -31.8580  -14.8280   19.8550 O   0  0  0  0  0  0  0  0  0  0  0  0
  -30.4720  -18.8530   19.6920 C   0  0  0  0  0  2  0  0  0  0  0  0
  -28.3370  -18.2050   20.5360 C   0  0  0  0  0  2  0  0  0  0  0  0
  -31.0390  -17.4280   20.1410 C   0  0  0  0  0  2  0  0  0  0  0  0
  -28.8780  -16.7370   20.9170 C   0  0  0  0  0  2  0  0  0  0  0  0
  -29.3040  -19.4640   20.5320 C   0  0  0  0  0  3  0  0  0  0  0  0
  -30.1160  -16.2320   20.2460 N   0  0  0  0  0  0  0  0  0  0  0  0
  -25.2120  -13.8810   20.4160 C   0  0  0  0  0  0  0  0  0  0  0  0
  -24.1710  -13.0910   20.8090 C   0  0  0  0  0  0  0  0  0  0  0  0
  -24.6520  -11.7450   20.7570 C   0  0  0  0  0  0  0  0  0  0  0  0
  -26.2640  -13.0210   20.1480 N   0  0  0  0  0  0  0  0  0  0  0  0
  -25.9360  -11.7290   20.4140 N   0  0  0  0  0  0  0  0  0  0  0  0
  -23.9440  -10.4720   20.9530 C   0  0  0  0  0  0  0  0  0  0  0  0
  -24.3790   -9.5210   21.9030 C   0  0  0  0  0  3  0  0  0  0  0  0
  -23.6640   -8.3150   22.0840 C   0  0  0  0  0  3  0  0  0  0  0  0
  -22.5040   -8.0550   21.3180 C   0  0  0  0  0  0  0  0  0  0  0  0
  -22.0900   -8.9960   20.3580 C   0  0  0  0  0  3  0  0  0  0  0  0
  -22.8050  -10.1910   20.1730 C   0  0  0  0  0  3  0  0  0  0  0  0
  -21.7630   -6.9000   21.4120 O   0  0  0  0  0  0  0  0  0  0  0  0
  -21.6790   -6.1910   22.5830 C   0  0  0  0  0  0  0  0  0  0  0  0
  -21.1770   -6.7700   23.7700 C   0  0  0  0  0  3  0  0  0  0  0  0
  -21.0380   -5.9870   24.9320 C   0  0  0  0  0  3  0  0  0  0  0  0
  -21.3960   -4.6250   24.9100 C   0  0  0  0  0  0  0  0  0  0  0  0
  -21.8940   -4.0460   23.7290 C   0  0  0  0  0  3  0  0  0  0  0  0
  -22.0290   -4.8250   22.5680 C   0  0  0  0  0  0  0  0  0  0  0  0
  -22.4880   -4.2570   21.4260 F   0  0  0  0  0  0  0  0  0  0  0  0
  -21.2610   -3.8710   26.0250 F   0  0  0  0  0  0  0  0  0  0  0  0
  -22.7750  -13.5470   21.1190 C   0  0  0  0  0  0  0  0  0  0  0  0
  -22.0790  -12.8410   22.0030 N   0  0  0  0  0  0  0  0  0  0  0  0
  -22.3100  -14.5670   20.6100 O   0  0  0  0  0  0  0  0  0  0  0  0
  -22.4700  -12.0190   22.4410 H   0  0  0  0  0  0  0  0  0  0  0  0
  -21.1430  -13.1300   22.2470 H   0  0  0  0  0  0  0  0  0  0  0  0
  -25.3470  -15.2550   20.2360 N   0  0  0  0  0  0  0  0  0  0  0  0
  -24.5670  -15.8940   20.3510 H   0  0  0  0  0  0  0  0  0  0  0  0
  -26.1750  -15.7080   19.8740 H   0  0  0  0  0  0  0  0  0  0  0  0
  -30.5820  -22.4700   19.8930 C   0  0  0  0  0  2  0  0  0  0  0  0
  -31.1550  -23.9200   19.9250 C   0  0  0  0  0  2  0  0  0  0  0  0
  -32.2740  -24.2490   18.9230 C   0  0  0  0  0  2  0  0  0  0  0  0
  -35.9700  -22.0410   19.4370 C   0  0  0  0  0  3  0  0  0  0  0  0
  -35.9050  -23.3970   19.8110 C   0  0  0  0  0  3  0  0  0  0  0  0
  -34.8270  -21.3980   18.9210 C   0  0  0  0  0  3  0  0  0  0  0  0
  -34.7000  -24.1110   19.6650 C   0  0  0  0  0  3  0  0  0  0  0  0
  -33.6280  -22.1150   18.7600 C   0  0  0  0  0  3  0  0  0  0  0  0
  -33.5580  -23.4720   19.1320 C   0  0  0  0  0  0  0  0  0  0  0  0
  -28.2840  -23.5510   19.8630 C   0  0  0  0  0  2  0  0  0  0  0  0
  -28.1880  -24.9430   20.7470 C   0  0  0  0  0  2  0  0  0  0  0  0
  -28.3980  -26.3630   20.2380 O   0  0  0  0  0  0  0  0  0  0  0  0
  -24.5890  -31.8570   23.1870 C   0  0  0  0  0  0  0  0  0  0  0  0
  -27.3090  -27.2670   20.2060 C   0  0  0  0  0  0  0  0  0  0  0  0
  -23.4510  -30.4500   21.5130 C   0  0  0  0  0  3  0  0  0  0  0  0
  -24.9550  -28.9120   20.1240 C   0  0  0  0  0  0  0  0  0  0  0  0
  -25.9960  -30.7790   21.4060 C   0  0  0  0  0  2  0  0  0  0  0  0
  -26.1070  -29.3960   20.7570 C   0  0  0  0  0  0  0  0  0  0  0  0
  -27.2940  -28.5890   20.7790 C   0  0  0  0  0  3  0  0  0  0  0  0
  -26.1340  -26.8520   19.5510 C   0  0  0  0  0  3  0  0  0  0  0  0
  -24.9740  -27.6490   19.5120 C   0  0  0  0  0  3  0  0  0  0  0  0
  -23.7130  -29.7840   20.1370 C   0  0  0  0  0  2  0  0  0  0  0  0
  -24.6960  -31.0490   22.0910 N   0  0  0  0  0  0  0  0  0  0  0  0
  -23.4880  -32.1220   23.6890 O   0  0  0  0  0  0  0  0  0  0  0  0
  -22.7710  -29.4240   22.4520 C   0  0  0  0  0  0  0  0  0  0  0  0
  -21.4470  -29.2470   22.3040 N   0  0  0  0  0  0  0  0  0  0  0  0
  -23.4360  -28.7890   23.2750 O   0  0  0  0  0  0  0  0  0  0  0  0
  -20.9670  -29.8090   21.6150 H   0  0  0  0  0  0  0  0  0  0  0  0
  -18.0590  -28.0660   22.7720 C   0  0  0  0  0  0  0  0  0  0  0  0
  -20.6170  -28.3010   23.0530 C   0  0  0  0  0  3  0  0  0  0  0  0
  -20.7110  -26.8810   22.4470 C   0  0  0  0  0  2  0  0  0  0  0  0
  -19.6090  -26.5890   21.4230 C   0  0  0  0  0  2  0  0  0  0  0  0
  -18.2260  -26.7310   22.0670 C   0  0  0  0  0  2  0  0  0  0  0  0
  -19.1820  -28.8110   23.2220 C   0  0  0  0  0  0  0  0  0  0  0  0
  -18.9720  -30.0610   23.8420 C   0  0  0  0  0  3  0  0  0  0  0  0
  -17.6700  -30.5690   24.0170 C   0  0  0  0  0  3  0  0  0  0  0  0
  -16.5600  -29.8200   23.5840 C   0  0  0  0  0  3  0  0  0  0  0  0
  -16.7550  -28.5710   22.9680 C   0  0  0  0  0  3  0  0  0  0  0  0
  -25.8440  -32.5090   23.8480 C   0  0  0  0  0  3  0  0  0  0  0  0
  -25.5040  -33.9030   24.1740 N   0  0  0  0  0  0  0  0  0  0  0  0
  -25.8390  -34.9640   23.4250 C   0  0  0  0  0  0  0  0  0  0  0  0
  -26.5340  -34.8710   22.4100 O   0  0  0  0  0  0  0  0  0  0  0  0
  -24.8910  -34.0480   24.9620 H   0  0  0  0  0  0  0  0  0  0  0  0
  -24.1010  -36.7390   23.0330 C   0  0  0  0  0  1  0  0  0  0  0  0
  -25.3240  -36.3450   23.8760 C   0  0  0  0  0  3  0  0  0  0  0  0
  -27.4220  -37.2530   24.7730 C   0  0  0  0  0  1  0  0  0  0  0  0
  -26.3470  -37.4090   23.7960 N   0  0  0  0  0  0  0  0  0  0  0  0
  -25.9270  -38.3250   23.9300 H   0  0  0  0  0  0  0  0  0  0  0  0
  -26.3320  -31.7440   25.1410 C   0  0  1  0  0  0  0  0  0  0  0  0
  -25.2090  -31.4960   26.1750 C   0  0  0  0  0  1  0  0  0  0  0  0
  -26.9470  -30.3740   24.7730 C   0  0  0  0  0  1  0  0  0  0  0  0
  -27.4520  -32.5530   25.8370 C   0  0  0  0  0  1  0  0  0  0  0  0
  1  2  1  1
  3  1  1  0
  4 17  1  0
  5 10  1  0
  6  7  1  0
  6  5  1  0
  8  7  1  0
  8 21  1  0
  8  9  1  0
 10  4  1  0
 10  9  1  0
 11  4  2  0
 12 14  1  0
 12 16  1  0
 13 15  1  0
 14 17  1  0
 16  3  1  0
 16 13  1  0
 17 15  1  0
 18 19  2  0
 19 38  1  0
 20 19  1  0
 20 23  1  0
 21 22  1  0
 21 18  1  0
 22 20  2  0
 23 24  1  0
 24 25  2  0
 26 29  1  0
 26 25  1  0
 27 26  2  0
 28 27  1  0
 28 23  2  0
 29 30  1  0
 30 31  1  0
 31 32  2  0
 33 32  1  0
 33 37  1  0
 34 33  2  0
 35 30  2  0
 35 34  1  0
 36 35  1  0
 38 39  1  0
 39 42  1  0
 39 41  1  0
 40 38  2  0
 43 44  1  0
 43 18  1  0
 45 43  1  0
 46 47  1  0
 46  1  1  0
 48 54  1  0
 48 47  1  0
 49 50  1  0
 51 49  2  0
 52 50  2  0
 53 51  1  0
 53 54  2  0
 54 52  1  0
 55  1  1  0
 55 56  1  0
 57 56  1  0
 58 69  2  0
 59 57  1  0
 59 64  1  0
 60 68  1  0
 60 70  1  0
 61 67  1  0
 61 63  1  0
 62 68  1  0
 63 64  2  0
 63 62  1  0
 65 59  2  0
 66 65  1  0
 66 61  2  0
 67 60  1  0
 68 58  1  0
 70 72  2  0
 71 70  1  0
 73 71  1  0
 74 83  2  0
 74 79  1  0
 75 71  1  0
 75 79  1  0
 76 75  1  0
 77 78  1  0
 77 76  1  0
 78 74  1  0
 79 80  2  0
 80 81  1  0
 82 81  2  0
 83 82  1  0
 84 58  1  0
 84 85  1  0
 84 94  1  0
 85 88  1  0
 86 90  1  0
 86 85  1  0
 87 86  2  0
 90 89  1  0
 92 90  1  0
 92 93  1  0
 92 91  1  0
 94 97  1  1
 94 95  1  0
 96 94  1  0
M  ISO  4   4 100  17 100  56 101  57 101
M  END
>  <TORSDO>  (44) 
F 23

>  <SCORE>  (44) 
-12.912

>  <name>  (44) 
44

>  <ligand_id>  (44) 
44

>  <original_smiles>  (44) 
[H]c1c([H])c([H])c(C([H])([H])C([H])([H])C([H])([H])[N+]([H])(C([H])([H])C([H])([H])Oc2c([H])c([H])c3c(c2[H])C([H])([H])N(C(=O)C([H])(N([H])C(=O)C([H])(N([H])C([H])([H])[H])C([H])([H])[H])C(C([H])([H])[H])(C([H])([H])[H])C([H])([H])[H])C([H])(C(=O)N([H])C2([H])c4c([H])c([H])c([H])c([H])c4C([H])([H])C([H])([H])C2([H])[H])C3([H])[H])C([H])([H])C2([H])C([H])([H])C([H])([H])N(C(=O)N3C([H])([H])C([H])([H])C([H])([H])C([H])(n4nc(-c5c([H])c([H])c(Oc6c([H])c([H])c(F)c([H])c6F)c([H])c5[H])c(C(=O)N([H])[H])c4N([H])[H])C3([H])[H])C([H])([H])C2([H])[H])c([H])c1[H]

>  <smiles>  (44) 
[H]c1c([H])c([H])c(C([H])([H])C([H])([H])C([H])([H])[N+]([H])(C([H])([H])C([H])([H])Oc2c([H])c([H])c3c(c2[H])C([H])([H])N(C(=O)C([H])(N([H])C(=O)C([H])(N([H])C([H])([H])[H])C([H])([H])[H])C(C([H])([H])[H])(C([H])([H])[H])C([H])([H])[H])C([H])(C(=O)N([H])C2([H])c4c([H])c([H])c([H])c([H])c4C([H])([H])C([H])([H])C2([H])[H])C3([H])[H])C([H])([H])C2([H])C([H])([H])C([H])([H])N(C(=O)N3C([H])([H])C([H])([H])C([H])([H])C([H])(n4nc(-c5c([H])c([H])c(Oc6c([H])c([H])c(F)c([H])c6F)c([H])c5[H])c(C(=O)N([H])[H])c4N([H])[H])C3([H])[H])C([H])([H])C2([H])[H])c([H])c1[H]

$$$$
45:0:0
     RDKit          3D

 98106  0  0  1  0  0  0  0  0999 V2000
  -30.5010  -21.1380   20.6310 C   0  0  0  0  0  2  0  0  0  0  0  0
  -28.4690  -21.1510   19.3920 C   0  0  0  0  0  2  0  0  0  0  0  0
  -30.2250  -19.6970   21.1270 C   0  0  0  0  0  2  0  0  0  0  0  0
  -28.1640  -19.7100   19.8650 C   0  0  0  0  0  2  0  0  0  0  0  0
  -29.2500  -21.8810   20.4030 N   0  0  0  0  0  0  0  0  0  0  0  0
  -29.4220  -18.9560   20.1230 N   0  0  2  0  0  4  0  0  0  0  0  0
  -29.9530  -19.0030   19.2670 H   0  0  0  0  0  0  0  0  0  0  0  0
  -29.5770  -23.2320   19.9190 C   0  0  0  0  0  2  0  0  0  0  0  0
  -28.4470  -24.2690   20.1230 C   0  0  0  0  0  2  0  0  0  0  0  0
  -28.7470  -25.6090   19.4070 C   0  0  0  0  0  2  0  0  0  0  0  0
  -28.4940  -26.7600   20.2180 O   0  0  0  0  0  0  0  0  0  0  0  0
  -24.5820  -31.8420   23.2360 C   0  0  0  0  0  0  0  0  0  0  0  0
  -27.2850  -27.4220   20.1750 C   0  0  0  0  0  0  0  0  0  0  0  0
  -23.4020  -30.4460   21.5650 C   0  0  0  0  0  3  0  0  0  0  0  0
  -24.8780  -28.9150   20.1580 C   0  0  0  0  0  0  0  0  0  0  0  0
  -25.9270  -30.8140   21.4060 C   0  0  0  0  0  2  0  0  0  0  0  0
  -26.0210  -29.4430   20.7650 C   0  0  0  0  0  0  0  0  0  0  0  0
  -27.2220  -28.7020   20.7730 C   0  0  0  0  0  3  0  0  0  0  0  0
  -26.1150  -26.8970   19.5780 C   0  0  0  0  0  3  0  0  0  0  0  0
  -24.9180  -27.6400   19.5640 C   0  0  0  0  0  3  0  0  0  0  0  0
  -23.6320  -29.7720   20.1850 C   0  0  0  0  0  2  0  0  0  0  0  0
  -24.6550  -31.0500   22.1280 N   0  0  0  0  0  0  0  0  0  0  0  0
  -23.4940  -32.1090   23.7640 O   0  0  0  0  0  0  0  0  0  0  0  0
  -22.7380  -29.4230   22.5130 C   0  0  0  0  0  0  0  0  0  0  0  0
  -21.4090  -29.2630   22.3890 N   0  0  0  0  0  0  0  0  0  0  0  0
  -23.4140  -28.7710   23.3150 O   0  0  0  0  0  0  0  0  0  0  0  0
  -20.9220  -29.8420   21.7180 H   0  0  0  0  0  0  0  0  0  0  0  0
  -18.0130  -28.1540   22.9190 C   0  0  0  0  0  0  0  0  0  0  0  0
  -20.5820  -28.3270   23.1500 C   0  0  0  0  0  3  0  0  0  0  0  0
  -20.6290  -26.9110   22.5290 C   0  0  0  0  0  2  0  0  0  0  0  0
  -19.5010  -26.6530   21.5270 C   0  0  0  0  0  2  0  0  0  0  0  0
  -18.1360  -26.8210   22.2000 C   0  0  0  0  0  2  0  0  0  0  0  0
  -19.1610  -28.8680   23.3500 C   0  0  0  0  0  0  0  0  0  0  0  0
  -18.9900  -30.1190   23.9820 C   0  0  0  0  0  3  0  0  0  0  0  0
  -17.7060  -30.6570   24.1830 C   0  0  0  0  0  3  0  0  0  0  0  0
  -16.5710  -29.9380   23.7690 C   0  0  0  0  0  3  0  0  0  0  0  0
  -16.7260  -28.6880   23.1430 C   0  0  0  0  0  3  0  0  0  0  0  0
  -25.8600  -32.4710   23.8780 C   0  0  0  0  0  3  0  0  0  0  0  0
  -26.3560  -31.7000   25.1620 C   0  0  1  0  0  0  0  0  0  0  0  0
  -25.2480  -31.4560   26.2110 C   0  0  0  0  0  1  0  0  0  0  0  0
  -26.9500  -30.3260   24.7760 C   0  0  0  0  0  1  0  0  0  0  0  0
  -27.4910  -32.4970   25.8500 C   0  0  0  0  0  1  0  0  0  0  0  0
  -25.5510  -33.8700   24.2010 N   0  0  0  0  0  0  0  0  0  0  0  0
  -25.8960  -34.9200   23.4440 C   0  0  0  0  0  0  0  0  0  0  0  0
  -26.5790  -34.8130   22.4220 O   0  0  0  0  0  0  0  0  0  0  0  0
  -24.9540  -34.0310   24.9990 H   0  0  0  0  0  0  0  0  0  0  0  0
  -24.1740  -36.7100   23.0590 C   0  0  0  0  0  1  0  0  0  0  0  0
  -25.4020  -36.3080   23.8910 C   0  0  0  0  0  3  0  0  0  0  0  0
  -27.5240  -37.1950   24.7490 C   0  0  0  0  0  1  0  0  0  0  0  0
  -26.4350  -37.3620   23.7910 N   0  0  0  0  0  0  0  0  0  0  0  0
  -26.0270  -38.2820   23.9300 H   0  0  0  0  0  0  0  0  0  0  0  0
  -29.1660  -17.5000   20.3640 C   0  0  0  0  0  2  0  0  0  0  0  0
  -30.3900  -16.5970   20.7360 C   0  0  0  0  0  3  0  0  0  0  0  0
  -30.5100  -14.3180   19.6390 C   0  0  0  0  0  0  0  0  0  0  0  0
  -30.0340  -12.2360   18.3970 C   0  0  0  0  0  2  0  0  0  0  0  0
  -28.9310  -12.4900   17.3500 C   0  0  0  0  0  2  0  0  0  0  0  0
  -27.5320  -12.3270   17.9750 C   0  0  0  0  0  2  0  0  0  0  0  0
  -27.3790  -13.1140   19.3040 C   0  0  0  0  0  3  0  0  0  0  0  0
  -28.5700  -12.8270   20.2440 C   0  0  0  0  0  2  0  0  0  0  0  0
  -29.8150  -13.1560   19.5240 N   0  0  0  0  0  0  0  0  0  0  0  0
  -31.4780  -14.5990   18.9260 O   0  0  0  0  0  0  0  0  0  0  0  0
  -30.0200  -15.1830   20.5490 N   0  0  0  0  0  0  0  0  0  0  0  0
  -29.2440  -14.8350   21.0930 H   0  0  0  0  0  0  0  0  0  0  0  0
  -25.1040  -13.7080   20.3550 C   0  0  0  0  0  0  0  0  0  0  0  0
  -24.0930  -12.9270   20.8490 C   0  0  0  0  0  0  0  0  0  0  0  0
  -24.5360  -11.5750   20.7100 C   0  0  0  0  0  0  0  0  0  0  0  0
  -26.1000  -12.8300   19.9520 N   0  0  0  0  0  0  0  0  0  0  0  0
  -25.7690  -11.5420   20.2200 N   0  0  0  0  0  0  0  0  0  0  0  0
  -23.8360  -10.3100   20.9620 C   0  0  0  0  0  0  0  0  0  0  0  0
  -24.3260   -9.3670   21.8920 C   0  0  0  0  0  3  0  0  0  0  0  0
  -23.6260   -8.1650   22.1290 C   0  0  0  0  0  3  0  0  0  0  0  0
  -22.4210   -7.8970   21.4370 C   0  0  0  0  0  0  0  0  0  0  0  0
  -21.9510   -8.8280   20.4940 C   0  0  0  0  0  3  0  0  0  0  0  0
  -22.6510  -10.0220   20.2550 C   0  0  0  0  0  3  0  0  0  0  0  0
  -21.6870   -6.7450   21.5840 O   0  0  0  0  0  0  0  0  0  0  0  0
  -21.6470   -6.0630   22.7730 C   0  0  0  0  0  0  0  0  0  0  0  0
  -21.1750   -6.6640   23.9610 C   0  0  0  0  0  3  0  0  0  0  0  0
  -21.0860   -5.9070   25.1460 C   0  0  0  0  0  3  0  0  0  0  0  0
  -21.4570   -4.5490   25.1440 C   0  0  0  0  0  0  0  0  0  0  0  0
  -21.9220   -3.9480   23.9620 C   0  0  0  0  0  3  0  0  0  0  0  0
  -22.0130   -4.7020   22.7790 C   0  0  0  0  0  0  0  0  0  0  0  0
  -22.4420   -4.1120   21.6380 F   0  0  0  0  0  0  0  0  0  0  0  0
  -21.3630   -3.8200   26.2800 F   0  0  0  0  0  0  0  0  0  0  0  0
  -22.7530  -13.3980   21.3330 C   0  0  0  0  0  0  0  0  0  0  0  0
  -22.1690  -12.7030   22.3030 N   0  0  0  0  0  0  0  0  0  0  0  0
  -22.2330  -14.4180   20.8810 O   0  0  0  0  0  0  0  0  0  0  0  0
  -22.6030  -11.8770   22.6880 H   0  0  0  0  0  0  0  0  0  0  0  0
  -21.2750  -13.0010   22.6650 H   0  0  0  0  0  0  0  0  0  0  0  0
  -25.2500  -15.0830   20.1970 N   0  0  0  0  0  0  0  0  0  0  0  0
  -24.4930  -15.7260   20.4020 H   0  0  0  0  0  0  0  0  0  0  0  0
  -26.0220  -15.5200   19.7090 H   0  0  0  0  0  0  0  0  0  0  0  0
  -30.8190  -16.7970   22.2170 C   0  0  0  0  0  2  0  0  0  0  0  0
  -31.5790  -15.6120   22.8450 C   0  0  0  0  0  2  0  0  0  0  0  0
  -31.8850  -15.8360   24.3390 C   0  0  0  0  0  2  0  0  0  0  0  0
  -32.4300  -14.6300   24.9850 N   0  0  0  0  0  4  0  0  0  0  0  0
  -31.7820  -13.8650   24.9190 H   0  0  0  0  0  0  0  0  0  0  0  0
  -32.5970  -14.8090   25.9600 H   0  0  0  0  0  0  0  0  0  0  0  0
  -33.2990  -14.3560   24.5650 H   0  0  0  0  0  0  0  0  0  0  0  0
  1  3  1  0
  2  4  1  0
  2  5  1  0
  4  6  1  0
  5  1  1  0
  6 52  1  0
  6  3  1  0
  6  7  1  6
  8  9  1  0
  8  5  1  0
 10  9  1  0
 10 11  1  0
 12 23  2  0
 13 11  1  0
 13 18  1  0
 14 22  1  0
 14 24  1  0
 15 21  1  0
 15 17  1  0
 16 22  1  0
 17 18  2  0
 17 16  1  0
 19 13  2  0
 20 19  1  0
 20 15  2  0
 21 14  1  0
 22 12  1  0
 24 26  2  0
 25 24  1  0
 27 25  1  0
 28 37  2  0
 28 33  1  0
 29 25  1  0
 29 33  1  0
 30 29  1  0
 31 32  1  0
 31 30  1  0
 32 28  1  0
 33 34  2  0
 34 35  1  0
 36 35  2  0
 37 36  1  0
 38 12  1  0
 38 43  1  0
 38 39  1  0
 39 42  1  1
 39 40  1  0
 41 39  1  0
 43 46  1  0
 44 48  1  0
 44 43  1  0
 45 44  2  0
 48 47  1  0
 50 48  1  0
 50 51  1  0
 50 49  1  0
 53 52  1  0
 53 92  1  0
 54 62  1  0
 55 60  1  0
 56 57  1  0
 56 55  1  0
 58 57  1  0
 58 67  1  0
 58 59  1  0
 60 54  1  0
 60 59  1  0
 61 54  2  0
 62 53  1  0
 62 63  1  0
 64 65  2  0
 65 84  1  0
 66 65  1  0
 66 69  1  0
 67 68  1  0
 67 64  1  0
 68 66  2  0
 69 70  1  0
 70 71  2  0
 72 75  1  0
 72 71  1  0
 73 72  2  0
 74 73  1  0
 74 69  2  0
 75 76  1  0
 76 81  2  0
 76 77  1  0
 77 78  2  0
 79 78  1  0
 79 83  1  0
 80 79  2  0
 81 80  1  0
 82 81  1  0
 84 85  1  0
 85 88  1  0
 85 87  1  0
 86 84  2  0
 89 64  1  0
 89 90  1  0
 91 89  1  0
 92 93  1  0
 93 94  1  0
 94 95  1  0
 95 97  1  0
 96 95  1  0
 98 95  1  0
M  ISO  4  10 101  11 101  54 100  62 100
M  END
>  <TORSDO>  (45) 
F 25

>  <SCORE>  (45) 
-3.079

>  <name>  (45) 
45

>  <ligand_id>  (45) 
45

>  <original_smiles>  (45) 
[H]c1c([H])c([H])c2c(c1[H])C([H])([H])C([H])([H])C([H])([H])C2([H])N([H])C(=O)C1([H])N(C(=O)C([H])(N([H])C(=O)C([H])(N([H])C([H])([H])[H])C([H])([H])[H])C(C([H])([H])[H])(C([H])([H])[H])C([H])([H])[H])C([H])([H])c2c([H])c(OC([H])([H])C([H])([H])C([H])([H])N3C([H])([H])C([H])([H])[N+]([H])(C([H])([H])C([H])(N([H])C(=O)N4C([H])([H])C([H])([H])C([H])([H])C([H])(n5nc(-c6c([H])c([H])c(Oc7c([H])c([H])c(F)c([H])c7F)c([H])c6[H])c(C(=O)N([H])[H])c5N([H])[H])C4([H])[H])C([H])([H])C([H])([H])C([H])([H])[N+]([H])([H])[H])C([H])([H])C3([H])[H])c([H])c([H])c2C1([H])[H]

>  <smiles>  (45) 
[H]c1c([H])c([H])c2c(c1[H])C([H])([H])C([H])([H])C([H])([H])C2([H])N([H])C(=O)C1([H])N(C(=O)C([H])(N([H])C(=O)C([H])(N([H])C([H])([H])[H])C([H])([H])[H])C(C([H])([H])[H])(C([H])([H])[H])C([H])([H])[H])C([H])([H])c2c([H])c(OC([H])([H])C([H])([H])C([H])([H])N3C([H])([H])C([H])([H])[N+]([H])(C([H])([H])C([H])(N([H])C(=O)N4C([H])([H])C([H])([H])C([H])([H])C([H])(n5nc(-c6c([H])c([H])c(Oc7c([H])c([H])c(F)c([H])c7F)c([H])c6[H])c(C(=O)N([H])[H])c5N([H])[H])C4([H])[H])C([H])([H])C([H])([H])C([H])([H])[N+]([H])([H])[H])C([H])([H])C3([H])[H])c([H])c([H])c2C1([H])[H]

$$$$
46:0:0
     RDKit          3D

 95103  0  0  1  0  0  0  0  0999 V2000
  -29.2610  -21.2560   20.7340 C   0  0  0  0  0  0  0  0  0  0  0  0
  -27.0800  -23.2660   18.6370 C   0  0  0  0  0  2  0  0  0  0  0  0
  -26.6650  -23.4520   20.0900 C   0  0  0  0  0  2  0  0  0  0  0  0
  -28.4000  -22.4810   18.7030 C   0  0  0  0  0  2  0  0  0  0  0  0
  -28.0120  -23.5710   20.7870 C   0  0  0  0  0  3  0  0  0  0  0  0
  -28.8030  -22.4360   20.1210 N   0  0  0  0  0  0  0  0  0  0  0  0
  -29.6200  -21.2750   21.9140 O   0  0  0  0  0  0  0  0  0  0  0  0
  -28.5320  -25.1210   20.9620 C   0  0  0  0  0  2  0  0  0  0  0  0
  -28.3060  -26.3600   20.1230 O   0  0  0  0  0  0  0  0  0  0  0  0
  -24.6130  -31.8690   23.2430 C   0  0  0  0  0  0  0  0  0  0  0  0
  -27.1900  -27.2250   20.2220 C   0  0  0  0  0  0  0  0  0  0  0  0
  -23.4080  -30.4740   21.6050 C   0  0  0  0  0  3  0  0  0  0  0  0
  -24.8520  -28.9030   20.1910 C   0  0  0  0  0  0  0  0  0  0  0  0
  -25.9560  -30.7620   21.4260 C   0  0  0  0  0  2  0  0  0  0  0  0
  -26.0250  -29.3720   20.7920 C   0  0  0  0  0  0  0  0  0  0  0  0
  -27.2000  -28.5470   20.7900 C   0  0  0  0  0  3  0  0  0  0  0  0
  -25.9980  -26.8420   19.5710 C   0  0  0  0  0  3  0  0  0  0  0  0
  -24.8390  -27.6450   19.5710 C   0  0  0  0  0  3  0  0  0  0  0  0
  -23.6240  -29.7940   20.2290 C   0  0  0  0  0  2  0  0  0  0  0  0
  -24.6790  -31.0550   22.1470 N   0  0  0  0  0  0  0  0  0  0  0  0
  -23.5260  -32.1520   23.7720 O   0  0  0  0  0  0  0  0  0  0  0  0
  -22.7380  -29.4590   22.5650 C   0  0  0  0  0  0  0  0  0  0  0  0
  -21.4120  -29.2870   22.4370 N   0  0  0  0  0  0  0  0  0  0  0  0
  -23.4140  -28.8310   23.3840 O   0  0  0  0  0  0  0  0  0  0  0  0
  -20.9250  -29.8400   21.7450 H   0  0  0  0  0  0  0  0  0  0  0  0
  -18.0320  -28.1010   22.9520 C   0  0  0  0  0  0  0  0  0  0  0  0
  -20.5930  -28.3550   23.2130 C   0  0  0  0  0  3  0  0  0  0  0  0
  -20.6870  -26.9220   22.6410 C   0  0  0  0  0  2  0  0  0  0  0  0
  -19.5810  -26.6010   21.6310 C   0  0  0  0  0  2  0  0  0  0  0  0
  -18.2010  -26.7520   22.2770 C   0  0  0  0  0  2  0  0  0  0  0  0
  -19.1530  -28.8610   23.3780 C   0  0  0  0  0  0  0  0  0  0  0  0
  -18.9390  -30.1260   23.9690 C   0  0  0  0  0  3  0  0  0  0  0  0
  -17.6350  -30.6280   24.1420 C   0  0  0  0  0  3  0  0  0  0  0  0
  -16.5280  -29.8650   23.7300 C   0  0  0  0  0  3  0  0  0  0  0  0
  -16.7280  -28.6030   23.1410 C   0  0  0  0  0  3  0  0  0  0  0  0
  -25.8940  -32.5020   23.8630 C   0  0  0  0  0  3  0  0  0  0  0  0
  -25.5850  -33.9020   24.1880 N   0  0  0  0  0  0  0  0  0  0  0  0
  -25.9170  -34.9530   23.4270 C   0  0  0  0  0  0  0  0  0  0  0  0
  -26.5830  -34.8480   22.3940 O   0  0  0  0  0  0  0  0  0  0  0  0
  -24.9940  -34.0660   24.9900 H   0  0  0  0  0  0  0  0  0  0  0  0
  -24.1890  -36.7500   23.0740 C   0  0  0  0  0  1  0  0  0  0  0  0
  -25.4290  -36.3410   23.8850 C   0  0  0  0  0  3  0  0  0  0  0  0
  -27.5650  -37.2270   24.7140 C   0  0  0  0  0  1  0  0  0  0  0  0
  -26.4600  -37.3940   23.7720 N   0  0  0  0  0  0  0  0  0  0  0  0
  -26.0510  -38.3120   23.9280 H   0  0  0  0  0  0  0  0  0  0  0  0
  -26.4080  -31.7380   25.1460 C   0  0  1  0  0  0  0  0  0  0  0  0
  -25.3190  -31.5090   26.2180 C   0  0  0  0  0  1  0  0  0  0  0  0
  -26.9860  -30.3530   24.7680 C   0  0  0  0  0  1  0  0  0  0  0  0
  -27.5530  -32.5410   25.8080 C   0  0  0  0  0  1  0  0  0  0  0  0
  -29.2190  -19.8080   20.0150 C   0  0  0  0  0  3  0  0  0  0  0  0
  -30.3010  -18.6080   20.2620 C   0  0  0  0  0  2  0  0  0  0  0  0
  -30.1260  -17.2690   21.1650 C   0  0  0  0  0  2  0  0  0  0  0  0
  -30.6060  -14.7550   20.3710 C   0  0  0  0  0  0  0  0  0  0  0  0
  -30.3900  -12.4850   19.3100 C   0  0  0  0  0  2  0  0  0  0  0  0
  -29.4430  -12.5700   18.0920 C   0  0  0  0  0  2  0  0  0  0  0  0
  -27.9750  -12.4050   18.5320 C   0  0  0  0  0  2  0  0  0  0  0  0
  -27.6150  -13.2880   19.7560 C   0  0  0  0  0  3  0  0  0  0  0  0
  -28.6810  -13.1830   20.8670 C   0  0  0  0  0  2  0  0  0  0  0  0
  -29.9720  -13.5370   20.2650 N   0  0  0  0  0  0  0  0  0  0  0  0
  -31.7990  -14.8640   20.0790 O   0  0  0  0  0  0  0  0  0  0  0  0
  -29.8130  -15.8660   20.6320 N   0  0  0  0  0  0  0  0  0  0  0  0
  -28.8490  -15.5940   20.7520 H   0  0  0  0  0  0  0  0  0  0  0  0
  -25.2280  -13.8870   20.4830 C   0  0  0  0  0  0  0  0  0  0  0  0
  -24.1610  -13.1200   20.8530 C   0  0  0  0  0  0  0  0  0  0  0  0
  -24.6210  -11.7680   20.8330 C   0  0  0  0  0  0  0  0  0  0  0  0
  -26.2710  -13.0060   20.2520 N   0  0  0  0  0  0  0  0  0  0  0  0
  -25.9120  -11.7240   20.5270 N   0  0  0  0  0  0  0  0  0  0  0  0
  -23.8910  -10.5100   21.0300 C   0  0  0  0  0  0  0  0  0  0  0  0
  -24.3310   -9.5420   21.9610 C   0  0  0  0  0  3  0  0  0  0  0  0
  -23.6040   -8.3470   22.1480 C   0  0  0  0  0  3  0  0  0  0  0  0
  -22.4220   -8.1110   21.4040 C   0  0  0  0  0  0  0  0  0  0  0  0
  -22.0000   -9.0690   20.4640 C   0  0  0  0  0  3  0  0  0  0  0  0
  -22.7290  -10.2550   20.2750 C   0  0  0  0  0  3  0  0  0  0  0  0
  -21.6660   -6.9680   21.4970 O   0  0  0  0  0  0  0  0  0  0  0  0
  -21.6370   -6.2180   22.6450 C   0  0  0  0  0  0  0  0  0  0  0  0
  -21.2480   -6.7710   23.8850 C   0  0  0  0  0  3  0  0  0  0  0  0
  -21.1650   -5.9500   25.0260 C   0  0  0  0  0  3  0  0  0  0  0  0
  -21.4590   -4.5760   24.9300 C   0  0  0  0  0  0  0  0  0  0  0  0
  -21.8430   -4.0240   23.6960 C   0  0  0  0  0  3  0  0  0  0  0  0
  -21.9290   -4.8440   22.5560 C   0  0  0  0  0  0  0  0  0  0  0  0
  -22.2780   -4.3020   21.3630 F   0  0  0  0  0  0  0  0  0  0  0  0
  -21.3720   -3.7840   26.0240 F   0  0  0  0  0  0  0  0  0  0  0  0
  -22.7640  -13.6020   21.1190 C   0  0  0  0  0  0  0  0  0  0  0  0
  -22.0370  -12.9140   21.9910 N   0  0  0  0  0  0  0  0  0  0  0  0
  -22.3290  -14.6260   20.5910 O   0  0  0  0  0  0  0  0  0  0  0  0
  -22.4000  -12.0820   22.4320 H   0  0  0  0  0  0  0  0  0  0  0  0
  -21.1010  -13.2210   22.2190 H   0  0  0  0  0  0  0  0  0  0  0  0
  -25.4020  -15.2570   20.3040 N   0  0  0  0  0  0  0  0  0  0  0  0
  -24.6510  -15.9240   20.4340 H   0  0  0  0  0  0  0  0  0  0  0  0
  -26.2810  -15.6730   20.0420 H   0  0  0  0  0  0  0  0  0  0  0  0
  -27.7560  -19.3060   20.0520 C   0  0  0  0  0  2  0  0  0  0  0  0
  -27.4820  -18.3320   18.9800 N   0  0  0  0  0  4  0  0  0  0  0  0
  -27.5620  -18.7550   18.0700 H   0  0  0  0  0  0  0  0  0  0  0  0
  -26.5440  -17.9830   19.0750 H   0  0  0  0  0  0  0  0  0  0  0  0
  -28.1310  -17.5660   19.0260 H   0  0  0  0  0  0  0  0  0  0  0  0
  1  7  2  0
  2  4  1  0
  2  3  1  0
  3  5  1  0
  4  6  1  0
  5  8  1  0
  6  1  1  0
  6  5  1  0
  9 11  1  0
  9  8  1  0
 10 21  2  0
 11 16  1  0
 12 20  1  0
 12 22  1  0
 13 19  1  0
 13 15  1  0
 14 20  1  0
 15 14  1  0
 16 15  2  0
 17 18  1  0
 17 11  2  0
 18 13  2  0
 19 12  1  0
 20 10  1  0
 22 24  2  0
 23 22  1  0
 25 23  1  0
 26 35  2  0
 26 31  1  0
 27 23  1  0
 27 31  1  0
 28 27  1  0
 29 30  1  0
 29 28  1  0
 30 26  1  0
 31 32  2  0
 32 33  1  0
 34 33  2  0
 35 34  1  0
 36 10  1  0
 36 37  1  0
 36 46  1  0
 37 40  1  0
 38 42  1  0
 38 37  1  0
 39 38  2  0
 42 41  1  0
 44 42  1  0
 44 45  1  0
 44 43  1  0
 46 49  1  1
 46 47  1  0
 48 46  1  0
 50 91  1  0
 50 51  1  0
 50  1  1  0
 51 52  1  0
 53 61  1  0
 54 59  1  0
 55 56  1  0
 55 54  1  0
 57 56  1  0
 57 66  1  0
 57 58  1  0
 59 53  1  0
 59 58  1  0
 60 53  2  0
 61 62  1  0
 61 52  1  0
 63 64  2  0
 64 83  1  0
 65 64  1  0
 65 68  1  0
 66 63  1  0
 66 67  1  0
 67 65  2  0
 68 69  1  0
 69 70  2  0
 71 74  1  0
 71 70  1  0
 72 71  2  0
 73 72  1  0
 73 68  2  0
 74 75  1  0
 75 76  1  0
 76 77  2  0
 78 77  1  0
 78 82  1  0
 79 78  2  0
 80 75  2  0
 80 79  1  0
 81 80  1  0
 83 84  1  0
 84 87  1  0
 84 86  1  0
 85 83  2  0
 88 89  1  0
 88 63  1  0
 90 88  1  0
 92 95  1  0
 92 94  1  0
 92 91  1  0
 93 92  1  0
M  ISO  4   8 101   9 101  53 100  61 100
M  END
>  <TORSDO>  (46) 
F 22

>  <SCORE>  (46) 
-13.540

>  <name>  (46) 
46

>  <ligand_id>  (46) 
46

>  <original_smiles>  (46) 
[H]c1c([H])c([H])c2c(c1[H])C([H])([H])C([H])([H])C([H])([H])C2([H])N([H])C(=O)C1([H])N(C(=O)C([H])(N([H])C(=O)C([H])(N([H])C([H])([H])[H])C([H])([H])[H])C(C([H])([H])[H])(C([H])([H])[H])C([H])([H])[H])C([H])([H])c2c([H])c(OC([H])([H])C3([H])N(C(=O)C([H])(C([H])([H])C([H])([H])N([H])C(=O)N4C([H])([H])C([H])([H])C([H])([H])C([H])(n5nc(-c6c([H])c([H])c(Oc7c([H])c([H])c(F)c([H])c7F)c([H])c6[H])c(C(=O)N([H])[H])c5N([H])[H])C4([H])[H])C([H])([H])[N+]([H])([H])[H])C([H])([H])C([H])([H])C3([H])[H])c([H])c([H])c2C1([H])[H]

>  <smiles>  (46) 
[H]c1c([H])c([H])c2c(c1[H])C([H])([H])C([H])([H])C([H])([H])C2([H])N([H])C(=O)C1([H])N(C(=O)C([H])(N([H])C(=O)C([H])(N([H])C([H])([H])[H])C([H])([H])[H])C(C([H])([H])[H])(C([H])([H])[H])C([H])([H])[H])C([H])([H])c2c([H])c(OC([H])([H])C3([H])N(C(=O)C([H])(C([H])([H])C([H])([H])N([H])C(=O)N4C([H])([H])C([H])([H])C([H])([H])C([H])(n5nc(-c6c([H])c([H])c(Oc7c([H])c([H])c(F)c([H])c7F)c([H])c6[H])c(C(=O)N([H])[H])c5N([H])[H])C4([H])[H])C([H])([H])[N+]([H])([H])[H])C([H])([H])C([H])([H])C3([H])[H])c([H])c([H])c2C1([H])[H]

$$$$
47:0:0
     RDKit          3D

 91 99  0  0  1  0  0  0  0  0999 V2000
  -26.9580  -22.3360   20.3450 O   0  0  0  0  0  0  0  0  0  0  0  0
  -28.3400  -22.4300   18.2360 O   0  0  0  0  0  0  0  0  0  0  0  0
  -28.2770  -22.4620   19.7050 S   0  0  2  0  0  0  0  0  0  0  0  0
  -29.2010  -21.0910   20.2600 N   0  0  0  0  0  0  0  0  0  0  0  0
  -30.0550  -21.0400   19.7010 H   0  0  0  0  0  0  0  0  0  0  0  0
  -28.4740  -19.8010   20.1910 C   0  0  0  0  0  2  0  0  0  0  0  0
  -30.7020  -14.5660   20.2440 C   0  0  0  0  0  0  0  0  0  0  0  0
  -30.3660  -12.3820   19.1600 C   0  0  0  0  0  2  0  0  0  0  0  0
  -29.4060  -12.5630   17.9660 C   0  0  0  0  0  2  0  0  0  0  0  0
  -27.9410  -12.4380   18.4260 C   0  0  0  0  0  2  0  0  0  0  0  0
  -27.6210  -13.2870   19.6860 C   0  0  0  0  0  3  0  0  0  0  0  0
  -28.7040  -13.1190   20.7760 C   0  0  0  0  0  2  0  0  0  0  0  0
  -30.0070  -13.3990   20.1600 N   0  0  0  0  0  0  0  0  0  0  0  0
  -31.8890  -14.6510   19.9110 O   0  0  0  0  0  0  0  0  0  0  0  0
  -30.3950  -16.6960   21.3800 C   0  0  0  0  0  2  0  0  0  0  0  0
  -29.7330  -16.4070   19.0930 C   0  0  0  0  0  2  0  0  0  0  0  0
  -29.4850  -17.9590   21.4490 C   0  0  0  0  0  2  0  0  0  0  0  0
  -28.7980  -17.6240   19.2330 C   0  0  0  0  0  2  0  0  0  0  0  0
  -29.9670  -15.7040   20.3700 N   0  0  0  0  0  0  0  0  0  0  0  0
  -29.3700  -18.6250   20.1420 N   0  0  0  0  0  0  0  0  0  0  0  0
  -25.2430  -13.8850   20.4530 C   0  0  0  0  0  0  0  0  0  0  0  0
  -24.1810  -13.1110   20.8360 C   0  0  0  0  0  0  0  0  0  0  0  0
  -24.6430  -11.7590   20.7900 C   0  0  0  0  0  0  0  0  0  0  0  0
  -26.2830  -13.0060   20.1970 N   0  0  0  0  0  0  0  0  0  0  0  0
  -25.9280  -11.7220   20.4600 N   0  0  0  0  0  0  0  0  0  0  0  0
  -23.9190  -10.4960   20.9840 C   0  0  0  0  0  0  0  0  0  0  0  0
  -24.3540   -9.5330   21.9210 C   0  0  0  0  0  3  0  0  0  0  0  0
  -23.6310   -8.3340   22.1030 C   0  0  0  0  0  3  0  0  0  0  0  0
  -22.4600   -8.0900   21.3470 C   0  0  0  0  0  0  0  0  0  0  0  0
  -22.0460   -9.0410   20.3990 C   0  0  0  0  0  3  0  0  0  0  0  0
  -22.7690  -10.2310   20.2150 C   0  0  0  0  0  3  0  0  0  0  0  0
  -21.7080   -6.9440   21.4390 O   0  0  0  0  0  0  0  0  0  0  0  0
  -21.6350   -6.2220   22.6030 C   0  0  0  0  0  0  0  0  0  0  0  0
  -21.1680   -6.7940   23.8080 C   0  0  0  0  0  3  0  0  0  0  0  0
  -21.0440   -5.9970   24.9620 C   0  0  0  0  0  3  0  0  0  0  0  0
  -21.3770   -4.6310   24.9160 C   0  0  0  0  0  0  0  0  0  0  0  0
  -21.8360   -4.0580   23.7160 C   0  0  0  0  0  3  0  0  0  0  0  0
  -21.9620   -4.8520   22.5630 C   0  0  0  0  0  0  0  0  0  0  0  0
  -22.3850   -4.2910   21.4050 F   0  0  0  0  0  0  0  0  0  0  0  0
  -21.2500   -3.8630   26.0230 F   0  0  0  0  0  0  0  0  0  0  0  0
  -22.7890  -13.5870   21.1340 C   0  0  0  0  0  0  0  0  0  0  0  0
  -22.0780  -12.8880   22.0110 N   0  0  0  0  0  0  0  0  0  0  0  0
  -22.3410  -14.6120   20.6220 O   0  0  0  0  0  0  0  0  0  0  0  0
  -22.4540  -12.0580   22.4450 H   0  0  0  0  0  0  0  0  0  0  0  0
  -21.1440  -13.1890   22.2540 H   0  0  0  0  0  0  0  0  0  0  0  0
  -25.4070  -15.2570   20.2820 N   0  0  0  0  0  0  0  0  0  0  0  0
  -24.6470  -15.9150   20.4120 H   0  0  0  0  0  0  0  0  0  0  0  0
  -26.2630  -15.6920   19.9670 H   0  0  0  0  0  0  0  0  0  0  0  0
  -29.0430  -24.0630   20.2880 C   0  0  0  0  0  2  0  0  0  0  0  0
  -28.0730  -25.2120   19.8930 C   0  0  0  0  0  2  0  0  0  0  0  0
  -28.3190  -26.6060   20.2380 O   0  0  0  0  0  0  0  0  0  0  0  0
  -24.6030  -31.9160   23.3010 C   0  0  0  0  0  0  0  0  0  0  0  0
  -27.1930  -27.4320   20.1840 C   0  0  0  0  0  0  0  0  0  0  0  0
  -23.3860  -30.5360   21.6560 C   0  0  0  0  0  3  0  0  0  0  0  0
  -24.8260  -29.0120   20.2080 C   0  0  0  0  0  0  0  0  0  0  0  0
  -25.9230  -30.8640   21.4620 C   0  0  0  0  0  2  0  0  0  0  0  0
  -25.9960  -29.4980   20.8040 C   0  0  0  0  0  0  0  0  0  0  0  0
  -27.1830  -28.7170   20.7910 C   0  0  0  0  0  3  0  0  0  0  0  0
  -25.9980  -27.0000   19.5510 C   0  0  0  0  0  3  0  0  0  0  0  0
  -24.8240  -27.7630   19.5770 C   0  0  0  0  0  3  0  0  0  0  0  0
  -23.5900  -29.8800   20.2680 C   0  0  0  0  0  2  0  0  0  0  0  0
  -24.6560  -31.1190   22.1960 N   0  0  0  0  0  0  0  0  0  0  0  0
  -23.5220  -32.1900   23.8430 O   0  0  0  0  0  0  0  0  0  0  0  0
  -22.7330  -29.5050   22.6060 C   0  0  0  0  0  0  0  0  0  0  0  0
  -21.4080  -29.3240   22.4760 N   0  0  0  0  0  0  0  0  0  0  0  0
  -23.4130  -28.8730   23.4200 O   0  0  0  0  0  0  0  0  0  0  0  0
  -20.9200  -29.8840   21.7910 H   0  0  0  0  0  0  0  0  0  0  0  0
  -18.0310  -28.1270   22.9620 C   0  0  0  0  0  0  0  0  0  0  0  0
  -20.5890  -28.3840   23.2430 C   0  0  0  0  0  3  0  0  0  0  0  0
  -20.6930  -26.9540   22.6650 C   0  0  0  0  0  2  0  0  0  0  0  0
  -19.5940  -26.6320   21.6470 C   0  0  0  0  0  2  0  0  0  0  0  0
  -18.2100  -26.7770   22.2860 C   0  0  0  0  0  2  0  0  0  0  0  0
  -19.1480  -28.8880   23.3970 C   0  0  0  0  0  0  0  0  0  0  0  0
  -18.9270  -30.1510   23.9880 C   0  0  0  0  0  3  0  0  0  0  0  0
  -17.6220  -30.6520   24.1490 C   0  0  0  0  0  3  0  0  0  0  0  0
  -16.5190  -29.8880   23.7310 C   0  0  0  0  0  3  0  0  0  0  0  0
  -16.7240  -28.6270   23.1430 C   0  0  0  0  0  3  0  0  0  0  0  0
  -25.8920  -32.5390   23.9190 C   0  0  0  0  0  3  0  0  0  0  0  0
  -26.4020  -31.7660   25.1960 C   0  0  1  0  0  0  0  0  0  0  0  0
  -25.3090  -31.5380   26.2630 C   0  0  0  0  0  1  0  0  0  0  0  0
  -26.9750  -30.3840   24.8050 C   0  0  0  0  0  1  0  0  0  0  0  0
  -27.5560  -32.5550   25.8570 C   0  0  0  0  0  1  0  0  0  0  0  0
  -25.5930  -33.9400   24.2440 N   0  0  0  0  0  0  0  0  0  0  0  0
  -25.9130  -34.9870   23.4710 C   0  0  0  0  0  0  0  0  0  0  0  0
  -26.5650  -34.8740   22.4290 O   0  0  0  0  0  0  0  0  0  0  0  0
  -25.0150  -34.1010   25.0560 H   0  0  0  0  0  0  0  0  0  0  0  0
  -24.1750  -36.7720   23.1430 C   0  0  0  0  0  1  0  0  0  0  0  0
  -25.4370  -36.3790   23.9270 C   0  0  0  0  0  3  0  0  0  0  0  0
  -27.5910  -37.2730   24.6950 C   0  0  0  0  0  1  0  0  0  0  0  0
  -26.4650  -37.4310   23.7780 N   0  0  0  0  0  0  0  0  0  0  0  0
  -26.0620  -38.3530   23.9250 H   0  0  0  0  0  0  0  0  0  0  0  0
  2  3  2  0
  3  4  1  0
  3 49  1  1
  3  1  2  0
  5  4  1  0
  6  4  1  0
  7 19  1  0
  8 13  1  0
  9 10  1  0
  9  8  1  0
 11 10  1  0
 11 24  1  0
 11 12  1  0
 13  7  1  0
 13 12  1  0
 14  7  2  0
 15 17  1  0
 16 18  1  0
 16 19  1  0
 18 20  1  0
 19 15  1  0
 20  6  1  0
 20 17  1  0
 21 22  2  0
 22 41  1  0
 23 22  1  0
 23 26  1  0
 24 21  1  0
 24 25  1  0
 25 23  2  0
 26 27  1  0
 27 28  2  0
 29 32  1  0
 29 28  1  0
 30 29  2  0
 31 30  1  0
 31 26  2  0
 32 33  1  0
 33 34  1  0
 34 35  2  0
 36 35  1  0
 36 40  1  0
 37 36  2  0
 38 33  2  0
 38 37  1  0
 39 38  1  0
 41 42  1  0
 42 45  1  0
 42 44  1  0
 43 41  2  0
 46 47  1  0
 46 21  1  0
 48 46  1  0
 50 51  1  0
 50 49  1  0
 52 63  2  0
 53 51  1  0
 53 58  1  0
 54 62  1  0
 54 64  1  0
 55 61  1  0
 55 57  1  0
 56 62  1  0
 57 56  1  0
 58 57  2  0
 59 60  1  0
 59 53  2  0
 60 55  2  0
 61 54  1  0
 62 52  1  0
 64 66  2  0
 65 64  1  0
 67 65  1  0
 68 77  2  0
 68 73  1  0
 69 65  1  0
 69 73  1  0
 70 69  1  0
 71 72  1  0
 71 70  1  0
 72 68  1  0
 73 74  2  0
 74 75  1  0
 76 75  2  0
 77 76  1  0
 78 52  1  0
 78 83  1  0
 78 79  1  0
 79 82  1  1
 79 80  1  0
 81 79  1  0
 83 86  1  0
 84 88  1  0
 84 83  1  0
 85 84  2  0
 88 87  1  0
 90 91  1  0
 90 88  1  0
 90 89  1  0
M  ISO  4   7 100  19 100  50 101  51 101
M  END
>  <TORSDO>  (47) 
F 20

>  <SCORE>  (47) 
-13.669

>  <name>  (47) 
47

>  <ligand_id>  (47) 
47

>  <original_smiles>  (47) 
[H]c1c([H])c([H])c2c(c1[H])C([H])([H])C([H])([H])C([H])([H])C2([H])N([H])C(=O)C1([H])N(C(=O)C([H])(N([H])C(=O)C([H])(N([H])C([H])([H])[H])C([H])([H])[H])C(C([H])([H])[H])(C([H])([H])[H])C([H])([H])[H])C([H])([H])c2c([H])c(OC([H])([H])C([H])([H])S(=O)(=O)N([H])C([H])([H])N3C([H])([H])C([H])([H])N(C(=O)N4C([H])([H])C([H])([H])C([H])([H])C([H])(n5nc(-c6c([H])c([H])c(Oc7c([H])c([H])c(F)c([H])c7F)c([H])c6[H])c(C(=O)N([H])[H])c5N([H])[H])C4([H])[H])C([H])([H])C3([H])[H])c([H])c([H])c2C1([H])[H]

>  <smiles>  (47) 
[H]c1c([H])c([H])c2c(c1[H])C([H])([H])C([H])([H])C([H])([H])C2([H])N([H])C(=O)C1([H])N(C(=O)C([H])(N([H])C(=O)C([H])(N([H])C([H])([H])[H])C([H])([H])[H])C(C([H])([H])[H])(C([H])([H])[H])C([H])([H])[H])C([H])([H])c2c([H])c(OC([H])([H])C([H])([H])S(=O)(=O)N([H])C([H])([H])N3C([H])([H])C([H])([H])N(C(=O)N4C([H])([H])C([H])([H])C([H])([H])C([H])(n5nc(-c6c([H])c([H])c(Oc7c([H])c([H])c(F)c([H])c7F)c([H])c6[H])c(C(=O)N([H])[H])c5N([H])[H])C4([H])[H])C([H])([H])C3([H])[H])c([H])c([H])c2C1([H])[H]

$$$$
48:0:0
     RDKit          3D

 93101  0  0  1  0  0  0  0  0999 V2000
  -30.8300  -19.6000   20.1860 C   0  0  0  0  0  0  0  0  0  0  0  0
  -30.2040  -20.6900   19.7130 N   0  0  0  0  0  0  0  0  0  0  0  0
  -31.9350  -19.6610   20.7280 O   0  0  0  0  0  0  0  0  0  0  0  0
  -29.3330  -20.5540   19.2160 H   0  0  0  0  0  0  0  0  0  0  0  0
  -30.8130  -14.5380   20.0560 C   0  0  0  0  0  0  0  0  0  0  0  0
  -30.4420  -12.4620   18.7600 C   0  0  0  0  0  2  0  0  0  0  0  0
  -29.4130  -12.7140   17.6360 C   0  0  0  0  0  2  0  0  0  0  0  0
  -27.9610  -12.5720   18.1450 C   0  0  0  0  0  2  0  0  0  0  0  0
  -27.7230  -13.2990   19.4990 C   0  0  0  0  0  3  0  0  0  0  0  0
  -28.8530  -12.9070   20.4790 C   0  0  0  0  0  2  0  0  0  0  0  0
  -30.1060  -13.3750   19.8740 N   0  0  0  0  0  0  0  0  0  0  0  0
  -31.9510  -14.6260   19.5800 O   0  0  0  0  0  0  0  0  0  0  0  0
  -29.1570  -15.8570   21.5140 C   0  0  0  0  0  2  0  0  0  0  0  0
  -30.9210  -16.9890   20.2310 C   0  0  0  0  0  2  0  0  0  0  0  0
  -28.2670  -17.0950   21.3300 C   0  0  0  0  0  2  0  0  0  0  0  0
  -30.0420  -18.2740   20.1370 C   0  0  0  0  0  3  0  0  0  0  0  0
  -30.1870  -15.7020   20.4590 N   0  0  0  0  0  0  0  0  0  0  0  0
  -29.0650  -18.3170   21.2330 N   0  0  0  0  0  4  0  0  0  0  0  0
  -29.5640  -18.4700   22.0930 H   0  0  0  0  0  0  0  0  0  0  0  0
  -28.4590  -19.1100   21.1010 H   0  0  0  0  0  0  0  0  0  0  0  0
  -25.3510  -13.8910   20.3030 C   0  0  0  0  0  0  0  0  0  0  0  0
  -24.3080  -13.1110   20.7210 C   0  0  0  0  0  0  0  0  0  0  0  0
  -24.7770  -11.7640   20.6620 C   0  0  0  0  0  0  0  0  0  0  0  0
  -26.3950  -13.0190   20.0320 N   0  0  0  0  0  0  0  0  0  0  0  0
  -26.0520  -11.7330   20.2950 N   0  0  0  0  0  0  0  0  0  0  0  0
  -24.0690  -10.4960   20.8760 C   0  0  0  0  0  0  0  0  0  0  0  0
  -24.5250   -9.5480   21.8170 C   0  0  0  0  0  3  0  0  0  0  0  0
  -23.8160   -8.3440   22.0200 C   0  0  0  0  0  3  0  0  0  0  0  0
  -22.6380   -8.0820   21.2820 C   0  0  0  0  0  0  0  0  0  0  0  0
  -22.2020   -9.0200   20.3300 C   0  0  0  0  0  3  0  0  0  0  0  0
  -22.9120  -10.2140   20.1250 C   0  0  0  0  0  3  0  0  0  0  0  0
  -21.8990   -6.9290   21.3950 O   0  0  0  0  0  0  0  0  0  0  0  0
  -21.8220   -6.2380   22.5770 C   0  0  0  0  0  0  0  0  0  0  0  0
  -21.3390   -6.8390   23.7610 C   0  0  0  0  0  3  0  0  0  0  0  0
  -21.2110   -6.0730   24.9360 C   0  0  0  0  0  3  0  0  0  0  0  0
  -21.5560   -4.7080   24.9300 C   0  0  0  0  0  0  0  0  0  0  0  0
  -22.0320   -4.1080   23.7510 C   0  0  0  0  0  3  0  0  0  0  0  0
  -22.1620   -4.8700   22.5780 C   0  0  0  0  0  0  0  0  0  0  0  0
  -22.6030   -4.2830   21.4390 F   0  0  0  0  0  0  0  0  0  0  0  0
  -21.4250   -3.9700   26.0560 F   0  0  0  0  0  0  0  0  0  0  0  0
  -22.9220  -13.5790   21.0550 C   0  0  0  0  0  0  0  0  0  0  0  0
  -22.2490  -12.8910   21.9710 N   0  0  0  0  0  0  0  0  0  0  0  0
  -22.4470  -14.5910   20.5400 O   0  0  0  0  0  0  0  0  0  0  0  0
  -22.6480  -12.0750   22.4100 H   0  0  0  0  0  0  0  0  0  0  0  0
  -21.3220  -13.1880   22.2400 H   0  0  0  0  0  0  0  0  0  0  0  0
  -25.4830  -15.2630   20.1070 N   0  0  0  0  0  0  0  0  0  0  0  0
  -24.6570  -15.8460   20.1700 H   0  0  0  0  0  0  0  0  0  0  0  0
  -26.1850  -15.6460   19.4920 H   0  0  0  0  0  0  0  0  0  0  0  0
  -30.6420  -22.0760   19.8850 C   0  0  0  0  0  2  0  0  0  0  0  0
  -29.4600  -23.0320   19.6320 C   0  0  0  0  0  2  0  0  0  0  0  0
  -29.7230  -24.5110   19.9830 C   0  0  0  0  0  2  0  0  0  0  0  0
  -28.5150  -25.3880   19.6110 C   0  0  0  0  0  2  0  0  0  0  0  0
  -28.5960  -26.7350   20.1020 O   0  0  0  0  0  0  0  0  0  0  0  0
  -24.7140  -31.7490   23.3690 C   0  0  0  0  0  0  0  0  0  0  0  0
  -27.4220  -27.4690   20.0980 C   0  0  0  0  0  0  0  0  0  0  0  0
  -23.5460  -30.4460   21.6240 C   0  0  0  0  0  3  0  0  0  0  0  0
  -25.0280  -28.9900   20.1500 C   0  0  0  0  0  0  0  0  0  0  0  0
  -26.0820  -30.7970   21.5140 C   0  0  0  0  0  2  0  0  0  0  0  0
  -26.1760  -29.4670   20.7950 C   0  0  0  0  0  0  0  0  0  0  0  0
  -27.3740  -28.7140   20.7680 C   0  0  0  0  0  3  0  0  0  0  0  0
  -26.2470  -27.0150   19.4440 C   0  0  0  0  0  3  0  0  0  0  0  0
  -25.0570  -27.7600   19.4790 C   0  0  0  0  0  3  0  0  0  0  0  0
  -23.7890  -29.8530   20.2140 C   0  0  0  0  0  2  0  0  0  0  0  0
  -24.7960  -31.0110   22.2250 N   0  0  0  0  0  0  0  0  0  0  0  0
  -23.6200  -31.9940   23.8970 O   0  0  0  0  0  0  0  0  0  0  0  0
  -22.8730  -29.3690   22.5060 C   0  0  0  0  0  0  0  0  0  0  0  0
  -21.5560  -29.1800   22.3200 N   0  0  0  0  0  0  0  0  0  0  0  0
  -23.5340  -28.7130   23.3150 O   0  0  0  0  0  0  0  0  0  0  0  0
  -21.0840  -29.7650   21.6440 H   0  0  0  0  0  0  0  0  0  0  0  0
  -18.1800  -27.9330   22.6370 C   0  0  0  0  0  0  0  0  0  0  0  0
  -20.7230  -28.2000   23.0160 C   0  0  0  0  0  3  0  0  0  0  0  0
  -20.8620  -26.7990   22.3780 C   0  0  0  0  0  2  0  0  0  0  0  0
  -19.8010  -26.5140   21.3090 C   0  0  0  0  0  2  0  0  0  0  0  0
  -18.3960  -26.6170   21.9070 C   0  0  0  0  0  2  0  0  0  0  0  0
  -19.2740  -28.6830   23.1440 C   0  0  0  0  0  0  0  0  0  0  0  0
  -19.0220  -29.9170   23.7820 C   0  0  0  0  0  3  0  0  0  0  0  0
  -17.7070  -30.4000   23.9190 C   0  0  0  0  0  3  0  0  0  0  0  0
  -16.6260  -29.6470   23.4280 C   0  0  0  0  0  3  0  0  0  0  0  0
  -16.8640  -28.4130   22.7940 C   0  0  0  0  0  3  0  0  0  0  0  0
  -25.9870  -32.3390   24.0530 C   0  0  0  0  0  3  0  0  0  0  0  0
  -26.4570  -31.5170   25.3130 C   0  0  1  0  0  0  0  0  0  0  0  0
  -25.3260  -31.2530   26.3360 C   0  0  0  0  0  1  0  0  0  0  0  0
  -27.0400  -30.1480   24.8910 C   0  0  0  0  0  1  0  0  0  0  0  0
  -27.5930  -32.2770   26.0390 C   0  0  0  0  0  1  0  0  0  0  0  0
  -25.6850  -33.7290   24.4190 N   0  0  0  0  0  0  0  0  0  0  0  0
  -26.0290  -34.7990   23.6890 C   0  0  0  0  0  0  0  0  0  0  0  0
  -26.7050  -34.7190   22.6600 O   0  0  0  0  0  0  0  0  0  0  0  0
  -25.0860  -33.8660   25.2200 H   0  0  0  0  0  0  0  0  0  0  0  0
  -24.3000  -36.5990   23.3830 C   0  0  0  0  0  1  0  0  0  0  0  0
  -25.5440  -36.1760   24.1820 C   0  0  0  0  0  3  0  0  0  0  0  0
  -27.6800  -37.0410   25.0300 C   0  0  0  0  0  1  0  0  0  0  0  0
  -26.5770  -37.2300   24.0910 N   0  0  0  0  0  0  0  0  0  0  0  0
  -26.1720  -38.1470   24.2580 H   0  0  0  0  0  0  0  0  0  0  0  0
  1  3  2  0
  2 49  1  0
  2  1  1  0
  4  2  1  0
  5 17  1  0
  6 11  1  0
  7  8  1  0
  7  6  1  0
  9  8  1  0
  9 24  1  0
  9 10  1  0
 11  5  1  0
 11 10  1  0
 12  5  2  0
 14 17  1  0
 15 13  1  0
 16  1  1  0
 16 14  1  0
 16 18  1  0
 17 13  1  0
 18 15  1  0
 18 19  1  0
 20 18  1  0
 21 22  2  0
 22 41  1  0
 23 22  1  0
 23 26  1  0
 24 25  1  0
 24 21  1  0
 25 23  2  0
 26 27  1  0
 27 28  2  0
 29 32  1  0
 29 28  1  0
 30 29  2  0
 31 30  1  0
 31 26  2  0
 32 33  1  0
 33 38  2  0
 33 34  1  0
 34 35  2  0
 36 35  1  0
 36 40  1  0
 37 36  2  0
 38 37  1  0
 39 38  1  0
 41 42  1  0
 42 45  1  0
 42 44  1  0
 43 41  2  0
 46 47  1  0
 46 21  1  0
 48 46  1  0
 50 49  1  0
 50 51  1  0
 52 51  1  0
 52 53  1  0
 54 65  2  0
 55 53  1  0
 55 60  1  0
 56 64  1  0
 56 66  1  0
 57 63  1  0
 57 59  1  0
 58 64  1  0
 59 58  1  0
 60 59  2  0
 61 62  1  0
 61 55  2  0
 62 57  2  0
 63 56  1  0
 64 54  1  0
 66 68  2  0
 67 66  1  0
 69 67  1  0
 70 79  2  0
 70 75  1  0
 71 67  1  0
 71 75  1  0
 72 71  1  0
 73 74  1  0
 73 72  1  0
 74 70  1  0
 75 76  2  0
 76 77  1  0
 78 77  2  0
 79 78  1  0
 80 54  1  0
 80 85  1  0
 80 81  1  0
 81 84  1  1
 81 82  1  0
 83 81  1  0
 85 88  1  0
 86 90  1  0
 86 85  1  0
 87 86  2  0
 90 89  1  0
 92 90  1  0
 92 93  1  0
 92 91  1  0
M  ISO  4   5 100  17 100  52 101  53 101
M  END
>  <TORSDO>  (48) 
F 20

>  <SCORE>  (48) 
-11.963

>  <name>  (48) 
48

>  <ligand_id>  (48) 
48

>  <original_smiles>  (48) 
[H]c1c([H])c([H])c2c(c1[H])C([H])([H])C([H])([H])C([H])([H])C2([H])N([H])C(=O)C1([H])N(C(=O)C([H])(N([H])C(=O)C([H])(N([H])C([H])([H])[H])C([H])([H])[H])C(C([H])([H])[H])(C([H])([H])[H])C([H])([H])[H])C([H])([H])c2c([H])c(OC([H])([H])C([H])([H])C([H])([H])C([H])([H])N([H])C(=O)C3([H])C([H])([H])N(C(=O)N4C([H])([H])C([H])([H])C([H])([H])C([H])(n5nc(-c6c([H])c([H])c(Oc7c([H])c([H])c(F)c([H])c7F)c([H])c6[H])c(C(=O)N([H])[H])c5N([H])[H])C4([H])[H])C([H])([H])C([H])([H])[N+]3([H])[H])c([H])c([H])c2C1([H])[H]

>  <smiles>  (48) 
[H]c1c([H])c([H])c2c(c1[H])C([H])([H])C([H])([H])C([H])([H])C2([H])N([H])C(=O)C1([H])N(C(=O)C([H])(N([H])C(=O)C([H])(N([H])C([H])([H])[H])C([H])([H])[H])C(C([H])([H])[H])(C([H])([H])[H])C([H])([H])[H])C([H])([H])c2c([H])c(OC([H])([H])C([H])([H])C([H])([H])C([H])([H])N([H])C(=O)C3([H])C([H])([H])N(C(=O)N4C([H])([H])C([H])([H])C([H])([H])C([H])(n5nc(-c6c([H])c([H])c(Oc7c([H])c([H])c(F)c([H])c7F)c([H])c6[H])c(C(=O)N([H])[H])c5N([H])[H])C4([H])[H])C([H])([H])C([H])([H])[N+]3([H])[H])c([H])c([H])c2C1([H])[H]

$$$$
49:0:0
     RDKit          3D

 90 98  0  0  1  0  0  0  0  0999 V2000
  -30.1490  -21.8900   19.4440 C   0  0  0  0  0  2  0  0  0  0  0  0
  -27.9230  -21.9090   20.1520 C   0  0  0  0  0  2  0  0  0  0  0  0
  -30.3800  -20.4390   20.0190 C   0  0  0  0  0  2  0  0  0  0  0  0
  -28.0760  -20.4630   20.7440 C   0  0  0  0  0  2  0  0  0  0  0  0
  -29.1730  -22.6880   20.2220 N   0  0  0  0  0  0  0  0  0  0  0  0
  -29.1190  -19.6320   20.0590 N   0  0  2  0  0  4  0  0  0  0  0  0
  -28.8140  -19.5410   19.1020 H   0  0  0  0  0  0  0  0  0  0  0  0
  -29.0370  -24.0860   19.6860 C   0  0  0  0  0  3  0  0  0  0  0  0
  -28.2740  -25.1550   20.5720 C   0  0  0  0  0  3  0  0  0  0  0  0
  -28.4140  -26.5660   20.1770 O   0  0  0  0  0  0  0  0  0  0  0  0
  -24.6070  -31.8660   23.2070 C   0  0  0  0  0  0  0  0  0  0  0  0
  -27.2720  -27.3620   20.1620 C   0  0  0  0  0  0  0  0  0  0  0  0
  -23.4200  -30.4640   21.5540 C   0  0  0  0  0  3  0  0  0  0  0  0
  -24.8870  -28.9210   20.1370 C   0  0  0  0  0  0  0  0  0  0  0  0
  -25.9540  -30.8090   21.3790 C   0  0  0  0  0  2  0  0  0  0  0  0
  -26.0450  -29.4320   20.7370 C   0  0  0  0  0  0  0  0  0  0  0  0
  -27.2420  -28.6660   20.7350 C   0  0  0  0  0  3  0  0  0  0  0  0
  -26.0930  -26.8880   19.5410 C   0  0  0  0  0  3  0  0  0  0  0  0
  -24.9100  -27.6540   19.5310 C   0  0  0  0  0  3  0  0  0  0  0  0
  -23.6430  -29.7860   20.1760 C   0  0  0  0  0  2  0  0  0  0  0  0
  -24.6790  -31.0640   22.1050 N   0  0  0  0  0  0  0  0  0  0  0  0
  -23.5190  -32.1350   23.7380 O   0  0  0  0  0  0  0  0  0  0  0  0
  -22.7560  -29.4450   22.5120 C   0  0  0  0  0  0  0  0  0  0  0  0
  -21.4290  -29.2760   22.3890 N   0  0  0  0  0  0  0  0  0  0  0  0
  -23.4330  -28.8050   23.3180 O   0  0  0  0  0  0  0  0  0  0  0  0
  -20.9430  -29.8410   21.7070 H   0  0  0  0  0  0  0  0  0  0  0  0
  -18.0420  -28.1180   22.8990 C   0  0  0  0  0  0  0  0  0  0  0  0
  -20.6060  -28.3350   23.1500 C   0  0  0  0  0  3  0  0  0  0  0  0
  -20.6850  -26.9110   22.5510 C   0  0  0  0  0  2  0  0  0  0  0  0
  -19.5660  -26.6210   21.5430 C   0  0  0  0  0  2  0  0  0  0  0  0
  -18.1930  -26.7780   22.1990 C   0  0  0  0  0  2  0  0  0  0  0  0
  -19.1770  -28.8560   23.3300 C   0  0  0  0  0  0  0  0  0  0  0  0
  -18.9790  -30.1160   23.9380 C   0  0  0  0  0  3  0  0  0  0  0  0
  -17.6830  -30.6330   24.1200 C   0  0  0  0  0  3  0  0  0  0  0  0
  -16.5650  -29.8900   23.7050 C   0  0  0  0  0  3  0  0  0  0  0  0
  -16.7450  -28.6330   23.1000 C   0  0  0  0  0  3  0  0  0  0  0  0
  -25.8820  -32.4990   23.8430 C   0  0  0  0  0  3  0  0  0  0  0  0
  -26.3800  -31.7350   25.1320 C   0  0  1  0  0  0  0  0  0  0  0  0
  -25.2730  -31.5050   26.1880 C   0  0  0  0  0  1  0  0  0  0  0  0
  -26.9650  -30.3570   24.7520 C   0  0  0  0  0  1  0  0  0  0  0  0
  -27.5210  -32.5340   25.8060 C   0  0  0  0  0  1  0  0  0  0  0  0
  -25.5680  -33.8990   24.1630 N   0  0  0  0  0  0  0  0  0  0  0  0
  -25.9160  -34.9480   23.4060 C   0  0  0  0  0  0  0  0  0  0  0  0
  -26.6030  -34.8410   22.3880 O   0  0  0  0  0  0  0  0  0  0  0  0
  -24.9630  -34.0580   24.9550 H   0  0  0  0  0  0  0  0  0  0  0  0
  -24.1960  -36.7420   23.0200 C   0  0  0  0  0  1  0  0  0  0  0  0
  -25.4240  -36.3390   23.8530 C   0  0  0  0  0  3  0  0  0  0  0  0
  -27.5460  -37.2210   24.7180 C   0  0  0  0  0  1  0  0  0  0  0  0
  -26.4600  -37.3910   23.7550 N   0  0  0  0  0  0  0  0  0  0  0  0
  -26.0520  -38.3120   23.8930 H   0  0  0  0  0  0  0  0  0  0  0  0
  -29.1960  -18.2190   20.6360 C   0  0  0  0  0  3  0  0  0  0  0  0
  -30.0590  -17.1090   19.9030 C   0  0  0  0  0  3  0  0  0  0  0  0
  -30.6610  -14.6140   20.1080 C   0  0  0  0  0  0  0  0  0  0  0  0
  -30.3900  -12.3930   19.0530 C   0  0  0  0  0  2  0  0  0  0  0  0
  -29.4080  -12.5690   17.8720 C   0  0  0  0  0  2  0  0  0  0  0  0
  -27.9550  -12.3950   18.3540 C   0  0  0  0  0  2  0  0  0  0  0  0
  -27.6410  -13.2460   19.6160 C   0  0  0  0  0  3  0  0  0  0  0  0
  -28.7380  -13.0740   20.6930 C   0  0  0  0  0  2  0  0  0  0  0  0
  -30.0310  -13.4000   20.0720 N   0  0  0  0  0  0  0  0  0  0  0  0
  -31.8030  -14.7660   19.6710 O   0  0  0  0  0  0  0  0  0  0  0  0
  -29.8820  -15.6970   20.4020 N   0  0  0  0  0  0  0  0  0  0  0  0
  -28.9830  -15.4740   20.8040 H   0  0  0  0  0  0  0  0  0  0  0  0
  -25.2760  -13.8430   20.4220 C   0  0  0  0  0  0  0  0  0  0  0  0
  -24.2220  -13.0680   20.8300 C   0  0  0  0  0  0  0  0  0  0  0  0
  -24.6820  -11.7170   20.7740 C   0  0  0  0  0  0  0  0  0  0  0  0
  -26.3100  -12.9630   20.1450 N   0  0  0  0  0  0  0  0  0  0  0  0
  -25.9600  -11.6790   20.4170 N   0  0  0  0  0  0  0  0  0  0  0  0
  -23.9640  -10.4520   20.9810 C   0  0  0  0  0  0  0  0  0  0  0  0
  -24.4200   -9.4880   21.9080 C   0  0  0  0  0  3  0  0  0  0  0  0
  -23.7020   -8.2890   22.1050 C   0  0  0  0  0  3  0  0  0  0  0  0
  -22.5130   -8.0460   21.3750 C   0  0  0  0  0  0  0  0  0  0  0  0
  -22.0760   -8.9980   20.4370 C   0  0  0  0  0  3  0  0  0  0  0  0
  -22.7950  -10.1890   20.2380 C   0  0  0  0  0  3  0  0  0  0  0  0
  -21.7670   -6.8970   21.4800 O   0  0  0  0  0  0  0  0  0  0  0  0
  -21.7380   -6.1610   22.6370 C   0  0  0  0  0  0  0  0  0  0  0  0
  -21.3130   -6.7170   23.8630 C   0  0  0  0  0  3  0  0  0  0  0  0
  -21.2330   -5.9080   25.0150 C   0  0  0  0  0  3  0  0  0  0  0  0
  -21.5650   -4.5420   24.9380 C   0  0  0  0  0  0  0  0  0  0  0  0
  -21.9810   -3.9830   23.7170 C   0  0  0  0  0  3  0  0  0  0  0  0
  -22.0640   -4.7900   22.5680 C   0  0  0  0  0  0  0  0  0  0  0  0
  -22.4450   -4.2440   21.3890 F   0  0  0  0  0  0  0  0  0  0  0  0
  -21.4800   -3.7590   26.0410 F   0  0  0  0  0  0  0  0  0  0  0  0
  -22.8350  -13.5420   21.1540 C   0  0  0  0  0  0  0  0  0  0  0  0
  -22.1350  -12.8370   22.0350 N   0  0  0  0  0  0  0  0  0  0  0  0
  -22.3810  -14.5720   20.6590 O   0  0  0  0  0  0  0  0  0  0  0  0
  -22.5140  -12.0020   22.4570 H   0  0  0  0  0  0  0  0  0  0  0  0
  -21.2030  -13.1330   22.2880 H   0  0  0  0  0  0  0  0  0  0  0  0
  -25.4360  -15.2150   20.2370 N   0  0  0  0  0  0  0  0  0  0  0  0
  -24.6670  -15.8660   20.3440 H   0  0  0  0  0  0  0  0  0  0  0  0
  -26.2460  -15.6260   19.7910 H   0  0  0  0  0  0  0  0  0  0  0  0
  1  3  1  0
  1  5  1  0
  2  5  1  0
  2  4  1  0
  3  6  1  0
  6 51  1  0
  6  4  1  0
  6  7  1  6
  8  5  1  0
  8  9  2  0
 10  9  1  0
 11 22  2  0
 12 10  1  0
 12 17  1  0
 13 21  1  0
 13 23  1  0
 14 20  1  0
 14 16  1  0
 15 21  1  0
 16 15  1  0
 17 16  2  0
 18 12  2  0
 19 18  1  0
 19 14  2  0
 20 13  1  0
 21 11  1  0
 23 25  2  0
 24 23  1  0
 26 24  1  0
 27 36  2  0
 27 32  1  0
 28 24  1  0
 28 32  1  0
 29 28  1  0
 30 31  1  0
 30 29  1  0
 31 27  1  0
 32 33  2  0
 33 34  1  0
 35 34  2  0
 36 35  1  0
 37 11  1  0
 37 42  1  0
 37 38  1  0
 38 41  1  1
 38 39  1  0
 40 38  1  0
 42 45  1  0
 43 47  1  0
 43 42  1  0
 44 43  2  0
 47 46  1  0
 49 47  1  0
 49 50  1  0
 49 48  1  0
 52 61  1  0
 52 51  2  0
 53 61  1  0
 54 59  1  0
 55 56  1  0
 55 54  1  0
 57 56  1  0
 57 66  1  0
 57 58  1  0
 59 53  1  0
 59 58  1  0
 60 53  2  0
 61 62  1  0
 63 64  2  0
 64 83  1  0
 65 64  1  0
 65 68  1  0
 66 67  1  0
 66 63  1  0
 67 65  2  0
 68 69  1  0
 69 70  2  0
 71 74  1  0
 71 70  1  0
 72 71  2  0
 73 72  1  0
 73 68  2  0
 74 75  1  0
 75 76  1  0
 76 77  2  0
 78 77  1  0
 78 82  1  0
 79 78  2  0
 80 75  2  0
 80 79  1  0
 81 80  1  0
 83 84  1  0
 84 87  1  0
 84 86  1  0
 85 83  2  0
 88 89  1  0
 88 63  1  0
 90 88  1  0
M  ISO  4   9 101  10 101  53 100  61 100
M  END
>  <TORSDO>  (49) 
F 20

>  <SCORE>  (49) 
-13.596

>  <name>  (49) 
49

>  <ligand_id>  (49) 
49

>  <original_smiles>  (49) 
[H]c1c([H])c([H])c2c(c1[H])C([H])([H])C([H])([H])C([H])([H])C2([H])N([H])C(=O)C1([H])N(C(=O)C([H])(N([H])C(=O)C([H])(N([H])C([H])([H])[H])C([H])([H])[H])C(C([H])([H])[H])(C([H])([H])[H])C([H])([H])[H])C([H])([H])c2c([H])c(OC([H])([H])C([H])([H])N3C([H])([H])C([H])([H])[N+]([H])(C([H])([H])C([H])([H])N([H])C(=O)N4C([H])([H])C([H])([H])C([H])([H])C([H])(n5nc(-c6c([H])c([H])c(Oc7c([H])c([H])c(F)c([H])c7F)c([H])c6[H])c(C(=O)N([H])[H])c5N([H])[H])C4([H])[H])C([H])([H])C3([H])[H])c([H])c([H])c2C1([H])[H]

>  <smiles>  (49) 
[H]c1c([H])c([H])c2c(c1[H])C([H])([H])C([H])([H])C([H])([H])C2([H])N([H])C(=O)C1([H])N(C(=O)C([H])(N([H])C(=O)C([H])(N([H])C([H])([H])[H])C([H])([H])[H])C(C([H])([H])[H])(C([H])([H])[H])C([H])([H])[H])C([H])([H])c2c([H])c(OC([H])([H])C([H])([H])N3C([H])([H])C([H])([H])[N+]([H])(C([H])([H])C([H])([H])N([H])C(=O)N4C([H])([H])C([H])([H])C([H])([H])C([H])(n5nc(-c6c([H])c([H])c(Oc7c([H])c([H])c(F)c([H])c7F)c([H])c6[H])c(C(=O)N([H])[H])c5N([H])[H])C4([H])[H])C([H])([H])C3([H])[H])c([H])c([H])c2C1([H])[H]

$$$$
50:0:0
     RDKit          3D

102109  0  0  1  0  0  0  0  0999 V2000
  -29.3000  -19.7250   21.7000 C   0  0  0  0  0  2  0  0  0  0  0  0
  -29.9840  -18.6460   20.7940 C   0  0  0  0  0  3  0  0  0  0  0  0
  -31.4740  -18.3990   21.2440 C   0  0  0  0  0  3  0  0  0  0  0  0
  -31.7470  -18.5070   22.7770 C   0  0  0  0  0  2  0  0  0  0  0  0
  -30.9740  -17.5840   23.6280 N   0  0  0  0  0  4  0  0  0  0  0  0
  -29.9820  -17.6930   23.5090 H   0  0  0  0  0  0  0  0  0  0  0  0
  -31.1820  -17.7870   24.5910 H   0  0  0  0  0  0  0  0  0  0  0  0
  -31.2350  -16.6290   23.4740 H   0  0  0  0  0  0  0  0  0  0  0  0
  -32.2580  -17.2330   20.5630 C   0  0  0  0  0  2  0  0  0  0  0  0
  -31.9960  -14.9580   19.5960 C   0  0  0  0  0  0  0  0  0  0  0  0
  -31.6470  -12.5840   18.9910 C   0  0  0  0  0  2  0  0  0  0  0  0
  -30.6770  -12.4250   17.8030 C   0  0  0  0  0  2  0  0  0  0  0  0
  -29.2120  -12.4220   18.2800 C   0  0  0  0  0  2  0  0  0  0  0  0
  -28.9000  -13.5980   19.2420 C   0  0  0  0  0  3  0  0  0  0  0  0
  -29.9610  -13.6780   20.3580 C   0  0  0  0  0  2  0  0  0  0  0  0
  -31.2840  -13.8070   19.7220 N   0  0  0  0  0  0  0  0  0  0  0  0
  -33.0270  -15.0470   18.9220 O   0  0  0  0  0  0  0  0  0  0  0  0
  -31.5120  -15.9990   20.2990 N   0  0  0  0  0  0  0  0  0  0  0  0
  -30.6390  -15.8310   20.7710 H   0  0  0  0  0  0  0  0  0  0  0  0
  -26.6510  -14.4990   20.1110 C   0  0  0  0  0  0  0  0  0  0  0  0
  -25.5140  -13.8640   20.5310 C   0  0  0  0  0  0  0  0  0  0  0  0
  -25.7880  -12.4650   20.4400 C   0  0  0  0  0  0  0  0  0  0  0  0
  -27.5510  -13.4940   19.7940 N   0  0  0  0  0  0  0  0  0  0  0  0
  -27.0370  -12.2630   20.0460 N   0  0  0  0  0  0  0  0  0  0  0  0
  -24.9130  -11.3030   20.6480 C   0  0  0  0  0  0  0  0  0  0  0  0
  -25.2630  -10.2620   21.5350 C   0  0  0  0  0  3  0  0  0  0  0  0
  -24.3950   -9.1650   21.7290 C   0  0  0  0  0  3  0  0  0  0  0  0
  -23.1640   -9.1050   21.0360 C   0  0  0  0  0  0  0  0  0  0  0  0
  -22.8310  -10.1310   20.1350 C   0  0  0  0  0  3  0  0  0  0  0  0
  -23.6980  -11.2190   19.9370 C   0  0  0  0  0  3  0  0  0  0  0  0
  -22.2700   -8.0660   21.1440 O   0  0  0  0  0  0  0  0  0  0  0  0
  -22.0260   -7.4480   22.3430 C   0  0  0  0  0  0  0  0  0  0  0  0
  -21.5640   -8.1640   23.4700 C   0  0  0  0  0  3  0  0  0  0  0  0
  -21.2590   -7.4780   24.6620 C   0  0  0  0  0  3  0  0  0  0  0  0
  -21.4040   -6.0790   24.7290 C   0  0  0  0  0  0  0  0  0  0  0  0
  -21.8590   -5.3660   23.6070 C   0  0  0  0  0  3  0  0  0  0  0  0
  -22.1650   -6.0470   22.4170 C   0  0  0  0  0  0  0  0  0  0  0  0
  -22.5820   -5.3510   21.3310 F   0  0  0  0  0  0  0  0  0  0  0  0
  -21.1040   -5.4210   25.8720 F   0  0  0  0  0  0  0  0  0  0  0  0
  -24.2120  -14.5130   20.9040 C   0  0  0  0  0  0  0  0  0  0  0  0
  -23.4860  -13.9310   21.8530 N   0  0  0  0  0  0  0  0  0  0  0  0
  -23.8550  -15.5710   20.3900 O   0  0  0  0  0  0  0  0  0  0  0  0
  -23.7900  -13.0730   22.2890 H   0  0  0  0  0  0  0  0  0  0  0  0
  -22.6130  -14.3490   22.1440 H   0  0  0  0  0  0  0  0  0  0  0  0
  -26.9900  -15.8400   19.9540 N   0  0  0  0  0  0  0  0  0  0  0  0
  -26.3170  -16.5840   20.0980 H   0  0  0  0  0  0  0  0  0  0  0  0
  -27.8500  -16.1600   19.5300 H   0  0  0  0  0  0  0  0  0  0  0  0
  -29.8310  -18.9280   19.2710 C   0  0  0  0  0  2  0  0  0  0  0  0
  -30.6390  -20.0560   18.7760 N   0  0  0  0  0  4  0  0  0  0  0  0
  -30.4630  -20.8980   19.2940 H   0  0  0  0  0  0  0  0  0  0  0  0
  -30.4030  -20.2340   17.8140 H   0  0  0  0  0  0  0  0  0  0  0  0
  -31.6210  -19.8550   18.8100 H   0  0  0  0  0  0  0  0  0  0  0  0
  -28.7020  -21.0130   21.0730 C   0  0  0  0  0  3  0  0  0  0  0  0
  -27.8330  -20.8400   19.8060 C   0  0  0  0  0  3  0  0  0  0  0  0
  -27.4190  -22.1620   19.0990 C   0  0  0  0  0  2  0  0  0  0  0  0
  -28.5260  -23.1360   18.9030 N   0  0  0  0  0  4  0  0  0  0  0  0
  -28.2790  -23.7120   18.1110 H   0  0  0  0  0  0  0  0  0  0  0  0
  -29.3720  -22.6510   18.6580 H   0  0  0  0  0  0  0  0  0  0  0  0
  -28.7370  -24.0420   20.0600 C   0  0  0  0  0  2  0  0  0  0  0  0
  -30.0250  -24.8940   19.9790 C   0  0  0  0  0  2  0  0  0  0  0  0
  -30.1500  -25.8640   21.1870 C   0  0  0  0  0  2  0  0  0  0  0  0
  -30.1770  -27.2630   20.8620 O   0  0  0  0  0  0  0  0  0  0  0  0
  -25.2310  -31.3020   24.0130 C   0  0  0  0  0  0  0  0  0  0  0  0
  -28.9220  -27.8170   20.7920 C   0  0  0  0  0  0  0  0  0  0  0  0
  -24.4720  -29.9230   22.1100 C   0  0  0  0  0  3  0  0  0  0  0  0
  -26.3080  -28.8690   20.7040 C   0  0  0  0  0  0  0  0  0  0  0  0
  -26.8930  -30.7550   22.2330 C   0  0  0  0  0  2  0  0  0  0  0  0
  -27.2930  -29.5140   21.4610 C   0  0  0  0  0  0  0  0  0  0  0  0
  -28.6080  -28.9990   21.5040 C   0  0  0  0  0  3  0  0  0  0  0  0
  -27.9170  -27.1900   20.0260 C   0  0  0  0  0  3  0  0  0  0  0  0
  -26.6140  -27.7040   19.9840 C   0  0  0  0  0  3  0  0  0  0  0  0
  -24.9260  -29.4750   20.7010 C   0  0  0  0  0  2  0  0  0  0  0  0
  -25.5430  -30.6700   22.8450 N   0  0  0  0  0  0  0  0  0  0  0  0
  -24.0740  -31.3040   24.4540 O   0  0  0  0  0  0  0  0  0  0  0  0
  -23.9490  -28.6860   22.8760 C   0  0  0  0  0  0  0  0  0  0  0  0
  -22.7850  -28.1670   22.4520 N   0  0  0  0  0  0  0  0  0  0  0  0
  -24.5950  -28.1980   23.8070 O   0  0  0  0  0  0  0  0  0  0  0  0
  -22.3190  -28.6180   21.6760 H   0  0  0  0  0  0  0  0  0  0  0  0
  -19.9650  -25.9500   22.0150 C   0  0  0  0  0  0  0  0  0  0  0  0
  -22.1150  -26.9910   23.0050 C   0  0  0  0  0  3  0  0  0  0  0  0
  -22.8280  -25.6930   22.5610 C   0  0  0  0  0  2  0  0  0  0  0  0
  -22.2300  -25.0830   21.2900 C   0  0  0  0  0  2  0  0  0  0  0  0
  -20.7480  -24.7560   21.4950 C   0  0  0  0  0  2  0  0  0  0  0  0
  -20.6100  -27.0070   22.7090 C   0  0  0  0  0  0  0  0  0  0  0  0
  -19.8420  -28.1110   23.1420 C   0  0  0  0  0  3  0  0  0  0  0  0
  -18.4590  -28.1670   22.8950 C   0  0  0  0  0  3  0  0  0  0  0  0
  -17.8210  -27.1090   22.2240 C   0  0  0  0  0  3  0  0  0  0  0  0
  -18.5740  -26.0040   21.7880 C   0  0  0  0  0  3  0  0  0  0  0  0
  -26.3060  -32.0770   24.8320 C   0  0  0  0  0  3  0  0  0  0  0  0
  -25.8670  -33.4750   24.9210 N   0  0  0  0  0  0  0  0  0  0  0  0
  -26.2680  -34.4530   24.0970 C   0  0  0  0  0  0  0  0  0  0  0  0
  -27.1150  -34.2820   23.2140 O   0  0  0  0  0  0  0  0  0  0  0  0
  -25.1320  -33.6780   25.5820 H   0  0  0  0  0  0  0  0  0  0  0  0
  -24.5040  -36.0390   23.2610 C   0  0  0  0  0  1  0  0  0  0  0  0
  -25.6300  -35.8420   24.2860 C   0  0  0  0  0  3  0  0  0  0  0  0
  -27.6020  -36.9570   25.2390 C   0  0  0  0  0  1  0  0  0  0  0  0
  -26.6000  -36.9530   24.1770 N   0  0  0  0  0  0  0  0  0  0  0  0
  -26.1210  -37.8510   24.1840 H   0  0  0  0  0  0  0  0  0  0  0  0
  -26.5500  -31.4710   26.2680 C   0  0  1  0  0  0  0  0  0  0  0  0
  -25.2490  -31.1560   27.0410 C   0  0  0  0  0  1  0  0  0  0  0  0
  -27.3710  -30.1630   26.1830 C   0  0  0  0  0  1  0  0  0  0  0  0
  -27.3840  -32.4620   27.1160 C   0  0  0  0  0  1  0  0  0  0  0  0
  2 48  1  0
  2  3  1  0
  2  1  1  0
  3  9  1  0
  3  4  1  0
  4  5  1  0
  5  7  1  0
  6  5  1  0
  8  5  1  0
 10 16  1  0
 10 18  1  0
 11 16  1  0
 12 13  1  0
 12 11  1  0
 14 13  1  0
 14 23  1  0
 14 15  1  0
 16 15  1  0
 17 10  2  0
 18  9  1  0
 18 19  1  0
 20 21  2  0
 21 40  1  0
 22 21  1  0
 22 25  1  0
 23 24  1  0
 23 20  1  0
 24 22  2  0
 25 26  1  0
 26 27  2  0
 28 31  1  0
 28 27  1  0
 29 28  2  0
 30 29  1  0
 30 25  2  0
 31 32  1  0
 32 37  2  0
 32 33  1  0
 33 34  2  0
 34 35  1  0
 35 39  1  0
 36 35  2  0
 37 36  1  0
 38 37  1  0
 40 41  1  0
 41 44  1  0
 41 43  1  0
 42 40  2  0
 45 46  1  0
 45 20  1  0
 47 45  1  0
 49 52  1  0
 49 48  1  0
 49 50  1  0
 51 49  1  0
 53  1  1  0
 54 53  2  0
 55 54  1  0
 56 55  1  0
 56 59  1  0
 57 56  1  0
 58 56  1  0
 60 59  1  0
 60 61  1  0
 62 61  1  0
 63 74  2  0
 64 62  1  0
 64 69  1  0
 65 73  1  0
 65 75  1  0
 66 68  1  0
 67 73  1  0
 68 69  2  0
 68 67  1  0
 70 64  2  0
 71 70  1  0
 71 66  2  0
 72 66  1  0
 72 65  1  0
 73 63  1  0
 75 77  2  0
 76 75  1  0
 78 76  1  0
 79 84  1  0
 80 76  1  0
 81 80  1  0
 82 83  1  0
 82 81  1  0
 83 79  1  0
 84 80  1  0
 84 85  2  0
 86 85  1  0
 87 86  2  0
 88 79  2  0
 88 87  1  0
 89 63  1  0
 89 90  1  0
 89 99  1  0
 90 93  1  0
 91 95  1  0
 91 90  1  0
 92 91  2  0
 95 94  1  0
 97 98  1  0
 97 95  1  0
 97 96  1  0
 99100  1  1
 99102  1  0
101 99  1  0
M  ISO  4  10 100  18 100  61 101  62 101
M  END
>  <TORSDO>  (50) 
F 30

>  <SCORE>  (50) 
-7.519

>  <name>  (50) 
50

>  <ligand_id>  (50) 
50

>  <original_smiles>  (50) 
[H]c1c([H])c([H])c2c(c1[H])C([H])([H])C([H])([H])C([H])([H])C2([H])N([H])C(=O)C1([H])N(C(=O)C([H])(N([H])C(=O)C([H])(N([H])C([H])([H])[H])C([H])([H])[H])C(C([H])([H])[H])(C([H])([H])[H])C([H])([H])[H])C([H])([H])c2c([H])c(OC([H])([H])C([H])([H])C([H])([H])[N+]([H])([H])C([H])([H])C([H])([H])C([H])([H])C([H])([H])C([H])(C([H])(C([H])([H])N([H])C(=O)N3C([H])([H])C([H])([H])C([H])([H])C([H])(n4nc(-c5c([H])c([H])c(Oc6c([H])c([H])c(F)c([H])c6F)c([H])c5[H])c(C(=O)N([H])[H])c4N([H])[H])C3([H])[H])C([H])([H])[N+]([H])([H])[H])C([H])([H])[N+]([H])([H])[H])c([H])c([H])c2C1([H])[H]

>  <smiles>  (50) 
[H]c1c([H])c([H])c2c(c1[H])C([H])([H])C([H])([H])C([H])([H])C2([H])N([H])C(=O)C1([H])N(C(=O)C([H])(N([H])C(=O)C([H])(N([H])C([H])([H])[H])C([H])([H])[H])C(C([H])([H])[H])(C([H])([H])[H])C([H])([H])[H])C([H])([H])c2c([H])c(OC([H])([H])C([H])([H])C([H])([H])[N+]([H])([H])C([H])([H])C([H])([H])C([H])([H])C([H])([H])C([H])(C([H])(C([H])([H])N([H])C(=O)N3C([H])([H])C([H])([H])C([H])([H])C([H])(n4nc(-c5c([H])c([H])c(Oc6c([H])c([H])c(F)c([H])c6F)c([H])c5[H])c(C(=O)N([H])[H])c4N([H])[H])C3([H])[H])C([H])([H])[N+]([H])([H])[H])C([H])([H])[N+]([H])([H])[H])c([H])c([H])c2C1([H])[H]

$$$$
51:0:0
     RDKit          3D

 90 98  0  0  1  0  0  0  0  0999 V2000
  -28.9750  -22.8170   20.2720 C   0  0  0  0  0  0  0  0  0  0  0  0
  -29.9690  -23.0980   21.1240 N   0  0  0  0  0  4  0  0  0  0  0  0
  -28.9710  -21.3960   19.7760 N   0  0  0  0  0  0  0  0  0  0  0  0
  -30.0390  -24.0270   21.5120 H   0  0  0  0  0  0  0  0  0  0  0  0
  -30.6420  -22.4100   21.4180 H   0  0  0  0  0  0  0  0  0  0  0  0
  -28.1810  -21.2390   19.1630 H   0  0  0  0  0  0  0  0  0  0  0  0
  -27.9430  -24.2140   20.0130 C   0  0  0  0  0  2  0  0  0  0  0  0
  -28.1370  -25.8180   20.3940 O   0  0  0  0  0  0  0  0  0  0  0  0
  -24.4860  -31.7800   23.2430 C   0  0  0  0  0  0  0  0  0  0  0  0
  -27.1260  -26.9170   20.2780 C   0  0  0  0  0  0  0  0  0  0  0  0
  -23.3250  -30.3700   21.5920 C   0  0  0  0  0  3  0  0  0  0  0  0
  -24.8100  -28.7800   20.1860 C   0  0  0  0  0  0  0  0  0  0  0  0
  -25.8890  -30.6090   21.4730 C   0  0  0  0  0  2  0  0  0  0  0  0
  -25.9840  -29.1970   20.8230 C   0  0  0  0  0  0  0  0  0  0  0  0
  -27.1370  -28.2880   20.8440 C   0  0  0  0  0  3  0  0  0  0  0  0
  -25.9240  -26.6590   19.5790 C   0  0  0  0  0  3  0  0  0  0  0  0
  -24.8080  -27.5340   19.5370 C   0  0  0  0  0  3  0  0  0  0  0  0
  -23.5790  -29.6860   20.2190 C   0  0  0  0  0  2  0  0  0  0  0  0
  -24.5860  -30.9480   22.1580 N   0  0  0  0  0  0  0  0  0  0  0  0
  -23.3880  -32.0560   23.7550 O   0  0  0  0  0  0  0  0  0  0  0  0
  -22.6310  -29.3680   22.5530 C   0  0  0  0  0  0  0  0  0  0  0  0
  -21.3080  -29.1730   22.4020 N   0  0  0  0  0  0  0  0  0  0  0  0
  -23.2910  -28.7670   23.4040 O   0  0  0  0  0  0  0  0  0  0  0  0
  -20.8250  -29.7090   21.6950 H   0  0  0  0  0  0  0  0  0  0  0  0
  -17.9480  -27.8720   22.8340 C   0  0  0  0  0  0  0  0  0  0  0  0
  -20.4910  -28.2200   23.1650 C   0  0  0  0  0  3  0  0  0  0  0  0
  -20.6530  -26.7840   22.6120 C   0  0  0  0  0  2  0  0  0  0  0  0
  -19.5880  -26.4130   21.5740 C   0  0  0  0  0  2  0  0  0  0  0  0
  -18.1860  -26.5210   22.1800 C   0  0  0  0  0  2  0  0  0  0  0  0
  -19.0300  -28.6760   23.2830 C   0  0  0  0  0  0  0  0  0  0  0  0
  -18.7540  -29.9360   23.8560 C   0  0  0  0  0  3  0  0  0  0  0  0
  -17.4290  -30.3930   23.9860 C   0  0  0  0  0  3  0  0  0  0  0  0
  -16.3610  -29.5900   23.5510 C   0  0  0  0  0  3  0  0  0  0  0  0
  -16.6210  -28.3300   22.9800 C   0  0  0  0  0  3  0  0  0  0  0  0
  -25.7440  -32.4400   23.8860 C   0  0  0  0  0  3  0  0  0  0  0  0
  -25.4360  -33.8590   24.1350 N   0  0  0  0  0  0  0  0  0  0  0  0
  -25.7880  -34.8730   23.3330 C   0  0  0  0  0  0  0  0  0  0  0  0
  -26.4680  -34.7120   22.3170 O   0  0  0  0  0  0  0  0  0  0  0  0
  -24.8340  -34.0560   24.9210 H   0  0  0  0  0  0  0  0  0  0  0  0
  -24.0830  -36.6710   22.8820 C   0  0  0  0  0  1  0  0  0  0  0  0
  -25.3160  -36.2910   23.7180 C   0  0  0  0  0  3  0  0  0  0  0  0
  -27.4510  -37.2070   24.5200 C   0  0  0  0  0  1  0  0  0  0  0  0
  -26.3600  -37.3270   23.5540 N   0  0  0  0  0  0  0  0  0  0  0  0
  -25.9600  -38.2570   23.6440 H   0  0  0  0  0  0  0  0  0  0  0  0
  -26.1880  -31.7380   25.2290 C   0  0  1  0  0  0  0  0  0  0  0  0
  -25.0450  -31.5760   26.2600 C   0  0  0  0  0  1  0  0  0  0  0  0
  -26.7700  -30.3320   24.9550 C   0  0  0  0  0  1  0  0  0  0  0  0
  -27.3190  -32.5550   25.8970 C   0  0  0  0  0  1  0  0  0  0  0  0
  -29.8470  -19.9510   19.9770 C   0  0  0  0  0  2  0  0  0  0  0  0
  -30.6490  -15.4240   19.5990 C   0  0  0  0  0  0  0  0  0  0  0  0
  -30.5280  -12.9600   18.7310 C   0  0  0  0  0  2  0  0  0  0  0  0
  -29.5240  -12.7340   17.5690 C   0  0  0  0  0  2  0  0  0  0  0  0
  -28.1180  -12.4480   18.1180 C   0  0  0  0  0  2  0  0  0  0  0  0
  -27.7470  -13.4370   19.2490 C   0  0  0  0  0  3  0  0  0  0  0  0
  -28.8670  -13.5960   20.3010 C   0  0  0  0  0  2  0  0  0  0  0  0
  -30.0640  -14.1130   19.6050 N   0  0  0  0  0  0  0  0  0  0  0  0
  -31.7780  -15.4110   19.0820 O   0  0  0  0  0  0  0  0  0  0  0  0
  -28.0940  -17.4060   21.2530 C   0  0  0  0  0  2  0  0  0  0  0  0
  -28.0370  -18.0660   19.8640 C   0  0  0  0  0  2  0  0  0  0  0  0
  -29.5020  -16.8130   21.3790 C   0  0  0  0  0  2  0  0  0  0  0  0
  -29.5100  -18.2400   19.4640 C   0  0  0  0  0  3  0  0  0  0  0  0
  -30.0030  -16.7210   20.0120 N   0  0  0  0  0  0  0  0  0  0  0  0
  -25.4590  -14.0260   20.2050 C   0  0  0  0  0  0  0  0  0  0  0  0
  -24.4160  -13.2680   20.6550 C   0  0  0  0  0  0  0  0  0  0  0  0
  -24.8470  -11.9090   20.5540 C   0  0  0  0  0  0  0  0  0  0  0  0
  -26.4570  -13.1360   19.8560 N   0  0  0  0  0  0  0  0  0  0  0  0
  -26.1060  -11.8530   20.1320 N   0  0  0  0  0  0  0  0  0  0  0  0
  -24.1070  -10.6610   20.7760 C   0  0  0  0  0  0  0  0  0  0  0  0
  -24.5410   -9.7020   21.7180 C   0  0  0  0  0  3  0  0  0  0  0  0
  -23.7990   -8.5200   21.9290 C   0  0  0  0  0  3  0  0  0  0  0  0
  -22.6080   -8.2900   21.1980 C   0  0  0  0  0  0  0  0  0  0  0  0
  -22.1940   -9.2370   20.2450 C   0  0  0  0  0  3  0  0  0  0  0  0
  -22.9360  -10.4100   20.0330 C   0  0  0  0  0  3  0  0  0  0  0  0
  -21.8360   -7.1600   21.3200 O   0  0  0  0  0  0  0  0  0  0  0  0
  -21.7220   -6.4900   22.5120 C   0  0  0  0  0  0  0  0  0  0  0  0
  -21.2350   -7.1200   23.6790 C   0  0  0  0  0  3  0  0  0  0  0  0
  -21.0680   -6.3750   24.8630 C   0  0  0  0  0  3  0  0  0  0  0  0
  -21.3770   -5.0020   24.8830 C   0  0  0  0  0  0  0  0  0  0  0  0
  -21.8570   -4.3710   23.7210 C   0  0  0  0  0  3  0  0  0  0  0  0
  -22.0270   -5.1140   22.5380 C   0  0  0  0  0  0  0  0  0  0  0  0
  -22.4680   -4.4950   21.4160 F   0  0  0  0  0  0  0  0  0  0  0  0
  -21.2110   -4.2860   26.0190 F   0  0  0  0  0  0  0  0  0  0  0  0
  -23.0620  -13.7740   21.0560 C   0  0  0  0  0  0  0  0  0  0  0  0
  -22.4020  -13.0930   21.9850 N   0  0  0  0  0  0  0  0  0  0  0  0
  -22.6020  -14.8110   20.5820 O   0  0  0  0  0  0  0  0  0  0  0  0
  -22.7870  -12.2540   22.3940 H   0  0  0  0  0  0  0  0  0  0  0  0
  -21.4970  -13.4180   22.2930 H   0  0  0  0  0  0  0  0  0  0  0  0
  -25.6280  -15.3940   20.0320 N   0  0  0  0  0  0  0  0  0  0  0  0
  -24.9110  -16.0650   20.2870 H   0  0  0  0  0  0  0  0  0  0  0  0
  -26.4870  -15.8250   19.7240 H   0  0  0  0  0  0  0  0  0  0  0  0
  1  2  2  0
  2  5  1  0
  2  4  1  0
  3 49  1  0
  3  1  1  0
  6  3  1  0
  7  1  1  0
  7  8  1  0
  9 20  2  0
 10  8  1  0
 10 15  1  0
 11 19  1  0
 11 21  1  0
 12 18  1  0
 12 14  1  0
 13 19  1  0
 14 15  2  0
 14 13  1  0
 16 10  2  0
 17 16  1  0
 17 12  2  0
 18 11  1  0
 19  9  1  0
 21 23  2  0
 22 21  1  0
 24 22  1  0
 25 34  2  0
 25 30  1  0
 26 22  1  0
 26 30  1  0
 27 26  1  0
 28 29  1  0
 28 27  1  0
 29 25  1  0
 30 31  2  0
 31 32  1  0
 33 32  2  0
 34 33  1  0
 35  9  1  0
 35 36  1  0
 35 45  1  0
 36 39  1  0
 37 41  1  0
 37 36  1  0
 38 37  2  0
 41 40  1  0
 43 44  1  0
 43 41  1  0
 43 42  1  0
 45 48  1  1
 45 46  1  0
 47 45  1  0
 50 56  1  0
 50 62  1  0
 51 56  1  0
 52 53  1  0
 52 51  1  0
 54 53  1  0
 54 66  1  0
 54 55  1  0
 56 55  1  0
 57 50  2  0
 58 60  1  0
 59 58  1  0
 61 59  1  0
 61 49  1  0
 61 62  1  0
 62 60  1  0
 63 64  2  0
 64 83  1  0
 65 64  1  0
 65 68  1  0
 66 67  1  0
 66 63  1  0
 67 65  2  0
 68 69  1  0
 69 70  2  0
 71 74  1  0
 71 70  1  0
 72 71  2  0
 73 72  1  0
 73 68  2  0
 74 75  1  0
 75 80  2  0
 75 76  1  0
 76 77  2  0
 77 78  1  0
 78 82  1  0
 79 78  2  0
 80 79  1  0
 81 80  1  0
 83 84  1  0
 84 87  1  0
 84 86  1  0
 85 83  2  0
 88 63  1  0
 88 89  1  0
 90 88  1  0
M  ISO  4   7 101   8 101  50 100  62 100
M  END
>  <TORSDO>  (51) 
F 18

>  <SCORE>  (51) 
-14.676

>  <name>  (51) 
51

>  <ligand_id>  (51) 
51

>  <original_smiles>  (51) 
[H]c1c([H])c([H])c2c(c1[H])C([H])([H])C([H])([H])C([H])([H])C2([H])N([H])C(=O)C1([H])N(C(=O)C([H])(N([H])C(=O)C([H])(N([H])C([H])([H])[H])C([H])([H])[H])C(C([H])([H])[H])(C([H])([H])[H])C([H])([H])[H])C([H])([H])c2c([H])c(OC([H])([H])C(N([H])[H])=[N+]([H])C([H])([H])C3([H])N(C(=O)N4C([H])([H])C([H])([H])C([H])([H])C([H])(n5nc(-c6c([H])c([H])c(Oc7c([H])c([H])c(F)c([H])c7F)c([H])c6[H])c(C(=O)N([H])[H])c5N([H])[H])C4([H])[H])C([H])([H])C([H])([H])C3([H])[H])c([H])c([H])c2C1([H])[H]

>  <smiles>  (51) 
[H]c1c([H])c([H])c2c(c1[H])C([H])([H])C([H])([H])C([H])([H])C2([H])N([H])C(=O)C1([H])N(C(=O)C([H])(N([H])C(=O)C([H])(N([H])C([H])([H])[H])C([H])([H])[H])C(C([H])([H])[H])(C([H])([H])[H])C([H])([H])[H])C([H])([H])c2c([H])c(OC([H])([H])C(N([H])[H])=[N+]([H])C([H])([H])C3([H])N(C(=O)N4C([H])([H])C([H])([H])C([H])([H])C([H])(n5nc(-c6c([H])c([H])c(Oc7c([H])c([H])c(F)c([H])c7F)c([H])c6[H])c(C(=O)N([H])[H])c5N([H])[H])C4([H])[H])C([H])([H])C([H])([H])C3([H])[H])c([H])c([H])c2C1([H])[H]

$$$$
52:0:0
     RDKit          3D

 99107  0  0  1  0  0  0  0  0999 V2000
  -27.8000  -21.3040   20.8540 C   0  0  0  0  0  2  0  0  0  0  0  0
  -30.0130  -21.4080   21.7290 C   0  0  0  0  0  2  0  0  0  0  0  0
  -28.1230  -19.9620   20.1600 C   0  0  0  0  0  2  0  0  0  0  0  0
  -30.3740  -20.0710   21.0650 C   0  0  0  0  0  2  0  0  0  0  0  0
  -29.0130  -22.1320   20.9420 N   0  0  0  0  0  0  0  0  0  0  0  0
  -29.1770  -19.2130   20.8990 N   0  0  2  0  0  4  0  0  0  0  0  0
  -28.8100  -19.0800   21.8280 H   0  0  0  0  0  0  0  0  0  0  0  0
  -28.7220  -23.3980   21.6110 C   0  0  0  0  0  2  0  0  0  0  0  0
  -28.4790  -24.5010   20.5760 C   0  0  0  0  0  2  0  0  0  0  0  0
  -28.4820  -25.8890   21.2240 C   0  0  0  0  0  2  0  0  0  0  0  0
  -28.4570  -26.8760   20.2020 O   0  0  0  0  0  0  0  0  0  0  0  0
  -24.5800  -31.9490   23.2490 C   0  0  0  0  0  0  0  0  0  0  0  0
  -27.2900  -27.5810   20.1860 C   0  0  0  0  0  0  0  0  0  0  0  0
  -23.3980  -30.5420   21.5880 C   0  0  0  0  0  3  0  0  0  0  0  0
  -24.8770  -29.0200   20.1760 C   0  0  0  0  0  0  0  0  0  0  0  0
  -25.9140  -30.9360   21.4110 C   0  0  0  0  0  2  0  0  0  0  0  0
  -26.0190  -29.5690   20.7750 C   0  0  0  0  0  0  0  0  0  0  0  0
  -27.2310  -28.8540   20.7820 C   0  0  0  0  0  3  0  0  0  0  0  0
  -26.1420  -27.0300   19.5870 C   0  0  0  0  0  3  0  0  0  0  0  0
  -24.9310  -27.7470   19.5780 C   0  0  0  0  0  3  0  0  0  0  0  0
  -23.6240  -29.8630   20.2090 C   0  0  0  0  0  2  0  0  0  0  0  0
  -24.6470  -31.1550   22.1440 N   0  0  0  0  0  0  0  0  0  0  0  0
  -23.4940  -32.2130   23.7820 O   0  0  0  0  0  0  0  0  0  0  0  0
  -22.7480  -29.5170   22.5420 C   0  0  0  0  0  0  0  0  0  0  0  0
  -21.4220  -29.3420   22.4140 N   0  0  0  0  0  0  0  0  0  0  0  0
  -23.4290  -28.8780   23.3490 O   0  0  0  0  0  0  0  0  0  0  0  0
  -20.9330  -29.9080   21.7350 H   0  0  0  0  0  0  0  0  0  0  0  0
  -18.0400  -28.1790   22.9210 C   0  0  0  0  0  0  0  0  0  0  0  0
  -20.6020  -28.4000   23.1770 C   0  0  0  0  0  3  0  0  0  0  0  0
  -20.6820  -26.9770   22.5750 C   0  0  0  0  0  2  0  0  0  0  0  0
  -19.5680  -26.6840   21.5660 C   0  0  0  0  0  2  0  0  0  0  0  0
  -18.1940  -26.8380   22.2240 C   0  0  0  0  0  2  0  0  0  0  0  0
  -19.1710  -28.9190   23.3550 C   0  0  0  0  0  0  0  0  0  0  0  0
  -18.9750  -30.1760   23.9670 C   0  0  0  0  0  3  0  0  0  0  0  0
  -17.6780  -30.6920   24.1490 C   0  0  0  0  0  3  0  0  0  0  0  0
  -16.5610  -29.9490   23.7320 C   0  0  0  0  0  3  0  0  0  0  0  0
  -16.7430  -28.6930   23.1240 C   0  0  0  0  0  3  0  0  0  0  0  0
  -25.8590  -32.5840   23.8820 C   0  0  0  0  0  3  0  0  0  0  0  0
  -26.3650  -31.8190   25.1660 C   0  0  1  0  0  0  0  0  0  0  0  0
  -25.2610  -31.5760   26.2200 C   0  0  0  0  0  1  0  0  0  0  0  0
  -26.9570  -30.4430   24.7790 C   0  0  0  0  0  1  0  0  0  0  0  0
  -27.5040  -32.6200   25.8390 C   0  0  0  0  0  1  0  0  0  0  0  0
  -25.5460  -33.9840   24.1990 N   0  0  0  0  0  0  0  0  0  0  0  0
  -25.8850  -35.0300   23.4320 C   0  0  0  0  0  0  0  0  0  0  0  0
  -26.5700  -34.9190   22.4110 O   0  0  0  0  0  0  0  0  0  0  0  0
  -24.9490  -34.1450   24.9950 H   0  0  0  0  0  0  0  0  0  0  0  0
  -24.1670  -36.8180   23.0290 C   0  0  0  0  0  1  0  0  0  0  0  0
  -25.3890  -36.4200   23.8720 C   0  0  0  0  0  3  0  0  0  0  0  0
  -27.5040  -37.3100   24.7470 C   0  0  0  0  0  1  0  0  0  0  0  0
  -26.4240  -37.4730   23.7770 N   0  0  0  0  0  0  0  0  0  0  0  0
  -26.0150  -38.3930   23.9130 H   0  0  0  0  0  0  0  0  0  0  0  0
  -29.3900  -17.8430   20.3380 C   0  0  0  0  0  2  0  0  0  0  0  0
  -30.5920  -17.0130   20.8970 C   0  0  0  0  0  3  0  0  0  0  0  0
  -30.8920  -14.4970   20.3350 C   0  0  0  0  0  0  0  0  0  0  0  0
  -30.5070  -12.3520   19.2110 C   0  0  0  0  0  2  0  0  0  0  0  0
  -29.5660  -12.5550   18.0100 C   0  0  0  0  0  2  0  0  0  0  0  0
  -28.0940  -12.4610   18.4490 C   0  0  0  0  0  2  0  0  0  0  0  0
  -27.7720  -13.3140   19.7080 C   0  0  0  0  0  3  0  0  0  0  0  0
  -28.8350  -13.1070   20.8130 C   0  0  0  0  0  2  0  0  0  0  0  0
  -30.1590  -13.3590   20.2230 N   0  0  0  0  0  0  0  0  0  0  0  0
  -32.0270  -14.5730   19.8790 O   0  0  0  0  0  0  0  0  0  0  0  0
  -30.2370  -15.5690   20.8230 N   0  0  0  0  0  0  0  0  0  0  0  0
  -29.3170  -15.3370   21.1720 H   0  0  0  0  0  0  0  0  0  0  0  0
  -25.3840  -13.9300   20.4350 C   0  0  0  0  0  0  0  0  0  0  0  0
  -24.3120  -13.1650   20.8100 C   0  0  0  0  0  0  0  0  0  0  0  0
  -24.7650  -11.8110   20.7800 C   0  0  0  0  0  0  0  0  0  0  0  0
  -26.4240  -13.0440   20.2030 N   0  0  0  0  0  0  0  0  0  0  0  0
  -26.0540  -11.7630   20.4660 N   0  0  0  0  0  0  0  0  0  0  0  0
  -24.0330  -10.5520   20.9810 C   0  0  0  0  0  0  0  0  0  0  0  0
  -24.4640   -9.5920   21.9240 C   0  0  0  0  0  3  0  0  0  0  0  0
  -23.7300   -8.4010   22.1080 C   0  0  0  0  0  3  0  0  0  0  0  0
  -22.5580   -8.1610   21.3540 C   0  0  0  0  0  0  0  0  0  0  0  0
  -22.1510   -9.1090   20.4010 C   0  0  0  0  0  3  0  0  0  0  0  0
  -22.8810  -10.2940   20.2130 C   0  0  0  0  0  3  0  0  0  0  0  0
  -21.7980   -7.0210   21.4510 O   0  0  0  0  0  0  0  0  0  0  0  0
  -21.7370   -6.2930   22.6100 C   0  0  0  0  0  0  0  0  0  0  0  0
  -21.2830   -6.8580   23.8220 C   0  0  0  0  0  3  0  0  0  0  0  0
  -21.1730   -6.0540   24.9750 C   0  0  0  0  0  3  0  0  0  0  0  0
  -21.5000   -4.6850   24.9170 C   0  0  0  0  0  0  0  0  0  0  0  0
  -21.9460   -4.1220   23.7070 C   0  0  0  0  0  3  0  0  0  0  0  0
  -22.0580   -4.9200   22.5580 C   0  0  0  0  0  0  0  0  0  0  0  0
  -22.4670   -4.3670   21.3900 F   0  0  0  0  0  0  0  0  0  0  0  0
  -21.3840   -3.9120   26.0210 F   0  0  0  0  0  0  0  0  0  0  0  0
  -22.9200  -13.6540   21.0880 C   0  0  0  0  0  0  0  0  0  0  0  0
  -22.1890  -12.9660   21.9590 N   0  0  0  0  0  0  0  0  0  0  0  0
  -22.4830  -14.6800   20.5650 O   0  0  0  0  0  0  0  0  0  0  0  0
  -22.5460  -12.1340   22.4050 H   0  0  0  0  0  0  0  0  0  0  0  0
  -21.2560  -13.2790   22.1860 H   0  0  0  0  0  0  0  0  0  0  0  0
  -25.5500  -15.2990   20.2460 N   0  0  0  0  0  0  0  0  0  0  0  0
  -24.7790  -15.9520   20.3570 H   0  0  0  0  0  0  0  0  0  0  0  0
  -26.3800  -15.7280   19.8600 H   0  0  0  0  0  0  0  0  0  0  0  0
  -31.9730  -17.3720   20.2380 C   0  0  0  0  0  2  0  0  0  0  0  0
  -31.9840  -17.4120   18.6890 C   0  0  0  0  0  2  0  0  0  0  0  0
  -33.3820  -17.2040   18.0720 C   0  0  0  0  0  2  0  0  0  0  0  0
  -33.3000  -16.6750   16.6210 C   0  0  0  0  0  2  0  0  0  0  0  0
  -34.6080  -16.6350   15.9430 N   0  0  0  0  0  4  0  0  0  0  0  0
  -34.9490  -17.5620   15.7640 H   0  0  0  0  0  0  0  0  0  0  0  0
  -34.5210  -16.1610   15.0620 H   0  0  0  0  0  0  0  0  0  0  0  0
  -35.2800  -16.1340   16.4920 H   0  0  0  0  0  0  0  0  0  0  0  0
  1  5  1  0
  3  1  1  0
  3  6  1  0
  4  2  1  0
  5  8  1  0
  5  2  1  0
  6  4  1  0
  6  7  1  1
  9 10  1  0
  9  8  1  0
 11 10  1  0
 12 23  2  0
 13 11  1  0
 13 18  1  0
 14 22  1  0
 14 24  1  0
 15 21  1  0
 15 17  1  0
 16 22  1  0
 17 18  2  0
 17 16  1  0
 19 13  2  0
 20 19  1  0
 20 15  2  0
 21 14  1  0
 22 12  1  0
 24 26  2  0
 25 24  1  0
 27 25  1  0
 28 37  2  0
 28 33  1  0
 29 25  1  0
 29 33  1  0
 30 29  1  0
 31 32  1  0
 31 30  1  0
 32 28  1  0
 33 34  2  0
 34 35  1  0
 36 35  2  0
 37 36  1  0
 38 12  1  0
 38 43  1  0
 38 39  1  0
 39 42  1  1
 39 40  1  0
 41 39  1  0
 43 46  1  0
 44 48  1  0
 44 43  1  0
 45 44  2  0
 48 47  1  0
 50 48  1  0
 50 51  1  0
 50 49  1  0
 52 53  1  0
 52  6  1  0
 53 92  1  0
 54 62  1  0
 55 60  1  0
 56 57  1  0
 56 55  1  0
 58 57  1  0
 58 67  1  0
 58 59  1  0
 60 54  1  0
 60 59  1  0
 61 54  2  0
 62 53  1  0
 62 63  1  0
 64 65  2  0
 65 84  1  0
 66 65  1  0
 66 69  1  0
 67 64  1  0
 67 68  1  0
 68 66  2  0
 69 70  1  0
 70 71  2  0
 72 75  1  0
 72 71  1  0
 73 72  2  0
 74 73  1  0
 74 69  2  0
 75 76  1  0
 76 77  1  0
 77 78  2  0
 79 78  1  0
 79 83  1  0
 80 79  2  0
 81 76  2  0
 81 80  1  0
 82 81  1  0
 84 85  1  0
 85 88  1  0
 85 87  1  0
 86 84  2  0
 89 90  1  0
 89 64  1  0
 91 89  1  0
 93 92  1  0
 94 93  1  0
 95 94  1  0
 96 99  1  0
 96 95  1  0
 97 96  1  0
 98 96  1  0
M  ISO  4  10 101  11 101  54 100  62 100
M  END
>  <TORSDO>  (52) 
F 26

>  <SCORE>  (52) 
-12.405

>  <name>  (52) 
52

>  <ligand_id>  (52) 
52

>  <original_smiles>  (52) 
[H]c1c([H])c([H])c2c(c1[H])C([H])([H])C([H])([H])C([H])([H])C2([H])N([H])C(=O)C1([H])N(C(=O)C([H])(N([H])C(=O)C([H])(N([H])C([H])([H])[H])C([H])([H])[H])C(C([H])([H])[H])(C([H])([H])[H])C([H])([H])[H])C([H])([H])c2c([H])c(OC([H])([H])C([H])([H])C([H])([H])N3C([H])([H])C([H])([H])[N+]([H])(C([H])([H])C([H])(N([H])C(=O)N4C([H])([H])C([H])([H])C([H])([H])C([H])(n5nc(-c6c([H])c([H])c(Oc7c([H])c([H])c(F)c([H])c7F)c([H])c6[H])c(C(=O)N([H])[H])c5N([H])[H])C4([H])[H])C([H])([H])C([H])([H])C([H])([H])C([H])([H])[N+]([H])([H])[H])C([H])([H])C3([H])[H])c([H])c([H])c2C1([H])[H]

>  <smiles>  (52) 
[H]c1c([H])c([H])c2c(c1[H])C([H])([H])C([H])([H])C([H])([H])C2([H])N([H])C(=O)C1([H])N(C(=O)C([H])(N([H])C(=O)C([H])(N([H])C([H])([H])[H])C([H])([H])[H])C(C([H])([H])[H])(C([H])([H])[H])C([H])([H])[H])C([H])([H])c2c([H])c(OC([H])([H])C([H])([H])C([H])([H])N3C([H])([H])C([H])([H])[N+]([H])(C([H])([H])C([H])(N([H])C(=O)N4C([H])([H])C([H])([H])C([H])([H])C([H])(n5nc(-c6c([H])c([H])c(Oc7c([H])c([H])c(F)c([H])c7F)c([H])c6[H])c(C(=O)N([H])[H])c5N([H])[H])C4([H])[H])C([H])([H])C([H])([H])C([H])([H])C([H])([H])[N+]([H])([H])[H])C([H])([H])C3([H])[H])c([H])c([H])c2C1([H])[H]

$$$$
53:0:0
     RDKit          3D

107117  0  0  1  0  0  0  0  0999 V2000
  -30.4280  -17.5010   21.5740 C   0  0  0  0  0  0  0  0  0  0  0  0
  -31.7950  -20.2260   20.2390 C   0  0  0  0  0  2  0  0  0  0  0  0
  -29.2180  -20.3080   20.6660 C   0  0  0  0  0  2  0  0  0  0  0  0
  -30.2320  -21.0570   18.4420 C   0  0  0  0  0  2  0  0  0  0  0  0
  -31.8830  -19.5530   21.6160 C   0  0  0  0  0  2  0  0  0  0  0  0
  -29.5370  -19.7220   22.0600 C   0  0  0  0  0  2  0  0  0  0  0  0
  -30.6700  -22.4630   18.0620 C   0  0  0  0  0  2  0  0  0  0  0  0
  -30.5400  -22.4770   20.4000 C   0  0  0  0  0  2  0  0  0  0  0  0
  -30.4490  -20.9830   19.9720 C   0  0  2  0  0  0  0  0  0  0  0  0
  -30.6530  -18.8050   21.8580 N   0  0  0  0  0  0  0  0  0  0  0  0
  -30.2440  -23.2970   19.2020 N   0  0  2  0  0  4  0  0  0  0  0  0
  -29.5020  -16.8680   22.0960 O   0  0  0  0  0  0  0  0  0  0  0  0
  -30.8210  -24.1240   19.2340 H   0  0  0  0  0  0  0  0  0  0  0  0
  -28.8280  -23.7620   19.1470 C   0  0  0  0  0  2  0  0  0  0  0  0
  -29.1510  -24.9860   16.9230 C   0  0  0  0  0  1  0  0  0  0  0  0
  -28.2940  -23.9680   17.7080 C   0  0  0  0  0  3  0  0  0  0  0  0
  -26.7510  -24.2230   17.6380 C   0  0  0  0  0  3  0  0  0  0  0  0
  -26.2580  -25.6910   17.7850 C   0  0  0  0  0  2  0  0  0  0  0  0
  -26.7550  -28.4510   14.4680 C   0  0  0  0  0  3  0  0  0  0  0  0
  -26.0810  -27.2300   14.2670 C   0  0  0  0  0  3  0  0  0  0  0  0
  -27.2900  -28.7580   15.7330 C   0  0  0  0  0  3  0  0  0  0  0  0
  -25.9300  -26.3210   15.3340 C   0  0  0  0  0  3  0  0  0  0  0  0
  -27.1510  -27.8460   16.7970 C   0  0  0  0  0  3  0  0  0  0  0  0
  -26.4700  -26.6240   16.6030 C   0  0  0  0  0  0  0  0  0  0  0  0
  -25.9790  -23.3280   18.6520 C   0  0  0  0  0  2  0  0  0  0  0  0
  -25.3240  -22.2550   17.9870 O   0  0  0  0  0  0  0  0  0  0  0  0
  -23.5160  -23.9630   11.3100 C   0  0  0  0  0  0  0  0  0  0  0  0
  -24.3390  -22.6100   17.1010 C   0  0  0  0  0  0  0  0  0  0  0  0
  -21.7230  -24.1700   13.0030 C   0  0  0  0  0  3  0  0  0  0  0  0
  -22.2500  -23.1820   15.2970 C   0  0  0  0  0  0  0  0  0  0  0  0
  -23.6410  -22.5110   13.3260 C   0  0  0  0  0  2  0  0  0  0  0  0
  -23.4770  -22.7040   14.8190 C   0  0  0  0  0  0  0  0  0  0  0  0
  -24.5250  -22.4150   15.7170 C   0  0  0  0  0  3  0  0  0  0  0  0
  -23.1050  -23.0980   17.5760 C   0  0  0  0  0  3  0  0  0  0  0  0
  -22.0590  -23.3900   16.6760 C   0  0  0  0  0  3  0  0  0  0  0  0
  -21.1780  -23.4490   14.2640 C   0  0  0  0  0  2  0  0  0  0  0  0
  -23.0070  -23.5730   12.5120 N   0  0  0  0  0  0  0  0  0  0  0  0
  -22.9170  -24.7770   10.5940 O   0  0  0  0  0  0  0  0  0  0  0  0
  -21.8310  -25.6830   13.3090 C   0  0  0  0  0  0  0  0  0  0  0  0
  -20.8500  -26.4630   12.8260 N   0  0  0  0  0  0  0  0  0  0  0  0
  -22.7570  -26.1230   13.9940 O   0  0  0  0  0  0  0  0  0  0  0  0
  -20.1360  -26.0220   12.2640 H   0  0  0  0  0  0  0  0  0  0  0  0
  -19.0000  -29.3850   11.7790 C   0  0  0  0  0  0  0  0  0  0  0  0
  -20.7200  -27.9070   13.0200 C   0  0  0  0  0  3  0  0  0  0  0  0
  -19.9170  -28.2240   14.3000 C   0  0  0  0  0  2  0  0  0  0  0  0
  -18.4190  -28.4160   14.0430 C   0  0  0  0  0  2  0  0  0  0  0  0
  -18.1850  -29.5600   13.0510 C   0  0  0  0  0  2  0  0  0  0  0  0
  -20.1790  -28.5950   11.7620 C   0  0  0  0  0  0  0  0  0  0  0  0
  -20.8810  -28.4360   10.5480 C   0  0  0  0  0  3  0  0  0  0  0  0
  -20.4260  -29.0510    9.3670 C   0  0  0  0  0  3  0  0  0  0  0  0
  -19.2670  -29.8460    9.3930 C   0  0  0  0  0  3  0  0  0  0  0  0
  -18.5590  -30.0150   10.5960 C   0  0  0  0  0  3  0  0  0  0  0  0
  -24.8650  -23.3900   10.7710 C   0  0  0  0  0  3  0  0  0  0  0  0
  -24.7170  -23.1980    9.3230 N   0  0  0  0  0  0  0  0  0  0  0  0
  -24.6040  -22.0060    8.7210 C   0  0  0  0  0  0  0  0  0  0  0  0
  -24.6910  -20.9370    9.3310 O   0  0  0  0  0  0  0  0  0  0  0  0
  -24.5770  -24.0310    8.7690 H   0  0  0  0  0  0  0  0  0  0  0  0
  -22.8600  -21.7920    6.9230 C   0  0  0  0  0  1  0  0  0  0  0  0
  -24.3560  -22.0010    7.2000 C   0  0  0  0  0  3  0  0  0  0  0  0
  -26.5760  -21.2690    6.4520 C   0  0  0  0  0  1  0  0  0  0  0  0
  -25.1450  -20.9800    6.4780 N   0  0  0  0  0  0  0  0  0  0  0  0
  -24.8260  -20.8880    5.5170 H   0  0  0  0  0  0  0  0  0  0  0  0
  -26.1030  -24.3170   11.0890 C   0  0  1  0  0  0  0  0  0  0  0  0
  -25.9730  -25.7460   10.5160 C   0  0  0  0  0  1  0  0  0  0  0  0
  -26.3190  -24.4390   12.6150 C   0  0  0  0  0  1  0  0  0  0  0  0
  -27.3950  -23.6930   10.5130 C   0  0  0  0  0  1  0  0  0  0  0  0
  -31.2540  -16.8080   20.4720 C   0  0  0  0  0  3  0  0  0  0  0  0
  -31.3970  -14.4320   19.6810 C   0  0  0  0  0  0  0  0  0  0  0  0
  -30.9340  -12.2230   18.6960 C   0  0  0  0  0  2  0  0  0  0  0  0
  -29.9300  -12.3860   17.5370 C   0  0  0  0  0  2  0  0  0  0  0  0
  -28.4760  -12.3730   18.0510 C   0  0  0  0  0  2  0  0  0  0  0  0
  -28.2590  -13.3250   19.2570 C   0  0  0  0  0  3  0  0  0  0  0  0
  -29.3570  -13.1040   20.3190 C   0  0  0  0  0  2  0  0  0  0  0  0
  -30.6680  -13.2890   19.6670 N   0  0  0  0  0  0  0  0  0  0  0  0
  -32.4410  -14.5910   19.0370 O   0  0  0  0  0  0  0  0  0  0  0  0
  -30.8450  -15.4130   20.3930 N   0  0  0  0  0  0  0  0  0  0  0  0
  -29.9940  -15.1960   20.8940 H   0  0  0  0  0  0  0  0  0  0  0  0
  -25.9840  -14.1470   20.1380 C   0  0  0  0  0  0  0  0  0  0  0  0
  -24.8760  -13.4690   20.5780 C   0  0  0  0  0  0  0  0  0  0  0  0
  -25.2050  -12.0820   20.5000 C   0  0  0  0  0  0  0  0  0  0  0  0
  -26.9220  -13.1750   19.8260 N   0  0  0  0  0  0  0  0  0  0  0  0
  -26.4590  -11.9270   20.0940 N   0  0  0  0  0  0  0  0  0  0  0  0
  -24.3790  -10.8900   20.7350 C   0  0  0  0  0  0  0  0  0  0  0  0
  -24.8090   -9.8500   21.5880 C   0  0  0  0  0  3  0  0  0  0  0  0
  -23.9900   -8.7210   21.8100 C   0  0  0  0  0  3  0  0  0  0  0  0
  -22.7260   -8.6280   21.1820 C   0  0  0  0  0  0  0  0  0  0  0  0
  -22.3130   -9.6540   20.3140 C   0  0  0  0  0  3  0  0  0  0  0  0
  -23.1320  -10.7740   20.0900 C   0  0  0  0  0  3  0  0  0  0  0  0
  -21.8750   -7.5590   21.3190 O   0  0  0  0  0  0  0  0  0  0  0  0
  -21.8300   -6.8160   22.4700 C   0  0  0  0  0  0  0  0  0  0  0  0
  -21.5010   -7.3940   23.7170 C   0  0  0  0  0  3  0  0  0  0  0  0
  -21.4000   -6.5820   24.8640 C   0  0  0  0  0  3  0  0  0  0  0  0
  -21.6150   -5.1940   24.7670 C   0  0  0  0  0  0  0  0  0  0  0  0
  -21.9360   -4.6170   23.5270 C   0  0  0  0  0  3  0  0  0  0  0  0
  -22.0400   -5.4250   22.3820 C   0  0  0  0  0  0  0  0  0  0  0  0
  -22.3280   -4.8600   21.1840 F   0  0  0  0  0  0  0  0  0  0  0  0
  -21.5100   -4.4120   25.8680 F   0  0  0  0  0  0  0  0  0  0  0  0
  -23.5550  -14.0710   20.9650 C   0  0  0  0  0  0  0  0  0  0  0  0
  -22.8440  -13.4400   21.8940 N   0  0  0  0  0  0  0  0  0  0  0  0
  -23.1670  -15.1310   20.4780 O   0  0  0  0  0  0  0  0  0  0  0  0
  -23.1720  -12.5820   22.3100 H   0  0  0  0  0  0  0  0  0  0  0  0
  -21.9570  -13.8220   22.1930 H   0  0  0  0  0  0  0  0  0  0  0  0
  -26.2630  -15.4970   19.9610 N   0  0  0  0  0  0  0  0  0  0  0  0
  -25.5810  -16.2250   20.1450 H   0  0  0  0  0  0  0  0  0  0  0  0
  -27.1500  -15.8600   19.6340 H   0  0  0  0  0  0  0  0  0  0  0  0
  -29.6630  -17.3960   18.4610 C   0  0  0  0  0  1  0  0  0  0  0  0
  -31.0630  -17.5110   19.0930 C   0  0  0  0  0  2  0  0  0  0  0  0
  1 10  1  0
  1 12  2  0
  2  5  1  0
  3  6  1  0
  5 10  1  0
  7  4  1  0
  7 11  1  0
  9  4  1  6
  9  2  1  0
  9  8  1  0
  9  3  1  0
 10  6  1  0
 11 13  1  1
 11  8  1  0
 14 11  1  0
 16 15  1  0
 16 14  1  0
 17 16  1  0
 17 18  1  0
 17 25  1  0
 19 21  1  0
 20 19  2  0
 20 22  1  0
 21 23  2  0
 22 24  2  0
 24 23  1  0
 24 18  1  0
 26 25  1  0
 27 37  1  0
 28 34  1  0
 28 26  1  0
 29 39  1  0
 29 36  1  0
 30 35  1  0
 31 32  1  0
 32 30  2  0
 32 33  1  0
 33 28  2  0
 35 34  2  0
 36 30  1  0
 37 29  1  0
 37 31  1  0
 38 27  2  0
 39 41  2  0
 40 39  1  0
 42 40  1  0
 43 47  1  0
 44 40  1  0
 44 45  1  0
 46 45  1  0
 47 46  1  0
 48 43  1  0
 48 44  1  0
 49 48  2  0
 50 51  2  0
 50 49  1  0
 51 52  1  0
 52 43  2  0
 53 63  1  0
 53 27  1  0
 54 53  1  0
 55 54  1  0
 55 56  2  0
 57 54  1  0
 59 58  1  0
 59 55  1  0
 60 61  1  0
 61 59  1  0
 62 61  1  0
 63 65  1  1
 64 63  1  0
 66 63  1  0
 67107  1  0
 67  1  1  0
 68 76  1  0
 69 74  1  0
 70 71  1  0
 70 69  1  0
 72 71  1  0
 72 81  1  0
 72 73  1  0
 74 68  1  0
 74 73  1  0
 75 68  2  0
 76 67  1  0
 76 77  1  0
 78 79  2  0
 79 98  1  0
 80 79  1  0
 80 83  1  0
 81 82  1  0
 81 78  1  0
 82 80  2  0
 83 84  1  0
 84 85  2  0
 86 89  1  0
 86 85  1  0
 87 86  2  0
 88 87  1  0
 88 83  2  0
 89 90  1  0
 90 91  1  0
 91 92  2  0
 93 92  1  0
 93 97  1  0
 94 93  2  0
 95 90  2  0
 95 94  1  0
 96 95  1  0
 98 99  1  0
 99102  1  0
 99101  1  0
100 98  2  0
103 78  1  0
103104  1  0
105103  1  0
106107  1  0
M  ISO  4  25 101  26 101  68 100  76 100
M  END
>  <TORSDO>  (53) 
F 24

>  <SCORE>  (53) 
-2.643

>  <name>  (53) 
53

>  <ligand_id>  (53) 
53

>  <original_smiles>  (53) 
[H]c1c([H])c([H])c(C([H])([H])C([H])(C([H])([H])Oc2c([H])c([H])c3c(c2[H])C([H])([H])N(C(=O)C([H])(N([H])C(=O)C([H])(N([H])C([H])([H])[H])C([H])([H])[H])C(C([H])([H])[H])(C([H])([H])[H])C([H])([H])[H])C([H])(C(=O)N([H])C2([H])c4c([H])c([H])c([H])c([H])c4C([H])([H])C([H])([H])C2([H])[H])C3([H])[H])C([H])(C([H])([H])[H])C([H])([H])[N+]2([H])C([H])([H])C([H])([H])C3(C([H])([H])C([H])([H])N(C(=O)C([H])(N([H])C(=O)N4C([H])([H])C([H])([H])C([H])([H])C([H])(n5nc(-c6c([H])c([H])c(Oc7c([H])c([H])c(F)c([H])c7F)c([H])c6[H])c(C(=O)N([H])[H])c5N([H])[H])C4([H])[H])C([H])([H])C([H])([H])[H])C([H])([H])C3([H])[H])C2([H])[H])c([H])c1[H]

>  <smiles>  (53) 
[H]c1c([H])c([H])c(C([H])([H])C([H])(C([H])([H])Oc2c([H])c([H])c3c(c2[H])C([H])([H])N(C(=O)C([H])(N([H])C(=O)C([H])(N([H])C([H])([H])[H])C([H])([H])[H])C(C([H])([H])[H])(C([H])([H])[H])C([H])([H])[H])C([H])(C(=O)N([H])C2([H])c4c([H])c([H])c([H])c([H])c4C([H])([H])C([H])([H])C2([H])[H])C3([H])[H])C([H])(C([H])([H])[H])C([H])([H])[N+]2([H])C([H])([H])C([H])([H])C3(C([H])([H])C([H])([H])N(C(=O)C([H])(N([H])C(=O)N4C([H])([H])C([H])([H])C([H])([H])C([H])(n5nc(-c6c([H])c([H])c(Oc7c([H])c([H])c(F)c([H])c7F)c([H])c6[H])c(C(=O)N([H])[H])c5N([H])[H])C4([H])[H])C([H])([H])C([H])([H])[H])C([H])([H])C3([H])[H])C2([H])[H])c([H])c1[H]

$$$$
54:0:0
     RDKit          3D

 90 98  0  0  1  0  0  0  0  0999 V2000
  -29.0170  -22.1370   21.2810 C   0  0  0  0  0  2  0  0  0  0  0  0
  -28.9740  -23.1550   20.1260 C   0  0  0  0  0  2  0  0  0  0  0  0
  -28.3830  -24.5180   20.5230 C   0  0  0  0  0  2  0  0  0  0  0  0
  -28.7490  -25.6070   19.4990 C   0  0  0  0  0  2  0  0  0  0  0  0
  -28.5350  -26.9110   20.0140 O   0  0  0  0  0  0  0  0  0  0  0  0
  -24.5750  -31.8440   23.1130 C   0  0  0  0  0  0  0  0  0  0  0  0
  -27.2940  -27.5020   20.0000 C   0  0  0  0  0  0  0  0  0  0  0  0
  -23.3720  -30.4270   21.4730 C   0  0  0  0  0  3  0  0  0  0  0  0
  -24.8430  -28.9090   20.0380 C   0  0  0  0  0  0  0  0  0  0  0  0
  -25.8790  -30.8480   21.2420 C   0  0  0  0  0  2  0  0  0  0  0  0
  -25.9860  -29.4790   20.6080 C   0  0  0  0  0  0  0  0  0  0  0  0
  -27.2070  -28.7810   20.5850 C   0  0  0  0  0  3  0  0  0  0  0  0
  -26.1320  -26.9260   19.4340 C   0  0  0  0  0  3  0  0  0  0  0  0
  -24.9080  -27.6290   19.4550 C   0  0  0  0  0  3  0  0  0  0  0  0
  -23.5780  -29.7360   20.0940 C   0  0  0  0  0  2  0  0  0  0  0  0
  -24.6280  -31.0550   22.0030 N   0  0  0  0  0  0  0  0  0  0  0  0
  -23.4970  -32.0960   23.6670 O   0  0  0  0  0  0  0  0  0  0  0  0
  -22.7460  -29.3990   22.4400 C   0  0  0  0  0  0  0  0  0  0  0  0
  -21.4260  -29.1910   22.3150 N   0  0  0  0  0  0  0  0  0  0  0  0
  -23.4440  -28.7900   23.2550 O   0  0  0  0  0  0  0  0  0  0  0  0
  -20.9280  -29.7370   21.6260 H   0  0  0  0  0  0  0  0  0  0  0  0
  -18.0740  -27.9490   22.8220 C   0  0  0  0  0  0  0  0  0  0  0  0
  -20.6280  -28.2370   23.0840 C   0  0  0  0  0  3  0  0  0  0  0  0
  -20.7470  -26.8120   22.4970 C   0  0  0  0  0  2  0  0  0  0  0  0
  -19.6450  -26.4830   21.4850 C   0  0  0  0  0  2  0  0  0  0  0  0
  -18.2650  -26.6060   22.1380 C   0  0  0  0  0  2  0  0  0  0  0  0
  -19.1850  -28.7220   23.2500 C   0  0  0  0  0  0  0  0  0  0  0  0
  -18.9530  -29.9810   23.8470 C   0  0  0  0  0  3  0  0  0  0  0  0
  -17.6430  -30.4640   24.0230 C   0  0  0  0  0  3  0  0  0  0  0  0
  -16.5470  -29.6860   23.6140 C   0  0  0  0  0  3  0  0  0  0  0  0
  -16.7640  -28.4300   23.0180 C   0  0  0  0  0  3  0  0  0  0  0  0
  -25.8600  -32.4860   23.7230 C   0  0  0  0  0  3  0  0  0  0  0  0
  -25.5360  -33.8730   24.0810 N   0  0  0  0  0  0  0  0  0  0  0  0
  -25.8610  -34.9440   23.3430 C   0  0  0  0  0  0  0  0  0  0  0  0
  -26.5400  -34.8680   22.3150 O   0  0  0  0  0  0  0  0  0  0  0  0
  -24.9410  -34.0030   24.8850 H   0  0  0  0  0  0  0  0  0  0  0  0
  -24.1310  -36.7280   22.9810 C   0  0  0  0  0  1  0  0  0  0  0  0
  -25.3500  -36.3160   23.8210 C   0  0  0  0  0  3  0  0  0  0  0  0
  -27.4550  -37.1920   24.7330 C   0  0  0  0  0  1  0  0  0  0  0  0
  -26.3760  -37.3810   23.7660 N   0  0  0  0  0  0  0  0  0  0  0  0
  -25.9560  -38.2930   23.9320 H   0  0  0  0  0  0  0  0  0  0  0  0
  -26.4130  -31.7030   24.9770 C   0  0  1  0  0  0  0  0  0  0  0  0
  -25.3380  -31.4050   26.0470 C   0  0  0  0  0  1  0  0  0  0  0  0
  -27.0340  -30.3550   24.5420 C   0  0  0  0  0  1  0  0  0  0  0  0
  -27.5420  -32.5160   25.6500 C   0  0  0  0  0  1  0  0  0  0  0  0
  -29.3300  -20.7130   20.7780 C   0  0  0  0  0  2  0  0  0  0  0  0
  -29.7330  -19.7030   21.8850 C   0  0  0  0  0  2  0  0  0  0  0  0
  -31.1660  -14.5300   20.0010 C   0  0  0  0  0  0  0  0  0  0  0  0
  -30.6830  -12.4400   18.7920 C   0  0  0  0  0  2  0  0  0  0  0  0
  -29.6700  -12.7170   17.6640 C   0  0  0  0  0  2  0  0  0  0  0  0
  -28.2260  -12.6110   18.1930 C   0  0  0  0  0  2  0  0  0  0  0  0
  -28.0050  -13.4140   19.5040 C   0  0  0  0  0  3  0  0  0  0  0  0
  -29.1320  -13.1330   20.5270 C   0  0  0  0  0  2  0  0  0  0  0  0
  -30.4200  -13.4030   19.8720 N   0  0  0  0  0  0  0  0  0  0  0  0
  -32.2590  -14.6830   19.4450 O   0  0  0  0  0  0  0  0  0  0  0  0
  -30.1940  -16.6510   19.6130 C   0  0  0  0  0  2  0  0  0  0  0  0
  -31.1400  -16.0950   21.8340 C   0  0  0  0  0  2  0  0  0  0  0  0
  -29.4370  -17.8210   20.2530 C   0  0  0  0  0  2  0  0  0  0  0  0
  -30.4730  -17.3780   22.3960 C   0  0  0  0  0  2  0  0  0  0  0  0
  -30.5560  -15.5940   20.5730 N   0  0  0  0  0  0  0  0  0  0  0  0
  -30.2400  -18.4040   21.3500 N   0  0  2  0  0  4  0  0  0  0  0  0
  -31.1460  -18.6200   20.9620 H   0  0  0  0  0  0  0  0  0  0  0  0
  -25.6900  -14.0590   20.4270 C   0  0  0  0  0  0  0  0  0  0  0  0
  -24.6240  -13.2990   20.8320 C   0  0  0  0  0  0  0  0  0  0  0  0
  -25.0300  -11.9380   20.6870 C   0  0  0  0  0  0  0  0  0  0  0  0
  -26.6810  -13.1580   20.0690 N   0  0  0  0  0  0  0  0  0  0  0  0
  -26.2910  -11.8740   20.2800 N   0  0  0  0  0  0  0  0  0  0  0  0
  -24.2700  -10.6920   20.8560 C   0  0  0  0  0  0  0  0  0  0  0  0
  -24.6740   -9.7030   21.7790 C   0  0  0  0  0  3  0  0  0  0  0  0
  -23.9210   -8.5200   21.9380 C   0  0  0  0  0  3  0  0  0  0  0  0
  -22.7460   -8.3200   21.1750 C   0  0  0  0  0  0  0  0  0  0  0  0
  -22.3610   -9.2970   20.2410 C   0  0  0  0  0  3  0  0  0  0  0  0
  -23.1150  -10.4720   20.0790 C   0  0  0  0  0  3  0  0  0  0  0  0
  -21.9640   -7.1930   21.2450 O   0  0  0  0  0  0  0  0  0  0  0  0
  -21.8180   -6.4900   22.4130 C   0  0  0  0  0  0  0  0  0  0  0  0
  -21.3030   -7.0880   23.5850 C   0  0  0  0  0  3  0  0  0  0  0  0
  -21.1060   -6.3120   24.7450 C   0  0  0  0  0  3  0  0  0  0  0  0
  -21.4090   -4.9370   24.7330 C   0  0  0  0  0  0  0  0  0  0  0  0
  -21.9150   -4.3390   23.5660 C   0  0  0  0  0  3  0  0  0  0  0  0
  -22.1150   -5.1120   22.4080 C   0  0  0  0  0  0  0  0  0  0  0  0
  -22.5840   -4.5230   21.2810 F   0  0  0  0  0  0  0  0  0  0  0  0
  -21.2100   -4.1900   25.8450 F   0  0  0  0  0  0  0  0  0  0  0  0
  -23.2700  -13.8080   21.2350 C   0  0  0  0  0  0  0  0  0  0  0  0
  -22.5980  -13.1050   22.1410 N   0  0  0  0  0  0  0  0  0  0  0  0
  -22.8210  -14.8590   20.7850 O   0  0  0  0  0  0  0  0  0  0  0  0
  -22.9740  -12.2490   22.5220 H   0  0  0  0  0  0  0  0  0  0  0  0
  -21.6900  -13.4240   22.4480 H   0  0  0  0  0  0  0  0  0  0  0  0
  -25.8900  -15.4310   20.3120 N   0  0  0  0  0  0  0  0  0  0  0  0
  -25.1550  -16.1020   20.5070 H   0  0  0  0  0  0  0  0  0  0  0  0
  -26.7190  -15.8540   19.9150 H   0  0  0  0  0  0  0  0  0  0  0  0
  2  3  1  0
  2  1  1  0
  4  5  1  0
  4  3  1  0
  6 17  2  0
  7  5  1  0
  7 12  1  0
  8 16  1  0
  8 18  1  0
  9 15  1  0
  9 11  1  0
 10 16  1  0
 11 10  1  0
 12 11  2  0
 13 14  1  0
 13  7  2  0
 14  9  2  0
 15  8  1  0
 16  6  1  0
 18 20  2  0
 19 18  1  0
 21 19  1  0
 22 31  2  0
 22 27  1  0
 23 19  1  0
 23 27  1  0
 24 23  1  0
 25 26  1  0
 25 24  1  0
 26 22  1  0
 27 28  2  0
 28 29  1  0
 30 29  2  0
 31 30  1  0
 32  6  1  0
 32 33  1  0
 32 42  1  0
 33 36  1  0
 34 38  1  0
 34 33  1  0
 35 34  2  0
 38 37  1  0
 40 38  1  0
 40 41  1  0
 40 39  1  0
 42 45  1  1
 42 43  1  0
 44 42  1  0
 46  1  1  0
 46 47  1  0
 48 60  1  0
 49 54  1  0
 50 51  1  0
 50 49  1  0
 52 51  1  0
 52 66  1  0
 52 53  1  0
 54 48  1  0
 54 53  1  0
 55 48  2  0
 56 58  1  0
 56 60  1  0
 57 59  1  0
 58 61  1  0
 60 57  1  0
 61 47  1  0
 61 59  1  0
 61 62  1  6
 63 64  2  0
 64 83  1  0
 65 64  1  0
 65 68  1  0
 66 67  1  0
 66 63  1  0
 67 65  2  0
 68 69  1  0
 69 70  2  0
 71 74  1  0
 71 70  1  0
 72 71  2  0
 73 72  1  0
 73 68  2  0
 74 75  1  0
 75 76  1  0
 76 77  2  0
 78 77  1  0
 78 82  1  0
 79 78  2  0
 80 75  2  0
 80 79  1  0
 81 80  1  0
 83 84  1  0
 84 87  1  0
 84 86  1  0
 85 83  2  0
 88 63  1  0
 88 89  1  0
 90 88  1  0
M  ISO  4   4 101   5 101  48 100  60 100
M  END
>  <TORSDO>  (54) 
F 21

>  <SCORE>  (54) 
-12.559

>  <name>  (54) 
54

>  <ligand_id>  (54) 
54

>  <original_smiles>  (54) 
[H]c1c([H])c([H])c2c(c1[H])C([H])([H])C([H])([H])C([H])([H])C2([H])N([H])C(=O)C1([H])N(C(=O)C([H])(N([H])C(=O)C([H])(N([H])C([H])([H])[H])C([H])([H])[H])C(C([H])([H])[H])(C([H])([H])[H])C([H])([H])[H])C([H])([H])c2c([H])c(OC([H])([H])C([H])([H])C([H])([H])C([H])([H])C([H])([H])C([H])([H])[N+]3([H])C([H])([H])C([H])([H])N(C(=O)N4C([H])([H])C([H])([H])C([H])([H])C([H])(n5nc(-c6c([H])c([H])c(Oc7c([H])c([H])c(F)c([H])c7F)c([H])c6[H])c(C(=O)N([H])[H])c5N([H])[H])C4([H])[H])C([H])([H])C3([H])[H])c([H])c([H])c2C1([H])[H]

>  <smiles>  (54) 
[H]c1c([H])c([H])c2c(c1[H])C([H])([H])C([H])([H])C([H])([H])C2([H])N([H])C(=O)C1([H])N(C(=O)C([H])(N([H])C(=O)C([H])(N([H])C([H])([H])[H])C([H])([H])[H])C(C([H])([H])[H])(C([H])([H])[H])C([H])([H])[H])C([H])([H])c2c([H])c(OC([H])([H])C([H])([H])C([H])([H])C([H])([H])C([H])([H])C([H])([H])[N+]3([H])C([H])([H])C([H])([H])N(C(=O)N4C([H])([H])C([H])([H])C([H])([H])C([H])(n5nc(-c6c([H])c([H])c(Oc7c([H])c([H])c(F)c([H])c7F)c([H])c6[H])c(C(=O)N([H])[H])c5N([H])[H])C4([H])[H])C([H])([H])C3([H])[H])c([H])c([H])c2C1([H])[H]

$$$$
55:0:0
     RDKit          3D

 95104  0  0  1  0  0  0  0  0999 V2000
  -27.7510  -23.6980   19.9490 C   0  0  0  0  0  3  0  0  0  0  0  0
  -28.3870  -22.4440   20.8040 C   0  0  0  0  0  2  0  0  0  0  0  0
  -30.6750  -14.8620   20.6220 C   0  0  0  0  0  0  0  0  0  0  0  0
  -30.4590  -12.5580   19.6430 C   0  0  0  0  0  2  0  0  0  0  0  0
  -29.5900  -12.5920   18.3720 C   0  0  0  0  0  2  0  0  0  0  0  0
  -28.1120  -12.3950   18.7380 C   0  0  0  0  0  2  0  0  0  0  0  0
  -27.6720  -13.3020   19.9200 C   0  0  0  0  0  3  0  0  0  0  0  0
  -28.6800  -13.3090   21.0900 C   0  0  0  0  0  2  0  0  0  0  0  0
  -29.9920  -13.6580   20.5350 N   0  0  0  0  0  0  0  0  0  0  0  0
  -31.8660  -14.8600   20.3020 O   0  0  0  0  0  0  0  0  0  0  0  0
  -30.6420  -21.0680   21.0810 C   0  0  0  0  0  2  0  0  0  0  0  0
  -30.8450  -19.8020   21.9610 C   0  0  0  0  0  2  0  0  0  0  0  0
  -30.9380  -17.1130   21.7340 C   0  0  0  0  0  2  0  0  0  0  0  0
  -28.6720  -19.6710   20.0090 C   0  0  0  0  0  2  0  0  0  0  0  0
  -29.1050  -16.9900   20.3450 C   0  0  0  0  0  2  0  0  0  0  0  0
  -29.2900  -21.1700   20.2910 C   0  0  0  0  0  3  0  0  0  0  0  0
  -30.6340  -18.5220   21.1230 C   0  0  0  0  0  3  0  0  0  0  0  0
  -30.0930  -16.0730   21.0490 N   0  0  0  0  0  0  0  0  0  0  0  0
  -29.2320  -18.4500   20.7730 N   0  0  1  0  0  4  0  0  0  0  0  0
  -28.7550  -18.4830   21.6630 H   0  0  0  0  0  0  0  0  0  0  0  0
  -25.2510  -13.8750   20.5330 C   0  0  0  0  0  0  0  0  0  0  0  0
  -24.1790  -13.0960   20.8700 C   0  0  0  0  0  0  0  0  0  0  0  0
  -24.6540  -11.7500   20.8830 C   0  0  0  0  0  0  0  0  0  0  0  0
  -26.3120  -13.0030   20.3590 N   0  0  0  0  0  0  0  0  0  0  0  0
  -25.9590  -11.7210   20.6320 N   0  0  0  0  0  0  0  0  0  0  0  0
  -23.9300  -10.4830   21.0560 C   0  0  0  0  0  0  0  0  0  0  0  0
  -24.3270   -9.5320   22.0230 C   0  0  0  0  0  3  0  0  0  0  0  0
  -23.5970   -8.3350   22.1900 C   0  0  0  0  0  3  0  0  0  0  0  0
  -22.4610   -8.0770   21.3890 C   0  0  0  0  0  0  0  0  0  0  0  0
  -22.0860   -9.0160   20.4130 C   0  0  0  0  0  3  0  0  0  0  0  0
  -22.8130  -10.2040   20.2460 C   0  0  0  0  0  3  0  0  0  0  0  0
  -21.7100   -6.9280   21.4590 O   0  0  0  0  0  0  0  0  0  0  0  0
  -21.6190   -6.2000   22.6170 C   0  0  0  0  0  0  0  0  0  0  0  0
  -21.1300   -6.7650   23.8140 C   0  0  0  0  0  3  0  0  0  0  0  0
  -20.9850   -5.9630   24.9640 C   0  0  0  0  0  3  0  0  0  0  0  0
  -21.3150   -4.5950   24.9170 C   0  0  0  0  0  0  0  0  0  0  0  0
  -21.7940   -4.0280   23.7230 C   0  0  0  0  0  3  0  0  0  0  0  0
  -21.9400   -4.8290   22.5750 C   0  0  0  0  0  0  0  0  0  0  0  0
  -22.3840   -4.2710   21.4230 F   0  0  0  0  0  0  0  0  0  0  0  0
  -21.1670   -3.8240   26.0180 F   0  0  0  0  0  0  0  0  0  0  0  0
  -22.7680  -13.5630   21.0690 C   0  0  0  0  0  0  0  0  0  0  0  0
  -22.0080  -12.8720   21.9130 N   0  0  0  0  0  0  0  0  0  0  0  0
  -22.3480  -14.5770   20.5140 O   0  0  0  0  0  0  0  0  0  0  0  0
  -22.3610  -12.0520   22.3860 H   0  0  0  0  0  0  0  0  0  0  0  0
  -21.0550  -13.1630   22.0820 H   0  0  0  0  0  0  0  0  0  0  0  0
  -25.4110  -15.2430   20.3240 N   0  0  0  0  0  0  0  0  0  0  0  0
  -24.6210  -15.8790   20.3570 H   0  0  0  0  0  0  0  0  0  0  0  0
  -26.2120  -15.6490   19.8630 H   0  0  0  0  0  0  0  0  0  0  0  0
  -26.9590  -23.1810   18.7140 C   0  0  0  0  0  2  0  0  0  0  0  0
  -27.7900  -22.9530   17.5140 N   0  0  0  0  0  4  0  0  0  0  0  0
  -28.0360  -23.8230   17.0750 H   0  0  0  0  0  0  0  0  0  0  0  0
  -27.2640  -22.4200   16.8430 H   0  0  0  0  0  0  0  0  0  0  0  0
  -28.6330  -22.4500   17.7210 H   0  0  0  0  0  0  0  0  0  0  0  0
  -28.4990  -25.1150   19.6410 C   0  0  0  0  0  2  0  0  0  0  0  0
  -28.3190  -26.4480   20.3050 O   0  0  0  0  0  0  0  0  0  0  0  0
  -24.6160  -31.8970   23.2380 C   0  0  0  0  0  0  0  0  0  0  0  0
  -27.2110  -27.3070   20.1830 C   0  0  0  0  0  0  0  0  0  0  0  0
  -23.4060  -30.4960   21.6010 C   0  0  0  0  0  3  0  0  0  0  0  0
  -24.8530  -28.9430   20.1660 C   0  0  0  0  0  0  0  0  0  0  0  0
  -25.9430  -30.8110   21.4060 C   0  0  0  0  0  2  0  0  0  0  0  0
  -26.0200  -29.4280   20.7650 C   0  0  0  0  0  0  0  0  0  0  0  0
  -27.2000  -28.6200   20.7680 C   0  0  0  0  0  3  0  0  0  0  0  0
  -26.0220  -26.8860   19.5550 C   0  0  0  0  0  3  0  0  0  0  0  0
  -24.8570  -27.6810   19.5520 C   0  0  0  0  0  3  0  0  0  0  0  0
  -23.6170  -29.8190   20.2210 C   0  0  0  0  0  2  0  0  0  0  0  0
  -24.6740  -31.0850   22.1400 N   0  0  0  0  0  0  0  0  0  0  0  0
  -23.5340  -32.1710   23.7760 O   0  0  0  0  0  0  0  0  0  0  0  0
  -22.7450  -29.4830   22.5660 C   0  0  0  0  0  0  0  0  0  0  0  0
  -21.4200  -29.3070   22.4440 N   0  0  0  0  0  0  0  0  0  0  0  0
  -23.4280  -28.8560   23.3830 O   0  0  0  0  0  0  0  0  0  0  0  0
  -20.9320  -29.8610   21.7540 H   0  0  0  0  0  0  0  0  0  0  0  0
  -18.0420  -28.1140   22.9540 C   0  0  0  0  0  0  0  0  0  0  0  0
  -20.6030  -28.3720   23.2170 C   0  0  0  0  0  3  0  0  0  0  0  0
  -20.7020  -26.9400   22.6430 C   0  0  0  0  0  2  0  0  0  0  0  0
  -19.5960  -26.6170   21.6320 C   0  0  0  0  0  2  0  0  0  0  0  0
  -18.2170  -26.7640   22.2790 C   0  0  0  0  0  2  0  0  0  0  0  0
  -19.1640  -28.8750   23.3820 C   0  0  0  0  0  0  0  0  0  0  0  0
  -18.9460  -30.1390   23.9740 C   0  0  0  0  0  3  0  0  0  0  0  0
  -17.6430  -30.6400   24.1460 C   0  0  0  0  0  3  0  0  0  0  0  0
  -16.5370  -29.8770   23.7340 C   0  0  0  0  0  3  0  0  0  0  0  0
  -16.7380  -28.6160   23.1430 C   0  0  0  0  0  3  0  0  0  0  0  0
  -25.8990  -32.5310   23.8550 C   0  0  0  0  0  3  0  0  0  0  0  0
  -26.4090  -31.7670   25.1380 C   0  0  1  0  0  0  0  0  0  0  0  0
  -25.3140  -31.5420   26.2060 C   0  0  0  0  0  1  0  0  0  0  0  0
  -26.9880  -30.3850   24.7580 C   0  0  0  0  0  1  0  0  0  0  0  0
  -27.5610  -32.5610   25.7980 C   0  0  0  0  0  1  0  0  0  0  0  0
  -25.5880  -33.9310   24.1760 N   0  0  0  0  0  0  0  0  0  0  0  0
  -25.9300  -34.9820   23.4170 C   0  0  0  0  0  0  0  0  0  0  0  0
  -26.6040  -34.8730   22.3910 O   0  0  0  0  0  0  0  0  0  0  0  0
  -24.9830  -34.0880   24.9690 H   0  0  0  0  0  0  0  0  0  0  0  0
  -24.2150  -36.7880   23.0430 C   0  0  0  0  0  1  0  0  0  0  0  0
  -25.4450  -36.3750   23.8670 C   0  0  0  0  0  3  0  0  0  0  0  0
  -27.5760  -37.2510   24.7190 C   0  0  0  0  0  1  0  0  0  0  0  0
  -26.4850  -37.4220   23.7640 N   0  0  0  0  0  0  0  0  0  0  0  0
  -26.0820  -38.3440   23.9060 H   0  0  0  0  0  0  0  0  0  0  0  0
  1 49  1  0
  1  2  1  0
  3 18  1  0
  4  9  1  0
  5  6  1  0
  5  4  1  0
  7  6  1  0
  7 24  1  0
  7  8  1  0
  9  3  1  0
  9  8  1  0
 10  3  2  0
 11 12  1  0
 14 16  1  0
 14 19  1  0
 15 19  1  0
 15 18  1  0
 16  2  1  0
 16 11  1  0
 17 13  1  0
 17 12  1  0
 18 13  1  0
 19 17  1  0
 19 20  1  1
 21 22  2  0
 22 23  1  0
 22 41  1  0
 23 26  1  0
 24 21  1  0
 24 25  1  0
 25 23  2  0
 26 27  1  0
 27 28  2  0
 29 32  1  0
 29 28  1  0
 30 29  2  0
 31 30  1  0
 31 26  2  0
 32 33  1  0
 33 34  1  0
 34 35  2  0
 36 35  1  0
 36 40  1  0
 37 36  2  0
 38 33  2  0
 38 37  1  0
 39 38  1  0
 41 42  1  0
 42 45  1  0
 42 44  1  0
 43 41  2  0
 46 47  1  0
 46 21  1  0
 48 46  1  0
 50 53  1  0
 50 49  1  0
 51 50  1  0
 52 50  1  0
 54  1  1  0
 54 55  1  0
 56 67  2  0
 57 55  1  0
 57 62  1  0
 58 66  1  0
 58 68  1  0
 59 65  1  0
 59 61  1  0
 60 66  1  0
 61 62  2  0
 61 60  1  0
 63 57  2  0
 64 63  1  0
 64 59  2  0
 65 58  1  0
 66 56  1  0
 68 70  2  0
 69 68  1  0
 71 69  1  0
 72 81  2  0
 72 77  1  0
 73 69  1  0
 73 77  1  0
 74 73  1  0
 75 76  1  0
 75 74  1  0
 76 72  1  0
 77 78  2  0
 78 79  1  0
 80 79  2  0
 81 80  1  0
 82 56  1  0
 82 87  1  0
 82 83  1  0
 83 86  1  1
 83 84  1  0
 85 83  1  0
 87 90  1  0
 88 92  1  0
 88 87  1  0
 89 88  2  0
 92 91  1  0
 94 92  1  0
 94 95  1  0
 94 93  1  0
M  ISO  4   3 100  18 100  54 101  55 101
M  END
>  <TORSDO>  (55) 
F 20

>  <SCORE>  (55) 
-14.288

>  <name>  (55) 
55

>  <ligand_id>  (55) 
55

>  <original_smiles>  (55) 
[H]c1c([H])c([H])c2c(c1[H])C([H])([H])C([H])([H])C([H])([H])C2([H])N([H])C(=O)C1([H])N(C(=O)C([H])(N([H])C(=O)C([H])(N([H])C([H])([H])[H])C([H])([H])[H])C(C([H])([H])[H])(C([H])([H])[H])C([H])([H])[H])C([H])([H])c2c([H])c(OC([H])([H])C([H])(C([H])([H])C3([H])C([H])([H])C([H])([H])C4([H])C([H])([H])N(C(=O)N5C([H])([H])C([H])([H])C([H])([H])C([H])(n6nc(-c7c([H])c([H])c(Oc8c([H])c([H])c(F)c([H])c8F)c([H])c7[H])c(C(=O)N([H])[H])c6N([H])[H])C5([H])[H])C([H])([H])[N+]4([H])C3([H])[H])C([H])([H])[N+]([H])([H])[H])c([H])c([H])c2C1([H])[H]

>  <smiles>  (55) 
[H]c1c([H])c([H])c2c(c1[H])C([H])([H])C([H])([H])C([H])([H])C2([H])N([H])C(=O)C1([H])N(C(=O)C([H])(N([H])C(=O)C([H])(N([H])C([H])([H])[H])C([H])([H])[H])C(C([H])([H])[H])(C([H])([H])[H])C([H])([H])[H])C([H])([H])c2c([H])c(OC([H])([H])C([H])(C([H])([H])C3([H])C([H])([H])C([H])([H])C4([H])C([H])([H])N(C(=O)N5C([H])([H])C([H])([H])C([H])([H])C([H])(n6nc(-c7c([H])c([H])c(Oc8c([H])c([H])c(F)c([H])c8F)c([H])c7[H])c(C(=O)N([H])[H])c6N([H])[H])C5([H])[H])C([H])([H])[N+]4([H])C3([H])[H])C([H])([H])[N+]([H])([H])[H])c([H])c([H])c2C1([H])[H]

$$$$
56:0:0
     RDKit          3D

 87 95  0  0  1  0  0  0  0  0999 V2000
  -28.4030  -21.3220   20.2450 C   0  0  0  0  0  2  0  0  0  0  0  0
  -30.5070  -15.1840   20.2380 C   0  0  0  0  0  0  0  0  0  0  0  0
  -30.3910  -12.7830   19.3440 C   0  0  0  0  0  2  0  0  0  0  0  0
  -29.4500  -12.6340   18.1250 C   0  0  0  0  0  2  0  0  0  0  0  0
  -28.0080  -12.3800   18.5940 C   0  0  0  0  0  2  0  0  0  0  0  0
  -27.5860  -13.3390   19.7380 C   0  0  0  0  0  3  0  0  0  0  0  0
  -28.6540  -13.4630   20.8430 C   0  0  0  0  0  2  0  0  0  0  0  0
  -29.8850  -13.9190   20.1860 N   0  0  0  0  0  0  0  0  0  0  0  0
  -31.7240  -15.1540   20.0100 O   0  0  0  0  0  0  0  0  0  0  0  0
  -29.2130  -17.2560   19.2380 C   0  0  0  0  0  2  0  0  0  0  0  0
  -30.4780  -17.6630   21.1220 C   0  0  0  0  0  2  0  0  0  0  0  0
  -28.5220  -18.7510   19.4030 C   0  0  0  0  0  2  0  0  0  0  0  0
  -29.7730  -19.1530   21.3100 C   0  0  0  0  0  2  0  0  0  0  0  0
  -29.8330  -16.4790   20.3900 N   0  0  0  0  0  0  0  0  0  0  0  0
  -29.2440  -19.9140   20.0970 N   0  0  2  0  0  4  0  0  0  0  0  0
  -30.0400  -20.1270   19.5140 H   0  0  0  0  0  0  0  0  0  0  0  0
  -25.2340  -13.8880   20.5610 C   0  0  0  0  0  0  0  0  0  0  0  0
  -24.1780  -13.1040   20.9350 C   0  0  0  0  0  0  0  0  0  0  0  0
  -24.6450  -11.7550   20.8640 C   0  0  0  0  0  0  0  0  0  0  0  0
  -26.2690  -13.0170   20.2730 N   0  0  0  0  0  0  0  0  0  0  0  0
  -25.9290  -11.7270   20.5240 N   0  0  0  0  0  0  0  0  0  0  0  0
  -23.9230  -10.4880   21.0410 C   0  0  0  0  0  0  0  0  0  0  0  0
  -24.3520   -9.5150   21.9700 C   0  0  0  0  0  3  0  0  0  0  0  0
  -23.6270   -8.3150   22.1380 C   0  0  0  0  0  3  0  0  0  0  0  0
  -22.4580   -8.0810   21.3750 C   0  0  0  0  0  0  0  0  0  0  0  0
  -22.0480   -9.0420   20.4360 C   0  0  0  0  0  3  0  0  0  0  0  0
  -22.7740  -10.2330   20.2660 C   0  0  0  0  0  3  0  0  0  0  0  0
  -21.7030   -6.9350   21.4510 O   0  0  0  0  0  0  0  0  0  0  0  0
  -21.6140   -6.2080   22.6110 C   0  0  0  0  0  0  0  0  0  0  0  0
  -21.1240   -6.7740   23.8090 C   0  0  0  0  0  3  0  0  0  0  0  0
  -20.9830   -5.9730   24.9600 C   0  0  0  0  0  3  0  0  0  0  0  0
  -21.3220   -4.6070   24.9130 C   0  0  0  0  0  0  0  0  0  0  0  0
  -21.8060   -4.0420   23.7200 C   0  0  0  0  0  3  0  0  0  0  0  0
  -21.9480   -4.8390   22.5720 C   0  0  0  0  0  0  0  0  0  0  0  0
  -22.3930   -4.2840   21.4200 F   0  0  0  0  0  0  0  0  0  0  0  0
  -21.1800   -3.8350   26.0170 F   0  0  0  0  0  0  0  0  0  0  0  0
  -22.7870  -13.5760   21.2400 C   0  0  0  0  0  0  0  0  0  0  0  0
  -22.0770  -12.8670   22.1100 N   0  0  0  0  0  0  0  0  0  0  0  0
  -22.3400  -14.6080   20.7430 O   0  0  0  0  0  0  0  0  0  0  0  0
  -22.4530  -12.0330   22.5370 H   0  0  0  0  0  0  0  0  0  0  0  0
  -21.1460  -13.1690   22.3590 H   0  0  0  0  0  0  0  0  0  0  0  0
  -25.3940  -15.2640   20.4130 N   0  0  0  0  0  0  0  0  0  0  0  0
  -24.6320  -15.9150   20.5730 H   0  0  0  0  0  0  0  0  0  0  0  0
  -26.2450  -15.7150   20.1060 H   0  0  0  0  0  0  0  0  0  0  0  0
  -28.9020  -23.0030   20.2450 C   0  0  0  0  0  3  0  0  0  0  0  0
  -27.9120  -24.4510   20.1180 C   0  0  0  0  0  3  0  0  0  0  0  0
  -28.2070  -26.0310   20.2460 O   0  0  0  0  0  0  0  0  0  0  0  0
  -24.6500  -31.8880   23.2520 C   0  0  0  0  0  0  0  0  0  0  0  0
  -27.1840  -27.0860   20.1970 C   0  0  0  0  0  0  0  0  0  0  0  0
  -23.4430  -30.5070   21.6100 C   0  0  0  0  0  3  0  0  0  0  0  0
  -24.8800  -28.9170   20.1750 C   0  0  0  0  0  0  0  0  0  0  0  0
  -26.0060  -30.7310   21.4500 C   0  0  0  0  0  2  0  0  0  0  0  0
  -26.0690  -29.3330   20.7860 C   0  0  0  0  0  0  0  0  0  0  0  0
  -27.2200  -28.4370   20.7740 C   0  0  0  0  0  3  0  0  0  0  0  0
  -25.9630  -26.8000   19.5470 C   0  0  0  0  0  3  0  0  0  0  0  0
  -24.8460  -27.6680   19.5380 C   0  0  0  0  0  3  0  0  0  0  0  0
  -23.6630  -29.8340   20.2280 C   0  0  0  0  0  2  0  0  0  0  0  0
  -24.7210  -31.0670   22.1580 N   0  0  0  0  0  0  0  0  0  0  0  0
  -23.5650  -32.1780   23.7800 O   0  0  0  0  0  0  0  0  0  0  0  0
  -22.7550  -29.5030   22.5700 C   0  0  0  0  0  0  0  0  0  0  0  0
  -21.4250  -29.3370   22.4420 N   0  0  0  0  0  0  0  0  0  0  0  0
  -23.4210  -28.8740   23.3950 O   0  0  0  0  0  0  0  0  0  0  0  0
  -20.9430  -29.8950   21.7520 H   0  0  0  0  0  0  0  0  0  0  0  0
  -18.0410  -28.1350   22.9430 C   0  0  0  0  0  0  0  0  0  0  0  0
  -20.6010  -28.3990   23.2100 C   0  0  0  0  0  3  0  0  0  0  0  0
  -20.7010  -26.9670   22.6340 C   0  0  0  0  0  2  0  0  0  0  0  0
  -19.6000  -26.6460   21.6190 C   0  0  0  0  0  2  0  0  0  0  0  0
  -18.2180  -26.7880   22.2620 C   0  0  0  0  0  2  0  0  0  0  0  0
  -19.1590  -28.8980   23.3740 C   0  0  0  0  0  0  0  0  0  0  0  0
  -18.9370  -30.1560   23.9730 C   0  0  0  0  0  3  0  0  0  0  0  0
  -17.6310  -30.6530   24.1460 C   0  0  0  0  0  3  0  0  0  0  0  0
  -16.5290  -29.8880   23.7280 C   0  0  0  0  0  3  0  0  0  0  0  0
  -16.7340  -28.6310   23.1320 C   0  0  0  0  0  3  0  0  0  0  0  0
  -25.9290  -32.5180   23.8820 C   0  0  0  0  0  3  0  0  0  0  0  0
  -25.6210  -33.9190   24.2190 N   0  0  0  0  0  0  0  0  0  0  0  0
  -25.9290  -34.9760   23.4580 C   0  0  0  0  0  0  0  0  0  0  0  0
  -26.5680  -34.8770   22.4070 O   0  0  0  0  0  0  0  0  0  0  0  0
  -25.0480  -34.0690   25.0370 H   0  0  0  0  0  0  0  0  0  0  0  0
  -24.1770  -36.7640   23.1830 C   0  0  0  0  0  1  0  0  0  0  0  0
  -25.4580  -36.3650   23.9340 C   0  0  0  0  0  3  0  0  0  0  0  0
  -27.6220  -37.2680   24.6640 C   0  0  0  0  0  1  0  0  0  0  0  0
  -26.4780  -37.4240   23.7690 N   0  0  0  0  0  0  0  0  0  0  0  0
  -26.0730  -38.3430   23.9280 H   0  0  0  0  0  0  0  0  0  0  0  0
  -26.4320  -31.7480   25.1660 C   0  0  1  0  0  0  0  0  0  0  0  0
  -25.3310  -31.5220   26.2290 C   0  0  0  0  0  1  0  0  0  0  0  0
  -27.0090  -30.3640   24.7890 C   0  0  0  0  0  1  0  0  0  0  0  0
  -27.5840  -32.5370   25.8320 C   0  0  0  0  0  1  0  0  0  0  0  0
  1 45  1  0
  2 14  1  0
  3  8  1  0
  4  5  1  0
  4  3  1  0
  6  5  1  0
  6 20  1  0
  6  7  1  0
  8  2  1  0
  8  7  1  0
  9  2  2  0
 10 12  1  0
 10 14  1  0
 11 13  1  0
 12 15  1  0
 14 11  1  0
 15  1  1  0
 15 13  1  0
 15 16  1  6
 17 18  2  0
 18 37  1  0
 19 18  1  0
 19 22  1  0
 20 21  1  0
 20 17  1  0
 21 19  2  0
 22 23  1  0
 23 24  2  0
 25 28  1  0
 25 24  1  0
 26 25  2  0
 27 26  1  0
 27 22  2  0
 28 29  1  0
 29 30  1  0
 30 31  2  0
 32 31  1  0
 32 36  1  0
 33 32  2  0
 34 29  2  0
 34 33  1  0
 35 34  1  0
 37 38  1  0
 38 41  1  0
 38 40  1  0
 39 37  2  0
 42 17  1  0
 42 43  1  0
 44 42  1  0
 46 45  2  0
 46 47  1  0
 48 59  2  0
 49 47  1  0
 49 54  1  0
 50 58  1  0
 50 60  1  0
 51 57  1  0
 51 53  1  0
 52 58  1  0
 53 52  1  0
 54 53  2  0
 55 49  2  0
 56 55  1  0
 56 51  2  0
 57 50  1  0
 58 48  1  0
 60 62  2  0
 61 60  1  0
 63 61  1  0
 64 73  2  0
 64 69  1  0
 65 61  1  0
 65 69  1  0
 66 65  1  0
 67 68  1  0
 67 66  1  0
 68 64  1  0
 69 70  2  0
 70 71  1  0
 72 71  2  0
 73 72  1  0
 74 48  1  0
 74 75  1  0
 74 84  1  0
 75 78  1  0
 76 80  1  0
 76 75  1  0
 77 76  2  0
 80 79  1  0
 82 83  1  0
 82 80  1  0
 82 81  1  0
 84 87  1  1
 84 85  1  0
 86 84  1  0
M  ISO  4   2 100  14 100  46 101  47 101
M  END
>  <TORSDO>  (56) 
F 18

>  <SCORE>  (56) 
-15.663

>  <name>  (56) 
56

>  <ligand_id>  (56) 
56

>  <original_smiles>  (56) 
[H]c1c([H])c([H])c2c(c1[H])C([H])([H])C([H])([H])C([H])([H])C2([H])N([H])C(=O)C1([H])N(C(=O)C([H])(N([H])C(=O)C([H])(N([H])C([H])([H])[H])C([H])([H])[H])C(C([H])([H])[H])(C([H])([H])[H])C([H])([H])[H])C([H])([H])c2c([H])c(OC([H])([H])C([H])([H])C([H])([H])[N+]3([H])C([H])([H])C([H])([H])N(C(=O)N4C([H])([H])C([H])([H])C([H])([H])C([H])(n5nc(-c6c([H])c([H])c(Oc7c([H])c([H])c(F)c([H])c7F)c([H])c6[H])c(C(=O)N([H])[H])c5N([H])[H])C4([H])[H])C([H])([H])C3([H])[H])c([H])c([H])c2C1([H])[H]

>  <smiles>  (56) 
[H]c1c([H])c([H])c2c(c1[H])C([H])([H])C([H])([H])C([H])([H])C2([H])N([H])C(=O)C1([H])N(C(=O)C([H])(N([H])C(=O)C([H])(N([H])C([H])([H])[H])C([H])([H])[H])C(C([H])([H])[H])(C([H])([H])[H])C([H])([H])[H])C([H])([H])c2c([H])c(OC([H])([H])C([H])([H])C([H])([H])[N+]3([H])C([H])([H])C([H])([H])N(C(=O)N4C([H])([H])C([H])([H])C([H])([H])C([H])(n5nc(-c6c([H])c([H])c(Oc7c([H])c([H])c(F)c([H])c7F)c([H])c6[H])c(C(=O)N([H])[H])c5N([H])[H])C4([H])[H])C([H])([H])C3([H])[H])c([H])c([H])c2C1([H])[H]

$$$$
57:0:0
     RDKit          3D

101110  0  0  1  0  0  0  0  0999 V2000
  -31.3830  -22.7930   20.2550 C   0  0  0  0  0  2  0  0  0  0  0  0
  -32.7960  -22.7270   20.9050 C   0  0  0  0  0  2  0  0  0  0  0  0
  -32.0190  -20.5620   21.9480 C   0  0  0  0  0  2  0  0  0  0  0  0
  -30.4720  -20.8450   21.7460 C   0  0  0  0  0  3  0  0  0  0  0  0
  -30.3090  -22.3730   21.2680 C   0  0  0  0  0  3  0  0  0  0  0  0
  -32.9240  -21.7400   22.0230 N   0  0  0  0  0  4  0  0  0  0  0  0
  -32.7890  -22.2130   22.9030 H   0  0  0  0  0  0  0  0  0  0  0  0
  -33.8730  -21.4040   22.0390 H   0  0  0  0  0  0  0  0  0  0  0  0
  -30.1860  -18.3590   21.1070 C   0  0  0  0  0  0  0  0  0  0  0  0
  -30.0520  -19.7070   20.8620 N   0  0  0  0  0  0  0  0  0  0  0  0
  -30.1640  -17.9120   22.2530 O   0  0  0  0  0  0  0  0  0  0  0  0
  -29.9770  -19.9350   19.8780 H   0  0  0  0  0  0  0  0  0  0  0  0
  -30.6120  -14.7940   19.9380 C   0  0  0  0  0  0  0  0  0  0  0  0
  -30.2940  -12.5280   18.9610 C   0  0  0  0  0  2  0  0  0  0  0  0
  -29.2970  -12.5640   17.7830 C   0  0  0  0  0  2  0  0  0  0  0  0
  -27.8430  -12.4500   18.2940 C   0  0  0  0  0  2  0  0  0  0  0  0
  -27.5300  -13.3290   19.5420 C   0  0  0  0  0  3  0  0  0  0  0  0
  -28.6630  -13.2830   20.5850 C   0  0  0  0  0  2  0  0  0  0  0  0
  -29.9230  -13.6000   19.9070 N   0  0  0  0  0  0  0  0  0  0  0  0
  -31.8350  -14.7910   19.7930 O   0  0  0  0  0  0  0  0  0  0  0  0
  -29.6880  -17.1280   17.6660 C   0  0  0  0  0  2  0  0  0  0  0  0
  -30.2560  -18.1480   18.5930 C   0  0  0  0  0  2  0  0  0  0  0  0
  -29.0670  -16.1040   18.6080 C   0  0  0  0  0  2  0  0  0  0  0  0
  -30.5440  -17.3860   19.9110 C   0  0  0  0  0  3  0  0  0  0  0  0
  -29.8980  -15.9970   19.8260 N   0  0  0  0  0  0  0  0  0  0  0  0
  -25.2130  -13.9460   20.4290 C   0  0  0  0  0  0  0  0  0  0  0  0
  -24.1610  -13.1810   20.8460 C   0  0  0  0  0  0  0  0  0  0  0  0
  -24.6100  -11.8260   20.7790 C   0  0  0  0  0  0  0  0  0  0  0  0
  -26.2290  -13.0530   20.1230 N   0  0  0  0  0  0  0  0  0  0  0  0
  -25.8830  -11.7760   20.4030 N   0  0  0  0  0  0  0  0  0  0  0  0
  -23.8930  -10.5660   20.9850 C   0  0  0  0  0  0  0  0  0  0  0  0
  -24.3630   -9.5960   21.8960 C   0  0  0  0  0  3  0  0  0  0  0  0
  -23.6440   -8.3990   22.0960 C   0  0  0  0  0  3  0  0  0  0  0  0
  -22.4430   -8.1690   21.3890 C   0  0  0  0  0  0  0  0  0  0  0  0
  -21.9930   -9.1290   20.4650 C   0  0  0  0  0  3  0  0  0  0  0  0
  -22.7100  -10.3170   20.2630 C   0  0  0  0  0  3  0  0  0  0  0  0
  -21.6920   -7.0260   21.5040 O   0  0  0  0  0  0  0  0  0  0  0  0
  -21.6810   -6.2810   22.6570 C   0  0  0  0  0  0  0  0  0  0  0  0
  -21.2840   -6.8310   23.8940 C   0  0  0  0  0  3  0  0  0  0  0  0
  -21.2270   -6.0130   25.0420 C   0  0  0  0  0  3  0  0  0  0  0  0
  -21.5520   -4.6460   24.9500 C   0  0  0  0  0  0  0  0  0  0  0  0
  -21.9360   -4.0950   23.7140 C   0  0  0  0  0  3  0  0  0  0  0  0
  -21.9980   -4.9100   22.5710 C   0  0  0  0  0  0  0  0  0  0  0  0
  -22.3530   -4.3700   21.3800 F   0  0  0  0  0  0  0  0  0  0  0  0
  -21.4810   -3.8580   26.0470 F   0  0  0  0  0  0  0  0  0  0  0  0
  -22.7820  -13.6710   21.1850 C   0  0  0  0  0  0  0  0  0  0  0  0
  -22.0840  -12.9720   22.0730 N   0  0  0  0  0  0  0  0  0  0  0  0
  -22.3360  -14.7050   20.6960 O   0  0  0  0  0  0  0  0  0  0  0  0
  -22.4580  -12.1390   22.5030 H   0  0  0  0  0  0  0  0  0  0  0  0
  -21.1600  -13.2870   22.3350 H   0  0  0  0  0  0  0  0  0  0  0  0
  -25.3930  -15.3180   20.2620 N   0  0  0  0  0  0  0  0  0  0  0  0
  -24.6630  -16.0020   20.4450 H   0  0  0  0  0  0  0  0  0  0  0  0
  -26.2590  -15.7330   19.9460 H   0  0  0  0  0  0  0  0  0  0  0  0
  -29.1480  -23.3500   21.5720 N   0  0  1  0  0  4  0  0  0  0  0  0
  -28.5470  -22.7920   22.1630 H   0  0  0  0  0  0  0  0  0  0  0  0
  -29.5470  -24.5230   22.4340 C   0  0  0  0  0  2  0  0  0  0  0  0
  -28.9180  -26.3700   24.0400 C   0  0  0  0  0  1  0  0  0  0  0  0
  -28.3980  -25.1760   23.2230 C   0  0  0  0  0  2  0  0  0  0  0  0
  -28.2320  -23.8120   20.4480 C   0  0  0  0  0  2  0  0  0  0  0  0
  -28.5230  -25.1740   19.6560 C   0  0  0  0  0  2  0  0  0  0  0  0
  -28.3750  -26.5100   20.2610 O   0  0  0  0  0  0  0  0  0  0  0  0
  -24.6100  -31.8380   23.2380 C   0  0  0  0  0  0  0  0  0  0  0  0
  -27.2120  -27.2840   20.1880 C   0  0  0  0  0  0  0  0  0  0  0  0
  -23.3990  -30.4490   21.5880 C   0  0  0  0  0  3  0  0  0  0  0  0
  -24.8420  -28.8780   20.1790 C   0  0  0  0  0  0  0  0  0  0  0  0
  -25.9320  -30.7630   21.3990 C   0  0  0  0  0  2  0  0  0  0  0  0
  -26.0090  -29.3750   20.7710 C   0  0  0  0  0  0  0  0  0  0  0  0
  -27.1930  -28.5890   20.7640 C   0  0  0  0  0  3  0  0  0  0  0  0
  -26.0160  -26.8170   19.5940 C   0  0  0  0  0  3  0  0  0  0  0  0
  -24.8440  -27.6010   19.5920 C   0  0  0  0  0  3  0  0  0  0  0  0
  -23.6210  -29.7730   20.2070 C   0  0  0  0  0  2  0  0  0  0  0  0
  -24.6680  -31.0310   22.1370 N   0  0  0  0  0  0  0  0  0  0  0  0
  -23.5270  -32.1170   23.7730 O   0  0  0  0  0  0  0  0  0  0  0  0
  -22.7260  -29.4350   22.5450 C   0  0  0  0  0  0  0  0  0  0  0  0
  -21.4000  -29.2600   22.4080 N   0  0  0  0  0  0  0  0  0  0  0  0
  -23.3960  -28.8110   23.3720 O   0  0  0  0  0  0  0  0  0  0  0  0
  -20.9150  -29.8230   21.7240 H   0  0  0  0  0  0  0  0  0  0  0  0
  -18.0250  -28.0550   22.8600 C   0  0  0  0  0  0  0  0  0  0  0  0
  -20.5750  -28.3290   23.1750 C   0  0  0  0  0  3  0  0  0  0  0  0
  -20.6940  -26.8880   22.6270 C   0  0  0  0  0  2  0  0  0  0  0  0
  -19.6180  -26.5470   21.5930 C   0  0  0  0  0  2  0  0  0  0  0  0
  -18.2220  -26.6950   22.2060 C   0  0  0  0  0  2  0  0  0  0  0  0
  -19.1300  -28.8260   23.3020 C   0  0  0  0  0  0  0  0  0  0  0  0
  -18.8950  -30.0940   23.8750 C   0  0  0  0  0  3  0  0  0  0  0  0
  -17.5860  -30.5920   24.0100 C   0  0  0  0  0  3  0  0  0  0  0  0
  -16.4940  -29.8190   23.5840 C   0  0  0  0  0  3  0  0  0  0  0  0
  -16.7120  -28.5520   23.0140 C   0  0  0  0  0  3  0  0  0  0  0  0
  -25.8960  -32.4650   23.8590 C   0  0  0  0  0  3  0  0  0  0  0  0
  -25.5930  -33.8680   24.1780 N   0  0  0  0  0  0  0  0  0  0  0  0
  -25.9350  -34.9140   23.4130 C   0  0  0  0  0  0  0  0  0  0  0  0
  -26.6080  -34.8000   22.3840 O   0  0  0  0  0  0  0  0  0  0  0  0
  -25.0040  -34.0310   24.9810 H   0  0  0  0  0  0  0  0  0  0  0  0
  -24.2310  -36.7300   23.0330 C   0  0  0  0  0  1  0  0  0  0  0  0
  -25.4560  -36.3070   23.8600 C   0  0  0  0  0  3  0  0  0  0  0  0
  -27.5860  -37.1820   24.7180 C   0  0  0  0  0  1  0  0  0  0  0  0
  -26.4960  -37.3530   23.7610 N   0  0  0  0  0  0  0  0  0  0  0  0
  -26.0910  -38.2740   23.9080 H   0  0  0  0  0  0  0  0  0  0  0  0
  -26.4060  -31.6960   25.1400 C   0  0  1  0  0  0  0  0  0  0  0  0
  -25.3200  -31.4700   26.2130 C   0  0  0  0  0  1  0  0  0  0  0  0
  -26.9720  -30.3090   24.7500 C   0  0  0  0  0  1  0  0  0  0  0  0
  -27.5580  -32.4840   25.8080 C   0  0  0  0  0  1  0  0  0  0  0  0
  1  2  1  0
  1  5  1  0
  2  6  1  0
  3  6  1  0
  4 10  1  0
  4  3  1  0
  5 54  1  0
  5  4  1  0
  6  8  1  0
  6  7  1  0
  9 11  2  0
 10  9  1  0
 12 10  1  0
 14 19  1  0
 15 16  1  0
 15 14  1  0
 17 16  1  0
 17 29  1  0
 17 18  1  0
 19 13  1  0
 19 18  1  0
 20 13  2  0
 21 22  1  0
 21 23  1  0
 22 24  1  0
 23 25  1  0
 24  9  1  0
 25 24  1  0
 25 13  1  0
 26 27  2  0
 27 46  1  0
 28 27  1  0
 28 31  1  0
 29 30  1  0
 29 26  1  0
 30 28  2  0
 31 32  1  0
 32 33  2  0
 34 37  1  0
 34 33  1  0
 35 34  2  0
 36 35  1  0
 36 31  2  0
 37 38  1  0
 38 39  1  0
 39 40  2  0
 41 40  1  0
 41 45  1  0
 42 41  2  0
 43 38  2  0
 43 42  1  0
 44 43  1  0
 46 47  1  0
 47 50  1  0
 47 49  1  0
 48 46  2  0
 51 26  1  0
 51 52  1  0
 53 51  1  0
 54 55  1  1
 54 56  1  0
 56 58  1  0
 58 57  1  0
 59 54  1  0
 60 61  1  0
 60 59  1  0
 62 73  2  0
 63 61  1  0
 63 68  1  0
 64 72  1  0
 64 74  1  0
 65 71  1  0
 65 67  1  0
 66 72  1  0
 67 66  1  0
 68 67  2  0
 69 63  2  0
 70 69  1  0
 70 65  2  0
 71 64  1  0
 72 62  1  0
 74 76  2  0
 75 74  1  0
 77 75  1  0
 78 87  2  0
 78 83  1  0
 79 75  1  0
 79 83  1  0
 80 79  1  0
 81 82  1  0
 81 80  1  0
 82 78  1  0
 83 84  2  0
 84 85  1  0
 86 85  2  0
 87 86  1  0
 88 62  1  0
 88 89  1  0
 88 98  1  0
 89 92  1  0
 90 94  1  0
 90 89  1  0
 91 90  2  0
 94 93  1  0
 96 94  1  0
 96 97  1  0
 96 95  1  0
 98101  1  1
 98 99  1  0
100 98  1  0
M  ISO  4  13 100  25 100  60 101  61 101
M  END
>  <TORSDO>  (57) 
F 22

>  <SCORE>  (57) 
-11.761

>  <name>  (57) 
57

>  <ligand_id>  (57) 
57

>  <original_smiles>  (57) 
[H]c1c([H])c([H])c2c(c1[H])C([H])([H])C([H])([H])C([H])([H])C2([H])N([H])C(=O)C1([H])N(C(=O)C([H])(N([H])C(=O)C([H])(N([H])C([H])([H])[H])C([H])([H])[H])C(C([H])([H])[H])(C([H])([H])[H])C([H])([H])[H])C([H])([H])c2c([H])c(OC([H])([H])C([H])([H])[N+]([H])(C([H])([H])C([H])([H])C([H])([H])[H])C3([H])C([H])([H])C([H])([H])[N+]([H])([H])C([H])([H])C3([H])N([H])C(=O)C3([H])N(C(=O)N4C([H])([H])C([H])([H])C([H])([H])C([H])(n5nc(-c6c([H])c([H])c(Oc7c([H])c([H])c(F)c([H])c7F)c([H])c6[H])c(C(=O)N([H])[H])c5N([H])[H])C4([H])[H])C([H])([H])C([H])([H])C3([H])[H])c([H])c([H])c2C1([H])[H]

>  <smiles>  (57) 
[H]c1c([H])c([H])c2c(c1[H])C([H])([H])C([H])([H])C([H])([H])C2([H])N([H])C(=O)C1([H])N(C(=O)C([H])(N([H])C(=O)C([H])(N([H])C([H])([H])[H])C([H])([H])[H])C(C([H])([H])[H])(C([H])([H])[H])C([H])([H])[H])C([H])([H])c2c([H])c(OC([H])([H])C([H])([H])[N+]([H])(C([H])([H])C([H])([H])C([H])([H])[H])C3([H])C([H])([H])C([H])([H])[N+]([H])([H])C([H])([H])C3([H])N([H])C(=O)C3([H])N(C(=O)N4C([H])([H])C([H])([H])C([H])([H])C([H])(n5nc(-c6c([H])c([H])c(Oc7c([H])c([H])c(F)c([H])c7F)c([H])c6[H])c(C(=O)N([H])[H])c5N([H])[H])C4([H])[H])C([H])([H])C([H])([H])C3([H])[H])c([H])c([H])c2C1([H])[H]

$$$$
58:0:0
     RDKit          3D

104112  0  0  1  0  0  0  0  0999 V2000
  -30.6660  -17.9430   21.0130 C   0  0  0  0  0  3  0  0  0  0  0  0
  -31.9160  -18.8770   21.0420 C   0  0  0  0  0  2  0  0  0  0  0  0
  -32.3730  -19.5160   19.7110 C   0  0  0  0  0  2  0  0  0  0  0  0
  -33.8670  -19.8940   19.7410 C   0  0  0  0  0  2  0  0  0  0  0  0
  -34.2910  -20.9280   18.6790 C   0  0  0  0  0  2  0  0  0  0  0  0
  -34.0290  -20.4770   17.3030 N   0  0  0  0  0  4  0  0  0  0  0  0
  -34.4640  -19.5880   17.1260 H   0  0  0  0  0  0  0  0  0  0  0  0
  -34.4060  -21.1440   16.6520 H   0  0  0  0  0  0  0  0  0  0  0  0
  -33.0440  -20.4010   17.1260 H   0  0  0  0  0  0  0  0  0  0  0  0
  -31.1310  -16.5380   20.4800 C   0  0  0  0  0  2  0  0  0  0  0  0
  -30.4650  -14.4160   19.4480 C   0  0  0  0  0  0  0  0  0  0  0  0
  -29.7240  -12.6460   17.8780 C   0  0  0  0  0  2  0  0  0  0  0  0
  -28.5800  -13.1310   16.9620 C   0  0  0  0  0  2  0  0  0  0  0  0
  -27.2080  -12.9260   17.6300 C   0  0  0  0  0  2  0  0  0  0  0  0
  -27.1860  -13.4260   19.0990 C   0  0  0  0  0  3  0  0  0  0  0  0
  -28.4090  -12.8800   19.8590 C   0  0  0  0  0  2  0  0  0  0  0  0
  -29.6240  -13.3620   19.1750 N   0  0  0  0  0  0  0  0  0  0  0  0
  -31.4080  -14.6280   18.6780 O   0  0  0  0  0  0  0  0  0  0  0  0
  -30.2330  -15.3310   20.4640 N   0  0  0  0  0  0  0  0  0  0  0  0
  -24.8930  -13.8930   20.1610 C   0  0  0  0  0  0  0  0  0  0  0  0
  -23.9340  -13.0600   20.6720 C   0  0  0  0  0  0  0  0  0  0  0  0
  -24.4560  -11.7360   20.5490 C   0  0  0  0  0  0  0  0  0  0  0  0
  -25.9360  -13.0720   19.7640 N   0  0  0  0  0  0  0  0  0  0  0  0
  -25.6860  -11.7700   20.0510 N   0  0  0  0  0  0  0  0  0  0  0  0
  -23.8340  -10.4350   20.8240 C   0  0  0  0  0  0  0  0  0  0  0  0
  -24.3770   -9.5420   21.7770 C   0  0  0  0  0  3  0  0  0  0  0  0
  -23.7500   -8.3040   22.0370 C   0  0  0  0  0  3  0  0  0  0  0  0
  -22.5670   -7.9490   21.3450 C   0  0  0  0  0  0  0  0  0  0  0  0
  -22.0440   -8.8310   20.3830 C   0  0  0  0  0  3  0  0  0  0  0  0
  -22.6710  -10.0610   20.1220 C   0  0  0  0  0  3  0  0  0  0  0  0
  -21.9040   -6.7570   21.5140 O   0  0  0  0  0  0  0  0  0  0  0  0
  -21.8550   -6.1270   22.7310 C   0  0  0  0  0  0  0  0  0  0  0  0
  -21.3920   -6.7830   23.8920 C   0  0  0  0  0  3  0  0  0  0  0  0
  -21.2950   -6.0760   25.1070 C   0  0  0  0  0  3  0  0  0  0  0  0
  -21.6480   -4.7150   25.1620 C   0  0  0  0  0  0  0  0  0  0  0  0
  -22.1020   -4.0580   24.0050 C   0  0  0  0  0  3  0  0  0  0  0  0
  -22.2040   -4.7620   22.7920 C   0  0  0  0  0  0  0  0  0  0  0  0
  -22.6230   -4.1190   21.6760 F   0  0  0  0  0  0  0  0  0  0  0  0
  -21.5470   -4.0350   26.3270 F   0  0  0  0  0  0  0  0  0  0  0  0
  -22.5720  -13.4590   21.1620 C   0  0  0  0  0  0  0  0  0  0  0  0
  -22.0430  -12.7470   22.1500 N   0  0  0  0  0  0  0  0  0  0  0  0
  -21.9890  -14.4400   20.7010 O   0  0  0  0  0  0  0  0  0  0  0  0
  -22.5300  -11.9550   22.5430 H   0  0  0  0  0  0  0  0  0  0  0  0
  -21.1370  -12.9970   22.5180 H   0  0  0  0  0  0  0  0  0  0  0  0
  -24.9600  -15.2720   19.9880 N   0  0  0  0  0  0  0  0  0  0  0  0
  -24.1790  -15.8790   20.2080 H   0  0  0  0  0  0  0  0  0  0  0  0
  -25.7230  -15.7600   19.5370 H   0  0  0  0  0  0  0  0  0  0  0  0
  -29.6240  -15.0450   21.7810 C   0  0  0  0  0  2  0  0  0  0  0  0
  -29.8580  -13.5910   22.2730 C   0  0  0  0  0  2  0  0  0  0  0  0
  -28.8520  -13.1630   23.2650 N   0  0  0  0  0  4  0  0  0  0  0  0
  -28.8540  -13.7650   24.0680 H   0  0  0  0  0  0  0  0  0  0  0  0
  -29.0630  -12.2330   23.5820 H   0  0  0  0  0  0  0  0  0  0  0  0
  -27.9260  -13.1510   22.8760 H   0  0  0  0  0  0  0  0  0  0  0  0
  -29.4160  -18.5310   20.2810 C   0  0  0  0  0  2  0  0  0  0  0  0
  -29.5340  -22.3040   21.0890 C   0  0  0  0  0  2  0  0  0  0  0  0
  -28.7910  -22.0220   18.8170 C   0  0  0  0  0  2  0  0  0  0  0  0
  -29.1830  -20.8190   21.3840 C   0  0  0  0  0  2  0  0  0  0  0  0
  -28.4870  -20.5310   19.0980 C   0  0  0  0  0  2  0  0  0  0  0  0
  -28.6800  -22.8620   20.0220 N   0  0  0  0  0  0  0  0  0  0  0  0
  -29.3980  -20.0210   20.1520 N   0  0  2  0  0  4  0  0  0  0  0  0
  -30.3270  -20.2580   19.8410 H   0  0  0  0  0  0  0  0  0  0  0  0
  -29.0610  -24.2370   19.6360 C   0  0  0  0  0  2  0  0  0  0  0  0
  -28.8650  -25.3080   20.7340 C   0  0  0  0  0  2  0  0  0  0  0  0
  -29.0080  -26.6460   20.2230 O   0  0  0  0  0  0  0  0  0  0  0  0
  -25.1450  -31.7090   23.3890 C   0  0  0  0  0  0  0  0  0  0  0  0
  -27.8540  -27.3960   20.1950 C   0  0  0  0  0  0  0  0  0  0  0  0
  -23.9800  -30.3890   21.6520 C   0  0  0  0  0  3  0  0  0  0  0  0
  -25.4690  -28.9150   20.1960 C   0  0  0  0  0  0  0  0  0  0  0  0
  -26.5130  -30.7470   21.5390 C   0  0  0  0  0  2  0  0  0  0  0  0
  -26.6120  -29.4080   20.8370 C   0  0  0  0  0  0  0  0  0  0  0  0
  -27.8110  -28.6590   20.8280 C   0  0  0  0  0  3  0  0  0  0  0  0
  -26.6980  -26.9170   19.5430 C   0  0  0  0  0  3  0  0  0  0  0  0
  -25.5080  -27.6690   19.5430 C   0  0  0  0  0  3  0  0  0  0  0  0
  -24.2250  -29.7730   20.2480 C   0  0  0  0  0  2  0  0  0  0  0  0
  -25.2310  -30.9600   22.2530 N   0  0  0  0  0  0  0  0  0  0  0  0
  -24.0500  -31.9590   23.9090 O   0  0  0  0  0  0  0  0  0  0  0  0
  -23.3020  -29.3270   22.5450 C   0  0  0  0  0  0  0  0  0  0  0  0
  -21.9770  -29.1700   22.3850 N   0  0  0  0  0  0  0  0  0  0  0  0
  -23.9630  -28.6510   23.3370 O   0  0  0  0  0  0  0  0  0  0  0  0
  -21.5060  -29.7660   21.7190 H   0  0  0  0  0  0  0  0  0  0  0  0
  -18.5700  -28.0370   22.8040 C   0  0  0  0  0  0  0  0  0  0  0  0
  -21.1340  -28.2020   23.0880 C   0  0  0  0  0  3  0  0  0  0  0  0
  -21.1970  -26.8130   22.4120 C   0  0  0  0  0  2  0  0  0  0  0  0
  -20.0870  -26.5930   21.3810 C   0  0  0  0  0  2  0  0  0  0  0  0
  -18.7100  -26.7340   22.0350 C   0  0  0  0  0  2  0  0  0  0  0  0
  -19.7100  -28.7350   23.2840 C   0  0  0  0  0  0  0  0  0  0  0  0
  -19.5280  -29.9610   23.9600 C   0  0  0  0  0  3  0  0  0  0  0  0
  -18.2400  -30.4880   24.1610 C   0  0  0  0  0  3  0  0  0  0  0  0
  -17.1130  -29.7850   23.6970 C   0  0  0  0  0  3  0  0  0  0  0  0
  -17.2790  -28.5600   23.0250 C   0  0  0  0  0  3  0  0  0  0  0  0
  -26.4150  -32.3050   24.0730 C   0  0  0  0  0  3  0  0  0  0  0  0
  -26.8940  -31.4750   25.3260 C   0  0  1  0  0  0  0  0  0  0  0  0
  -25.7630  -31.1540   26.3310 C   0  0  0  0  0  1  0  0  0  0  0  0
  -27.5250  -30.1360   24.8820 C   0  0  0  0  0  1  0  0  0  0  0  0
  -27.9990  -32.2540   26.0790 C   0  0  0  0  0  1  0  0  0  0  0  0
  -26.1020  -33.6890   24.4550 N   0  0  0  0  0  0  0  0  0  0  0  0
  -26.4570  -34.7710   23.7510 C   0  0  0  0  0  0  0  0  0  0  0  0
  -27.1550  -34.7090   22.7340 O   0  0  0  0  0  0  0  0  0  0  0  0
  -25.4900  -33.8120   25.2480 H   0  0  0  0  0  0  0  0  0  0  0  0
  -24.7410  -36.5800   23.4250 C   0  0  0  0  0  1  0  0  0  0  0  0
  -25.9600  -36.1400   24.2520 C   0  0  0  0  0  3  0  0  0  0  0  0
  -28.0750  -36.9810   25.1740 C   0  0  0  0  0  1  0  0  0  0  0  0
  -26.9970  -37.1950   24.2120 N   0  0  0  0  0  0  0  0  0  0  0  0
  -26.5880  -38.1080   24.3910 H   0  0  0  0  0  0  0  0  0  0  0  0
  1 54  1  0
  1  2  1  0
  3  4  1  0
  3  2  1  0
  5  4  1  0
  6  5  1  0
  7  6  1  0
  8  6  1  0
  9  6  1  0
 10  1  1  0
 11 19  1  0
 12 17  1  0
 13 14  1  0
 13 12  1  0
 15 14  1  0
 15 23  1  0
 15 16  1  0
 17 11  1  0
 17 16  1  0
 18 11  2  0
 19 10  1  0
 19 48  1  0
 20 21  2  0
 21 40  1  0
 22 21  1  0
 22 25  1  0
 23 24  1  0
 23 20  1  0
 24 22  2  0
 25 26  1  0
 26 27  2  0
 28 31  1  0
 28 27  1  0
 29 28  2  0
 30 29  1  0
 30 25  2  0
 31 32  1  0
 32 37  2  0
 32 33  1  0
 33 34  2  0
 34 35  1  0
 35 39  1  0
 36 35  2  0
 37 36  1  0
 38 37  1  0
 40 41  1  0
 41 44  1  0
 41 43  1  0
 42 40  2  0
 45 20  1  0
 45 46  1  0
 47 45  1  0
 48 49  1  0
 49 50  1  0
 50 52  1  0
 50 51  1  0
 53 50  1  0
 55 57  1  0
 56 58  1  0
 56 59  1  0
 58 60  1  0
 59 55  1  0
 60 54  1  0
 60 57  1  0
 60 61  1  6
 62 59  1  0
 62 63  1  0
 64 63  1  0
 65 76  2  0
 66 64  1  0
 66 71  1  0
 67 75  1  0
 67 77  1  0
 68 74  1  0
 68 70  1  0
 69 75  1  0
 70 69  1  0
 71 70  2  0
 72 73  1  0
 72 66  2  0
 73 68  2  0
 74 67  1  0
 75 65  1  0
 77 79  2  0
 78 77  1  0
 80 78  1  0
 81 90  2  0
 81 86  1  0
 82 78  1  0
 82 86  1  0
 83 82  1  0
 84 85  1  0
 84 83  1  0
 85 81  1  0
 86 87  2  0
 87 88  1  0
 89 88  2  0
 90 89  1  0
 91 65  1  0
 91 96  1  0
 91 92  1  0
 92 95  1  1
 92 93  1  0
 94 92  1  0
 96 99  1  0
 97101  1  0
 97 96  1  0
 98 97  2  0
101100  1  0
103101  1  0
103104  1  0
103102  1  0
M  ISO  4  11 100  19 100  63 101  64 101
M  END
>  <TORSDO>  (58) 
F 29

>  <SCORE>  (58) 
-5.033

>  <name>  (58) 
58

>  <ligand_id>  (58) 
58

>  <original_smiles>  (58) 
[H]c1c([H])c([H])c2c(c1[H])C([H])([H])C([H])([H])C([H])([H])C2([H])N([H])C(=O)C1([H])N(C(=O)C([H])(N([H])C(=O)C([H])(N([H])C([H])([H])[H])C([H])([H])[H])C(C([H])([H])[H])(C([H])([H])[H])C([H])([H])[H])C([H])([H])c2c([H])c(OC([H])([H])C([H])([H])N3C([H])([H])C([H])([H])[N+]([H])(C([H])([H])C([H])(C([H])([H])N(C(=O)N4C([H])([H])C([H])([H])C([H])([H])C([H])(n5nc(-c6c([H])c([H])c(Oc7c([H])c([H])c(F)c([H])c7F)c([H])c6[H])c(C(=O)N([H])[H])c5N([H])[H])C4([H])[H])C([H])([H])C([H])([H])[N+]([H])([H])[H])C([H])([H])C([H])([H])C([H])([H])C([H])([H])[N+]([H])([H])[H])C([H])([H])C3([H])[H])c([H])c([H])c2C1([H])[H]

>  <smiles>  (58) 
[H]c1c([H])c([H])c2c(c1[H])C([H])([H])C([H])([H])C([H])([H])C2([H])N([H])C(=O)C1([H])N(C(=O)C([H])(N([H])C(=O)C([H])(N([H])C([H])([H])[H])C([H])([H])[H])C(C([H])([H])[H])(C([H])([H])[H])C([H])([H])[H])C([H])([H])c2c([H])c(OC([H])([H])C([H])([H])N3C([H])([H])C([H])([H])[N+]([H])(C([H])([H])C([H])(C([H])([H])N(C(=O)N4C([H])([H])C([H])([H])C([H])([H])C([H])(n5nc(-c6c([H])c([H])c(Oc7c([H])c([H])c(F)c([H])c7F)c([H])c6[H])c(C(=O)N([H])[H])c5N([H])[H])C4([H])[H])C([H])([H])C([H])([H])[N+]([H])([H])[H])C([H])([H])C([H])([H])C([H])([H])C([H])([H])[N+]([H])([H])[H])C([H])([H])C3([H])[H])c([H])c([H])c2C1([H])[H]

$$$$
59:0:0
     RDKit          3D

 94102  0  0  1  0  0  0  0  0999 V2000
  -29.9270  -22.1220   20.1620 C   0  0  0  0  0  2  0  0  0  0  0  0
  -28.9260  -23.1760   20.5300 N   0  0  0  0  0  4  0  0  0  0  0  0
  -28.4470  -23.4050   19.6710 H   0  0  0  0  0  0  0  0  0  0  0  0
  -28.2240  -22.7930   21.1440 H   0  0  0  0  0  0  0  0  0  0  0  0
  -29.4580  -24.4780   21.0550 C   0  0  0  0  0  2  0  0  0  0  0  0
  -28.3910  -25.6080   21.1950 C   0  0  0  0  0  2  0  0  0  0  0  0
  -28.4710  -26.6470   20.2000 O   0  0  0  0  0  0  0  0  0  0  0  0
  -24.6250  -31.8460   23.2150 C   0  0  0  0  0  0  0  0  0  0  0  0
  -27.3340  -27.4240   20.1620 C   0  0  0  0  0  0  0  0  0  0  0  0
  -23.4510  -30.4360   21.5570 C   0  0  0  0  0  3  0  0  0  0  0  0
  -24.9320  -28.9150   20.1450 C   0  0  0  0  0  0  0  0  0  0  0  0
  -25.9750  -30.8150   21.3880 C   0  0  0  0  0  2  0  0  0  0  0  0
  -26.0800  -29.4470   20.7450 C   0  0  0  0  0  0  0  0  0  0  0  0
  -27.2900  -28.7110   20.7500 C   0  0  0  0  0  3  0  0  0  0  0  0
  -26.1730  -26.9100   19.5460 C   0  0  0  0  0  3  0  0  0  0  0  0
  -24.9730  -27.6470   19.5410 C   0  0  0  0  0  3  0  0  0  0  0  0
  -23.6800  -29.7620   20.1790 C   0  0  0  0  0  2  0  0  0  0  0  0
  -24.7010  -31.0460   22.1130 N   0  0  0  0  0  0  0  0  0  0  0  0
  -23.5350  -32.1070   23.7440 O   0  0  0  0  0  0  0  0  0  0  0  0
  -22.7990  -29.4070   22.5090 C   0  0  0  0  0  0  0  0  0  0  0  0
  -21.4770  -29.2180   22.3720 N   0  0  0  0  0  0  0  0  0  0  0  0
  -23.4800  -28.7810   23.3270 O   0  0  0  0  0  0  0  0  0  0  0  0
  -20.9900  -29.7740   21.6840 H   0  0  0  0  0  0  0  0  0  0  0  0
  -18.1060  -28.0070   22.8470 C   0  0  0  0  0  0  0  0  0  0  0  0
  -20.6610  -28.2720   23.1330 C   0  0  0  0  0  3  0  0  0  0  0  0
  -20.7710  -26.8440   22.5500 C   0  0  0  0  0  2  0  0  0  0  0  0
  -19.6760  -26.5240   21.5280 C   0  0  0  0  0  2  0  0  0  0  0  0
  -18.2900  -26.6620   22.1640 C   0  0  0  0  0  2  0  0  0  0  0  0
  -19.2200  -28.7710   23.2870 C   0  0  0  0  0  0  0  0  0  0  0  0
  -18.9940  -30.0300   23.8830 C   0  0  0  0  0  3  0  0  0  0  0  0
  -17.6860  -30.5270   24.0440 C   0  0  0  0  0  3  0  0  0  0  0  0
  -16.5880  -29.7600   23.6200 C   0  0  0  0  0  3  0  0  0  0  0  0
  -16.7970  -28.5010   23.0290 C   0  0  0  0  0  3  0  0  0  0  0  0
  -25.8990  -32.4880   23.8490 C   0  0  0  0  0  3  0  0  0  0  0  0
  -26.4130  -31.7180   25.1270 C   0  0  1  0  0  0  0  0  0  0  0  0
  -25.3130  -31.4660   26.1840 C   0  0  0  0  0  1  0  0  0  0  0  0
  -27.0140  -30.3490   24.7340 C   0  0  0  0  0  1  0  0  0  0  0  0
  -27.5480  -32.5230   25.8050 C   0  0  0  0  0  1  0  0  0  0  0  0
  -25.5730  -33.8810   24.1780 N   0  0  0  0  0  0  0  0  0  0  0  0
  -25.8990  -34.9380   23.4210 C   0  0  0  0  0  0  0  0  0  0  0  0
  -26.5770  -34.8420   22.3950 O   0  0  0  0  0  0  0  0  0  0  0  0
  -24.9730  -34.0310   24.9760 H   0  0  0  0  0  0  0  0  0  0  0  0
  -24.1540  -36.7120   23.0550 C   0  0  0  0  0  1  0  0  0  0  0  0
  -25.3950  -36.3210   23.8740 C   0  0  0  0  0  3  0  0  0  0  0  0
  -27.5140  -37.2320   24.7180 C   0  0  0  0  0  1  0  0  0  0  0  0
  -26.4160  -37.3870   23.7670 N   0  0  0  0  0  0  0  0  0  0  0  0
  -25.9980  -38.3020   23.9100 H   0  0  0  0  0  0  0  0  0  0  0  0
  -30.4060  -21.1050   21.2700 C   0  0  0  0  0  3  0  0  0  0  0  0
  -31.7750  -20.9680   23.5010 C   0  0  0  0  0  1  0  0  0  0  0  0
  -30.9610  -21.8350   22.5200 C   0  0  0  0  0  2  0  0  0  0  0  0
  -29.3970  -19.9500   21.6000 C   0  0  0  0  0  2  0  0  0  0  0  0
  -30.7580  -14.5460   20.1140 C   0  0  0  0  0  0  0  0  0  0  0  0
  -30.3510  -12.4030   18.9360 C   0  0  0  0  0  2  0  0  0  0  0  0
  -29.3510  -12.5940   17.7780 C   0  0  0  0  0  2  0  0  0  0  0  0
  -27.9110  -12.3930   18.2840 C   0  0  0  0  0  2  0  0  0  0  0  0
  -27.6180  -13.2320   19.5510 C   0  0  0  0  0  3  0  0  0  0  0  0
  -28.7360  -13.0630   20.6120 C   0  0  0  0  0  2  0  0  0  0  0  0
  -30.0180  -13.3960   19.9780 N   0  0  0  0  0  0  0  0  0  0  0  0
  -31.8770  -14.6250   19.6040 O   0  0  0  0  0  0  0  0  0  0  0  0
  -29.0120  -16.2840   20.3190 C   0  0  0  0  0  2  0  0  0  0  0  0
  -31.2520  -16.5410   21.4320 C   0  0  0  0  0  2  0  0  0  0  0  0
  -28.6490  -17.6980   20.8540 C   0  0  0  0  0  2  0  0  0  0  0  0
  -30.7130  -17.8590   22.0490 C   0  0  0  0  0  2  0  0  0  0  0  0
  -30.2550  -15.6290   20.8000 N   0  0  0  0  0  0  0  0  0  0  0  0
  -29.8070  -18.5790   21.1260 N   0  0  2  0  0  4  0  0  0  0  0  0
  -30.2910  -18.7030   20.2500 H   0  0  0  0  0  0  0  0  0  0  0  0
  -25.2600  -13.8320   20.3850 C   0  0  0  0  0  0  0  0  0  0  0  0
  -24.2160  -13.0530   20.8030 C   0  0  0  0  0  0  0  0  0  0  0  0
  -24.6800  -11.7030   20.7370 C   0  0  0  0  0  0  0  0  0  0  0  0
  -26.2960  -12.9550   20.1000 N   0  0  0  0  0  0  0  0  0  0  0  0
  -25.9550  -11.6710   20.3740 N   0  0  0  0  0  0  0  0  0  0  0  0
  -23.9680  -10.4370   20.9470 C   0  0  0  0  0  0  0  0  0  0  0  0
  -24.4200   -9.4840   21.8880 C   0  0  0  0  0  3  0  0  0  0  0  0
  -23.7080   -8.2830   22.0830 C   0  0  0  0  0  3  0  0  0  0  0  0
  -22.5310   -8.0250   21.3440 C   0  0  0  0  0  0  0  0  0  0  0  0
  -22.1010   -8.9650   20.3880 C   0  0  0  0  0  3  0  0  0  0  0  0
  -22.8130  -10.1600   20.1910 C   0  0  0  0  0  3  0  0  0  0  0  0
  -21.7910   -6.8730   21.4480 O   0  0  0  0  0  0  0  0  0  0  0  0
  -21.7300   -6.1640   22.6200 C   0  0  0  0  0  0  0  0  0  0  0  0
  -21.2700   -6.7480   23.8200 C   0  0  0  0  0  3  0  0  0  0  0  0
  -21.1550   -5.9660   24.9860 C   0  0  0  0  0  3  0  0  0  0  0  0
  -21.4870   -4.5980   24.9560 C   0  0  0  0  0  0  0  0  0  0  0  0
  -21.9380   -4.0130   23.7590 C   0  0  0  0  0  3  0  0  0  0  0  0
  -22.0550   -4.7930   22.5960 C   0  0  0  0  0  0  0  0  0  0  0  0
  -22.4710   -4.2150   21.4420 F   0  0  0  0  0  0  0  0  0  0  0  0
  -21.3680   -3.8470   26.0750 F   0  0  0  0  0  0  0  0  0  0  0  0
  -22.8280  -13.5180   21.1430 C   0  0  0  0  0  0  0  0  0  0  0  0
  -22.1480  -12.8090   22.0380 N   0  0  0  0  0  0  0  0  0  0  0  0
  -22.3590  -14.5430   20.6510 O   0  0  0  0  0  0  0  0  0  0  0  0
  -22.5450  -11.9830   22.4630 H   0  0  0  0  0  0  0  0  0  0  0  0
  -21.2160  -13.0950   22.3070 H   0  0  0  0  0  0  0  0  0  0  0  0
  -25.3920  -15.2070   20.2050 N   0  0  0  0  0  0  0  0  0  0  0  0
  -24.5870  -15.8130   20.3160 H   0  0  0  0  0  0  0  0  0  0  0  0
  -26.1500  -15.6560   19.7140 H   0  0  0  0  0  0  0  0  0  0  0  0
  1  2  1  0
  2  5  1  0
  2  4  1  0
  3  2  1  0
  5  6  1  0
  7  6  1  0
  8 19  2  0
  9  7  1  0
  9 14  1  0
 10 18  1  0
 10 20  1  0
 11 17  1  0
 11 13  1  0
 12 18  1  0
 13 14  2  0
 13 12  1  0
 15  9  2  0
 16 15  1  0
 16 11  2  0
 17 10  1  0
 18  8  1  0
 20 22  2  0
 21 20  1  0
 23 21  1  0
 24 33  2  0
 24 29  1  0
 25 21  1  0
 25 29  1  0
 26 25  1  0
 27 28  1  0
 27 26  1  0
 28 24  1  0
 29 30  2  0
 30 31  1  0
 32 31  2  0
 33 32  1  0
 34  8  1  0
 34 39  1  0
 34 35  1  0
 35 38  1  1
 35 36  1  0
 37 35  1  0
 39 42  1  0
 40 44  1  0
 40 39  1  0
 41 40  2  0
 44 43  1  0
 46 44  1  0
 46 47  1  0
 46 45  1  0
 48  1  1  0
 48 51  1  0
 48 50  1  0
 50 49  1  0
 52 64  1  0
 53 58  1  0
 54 55  1  0
 54 53  1  0
 56 55  1  0
 56 70  1  0
 56 57  1  0
 58 52  1  0
 58 57  1  0
 59 52  2  0
 60 64  1  0
 60 62  1  0
 61 63  1  0
 62 65  1  0
 64 61  1  0
 65 51  1  0
 65 63  1  0
 65 66  1  6
 67 68  2  0
 68 87  1  0
 69 68  1  0
 69 72  1  0
 70 71  1  0
 70 67  1  0
 71 69  2  0
 72 73  1  0
 73 74  2  0
 75 78  1  0
 75 74  1  0
 76 75  2  0
 77 76  1  0
 77 72  2  0
 78 79  1  0
 79 80  1  0
 80 81  2  0
 82 81  1  0
 82 86  1  0
 83 82  2  0
 84 79  2  0
 84 83  1  0
 85 84  1  0
 87 88  1  0
 88 91  1  0
 88 90  1  0
 89 87  2  0
 92 93  1  0
 92 67  1  0
 94 92  1  0
M  ISO  4   6 101   7 101  52 100  64 100
M  END
>  <TORSDO>  (59) 
F 22

>  <SCORE>  (59) 
-13.015

>  <name>  (59) 
59

>  <ligand_id>  (59) 
59

>  <original_smiles>  (59) 
[H]c1c([H])c([H])c2c(c1[H])C([H])([H])C([H])([H])C([H])([H])C2([H])N([H])C(=O)C1([H])N(C(=O)C([H])(N([H])C(=O)C([H])(N([H])C([H])([H])[H])C([H])([H])[H])C(C([H])([H])[H])(C([H])([H])[H])C([H])([H])[H])C([H])([H])c2c([H])c(OC([H])([H])C([H])([H])[N+]([H])([H])C([H])([H])C([H])(C([H])([H])C([H])([H])[H])C([H])([H])[N+]3([H])C([H])([H])C([H])([H])N(C(=O)N4C([H])([H])C([H])([H])C([H])([H])C([H])(n5nc(-c6c([H])c([H])c(Oc7c([H])c([H])c(F)c([H])c7F)c([H])c6[H])c(C(=O)N([H])[H])c5N([H])[H])C4([H])[H])C([H])([H])C3([H])[H])c([H])c([H])c2C1([H])[H]

>  <smiles>  (59) 
[H]c1c([H])c([H])c2c(c1[H])C([H])([H])C([H])([H])C([H])([H])C2([H])N([H])C(=O)C1([H])N(C(=O)C([H])(N([H])C(=O)C([H])(N([H])C([H])([H])[H])C([H])([H])[H])C(C([H])([H])[H])(C([H])([H])[H])C([H])([H])[H])C([H])([H])c2c([H])c(OC([H])([H])C([H])([H])[N+]([H])([H])C([H])([H])C([H])(C([H])([H])C([H])([H])[H])C([H])([H])[N+]3([H])C([H])([H])C([H])([H])N(C(=O)N4C([H])([H])C([H])([H])C([H])([H])C([H])(n5nc(-c6c([H])c([H])c(Oc7c([H])c([H])c(F)c([H])c7F)c([H])c6[H])c(C(=O)N([H])[H])c5N([H])[H])C4([H])[H])C([H])([H])C3([H])[H])c([H])c([H])c2C1([H])[H]

$$$$
60:0:0
     RDKit          3D

 95103  0  0  1  0  0  0  0  0999 V2000
  -29.4420  -24.4450   21.6070 C   0  0  0  0  0  2  0  0  0  0  0  0
  -30.0790  -23.1410   21.1080 C   0  0  0  0  0  2  0  0  0  0  0  0
  -29.5510  -21.8840   21.8190 C   0  0  0  0  0  2  0  0  0  0  0  0
  -30.1770  -20.6110   21.2230 C   0  0  0  0  0  2  0  0  0  0  0  0
  -30.4990  -19.5100   22.2570 C   0  0  0  0  0  2  0  0  0  0  0  0
  -31.8230  -14.4120   19.9580 C   0  0  0  0  0  0  0  0  0  0  0  0
  -31.2060  -12.3590   18.7360 C   0  0  0  0  0  2  0  0  0  0  0  0
  -30.2110  -12.6870   17.6030 C   0  0  0  0  0  2  0  0  0  0  0  0
  -28.7580  -12.6640   18.1180 C   0  0  0  0  0  2  0  0  0  0  0  0
  -28.5840  -13.4590   19.4390 C   0  0  0  0  0  3  0  0  0  0  0  0
  -29.6770  -13.0390   20.4440 C   0  0  0  0  0  2  0  0  0  0  0  0
  -30.9850  -13.3330   19.8310 N   0  0  0  0  0  0  0  0  0  0  0  0
  -32.8740  -14.4340   19.3060 O   0  0  0  0  0  0  0  0  0  0  0  0
  -30.4240  -15.6960   21.6800 C   0  0  0  0  0  2  0  0  0  0  0  0
  -32.2190  -16.7800   20.2470 C   0  0  0  0  0  2  0  0  0  0  0  0
  -30.3200  -17.0410   22.4400 C   0  0  0  0  0  2  0  0  0  0  0  0
  -32.1260  -17.9720   21.1950 C   0  0  0  0  0  2  0  0  0  0  0  0
  -31.4470  -15.5610   20.6140 N   0  0  0  0  0  0  0  0  0  0  0  0
  -30.7310  -18.1910   21.6120 N   0  0  2  0  0  4  0  0  0  0  0  0
  -30.1520  -18.1760   20.7860 H   0  0  0  0  0  0  0  0  0  0  0  0
  -26.3170  -14.2520   20.3630 C   0  0  0  0  0  0  0  0  0  0  0  0
  -25.2060  -13.5640   20.7710 C   0  0  0  0  0  0  0  0  0  0  0  0
  -25.5220  -12.1800   20.6170 C   0  0  0  0  0  0  0  0  0  0  0  0
  -27.2460  -13.2900   19.9970 N   0  0  0  0  0  0  0  0  0  0  0  0
  -26.7740  -12.0340   20.2010 N   0  0  0  0  0  0  0  0  0  0  0  0
  -24.6870  -10.9840   20.7860 C   0  0  0  0  0  0  0  0  0  0  0  0
  -25.0300   -9.9680   21.7050 C   0  0  0  0  0  3  0  0  0  0  0  0
  -24.2030   -8.8350   21.8620 C   0  0  0  0  0  3  0  0  0  0  0  0
  -23.0180   -8.7120   21.0990 C   0  0  0  0  0  0  0  0  0  0  0  0
  -22.6930   -9.7150   20.1700 C   0  0  0  0  0  3  0  0  0  0  0  0
  -23.5190  -10.8400   20.0110 C   0  0  0  0  0  3  0  0  0  0  0  0
  -22.1660   -7.6360   21.1680 O   0  0  0  0  0  0  0  0  0  0  0  0
  -21.9680   -6.9480   22.3380 C   0  0  0  0  0  0  0  0  0  0  0  0
  -21.5330   -7.5920   23.5180 C   0  0  0  0  0  3  0  0  0  0  0  0
  -21.2750   -6.8370   24.6790 C   0  0  0  0  0  3  0  0  0  0  0  0
  -21.4400   -5.4380   24.6600 C   0  0  0  0  0  0  0  0  0  0  0  0
  -21.8660   -4.7950   23.4850 C   0  0  0  0  0  3  0  0  0  0  0  0
  -22.1270   -5.5480   22.3270 C   0  0  0  0  0  0  0  0  0  0  0  0
  -22.5170   -4.9190   21.1920 F   0  0  0  0  0  0  0  0  0  0  0  0
  -21.1850   -4.7110   25.7720 F   0  0  0  0  0  0  0  0  0  0  0  0
  -23.8900  -14.1560   21.1840 C   0  0  0  0  0  0  0  0  0  0  0  0
  -23.1820  -13.5000   22.0970 N   0  0  0  0  0  0  0  0  0  0  0  0
  -23.5020  -15.2320   20.7310 O   0  0  0  0  0  0  0  0  0  0  0  0
  -23.5080  -12.6250   22.4820 H   0  0  0  0  0  0  0  0  0  0  0  0
  -22.3000  -13.8750   22.4140 H   0  0  0  0  0  0  0  0  0  0  0  0
  -26.6100  -15.6090   20.2570 N   0  0  0  0  0  0  0  0  0  0  0  0
  -25.9130  -16.3220   20.4340 H   0  0  0  0  0  0  0  0  0  0  0  0
  -27.4400  -15.9740   19.8090 H   0  0  0  0  0  0  0  0  0  0  0  0
  -30.1760  -25.7060   21.0840 C   0  0  0  0  0  3  0  0  0  0  0  0
  -31.4310  -25.9400   21.8350 N   0  0  0  0  0  4  0  0  0  0  0  0
  -31.2590  -26.1110   22.8110 H   0  0  0  0  0  0  0  0  0  0  0  0
  -31.9230  -26.7360   21.4630 H   0  0  0  0  0  0  0  0  0  0  0  0
  -32.0480  -25.1500   21.7620 H   0  0  0  0  0  0  0  0  0  0  0  0
  -29.2670  -26.9490   21.1150 C   0  0  0  0  0  2  0  0  0  0  0  0
  -28.2790  -26.7700   20.1030 O   0  0  0  0  0  0  0  0  0  0  0  0
  -24.5690  -31.9500   23.3070 C   0  0  0  0  0  0  0  0  0  0  0  0
  -27.1510  -27.5500   20.1670 C   0  0  0  0  0  0  0  0  0  0  0  0
  -23.3280  -30.5730   21.6660 C   0  0  0  0  0  3  0  0  0  0  0  0
  -24.7530  -29.0380   20.2150 C   0  0  0  0  0  0  0  0  0  0  0  0
  -25.8460  -30.9280   21.4340 C   0  0  0  0  0  2  0  0  0  0  0  0
  -25.9170  -29.5620   20.7930 C   0  0  0  0  0  0  0  0  0  0  0  0
  -27.1160  -28.8280   20.7710 C   0  0  0  0  0  3  0  0  0  0  0  0
  -25.9770  -27.0380   19.5780 C   0  0  0  0  0  3  0  0  0  0  0  0
  -24.7760  -27.7710   19.6040 C   0  0  0  0  0  3  0  0  0  0  0  0
  -23.5130  -29.8990   20.2800 C   0  0  0  0  0  2  0  0  0  0  0  0
  -24.6000  -31.1630   22.1960 N   0  0  0  0  0  0  0  0  0  0  0  0
  -23.4990  -32.2260   23.8660 O   0  0  0  0  0  0  0  0  0  0  0  0
  -22.6830  -29.5500   22.6270 C   0  0  0  0  0  0  0  0  0  0  0  0
  -21.3640  -29.3440   22.4790 N   0  0  0  0  0  0  0  0  0  0  0  0
  -23.3640  -28.9410   23.4550 O   0  0  0  0  0  0  0  0  0  0  0  0
  -20.8760  -29.8850   21.7800 H   0  0  0  0  0  0  0  0  0  0  0  0
  -18.0130  -28.0620   22.8850 C   0  0  0  0  0  0  0  0  0  0  0  0
  -20.5500  -28.4010   23.2440 C   0  0  0  0  0  3  0  0  0  0  0  0
  -20.7150  -26.9600   22.7090 C   0  0  0  0  0  2  0  0  0  0  0  0
  -19.6620  -26.5800   21.6640 C   0  0  0  0  0  2  0  0  0  0  0  0
  -18.2540  -26.7010   22.2530 C   0  0  0  0  0  2  0  0  0  0  0  0
  -19.0920  -28.8660   23.3360 C   0  0  0  0  0  0  0  0  0  0  0  0
  -18.8160  -30.1380   23.8830 C   0  0  0  0  0  3  0  0  0  0  0  0
  -17.4920  -30.6060   23.9860 C   0  0  0  0  0  3  0  0  0  0  0  0
  -16.4270  -29.7970   23.5540 C   0  0  0  0  0  3  0  0  0  0  0  0
  -16.6870  -28.5280   23.0080 C   0  0  0  0  0  3  0  0  0  0  0  0
  -25.8710  -32.5600   23.9170 C   0  0  0  0  0  3  0  0  0  0  0  0
  -26.4070  -31.7620   25.1670 C   0  0  1  0  0  0  0  0  0  0  0  0
  -25.3280  -31.4990   26.2440 C   0  0  0  0  0  1  0  0  0  0  0  0
  -26.9860  -30.3940   24.7340 C   0  0  0  0  0  1  0  0  0  0  0  0
  -27.5650  -32.5440   25.8300 C   0  0  0  0  0  1  0  0  0  0  0  0
  -25.5790  -33.9540   24.2720 N   0  0  0  0  0  0  0  0  0  0  0  0
  -25.9450  -35.0160   23.5410 C   0  0  0  0  0  0  0  0  0  0  0  0
  -26.6350  -34.9230   22.5220 O   0  0  0  0  0  0  0  0  0  0  0  0
  -24.9690  -34.1020   25.0620 H   0  0  0  0  0  0  0  0  0  0  0  0
  -24.2660  -36.8510   23.1770 C   0  0  0  0  0  1  0  0  0  0  0  0
  -25.4720  -36.4020   24.0180 C   0  0  0  0  0  3  0  0  0  0  0  0
  -27.5990  -37.2180   24.9320 C   0  0  0  0  0  1  0  0  0  0  0  0
  -26.5280  -37.4350   23.9630 N   0  0  0  0  0  0  0  0  0  0  0  0
  -26.1370  -38.3590   24.1240 H   0  0  0  0  0  0  0  0  0  0  0  0
  2  1  1  0
  2  3  1  0
  4  3  1  0
  4  5  1  0
  6 18  1  0
  7 12  1  0
  8  9  1  0
  8  7  1  0
 10  9  1  0
 10 24  1  0
 10 11  1  0
 12  6  1  0
 12 11  1  0
 13  6  2  0
 14 16  1  0
 15 18  1  0
 15 17  1  0
 17 19  1  0
 18 14  1  0
 19  5  1  0
 19 16  1  0
 19 20  1  6
 21 22  2  0
 22 41  1  0
 23 22  1  0
 23 26  1  0
 24 25  1  0
 24 21  1  0
 25 23  2  0
 26 27  1  0
 27 28  2  0
 29 32  1  0
 29 28  1  0
 30 29  2  0
 31 30  1  0
 31 26  2  0
 32 33  1  0
 33 34  1  0
 34 35  2  0
 36 35  1  0
 36 40  1  0
 37 36  2  0
 38 33  2  0
 38 37  1  0
 39 38  1  0
 41 42  1  0
 42 45  1  0
 42 44  1  0
 43 41  2  0
 46 21  1  0
 46 47  1  0
 48 46  1  0
 49 54  1  0
 49  1  1  0
 49 50  1  0
 50 51  1  0
 52 50  1  0
 53 50  1  0
 55 57  1  0
 55 54  1  0
 56 67  2  0
 57 62  1  0
 58 66  1  0
 58 68  1  0
 59 65  1  0
 59 61  1  0
 60 66  1  0
 61 60  1  0
 62 61  2  0
 63 64  1  0
 63 57  2  0
 64 59  2  0
 65 58  1  0
 66 56  1  0
 68 70  2  0
 69 68  1  0
 71 69  1  0
 72 81  2  0
 72 77  1  0
 73 69  1  0
 73 77  1  0
 74 73  1  0
 75 76  1  0
 75 74  1  0
 76 72  1  0
 77 78  2  0
 78 79  1  0
 80 79  2  0
 81 80  1  0
 82 56  1  0
 82 87  1  0
 82 83  1  0
 83 86  1  1
 83 84  1  0
 85 83  1  0
 87 90  1  0
 88 92  1  0
 88 87  1  0
 89 88  2  0
 92 91  1  0
 94 92  1  0
 94 95  1  0
 94 93  1  0
M  ISO  4   6 100  18 100  54 101  55 101
M  END
>  <TORSDO>  (60) 
F 23

>  <SCORE>  (60) 
-11.739

>  <name>  (60) 
60

>  <ligand_id>  (60) 
60

>  <original_smiles>  (60) 
[H]c1c([H])c([H])c2c(c1[H])C([H])([H])C([H])([H])C([H])([H])C2([H])N([H])C(=O)C1([H])N(C(=O)C([H])(N([H])C(=O)C([H])(N([H])C([H])([H])[H])C([H])([H])[H])C(C([H])([H])[H])(C([H])([H])[H])C([H])([H])[H])C([H])([H])c2c([H])c(OC([H])([H])C([H])(C([H])([H])C([H])([H])C([H])([H])C([H])([H])C([H])([H])[N+]3([H])C([H])([H])C([H])([H])N(C(=O)N4C([H])([H])C([H])([H])C([H])([H])C([H])(n5nc(-c6c([H])c([H])c(Oc7c([H])c([H])c(F)c([H])c7F)c([H])c6[H])c(C(=O)N([H])[H])c5N([H])[H])C4([H])[H])C([H])([H])C3([H])[H])[N+]([H])([H])[H])c([H])c([H])c2C1([H])[H]

>  <smiles>  (60) 
[H]c1c([H])c([H])c2c(c1[H])C([H])([H])C([H])([H])C([H])([H])C2([H])N([H])C(=O)C1([H])N(C(=O)C([H])(N([H])C(=O)C([H])(N([H])C([H])([H])[H])C([H])([H])[H])C(C([H])([H])[H])(C([H])([H])[H])C([H])([H])[H])C([H])([H])c2c([H])c(OC([H])([H])C([H])(C([H])([H])C([H])([H])C([H])([H])C([H])([H])C([H])([H])[N+]3([H])C([H])([H])C([H])([H])N(C(=O)N4C([H])([H])C([H])([H])C([H])([H])C([H])(n5nc(-c6c([H])c([H])c(Oc7c([H])c([H])c(F)c([H])c7F)c([H])c6[H])c(C(=O)N([H])[H])c5N([H])[H])C4([H])[H])C([H])([H])C3([H])[H])[N+]([H])([H])[H])c([H])c([H])c2C1([H])[H]

$$$$
61:0:0
     RDKit          3D

 90 98  0  0  1  0  0  0  0  0999 V2000
  -29.1740  -21.1700   19.2460 N   0  0  0  0  0  4  0  0  0  0  0  0
  -28.2550  -21.0100   18.8690 H   0  0  0  0  0  0  0  0  0  0  0  0
  -29.7580  -21.2920   18.4360 H   0  0  0  0  0  0  0  0  0  0  0  0
  -30.7160  -15.4400   19.4400 C   0  0  0  0  0  0  0  0  0  0  0  0
  -30.5670  -12.9760   18.5960 C   0  0  0  0  0  2  0  0  0  0  0  0
  -29.5250  -12.7420   17.4730 C   0  0  0  0  0  2  0  0  0  0  0  0
  -28.1350  -12.4740   18.0720 C   0  0  0  0  0  2  0  0  0  0  0  0
  -27.8090  -13.4510   19.2280 C   0  0  0  0  0  3  0  0  0  0  0  0
  -28.9730  -13.6200   20.2300 C   0  0  0  0  0  2  0  0  0  0  0  0
  -30.1170  -14.1390   19.4590 N   0  0  0  0  0  0  0  0  0  0  0  0
  -31.8840  -15.3840   19.0220 O   0  0  0  0  0  0  0  0  0  0  0  0
  -29.0370  -17.1930   20.5900 C   0  0  0  0  0  2  0  0  0  0  0  0
  -30.2950  -18.2840   19.0220 C   0  0  0  0  0  2  0  0  0  0  0  0
  -28.5290  -18.7170   20.4200 C   0  0  0  0  0  3  0  0  0  0  0  0
  -29.6370  -19.6600   19.8450 C   0  0  0  0  0  3  0  0  0  0  0  0
  -30.0410  -16.7800   19.5760 N   0  0  0  0  0  0  0  0  0  0  0  0
  -25.5710  -14.0280   20.2990 C   0  0  0  0  0  0  0  0  0  0  0  0
  -24.5350  -13.2620   20.7540 C   0  0  0  0  0  0  0  0  0  0  0  0
  -24.9450  -11.9030   20.5880 C   0  0  0  0  0  0  0  0  0  0  0  0
  -26.5440  -13.1400   19.8800 N   0  0  0  0  0  0  0  0  0  0  0  0
  -26.1870  -11.8510   20.1180 N   0  0  0  0  0  0  0  0  0  0  0  0
  -24.1980  -10.6550   20.7930 C   0  0  0  0  0  0  0  0  0  0  0  0
  -24.6300   -9.6760   21.7160 C   0  0  0  0  0  3  0  0  0  0  0  0
  -23.8800   -8.4960   21.9120 C   0  0  0  0  0  3  0  0  0  0  0  0
  -22.6850   -8.2850   21.1830 C   0  0  0  0  0  0  0  0  0  0  0  0
  -22.2720   -9.2510   20.2490 C   0  0  0  0  0  3  0  0  0  0  0  0
  -23.0220  -10.4230   20.0510 C   0  0  0  0  0  3  0  0  0  0  0  0
  -21.9080   -7.1570   21.2880 O   0  0  0  0  0  0  0  0  0  0  0  0
  -21.7630   -6.4900   22.4780 C   0  0  0  0  0  0  0  0  0  0  0  0
  -21.2040   -7.1120   23.6160 C   0  0  0  0  0  3  0  0  0  0  0  0
  -21.0100   -6.3700   24.7990 C   0  0  0  0  0  3  0  0  0  0  0  0
  -21.3640   -5.0070   24.8420 C   0  0  0  0  0  0  0  0  0  0  0  0
  -21.9140   -4.3850   23.7070 C   0  0  0  0  0  3  0  0  0  0  0  0
  -22.1090   -5.1250   22.5280 C   0  0  0  0  0  0  0  0  0  0  0  0
  -22.6200   -4.5160   21.4310 F   0  0  0  0  0  0  0  0  0  0  0  0
  -21.1690   -4.2930   25.9750 F   0  0  0  0  0  0  0  0  0  0  0  0
  -23.2010  -13.7660   21.2190 C   0  0  0  0  0  0  0  0  0  0  0  0
  -22.5710  -13.0590   22.1500 N   0  0  0  0  0  0  0  0  0  0  0  0
  -22.7330  -14.8210   20.7930 O   0  0  0  0  0  0  0  0  0  0  0  0
  -22.9660  -12.2050   22.5150 H   0  0  0  0  0  0  0  0  0  0  0  0
  -21.6810  -13.3780   22.5050 H   0  0  0  0  0  0  0  0  0  0  0  0
  -25.7560  -15.4010   20.1760 N   0  0  0  0  0  0  0  0  0  0  0  0
  -25.0310  -16.0660   20.4260 H   0  0  0  0  0  0  0  0  0  0  0  0
  -26.5650  -15.8360   19.7560 H   0  0  0  0  0  0  0  0  0  0  0  0
  -28.0330  -19.1890   21.7030 N   0  0  0  0  0  0  0  0  0  0  0  0
  -28.8000  -19.2420   22.3650 H   0  0  0  0  0  0  0  0  0  0  0  0
  -27.7150  -20.1490   21.6170 H   0  0  0  0  0  0  0  0  0  0  0  0
  -29.1150  -22.7180   19.9210 C   0  0  0  0  0  3  0  0  0  0  0  0
  -28.2930  -24.2610   19.3840 C   0  0  0  0  0  3  0  0  0  0  0  0
  -28.3610  -25.8830   19.7850 O   0  0  0  0  0  0  0  0  0  0  0  0
  -24.6160  -31.6490   22.9550 C   0  0  0  0  0  0  0  0  0  0  0  0
  -27.3110  -26.9560   19.7360 C   0  0  0  0  0  0  0  0  0  0  0  0
  -23.4530  -30.2620   21.2870 C   0  0  0  0  0  3  0  0  0  0  0  0
  -24.9410  -28.7630   19.7850 C   0  0  0  0  0  0  0  0  0  0  0  0
  -26.0070  -30.5730   21.1130 C   0  0  0  0  0  2  0  0  0  0  0  0
  -26.1220  -29.1880   20.4060 C   0  0  0  0  0  0  0  0  0  0  0  0
  -27.2960  -28.3050   20.3600 C   0  0  0  0  0  3  0  0  0  0  0  0
  -26.0970  -26.6970   19.0610 C   0  0  0  0  0  3  0  0  0  0  0  0
  -24.9550  -27.5420   19.0910 C   0  0  0  0  0  3  0  0  0  0  0  0
  -23.6870  -29.6350   19.8840 C   0  0  0  0  0  2  0  0  0  0  0  0
  -24.7130  -30.8550   21.8390 N   0  0  0  0  0  0  0  0  0  0  0  0
  -23.5240  -31.8770   23.5010 O   0  0  0  0  0  0  0  0  0  0  0  0
  -22.8120  -29.2090   22.2290 C   0  0  0  0  0  0  0  0  0  0  0  0
  -21.4890  -28.9890   22.1120 N   0  0  0  0  0  0  0  0  0  0  0  0
  -23.5130  -28.5900   23.0330 O   0  0  0  0  0  0  0  0  0  0  0  0
  -20.9730  -29.5410   21.4420 H   0  0  0  0  0  0  0  0  0  0  0  0
  -18.1680  -27.6210   22.6300 C   0  0  0  0  0  0  0  0  0  0  0  0
  -20.7180  -27.9910   22.8630 C   0  0  0  0  0  3  0  0  0  0  0  0
  -20.8710  -26.5850   22.2370 C   0  0  0  0  0  2  0  0  0  0  0  0
  -19.7670  -26.2490   21.2290 C   0  0  0  0  0  2  0  0  0  0  0  0
  -18.3930  -26.3070   21.8990 C   0  0  0  0  0  2  0  0  0  0  0  0
  -19.2590  -28.4190   23.0680 C   0  0  0  0  0  0  0  0  0  0  0  0
  -18.9920  -29.6450   23.7160 C   0  0  0  0  0  3  0  0  0  0  0  0
  -17.6680  -30.0750   23.9260 C   0  0  0  0  0  3  0  0  0  0  0  0
  -16.5930  -29.2760   23.5000 C   0  0  0  0  0  3  0  0  0  0  0  0
  -16.8440  -28.0500   22.8590 C   0  0  0  0  0  3  0  0  0  0  0  0
  -25.8690  -32.3210   23.5930 C   0  0  0  0  0  3  0  0  0  0  0  0
  -26.4520  -31.5110   24.8160 C   0  0  1  0  0  0  0  0  0  0  0  0
  -25.3950  -31.1470   25.8860 C   0  0  0  0  0  1  0  0  0  0  0  0
  -27.1100  -30.1940   24.3440 C   0  0  0  0  0  1  0  0  0  0  0  0
  -27.5670  -32.3330   25.5060 C   0  0  0  0  0  1  0  0  0  0  0  0
  -25.4870  -33.6780   24.0230 N   0  0  0  0  0  0  0  0  0  0  0  0
  -25.7240  -34.8010   23.3320 C   0  0  0  0  0  0  0  0  0  0  0  0
  -26.3500  -34.8060   22.2690 O   0  0  0  0  0  0  0  0  0  0  0  0
  -24.9200  -33.7420   24.8570 H   0  0  0  0  0  0  0  0  0  0  0  0
  -23.8710  -36.5040   23.2030 C   0  0  0  0  0  1  0  0  0  0  0  0
  -25.1850  -36.1270   23.9070 C   0  0  0  0  0  3  0  0  0  0  0  0
  -27.3010  -37.1130   24.6770 C   0  0  0  0  0  1  0  0  0  0  0  0
  -26.1430  -37.2500   23.7980 N   0  0  0  0  0  0  0  0  0  0  0  0
  -25.6870  -38.1340   24.0080 H   0  0  0  0  0  0  0  0  0  0  0  0
  1 48  1  0
  2  1  1  0
  3  1  1  0
  4 10  1  0
  4 16  1  0
  5 10  1  0
  6  7  1  0
  6  5  1  0
  8  7  1  0
  8 20  1  0
  8  9  1  0
 10  9  1  0
 11  4  2  0
 13 16  1  0
 13 15  1  0
 14 12  1  0
 14 45  1  0
 15  1  1  0
 15 14  1  0
 16 12  1  0
 17 18  2  0
 18 37  1  0
 19 18  1  0
 19 22  1  0
 20 21  1  0
 20 17  1  0
 21 19  2  0
 22 23  1  0
 23 24  2  0
 25 28  1  0
 25 24  1  0
 26 25  2  0
 27 26  1  0
 27 22  2  0
 28 29  1  0
 29 34  2  0
 29 30  1  0
 30 31  2  0
 31 32  1  0
 32 36  1  0
 33 32  2  0
 34 33  1  0
 35 34  1  0
 37 38  1  0
 38 41  1  0
 38 40  1  0
 39 37  2  0
 42 17  1  0
 42 43  1  0
 44 42  1  0
 45 46  1  0
 47 45  1  0
 49 50  1  0
 49 48  2  0
 51 62  2  0
 52 50  1  0
 52 57  1  0
 53 61  1  0
 53 63  1  0
 54 60  1  0
 54 56  1  0
 55 61  1  0
 56 55  1  0
 57 56  2  0
 58 59  1  0
 58 52  2  0
 59 54  2  0
 60 53  1  0
 61 51  1  0
 63 65  2  0
 64 63  1  0
 66 64  1  0
 67 76  2  0
 67 72  1  0
 68 64  1  0
 68 72  1  0
 69 68  1  0
 70 71  1  0
 70 69  1  0
 71 67  1  0
 72 73  2  0
 73 74  1  0
 75 74  2  0
 76 75  1  0
 77 51  1  0
 77 82  1  0
 77 78  1  0
 78 81  1  1
 78 79  1  0
 80 78  1  0
 82 85  1  0
 83 87  1  0
 83 82  1  0
 84 83  2  0
 87 86  1  0
 89 87  1  0
 89 90  1  0
 89 88  1  0
M  ISO  4   4 100  16 100  49 101  50 101
M  END
>  <TORSDO>  (61) 
F 19

>  <SCORE>  (61) 
-13.595

>  <name>  (61) 
61

>  <ligand_id>  (61) 
61

>  <original_smiles>  (61) 
[H]c1c([H])c([H])c2c(c1[H])C([H])([H])C([H])([H])C([H])([H])C2([H])N([H])C(=O)C1([H])N(C(=O)C([H])(N([H])C(=O)C([H])(N([H])C([H])([H])[H])C([H])([H])[H])C(C([H])([H])[H])(C([H])([H])[H])C([H])([H])[H])C([H])([H])c2c([H])c(OC([H])([H])C([H])([H])[N+]([H])([H])C3([H])C([H])([H])N(C(=O)N4C([H])([H])C([H])([H])C([H])([H])C([H])(n5nc(-c6c([H])c([H])c(Oc7c([H])c([H])c(F)c([H])c7F)c([H])c6[H])c(C(=O)N([H])[H])c5N([H])[H])C4([H])[H])C([H])([H])C3([H])N([H])[H])c([H])c([H])c2C1([H])[H]

>  <smiles>  (61) 
[H]c1c([H])c([H])c2c(c1[H])C([H])([H])C([H])([H])C([H])([H])C2([H])N([H])C(=O)C1([H])N(C(=O)C([H])(N([H])C(=O)C([H])(N([H])C([H])([H])[H])C([H])([H])[H])C(C([H])([H])[H])(C([H])([H])[H])C([H])([H])[H])C([H])([H])c2c([H])c(OC([H])([H])C([H])([H])[N+]([H])([H])C3([H])C([H])([H])N(C(=O)N4C([H])([H])C([H])([H])C([H])([H])C([H])(n5nc(-c6c([H])c([H])c(Oc7c([H])c([H])c(F)c([H])c7F)c([H])c6[H])c(C(=O)N([H])[H])c5N([H])[H])C4([H])[H])C([H])([H])C3([H])N([H])[H])c([H])c([H])c2C1([H])[H]

$$$$
62:0:0
     RDKit          3D

 94 89  0  0  1  0  0  0  0  0999 V2000
  -25.3450  -30.6440   18.7640 C   0  0  0  0  0  2  0  0  0  0  0  0
  -23.2160  -29.7650   18.4980 C   0  0  0  0  0  2  0  0  0  0  0  0
  -24.3570  -28.8350   21.7080 C   0  0  0  0  0  2  0  0  0  0  0  0
  -26.0030  -29.4050   18.2470 C   0  0  0  0  0  2  0  0  0  0  0  0
  -23.8860  -28.5440   17.9030 C   0  0  0  0  0  2  0  0  0  0  0  0
  -24.1910  -30.0790   19.7210 C   0  0  0  0  0  2  0  0  0  0  0  0
  -24.8180  -28.4280   21.4810 C   0  0  0  0  0  3  0  0  0  0  0  0
  -25.1040  -28.2970   18.7670 N   0  0  0  0  0  2  0  0  0  0  0  0
  -25.3570  -27.1060   22.6510 C   0  0  0  0  0  2  0  0  0  0  0  0
  -26.8760  -26.4520   22.7390 C   0  0  0  0  0  2  0  0  0  0  0  0
  -27.5190  -25.6110   21.6680 O   0  0  0  0  0  0  0  0  0  0  0  0
  -24.4480  -31.4400   23.1490 C   0  0  0  0  0  0  0  0  0  0  0  0
  -26.9450  -25.8260   20.5330 C   0  0  0  0  0  3  0  0  0  0  0  0
  -22.4970  -30.0070   21.5570 C   0  0  0  0  0  1  0  0  0  0  0  0
  -24.4530  -26.5670   20.2880 C   0  0  0  0  0  1  0  0  0  0  0  0
  -26.1770  -29.9500   21.0220 C   0  0  0  0  0 15  0  0  0  0  0  0
  -26.3220  -27.6940   20.3000 C   0  0  0  0  0  1  0  0  0  0  0  0
  -27.4080  -27.0640   20.1670 C   0  0  0  0  0  2  0  0  0  0  0  0
  -25.7280  -25.0560   20.5110 C   0  0  0  0  0  2  0  0  0  0  0  0
  -24.4140  -25.3180   20.1920 C   0  0  0  0  0  2  0  0  0  0  0  0
  -22.5990  -27.8500   20.4720 C   0  0  0  0  0 15  0  0  0  0  0  0
  -24.4360  -30.9350   21.8500 N   0  0  0  0  0  1  0  0  0  0  0  0
  -23.3940  -31.6890   23.7540 O   0  0  0  0  0  0  0  0  0  0  0  0
  -21.7810  -29.4370   22.8240 C   0  0  0  0  0  0  0  0  0  0  0  0
  -20.5660  -29.0530   22.5350 N   0  0  0  0  0  0  0  0  0  0  0  0
  -22.3520  -28.9350   23.8080 O   0  0  0  0  0  0  0  0  0  0  0  0
  -20.1370  -29.3680   21.6770 H   0  0  0  0  0  0  0  0  0  0  0  0
  -17.2930  -28.1580   22.9390 C   0  0  0  0  0  0  0  0  0  0  0  0
  -19.7940  -28.1740   23.3740 C   0  0  0  0  0  3  0  0  0  0  0  0
  -19.8140  -26.7270   22.8440 C   0  0  0  0  0  2  0  0  0  0  0  0
  -18.8030  -26.5130   21.7190 C   0  0  0  0  0  2  0  0  0  0  0  0
  -17.3930  -26.8050   22.2490 C   0  0  0  0  0  2  0  0  0  0  0  0
  -18.4320  -28.8020   23.4650 C   0  0  0  0  0  0  0  0  0  0  0  0
  -18.3300  -30.0880   24.0370 C   0  0  0  0  0  3  0  0  0  0  0  0
  -17.0840  -30.7290   24.1090 C   0  0  0  0  0  3  0  0  0  0  0  0
  -15.9400  -30.0740   23.6240 C   0  0  0  0  0  3  0  0  0  0  0  0
  -16.0420  -28.7950   23.0450 C   0  0  0  0  0  3  0  0  0  0  0  0
  -25.7700  -31.7360   23.9280 C   0  0  0  0  0  3  0  0  0  0  0  0
  -25.6480  -33.1430   24.2960 N   0  0  0  0  0  0  0  0  0  0  0  0
  -26.1400  -34.1390   23.5600 C   0  0  0  0  0  0  0  0  0  0  0  0
  -26.8240  -33.9390   22.5540 O   0  0  0  0  0  0  0  0  0  0  0  0
  -25.0530  -33.3630   25.0810 H   0  0  0  0  0  0  0  0  0  0  0  0
  -24.6940  -36.1470   23.1470 C   0  0  0  0  0  1  0  0  0  0  0  0
  -25.8240  -35.5720   24.0150 C   0  0  0  0  0  3  0  0  0  0  0  0
  -28.0210  -36.1160   24.9580 C   0  0  0  0  0  1  0  0  0  0  0  0
  -27.0020  -36.4620   23.9700 N   0  0  0  0  0  0  0  0  0  0  0  0
  -26.7290  -37.4300   24.1200 H   0  0  0  0  0  0  0  0  0  0  0  0
  -26.0990  -30.9150   25.2540 C   0  0  1  0  0  0  0  0  0  0  0  0
  -24.9390  -30.8250   26.2750 C   0  0  0  0  0  1  0  0  0  0  0  0
  -26.5410  -29.4880   24.9280 C   0  0  0  0  0  1  0  0  0  0  0  0
  -27.3140  -31.5500   25.9760 C   0  0  0  0  0  1  0  0  0  0  0  0
  -25.7760  -26.6030   17.9220 C   0  0  0  0  0 15  0  0  0  0  0  0
  -26.8310  -24.6810   18.0860 C   0  0  0  0  0 15  0  0  0  0  0  0
  -27.0390  -22.5540   18.2830 C   0  0  0  0  0 15  0  0  0  0  0  0
  -27.8070  -20.7540   19.1510 C   0  0  0  0  0 15  0  0  0  0  0  0
  -28.7600  -18.8500   18.9620 C   0  0  0  0  0 15  0  0  0  0  0  0
  -29.8820  -15.6450   19.7890 C   0  0  0  0  0  0  0  0  0  0  0  0
  -30.2890  -12.9750   19.2960 C   0  0  0  0  0  2  0  0  0  0  0  0
  -29.4320  -12.3000   18.1890 C   0  0  0  0  0  2  0  0  0  0  0  0
  -28.0680  -11.8530   18.7340 C   0  0  0  0  0  2  0  0  0  0  0  0
  -27.5030  -12.8850   19.7310 C   0  0  0  0  0  3  0  0  0  0  0  0
  -28.5330  -13.4390   20.7380 C   0  0  0  0  0  2  0  0  0  0  0  0
  -29.5370  -14.1840   19.9190 N   0  0  0  0  0  0  0  0  0  0  0  0
  -31.1370  -15.5950   19.7110 O   0  0  0  0  0  0  0  0  0  0  0  0
  -28.9790  -17.0290   19.5800 N   0  0  0  0  0  2  0  0  0  0  0  0
  -28.0390  -16.7090   19.7740 H   0  0  0  0  0  0  0  0  0  0  0  0
  -25.1850  -13.3240   20.6190 C   0  0  0  0  0  0  0  0  0  0  0  0
  -24.1700  -12.5090   21.0250 C   0  0  0  0  0  0  0  0  0  0  0  0
  -24.6910  -11.1780   20.9900 C   0  0  0  0  0  0  0  0  0  0  0  0
  -26.2490  -12.4910   20.3430 N   0  0  0  0  0  0  0  0  0  0  0  0
  -25.9740  -11.1920   20.6370 N   0  0  0  0  0  0  0  0  0  0  0  0
  -24.0180   -9.8920   21.2110 C   0  0  0  0  0  0  0  0  0  0  0  0
  -24.4660   -8.9770   22.1880 C   0  0  0  0  0  3  0  0  0  0  0  0
  -23.7830   -7.7600   22.3960 C   0  0  0  0  0  3  0  0  0  0  0  0
  -22.6380   -7.4480   21.6250 C   0  0  0  0  0  0  0  0  0  0  0  0
  -22.2090   -8.3510   20.6370 C   0  0  0  0  0  3  0  0  0  0  0  0
  -22.8930   -9.5600   20.4290 C   0  0  0  0  0  3  0  0  0  0  0  0
  -21.9270   -6.2780   21.7420 O   0  0  0  0  0  0  0  0  0  0  0  0
  -21.8470   -5.5980   22.9300 C   0  0  0  0  0  0  0  0  0  0  0  0
  -21.3120   -6.1920   24.0940 C   0  0  0  0  0  3  0  0  0  0  0  0
  -21.1850   -5.4340   25.2750 C   0  0  0  0  0  3  0  0  0  0  0  0
  -21.5840   -4.0840   25.2930 C   0  0  0  0  0  0  0  0  0  0  0  0
  -22.1130   -3.4900   24.1340 C   0  0  0  0  0  3  0  0  0  0  0  0
  -22.2410   -4.2450   22.9550 C   0  0  0  0  0  0  0  0  0  0  0  0
  -22.7310   -3.6610   21.8350 F   0  0  0  0  0  0  0  0  0  0  0  0
  -21.4550   -3.3530   26.4270 F   0  0  0  0  0  0  0  0  0  0  0  0
  -22.7630  -12.9370   21.3150 C   0  0  0  0  0  0  0  0  0  0  0  0
  -22.0810  -12.2290   22.2070 N   0  0  0  0  0  0  0  0  0  0  0  0
  -22.2800  -13.9370   20.7860 O   0  0  0  0  0  0  0  0  0  0  0  0
  -22.4880  -11.4210   22.6540 H   0  0  0  0  0  0  0  0  0  0  0  0
  -21.1380  -12.4980   22.4480 H   0  0  0  0  0  0  0  0  0  0  0  0
  -25.2870  -14.6990   20.4190 N   0  0  0  0  0  0  0  0  0  0  0  0
  -24.4990  -15.3260   20.5400 H   0  0  0  0  0  0  0  0  0  0  0  0
  -26.1040  -15.1550   20.0390 H   0  0  0  0  0  0  0  0  0  0  0  0
  1  6  1  0
  2  6  1  0
  4  1  1  0
  4  8  1  0
  5  2  1  0
  5  8  1  0
  7  3  2  0
  7  9  1  0
  9 10  1  0
 11 10  1  0
 12 23  2  0
 13 18  1  0
 13 11  1  0
 14 24  1  0
 18 17  1  0
 19 13  1  0
 20 15  1  0
 20 19  1  0
 22 12  1  0
 24 26  2  0
 25 24  1  0
 27 25  1  0
 28 37  2  0
 28 33  1  0
 29 25  1  0
 29 33  1  0
 30 29  1  0
 31 32  1  0
 31 30  1  0
 32 28  1  0
 33 34  2  0
 34 35  1  0
 36 35  2  0
 37 36  1  0
 38 12  1  0
 38 39  1  0
 38 48  1  0
 39 42  1  0
 40 44  1  0
 40 39  1  0
 41 40  2  0
 44 43  1  0
 46 44  1  0
 46 47  1  0
 46 45  1  0
 48 51  1  1
 48 49  1  0
 50 48  1  0
 57 63  1  0
 58 63  1  0
 59 60  1  0
 59 58  1  0
 61 60  1  0
 61 70  1  0
 61 62  1  0
 63 62  1  0
 64 57  2  0
 65 66  1  0
 65 57  1  0
 67 68  2  0
 68 87  1  0
 69 68  1  0
 69 72  1  0
 70 67  1  0
 70 71  1  0
 71 69  2  0
 72 73  1  0
 73 74  2  0
 75 78  1  0
 75 74  1  0
 76 75  2  0
 77 76  1  0
 77 72  2  0
 78 79  1  0
 79 84  2  0
 79 80  1  0
 80 81  2  0
 81 82  1  0
 82 86  1  0
 83 82  2  0
 84 83  1  0
 85 84  1  0
 87 88  1  0
 88 91  1  0
 88 90  1  0
 89 87  2  0
 92 93  1  0
 92 67  1  0
 94 92  1  0
M  ISO  4  10 101  11 101  57 100  65 100
M  END
>  <TORSDO>  (62) 
F 23

>  <SCORE>  (62) 
-10.700

>  <name>  (62) 
62

>  <ligand_id>  (62) 
62

>  <original_smiles>  (62) 
[H]c1c([H])c([H])c2c(c1[H])C([H])([H])C([H])([H])C([H])([H])C2([H])N([H])C(=O)C1([H])N(C(=O)C([H])(N([H])C(=O)C([H])(N([H])C([H])([H])[H])C([H])([H])[H])C(C([H])([H])[H])(C([H])([H])[H])C([H])([H])[H])C([H])([H])c2c([H])c(OC([H])([H])C([H])([H])C3([H])C([H])([H])C4([H])C([H])([H])C([H])([H])[N+]3(C([H])([H])C([H])([H])C([H])([H])C([H])([H])C([H])([H])N([H])C(=O)N3C([H])([H])C([H])([H])C([H])([H])C([H])(n5nc(-c6c([H])c([H])c(Oc7c([H])c([H])c(F)c([H])c7F)c([H])c6[H])c(C(=O)N([H])[H])c5N([H])[H])C3([H])[H])C([H])([H])C4([H])[H])c([H])c([H])c2C1([H])[H]

>  <smiles>  (62) 
[H]c1c([H])c([H])c2c(c1[H])C([H])([H])C([H])([H])C([H])([H])C2([H])N([H])C(=O)C1([H])N(C(=O)C([H])(N([H])C(=O)C([H])(N([H])C([H])([H])[H])C([H])([H])[H])C(C([H])([H])[H])(C([H])([H])[H])C([H])([H])[H])C([H])([H])c2c([H])c(OC([H])([H])C([H])([H])C3([H])C([H])([H])C4([H])C([H])([H])C([H])([H])[N+]3(C([H])([H])C([H])([H])C([H])([H])C([H])([H])C([H])([H])N([H])C(=O)N3C([H])([H])C([H])([H])C([H])([H])C([H])(n5nc(-c6c([H])c([H])c(Oc7c([H])c([H])c(F)c([H])c7F)c([H])c6[H])c(C(=O)N([H])[H])c5N([H])[H])C3([H])[H])C([H])([H])C4([H])[H])c([H])c([H])c2C1([H])[H]

$$$$
63:0:0
     RDKit          3D

 94102  0  0  1  0  0  0  0  0999 V2000
  -28.3560  -20.9080   20.5320 C   0  0  0  0  0  2  0  0  0  0  0  0
  -29.3640  -22.0050   20.4500 N   0  0  0  0  0  4  0  0  0  0  0  0
  -30.2170  -21.6460   20.8510 H   0  0  0  0  0  0  0  0  0  0  0  0
  -29.5630  -22.1940   19.4800 H   0  0  0  0  0  0  0  0  0  0  0  0
  -29.0210  -23.2870   21.1450 C   0  0  0  0  0  2  0  0  0  0  0  0
  -27.9950  -24.2130   20.4100 C   0  0  0  0  0  2  0  0  0  0  0  0
  -28.5810  -25.4520   19.6620 C   0  0  0  0  0  2  0  0  0  0  0  0
  -28.4480  -26.7220   20.3360 O   0  0  0  0  0  0  0  0  0  0  0  0
  -24.5700  -31.9250   23.2880 C   0  0  0  0  0  0  0  0  0  0  0  0
  -27.2550  -27.4280   20.2870 C   0  0  0  0  0  0  0  0  0  0  0  0
  -23.3840  -30.4960   21.6560 C   0  0  0  0  0  3  0  0  0  0  0  0
  -24.8540  -28.9450   20.2610 C   0  0  0  0  0  0  0  0  0  0  0  0
  -25.9110  -30.8560   21.4740 C   0  0  0  0  0  2  0  0  0  0  0  0
  -26.0050  -29.4750   20.8540 C   0  0  0  0  0  0  0  0  0  0  0  0
  -27.2040  -28.7220   20.8660 C   0  0  0  0  0  3  0  0  0  0  0  0
  -26.0780  -26.9180   19.6940 C   0  0  0  0  0  3  0  0  0  0  0  0
  -24.8860  -27.6680   19.6790 C   0  0  0  0  0  3  0  0  0  0  0  0
  -23.6060  -29.8010   20.2870 C   0  0  0  0  0  2  0  0  0  0  0  0
  -24.6400  -31.1100   22.1970 N   0  0  0  0  0  0  0  0  0  0  0  0
  -23.4840  -32.2000   23.8160 O   0  0  0  0  0  0  0  0  0  0  0  0
  -22.7290  -29.4840   22.6240 C   0  0  0  0  0  0  0  0  0  0  0  0
  -21.4090  -29.2920   22.4830 N   0  0  0  0  0  0  0  0  0  0  0  0
  -23.4060  -28.8770   23.4570 O   0  0  0  0  0  0  0  0  0  0  0  0
  -20.9260  -29.8350   21.7820 H   0  0  0  0  0  0  0  0  0  0  0  0
  -18.0320  -28.0880   22.9540 C   0  0  0  0  0  0  0  0  0  0  0  0
  -20.5850  -28.3600   23.2540 C   0  0  0  0  0  3  0  0  0  0  0  0
  -20.7020  -26.9230   22.6950 C   0  0  0  0  0  2  0  0  0  0  0  0
  -19.6130  -26.5840   21.6720 C   0  0  0  0  0  2  0  0  0  0  0  0
  -18.2230  -26.7300   22.2990 C   0  0  0  0  0  2  0  0  0  0  0  0
  -19.1440  -28.8600   23.3870 C   0  0  0  0  0  0  0  0  0  0  0  0
  -18.9140  -30.1290   23.9600 C   0  0  0  0  0  3  0  0  0  0  0  0
  -17.6060  -30.6280   24.1060 C   0  0  0  0  0  3  0  0  0  0  0  0
  -16.5080  -29.8530   23.6910 C   0  0  0  0  0  3  0  0  0  0  0  0
  -16.7220  -28.5850   23.1200 C   0  0  0  0  0  3  0  0  0  0  0  0
  -25.8480  -32.5670   23.9110 C   0  0  0  0  0  3  0  0  0  0  0  0
  -26.3520  -31.8190   25.2080 C   0  0  1  0  0  0  0  0  0  0  0  0
  -25.2460  -31.6000   26.2670 C   0  0  0  0  0  1  0  0  0  0  0  0
  -26.9400  -30.4360   24.8440 C   0  0  0  0  0  1  0  0  0  0  0  0
  -27.4940  -32.6270   25.8640 C   0  0  0  0  0  1  0  0  0  0  0  0
  -25.5360  -33.9720   24.2070 N   0  0  0  0  0  0  0  0  0  0  0  0
  -25.8900  -35.0080   23.4330 C   0  0  0  0  0  0  0  0  0  0  0  0
  -26.5810  -34.8800   22.4190 O   0  0  0  0  0  0  0  0  0  0  0  0
  -24.9220  -34.1430   24.9910 H   0  0  0  0  0  0  0  0  0  0  0  0
  -24.1830  -36.8010   22.9970 C   0  0  0  0  0  1  0  0  0  0  0  0
  -25.3980  -36.4070   23.8500 C   0  0  0  0  0  3  0  0  0  0  0  0
  -27.5120  -37.2950   24.7280 C   0  0  0  0  0  1  0  0  0  0  0  0
  -26.4390  -37.4520   23.7480 N   0  0  0  0  0  0  0  0  0  0  0  0
  -26.0360  -38.3750   23.8690 H   0  0  0  0  0  0  0  0  0  0  0  0
  -28.4910  -19.7860   19.4310 C   0  0  0  0  0  3  0  0  0  0  0  0
  -30.8580  -14.6410   20.5100 C   0  0  0  0  0  0  0  0  0  0  0  0
  -30.6080  -12.4040   19.5050 C   0  0  0  0  0  2  0  0  0  0  0  0
  -29.7050  -12.5220   18.2590 C   0  0  0  0  0  2  0  0  0  0  0  0
  -28.2150  -12.4290   18.6500 C   0  0  0  0  0  2  0  0  0  0  0  0
  -27.8340  -13.3130   19.8710 C   0  0  0  0  0  3  0  0  0  0  0  0
  -28.8650  -13.1850   21.0140 C   0  0  0  0  0  2  0  0  0  0  0  0
  -30.1910  -13.4550   20.4470 N   0  0  0  0  0  0  0  0  0  0  0  0
  -32.0700  -14.7230   20.2940 O   0  0  0  0  0  0  0  0  0  0  0  0
  -30.3670  -16.9140   21.3230 C   0  0  0  0  0  2  0  0  0  0  0  0
  -29.9610  -16.2990   19.0650 C   0  0  0  0  0  2  0  0  0  0  0  0
  -29.4140  -18.1430   21.1160 C   0  0  0  0  0  2  0  0  0  0  0  0
  -28.9550  -17.4560   18.9600 C   0  0  0  0  0  2  0  0  0  0  0  0
  -30.0880  -15.7670   20.4300 N   0  0  0  0  0  0  0  0  0  0  0  0
  -29.4030  -18.6330   19.7220 N   0  0  0  0  0  0  0  0  0  0  0  0
  -25.4270  -13.9260   20.5220 C   0  0  0  0  0  0  0  0  0  0  0  0
  -24.3480  -13.1590   20.8650 C   0  0  0  0  0  0  0  0  0  0  0  0
  -24.8070  -11.8060   20.8640 C   0  0  0  0  0  0  0  0  0  0  0  0
  -26.4760  -13.0410   20.3250 N   0  0  0  0  0  0  0  0  0  0  0  0
  -26.1060  -11.7620   20.5940 N   0  0  0  0  0  0  0  0  0  0  0  0
  -24.0740  -10.5470   21.0430 C   0  0  0  0  0  0  0  0  0  0  0  0
  -24.4810   -9.5840   21.9920 C   0  0  0  0  0  3  0  0  0  0  0  0
  -23.7460   -8.3900   22.1620 C   0  0  0  0  0  3  0  0  0  0  0  0
  -22.5920   -8.1510   21.3800 C   0  0  0  0  0  0  0  0  0  0  0  0
  -22.2040   -9.1020   20.4190 C   0  0  0  0  0  3  0  0  0  0  0  0
  -22.9400  -10.2860   20.2480 C   0  0  0  0  0  3  0  0  0  0  0  0
  -21.8330   -7.0080   21.4560 O   0  0  0  0  0  0  0  0  0  0  0  0
  -21.7590   -6.2690   22.6090 C   0  0  0  0  0  0  0  0  0  0  0  0
  -21.3030   -6.8270   23.8240 C   0  0  0  0  0  3  0  0  0  0  0  0
  -21.1770   -6.0150   24.9680 C   0  0  0  0  0  3  0  0  0  0  0  0
  -21.4960   -4.6450   24.8990 C   0  0  0  0  0  0  0  0  0  0  0  0
  -21.9460   -4.0870   23.6890 C   0  0  0  0  0  3  0  0  0  0  0  0
  -22.0740   -4.8960   22.5480 C   0  0  0  0  0  0  0  0  0  0  0  0
  -22.4880   -4.3490   21.3790 F   0  0  0  0  0  0  0  0  0  0  0  0
  -21.3670   -3.8630   25.9960 F   0  0  0  0  0  0  0  0  0  0  0  0
  -22.9440  -13.6410   21.0930 C   0  0  0  0  0  0  0  0  0  0  0  0
  -22.1950  -12.9560   21.9490 N   0  0  0  0  0  0  0  0  0  0  0  0
  -22.5210  -14.6580   20.5450 O   0  0  0  0  0  0  0  0  0  0  0  0
  -22.5520  -12.1330   22.4110 H   0  0  0  0  0  0  0  0  0  0  0  0
  -21.2520  -13.2600   22.1490 H   0  0  0  0  0  0  0  0  0  0  0  0
  -25.6000  -15.2940   20.3390 N   0  0  0  0  0  0  0  0  0  0  0  0
  -24.8330  -15.9510   20.4320 H   0  0  0  0  0  0  0  0  0  0  0  0
  -26.4730  -15.7300   20.0740 H   0  0  0  0  0  0  0  0  0  0  0  0
  -28.8270  -20.4980   18.0700 C   0  0  0  0  0  2  0  0  0  0  0  0
  -26.7890  -19.6280   16.7050 C   0  0  0  0  0  1  0  0  0  0  0  0
  -28.2890  -19.9530   16.7260 C   0  0  0  0  0  2  0  0  0  0  0  0
  2  1  1  0
  2  3  1  0
  2  5  1  0
  4  2  1  0
  6  5  1  0
  7  8  1  0
  7  6  1  0
  9 20  2  0
 10  8  1  0
 10 15  1  0
 11 19  1  0
 11 21  1  0
 12 18  1  0
 12 14  1  0
 13 19  1  0
 14 15  2  0
 14 13  1  0
 16 10  2  0
 17 16  1  0
 17 12  2  0
 18 11  1  0
 19  9  1  0
 21 23  2  0
 22 21  1  0
 24 22  1  0
 25 34  2  0
 25 30  1  0
 26 22  1  0
 26 30  1  0
 27 26  1  0
 28 29  1  0
 28 27  1  0
 29 25  1  0
 30 31  2  0
 31 32  1  0
 33 32  2  0
 34 33  1  0
 35  9  1  0
 35 40  1  0
 35 36  1  0
 36 39  1  1
 36 37  1  0
 38 36  1  0
 40 43  1  0
 41 45  1  0
 41 40  1  0
 42 41  2  0
 45 44  1  0
 47 45  1  0
 47 48  1  0
 47 46  1  0
 49 92  1  0
 49 63  1  0
 49  1  1  0
 51 56  1  0
 52 53  1  0
 52 51  1  0
 54 53  1  0
 54 67  1  0
 54 55  1  0
 56 50  1  0
 56 55  1  0
 57 50  2  0
 59 62  1  0
 60 58  1  0
 61 59  1  0
 61 63  1  0
 62 50  1  0
 62 58  1  0
 63 60  1  0
 64 65  2  0
 65 84  1  0
 66 65  1  0
 66 69  1  0
 67 64  1  0
 67 68  1  0
 68 66  2  0
 69 70  1  0
 70 71  2  0
 72 75  1  0
 72 71  1  0
 73 72  2  0
 74 73  1  0
 74 69  2  0
 75 76  1  0
 76 77  1  0
 77 78  2  0
 79 78  1  0
 79 83  1  0
 80 79  2  0
 81 76  2  0
 81 80  1  0
 82 81  1  0
 84 85  1  0
 85 88  1  0
 85 87  1  0
 86 84  2  0
 89 90  1  0
 89 64  1  0
 91 89  1  0
 93 94  1  0
 94 92  1  0
M  ISO  4   7 101   8 101  50 100  62 100
M  END
>  <TORSDO>  (63) 
F 23

>  <SCORE>  (63) 
-12.582

>  <name>  (63) 
63

>  <ligand_id>  (63) 
63

>  <original_smiles>  (63) 
[H]c1c([H])c([H])c2c(c1[H])C([H])([H])C([H])([H])C([H])([H])C2([H])N([H])C(=O)C1([H])N(C(=O)C([H])(N([H])C(=O)C([H])(N([H])C([H])([H])[H])C([H])([H])[H])C(C([H])([H])[H])(C([H])([H])[H])C([H])([H])[H])C([H])([H])c2c([H])c(OC([H])([H])C([H])([H])C([H])([H])[N+]([H])([H])C([H])([H])C([H])(N3C([H])([H])C([H])([H])N(C(=O)N4C([H])([H])C([H])([H])C([H])([H])C([H])(n5nc(-c6c([H])c([H])c(Oc7c([H])c([H])c(F)c([H])c7F)c([H])c6[H])c(C(=O)N([H])[H])c5N([H])[H])C4([H])[H])C([H])([H])C3([H])[H])C([H])([H])C([H])([H])C([H])([H])[H])c([H])c([H])c2C1([H])[H]

>  <smiles>  (63) 
[H]c1c([H])c([H])c2c(c1[H])C([H])([H])C([H])([H])C([H])([H])C2([H])N([H])C(=O)C1([H])N(C(=O)C([H])(N([H])C(=O)C([H])(N([H])C([H])([H])[H])C([H])([H])[H])C(C([H])([H])[H])(C([H])([H])[H])C([H])([H])[H])C([H])([H])c2c([H])c(OC([H])([H])C([H])([H])C([H])([H])[N+]([H])([H])C([H])([H])C([H])(N3C([H])([H])C([H])([H])N(C(=O)N4C([H])([H])C([H])([H])C([H])([H])C([H])(n5nc(-c6c([H])c([H])c(Oc7c([H])c([H])c(F)c([H])c7F)c([H])c6[H])c(C(=O)N([H])[H])c5N([H])[H])C4([H])[H])C([H])([H])C3([H])[H])C([H])([H])C([H])([H])C([H])([H])[H])c([H])c([H])c2C1([H])[H]

$$$$
64:0:0
     RDKit          3D

 93102  0  0  1  0  0  0  0  0999 V2000
  -30.5730  -22.9460   22.0510 C   0  0  0  0  0  2  0  0  0  0  0  0
  -29.3770  -22.3710   20.0650 C   0  0  0  0  0  2  0  0  0  0  0  0
  -30.0760  -21.6590   22.7500 C   0  0  0  0  0  2  0  0  0  0  0  0
  -28.8400  -21.0880   20.7310 C   0  0  0  0  0  2  0  0  0  0  0  0
  -29.5770  -23.4170   21.0800 N   0  0  0  0  0  0  0  0  0  0  0  0
  -29.7970  -20.5980   21.7510 N   0  0  2  0  0  4  0  0  0  0  0  0
  -30.6680  -20.4530   21.2650 H   0  0  0  0  0  0  0  0  0  0  0  0
  -29.4250  -19.2830   22.3380 C   0  0  0  0  0  2  0  0  0  0  0  0
  -31.1680  -14.5000   19.6330 C   0  0  0  0  0  0  0  0  0  0  0  0
  -30.6500  -12.3950   18.4700 C   0  0  0  0  0  2  0  0  0  0  0  0
  -29.5570  -12.6430   17.4120 C   0  0  0  0  0  2  0  0  0  0  0  0
  -28.1580  -12.4970   18.0400 C   0  0  0  0  0  2  0  0  0  0  0  0
  -28.0030  -13.3070   19.3540 C   0  0  0  0  0  3  0  0  0  0  0  0
  -29.1980  -13.0640   20.3020 C   0  0  0  0  0  2  0  0  0  0  0  0
  -30.4370  -13.3550   19.5630 N   0  0  0  0  0  0  0  0  0  0  0  0
  -32.1810  -14.6850   18.9490 O   0  0  0  0  0  0  0  0  0  0  0  0
  -29.6740  -17.8650   20.2100 C   0  0  0  0  0  2  0  0  0  0  0  0
  -30.1120  -16.7980   22.4050 C   0  0  0  0  0  2  0  0  0  0  0  0
  -30.5410  -16.7990   19.5300 C   0  0  0  0  0  2  0  0  0  0  0  0
  -30.9640  -15.7160   21.7060 C   0  0  0  0  0  2  0  0  0  0  0  0
  -30.1780  -18.1310   21.6380 C   0  0  0  0  0  3  0  0  0  0  0  0
  -30.5990  -15.5370   20.2900 N   0  0  0  0  0  0  0  0  0  0  0  0
  -25.7620  -13.8960   20.4740 C   0  0  0  0  0  0  0  0  0  0  0  0
  -24.7340  -13.1150   20.9320 C   0  0  0  0  0  0  0  0  0  0  0  0
  -25.1390  -11.7630   20.7100 C   0  0  0  0  0  0  0  0  0  0  0  0
  -26.7280  -13.0190   20.0090 N   0  0  0  0  0  0  0  0  0  0  0  0
  -26.3650  -11.7250   20.2050 N   0  0  0  0  0  0  0  0  0  0  0  0
  -24.4070  -10.5030   20.8970 C   0  0  0  0  0  0  0  0  0  0  0  0
  -24.8480   -9.5200   21.8110 C   0  0  0  0  0  3  0  0  0  0  0  0
  -24.1170   -8.3250   21.9870 C   0  0  0  0  0  3  0  0  0  0  0  0
  -22.9300   -8.1050   21.2480 C   0  0  0  0  0  0  0  0  0  0  0  0
  -22.5080   -9.0760   20.3230 C   0  0  0  0  0  3  0  0  0  0  0  0
  -23.2390  -10.2620   20.1450 C   0  0  0  0  0  3  0  0  0  0  0  0
  -22.1690   -6.9630   21.3330 O   0  0  0  0  0  0  0  0  0  0  0  0
  -22.0040   -6.2960   22.5200 C   0  0  0  0  0  0  0  0  0  0  0  0
  -21.4840   -6.9320   23.6670 C   0  0  0  0  0  3  0  0  0  0  0  0
  -21.2650   -6.1910   24.8450 C   0  0  0  0  0  3  0  0  0  0  0  0
  -21.5570   -4.8140   24.8760 C   0  0  0  0  0  0  0  0  0  0  0  0
  -22.0710   -4.1770   23.7320 C   0  0  0  0  0  3  0  0  0  0  0  0
  -22.2900   -4.9160   22.5570 C   0  0  0  0  0  0  0  0  0  0  0  0
  -22.7650   -4.2930   21.4510 F   0  0  0  0  0  0  0  0  0  0  0  0
  -21.3410   -4.1000   26.0050 F   0  0  0  0  0  0  0  0  0  0  0  0
  -23.4130  -13.5930   21.4580 C   0  0  0  0  0  0  0  0  0  0  0  0
  -22.8260  -12.8600   22.4000 N   0  0  0  0  0  0  0  0  0  0  0  0
  -22.9140  -14.6480   21.0710 O   0  0  0  0  0  0  0  0  0  0  0  0
  -23.2450  -12.0040   22.7310 H   0  0  0  0  0  0  0  0  0  0  0  0
  -21.9470  -13.1610   22.7960 H   0  0  0  0  0  0  0  0  0  0  0  0
  -25.9480  -15.2730   20.3960 N   0  0  0  0  0  0  0  0  0  0  0  0
  -25.2350  -15.9350   20.6810 H   0  0  0  0  0  0  0  0  0  0  0  0
  -26.7680  -15.7160   20.0010 H   0  0  0  0  0  0  0  0  0  0  0  0
  -30.0000  -24.6980   20.4940 C   0  0  0  0  0  2  0  0  0  0  0  0
  -28.8410  -25.3730   19.7380 C   0  0  0  0  0  2  0  0  0  0  0  0
  -28.9830  -26.7950   19.6730 O   0  0  0  0  0  0  0  0  0  0  0  0
  -24.9180  -31.4910   23.1010 C   0  0  0  0  0  0  0  0  0  0  0  0
  -27.7880  -27.4820   19.6740 C   0  0  0  0  0  0  0  0  0  0  0  0
  -23.7930  -30.1960   21.3190 C   0  0  0  0  0  3  0  0  0  0  0  0
  -25.3290  -28.8680   19.7810 C   0  0  0  0  0  0  0  0  0  0  0  0
  -26.3020  -30.6860   21.1930 C   0  0  0  0  0  2  0  0  0  0  0  0
  -26.4560  -29.3870   20.4300 C   0  0  0  0  0  0  0  0  0  0  0  0
  -27.6900  -28.7050   20.3720 C   0  0  0  0  0  3  0  0  0  0  0  0
  -26.6450  -26.9790   19.0080 C   0  0  0  0  0  3  0  0  0  0  0  0
  -25.4180  -27.6610   19.0670 C   0  0  0  0  0  3  0  0  0  0  0  0
  -24.0470  -29.6580   19.8860 C   0  0  0  0  0  2  0  0  0  0  0  0
  -25.0210  -30.8000   21.9300 N   0  0  0  0  0  0  0  0  0  0  0  0
  -23.8200  -31.6670   23.6460 O   0  0  0  0  0  0  0  0  0  0  0  0
  -23.1790  -29.0620   22.1710 C   0  0  0  0  0  0  0  0  0  0  0  0
  -21.8600  -28.8550   22.0280 N   0  0  0  0  0  0  0  0  0  0  0  0
  -23.8850  -28.3760   22.9150 O   0  0  0  0  0  0  0  0  0  0  0  0
  -21.3510  -29.4650   21.4030 H   0  0  0  0  0  0  0  0  0  0  0  0
  -18.5180  -27.5460   22.4320 C   0  0  0  0  0  0  0  0  0  0  0  0
  -21.0730  -27.8220   22.7020 C   0  0  0  0  0  3  0  0  0  0  0  0
  -21.1950  -26.4660   21.9690 C   0  0  0  0  0  2  0  0  0  0  0  0
  -20.0850  -26.2340   20.9400 C   0  0  0  0  0  2  0  0  0  0  0  0
  -18.7100  -26.2800   21.6120 C   0  0  0  0  0  2  0  0  0  0  0  0
  -19.6270  -28.2770   22.9290 C   0  0  0  0  0  0  0  0  0  0  0  0
  -19.3940  -29.4650   23.6560 C   0  0  0  0  0  3  0  0  0  0  0  0
  -18.0830  -29.9210   23.8900 C   0  0  0  0  0  3  0  0  0  0  0  0
  -16.9870  -29.1840   23.4090 C   0  0  0  0  0  3  0  0  0  0  0  0
  -17.2060  -27.9970   22.6860 C   0  0  0  0  0  3  0  0  0  0  0  0
  -26.1680  -32.1160   23.7940 C   0  0  0  0  0  3  0  0  0  0  0  0
  -26.7170  -31.2460   24.9900 C   0  0  1  0  0  0  0  0  0  0  0  0
  -25.6300  -30.8380   26.0120 C   0  0  0  0  0  1  0  0  0  0  0  0
  -27.3790  -29.9510   24.4640 C   0  0  0  0  0  1  0  0  0  0  0  0
  -27.8170  -32.0270   25.7480 C   0  0  0  0  0  1  0  0  0  0  0  0
  -25.7930  -33.4590   24.2560 N   0  0  0  0  0  0  0  0  0  0  0  0
  -26.0730  -34.5940   23.6010 C   0  0  0  0  0  0  0  0  0  0  0  0
  -26.7470  -34.6220   22.5690 O   0  0  0  0  0  0  0  0  0  0  0  0
  -25.1940  -33.5070   25.0670 H   0  0  0  0  0  0  0  0  0  0  0  0
  -24.2450  -36.3100   23.4220 C   0  0  0  0  0  1  0  0  0  0  0  0
  -25.5160  -35.9060   24.1860 C   0  0  0  0  0  3  0  0  0  0  0  0
  -27.6050  -36.8320   25.0810 C   0  0  0  0  0  1  0  0  0  0  0  0
  -26.4870  -37.0200   24.1610 N   0  0  0  0  0  0  0  0  0  0  0  0
  -26.0320  -37.9000   24.3920 H   0  0  0  0  0  0  0  0  0  0  0  0
  1  3  1  0
  2  4  1  0
  2  5  1  0
  4  6  1  0
  5  1  1  0
  6  8  1  0
  6  3  1  0
  6  7  1  6
  9 22  1  0
 10 15  1  0
 11 12  1  0
 11 10  1  0
 13 12  1  0
 13 26  1  0
 13 14  1  0
 15  9  1  0
 15 14  1  0
 16  9  2  0
 17 21  1  0
 19 17  1  0
 19 22  1  0
 20 18  1  0
 21  8  1  0
 21 18  1  0
 22 20  1  0
 23 24  2  0
 24 43  1  0
 25 28  1  0
 25 24  1  0
 26 27  1  0
 26 23  1  0
 27 25  2  0
 28 29  1  0
 29 30  2  0
 31 34  1  0
 31 30  1  0
 32 31  2  0
 33 32  1  0
 33 28  2  0
 34 35  1  0
 35 40  2  0
 35 36  1  0
 36 37  2  0
 37 38  1  0
 38 42  1  0
 39 38  2  0
 40 39  1  0
 41 40  1  0
 43 44  1  0
 44 46  1  0
 44 47  1  0
 45 43  2  0
 48 23  1  0
 48 49  1  0
 50 48  1  0
 51  5  1  0
 52 51  1  0
 53 55  1  0
 53 52  1  0
 54 65  2  0
 55 60  1  0
 56 64  1  0
 56 66  1  0
 57 63  1  0
 57 59  1  0
 58 64  1  0
 59 58  1  0
 60 59  2  0
 61 62  1  0
 61 55  2  0
 62 57  2  0
 63 56  1  0
 64 54  1  0
 66 68  2  0
 67 66  1  0
 69 67  1  0
 70 79  2  0
 70 75  1  0
 71 67  1  0
 71 75  1  0
 72 71  1  0
 73 74  1  0
 73 72  1  0
 74 70  1  0
 75 76  2  0
 76 77  1  0
 78 77  2  0
 79 78  1  0
 80 54  1  0
 80 85  1  0
 80 81  1  0
 81 84  1  1
 81 82  1  0
 83 81  1  0
 85 88  1  0
 86 90  1  0
 86 85  1  0
 87 86  2  0
 90 89  1  0
 92 90  1  0
 92 93  1  0
 92 91  1  0
M  ISO  4   9 100  22 100  52 101  53 101
M  END
>  <TORSDO>  (64) 
F 19

>  <SCORE>  (64) 
-10.060

>  <name>  (64) 
64

>  <ligand_id>  (64) 
64

>  <original_smiles>  (64) 
[H]c1c([H])c([H])c2c(c1[H])C([H])([H])C([H])([H])C([H])([H])C2([H])N([H])C(=O)C1([H])N(C(=O)C([H])(N([H])C(=O)C([H])(N([H])C([H])([H])[H])C([H])([H])[H])C(C([H])([H])[H])(C([H])([H])[H])C([H])([H])[H])C([H])([H])c2c([H])c(OC([H])([H])C([H])([H])N3C([H])([H])C([H])([H])[N+]([H])(C([H])([H])C4([H])C([H])([H])C([H])([H])N(C(=O)N5C([H])([H])C([H])([H])C([H])([H])C([H])(n6nc(-c7c([H])c([H])c(Oc8c([H])c([H])c(F)c([H])c8F)c([H])c7[H])c(C(=O)N([H])[H])c6N([H])[H])C5([H])[H])C([H])([H])C4([H])[H])C([H])([H])C3([H])[H])c([H])c([H])c2C1([H])[H]

>  <smiles>  (64) 
[H]c1c([H])c([H])c2c(c1[H])C([H])([H])C([H])([H])C([H])([H])C2([H])N([H])C(=O)C1([H])N(C(=O)C([H])(N([H])C(=O)C([H])(N([H])C([H])([H])[H])C([H])([H])[H])C(C([H])([H])[H])(C([H])([H])[H])C([H])([H])[H])C([H])([H])c2c([H])c(OC([H])([H])C([H])([H])N3C([H])([H])C([H])([H])[N+]([H])(C([H])([H])C4([H])C([H])([H])C([H])([H])N(C(=O)N5C([H])([H])C([H])([H])C([H])([H])C([H])(n6nc(-c7c([H])c([H])c(Oc8c([H])c([H])c(F)c([H])c8F)c([H])c7[H])c(C(=O)N([H])[H])c6N([H])[H])C5([H])[H])C([H])([H])C4([H])[H])C([H])([H])C3([H])[H])c([H])c([H])c2C1([H])[H]

$$$$
65:0:0
     RDKit          3D

 91 99  0  0  1  0  0  0  0  0999 V2000
  -29.1850  -21.3540   19.8220 C   0  0  0  0  0  2  0  0  0  0  0  0
  -30.2100  -21.1200   21.9730 C   0  0  0  0  0  2  0  0  0  0  0  0
  -29.8320  -20.0170   19.3710 C   0  0  0  0  0  2  0  0  0  0  0  0
  -30.8590  -19.7850   21.5420 C   0  0  0  0  0  2  0  0  0  0  0  0
  -30.0210  -22.0340   20.8310 N   0  0  0  0  0  0  0  0  0  0  0  0
  -29.9880  -19.1180   20.5420 N   0  0  2  0  0  4  0  0  0  0  0  0
  -29.0670  -19.0780   20.9530 H   0  0  0  0  0  0  0  0  0  0  0  0
  -29.3670  -23.2400   21.3620 C   0  0  0  0  0  2  0  0  0  0  0  0
  -29.2900  -24.4370   20.3880 C   0  0  0  0  0  2  0  0  0  0  0  0
  -28.4350  -25.5800   20.9810 C   0  0  0  0  0  2  0  0  0  0  0  0
  -28.4410  -26.7450   20.1510 O   0  0  0  0  0  0  0  0  0  0  0  0
  -24.5990  -31.8880   23.2430 C   0  0  0  0  0  0  0  0  0  0  0  0
  -27.2680  -27.4640   20.1770 C   0  0  0  0  0  0  0  0  0  0  0  0
  -23.4000  -30.4810   21.5970 C   0  0  0  0  0  3  0  0  0  0  0  0
  -24.8620  -28.9420   20.1820 C   0  0  0  0  0  0  0  0  0  0  0  0
  -25.9190  -30.8540   21.4020 C   0  0  0  0  0  2  0  0  0  0  0  0
  -26.0150  -29.4790   20.7690 C   0  0  0  0  0  0  0  0  0  0  0  0
  -27.2240  -28.7480   20.7660 C   0  0  0  0  0  3  0  0  0  0  0  0
  -26.0970  -26.9260   19.6050 C   0  0  0  0  0  3  0  0  0  0  0  0
  -24.8930  -27.6570   19.6060 C   0  0  0  0  0  3  0  0  0  0  0  0
  -23.6130  -29.7940   20.2210 C   0  0  0  0  0  2  0  0  0  0  0  0
  -24.6570  -31.0890   22.1390 N   0  0  0  0  0  0  0  0  0  0  0  0
  -23.5170  -32.1530   23.7830 O   0  0  0  0  0  0  0  0  0  0  0  0
  -22.7520  -29.4590   22.5590 C   0  0  0  0  0  0  0  0  0  0  0  0
  -21.4270  -29.2780   22.4310 N   0  0  0  0  0  0  0  0  0  0  0  0
  -23.4360  -28.8330   23.3740 O   0  0  0  0  0  0  0  0  0  0  0  0
  -20.9360  -29.8430   21.7540 H   0  0  0  0  0  0  0  0  0  0  0  0
  -18.0560  -28.0650   22.9050 C   0  0  0  0  0  0  0  0  0  0  0  0
  -20.6090  -28.3380   23.1930 C   0  0  0  0  0  3  0  0  0  0  0  0
  -20.7220  -26.9030   22.6290 C   0  0  0  0  0  2  0  0  0  0  0  0
  -19.6310  -26.5680   21.6070 C   0  0  0  0  0  2  0  0  0  0  0  0
  -18.2430  -26.7120   22.2410 C   0  0  0  0  0  2  0  0  0  0  0  0
  -19.1680  -28.8350   23.3400 C   0  0  0  0  0  0  0  0  0  0  0  0
  -18.9420  -30.1000   23.9230 C   0  0  0  0  0  3  0  0  0  0  0  0
  -17.6350  -30.5990   24.0770 C   0  0  0  0  0  3  0  0  0  0  0  0
  -16.5370  -29.8250   23.6620 C   0  0  0  0  0  3  0  0  0  0  0  0
  -16.7470  -28.5620   23.0790 C   0  0  0  0  0  3  0  0  0  0  0  0
  -25.8840  -32.5250   23.8640 C   0  0  0  0  0  3  0  0  0  0  0  0
  -25.5690  -33.9210   24.1930 N   0  0  0  0  0  0  0  0  0  0  0  0
  -25.9050  -34.9730   23.4330 C   0  0  0  0  0  0  0  0  0  0  0  0
  -26.5810  -34.8670   22.4050 O   0  0  0  0  0  0  0  0  0  0  0  0
  -24.9700  -34.0720   24.9920 H   0  0  0  0  0  0  0  0  0  0  0  0
  -24.1790  -36.7610   23.0670 C   0  0  0  0  0  1  0  0  0  0  0  0
  -25.4160  -36.3590   23.8840 C   0  0  0  0  0  3  0  0  0  0  0  0
  -27.5490  -37.2470   24.7210 C   0  0  0  0  0  1  0  0  0  0  0  0
  -26.4500  -37.4140   23.7750 N   0  0  0  0  0  0  0  0  0  0  0  0
  -26.0410  -38.3330   23.9220 H   0  0  0  0  0  0  0  0  0  0  0  0
  -26.4060  -31.7540   25.1400 C   0  0  1  0  0  0  0  0  0  0  0  0
  -25.3180  -31.5090   26.2120 C   0  0  0  0  0  1  0  0  0  0  0  0
  -26.9980  -30.3810   24.7420 C   0  0  0  0  0  1  0  0  0  0  0  0
  -27.5550  -32.5490   25.8020 C   0  0  0  0  0  1  0  0  0  0  0  0
  -30.3230  -17.7020   20.2120 C   0  0  0  0  0  2  0  0  0  0  0  0
  -30.2440  -16.7710   21.4530 C   0  0  0  0  0  2  0  0  0  0  0  0
  -30.6630  -14.4440   20.4820 C   0  0  0  0  0  0  0  0  0  0  0  0
  -30.3700  -12.3100   19.2780 C   0  0  0  0  0  2  0  0  0  0  0  0
  -29.4190  -12.5300   18.0840 C   0  0  0  0  0  2  0  0  0  0  0  0
  -27.9440  -12.4020   18.5200 C   0  0  0  0  0  2  0  0  0  0  0  0
  -27.6160  -13.2320   19.7910 C   0  0  0  0  0  3  0  0  0  0  0  0
  -28.6710  -12.9560   20.8860 C   0  0  0  0  0  2  0  0  0  0  0  0
  -30.0000  -13.2690   20.3240 N   0  0  0  0  0  0  0  0  0  0  0  0
  -31.7570  -14.6990   19.9720 O   0  0  0  0  0  0  0  0  0  0  0  0
  -29.9590  -15.3660   21.1520 N   0  0  0  0  0  0  0  0  0  0  0  0
  -29.0670  -15.0280   21.4830 H   0  0  0  0  0  0  0  0  0  0  0  0
  -25.2130  -13.8620   20.4910 C   0  0  0  0  0  0  0  0  0  0  0  0
  -24.1410  -13.0970   20.8680 C   0  0  0  0  0  0  0  0  0  0  0  0
  -24.5980  -11.7430   20.8440 C   0  0  0  0  0  0  0  0  0  0  0  0
  -26.2560  -12.9730   20.2670 N   0  0  0  0  0  0  0  0  0  0  0  0
  -25.8860  -11.6950   20.5340 N   0  0  0  0  0  0  0  0  0  0  0  0
  -23.8680  -10.4840   21.0430 C   0  0  0  0  0  0  0  0  0  0  0  0
  -24.3070   -9.5110   21.9700 C   0  0  0  0  0  3  0  0  0  0  0  0
  -23.5780   -8.3170   22.1520 C   0  0  0  0  0  3  0  0  0  0  0  0
  -22.3950   -8.0860   21.4090 C   0  0  0  0  0  0  0  0  0  0  0  0
  -21.9750   -9.0470   20.4730 C   0  0  0  0  0  3  0  0  0  0  0  0
  -22.7070  -10.2330   20.2870 C   0  0  0  0  0  3  0  0  0  0  0  0
  -21.6370   -6.9440   21.5040 O   0  0  0  0  0  0  0  0  0  0  0  0
  -21.6100   -6.1910   22.6510 C   0  0  0  0  0  0  0  0  0  0  0  0
  -21.2270   -6.7410   23.8940 C   0  0  0  0  0  3  0  0  0  0  0  0
  -21.1440   -5.9150   25.0320 C   0  0  0  0  0  3  0  0  0  0  0  0
  -21.4360   -4.5420   24.9320 C   0  0  0  0  0  0  0  0  0  0  0  0
  -21.8150   -3.9930   23.6930 C   0  0  0  0  0  3  0  0  0  0  0  0
  -21.8980   -4.8150   22.5560 C   0  0  0  0  0  0  0  0  0  0  0  0
  -22.2420   -4.2750   21.3620 F   0  0  0  0  0  0  0  0  0  0  0  0
  -21.3500   -3.7470   26.0230 F   0  0  0  0  0  0  0  0  0  0  0  0
  -22.7450  -13.5810   21.1390 C   0  0  0  0  0  0  0  0  0  0  0  0
  -22.0140  -12.8890   22.0090 N   0  0  0  0  0  0  0  0  0  0  0  0
  -22.3080  -14.6060   20.6200 O   0  0  0  0  0  0  0  0  0  0  0  0
  -22.3720  -12.0520   22.4420 H   0  0  0  0  0  0  0  0  0  0  0  0
  -21.0810  -13.1990   22.2380 H   0  0  0  0  0  0  0  0  0  0  0  0
  -25.3860  -15.2290   20.3000 N   0  0  0  0  0  0  0  0  0  0  0  0
  -24.6310  -15.8970   20.4060 H   0  0  0  0  0  0  0  0  0  0  0  0
  -26.2340  -15.6470   19.9360 H   0  0  0  0  0  0  0  0  0  0  0  0
  1  5  1  0
  3  1  1  0
  3  6  1  0
  4  2  1  0
  5  8  1  0
  5  2  1  0
  6  7  1  1
  6  4  1  0
  9 10  1  0
  9  8  1  0
 11 13  1  0
 11 10  1  0
 12 23  2  0
 13 18  1  0
 14 22  1  0
 14 24  1  0
 15 21  1  0
 15 17  1  0
 16 22  1  0
 17 16  1  0
 18 17  2  0
 19 20  1  0
 19 13  2  0
 20 15  2  0
 21 14  1  0
 22 12  1  0
 24 26  2  0
 25 24  1  0
 27 25  1  0
 28 37  2  0
 28 33  1  0
 29 25  1  0
 29 33  1  0
 30 29  1  0
 31 32  1  0
 31 30  1  0
 32 28  1  0
 33 34  2  0
 34 35  1  0
 36 35  2  0
 37 36  1  0
 38 12  1  0
 38 39  1  0
 38 48  1  0
 39 42  1  0
 40 44  1  0
 40 39  1  0
 41 40  2  0
 44 43  1  0
 46 44  1  0
 46 47  1  0
 46 45  1  0
 48 51  1  1
 48 49  1  0
 50 48  1  0
 52  6  1  0
 52 53  1  0
 54 62  1  0
 55 60  1  0
 56 57  1  0
 56 55  1  0
 58 57  1  0
 58 67  1  0
 58 59  1  0
 60 54  1  0
 60 59  1  0
 61 54  2  0
 62 53  1  0
 62 63  1  0
 64 65  2  0
 65 84  1  0
 66 65  1  0
 66 69  1  0
 67 64  1  0
 67 68  1  0
 68 66  2  0
 69 70  1  0
 70 71  2  0
 72 75  1  0
 72 71  1  0
 73 72  2  0
 74 73  1  0
 74 69  2  0
 75 76  1  0
 76 77  1  0
 77 78  2  0
 79 78  1  0
 79 83  1  0
 80 79  2  0
 81 76  2  0
 81 80  1  0
 82 81  1  0
 84 85  1  0
 85 88  1  0
 85 87  1  0
 86 84  2  0
 89 90  1  0
 89 64  1  0
 91 89  1  0
M  ISO  4  10 101  11 101  54 100  62 100
M  END
>  <TORSDO>  (65) 
F 21

>  <SCORE>  (65) 
-13.625

>  <name>  (65) 
65

>  <ligand_id>  (65) 
65

>  <original_smiles>  (65) 
[H]c1c([H])c([H])c2c(c1[H])C([H])([H])C([H])([H])C([H])([H])C2([H])N([H])C(=O)C1([H])N(C(=O)C([H])(N([H])C(=O)C([H])(N([H])C([H])([H])[H])C([H])([H])[H])C(C([H])([H])[H])(C([H])([H])[H])C([H])([H])[H])C([H])([H])c2c([H])c(OC([H])([H])C([H])([H])C([H])([H])N3C([H])([H])C([H])([H])[N+]([H])(C([H])([H])C([H])([H])N([H])C(=O)N4C([H])([H])C([H])([H])C([H])([H])C([H])(n5nc(-c6c([H])c([H])c(Oc7c([H])c([H])c(F)c([H])c7F)c([H])c6[H])c(C(=O)N([H])[H])c5N([H])[H])C4([H])[H])C([H])([H])C3([H])[H])c([H])c([H])c2C1([H])[H]

>  <smiles>  (65) 
[H]c1c([H])c([H])c2c(c1[H])C([H])([H])C([H])([H])C([H])([H])C2([H])N([H])C(=O)C1([H])N(C(=O)C([H])(N([H])C(=O)C([H])(N([H])C([H])([H])[H])C([H])([H])[H])C(C([H])([H])[H])(C([H])([H])[H])C([H])([H])[H])C([H])([H])c2c([H])c(OC([H])([H])C([H])([H])C([H])([H])N3C([H])([H])C([H])([H])[N+]([H])(C([H])([H])C([H])([H])N([H])C(=O)N4C([H])([H])C([H])([H])C([H])([H])C([H])(n5nc(-c6c([H])c([H])c(Oc7c([H])c([H])c(F)c([H])c7F)c([H])c6[H])c(C(=O)N([H])[H])c5N([H])[H])C4([H])[H])C([H])([H])C3([H])[H])c([H])c([H])c2C1([H])[H]

$$$$
66:0:0
     RDKit          3D

 92100  0  0  1  0  0  0  0  0999 V2000
  -27.2100  -22.1120   20.5410 C   0  0  0  0  0  2  0  0  0  0  0  0
  -26.5230  -22.6340   19.2520 C   0  0  0  0  0  2  0  0  0  0  0  0
  -28.5720  -23.8360   18.4670 C   0  0  0  0  0  2  0  0  0  0  0  0
  -28.7210  -22.4580   20.6290 C   0  0  0  0  0  3  0  0  0  0  0  0
  -28.9340  -23.9120   19.9750 C   0  0  0  0  0  3  0  0  0  0  0  0
  -27.4900  -22.8660   18.1560 N   0  0  0  0  0  4  0  0  0  0  0  0
  -27.0050  -23.1670   17.3230 H   0  0  0  0  0  0  0  0  0  0  0  0
  -27.9140  -21.9800   17.9330 H   0  0  0  0  0  0  0  0  0  0  0  0
  -29.5660  -21.2300   20.0340 C   0  0  0  0  0  2  0  0  0  0  0  0
  -29.7700  -19.9040   20.9020 C   0  0  0  0  0  2  0  0  0  0  0  0
  -29.7050  -18.4630   20.2040 C   0  0  0  0  0  3  0  0  0  0  0  0
  -30.2690  -17.2140   21.0210 C   0  0  0  0  0  3  0  0  0  0  0  0
  -30.6270  -14.7090   20.4080 C   0  0  0  0  0  0  0  0  0  0  0  0
  -30.3940  -12.4780   19.3380 C   0  0  0  0  0  2  0  0  0  0  0  0
  -29.4450  -12.5670   18.1240 C   0  0  0  0  0  2  0  0  0  0  0  0
  -27.9760  -12.4110   18.5620 C   0  0  0  0  0  2  0  0  0  0  0  0
  -27.6120  -13.3000   19.7800 C   0  0  0  0  0  3  0  0  0  0  0  0
  -28.6700  -13.1870   20.8990 C   0  0  0  0  0  2  0  0  0  0  0  0
  -29.9740  -13.5100   20.3030 N   0  0  0  0  0  0  0  0  0  0  0  0
  -31.8230  -14.8120   20.1350 O   0  0  0  0  0  0  0  0  0  0  0  0
  -29.8530  -15.8200   20.6300 N   0  0  0  0  0  0  0  0  0  0  0  0
  -28.8610  -15.6380   20.6580 H   0  0  0  0  0  0  0  0  0  0  0  0
  -25.2180  -13.9110   20.4840 C   0  0  0  0  0  0  0  0  0  0  0  0
  -24.1460  -13.1420   20.8500 C   0  0  0  0  0  0  0  0  0  0  0  0
  -24.6050  -11.7910   20.8340 C   0  0  0  0  0  0  0  0  0  0  0  0
  -26.2610  -13.0260   20.2660 N   0  0  0  0  0  0  0  0  0  0  0  0
  -25.8990  -11.7460   20.5400 N   0  0  0  0  0  0  0  0  0  0  0  0
  -23.8730  -10.5310   21.0270 C   0  0  0  0  0  0  0  0  0  0  0  0
  -24.2980   -9.5710   21.9710 C   0  0  0  0  0  3  0  0  0  0  0  0
  -23.5710   -8.3760   22.1510 C   0  0  0  0  0  3  0  0  0  0  0  0
  -22.4040   -8.1310   21.3890 C   0  0  0  0  0  0  0  0  0  0  0  0
  -21.9980   -9.0820   20.4350 C   0  0  0  0  0  3  0  0  0  0  0  0
  -22.7260  -10.2700   20.2540 C   0  0  0  0  0  3  0  0  0  0  0  0
  -21.6480   -6.9880   21.4780 O   0  0  0  0  0  0  0  0  0  0  0  0
  -21.5930   -6.2490   22.6330 C   0  0  0  0  0  0  0  0  0  0  0  0
  -21.1610   -6.8090   23.8550 C   0  0  0  0  0  3  0  0  0  0  0  0
  -21.0560   -5.9990   25.0020 C   0  0  0  0  0  3  0  0  0  0  0  0
  -21.3700   -4.6290   24.9290 C   0  0  0  0  0  0  0  0  0  0  0  0
  -21.7930   -4.0680   23.7110 C   0  0  0  0  0  3  0  0  0  0  0  0
  -21.9030   -4.8750   22.5660 C   0  0  0  0  0  0  0  0  0  0  0  0
  -22.2930   -4.3270   21.3900 F   0  0  0  0  0  0  0  0  0  0  0  0
  -21.2600   -3.8470   26.0290 F   0  0  0  0  0  0  0  0  0  0  0  0
  -22.7480  -13.6260   21.1010 C   0  0  0  0  0  0  0  0  0  0  0  0
  -22.0080  -12.9360   21.9630 N   0  0  0  0  0  0  0  0  0  0  0  0
  -22.3190  -14.6480   20.5680 O   0  0  0  0  0  0  0  0  0  0  0  0
  -22.3690  -12.1100   22.4180 H   0  0  0  0  0  0  0  0  0  0  0  0
  -21.0680  -13.2380   22.1740 H   0  0  0  0  0  0  0  0  0  0  0  0
  -25.3860  -15.2790   20.2930 N   0  0  0  0  0  0  0  0  0  0  0  0
  -24.6110  -15.9280   20.3860 H   0  0  0  0  0  0  0  0  0  0  0  0
  -26.2250  -15.7130   19.9310 H   0  0  0  0  0  0  0  0  0  0  0  0
  -28.2170  -25.1570   20.7030 C   0  0  0  0  0  2  0  0  0  0  0  0
  -28.3770  -26.5420   20.1980 O   0  0  0  0  0  0  0  0  0  0  0  0
  -24.5930  -31.9060   23.2380 C   0  0  0  0  0  0  0  0  0  0  0  0
  -27.2450  -27.3690   20.1930 C   0  0  0  0  0  0  0  0  0  0  0  0
  -23.3960  -30.4920   21.6010 C   0  0  0  0  0  3  0  0  0  0  0  0
  -24.8610  -28.9460   20.1790 C   0  0  0  0  0  0  0  0  0  0  0  0
  -25.9290  -30.8270   21.4180 C   0  0  0  0  0  2  0  0  0  0  0  0
  -26.0210  -29.4470   20.7810 C   0  0  0  0  0  0  0  0  0  0  0  0
  -27.2170  -28.6680   20.7830 C   0  0  0  0  0  3  0  0  0  0  0  0
  -26.0670  -26.9200   19.5590 C   0  0  0  0  0  3  0  0  0  0  0  0
  -24.8870  -27.6890   19.5520 C   0  0  0  0  0  3  0  0  0  0  0  0
  -23.6120  -29.8030   20.2260 C   0  0  0  0  0  2  0  0  0  0  0  0
  -24.6570  -31.0930   22.1450 N   0  0  0  0  0  0  0  0  0  0  0  0
  -23.5080  -32.1830   23.7720 O   0  0  0  0  0  0  0  0  0  0  0  0
  -22.7390  -29.4780   22.5690 C   0  0  0  0  0  0  0  0  0  0  0  0
  -21.4150  -29.2910   22.4400 N   0  0  0  0  0  0  0  0  0  0  0  0
  -23.4200  -28.8620   23.3930 O   0  0  0  0  0  0  0  0  0  0  0  0
  -20.9290  -29.8390   21.7430 H   0  0  0  0  0  0  0  0  0  0  0  0
  -18.0460  -28.0750   22.9400 C   0  0  0  0  0  0  0  0  0  0  0  0
  -20.6020  -28.3530   23.2130 C   0  0  0  0  0  3  0  0  0  0  0  0
  -20.7150  -26.9210   22.6420 C   0  0  0  0  0  2  0  0  0  0  0  0
  -19.6170  -26.5850   21.6290 C   0  0  0  0  0  2  0  0  0  0  0  0
  -18.2320  -26.7240   22.2700 C   0  0  0  0  0  2  0  0  0  0  0  0
  -19.1590  -28.8460   23.3670 C   0  0  0  0  0  0  0  0  0  0  0  0
  -18.9300  -30.1110   23.9560 C   0  0  0  0  0  3  0  0  0  0  0  0
  -17.6220  -30.6050   24.1140 C   0  0  0  0  0  3  0  0  0  0  0  0
  -16.5230  -29.8310   23.7020 C   0  0  0  0  0  3  0  0  0  0  0  0
  -16.7360  -28.5670   23.1240 C   0  0  0  0  0  3  0  0  0  0  0  0
  -25.8730  -32.5440   23.8600 C   0  0  0  0  0  3  0  0  0  0  0  0
  -25.5610  -33.9430   24.1850 N   0  0  0  0  0  0  0  0  0  0  0  0
  -25.8870  -34.9930   23.4210 C   0  0  0  0  0  0  0  0  0  0  0  0
  -26.5560  -34.8890   22.3890 O   0  0  0  0  0  0  0  0  0  0  0  0
  -24.9670  -34.0970   24.9870 H   0  0  0  0  0  0  0  0  0  0  0  0
  -24.1520  -36.7810   23.0610 C   0  0  0  0  0  1  0  0  0  0  0  0
  -25.3950  -36.3820   23.8740 C   0  0  0  0  0  3  0  0  0  0  0  0
  -27.5260  -37.2770   24.7020 C   0  0  0  0  0  1  0  0  0  0  0  0
  -26.4250  -37.4370   23.7580 N   0  0  0  0  0  0  0  0  0  0  0  0
  -26.0160  -38.3570   23.9010 H   0  0  0  0  0  0  0  0  0  0  0  0
  -26.3940  -31.7820   25.1420 C   0  0  1  0  0  0  0  0  0  0  0  0
  -25.2980  -31.5460   26.2080 C   0  0  0  0  0  1  0  0  0  0  0  0
  -26.9880  -30.4070   24.7560 C   0  0  0  0  0  1  0  0  0  0  0  0
  -27.5400  -32.5880   25.7970 C   0  0  0  0  0  1  0  0  0  0  0  0
  1  4  1  0
  2  1  1  0
  3  5  1  0
  4  9  1  0
  5  4  1  0
  5 51  1  0
  6  3  1  0
  6  2  1  0
  7  6  1  0
  8  6  1  0
  9 10  1  0
 11 10  1  0
 11 12  2  0
 13 21  1  0
 14 19  1  0
 15 16  1  0
 15 14  1  0
 17 16  1  0
 17 26  1  0
 17 18  1  0
 19 13  1  0
 19 18  1  0
 20 13  2  0
 21 22  1  0
 21 12  1  0
 23 24  2  0
 24 43  1  0
 25 24  1  0
 25 28  1  0
 26 23  1  0
 26 27  1  0
 27 25  2  0
 28 29  1  0
 29 30  2  0
 31 34  1  0
 31 30  1  0
 32 31  2  0
 33 32  1  0
 33 28  2  0
 34 35  1  0
 35 36  1  0
 36 37  2  0
 38 37  1  0
 38 42  1  0
 39 38  2  0
 40 35  2  0
 40 39  1  0
 41 40  1  0
 43 44  1  0
 44 47  1  0
 44 46  1  0
 45 43  2  0
 48 49  1  0
 48 23  1  0
 50 48  1  0
 52 51  1  0
 53 64  2  0
 54 52  1  0
 54 59  1  0
 55 63  1  0
 55 65  1  0
 56 62  1  0
 56 58  1  0
 57 63  1  0
 58 59  2  0
 58 57  1  0
 60 54  2  0
 61 60  1  0
 61 56  2  0
 62 55  1  0
 63 53  1  0
 65 67  2  0
 66 65  1  0
 68 66  1  0
 69 78  2  0
 69 74  1  0
 70 66  1  0
 70 74  1  0
 71 70  1  0
 72 73  1  0
 72 71  1  0
 73 69  1  0
 74 75  2  0
 75 76  1  0
 77 76  2  0
 78 77  1  0
 79 53  1  0
 79 80  1  0
 79 89  1  0
 80 83  1  0
 81 85  1  0
 81 80  1  0
 82 81  2  0
 85 84  1  0
 87 85  1  0
 87 88  1  0
 87 86  1  0
 89 92  1  1
 89 90  1  0
 91 89  1  0
M  ISO  4  13 100  21 100  51 101  52 101
M  END
>  <TORSDO>  (66) 
F 21

>  <SCORE>  (66) 
-13.332

>  <name>  (66) 
66

>  <ligand_id>  (66) 
66

>  <original_smiles>  (66) 
[H]c1c([H])c([H])c2c(c1[H])C([H])([H])C([H])([H])C([H])([H])C2([H])N([H])C(=O)C1([H])N(C(=O)C([H])(N([H])C(=O)C([H])(N([H])C([H])([H])[H])C([H])([H])[H])C(C([H])([H])[H])(C([H])([H])[H])C([H])([H])[H])C([H])([H])c2c([H])c(OC([H])([H])C3([H])C([H])(C([H])([H])C([H])([H])C([H])([H])C([H])([H])N([H])C(=O)N4C([H])([H])C([H])([H])C([H])([H])C([H])(n5nc(-c6c([H])c([H])c(Oc7c([H])c([H])c(F)c([H])c7F)c([H])c6[H])c(C(=O)N([H])[H])c5N([H])[H])C4([H])[H])C([H])([H])C([H])([H])[N+]([H])([H])C3([H])[H])c([H])c([H])c2C1([H])[H]

>  <smiles>  (66) 
[H]c1c([H])c([H])c2c(c1[H])C([H])([H])C([H])([H])C([H])([H])C2([H])N([H])C(=O)C1([H])N(C(=O)C([H])(N([H])C(=O)C([H])(N([H])C([H])([H])[H])C([H])([H])[H])C(C([H])([H])[H])(C([H])([H])[H])C([H])([H])[H])C([H])([H])c2c([H])c(OC([H])([H])C3([H])C([H])(C([H])([H])C([H])([H])C([H])([H])C([H])([H])N([H])C(=O)N4C([H])([H])C([H])([H])C([H])([H])C([H])(n5nc(-c6c([H])c([H])c(Oc7c([H])c([H])c(F)c([H])c7F)c([H])c6[H])c(C(=O)N([H])[H])c5N([H])[H])C4([H])[H])C([H])([H])C([H])([H])[N+]([H])([H])C3([H])[H])c([H])c([H])c2C1([H])[H]

$$$$
67:0:0
     RDKit          3D

 89 97  0  0  1  0  0  0  0  0999 V2000
  -30.7340  -20.1060   20.5000 C   0  0  0  0  0  2  0  0  0  0  0  0
  -28.4000  -19.6020   20.7070 C   0  0  0  0  0  2  0  0  0  0  0  0
  -30.3860  -21.5610   19.9590 C   0  0  0  0  0  2  0  0  0  0  0  0
  -28.0470  -21.0990   20.1980 C   0  0  0  0  0  2  0  0  0  0  0  0
  -29.7380  -18.9250   20.1950 C   0  0  0  0  0  3  0  0  0  0  0  0
  -29.0890  -22.1800   20.4230 N   0  0  2  0  0  4  0  0  0  0  0  0
  -29.1790  -22.3000   21.4220 H   0  0  0  0  0  0  0  0  0  0  0  0
  -30.2930  -17.4790   20.8050 C   0  0  0  0  0  2  0  0  0  0  0  0
  -30.5440  -14.8690   20.2450 C   0  0  0  0  0  0  0  0  0  0  0  0
  -30.3380  -12.5850   19.2090 C   0  0  0  0  0  2  0  0  0  0  0  0
  -29.3800  -12.6320   17.9980 C   0  0  0  0  0  2  0  0  0  0  0  0
  -27.9170  -12.4490   18.4510 C   0  0  0  0  0  2  0  0  0  0  0  0
  -27.5600  -13.3300   19.6790 C   0  0  0  0  0  3  0  0  0  0  0  0
  -28.6380  -13.2570   20.7810 C   0  0  0  0  0  2  0  0  0  0  0  0
  -29.9080  -13.6450   20.1550 N   0  0  0  0  0  0  0  0  0  0  0  0
  -31.7380  -14.9350   19.9430 O   0  0  0  0  0  0  0  0  0  0  0  0
  -29.8030  -16.0400   20.4880 N   0  0  0  0  0  0  0  0  0  0  0  0
  -28.8120  -15.8860   20.6180 H   0  0  0  0  0  0  0  0  0  0  0  0
  -25.1880  -13.9140   20.4530 C   0  0  0  0  0  0  0  0  0  0  0  0
  -24.1310  -13.1390   20.8410 C   0  0  0  0  0  0  0  0  0  0  0  0
  -24.5960  -11.7880   20.8010 C   0  0  0  0  0  0  0  0  0  0  0  0
  -26.2280  -13.0360   20.1960 N   0  0  0  0  0  0  0  0  0  0  0  0
  -25.8810  -11.7520   20.4690 N   0  0  0  0  0  0  0  0  0  0  0  0
  -23.8720  -10.5250   20.9970 C   0  0  0  0  0  0  0  0  0  0  0  0
  -24.3160   -9.5560   21.9230 C   0  0  0  0  0  3  0  0  0  0  0  0
  -23.5920   -8.3590   22.1100 C   0  0  0  0  0  3  0  0  0  0  0  0
  -22.4070   -8.1260   21.3720 C   0  0  0  0  0  0  0  0  0  0  0  0
  -21.9830   -9.0820   20.4320 C   0  0  0  0  0  3  0  0  0  0  0  0
  -22.7090  -10.2700   20.2430 C   0  0  0  0  0  3  0  0  0  0  0  0
  -21.6500   -6.9840   21.4670 O   0  0  0  0  0  0  0  0  0  0  0  0
  -21.6130   -6.2380   22.6180 C   0  0  0  0  0  0  0  0  0  0  0  0
  -21.2070   -6.7910   23.8520 C   0  0  0  0  0  3  0  0  0  0  0  0
  -21.1200   -5.9720   24.9960 C   0  0  0  0  0  3  0  0  0  0  0  0
  -21.4280   -4.6020   24.9060 C   0  0  0  0  0  0  0  0  0  0  0  0
  -21.8270   -4.0480   23.6770 C   0  0  0  0  0  3  0  0  0  0  0  0
  -21.9170   -4.8640   22.5360 C   0  0  0  0  0  0  0  0  0  0  0  0
  -22.2830   -4.3220   21.3490 F   0  0  0  0  0  0  0  0  0  0  0  0
  -21.3360   -3.8140   26.0020 F   0  0  0  0  0  0  0  0  0  0  0  0
  -22.7360  -13.6160   21.1300 C   0  0  0  0  0  0  0  0  0  0  0  0
  -22.0160  -12.9210   22.0010 N   0  0  0  0  0  0  0  0  0  0  0  0
  -22.2950  -14.6440   20.6180 O   0  0  0  0  0  0  0  0  0  0  0  0
  -22.3880  -12.0940   22.4430 H   0  0  0  0  0  0  0  0  0  0  0  0
  -21.0810  -13.2260   22.2340 H   0  0  0  0  0  0  0  0  0  0  0  0
  -25.3420  -15.2860   20.2730 N   0  0  0  0  0  0  0  0  0  0  0  0
  -24.5640  -15.9250   20.4010 H   0  0  0  0  0  0  0  0  0  0  0  0
  -26.1660  -15.7360   19.8950 H   0  0  0  0  0  0  0  0  0  0  0  0
  -28.8450  -23.6150   19.8100 C   0  0  0  0  0  2  0  0  0  0  0  0
  -28.1520  -24.8720   20.6150 C   0  0  0  0  0  2  0  0  0  0  0  0
  -28.3230  -26.3390   20.2030 O   0  0  0  0  0  0  0  0  0  0  0  0
  -24.5560  -31.8480   23.1970 C   0  0  0  0  0  0  0  0  0  0  0  0
  -27.2220  -27.2400   20.1790 C   0  0  0  0  0  0  0  0  0  0  0  0
  -23.3860  -30.4450   21.5400 C   0  0  0  0  0  3  0  0  0  0  0  0
  -24.8640  -28.8980   20.1250 C   0  0  0  0  0  0  0  0  0  0  0  0
  -25.9280  -30.7640   21.3890 C   0  0  0  0  0  2  0  0  0  0  0  0
  -26.0270  -29.3790   20.7400 C   0  0  0  0  0  0  0  0  0  0  0  0
  -27.2130  -28.5650   20.7460 C   0  0  0  0  0  3  0  0  0  0  0  0
  -26.0370  -26.8360   19.5320 C   0  0  0  0  0  3  0  0  0  0  0  0
  -24.8760  -27.6370   19.5080 C   0  0  0  0  0  3  0  0  0  0  0  0
  -23.6240  -29.7760   20.1590 C   0  0  0  0  0  2  0  0  0  0  0  0
  -24.6420  -31.0380   22.0990 N   0  0  0  0  0  0  0  0  0  0  0  0
  -23.4630  -32.1150   23.7180 O   0  0  0  0  0  0  0  0  0  0  0  0
  -22.7170  -29.4200   22.4890 C   0  0  0  0  0  0  0  0  0  0  0  0
  -21.3950  -29.2280   22.3420 N   0  0  0  0  0  0  0  0  0  0  0  0
  -23.3890  -28.8030   23.3190 O   0  0  0  0  0  0  0  0  0  0  0  0
  -20.9100  -29.7810   21.6490 H   0  0  0  0  0  0  0  0  0  0  0  0
  -18.0310  -27.9650   22.7790 C   0  0  0  0  0  0  0  0  0  0  0  0
  -20.5770  -28.2790   23.1000 C   0  0  0  0  0  3  0  0  0  0  0  0
  -20.7190  -26.8450   22.5370 C   0  0  0  0  0  2  0  0  0  0  0  0
  -19.6450  -26.4930   21.5000 C   0  0  0  0  0  2  0  0  0  0  0  0
  -18.2480  -26.6150   22.1140 C   0  0  0  0  0  2  0  0  0  0  0  0
  -19.1250  -28.7510   23.2270 C   0  0  0  0  0  0  0  0  0  0  0  0
  -18.8660  -30.0120   23.8090 C   0  0  0  0  0  3  0  0  0  0  0  0
  -17.5470  -30.4850   23.9480 C   0  0  0  0  0  3  0  0  0  0  0  0
  -16.4690  -29.6950   23.5150 C   0  0  0  0  0  3  0  0  0  0  0  0
  -16.7110  -28.4370   22.9340 C   0  0  0  0  0  3  0  0  0  0  0  0
  -25.8240  -32.4920   23.8390 C   0  0  0  0  0  3  0  0  0  0  0  0
  -26.3290  -31.7280   25.1240 C   0  0  1  0  0  0  0  0  0  0  0  0
  -25.2230  -31.4840   26.1770 C   0  0  0  0  0  1  0  0  0  0  0  0
  -26.9280  -30.3540   24.7440 C   0  0  0  0  0  1  0  0  0  0  0  0
  -27.4660  -32.5290   25.7990 C   0  0  0  0  0  1  0  0  0  0  0  0
  -25.4980  -33.8890   24.1660 N   0  0  0  0  0  0  0  0  0  0  0  0
  -25.8350  -34.9460   23.4150 C   0  0  0  0  0  0  0  0  0  0  0  0
  -26.5210  -34.8500   22.3940 O   0  0  0  0  0  0  0  0  0  0  0  0
  -24.8930  -34.0410   24.9590 H   0  0  0  0  0  0  0  0  0  0  0  0
  -24.1060  -36.7330   23.0390 C   0  0  0  0  0  1  0  0  0  0  0  0
  -25.3330  -36.3310   23.8690 C   0  0  0  0  0  3  0  0  0  0  0  0
  -27.4480  -37.2230   24.7420 C   0  0  0  0  0  1  0  0  0  0  0  0
  -26.3630  -37.3890   23.7790 N   0  0  0  0  0  0  0  0  0  0  0  0
  -25.9480  -38.3070   23.9220 H   0  0  0  0  0  0  0  0  0  0  0  0
  3  6  1  0
  3  1  1  0
  4  6  1  0
  4  2  1  0
  5  1  1  0
  5  2  1  0
  5  8  1  0
  6  7  1  1
  9 17  1  0
 10 15  1  0
 11 12  1  0
 11 10  1  0
 13 12  1  0
 13 22  1  0
 13 14  1  0
 15  9  1  0
 15 14  1  0
 16  9  2  0
 17 18  1  0
 17  8  1  0
 19 20  2  0
 20 39  1  0
 21 20  1  0
 21 24  1  0
 22 19  1  0
 22 23  1  0
 23 21  2  0
 24 25  1  0
 25 26  2  0
 27 30  1  0
 27 26  1  0
 28 27  2  0
 29 28  1  0
 29 24  2  0
 30 31  1  0
 31 32  1  0
 32 33  2  0
 34 33  1  0
 34 38  1  0
 35 34  2  0
 36 31  2  0
 36 35  1  0
 37 36  1  0
 39 40  1  0
 40 43  1  0
 40 42  1  0
 41 39  2  0
 44 45  1  0
 44 19  1  0
 46 44  1  0
 47  6  1  0
 47 48  1  0
 49 48  1  0
 50 61  2  0
 51 49  1  0
 51 56  1  0
 52 60  1  0
 52 62  1  0
 53 59  1  0
 53 55  1  0
 54 60  1  0
 55 56  2  0
 55 54  1  0
 57 51  2  0
 58 57  1  0
 58 53  2  0
 59 52  1  0
 60 50  1  0
 62 64  2  0
 63 62  1  0
 65 63  1  0
 66 75  2  0
 66 71  1  0
 67 63  1  0
 67 71  1  0
 68 67  1  0
 69 70  1  0
 69 68  1  0
 70 66  1  0
 71 72  2  0
 72 73  1  0
 74 73  2  0
 75 74  1  0
 76 50  1  0
 76 81  1  0
 76 77  1  0
 77 80  1  1
 77 78  1  0
 79 77  1  0
 81 84  1  0
 82 86  1  0
 82 81  1  0
 83 82  2  0
 86 85  1  0
 88 86  1  0
 88 89  1  0
 88 87  1  0
M  ISO  4   9 100  17 100  48 101  49 101
M  END
>  <TORSDO>  (67) 
F 19

>  <SCORE>  (67) 
-14.022

>  <name>  (67) 
67

>  <ligand_id>  (67) 
67

>  <original_smiles>  (67) 
[H]c1c([H])c([H])c2c(c1[H])C([H])([H])C([H])([H])C([H])([H])C2([H])N([H])C(=O)C1([H])N(C(=O)C([H])(N([H])C(=O)C([H])(N([H])C([H])([H])[H])C([H])([H])[H])C(C([H])([H])[H])(C([H])([H])[H])C([H])([H])[H])C([H])([H])c2c([H])c(OC([H])([H])C([H])([H])[N+]3([H])C([H])([H])C([H])([H])C([H])(C([H])([H])N([H])C(=O)N4C([H])([H])C([H])([H])C([H])([H])C([H])(n5nc(-c6c([H])c([H])c(Oc7c([H])c([H])c(F)c([H])c7F)c([H])c6[H])c(C(=O)N([H])[H])c5N([H])[H])C4([H])[H])C([H])([H])C3([H])[H])c([H])c([H])c2C1([H])[H]

>  <smiles>  (67) 
[H]c1c([H])c([H])c2c(c1[H])C([H])([H])C([H])([H])C([H])([H])C2([H])N([H])C(=O)C1([H])N(C(=O)C([H])(N([H])C(=O)C([H])(N([H])C([H])([H])[H])C([H])([H])[H])C(C([H])([H])[H])(C([H])([H])[H])C([H])([H])[H])C([H])([H])c2c([H])c(OC([H])([H])C([H])([H])[N+]3([H])C([H])([H])C([H])([H])C([H])(C([H])([H])N([H])C(=O)N4C([H])([H])C([H])([H])C([H])([H])C([H])(n5nc(-c6c([H])c([H])c(Oc7c([H])c([H])c(F)c([H])c7F)c([H])c6[H])c(C(=O)N([H])[H])c5N([H])[H])C4([H])[H])C([H])([H])C3([H])[H])c([H])c([H])c2C1([H])[H]

$$$$
68:0:0
     RDKit          3D

 97105  0  0  1  0  0  0  0  0999 V2000
  -28.4200  -22.1950   20.1630 C   0  0  0  0  0  2  0  0  0  0  0  0
  -31.7620  -22.6800   20.3200 C   0  0  0  0  0  2  0  0  0  0  0  0
  -31.8800  -21.8460   19.0540 C   0  0  0  0  0  2  0  0  0  0  0  0
  -30.7500  -21.9240   21.1740 C   0  0  0  0  0  2  0  0  0  0  0  0
  -30.5220  -21.1650   18.8650 C   0  0  0  0  0  2  0  0  0  0  0  0
  -29.7440  -21.2320   20.2160 C   0  0  2  0  0  0  0  0  0  0  0  0
  -29.5320  -18.5220   20.2370 C   0  0  0  0  0  0  0  0  0  0  0  0
  -29.6090  -19.8000   20.7750 N   0  0  0  0  0  0  0  0  0  0  0  0
  -29.0920  -18.3170   19.1050 O   0  0  0  0  0  0  0  0  0  0  0  0
  -29.8520  -19.7610   21.7560 H   0  0  0  0  0  0  0  0  0  0  0  0
  -30.0840  -17.2730   21.0610 C   0  0  0  0  0  2  0  0  0  0  0  0
  -30.5240  -14.7470   20.4130 C   0  0  0  0  0  0  0  0  0  0  0  0
  -30.3340  -12.4990   19.3340 C   0  0  0  0  0  2  0  0  0  0  0  0
  -29.3810  -12.5950   18.1220 C   0  0  0  0  0  2  0  0  0  0  0  0
  -27.9140  -12.4150   18.5640 C   0  0  0  0  0  2  0  0  0  0  0  0
  -27.5540  -13.2790   19.8010 C   0  0  0  0  0  3  0  0  0  0  0  0
  -28.6200  -13.1530   20.9090 C   0  0  0  0  0  2  0  0  0  0  0  0
  -29.9080  -13.5230   20.3100 N   0  0  0  0  0  0  0  0  0  0  0  0
  -31.7090  -14.8790   20.0920 O   0  0  0  0  0  0  0  0  0  0  0  0
  -29.7300  -15.8330   20.7140 N   0  0  0  0  0  0  0  0  0  0  0  0
  -28.7510  -15.6150   20.8170 H   0  0  0  0  0  0  0  0  0  0  0  0
  -25.1710  -13.8690   20.5440 C   0  0  0  0  0  0  0  0  0  0  0  0
  -24.1090  -13.0930   20.9170 C   0  0  0  0  0  0  0  0  0  0  0  0
  -24.5720  -11.7410   20.8760 C   0  0  0  0  0  0  0  0  0  0  0  0
  -26.2130  -12.9900   20.2960 N   0  0  0  0  0  0  0  0  0  0  0  0
  -25.8600  -11.7060   20.5590 N   0  0  0  0  0  0  0  0  0  0  0  0
  -23.8480  -10.4770   21.0610 C   0  0  0  0  0  0  0  0  0  0  0  0
  -24.2840   -9.5070   21.9890 C   0  0  0  0  0  3  0  0  0  0  0  0
  -23.5610   -8.3060   22.1610 C   0  0  0  0  0  3  0  0  0  0  0  0
  -22.3880   -8.0700   21.4050 C   0  0  0  0  0  0  0  0  0  0  0  0
  -21.9730   -9.0300   20.4650 C   0  0  0  0  0  3  0  0  0  0  0  0
  -22.6960  -10.2210   20.2920 C   0  0  0  0  0  3  0  0  0  0  0  0
  -21.6360   -6.9230   21.4880 O   0  0  0  0  0  0  0  0  0  0  0  0
  -21.5870   -6.1760   22.6380 C   0  0  0  0  0  0  0  0  0  0  0  0
  -21.1430   -6.7210   23.8630 C   0  0  0  0  0  3  0  0  0  0  0  0
  -21.0420   -5.9000   25.0040 C   0  0  0  0  0  3  0  0  0  0  0  0
  -21.3750   -4.5340   24.9200 C   0  0  0  0  0  0  0  0  0  0  0  0
  -21.8110   -3.9890   23.7000 C   0  0  0  0  0  3  0  0  0  0  0  0
  -21.9140   -4.8080   22.5610 C   0  0  0  0  0  0  0  0  0  0  0  0
  -22.3150   -4.2710   21.3830 F   0  0  0  0  0  0  0  0  0  0  0  0
  -21.2710   -3.7420   26.0130 F   0  0  0  0  0  0  0  0  0  0  0  0
  -22.7120  -13.5680   21.1970 C   0  0  0  0  0  0  0  0  0  0  0  0
  -21.9840  -12.8630   22.0540 N   0  0  0  0  0  0  0  0  0  0  0  0
  -22.2740  -14.6000   20.6900 O   0  0  0  0  0  0  0  0  0  0  0  0
  -22.3460  -12.0250   22.4860 H   0  0  0  0  0  0  0  0  0  0  0  0
  -21.0490  -13.1660   22.2870 H   0  0  0  0  0  0  0  0  0  0  0  0
  -25.3340  -15.2400   20.3730 N   0  0  0  0  0  0  0  0  0  0  0  0
  -24.5620  -15.8900   20.4840 H   0  0  0  0  0  0  0  0  0  0  0  0
  -26.1610  -15.6770   19.9870 H   0  0  0  0  0  0  0  0  0  0  0  0
  -28.2870  -23.7620   19.6320 C   0  0  0  0  0  3  0  0  0  0  0  0
  -28.9890  -24.0420   18.2770 C   0  0  0  0  0  2  0  0  0  0  0  0
  -28.5360  -25.2840   17.6260 N   0  0  0  0  0  4  0  0  0  0  0  0
  -27.5780  -25.2070   17.3360 H   0  0  0  0  0  0  0  0  0  0  0  0
  -29.0940  -25.4690   16.8090 H   0  0  0  0  0  0  0  0  0  0  0  0
  -28.6320  -26.0600   18.2630 H   0  0  0  0  0  0  0  0  0  0  0  0
  -28.3550  -25.0350   20.6380 C   0  0  0  0  0  2  0  0  0  0  0  0
  -28.3530  -26.4690   20.1770 O   0  0  0  0  0  0  0  0  0  0  0  0
  -24.5900  -31.8890   23.2480 C   0  0  0  0  0  0  0  0  0  0  0  0
  -27.2090  -27.2930   20.2230 C   0  0  0  0  0  0  0  0  0  0  0  0
  -23.3880  -30.4780   21.6150 C   0  0  0  0  0  3  0  0  0  0  0  0
  -24.8400  -28.9110   20.2040 C   0  0  0  0  0  0  0  0  0  0  0  0
  -25.9260  -30.8010   21.4210 C   0  0  0  0  0  2  0  0  0  0  0  0
  -26.0120  -29.4130   20.7860 C   0  0  0  0  0  0  0  0  0  0  0  0
  -27.2020  -28.6200   20.7710 C   0  0  0  0  0  3  0  0  0  0  0  0
  -26.0080  -26.8390   19.6390 C   0  0  0  0  0  3  0  0  0  0  0  0
  -24.8410  -27.6330   19.6210 C   0  0  0  0  0  3  0  0  0  0  0  0
  -23.6040  -29.7890   20.2420 C   0  0  0  0  0  2  0  0  0  0  0  0
  -24.6540  -31.0740   22.1520 N   0  0  0  0  0  0  0  0  0  0  0  0
  -23.5070  -32.1650   23.7830 O   0  0  0  0  0  0  0  0  0  0  0  0
  -22.7270  -29.4680   22.5840 C   0  0  0  0  0  0  0  0  0  0  0  0
  -21.4020  -29.2850   22.4580 N   0  0  0  0  0  0  0  0  0  0  0  0
  -23.4070  -28.8520   23.4090 O   0  0  0  0  0  0  0  0  0  0  0  0
  -20.9120  -29.8350   21.7660 H   0  0  0  0  0  0  0  0  0  0  0  0
  -18.0310  -28.0650   22.9540 C   0  0  0  0  0  0  0  0  0  0  0  0
  -20.5860  -28.3470   23.2310 C   0  0  0  0  0  3  0  0  0  0  0  0
  -20.7000  -26.9100   22.6690 C   0  0  0  0  0  2  0  0  0  0  0  0
  -19.6040  -26.5720   21.6520 C   0  0  0  0  0  2  0  0  0  0  0  0
  -18.2200  -26.7110   22.2900 C   0  0  0  0  0  2  0  0  0  0  0  0
  -19.1420  -28.8390   23.3820 C   0  0  0  0  0  0  0  0  0  0  0  0
  -18.9110  -30.1050   23.9630 C   0  0  0  0  0  3  0  0  0  0  0  0
  -17.6010  -30.5970   24.1200 C   0  0  0  0  0  3  0  0  0  0  0  0
  -16.5040  -29.8200   23.7090 C   0  0  0  0  0  3  0  0  0  0  0  0
  -16.7210  -28.5550   23.1310 C   0  0  0  0  0  3  0  0  0  0  0  0
  -25.8710  -32.5290   23.8670 C   0  0  0  0  0  3  0  0  0  0  0  0
  -26.3840  -31.7700   25.1520 C   0  0  1  0  0  0  0  0  0  0  0  0
  -25.2900  -31.5450   26.2210 C   0  0  0  0  0  1  0  0  0  0  0  0
  -26.9670  -30.3880   24.7750 C   0  0  0  0  0  1  0  0  0  0  0  0
  -27.5350  -32.5710   25.8080 C   0  0  0  0  0  1  0  0  0  0  0  0
  -25.5610  -33.9300   24.1840 N   0  0  0  0  0  0  0  0  0  0  0  0
  -25.8980  -34.9780   23.4190 C   0  0  0  0  0  0  0  0  0  0  0  0
  -26.5720  -34.8650   22.3910 O   0  0  0  0  0  0  0  0  0  0  0  0
  -24.9640  -34.0920   24.9810 H   0  0  0  0  0  0  0  0  0  0  0  0
  -24.1850  -36.7790   23.0350 C   0  0  0  0  0  1  0  0  0  0  0  0
  -25.4120  -36.3710   23.8640 C   0  0  0  0  0  3  0  0  0  0  0  0
  -27.5380  -37.2510   24.7230 C   0  0  0  0  0  1  0  0  0  0  0  0
  -26.4520  -37.4180   23.7610 N   0  0  0  0  0  0  0  0  0  0  0  0
  -26.0490  -38.3410   23.8970 H   0  0  0  0  0  0  0  0  0  0  0  0
  6  1  1  6
  2  4  1  0
  3  2  1  0
  5  3  1  0
  5  6  1  0
  6  8  1  0
  6  4  1  0
  7  8  1  0
  7 11  1  0
  8 10  1  0
  9  7  2  0
 12 20  1  0
 13 18  1  0
 14 15  1  0
 14 13  1  0
 16 15  1  0
 16 25  1  0
 16 17  1  0
 18 12  1  0
 18 17  1  0
 19 12  2  0
 20 21  1  0
 20 11  1  0
 22 23  2  0
 23 42  1  0
 24 23  1  0
 24 27  1  0
 25 22  1  0
 25 26  1  0
 26 24  2  0
 27 28  1  0
 28 29  2  0
 30 33  1  0
 30 29  1  0
 31 30  2  0
 32 31  1  0
 32 27  2  0
 33 34  1  0
 34 35  1  0
 35 36  2  0
 37 36  1  0
 37 41  1  0
 38 37  2  0
 39 34  2  0
 39 38  1  0
 40 39  1  0
 42 43  1  0
 43 46  1  0
 43 45  1  0
 44 42  2  0
 47 48  1  0
 47 22  1  0
 49 47  1  0
 50 51  1  0
 50  1  1  0
 50 56  1  0
 52 55  1  0
 52 51  1  0
 53 52  1  0
 54 52  1  0
 57 59  1  0
 57 56  1  0
 58 69  2  0
 59 64  1  0
 60 68  1  0
 60 70  1  0
 61 67  1  0
 61 63  1  0
 62 68  1  0
 63 62  1  0
 64 63  2  0
 65 59  2  0
 66 65  1  0
 66 61  2  0
 67 60  1  0
 68 58  1  0
 70 72  2  0
 71 70  1  0
 73 71  1  0
 74 83  2  0
 74 79  1  0
 75 71  1  0
 75 79  1  0
 76 75  1  0
 77 78  1  0
 77 76  1  0
 78 74  1  0
 79 80  2  0
 80 81  1  0
 82 81  2  0
 83 82  1  0
 84 58  1  0
 84 89  1  0
 84 85  1  0
 85 88  1  1
 85 86  1  0
 87 85  1  0
 89 92  1  0
 90 94  1  0
 90 89  1  0
 91 90  2  0
 94 93  1  0
 96 94  1  0
 96 97  1  0
 96 95  1  0
M  ISO  4  12 100  20 100  56 101  57 101
M  END
>  <TORSDO>  (68) 
F 23

>  <SCORE>  (68) 
-13.158

>  <name>  (68) 
68

>  <ligand_id>  (68) 
68

>  <original_smiles>  (68) 
[H]c1c([H])c([H])c2c(c1[H])C([H])([H])C([H])([H])C([H])([H])C2([H])N([H])C(=O)C1([H])N(C(=O)C([H])(N([H])C(=O)C([H])(N([H])C([H])([H])[H])C([H])([H])[H])C(C([H])([H])[H])(C([H])([H])[H])C([H])([H])[H])C([H])([H])c2c([H])c(OC([H])([H])C([H])(C([H])([H])C3(N([H])C(=O)C([H])([H])N([H])C(=O)N4C([H])([H])C([H])([H])C([H])([H])C([H])(n5nc(-c6c([H])c([H])c(Oc7c([H])c([H])c(F)c([H])c7F)c([H])c6[H])c(C(=O)N([H])[H])c5N([H])[H])C4([H])[H])C([H])([H])C([H])([H])C([H])([H])C3([H])[H])C([H])([H])[N+]([H])([H])[H])c([H])c([H])c2C1([H])[H]

>  <smiles>  (68) 
[H]c1c([H])c([H])c2c(c1[H])C([H])([H])C([H])([H])C([H])([H])C2([H])N([H])C(=O)C1([H])N(C(=O)C([H])(N([H])C(=O)C([H])(N([H])C([H])([H])[H])C([H])([H])[H])C(C([H])([H])[H])(C([H])([H])[H])C([H])([H])[H])C([H])([H])c2c([H])c(OC([H])([H])C([H])(C([H])([H])C3(N([H])C(=O)C([H])([H])N([H])C(=O)N4C([H])([H])C([H])([H])C([H])([H])C([H])(n5nc(-c6c([H])c([H])c(Oc7c([H])c([H])c(F)c([H])c7F)c([H])c6[H])c(C(=O)N([H])[H])c5N([H])[H])C4([H])[H])C([H])([H])C([H])([H])C([H])([H])C3([H])[H])C([H])([H])[N+]([H])([H])[H])c([H])c([H])c2C1([H])[H]

$$$$
69:0:0
     RDKit          3D

106115  0  0  1  0  0  0  0  0999 V2000
  -30.4160  -19.8910   19.7190 C   0  0  0  0  0  2  0  0  0  0  0  0
  -29.6860  -21.1490   20.2980 C   0  0  1  0  0  0  0  0  0  0  0  0
  -29.0180  -21.7570   19.3210 F   0  0  0  0  0  0  0  0  0  0  0  0
  -28.7920  -20.7440   21.2030 F   0  0  0  0  0  0  0  0  0  0  0  0
  -29.4860  -24.4550   20.6200 C   0  0  0  0  0  0  0  0  0  0  0  0
  -30.3790  -22.1120   23.3590 C   0  0  0  0  0  2  0  0  0  0  0  0
  -31.3210  -21.7400   22.2220 C   0  0  0  0  0  2  0  0  0  0  0  0
  -29.6540  -23.3620   22.8550 C   0  0  0  0  0  2  0  0  0  0  0  0
  -30.6110  -22.2260   20.9480 C   0  0  0  0  0  3  0  0  0  0  0  0
  -29.8350  -23.4000   21.4010 N   0  0  0  0  0  0  0  0  0  0  0  0
  -29.9080  -24.5810   19.4640 O   0  0  0  0  0  0  0  0  0  0  0  0
  -28.4900  -25.5030   21.1690 C   0  0  0  0  0  2  0  0  0  0  0  0
  -28.4920  -26.6870   20.3590 O   0  0  0  0  0  0  0  0  0  0  0  0
  -24.6260  -31.9290   23.2640 C   0  0  0  0  0  0  0  0  0  0  0  0
  -27.3190  -27.4040   20.3670 C   0  0  0  0  0  0  0  0  0  0  0  0
  -23.4490  -30.4910   21.6310 C   0  0  0  0  0  3  0  0  0  0  0  0
  -24.9250  -28.9010   20.2880 C   0  0  0  0  0  0  0  0  0  0  0  0
  -25.9770  -30.8340   21.4780 C   0  0  0  0  0  2  0  0  0  0  0  0
  -26.0710  -29.4430   20.8840 C   0  0  0  0  0  0  0  0  0  0  0  0
  -27.2720  -28.7010   20.9220 C   0  0  0  0  0  3  0  0  0  0  0  0
  -26.1580  -26.8660   19.7720 C   0  0  0  0  0  3  0  0  0  0  0  0
  -24.9610  -27.6080   19.7320 C   0  0  0  0  0  3  0  0  0  0  0  0
  -23.6850  -29.7670   20.2770 C   0  0  0  0  0  2  0  0  0  0  0  0
  -24.7010  -31.1010   22.1830 N   0  0  0  0  0  0  0  0  0  0  0  0
  -23.5350  -32.2220   23.7720 O   0  0  0  0  0  0  0  0  0  0  0  0
  -22.7660  -29.5040   22.6040 C   0  0  0  0  0  0  0  0  0  0  0  0
  -21.4410  -29.3440   22.4640 N   0  0  0  0  0  0  0  0  0  0  0  0
  -23.4290  -28.8810   23.4380 O   0  0  0  0  0  0  0  0  0  0  0  0
  -20.9700  -29.8970   21.7600 H   0  0  0  0  0  0  0  0  0  0  0  0
  -18.0320  -28.2560   22.9680 C   0  0  0  0  0  0  0  0  0  0  0  0
  -20.5970  -28.4370   23.2400 C   0  0  0  0  0  3  0  0  0  0  0  0
  -20.6560  -26.9990   22.6710 C   0  0  0  0  0  2  0  0  0  0  0  0
  -19.5430  -26.7050   21.6600 C   0  0  0  0  0  2  0  0  0  0  0  0
  -18.1680  -26.8970   22.3030 C   0  0  0  0  0  2  0  0  0  0  0  0
  -19.1740  -28.9850   23.3940 C   0  0  0  0  0  0  0  0  0  0  0  0
  -18.9930  -30.2600   23.9750 C   0  0  0  0  0  3  0  0  0  0  0  0
  -17.7050  -30.8020   24.1350 C   0  0  0  0  0  3  0  0  0  0  0  0
  -16.5780  -30.0690   23.7270 C   0  0  0  0  0  3  0  0  0  0  0  0
  -16.7430  -28.7980   23.1480 C   0  0  0  0  0  3  0  0  0  0  0  0
  -25.9030  -32.5660   23.8980 C   0  0  0  0  0  3  0  0  0  0  0  0
  -26.4050  -31.8050   25.1850 C   0  0  1  0  0  0  0  0  0  0  0  0
  -25.2960  -31.5630   26.2360 C   0  0  0  0  0  1  0  0  0  0  0  0
  -27.0040  -30.4310   24.8060 C   0  0  0  0  0  1  0  0  0  0  0  0
  -27.5390  -32.6100   25.8620 C   0  0  0  0  0  1  0  0  0  0  0  0
  -25.5900  -33.9660   24.2110 N   0  0  0  0  0  0  0  0  0  0  0  0
  -25.9320  -35.0110   23.4430 C   0  0  0  0  0  0  0  0  0  0  0  0
  -26.6140  -34.8970   22.4220 O   0  0  0  0  0  0  0  0  0  0  0  0
  -24.9820  -34.1280   25.0000 H   0  0  0  0  0  0  0  0  0  0  0  0
  -24.2050  -36.7970   23.0500 C   0  0  0  0  0  1  0  0  0  0  0  0
  -25.4370  -36.4020   23.8800 C   0  0  0  0  0  3  0  0  0  0  0  0
  -27.5640  -37.2950   24.7210 C   0  0  0  0  0  1  0  0  0  0  0  0
  -26.4690  -37.4550   23.7670 N   0  0  0  0  0  0  0  0  0  0  0  0
  -26.0610  -38.3760   23.9050 H   0  0  0  0  0  0  0  0  0  0  0  0
  -29.4550  -18.8770   19.2370 N   0  0  0  0  0  0  0  0  0  0  0  0
  -29.0630  -19.1610   17.8480 C   0  0  0  0  0  2  0  0  0  0  0  0
  -24.9590  -20.5790   17.0190 C   0  0  0  0  0  2  0  0  0  0  0  0
  -25.3210  -20.2100   18.4650 C   0  0  0  0  0  2  0  0  0  0  0  0
  -25.6330  -19.6200   16.0260 C   0  0  0  0  0  2  0  0  0  0  0  0
  -26.8450  -20.1540   18.6690 C   0  0  0  0  0  2  0  0  0  0  0  0
  -27.1560  -19.5710   16.2350 C   0  0  0  0  0  2  0  0  0  0  0  0
  -27.5270  -19.1830   17.6800 C   0  0  0  0  0  3  0  0  0  0  0  0
  -29.9230  -17.4820   19.3120 C   0  0  0  0  0  2  0  0  0  0  0  0
  -30.5240  -17.0140   20.6730 C   0  0  0  0  0  3  0  0  0  0  0  0
  -31.0320  -14.5710   20.2410 C   0  0  0  0  0  0  0  0  0  0  0  0
  -30.7150  -12.3700   19.1710 C   0  0  0  0  0  2  0  0  0  0  0  0
  -29.7490  -12.5340   17.9790 C   0  0  0  0  0  2  0  0  0  0  0  0
  -28.2800  -12.4290   18.4390 C   0  0  0  0  0  2  0  0  0  0  0  0
  -27.9740  -13.3220   19.6700 C   0  0  0  0  0  3  0  0  0  0  0  0
  -29.0440  -13.1170   20.7670 C   0  0  0  0  0  2  0  0  0  0  0  0
  -30.3670  -13.3870   20.1720 N   0  0  0  0  0  0  0  0  0  0  0  0
  -32.1250  -14.7760   19.7030 O   0  0  0  0  0  0  0  0  0  0  0  0
  -30.3280  -15.5600   20.8130 N   0  0  0  0  0  0  0  0  0  0  0  0
  -29.4360  -15.2600   21.1740 H   0  0  0  0  0  0  0  0  0  0  0  0
  -25.6180  -14.0020   20.4590 C   0  0  0  0  0  0  0  0  0  0  0  0
  -24.5340  -13.2600   20.8450 C   0  0  0  0  0  0  0  0  0  0  0  0
  -24.9490  -11.8940   20.7850 C   0  0  0  0  0  0  0  0  0  0  0  0
  -26.6240  -13.0890   20.1820 N   0  0  0  0  0  0  0  0  0  0  0  0
  -26.2270  -11.8160   20.4360 N   0  0  0  0  0  0  0  0  0  0  0  0
  -24.1860  -10.6550   20.9820 C   0  0  0  0  0  0  0  0  0  0  0  0
  -24.6030   -9.6730   21.9070 C   0  0  0  0  0  3  0  0  0  0  0  0
  -23.8460   -8.4970   22.0910 C   0  0  0  0  0  3  0  0  0  0  0  0
  -22.6580   -8.2940   21.3470 C   0  0  0  0  0  0  0  0  0  0  0  0
  -22.2590   -9.2670   20.4130 C   0  0  0  0  0  3  0  0  0  0  0  0
  -23.0160  -10.4360   20.2280 C   0  0  0  0  0  3  0  0  0  0  0  0
  -21.8720   -7.1720   21.4400 O   0  0  0  0  0  0  0  0  0  0  0  0
  -21.8010   -6.4350   22.5950 C   0  0  0  0  0  0  0  0  0  0  0  0
  -21.4050   -7.0090   23.8220 C   0  0  0  0  0  3  0  0  0  0  0  0
  -21.2790   -6.2020   24.9700 C   0  0  0  0  0  3  0  0  0  0  0  0
  -21.5390   -4.8210   24.8920 C   0  0  0  0  0  0  0  0  0  0  0  0
  -21.9280   -4.2440   23.6700 C   0  0  0  0  0  3  0  0  0  0  0  0
  -22.0540   -5.0500   22.5240 C   0  0  0  0  0  0  0  0  0  0  0  0
  -22.4100   -4.4860   21.3450 F   0  0  0  0  0  0  0  0  0  0  0  0
  -21.4100   -4.0430   25.9930 F   0  0  0  0  0  0  0  0  0  0  0  0
  -23.1630  -13.7820   21.1640 C   0  0  0  0  0  0  0  0  0  0  0  0
  -22.4400  -13.1080   22.0520 N   0  0  0  0  0  0  0  0  0  0  0  0
  -22.7420  -14.8230   20.6620 O   0  0  0  0  0  0  0  0  0  0  0  0
  -22.7900  -12.2620   22.4770 H   0  0  0  0  0  0  0  0  0  0  0  0
  -21.5220  -13.4440   22.3060 H   0  0  0  0  0  0  0  0  0  0  0  0
  -25.8280  -15.3690   20.3030 N   0  0  0  0  0  0  0  0  0  0  0  0
  -25.0790  -16.0410   20.4270 H   0  0  0  0  0  0  0  0  0  0  0  0
  -26.6810  -15.7850   19.9550 H   0  0  0  0  0  0  0  0  0  0  0  0
  -29.9250  -17.7310   21.9060 C   0  0  0  0  0  2  0  0  0  0  0  0
  -30.5580  -17.3070   23.1680 N   0  0  0  0  0  4  0  0  0  0  0  0
  -30.4500  -16.3210   23.3120 H   0  0  0  0  0  0  0  0  0  0  0  0
  -30.1340  -17.7890   23.9430 H   0  0  0  0  0  0  0  0  0  0  0  0
  -31.5370  -17.5270   23.1620 H   0  0  0  0  0  0  0  0  0  0  0  0
  1  2  1  0
  2  4  1  1
  3  2  1  0
  5 12  1  0
  5 10  1  0
  7  6  1  0
  8  6  1  0
  9  2  1  0
  9 10  1  0
  9  7  1  0
 10  8  1  0
 11  5  2  0
 13 15  1  0
 13 12  1  0
 14 25  2  0
 15 20  1  0
 16 24  1  0
 16 26  1  0
 17 19  1  0
 18 24  1  0
 19 20  2  0
 19 18  1  0
 21 15  2  0
 22 21  1  0
 22 17  2  0
 23 17  1  0
 23 16  1  0
 24 14  1  0
 26 28  2  0
 27 26  1  0
 29 27  1  0
 30 39  2  0
 30 35  1  0
 31 27  1  0
 31 35  1  0
 32 31  1  0
 33 34  1  0
 33 32  1  0
 34 30  1  0
 35 36  2  0
 36 37  1  0
 38 37  2  0
 39 38  1  0
 40 14  1  0
 40 45  1  0
 40 41  1  0
 41 44  1  1
 41 42  1  0
 43 41  1  0
 45 48  1  0
 46 50  1  0
 46 45  1  0
 47 46  2  0
 50 49  1  0
 52 50  1  0
 52 53  1  0
 52 51  1  0
 54 62  1  0
 54  1  1  0
 55 54  1  0
 56 57  1  0
 57 59  1  0
 58 60  1  0
 58 56  1  0
 60 61  1  0
 61 55  1  0
 61 59  1  0
 63 62  1  0
 63 72  1  0
 63102  1  0
 64 72  1  0
 65 70  1  0
 66 67  1  0
 66 65  1  0
 68 67  1  0
 68 77  1  0
 68 69  1  0
 70 64  1  0
 70 69  1  0
 71 64  2  0
 72 73  1  0
 74 75  2  0
 75 94  1  0
 76 75  1  0
 76 79  1  0
 77 78  1  0
 77 74  1  0
 78 76  2  0
 79 80  1  0
 80 81  2  0
 82 85  1  0
 82 81  1  0
 83 82  2  0
 84 83  1  0
 84 79  2  0
 85 86  1  0
 86 87  1  0
 87 88  2  0
 89 88  1  0
 89 93  1  0
 90 89  2  0
 91 86  2  0
 91 90  1  0
 92 91  1  0
 94 95  1  0
 95 98  1  0
 95 97  1  0
 96 94  2  0
 99100  1  0
 99 74  1  0
101 99  1  0
102103  1  0
103104  1  0
103105  1  0
106103  1  0
M  ISO  4  12 101  13 101  64 100  72 100
M  END
>  <TORSDO>  (69) 
F 26

>  <SCORE>  (69) 
-11.191

>  <name>  (69) 
69

>  <ligand_id>  (69) 
69

>  <original_smiles>  (69) 
[H]c1c([H])c([H])c2c(c1[H])C([H])([H])C([H])([H])C([H])([H])C2([H])N([H])C(=O)C1([H])N(C(=O)C([H])(N([H])C(=O)C([H])(N([H])C([H])([H])[H])C([H])([H])[H])C(C([H])([H])[H])(C([H])([H])[H])C([H])([H])[H])C([H])([H])c2c([H])c(OC([H])([H])C(=O)N3C([H])([H])C([H])([H])C([H])([H])C3([H])C(F)(F)C([H])([H])N(C([H])([H])C([H])(N([H])C(=O)N3C([H])([H])C([H])([H])C([H])([H])C([H])(n4nc(-c5c([H])c([H])c(Oc6c([H])c([H])c(F)c([H])c6F)c([H])c5[H])c(C(=O)N([H])[H])c4N([H])[H])C3([H])[H])C([H])([H])[N+]([H])([H])[H])C([H])([H])C3([H])C([H])([H])C([H])([H])C([H])([H])C([H])([H])C3([H])[H])c([H])c([H])c2C1([H])[H]

>  <smiles>  (69) 
[H]c1c([H])c([H])c2c(c1[H])C([H])([H])C([H])([H])C([H])([H])C2([H])N([H])C(=O)C1([H])N(C(=O)C([H])(N([H])C(=O)C([H])(N([H])C([H])([H])[H])C([H])([H])[H])C(C([H])([H])[H])(C([H])([H])[H])C([H])([H])[H])C([H])([H])c2c([H])c(OC([H])([H])C(=O)N3C([H])([H])C([H])([H])C([H])([H])C3([H])C(F)(F)C([H])([H])N(C([H])([H])C([H])(N([H])C(=O)N3C([H])([H])C([H])([H])C([H])([H])C([H])(n4nc(-c5c([H])c([H])c(Oc6c([H])c([H])c(F)c([H])c6F)c([H])c5[H])c(C(=O)N([H])[H])c4N([H])[H])C3([H])[H])C([H])([H])[N+]([H])([H])[H])C([H])([H])C3([H])C([H])([H])C([H])([H])C([H])([H])C([H])([H])C3([H])[H])c([H])c([H])c2C1([H])[H]

$$$$
70:0:0
     RDKit          3D

113121  0  0  1  0  0  0  0  0999 V2000
  -30.8400  -23.9530   19.8700 C   0  0  0  0  0  2  0  0  0  0  0  0
  -30.9000  -25.4200   19.7000 N   0  0  0  0  0  0  0  0  0  0  0  0
  -30.6630  -26.1490   20.9670 C   0  0  0  0  0  2  0  0  0  0  0  0
  -29.1920  -26.4250   21.3360 C   0  0  0  0  0  2  0  0  0  0  0  0
  -28.5540  -26.8780   20.1520 O   0  0  0  0  0  0  0  0  0  0  0  0
  -24.6220  -31.9490   23.2880 C   0  0  0  0  0  0  0  0  0  0  0  0
  -27.3720  -27.5530   20.2770 C   0  0  0  0  0  0  0  0  0  0  0  0
  -23.4530  -30.5160   21.6430 C   0  0  0  0  0  3  0  0  0  0  0  0
  -24.9450  -28.9830   20.2570 C   0  0  0  0  0  0  0  0  0  0  0  0
  -25.9700  -30.9160   21.4700 C   0  0  0  0  0  2  0  0  0  0  0  0
  -26.0820  -29.5370   20.8600 C   0  0  0  0  0  0  0  0  0  0  0  0
  -27.2990  -28.8250   20.8810 C   0  0  0  0  0  3  0  0  0  0  0  0
  -26.2250  -27.0030   19.6710 C   0  0  0  0  0  3  0  0  0  0  0  0
  -25.0060  -27.7080   19.6670 C   0  0  0  0  0  3  0  0  0  0  0  0
  -23.6880  -29.8220   20.2740 C   0  0  0  0  0  2  0  0  0  0  0  0
  -24.6990  -31.1420   22.1920 N   0  0  0  0  0  0  0  0  0  0  0  0
  -23.5330  -32.2100   23.8150 O   0  0  0  0  0  0  0  0  0  0  0  0
  -22.8070  -29.4940   22.6030 C   0  0  0  0  0  0  0  0  0  0  0  0
  -21.4860  -29.2970   22.4630 N   0  0  0  0  0  0  0  0  0  0  0  0
  -23.4890  -28.8820   23.4290 O   0  0  0  0  0  0  0  0  0  0  0  0
  -20.9990  -29.8410   21.7650 H   0  0  0  0  0  0  0  0  0  0  0  0
  -18.1160  -28.0950   22.9500 C   0  0  0  0  0  0  0  0  0  0  0  0
  -20.6720  -28.3560   23.2310 C   0  0  0  0  0  3  0  0  0  0  0  0
  -20.7800  -26.9270   22.6510 C   0  0  0  0  0  2  0  0  0  0  0  0
  -19.6820  -26.6030   21.6340 C   0  0  0  0  0  2  0  0  0  0  0  0
  -18.2980  -26.7460   22.2740 C   0  0  0  0  0  2  0  0  0  0  0  0
  -19.2330  -28.8580   23.3840 C   0  0  0  0  0  0  0  0  0  0  0  0
  -19.0100  -30.1210   23.9750 C   0  0  0  0  0  3  0  0  0  0  0  0
  -17.7050  -30.6210   24.1370 C   0  0  0  0  0  3  0  0  0  0  0  0
  -16.6030  -29.8530   23.7210 C   0  0  0  0  0  3  0  0  0  0  0  0
  -16.8090  -28.5920   23.1330 C   0  0  0  0  0  3  0  0  0  0  0  0
  -25.8960  -32.5980   23.9160 C   0  0  0  0  0  3  0  0  0  0  0  0
  -26.4090  -31.8450   25.2050 C   0  0  1  0  0  0  0  0  0  0  0  0
  -25.3080  -31.6020   26.2620 C   0  0  0  0  0  1  0  0  0  0  0  0
  -27.0170  -30.4720   24.8320 C   0  0  0  0  0  1  0  0  0  0  0  0
  -27.5420  -32.6600   25.8710 C   0  0  0  0  0  1  0  0  0  0  0  0
  -25.5710  -33.9970   24.2240 N   0  0  0  0  0  0  0  0  0  0  0  0
  -25.9100  -35.0410   23.4560 C   0  0  0  0  0  0  0  0  0  0  0  0
  -26.6000  -34.9300   22.4390 O   0  0  0  0  0  0  0  0  0  0  0  0
  -24.9560  -34.1580   25.0080 H   0  0  0  0  0  0  0  0  0  0  0  0
  -24.1720  -36.8120   23.0440 C   0  0  0  0  0  1  0  0  0  0  0  0
  -25.4010  -36.4310   23.8830 C   0  0  0  0  0  3  0  0  0  0  0  0
  -27.5100  -37.3450   24.7450 C   0  0  0  0  0  1  0  0  0  0  0  0
  -26.4270  -37.4920   23.7770 N   0  0  0  0  0  0  0  0  0  0  0  0
  -26.0090  -38.4100   23.9060 H   0  0  0  0  0  0  0  0  0  0  0  0
  -32.2070  -25.8010   19.1460 C   0  0  0  0  0  2  0  0  0  0  0  0
  -32.3740  -25.4820   17.6480 C   0  0  0  0  0  2  0  0  0  0  0  0
  -33.7810  -25.7820   17.1180 C   0  0  0  0  0  2  0  0  0  0  0  0
  -33.9250  -25.3580   15.6490 C   0  0  0  0  0  2  0  0  0  0  0  0
  -35.3460  -25.5400   15.1010 C   0  0  0  0  0  2  0  0  0  0  0  0
  -35.4760  -24.9860   13.6740 C   0  0  0  0  0  2  0  0  0  0  0  0
  -36.9030  -25.1080   13.1110 C   0  0  0  0  0  2  0  0  0  0  0  0
  -37.0490  -24.5540   11.6800 C   0  0  0  0  0  2  0  0  0  0  0  0
  -36.9490  -23.0840   11.6280 N   0  0  0  0  0  4  0  0  0  0  0  0
  -37.6580  -22.6580   12.1980 H   0  0  0  0  0  0  0  0  0  0  0  0
  -37.0790  -22.7690   10.6830 H   0  0  0  0  0  0  0  0  0  0  0  0
  -36.0480  -22.7690   11.9370 H   0  0  0  0  0  0  0  0  0  0  0  0
  -29.4560  -23.2380   19.9110 C   0  0  0  0  0  3  0  0  0  0  0  0
  -28.3220  -21.0600   20.1690 C   0  0  0  0  0  2  0  0  0  0  0  0
  -30.6260  -21.1980   20.7170 C   0  0  0  0  0  2  0  0  0  0  0  0
  -28.4320  -19.5350   19.9720 C   0  0  0  0  0  2  0  0  0  0  0  0
  -30.8070  -19.6810   20.5140 C   0  0  0  0  0  2  0  0  0  0  0  0
  -29.5780  -21.7590   19.8470 N   0  0  0  0  0  0  0  0  0  0  0  0
  -29.5370  -18.9580   20.7820 N   0  0  2  0  0  4  0  0  0  0  0  0
  -29.2980  -19.1280   21.7480 H   0  0  0  0  0  0  0  0  0  0  0  0
  -29.6300  -17.4850   20.6000 C   0  0  0  0  0  2  0  0  0  0  0  0
  -30.5730  -16.7610   21.5910 C   0  0  0  0  0  2  0  0  0  0  0  0
  -30.9690  -14.4960   20.5960 C   0  0  0  0  0  0  0  0  0  0  0  0
  -30.6660  -12.4070   19.3190 C   0  0  0  0  0  2  0  0  0  0  0  0
  -29.7260  -12.6410   18.1190 C   0  0  0  0  0  2  0  0  0  0  0  0
  -28.2450  -12.5070   18.5320 C   0  0  0  0  0  2  0  0  0  0  0  0
  -27.9080  -13.3240   19.8060 C   0  0  0  0  0  3  0  0  0  0  0  0
  -28.9430  -13.0340   20.9170 C   0  0  0  0  0  2  0  0  0  0  0  0
  -30.2900  -13.3380   20.3920 N   0  0  0  0  0  0  0  0  0  0  0  0
  -31.9950  -14.8110   19.9870 O   0  0  0  0  0  0  0  0  0  0  0  0
  -30.3860  -15.3170   21.4780 N   0  0  0  0  0  0  0  0  0  0  0  0
  -29.5990  -14.9260   21.9740 H   0  0  0  0  0  0  0  0  0  0  0  0
  -25.4990  -13.9560   20.4740 C   0  0  0  0  0  0  0  0  0  0  0  0
  -24.4210  -13.1920   20.8320 C   0  0  0  0  0  0  0  0  0  0  0  0
  -24.8720  -11.8370   20.8070 C   0  0  0  0  0  0  0  0  0  0  0  0
  -26.5420  -13.0670   20.2590 N   0  0  0  0  0  0  0  0  0  0  0  0
  -26.1640  -11.7870   20.5120 N   0  0  0  0  0  0  0  0  0  0  0  0
  -24.1350  -10.5800   20.9890 C   0  0  0  0  0  0  0  0  0  0  0  0
  -24.5210   -9.6350   21.9650 C   0  0  0  0  0  3  0  0  0  0  0  0
  -23.7890   -8.4400   22.1340 C   0  0  0  0  0  3  0  0  0  0  0  0
  -22.6550   -8.1830   21.3270 C   0  0  0  0  0  0  0  0  0  0  0  0
  -22.2880   -9.1170   20.3410 C   0  0  0  0  0  3  0  0  0  0  0  0
  -23.0210  -10.3030   20.1710 C   0  0  0  0  0  3  0  0  0  0  0  0
  -21.8970   -7.0400   21.4030 O   0  0  0  0  0  0  0  0  0  0  0  0
  -21.7590   -6.3440   22.5780 C   0  0  0  0  0  0  0  0  0  0  0  0
  -21.2360   -6.9460   23.7440 C   0  0  0  0  0  3  0  0  0  0  0  0
  -21.0470   -6.1760   24.9080 C   0  0  0  0  0  3  0  0  0  0  0  0
  -21.3720   -4.8060   24.9080 C   0  0  0  0  0  0  0  0  0  0  0  0
  -21.8890   -4.2040   23.7460 C   0  0  0  0  0  3  0  0  0  0  0  0
  -22.0790   -4.9710   22.5840 C   0  0  0  0  0  0  0  0  0  0  0  0
  -22.5570   -4.3830   21.4610 F   0  0  0  0  0  0  0  0  0  0  0  0
  -21.1830   -4.0630   26.0230 F   0  0  0  0  0  0  0  0  0  0  0  0
  -23.0240  -13.6800   21.0920 C   0  0  0  0  0  0  0  0  0  0  0  0
  -22.2850  -12.9940   21.9560 N   0  0  0  0  0  0  0  0  0  0  0  0
  -22.5960  -14.7020   20.5590 O   0  0  0  0  0  0  0  0  0  0  0  0
  -22.6430  -12.1680   22.4110 H   0  0  0  0  0  0  0  0  0  0  0  0
  -21.3450  -13.3020   22.1690 H   0  0  0  0  0  0  0  0  0  0  0  0
  -25.6740  -15.3240   20.2950 N   0  0  0  0  0  0  0  0  0  0  0  0
  -24.8990  -15.9750   20.3730 H   0  0  0  0  0  0  0  0  0  0  0  0
  -26.5170  -15.7500   19.9330 H   0  0  0  0  0  0  0  0  0  0  0  0
  -28.5260  -23.7730   18.7830 C   0  0  0  0  0  2  0  0  0  0  0  0
  -29.1930  -23.9710   17.4080 C   0  0  0  0  0  2  0  0  0  0  0  0
  -28.3000  -24.7740   16.4420 C   0  0  0  0  0  2  0  0  0  0  0  0
  -29.0510  -25.3320   15.2180 C   0  0  0  0  0  2  0  0  0  0  0  0
  -29.9210  -26.4710   15.5610 N   0  0  0  0  0  4  0  0  0  0  0  0
  -29.3810  -27.2370   15.9220 H   0  0  0  0  0  0  0  0  0  0  0  0
  -30.4010  -26.7900   14.7380 H   0  0  0  0  0  0  0  0  0  0  0  0
  -30.6100  -26.2070   16.2420 H   0  0  0  0  0  0  0  0  0  0  0  0
  1 58  1  0
  2  1  1  0
  2  3  1  0
  3  4  1  0
  5  7  1  0
  5  4  1  0
  6 17  2  0
  7 12  1  0
  8 16  1  0
  8 18  1  0
  9 15  1  0
  9 11  1  0
 10 16  1  0
 11 12  2  0
 11 10  1  0
 13  7  2  0
 14 13  1  0
 14  9  2  0
 15  8  1  0
 16  6  1  0
 18 20  2  0
 19 18  1  0
 21 19  1  0
 22 31  2  0
 22 27  1  0
 23 19  1  0
 23 27  1  0
 24 23  1  0
 25 26  1  0
 25 24  1  0
 26 22  1  0
 27 28  2  0
 28 29  1  0
 30 29  2  0
 31 30  1  0
 32  6  1  0
 32 37  1  0
 32 33  1  0
 33 36  1  1
 33 34  1  0
 35 33  1  0
 37 40  1  0
 38 42  1  0
 38 37  1  0
 39 38  2  0
 42 41  1  0
 44 42  1  0
 44 45  1  0
 44 43  1  0
 46  2  1  0
 47 46  1  0
 48 47  1  0
 49 48  1  0
 50 49  1  0
 51 50  1  0
 52 51  1  0
 53 52  1  0
 54 53  1  0
 54 57  1  0
 54 55  1  0
 56 54  1  0
 58106  1  0
 61 59  1  0
 61 64  1  0
 62 60  1  0
 62 64  1  0
 63 58  1  0
 63 59  1  0
 63 60  1  0
 64 65  1  1
 66 64  1  0
 66 67  1  0
 68 76  1  0
 69 74  1  0
 70 71  1  0
 70 69  1  0
 72 71  1  0
 72 81  1  0
 72 73  1  0
 74 68  1  0
 74 73  1  0
 75 68  2  0
 76 67  1  0
 76 77  1  0
 78 79  2  0
 79 98  1  0
 80 79  1  0
 80 83  1  0
 81 78  1  0
 81 82  1  0
 82 80  2  0
 83 84  1  0
 84 85  2  0
 86 89  1  0
 86 85  1  0
 87 86  2  0
 88 87  1  0
 88 83  2  0
 89 90  1  0
 90 95  2  0
 90 91  1  0
 91 92  2  0
 93 92  1  0
 93 97  1  0
 94 93  2  0
 95 94  1  0
 96 95  1  0
 98 99  1  0
 99102  1  0
 99101  1  0
100 98  2  0
103104  1  0
103 78  1  0
105103  1  0
107106  1  0
108107  1  0
109110  1  0
109108  1  0
110111  1  0
110113  1  0
112110  1  0
M  ISO  4   4 101   5 101  68 100  76 100
M  END
>  <TORSDO>  (70) 
F 37

>  <SCORE>  (70) 
-9.933

>  <name>  (70) 
70

>  <ligand_id>  (70) 
70

>  <original_smiles>  (70) 
[H]c1c([H])c([H])c2c(c1[H])C([H])([H])C([H])([H])C([H])([H])C2([H])N([H])C(=O)C1([H])N(C(=O)C([H])(N([H])C(=O)C([H])(N([H])C([H])([H])[H])C([H])([H])[H])C(C([H])([H])[H])(C([H])([H])[H])C([H])([H])[H])C([H])([H])c2c([H])c(OC([H])([H])C([H])([H])N(C([H])([H])C([H])([H])C([H])([H])C([H])([H])C([H])([H])C([H])([H])C([H])([H])C([H])([H])[N+]([H])([H])[H])C([H])([H])C([H])(N3C([H])([H])C([H])([H])[N+]([H])(C([H])([H])C([H])([H])N([H])C(=O)N4C([H])([H])C([H])([H])C([H])([H])C([H])(n5nc(-c6c([H])c([H])c(Oc7c([H])c([H])c(F)c([H])c7F)c([H])c6[H])c(C(=O)N([H])[H])c5N([H])[H])C4([H])[H])C([H])([H])C3([H])[H])C([H])([H])C([H])([H])C([H])([H])C([H])([H])[N+]([H])([H])[H])c([H])c([H])c2C1([H])[H]

>  <smiles>  (70) 
[H]c1c([H])c([H])c2c(c1[H])C([H])([H])C([H])([H])C([H])([H])C2([H])N([H])C(=O)C1([H])N(C(=O)C([H])(N([H])C(=O)C([H])(N([H])C([H])([H])[H])C([H])([H])[H])C(C([H])([H])[H])(C([H])([H])[H])C([H])([H])[H])C([H])([H])c2c([H])c(OC([H])([H])C([H])([H])N(C([H])([H])C([H])([H])C([H])([H])C([H])([H])C([H])([H])C([H])([H])C([H])([H])C([H])([H])[N+]([H])([H])[H])C([H])([H])C([H])(N3C([H])([H])C([H])([H])[N+]([H])(C([H])([H])C([H])([H])N([H])C(=O)N4C([H])([H])C([H])([H])C([H])([H])C([H])(n5nc(-c6c([H])c([H])c(Oc7c([H])c([H])c(F)c([H])c7F)c([H])c6[H])c(C(=O)N([H])[H])c5N([H])[H])C4([H])[H])C([H])([H])C3([H])[H])C([H])([H])C([H])([H])C([H])([H])C([H])([H])[N+]([H])([H])[H])c([H])c([H])c2C1([H])[H]

$$$$
71:0:0
     RDKit          3D

 88 96  0  0  1  0  0  0  0  0999 V2000
  -28.4940  -21.6550   20.2660 C   0  0  0  0  0  2  0  0  0  0  0  0
  -30.3390  -18.4280   18.9660 C   0  0  0  0  0  2  0  0  0  0  0  0
  -30.1960  -20.0060   19.0860 C   0  0  0  0  0  2  0  0  0  0  0  0
  -28.9850  -18.9630   20.7920 C   0  0  0  0  0  2  0  0  0  0  0  0
  -30.0300  -17.7770   20.3350 C   0  0  0  0  0  3  0  0  0  0  0  0
  -29.4570  -20.3750   20.3300 N   0  0  2  0  0  4  0  0  0  0  0  0
  -30.1680  -20.6200   21.0020 H   0  0  0  0  0  0  0  0  0  0  0  0
  -30.5040  -15.0260   20.1950 C   0  0  0  0  0  0  0  0  0  0  0  0
  -30.3740  -12.6800   19.2310 C   0  0  0  0  0  2  0  0  0  0  0  0
  -29.4110  -12.6370   18.0210 C   0  0  0  0  0  2  0  0  0  0  0  0
  -27.9610  -12.4130   18.4880 C   0  0  0  0  0  2  0  0  0  0  0  0
  -27.5770  -13.3220   19.6850 C   0  0  0  0  0  3  0  0  0  0  0  0
  -28.6600  -13.3340   20.7840 C   0  0  0  0  0  2  0  0  0  0  0  0
  -29.9100  -13.7640   20.1460 N   0  0  0  0  0  0  0  0  0  0  0  0
  -31.7010  -15.0940   19.8940 O   0  0  0  0  0  0  0  0  0  0  0  0
  -29.7250  -16.2100   20.3720 N   0  0  0  0  0  0  0  0  0  0  0  0
  -28.7570  -15.9990   20.5680 H   0  0  0  0  0  0  0  0  0  0  0  0
  -25.2120  -13.8770   20.4890 C   0  0  0  0  0  0  0  0  0  0  0  0
  -24.1620  -13.0920   20.8760 C   0  0  0  0  0  0  0  0  0  0  0  0
  -24.6340  -11.7440   20.8190 C   0  0  0  0  0  0  0  0  0  0  0  0
  -26.2540  -13.0090   20.2140 N   0  0  0  0  0  0  0  0  0  0  0  0
  -25.9180  -11.7200   20.4780 N   0  0  0  0  0  0  0  0  0  0  0  0
  -23.9180  -10.4750   21.0110 C   0  0  0  0  0  0  0  0  0  0  0  0
  -24.3620   -9.5100   21.9420 C   0  0  0  0  0  3  0  0  0  0  0  0
  -23.6440   -8.3070   22.1210 C   0  0  0  0  0  3  0  0  0  0  0  0
  -22.4690   -8.0620   21.3710 C   0  0  0  0  0  0  0  0  0  0  0  0
  -22.0450   -9.0170   20.4300 C   0  0  0  0  0  3  0  0  0  0  0  0
  -22.7630  -10.2100   20.2480 C   0  0  0  0  0  3  0  0  0  0  0  0
  -21.7220   -6.9120   21.4620 O   0  0  0  0  0  0  0  0  0  0  0  0
  -21.6640   -6.1820   22.6220 C   0  0  0  0  0  0  0  0  0  0  0  0
  -21.2020   -6.7420   23.8320 C   0  0  0  0  0  3  0  0  0  0  0  0
  -21.0910   -5.9370   24.9830 C   0  0  0  0  0  3  0  0  0  0  0  0
  -21.4310   -4.5730   24.9250 C   0  0  0  0  0  0  0  0  0  0  0  0
  -21.8870   -4.0120   23.7190 C   0  0  0  0  0  3  0  0  0  0  0  0
  -21.9990   -4.8130   22.5690 C   0  0  0  0  0  0  0  0  0  0  0  0
  -22.4170   -4.2630   21.4040 F   0  0  0  0  0  0  0  0  0  0  0  0
  -21.3190   -3.7970   26.0290 F   0  0  0  0  0  0  0  0  0  0  0  0
  -22.7690  -13.5580   21.1820 C   0  0  0  0  0  0  0  0  0  0  0  0
  -22.0660  -12.8530   22.0600 N   0  0  0  0  0  0  0  0  0  0  0  0
  -22.3140  -14.5830   20.6770 O   0  0  0  0  0  0  0  0  0  0  0  0
  -22.4470  -12.0240   22.4900 H   0  0  0  0  0  0  0  0  0  0  0  0
  -21.1310  -13.1470   22.3080 H   0  0  0  0  0  0  0  0  0  0  0  0
  -25.3620  -15.2500   20.3200 N   0  0  0  0  0  0  0  0  0  0  0  0
  -24.5840  -15.8910   20.4430 H   0  0  0  0  0  0  0  0  0  0  0  0
  -26.1760  -15.6940   19.9170 H   0  0  0  0  0  0  0  0  0  0  0  0
  -28.9730  -23.2900   20.3060 C   0  0  0  0  0  3  0  0  0  0  0  0
  -27.9440  -24.6360   20.1390 C   0  0  0  0  0  3  0  0  0  0  0  0
  -28.2410  -26.1730   20.2700 O   0  0  0  0  0  0  0  0  0  0  0  0
  -24.6610  -31.9170   23.2540 C   0  0  0  0  0  0  0  0  0  0  0  0
  -27.1950  -27.1740   20.2110 C   0  0  0  0  0  0  0  0  0  0  0  0
  -23.4490  -30.5340   21.6140 C   0  0  0  0  0  3  0  0  0  0  0  0
  -24.8820  -28.9510   20.1850 C   0  0  0  0  0  0  0  0  0  0  0  0
  -26.0050  -30.7770   21.4470 C   0  0  0  0  0  2  0  0  0  0  0  0
  -26.0670  -29.3840   20.7910 C   0  0  0  0  0  0  0  0  0  0  0  0
  -27.2250  -28.5140   20.7840 C   0  0  0  0  0  3  0  0  0  0  0  0
  -25.9800  -26.8490   19.5680 C   0  0  0  0  0  3  0  0  0  0  0  0
  -24.8530  -27.6970   19.5550 C   0  0  0  0  0  3  0  0  0  0  0  0
  -23.6620  -29.8580   20.2340 C   0  0  0  0  0  2  0  0  0  0  0  0
  -24.7260  -31.0980   22.1590 N   0  0  0  0  0  0  0  0  0  0  0  0
  -23.5780  -32.2090   23.7840 O   0  0  0  0  0  0  0  0  0  0  0  0
  -22.7620  -29.5310   22.5760 C   0  0  0  0  0  0  0  0  0  0  0  0
  -21.4340  -29.3660   22.4470 N   0  0  0  0  0  0  0  0  0  0  0  0
  -23.4290  -28.9030   23.4030 O   0  0  0  0  0  0  0  0  0  0  0  0
  -20.9530  -29.9230   21.7560 H   0  0  0  0  0  0  0  0  0  0  0  0
  -18.0470  -28.1750   22.9390 C   0  0  0  0  0  0  0  0  0  0  0  0
  -20.6050  -28.4330   23.2170 C   0  0  0  0  0  3  0  0  0  0  0  0
  -20.7070  -26.9980   22.6500 C   0  0  0  0  0  2  0  0  0  0  0  0
  -19.6090  -26.6740   21.6310 C   0  0  0  0  0  2  0  0  0  0  0  0
  -18.2250  -26.8230   22.2680 C   0  0  0  0  0  2  0  0  0  0  0  0
  -19.1650  -28.9380   23.3710 C   0  0  0  0  0  0  0  0  0  0  0  0
  -18.9430  -30.2020   23.9600 C   0  0  0  0  0  3  0  0  0  0  0  0
  -17.6380  -30.7020   24.1210 C   0  0  0  0  0  3  0  0  0  0  0  0
  -16.5350  -29.9370   23.7040 C   0  0  0  0  0  3  0  0  0  0  0  0
  -16.7400  -28.6750   23.1190 C   0  0  0  0  0  3  0  0  0  0  0  0
  -25.9450  -32.5430   23.8810 C   0  0  0  0  0  3  0  0  0  0  0  0
  -26.4490  -31.7680   25.1600 C   0  0  1  0  0  0  0  0  0  0  0  0
  -25.3520  -31.5420   26.2260 C   0  0  0  0  0  1  0  0  0  0  0  0
  -27.0220  -30.3840   24.7750 C   0  0  0  0  0  1  0  0  0  0  0  0
  -27.6050  -32.5540   25.8240 C   0  0  0  0  0  1  0  0  0  0  0  0
  -25.6420  -33.9430   24.2170 N   0  0  0  0  0  0  0  0  0  0  0  0
  -25.9540  -34.9980   23.4530 C   0  0  0  0  0  0  0  0  0  0  0  0
  -26.5930  -34.8960   22.4020 O   0  0  0  0  0  0  0  0  0  0  0  0
  -25.0720  -34.0970   25.0350 H   0  0  0  0  0  0  0  0  0  0  0  0
  -24.2040  -36.7880   23.1750 C   0  0  0  0  0  1  0  0  0  0  0  0
  -25.4850  -36.3880   23.9270 C   0  0  0  0  0  3  0  0  0  0  0  0
  -27.6510  -37.2880   24.6550 C   0  0  0  0  0  1  0  0  0  0  0  0
  -26.5060  -37.4450   23.7610 N   0  0  0  0  0  0  0  0  0  0  0  0
  -26.1040  -38.3650   23.9190 H   0  0  0  0  0  0  0  0  0  0  0  0
  1 46  1  0
  1  6  1  0
  2  3  1  0
  2  5  1  0
  3  6  1  0
  5 16  1  0
  5  4  1  0
  6  4  1  0
  6  7  1  1
  8 16  1  0
  9 14  1  0
 10 11  1  0
 10  9  1  0
 12 11  1  0
 12 21  1  0
 12 13  1  0
 14  8  1  0
 14 13  1  0
 15  8  2  0
 16 17  1  0
 18 19  2  0
 19 38  1  0
 20 19  1  0
 20 23  1  0
 21 22  1  0
 21 18  1  0
 22 20  2  0
 23 24  1  0
 24 25  2  0
 26 29  1  0
 26 25  1  0
 27 26  2  0
 28 27  1  0
 28 23  2  0
 29 30  1  0
 30 31  1  0
 31 32  2  0
 33 32  1  0
 33 37  1  0
 34 33  2  0
 35 30  2  0
 35 34  1  0
 36 35  1  0
 38 39  1  0
 39 42  1  0
 39 41  1  0
 40 38  2  0
 43 44  1  0
 43 18  1  0
 45 43  1  0
 47 48  1  0
 47 46  2  0
 49 60  2  0
 50 48  1  0
 50 55  1  0
 51 59  1  0
 51 61  1  0
 52 58  1  0
 52 54  1  0
 53 59  1  0
 54 53  1  0
 55 54  2  0
 56 50  2  0
 57 56  1  0
 57 52  2  0
 58 51  1  0
 59 49  1  0
 61 63  2  0
 62 61  1  0
 64 62  1  0
 65 74  2  0
 65 70  1  0
 66 62  1  0
 66 70  1  0
 67 66  1  0
 68 69  1  0
 68 67  1  0
 69 65  1  0
 70 71  2  0
 71 72  1  0
 73 72  2  0
 74 73  1  0
 75 49  1  0
 75 80  1  0
 75 76  1  0
 76 79  1  1
 76 77  1  0
 78 76  1  0
 80 83  1  0
 81 85  1  0
 81 80  1  0
 82 81  2  0
 85 84  1  0
 87 88  1  0
 87 85  1  0
 87 86  1  0
M  ISO  4   8 100  16 100  47 101  48 101
M  END
>  <TORSDO>  (71) 
F 19

>  <SCORE>  (71) 
-15.252

>  <name>  (71) 
71

>  <ligand_id>  (71) 
71

>  <original_smiles>  (71) 
[H]c1c([H])c([H])c2c(c1[H])C([H])([H])C([H])([H])C([H])([H])C2([H])N([H])C(=O)C1([H])N(C(=O)C([H])(N([H])C(=O)C([H])(N([H])C([H])([H])[H])C([H])([H])[H])C(C([H])([H])[H])(C([H])([H])[H])C([H])([H])[H])C([H])([H])c2c([H])c(OC([H])([H])C([H])([H])C([H])([H])[N+]3([H])C([H])([H])C([H])([H])C([H])(N([H])C(=O)N4C([H])([H])C([H])([H])C([H])([H])C([H])(n5nc(-c6c([H])c([H])c(Oc7c([H])c([H])c(F)c([H])c7F)c([H])c6[H])c(C(=O)N([H])[H])c5N([H])[H])C4([H])[H])C3([H])[H])c([H])c([H])c2C1([H])[H]

>  <smiles>  (71) 
[H]c1c([H])c([H])c2c(c1[H])C([H])([H])C([H])([H])C([H])([H])C2([H])N([H])C(=O)C1([H])N(C(=O)C([H])(N([H])C(=O)C([H])(N([H])C([H])([H])[H])C([H])([H])[H])C(C([H])([H])[H])(C([H])([H])[H])C([H])([H])[H])C([H])([H])c2c([H])c(OC([H])([H])C([H])([H])C([H])([H])[N+]3([H])C([H])([H])C([H])([H])C([H])(N([H])C(=O)N4C([H])([H])C([H])([H])C([H])([H])C([H])(n5nc(-c6c([H])c([H])c(Oc7c([H])c([H])c(F)c([H])c7F)c([H])c6[H])c(C(=O)N([H])[H])c5N([H])[H])C4([H])[H])C3([H])[H])c([H])c([H])c2C1([H])[H]

$$$$
72:0:0
     RDKit          3D

103112  0  0  1  0  0  0  0  0999 V2000
  -29.0600  -23.9340   16.4490 C   0  0  0  0  0  2  0  0  0  0  0  0
  -29.7370  -22.5670   16.6220 C   0  0  0  0  0  2  0  0  0  0  0  0
  -31.0930  -21.0370   18.0880 C   0  0  0  0  0  2  0  0  0  0  0  0
  -29.0290  -22.0690   19.0200 C   0  0  0  0  0  2  0  0  0  0  0  0
  -31.4180  -20.5290   19.5070 C   0  0  0  0  0  2  0  0  0  0  0  0
  -29.4250  -21.4740   20.3900 C   0  0  0  0  0  2  0  0  0  0  0  0
  -30.0030  -25.0590   16.8930 C   0  0  0  0  0  2  0  0  0  0  0  0
  -31.0820  -23.5530   18.5220 C   0  0  0  0  0  2  0  0  0  0  0  0
  -30.2320  -22.3260   18.0730 C   0  0  2  0  0  0  0  0  0  0  0  0
  -30.1720  -20.2210   20.2190 N   0  0  0  0  0  0  0  0  0  0  0  0
  -30.4070  -24.8660   18.3060 N   0  0  1  0  0  4  0  0  0  0  0  0
  -29.5440  -24.8640   18.8310 H   0  0  0  0  0  0  0  0  0  0  0  0
  -30.4590  -19.6190   21.5370 C   0  0  0  0  0  2  0  0  0  0  0  0
  -30.1390  -18.1010   21.5710 C   0  0  0  0  0  3  0  0  0  0  0  0
  -28.9770  -17.8540   20.7090 N   0  0  0  0  0  4  0  0  0  0  0  0
  -28.9640  -18.6400   20.0740 H   0  0  0  0  0  0  0  0  0  0  0  0
  -28.1190  -17.8310   21.2320 H   0  0  0  0  0  0  0  0  0  0  0  0
  -29.0980  -17.0100   20.1840 H   0  0  0  0  0  0  0  0  0  0  0  0
  -31.3140  -17.1490   21.2360 C   0  0  0  0  0  2  0  0  0  0  0  0
  -31.6160  -14.7130   20.7470 C   0  0  0  0  0  0  0  0  0  0  0  0
  -31.3470  -12.5040   19.6870 C   0  0  0  0  0  2  0  0  0  0  0  0
  -30.5140  -12.6620   18.3980 C   0  0  0  0  0  2  0  0  0  0  0  0
  -29.0020  -12.6190   18.7040 C   0  0  0  0  0  2  0  0  0  0  0  0
  -28.5990  -13.5380   19.8890 C   0  0  0  0  0  3  0  0  0  0  0  0
  -29.5440  -13.3210   21.0930 C   0  0  0  0  0  2  0  0  0  0  0  0
  -30.9260  -13.5500   20.6290 N   0  0  0  0  0  0  0  0  0  0  0  0
  -32.7620  -14.8750   20.3170 O   0  0  0  0  0  0  0  0  0  0  0  0
  -30.9010  -15.7390   21.2340 N   0  0  0  0  0  0  0  0  0  0  0  0
  -29.9990  -15.5000   21.6200 H   0  0  0  0  0  0  0  0  0  0  0  0
  -26.1860  -14.2890   20.3860 C   0  0  0  0  0  0  0  0  0  0  0  0
  -25.0550  -13.5830   20.7000 C   0  0  0  0  0  0  0  0  0  0  0  0
  -25.4440  -12.2090   20.7290 C   0  0  0  0  0  0  0  0  0  0  0  0
  -27.1980  -13.3490   20.2600 N   0  0  0  0  0  0  0  0  0  0  0  0
  -26.7490  -12.0960   20.5200 N   0  0  0  0  0  0  0  0  0  0  0  0
  -24.6400  -10.9910   20.8850 C   0  0  0  0  0  0  0  0  0  0  0  0
  -24.9480  -10.0300   21.8720 C   0  0  0  0  0  3  0  0  0  0  0  0
  -24.1550   -8.8720   22.0180 C   0  0  0  0  0  3  0  0  0  0  0  0
  -23.0390   -8.6670   21.1720 C   0  0  0  0  0  0  0  0  0  0  0  0
  -22.7500   -9.6140   20.1750 C   0  0  0  0  0  3  0  0  0  0  0  0
  -23.5420  -10.7650   20.0290 C   0  0  0  0  0  3  0  0  0  0  0  0
  -22.2240   -7.5620   21.2260 O   0  0  0  0  0  0  0  0  0  0  0  0
  -21.9840   -6.8990   22.4020 C   0  0  0  0  0  0  0  0  0  0  0  0
  -21.4350   -7.5530   23.5270 C   0  0  0  0  0  3  0  0  0  0  0  0
  -21.1370   -6.8160   24.6920 C   0  0  0  0  0  3  0  0  0  0  0  0
  -21.3810   -5.4310   24.7320 C   0  0  0  0  0  0  0  0  0  0  0  0
  -21.9230   -4.7790   23.6110 C   0  0  0  0  0  3  0  0  0  0  0  0
  -22.2200   -5.5100   22.4480 C   0  0  0  0  0  0  0  0  0  0  0  0
  -22.7200   -4.8720   21.3630 F   0  0  0  0  0  0  0  0  0  0  0  0
  -21.0890   -4.7230   25.8480 F   0  0  0  0  0  0  0  0  0  0  0  0
  -23.6650  -14.1350   20.8460 C   0  0  0  0  0  0  0  0  0  0  0  0
  -22.8460  -13.5230   21.6940 N   0  0  0  0  0  0  0  0  0  0  0  0
  -23.3140  -15.1440   20.2380 O   0  0  0  0  0  0  0  0  0  0  0  0
  -23.1350  -12.7050   22.2080 H   0  0  0  0  0  0  0  0  0  0  0  0
  -21.9090  -13.8790   21.8280 H   0  0  0  0  0  0  0  0  0  0  0  0
  -26.4350  -15.6400   20.1610 N   0  0  0  0  0  0  0  0  0  0  0  0
  -25.5820  -16.1810   20.0460 H   0  0  0  0  0  0  0  0  0  0  0  0
  -27.0610  -15.7990   19.3810 H   0  0  0  0  0  0  0  0  0  0  0  0
  -31.1980  -26.0040   18.8440 C   0  0  0  0  0  2  0  0  0  0  0  0
  -30.8460  -26.3120   20.3200 C   0  0  0  0  0  3  0  0  0  0  0  0
  -33.2540  -25.8770   21.1680 C   0  0  0  0  0  1  0  0  0  0  0  0
  -32.0630  -26.8480   21.1070 C   0  0  0  0  0  2  0  0  0  0  0  0
  -29.6810  -27.3220   20.4140 C   0  0  0  0  0  2  0  0  0  0  0  0
  -28.5260  -26.8010   19.7670 O   0  0  0  0  0  0  0  0  0  0  0  0
  -24.4970  -31.7150   23.0740 C   0  0  0  0  0  0  0  0  0  0  0  0
  -27.3580  -27.5330   19.8450 C   0  0  0  0  0  0  0  0  0  0  0  0
  -23.3540  -30.3210   21.3750 C   0  0  0  0  0  3  0  0  0  0  0  0
  -24.8790  -28.9000   19.9050 C   0  0  0  0  0  0  0  0  0  0  0  0
  -25.8560  -30.8080   21.1960 C   0  0  0  0  0  2  0  0  0  0  0  0
  -26.0050  -29.4650   20.5130 C   0  0  0  0  0  0  0  0  0  0  0  0
  -27.2440  -28.7930   20.4860 C   0  0  0  0  0  3  0  0  0  0  0  0
  -26.2130  -26.9780   19.2370 C   0  0  0  0  0  3  0  0  0  0  0  0
  -24.9750  -27.6520   19.2650 C   0  0  0  0  0  3  0  0  0  0  0  0
  -23.5930  -29.6940   19.9750 C   0  0  0  0  0  2  0  0  0  0  0  0
  -24.5860  -30.9610   21.9410 N   0  0  0  0  0  0  0  0  0  0  0  0
  -23.4050  -31.9210   23.6210 O   0  0  0  0  0  0  0  0  0  0  0  0
  -22.7470  -29.2420   22.3000 C   0  0  0  0  0  0  0  0  0  0  0  0
  -21.4250  -29.0330   22.1850 N   0  0  0  0  0  0  0  0  0  0  0  0
  -23.4600  -28.5960   23.0710 O   0  0  0  0  0  0  0  0  0  0  0  0
  -20.9110  -29.6110   21.5340 H   0  0  0  0  0  0  0  0  0  0  0  0
  -18.0880  -27.7430   22.6760 C   0  0  0  0  0  0  0  0  0  0  0  0
  -20.6430  -28.0420   22.9210 C   0  0  0  0  0  3  0  0  0  0  0  0
  -20.7670  -26.6440   22.2740 C   0  0  0  0  0  2  0  0  0  0  0  0
  -19.6560  -26.3470   21.2620 C   0  0  0  0  0  2  0  0  0  0  0  0
  -18.2810  -26.4310   21.9320 C   0  0  0  0  0  2  0  0  0  0  0  0
  -19.1970  -28.5060   23.1250 C   0  0  0  0  0  0  0  0  0  0  0  0
  -18.9620  -29.7360   23.7780 C   0  0  0  0  0  3  0  0  0  0  0  0
  -17.6510  -30.2020   23.9860 C   0  0  0  0  0  3  0  0  0  0  0  0
  -16.5550  -29.4340   23.5520 C   0  0  0  0  0  3  0  0  0  0  0  0
  -16.7750  -28.2060   22.9040 C   0  0  0  0  0  3  0  0  0  0  0  0
  -25.7560  -32.3750   23.7200 C   0  0  0  0  0  3  0  0  0  0  0  0
  -26.2810  -31.6010   24.9910 C   0  0  1  0  0  0  0  0  0  0  0  0
  -25.1870  -31.3270   26.0480 C   0  0  0  0  0  1  0  0  0  0  0  0
  -26.8970  -30.2420   24.5830 C   0  0  0  0  0  1  0  0  0  0  0  0
  -27.4080  -32.4140   25.6700 C   0  0  0  0  0  1  0  0  0  0  0  0
  -25.4030  -33.7590   24.0610 N   0  0  0  0  0  0  0  0  0  0  0  0
  -25.7470  -34.8310   23.3360 C   0  0  0  0  0  0  0  0  0  0  0  0
  -26.4650  -34.7610   22.3340 O   0  0  0  0  0  0  0  0  0  0  0  0
  -24.7680  -33.8860   24.8360 H   0  0  0  0  0  0  0  0  0  0  0  0
  -23.9980  -36.5890   22.9300 C   0  0  0  0  0  1  0  0  0  0  0  0
  -25.2070  -36.1990   23.7940 C   0  0  0  0  0  3  0  0  0  0  0  0
  -27.2790  -37.1130   24.7430 C   0  0  0  0  0  1  0  0  0  0  0  0
  -26.2210  -37.2750   23.7500 N   0  0  0  0  0  0  0  0  0  0  0  0
  -25.7870  -38.1840   23.8950 H   0  0  0  0  0  0  0  0  0  0  0  0
  1  2  1  0
  1  7  1  0
  3  5  1  0
  4  6  1  0
  5 10  1  0
  7 11  1  0
  9  2  1  6
  9  3  1  0
  9  8  1  0
  9  4  1  0
 10  6  1  0
 10 13  1  0
 11  8  1  0
 11 12  1  1
 11 58  1  0
 13 14  1  0
 14 19  1  0
 15 17  1  0
 15 14  1  0
 16 15  1  0
 18 15  1  0
 20 28  1  0
 21 26  1  0
 22 23  1  0
 22 21  1  0
 24 23  1  0
 24 33  1  0
 24 25  1  0
 26 20  1  0
 26 25  1  0
 27 20  2  0
 28 19  1  0
 28 29  1  0
 30 31  2  0
 31 32  1  0
 31 50  1  0
 32 35  1  0
 33 30  1  0
 33 34  1  0
 34 32  2  0
 35 36  1  0
 36 37  2  0
 38 41  1  0
 38 37  1  0
 39 38  2  0
 40 39  1  0
 40 35  2  0
 41 42  1  0
 42 47  2  0
 42 43  1  0
 43 44  2  0
 44 45  1  0
 45 49  1  0
 46 45  2  0
 47 46  1  0
 48 47  1  0
 50 51  1  0
 51 54  1  0
 51 53  1  0
 52 50  2  0
 55 30  1  0
 56 55  1  0
 57 55  1  0
 59 58  1  0
 59 62  1  0
 59 61  1  0
 61 60  1  0
 63 65  1  0
 63 62  1  0
 64 75  2  0
 65 70  1  0
 66 74  1  0
 66 76  1  0
 67 73  1  0
 67 69  1  0
 68 74  1  0
 69 68  1  0
 70 69  2  0
 71 72  1  0
 71 65  2  0
 72 67  2  0
 73 66  1  0
 74 64  1  0
 76 78  2  0
 77 76  1  0
 79 77  1  0
 80 89  2  0
 80 85  1  0
 81 77  1  0
 81 85  1  0
 82 81  1  0
 83 84  1  0
 83 82  1  0
 84 80  1  0
 85 86  2  0
 86 87  1  0
 88 87  2  0
 89 88  1  0
 90 64  1  0
 90 95  1  0
 90 91  1  0
 91 94  1  1
 91 92  1  0
 93 91  1  0
 95 98  1  0
 96100  1  0
 96 95  1  0
 97 96  2  0
100 99  1  0
102100  1  0
102103  1  0
102101  1  0
M  ISO  4  20 100  28 100  62 101  63 101
M  END
>  <TORSDO>  (72) 
F 24

>  <SCORE>  (72) 
-11.383

>  <name>  (72) 
72

>  <ligand_id>  (72) 
72

>  <original_smiles>  (72) 
[H]c1c([H])c([H])c2c(c1[H])C([H])([H])C([H])([H])C([H])([H])C2([H])N([H])C(=O)C1([H])N(C(=O)C([H])(N([H])C(=O)C([H])(N([H])C([H])([H])[H])C([H])([H])[H])C(C([H])([H])[H])(C([H])([H])[H])C([H])([H])[H])C([H])([H])c2c([H])c(OC([H])([H])C([H])(C([H])([H])C([H])([H])[H])C([H])([H])[N+]3([H])C([H])([H])C([H])([H])C([H])([H])C4(C([H])([H])C([H])([H])N(C([H])([H])C([H])(C([H])([H])N([H])C(=O)N5C([H])([H])C([H])([H])C([H])([H])C([H])(n6nc(-c7c([H])c([H])c(Oc8c([H])c([H])c(F)c([H])c8F)c([H])c7[H])c(C(=O)N([H])[H])c6N([H])[H])C5([H])[H])[N+]([H])([H])[H])C([H])([H])C4([H])[H])C3([H])[H])c([H])c([H])c2C1([H])[H]

>  <smiles>  (72) 
[H]c1c([H])c([H])c2c(c1[H])C([H])([H])C([H])([H])C([H])([H])C2([H])N([H])C(=O)C1([H])N(C(=O)C([H])(N([H])C(=O)C([H])(N([H])C([H])([H])[H])C([H])([H])[H])C(C([H])([H])[H])(C([H])([H])[H])C([H])([H])[H])C([H])([H])c2c([H])c(OC([H])([H])C([H])(C([H])([H])C([H])([H])[H])C([H])([H])[N+]3([H])C([H])([H])C([H])([H])C([H])([H])C4(C([H])([H])C([H])([H])N(C([H])([H])C([H])(C([H])([H])N([H])C(=O)N5C([H])([H])C([H])([H])C([H])([H])C([H])(n6nc(-c7c([H])c([H])c(Oc8c([H])c([H])c(F)c([H])c8F)c([H])c7[H])c(C(=O)N([H])[H])c6N([H])[H])C5([H])[H])[N+]([H])([H])[H])C([H])([H])C4([H])[H])C3([H])[H])c([H])c([H])c2C1([H])[H]

$$$$
73:0:0
     RDKit          3D

106114  0  0  1  0  0  0  0  0999 V2000
  -29.6350  -18.6130   19.7910 C   0  0  0  0  0  3  0  0  0  0  0  0
  -29.7600  -22.0990   21.7040 C   0  0  0  0  0  2  0  0  0  0  0  0
  -29.9080  -22.5210   19.4050 C   0  0  0  0  0  2  0  0  0  0  0  0
  -29.4130  -20.5830   21.4550 C   0  0  0  0  0  2  0  0  0  0  0  0
  -29.5460  -21.0440   19.0760 C   0  0  0  0  0  2  0  0  0  0  0  0
  -29.2540  -22.9930   20.6360 N   0  0  0  0  0  0  0  0  0  0  0  0
  -29.9380  -20.0710   20.1510 N   0  0  2  0  0  4  0  0  0  0  0  0
  -30.9410  -20.1420   20.2210 H   0  0  0  0  0  0  0  0  0  0  0  0
  -29.5280  -24.4440   20.8850 C   0  0  0  0  0  2  0  0  0  0  0  0
  -28.5320  -25.4240   20.1520 C   0  0  0  0  0  2  0  0  0  0  0  0
  -28.6340  -26.8590   20.4430 O   0  0  0  0  0  0  0  0  0  0  0  0
  -24.6630  -32.0510   23.3710 C   0  0  0  0  0  0  0  0  0  0  0  0
  -27.4740  -27.6340   20.3400 C   0  0  0  0  0  0  0  0  0  0  0  0
  -23.5310  -30.6280   21.6990 C   0  0  0  0  0  3  0  0  0  0  0  0
  -25.0520  -29.1400   20.2850 C   0  0  0  0  0  0  0  0  0  0  0  0
  -26.0550  -31.0410   21.5580 C   0  0  0  0  0  2  0  0  0  0  0  0
  -26.1900  -29.6730   20.9050 C   0  0  0  0  0  0  0  0  0  0  0  0
  -27.4040  -28.9310   20.9230 C   0  0  0  0  0  3  0  0  0  0  0  0
  -26.3190  -27.1500   19.6870 C   0  0  0  0  0  3  0  0  0  0  0  0
  -25.1200  -27.8830   19.6630 C   0  0  0  0  0  3  0  0  0  0  0  0
  -23.7830  -29.9640   20.3200 C   0  0  0  0  0  2  0  0  0  0  0  0
  -24.7670  -31.2540   22.2670 N   0  0  0  0  0  0  0  0  0  0  0  0
  -23.5640  -32.2930   23.8870 O   0  0  0  0  0  0  0  0  0  0  0  0
  -22.8830  -29.5880   22.6400 C   0  0  0  0  0  0  0  0  0  0  0  0
  -21.5790  -29.3330   22.4460 N   0  0  0  0  0  0  0  0  0  0  0  0
  -23.5540  -29.0090   23.5000 O   0  0  0  0  0  0  0  0  0  0  0  0
  -21.1020  -29.8460   21.7160 H   0  0  0  0  0  0  0  0  0  0  0  0
  -18.2490  -27.9560   22.7860 C   0  0  0  0  0  0  0  0  0  0  0  0
  -20.7710  -28.3630   23.1870 C   0  0  0  0  0  3  0  0  0  0  0  0
  -20.9880  -26.9360   22.6360 C   0  0  0  0  0  2  0  0  0  0  0  0
  -19.9580  -26.5370   21.5750 C   0  0  0  0  0  2  0  0  0  0  0  0
  -18.5370  -26.6120   22.1410 C   0  0  0  0  0  2  0  0  0  0  0  0
  -19.3000  -28.7860   23.2610 C   0  0  0  0  0  0  0  0  0  0  0  0
  -18.9800  -30.0430   23.8210 C   0  0  0  0  0  3  0  0  0  0  0  0
  -17.6400  -30.4670   23.9170 C   0  0  0  0  0  3  0  0  0  0  0  0
  -16.6040  -29.6360   23.4580 C   0  0  0  0  0  3  0  0  0  0  0  0
  -16.9090  -28.3820   22.8980 C   0  0  0  0  0  3  0  0  0  0  0  0
  -25.9180  -32.7140   24.0220 C   0  0  0  0  0  3  0  0  0  0  0  0
  -26.3950  -31.9810   25.3360 C   0  0  1  0  0  0  0  0  0  0  0  0
  -25.2520  -31.7130   26.3430 C   0  0  0  0  0  1  0  0  0  0  0  0
  -27.0560  -30.6260   24.9990 C   0  0  0  0  0  1  0  0  0  0  0  0
  -27.4760  -32.8320   26.0440 C   0  0  0  0  0  1  0  0  0  0  0  0
  -25.5830  -34.1180   24.3040 N   0  0  0  0  0  0  0  0  0  0  0  0
  -25.9130  -35.1480   23.5140 C   0  0  0  0  0  0  0  0  0  0  0  0
  -26.5980  -35.0200   22.4980 O   0  0  0  0  0  0  0  0  0  0  0  0
  -24.9800  -34.2910   25.0930 H   0  0  0  0  0  0  0  0  0  0  0  0
  -24.1610  -36.8990   23.0790 C   0  0  0  0  0  1  0  0  0  0  0  0
  -25.4000  -36.5440   23.9170 C   0  0  0  0  0  3  0  0  0  0  0  0
  -27.5140  -37.4830   24.7430 C   0  0  0  0  0  1  0  0  0  0  0  0
  -26.4190  -37.6070   23.7820 N   0  0  0  0  0  0  0  0  0  0  0  0
  -25.9980  -38.5260   23.9010 H   0  0  0  0  0  0  0  0  0  0  0  0
  -28.1350  -18.2310   19.7390 C   0  0  0  0  0  2  0  0  0  0  0  0
  -27.4470  -18.9000   18.5240 C   0  0  0  0  0  2  0  0  0  0  0  0
  -26.1090  -19.5710   18.8440 C   0  0  0  0  0  2  0  0  0  0  0  0
  -25.7560  -20.7630   17.9470 C   0  0  0  0  0  2  0  0  0  0  0  0
  -24.5990  -21.4900   18.4930 N   0  0  0  0  0  4  0  0  0  0  0  0
  -23.8050  -20.8790   18.5590 H   0  0  0  0  0  0  0  0  0  0  0  0
  -24.3580  -22.2680   17.9060 H   0  0  0  0  0  0  0  0  0  0  0  0
  -24.8040  -21.8400   19.4120 H   0  0  0  0  0  0  0  0  0  0  0  0
  -30.6790  -17.4480   20.1330 C   0  0  0  0  0  0  0  0  0  0  0  0
  -30.8940  -14.9110   20.4360 C   0  0  0  0  0  0  0  0  0  0  0  0
  -30.6110  -12.6700   19.4400 C   0  0  0  0  0  2  0  0  0  0  0  0
  -29.7150  -12.8080   18.1930 C   0  0  0  0  0  2  0  0  0  0  0  0
  -28.2350  -12.6450   18.5790 C   0  0  0  0  0  2  0  0  0  0  0  0
  -27.8400  -13.5150   19.8070 C   0  0  0  0  0  3  0  0  0  0  0  0
  -28.8820  -13.4230   20.9440 C   0  0  0  0  0  2  0  0  0  0  0  0
  -30.2040  -13.7280   20.3830 N   0  0  0  0  0  0  0  0  0  0  0  0
  -32.0740  -14.9560   20.0900 O   0  0  0  0  0  0  0  0  0  0  0  0
  -30.2040  -16.0840   20.6090 N   0  0  0  0  0  4  0  0  0  0  0  0
  -29.2510  -16.0060   20.9300 H   0  0  0  0  0  0  0  0  0  0  0  0
  -25.4490  -14.0690   20.5480 C   0  0  0  0  0  0  0  0  0  0  0  0
  -24.3670  -13.2870   20.8300 C   0  0  0  0  0  0  0  0  0  0  0  0
  -24.8350  -11.9390   20.7700 C   0  0  0  0  0  0  0  0  0  0  0  0
  -26.4930  -13.2040   20.2740 N   0  0  0  0  0  0  0  0  0  0  0  0
  -26.1330  -11.9120   20.4810 N   0  0  0  0  0  0  0  0  0  0  0  0
  -24.1100  -10.6750   20.9280 C   0  0  0  0  0  0  0  0  0  0  0  0
  -24.5130   -9.7100   21.8770 C   0  0  0  0  0  3  0  0  0  0  0  0
  -23.7850   -8.5120   22.0310 C   0  0  0  0  0  3  0  0  0  0  0  0
  -22.6400   -8.2730   21.2380 C   0  0  0  0  0  0  0  0  0  0  0  0
  -22.2530   -9.2270   20.2800 C   0  0  0  0  0  3  0  0  0  0  0  0
  -22.9800  -10.4160   20.1250 C   0  0  0  0  0  3  0  0  0  0  0  0
  -21.8920   -7.1230   21.2980 O   0  0  0  0  0  0  0  0  0  0  0  0
  -21.8050   -6.3800   22.4490 C   0  0  0  0  0  0  0  0  0  0  0  0
  -21.3360   -6.9350   23.6600 C   0  0  0  0  0  3  0  0  0  0  0  0
  -21.1970   -6.1200   24.8000 C   0  0  0  0  0  3  0  0  0  0  0  0
  -21.5140   -4.7510   24.7310 C   0  0  0  0  0  0  0  0  0  0  0  0
  -21.9720   -4.1940   23.5250 C   0  0  0  0  0  3  0  0  0  0  0  0
  -22.1160   -5.0080   22.3860 C   0  0  0  0  0  0  0  0  0  0  0  0
  -22.5410   -4.4640   21.2210 F   0  0  0  0  0  0  0  0  0  0  0  0
  -21.3660   -3.9660   25.8240 F   0  0  0  0  0  0  0  0  0  0  0  0
  -22.9650  -13.7570   21.0720 C   0  0  0  0  0  0  0  0  0  0  0  0
  -22.2290  -13.0660   21.9340 N   0  0  0  0  0  0  0  0  0  0  0  0
  -22.5310  -14.7750   20.5290 O   0  0  0  0  0  0  0  0  0  0  0  0
  -22.5920  -12.2470   22.3980 H   0  0  0  0  0  0  0  0  0  0  0  0
  -21.2860  -13.3650   22.1340 H   0  0  0  0  0  0  0  0  0  0  0  0
  -25.6170  -15.4410   20.5040 N   0  0  0  0  0  0  0  0  0  0  0  0
  -24.8530  -16.0850   20.6800 H   0  0  0  0  0  0  0  0  0  0  0  0
  -26.4920  -15.9070   20.3170 H   0  0  0  0  0  0  0  0  0  0  0  0
  -32.0470  -17.9440   20.6740 C   0  0  0  0  0  2  0  0  0  0  0  0
  -32.9740  -18.4180   19.5160 C   0  0  0  0  0  2  0  0  0  0  0  0
  -34.3530  -18.9570   19.9550 C   0  0  0  0  0  2  0  0  0  0  0  0
  -35.3340  -19.2470   18.7840 C   0  0  0  0  0  2  0  0  0  0  0  0
  -35.8380  -18.0360   18.1080 N   0  0  0  0  0  4  0  0  0  0  0  0
  -36.1510  -17.3400   18.7590 H   0  0  0  0  0  0  0  0  0  0  0  0
  -36.6250  -18.2810   17.5310 H   0  0  0  0  0  0  0  0  0  0  0  0
  -35.1440  -17.6360   17.5030 H   0  0  0  0  0  0  0  0  0  0  0  0
  1 52  1  0
  1 60  1  0
  1  7  1  0
  3  6  1  0
  4  2  1  0
  5  3  1  0
  5  7  1  0
  6  9  1  0
  6  2  1  0
  7  8  1  1
  7  4  1  0
 10 11  1  0
 10  9  1  0
 12 23  2  0
 13 11  1  0
 13 18  1  0
 14 22  1  0
 14 24  1  0
 15 21  1  0
 15 17  1  0
 16 22  1  0
 17 18  2  0
 17 16  1  0
 19 13  2  0
 20 19  1  0
 20 15  2  0
 21 14  1  0
 22 12  1  0
 24 26  2  0
 25 24  1  0
 27 25  1  0
 28 37  2  0
 28 33  1  0
 29 25  1  0
 29 33  1  0
 30 29  1  0
 31 32  1  0
 31 30  1  0
 32 28  1  0
 33 34  2  0
 34 35  1  0
 36 35  2  0
 37 36  1  0
 38 12  1  0
 38 43  1  0
 38 39  1  0
 39 42  1  1
 39 40  1  0
 41 39  1  0
 43 46  1  0
 44 48  1  0
 44 43  1  0
 45 44  2  0
 48 47  1  0
 50 51  1  0
 50 48  1  0
 50 49  1  0
 53 54  1  0
 53 52  1  0
 55 56  1  0
 55 54  1  0
 56 57  1  0
 56 59  1  0
 58 56  1  0
 60 69  2  0
 60 99  1  0
 61 69  1  0
 62 67  1  0
 63 64  1  0
 63 62  1  0
 65 64  1  0
 65 74  1  0
 65 66  1  0
 67 61  1  0
 67 66  1  0
 68 61  2  0
 69 70  1  0
 71 72  2  0
 72 91  1  0
 73 72  1  0
 73 76  1  0
 74 75  1  0
 74 71  1  0
 75 73  2  0
 76 77  1  0
 77 78  2  0
 79 82  1  0
 79 78  1  0
 80 79  2  0
 81 80  1  0
 81 76  2  0
 82 83  1  0
 83 84  1  0
 84 85  2  0
 86 85  1  0
 86 90  1  0
 87 86  2  0
 88 83  2  0
 88 87  1  0
 89 88  1  0
 91 92  1  0
 92 95  1  0
 92 94  1  0
 93 91  2  0
 96 71  1  0
 96 97  1  0
 98 96  1  0
100101  1  0
100 99  1  0
102101  1  0
103104  1  0
103102  1  0
105103  1  0
106103  1  0
M  ISO  4  10 101  11 101  61 100  69 100
M  END
>  <TORSDO>  (73) 
F 30

>  <SCORE>  (73) 
-11.353

>  <name>  (73) 
73

>  <ligand_id>  (73) 
73

>  <original_smiles>  (73) 
[H]c1c([H])c([H])c2c(c1[H])C([H])([H])C([H])([H])C([H])([H])C2([H])N([H])C(=O)C1([H])N(C(=O)C([H])(N([H])C(=O)C([H])(N([H])C([H])([H])[H])C([H])([H])[H])C(C([H])([H])[H])(C([H])([H])[H])C([H])([H])[H])C([H])([H])c2c([H])c(OC([H])([H])C([H])([H])N3C([H])([H])C([H])([H])[N+]([H])(C([H])(C([H])([H])C([H])([H])C([H])([H])C([H])([H])[N+]([H])([H])[H])C([H])(N([H])C(=O)N4C([H])([H])C([H])([H])C([H])([H])C([H])(n5nc(-c6c([H])c([H])c(Oc7c([H])c([H])c(F)c([H])c7F)c([H])c6[H])c(C(=O)N([H])[H])c5N([H])[H])C4([H])[H])C([H])([H])C([H])([H])C([H])([H])C([H])([H])[N+]([H])([H])[H])C([H])([H])C3([H])[H])c([H])c([H])c2C1([H])[H]

>  <smiles>  (73) 
[H]c1c([H])c([H])c2c(c1[H])C([H])([H])C([H])([H])C([H])([H])C2([H])N([H])C(=O)C1([H])N(C(=O)C([H])(N([H])C(=O)C([H])(N([H])C([H])([H])[H])C([H])([H])[H])C(C([H])([H])[H])(C([H])([H])[H])C([H])([H])[H])C([H])([H])c2c([H])c(OC([H])([H])C([H])([H])N3C([H])([H])C([H])([H])[N+]([H])(C([H])(C([H])([H])C([H])([H])C([H])([H])C([H])([H])[N+]([H])([H])[H])C([H])(N([H])C(=O)N4C([H])([H])C([H])([H])C([H])([H])C([H])(n5nc(-c6c([H])c([H])c(Oc7c([H])c([H])c(F)c([H])c7F)c([H])c6[H])c(C(=O)N([H])[H])c5N([H])[H])C4([H])[H])C([H])([H])C([H])([H])C([H])([H])C([H])([H])[N+]([H])([H])[H])C([H])([H])C3([H])[H])c([H])c([H])c2C1([H])[H]

$$$$
74:0:0
     RDKit          3D

 93101  0  0  1  0  0  0  0  0999 V2000
  -31.1130  -21.5980   19.4110 C   0  0  0  0  0  2  0  0  0  0  0  0
  -32.5140  -21.4090   17.5170 C   0  0  0  0  0  2  0  0  0  0  0  0
  -30.4670  -20.2260   19.1690 C   0  0  0  0  0  2  0  0  0  0  0  0
  -31.9360  -20.0250   17.1670 C   0  0  0  0  0  2  0  0  0  0  0  0
  -31.4240  -22.1810   18.1050 N   0  0  0  0  0  0  0  0  0  0  0  0
  -31.3230  -19.3300   18.3370 N   0  0  2  0  0  4  0  0  0  0  0  0
  -32.0960  -19.0370   18.9130 H   0  0  0  0  0  0  0  0  0  0  0  0
  -31.6790  -23.6110   18.1950 C   0  0  0  0  0  2  0  0  0  0  0  0
  -30.3040  -24.2960   18.1080 C   0  0  0  0  0  2  0  0  0  0  0  0
  -30.0640  -25.3830   19.1540 C   0  0  0  0  0  2  0  0  0  0  0  0
  -28.6010  -25.8250   19.1290 C   0  0  0  0  0  2  0  0  0  0  0  0
  -28.4150  -26.8220   20.1160 O   0  0  0  0  0  0  0  0  0  0  0  0
  -24.5670  -31.8790   23.2480 C   0  0  0  0  0  0  0  0  0  0  0  0
  -27.2060  -27.4760   20.1330 C   0  0  0  0  0  0  0  0  0  0  0  0
  -23.3520  -30.4790   21.6090 C   0  0  0  0  0  3  0  0  0  0  0  0
  -24.7970  -28.9430   20.1790 C   0  0  0  0  0  0  0  0  0  0  0  0
  -25.8730  -30.8430   21.4000 C   0  0  0  0  0  2  0  0  0  0  0  0
  -25.9530  -29.4730   20.7670 C   0  0  0  0  0  0  0  0  0  0  0  0
  -27.1530  -28.7380   20.7560 C   0  0  0  0  0  3  0  0  0  0  0  0
  -26.0290  -26.9470   19.5500 C   0  0  0  0  0  3  0  0  0  0  0  0
  -24.8260  -27.6760   19.5760 C   0  0  0  0  0  3  0  0  0  0  0  0
  -23.5540  -29.8000   20.2280 C   0  0  0  0  0  2  0  0  0  0  0  0
  -24.6160  -31.0830   22.1440 N   0  0  0  0  0  0  0  0  0  0  0  0
  -23.4880  -32.1490   23.7930 O   0  0  0  0  0  0  0  0  0  0  0  0
  -22.7090  -29.4540   22.5690 C   0  0  0  0  0  0  0  0  0  0  0  0
  -21.3850  -29.2690   22.4430 N   0  0  0  0  0  0  0  0  0  0  0  0
  -23.3960  -28.8270   23.3810 O   0  0  0  0  0  0  0  0  0  0  0  0
  -20.8960  -29.8230   21.7550 H   0  0  0  0  0  0  0  0  0  0  0  0
  -18.0100  -28.0800   22.9400 C   0  0  0  0  0  0  0  0  0  0  0  0
  -20.5680  -28.3310   23.2120 C   0  0  0  0  0  3  0  0  0  0  0  0
  -20.6690  -26.9020   22.6300 C   0  0  0  0  0  2  0  0  0  0  0  0
  -19.5650  -26.5850   21.6160 C   0  0  0  0  0  2  0  0  0  0  0  0
  -18.1830  -26.7330   22.2600 C   0  0  0  0  0  2  0  0  0  0  0  0
  -19.1310  -28.8380   23.3710 C   0  0  0  0  0  0  0  0  0  0  0  0
  -18.9150  -30.1030   23.9600 C   0  0  0  0  0  3  0  0  0  0  0  0
  -17.6120  -30.6080   24.1250 C   0  0  0  0  0  3  0  0  0  0  0  0
  -16.5050  -29.8460   23.7130 C   0  0  0  0  0  3  0  0  0  0  0  0
  -16.7070  -28.5840   23.1260 C   0  0  0  0  0  3  0  0  0  0  0  0
  -25.8580  -32.5040   23.8640 C   0  0  0  0  0  3  0  0  0  0  0  0
  -25.5570  -33.9020   24.1920 N   0  0  0  0  0  0  0  0  0  0  0  0
  -25.8920  -34.9520   23.4290 C   0  0  0  0  0  0  0  0  0  0  0  0
  -26.5610  -34.8440   22.3970 O   0  0  0  0  0  0  0  0  0  0  0  0
  -24.9660  -34.0620   24.9940 H   0  0  0  0  0  0  0  0  0  0  0  0
  -24.1710  -36.7470   23.0640 C   0  0  0  0  0  1  0  0  0  0  0  0
  -25.4060  -36.3410   23.8820 C   0  0  0  0  0  3  0  0  0  0  0  0
  -27.5450  -37.2120   24.7190 C   0  0  0  0  0  1  0  0  0  0  0  0
  -26.4430  -37.3920   23.7770 N   0  0  0  0  0  0  0  0  0  0  0  0
  -26.0390  -38.3120   23.9330 H   0  0  0  0  0  0  0  0  0  0  0  0
  -26.3800  -31.7290   25.1340 C   0  0  1  0  0  0  0  0  0  0  0  0
  -25.2920  -31.4930   26.2070 C   0  0  0  0  0  1  0  0  0  0  0  0
  -26.9540  -30.3500   24.7320 C   0  0  0  0  0  1  0  0  0  0  0  0
  -27.5380  -32.5170   25.7900 C   0  0  0  0  0  1  0  0  0  0  0  0
  -30.5740  -18.1230   17.8980 C   0  0  0  0  0  2  0  0  0  0  0  0
  -30.7930  -16.8910   18.7840 C   0  0  0  0  0  2  0  0  0  0  0  0
  -30.1250  -16.8700   20.1850 C   0  0  0  0  0  2  0  0  0  0  0  0
  -30.7000  -14.4420   20.5170 C   0  0  0  0  0  0  0  0  0  0  0  0
  -30.4140  -12.3050   19.3630 C   0  0  0  0  0  2  0  0  0  0  0  0
  -29.4860  -12.5490   18.1540 C   0  0  0  0  0  2  0  0  0  0  0  0
  -28.0010  -12.4310   18.5570 C   0  0  0  0  0  2  0  0  0  0  0  0
  -27.6560  -13.2490   19.8310 C   0  0  0  0  0  3  0  0  0  0  0  0
  -28.6930  -12.9900   20.9490 C   0  0  0  0  0  2  0  0  0  0  0  0
  -30.0330  -13.2700   20.4040 N   0  0  0  0  0  0  0  0  0  0  0  0
  -31.8790  -14.5840   20.1840 O   0  0  0  0  0  0  0  0  0  0  0  0
  -29.8990  -15.5060   20.6910 N   0  0  0  0  0  0  0  0  0  0  0  0
  -28.9540  -15.2850   20.9690 H   0  0  0  0  0  0  0  0  0  0  0  0
  -25.2440  -13.8820   20.4810 C   0  0  0  0  0  0  0  0  0  0  0  0
  -24.1630  -13.1200   20.8360 C   0  0  0  0  0  0  0  0  0  0  0  0
  -24.6170  -11.7650   20.8270 C   0  0  0  0  0  0  0  0  0  0  0  0
  -26.2900  -12.9920   20.2840 N   0  0  0  0  0  0  0  0  0  0  0  0
  -25.9130  -11.7150   20.5480 N   0  0  0  0  0  0  0  0  0  0  0  0
  -23.8800  -10.5090   21.0180 C   0  0  0  0  0  0  0  0  0  0  0  0
  -24.2950   -9.5490   21.9690 C   0  0  0  0  0  3  0  0  0  0  0  0
  -23.5620   -8.3560   22.1500 C   0  0  0  0  0  3  0  0  0  0  0  0
  -22.4010   -8.1150   21.3780 C   0  0  0  0  0  0  0  0  0  0  0  0
  -22.0050   -9.0620   20.4190 C   0  0  0  0  0  3  0  0  0  0  0  0
  -22.7380  -10.2470   20.2360 C   0  0  0  0  0  3  0  0  0  0  0  0
  -21.6430   -6.9710   21.4640 O   0  0  0  0  0  0  0  0  0  0  0  0
  -21.5760   -6.2360   22.6190 C   0  0  0  0  0  0  0  0  0  0  0  0
  -21.1400   -6.8030   23.8370 C   0  0  0  0  0  3  0  0  0  0  0  0
  -21.0190   -5.9960   24.9850 C   0  0  0  0  0  3  0  0  0  0  0  0
  -21.3230   -4.6230   24.9160 C   0  0  0  0  0  0  0  0  0  0  0  0
  -21.7540   -4.0560   23.7040 C   0  0  0  0  0  3  0  0  0  0  0  0
  -21.8760   -4.8610   22.5570 C   0  0  0  0  0  0  0  0  0  0  0  0
  -22.2680   -4.3070   21.3860 F   0  0  0  0  0  0  0  0  0  0  0  0
  -21.2000   -3.8430   26.0160 F   0  0  0  0  0  0  0  0  0  0  0  0
  -22.7640  -13.6050   21.0760 C   0  0  0  0  0  0  0  0  0  0  0  0
  -22.0190  -12.9180   21.9360 N   0  0  0  0  0  0  0  0  0  0  0  0
  -22.3380  -14.6250   20.5370 O   0  0  0  0  0  0  0  0  0  0  0  0
  -22.3780  -12.0880   22.3840 H   0  0  0  0  0  0  0  0  0  0  0  0
  -21.0810  -13.2230   22.1460 H   0  0  0  0  0  0  0  0  0  0  0  0
  -25.4210  -15.2510   20.2920 N   0  0  0  0  0  0  0  0  0  0  0  0
  -24.6480  -15.9060   20.3370 H   0  0  0  0  0  0  0  0  0  0  0  0
  -26.2800  -15.6780   19.9700 H   0  0  0  0  0  0  0  0  0  0  0  0
  2  5  1  0
  3  1  1  0
  4  2  1  0
  4  6  1  0
  5  8  1  0
  5  1  1  0
  6  7  1  1
  6  3  1  0
  9  8  1  0
  9 10  1  0
 11 10  1  0
 11 12  1  0
 12 14  1  0
 13 24  2  0
 14 19  1  0
 15 23  1  0
 15 25  1  0
 16 22  1  0
 16 18  1  0
 17 23  1  0
 18 17  1  0
 19 18  2  0
 20 21  1  0
 20 14  2  0
 21 16  2  0
 22 15  1  0
 23 13  1  0
 25 27  2  0
 26 25  1  0
 28 26  1  0
 29 38  2  0
 29 34  1  0
 30 26  1  0
 30 34  1  0
 31 30  1  0
 32 33  1  0
 32 31  1  0
 33 29  1  0
 34 35  2  0
 35 36  1  0
 37 36  2  0
 38 37  1  0
 39 13  1  0
 39 40  1  0
 39 49  1  0
 40 43  1  0
 41 45  1  0
 41 40  1  0
 42 41  2  0
 45 44  1  0
 47 45  1  0
 47 48  1  0
 47 46  1  0
 49 52  1  1
 49 50  1  0
 51 49  1  0
 53  6  1  0
 53 54  1  0
 54 55  1  0
 55 64  1  0
 56 64  1  0
 57 62  1  0
 58 59  1  0
 58 57  1  0
 60 59  1  0
 60 69  1  0
 60 61  1  0
 62 56  1  0
 62 61  1  0
 63 56  2  0
 64 65  1  0
 66 67  2  0
 67 86  1  0
 68 67  1  0
 68 71  1  0
 69 66  1  0
 69 70  1  0
 70 68  2  0
 71 72  1  0
 72 73  2  0
 74 77  1  0
 74 73  1  0
 75 74  2  0
 76 75  1  0
 76 71  2  0
 77 78  1  0
 78 79  1  0
 79 80  2  0
 81 80  1  0
 81 85  1  0
 82 81  2  0
 83 78  2  0
 83 82  1  0
 84 83  1  0
 86 87  1  0
 87 90  1  0
 87 89  1  0
 88 86  2  0
 91 92  1  0
 91 66  1  0
 93 91  1  0
M  ISO  4  11 101  12 101  56 100  64 100
M  END
>  <TORSDO>  (74) 
F 23

>  <SCORE>  (74) 
-12.535

>  <name>  (74) 
74

>  <ligand_id>  (74) 
74

>  <original_smiles>  (74) 
[H]c1c([H])c([H])c2c(c1[H])C([H])([H])C([H])([H])C([H])([H])C2([H])N([H])C(=O)C1([H])N(C(=O)C([H])(N([H])C(=O)C([H])(N([H])C([H])([H])[H])C([H])([H])[H])C(C([H])([H])[H])(C([H])([H])[H])C([H])([H])[H])C([H])([H])c2c([H])c(OC([H])([H])C([H])([H])C([H])([H])C([H])([H])N3C([H])([H])C([H])([H])[N+]([H])(C([H])([H])C([H])([H])C([H])([H])N([H])C(=O)N4C([H])([H])C([H])([H])C([H])([H])C([H])(n5nc(-c6c([H])c([H])c(Oc7c([H])c([H])c(F)c([H])c7F)c([H])c6[H])c(C(=O)N([H])[H])c5N([H])[H])C4([H])[H])C([H])([H])C3([H])[H])c([H])c([H])c2C1([H])[H]

>  <smiles>  (74) 
[H]c1c([H])c([H])c2c(c1[H])C([H])([H])C([H])([H])C([H])([H])C2([H])N([H])C(=O)C1([H])N(C(=O)C([H])(N([H])C(=O)C([H])(N([H])C([H])([H])[H])C([H])([H])[H])C(C([H])([H])[H])(C([H])([H])[H])C([H])([H])[H])C([H])([H])c2c([H])c(OC([H])([H])C([H])([H])C([H])([H])C([H])([H])N3C([H])([H])C([H])([H])[N+]([H])(C([H])([H])C([H])([H])C([H])([H])N([H])C(=O)N4C([H])([H])C([H])([H])C([H])([H])C([H])(n5nc(-c6c([H])c([H])c(Oc7c([H])c([H])c(F)c([H])c7F)c([H])c6[H])c(C(=O)N([H])[H])c5N([H])[H])C4([H])[H])C([H])([H])C3([H])[H])c([H])c([H])c2C1([H])[H]

$$$$
75:0:0
     RDKit          3D

 96104  0  0  1  0  0  0  0  0999 V2000
  -30.5460  -20.5210   21.3650 C   0  0  0  0  0  2  0  0  0  0  0  0
  -28.8340  -20.4320   19.6170 C   0  0  0  0  0  2  0  0  0  0  0  0
  -30.5480  -22.0920   21.2640 C   0  0  0  0  0  2  0  0  0  0  0  0
  -28.8660  -21.9970   19.4680 C   0  0  0  0  0  2  0  0  0  0  0  0
  -30.2160  -19.8410   20.0190 C   0  0  0  0  0  3  0  0  0  0  0  0
  -29.3040  -22.7260   20.7000 N   0  0  2  0  0  4  0  0  0  0  0  0
  -28.5820  -22.5740   21.3900 H   0  0  0  0  0  0  0  0  0  0  0  0
  -29.4620  -24.2420   20.5500 C   0  0  0  0  0  3  0  0  0  0  0  0
  -28.1830  -25.1310   20.2730 C   0  0  0  0  0  3  0  0  0  0  0  0
  -28.3690  -26.5960   20.3120 O   0  0  0  0  0  0  0  0  0  0  0  0
  -24.5600  -31.9340   23.2860 C   0  0  0  0  0  0  0  0  0  0  0  0
  -27.2280  -27.4080   20.2550 C   0  0  0  0  0  0  0  0  0  0  0  0
  -23.3750  -30.5250   21.6400 C   0  0  0  0  0  3  0  0  0  0  0  0
  -24.8460  -28.9850   20.2270 C   0  0  0  0  0  0  0  0  0  0  0  0
  -25.9110  -30.8680   21.4690 C   0  0  0  0  0  2  0  0  0  0  0  0
  -26.0060  -29.4910   20.8270 C   0  0  0  0  0  0  0  0  0  0  0  0
  -27.1990  -28.7150   20.8290 C   0  0  0  0  0  3  0  0  0  0  0  0
  -26.0410  -26.9490   19.6360 C   0  0  0  0  0  3  0  0  0  0  0  0
  -24.8640  -27.7190   19.6240 C   0  0  0  0  0  3  0  0  0  0  0  0
  -23.6030  -29.8490   20.2630 C   0  0  0  0  0  2  0  0  0  0  0  0
  -24.6340  -31.1250   22.1900 N   0  0  0  0  0  0  0  0  0  0  0  0
  -23.4720  -32.2040   23.8140 O   0  0  0  0  0  0  0  0  0  0  0  0
  -22.7150  -29.5030   22.5970 C   0  0  0  0  0  0  0  0  0  0  0  0
  -21.3930  -29.3130   22.4590 N   0  0  0  0  0  0  0  0  0  0  0  0
  -23.3930  -28.8840   23.4210 O   0  0  0  0  0  0  0  0  0  0  0  0
  -20.9060  -29.8670   21.7680 H   0  0  0  0  0  0  0  0  0  0  0  0
  -18.0200  -28.0990   22.9370 C   0  0  0  0  0  0  0  0  0  0  0  0
  -20.5740  -28.3720   23.2240 C   0  0  0  0  0  3  0  0  0  0  0  0
  -20.6890  -26.9410   22.6520 C   0  0  0  0  0  2  0  0  0  0  0  0
  -19.5960  -26.6090   21.6310 C   0  0  0  0  0  2  0  0  0  0  0  0
  -18.2090  -26.7480   22.2650 C   0  0  0  0  0  2  0  0  0  0  0  0
  -19.1320  -28.8680   23.3720 C   0  0  0  0  0  0  0  0  0  0  0  0
  -18.9020  -30.1310   23.9610 C   0  0  0  0  0  3  0  0  0  0  0  0
  -17.5930  -30.6250   24.1180 C   0  0  0  0  0  3  0  0  0  0  0  0
  -16.4960  -29.8530   23.6970 C   0  0  0  0  0  3  0  0  0  0  0  0
  -16.7110  -28.5920   23.1140 C   0  0  0  0  0  3  0  0  0  0  0  0
  -25.8360  -32.5750   23.9160 C   0  0  0  0  0  3  0  0  0  0  0  0
  -26.3350  -31.8220   25.2100 C   0  0  1  0  0  0  0  0  0  0  0  0
  -25.2270  -31.5940   26.2640 C   0  0  0  0  0  1  0  0  0  0  0  0
  -26.9290  -30.4410   24.8450 C   0  0  0  0  0  1  0  0  0  0  0  0
  -27.4760  -32.6260   25.8770 C   0  0  0  0  0  1  0  0  0  0  0  0
  -25.5240  -33.9780   24.2200 N   0  0  0  0  0  0  0  0  0  0  0  0
  -25.8820  -35.0200   23.4570 C   0  0  0  0  0  0  0  0  0  0  0  0
  -26.5770  -34.9000   22.4450 O   0  0  0  0  0  0  0  0  0  0  0  0
  -24.9120  -34.1460   25.0050 H   0  0  0  0  0  0  0  0  0  0  0  0
  -24.1890  -36.8270   23.0120 C   0  0  0  0  0  1  0  0  0  0  0  0
  -25.3870  -36.4160   23.8830 C   0  0  0  0  0  3  0  0  0  0  0  0
  -27.4850  -37.2890   24.8130 C   0  0  0  0  0  1  0  0  0  0  0  0
  -26.4350  -37.4580   23.8110 N   0  0  0  0  0  0  0  0  0  0  0  0
  -26.0320  -38.3830   23.9270 H   0  0  0  0  0  0  0  0  0  0  0  0
  -30.4910  -18.2630   19.8330 C   0  0  0  0  0  3  0  0  0  0  0  0
  -30.0880  -17.8550   18.3870 C   0  0  0  0  0  2  0  0  0  0  0  0
  -30.9300  -16.7840   17.6580 C   0  0  0  0  0  2  0  0  0  0  0  0
  -32.3830  -17.0290   17.7160 N   0  0  0  0  0  4  0  0  0  0  0  0
  -32.6110  -17.9450   17.3710 H   0  0  0  0  0  0  0  0  0  0  0  0
  -32.8640  -16.3560   17.1480 H   0  0  0  0  0  0  0  0  0  0  0  0
  -32.7240  -16.9330   18.6570 H   0  0  0  0  0  0  0  0  0  0  0  0
  -30.0490  -17.2440   20.9690 C   0  0  0  0  0  2  0  0  0  0  0  0
  -30.6920  -14.7370   20.4090 C   0  0  0  0  0  0  0  0  0  0  0  0
  -30.4800  -12.5530   19.2390 C   0  0  0  0  0  2  0  0  0  0  0  0
  -29.5270  -12.7140   18.0330 C   0  0  0  0  0  2  0  0  0  0  0  0
  -28.0530  -12.5620   18.4590 C   0  0  0  0  0  2  0  0  0  0  0  0
  -27.7020  -13.3810   19.7300 C   0  0  0  0  0  3  0  0  0  0  0  0
  -28.7610  -13.1720   20.8350 C   0  0  0  0  0  2  0  0  0  0  0  0
  -30.0710  -13.5280   20.2650 N   0  0  0  0  0  0  0  0  0  0  0  0
  -31.8670  -14.9220   20.0820 O   0  0  0  0  0  0  0  0  0  0  0  0
  -29.8520  -15.7810   20.6750 N   0  0  0  0  0  0  0  0  0  0  0  0
  -28.9010  -15.4710   20.8090 H   0  0  0  0  0  0  0  0  0  0  0  0
  -25.2950  -13.9620   20.4200 C   0  0  0  0  0  0  0  0  0  0  0  0
  -24.2340  -13.1780   20.7880 C   0  0  0  0  0  0  0  0  0  0  0  0
  -24.7140  -11.8320   20.7750 C   0  0  0  0  0  0  0  0  0  0  0  0
  -26.3520  -13.0910   20.2070 N   0  0  0  0  0  0  0  0  0  0  0  0
  -26.0070  -11.8070   20.4810 N   0  0  0  0  0  0  0  0  0  0  0  0
  -24.0030  -10.5620   20.9690 C   0  0  0  0  0  0  0  0  0  0  0  0
  -24.4270   -9.6170   21.9290 C   0  0  0  0  0  3  0  0  0  0  0  0
  -23.7150   -8.4120   22.1090 C   0  0  0  0  0  3  0  0  0  0  0  0
  -22.5650   -8.1430   21.3300 C   0  0  0  0  0  0  0  0  0  0  0  0
  -22.1610   -9.0770   20.3590 C   0  0  0  0  0  3  0  0  0  0  0  0
  -22.8730  -10.2740   20.1770 C   0  0  0  0  0  3  0  0  0  0  0  0
  -21.8260   -6.9880   21.4180 O   0  0  0  0  0  0  0  0  0  0  0  0
  -21.7480   -6.2710   22.5850 C   0  0  0  0  0  0  0  0  0  0  0  0
  -21.2400   -6.8360   23.7740 C   0  0  0  0  0  3  0  0  0  0  0  0
  -21.1120   -6.0440   24.9330 C   0  0  0  0  0  3  0  0  0  0  0  0
  -21.4820   -4.6860   24.9030 C   0  0  0  0  0  0  0  0  0  0  0  0
  -21.9830   -4.1190   23.7170 C   0  0  0  0  0  3  0  0  0  0  0  0
  -22.1120   -4.9100   22.5610 C   0  0  0  0  0  0  0  0  0  0  0  0
  -22.5740   -4.3530   21.4150 F   0  0  0  0  0  0  0  0  0  0  0  0
  -21.3520   -3.9210   26.0120 F   0  0  0  0  0  0  0  0  0  0  0  0
  -22.8270  -13.6370   21.0390 C   0  0  0  0  0  0  0  0  0  0  0  0
  -22.0980  -12.9370   21.9000 N   0  0  0  0  0  0  0  0  0  0  0  0
  -22.3800  -14.6530   20.5050 O   0  0  0  0  0  0  0  0  0  0  0  0
  -22.4700  -12.1140   22.3500 H   0  0  0  0  0  0  0  0  0  0  0  0
  -21.1530  -13.2240   22.1120 H   0  0  0  0  0  0  0  0  0  0  0  0
  -25.4420  -15.3320   20.2280 N   0  0  0  0  0  0  0  0  0  0  0  0
  -24.6610  -15.9750   20.3230 H   0  0  0  0  0  0  0  0  0  0  0  0
  -26.2760  -15.7790   19.8720 H   0  0  0  0  0  0  0  0  0  0  0  0
  2  5  1  0
  3  1  1  0
  4  2  1  0
  4  6  1  0
  5 51  1  0
  5  1  1  0
  6  3  1  0
  6  7  1  1
  8  6  1  0
  9 10  1  0
  9  8  2  0
 11 22  2  0
 12 10  1  0
 12 17  1  0
 13 21  1  0
 13 23  1  0
 14 20  1  0
 14 16  1  0
 15 21  1  0
 16 17  2  0
 16 15  1  0
 18 12  2  0
 19 18  1  0
 19 14  2  0
 20 13  1  0
 21 11  1  0
 23 25  2  0
 24 23  1  0
 26 24  1  0
 27 36  2  0
 27 32  1  0
 28 24  1  0
 28 32  1  0
 29 28  1  0
 30 31  1  0
 30 29  1  0
 31 27  1  0
 32 33  2  0
 33 34  1  0
 35 34  2  0
 36 35  1  0
 37 11  1  0
 37 42  1  0
 37 38  1  0
 38 41  1  1
 38 39  1  0
 40 38  1  0
 42 45  1  0
 43 47  1  0
 43 42  1  0
 44 43  2  0
 47 46  1  0
 49 47  1  0
 49 50  1  0
 49 48  1  0
 51 52  1  0
 51 58  1  0
 53 54  1  0
 53 52  1  0
 54 57  1  0
 55 54  1  0
 56 54  1  0
 59 67  1  0
 60 65  1  0
 61 62  1  0
 61 60  1  0
 63 62  1  0
 63 72  1  0
 63 64  1  0
 65 59  1  0
 65 64  1  0
 66 59  2  0
 67 68  1  0
 67 58  1  0
 69 70  2  0
 70 89  1  0
 71 70  1  0
 71 74  1  0
 72 69  1  0
 72 73  1  0
 73 71  2  0
 74 75  1  0
 75 76  2  0
 77 80  1  0
 77 76  1  0
 78 77  2  0
 79 78  1  0
 79 74  2  0
 80 81  1  0
 81 82  1  0
 82 83  2  0
 84 83  1  0
 84 88  1  0
 85 84  2  0
 86 81  2  0
 86 85  1  0
 87 86  1  0
 89 90  1  0
 90 93  1  0
 90 92  1  0
 91 89  2  0
 94 95  1  0
 94 69  1  0
 96 94  1  0
M  ISO  4   9 101  10 101  59 100  67 100
M  END
>  <TORSDO>  (75) 
F 23

>  <SCORE>  (75) 
-12.834

>  <name>  (75) 
75

>  <ligand_id>  (75) 
75

>  <original_smiles>  (75) 
[H]c1c([H])c([H])c2c(c1[H])C([H])([H])C([H])([H])C([H])([H])C2([H])N([H])C(=O)C1([H])N(C(=O)C([H])(N([H])C(=O)C([H])(N([H])C([H])([H])[H])C([H])([H])[H])C(C([H])([H])[H])(C([H])([H])[H])C([H])([H])[H])C([H])([H])c2c([H])c(OC([H])([H])C([H])([H])[N+]3([H])C([H])([H])C([H])([H])C([H])(C([H])(C([H])([H])N([H])C(=O)N4C([H])([H])C([H])([H])C([H])([H])C([H])(n5nc(-c6c([H])c([H])c(Oc7c([H])c([H])c(F)c([H])c7F)c([H])c6[H])c(C(=O)N([H])[H])c5N([H])[H])C4([H])[H])C([H])([H])C([H])([H])[N+]([H])([H])[H])C([H])([H])C3([H])[H])c([H])c([H])c2C1([H])[H]

>  <smiles>  (75) 
[H]c1c([H])c([H])c2c(c1[H])C([H])([H])C([H])([H])C([H])([H])C2([H])N([H])C(=O)C1([H])N(C(=O)C([H])(N([H])C(=O)C([H])(N([H])C([H])([H])[H])C([H])([H])[H])C(C([H])([H])[H])(C([H])([H])[H])C([H])([H])[H])C([H])([H])c2c([H])c(OC([H])([H])C([H])([H])[N+]3([H])C([H])([H])C([H])([H])C([H])(C([H])(C([H])([H])N([H])C(=O)N4C([H])([H])C([H])([H])C([H])([H])C([H])(n5nc(-c6c([H])c([H])c(Oc7c([H])c([H])c(F)c([H])c7F)c([H])c6[H])c(C(=O)N([H])[H])c5N([H])[H])C4([H])[H])C([H])([H])C([H])([H])[N+]([H])([H])[H])C([H])([H])C3([H])[H])c([H])c([H])c2C1([H])[H]

$$$$
76:0:0
     RDKit          3D

 89 97  0  0  1  0  0  0  0  0999 V2000
  -28.3020  -19.0150   18.0000 C   0  0  0  0  0  2  0  0  0  0  0  0
  -29.7350  -18.6720   18.3720 C   0  0  0  0  0  2  0  0  0  0  0  0
  -28.0630  -20.3400   18.7320 C   0  0  0  0  0  2  0  0  0  0  0  0
  -29.8120  -19.0420   19.8600 C   0  0  0  0  0  3  0  0  0  0  0  0
  -28.8460  -20.3170   19.9980 N   0  0  1  0  0  4  0  0  0  0  0  0
  -28.1720  -20.0330   20.6940 H   0  0  0  0  0  0  0  0  0  0  0  0
  -29.6590  -17.6310   20.7810 C   0  0  0  0  0  2  0  0  0  0  0  0
  -30.4960  -14.9570   20.3320 C   0  0  0  0  0  0  0  0  0  0  0  0
  -30.3910  -12.6140   19.3620 C   0  0  0  0  0  2  0  0  0  0  0  0
  -29.4460  -12.5670   18.1400 C   0  0  0  0  0  2  0  0  0  0  0  0
  -27.9800  -12.3660   18.5750 C   0  0  0  0  0  2  0  0  0  0  0  0
  -27.5780  -13.2790   19.7650 C   0  0  0  0  0  3  0  0  0  0  0  0
  -28.6450  -13.2850   20.8770 C   0  0  0  0  0  2  0  0  0  0  0  0
  -29.9060  -13.7000   20.2510 N   0  0  0  0  0  0  0  0  0  0  0  0
  -31.7210  -15.0310   20.2010 O   0  0  0  0  0  0  0  0  0  0  0  0
  -29.6620  -16.1080   20.3190 N   0  0  0  0  0  0  0  0  0  0  0  0
  -28.7200  -15.8110   20.1230 H   0  0  0  0  0  0  0  0  0  0  0  0
  -25.2030  -13.8610   20.5180 C   0  0  0  0  0  0  0  0  0  0  0  0
  -24.1390  -13.0860   20.8930 C   0  0  0  0  0  0  0  0  0  0  0  0
  -24.6020  -11.7350   20.8620 C   0  0  0  0  0  0  0  0  0  0  0  0
  -26.2440  -12.9810   20.2740 N   0  0  0  0  0  0  0  0  0  0  0  0
  -25.8930  -11.6970   20.5470 N   0  0  0  0  0  0  0  0  0  0  0  0
  -23.8730  -10.4730   21.0480 C   0  0  0  0  0  0  0  0  0  0  0  0
  -24.3060   -9.5020   21.9780 C   0  0  0  0  0  3  0  0  0  0  0  0
  -23.5730   -8.3090   22.1570 C   0  0  0  0  0  3  0  0  0  0  0  0
  -22.3970   -8.0780   21.4080 C   0  0  0  0  0  0  0  0  0  0  0  0
  -21.9810   -9.0390   20.4700 C   0  0  0  0  0  3  0  0  0  0  0  0
  -22.7120  -10.2240   20.2890 C   0  0  0  0  0  3  0  0  0  0  0  0
  -21.6360   -6.9360   21.4970 O   0  0  0  0  0  0  0  0  0  0  0  0
  -21.5960   -6.1860   22.6430 C   0  0  0  0  0  0  0  0  0  0  0  0
  -21.1880   -6.7360   23.8780 C   0  0  0  0  0  3  0  0  0  0  0  0
  -21.0920   -5.9150   25.0190 C   0  0  0  0  0  3  0  0  0  0  0  0
  -21.3920   -4.5420   24.9260 C   0  0  0  0  0  0  0  0  0  0  0  0
  -21.7890   -3.9900   23.6950 C   0  0  0  0  0  3  0  0  0  0  0  0
  -21.8860   -4.8090   22.5560 C   0  0  0  0  0  0  0  0  0  0  0  0
  -22.2500   -4.2680   21.3690 F   0  0  0  0  0  0  0  0  0  0  0  0
  -21.2910   -3.7500   26.0190 F   0  0  0  0  0  0  0  0  0  0  0  0
  -22.7410  -13.5650   21.1600 C   0  0  0  0  0  0  0  0  0  0  0  0
  -22.0090  -12.8730   22.0270 N   0  0  0  0  0  0  0  0  0  0  0  0
  -22.3070  -14.5900   20.6360 O   0  0  0  0  0  0  0  0  0  0  0  0
  -22.3670  -12.0430   22.4750 H   0  0  0  0  0  0  0  0  0  0  0  0
  -21.0710  -13.1760   22.2420 H   0  0  0  0  0  0  0  0  0  0  0  0
  -25.3620  -15.2300   20.3290 N   0  0  0  0  0  0  0  0  0  0  0  0
  -24.5850  -15.8760   20.4300 H   0  0  0  0  0  0  0  0  0  0  0  0
  -26.1890  -15.6660   19.9450 H   0  0  0  0  0  0  0  0  0  0  0  0
  -29.2410  -21.8000   20.4500 C   0  0  0  0  0  2  0  0  0  0  0  0
  -28.6150  -23.2640   19.8100 C   0  0  0  0  0  2  0  0  0  0  0  0
  -28.2800  -24.7040   20.6420 C   0  0  0  0  0  2  0  0  0  0  0  0
  -28.3290  -26.1960   20.1780 O   0  0  0  0  0  0  0  0  0  0  0  0
  -24.6160  -31.8430   23.2170 C   0  0  0  0  0  0  0  0  0  0  0  0
  -27.2260  -27.1240   20.2190 C   0  0  0  0  0  0  0  0  0  0  0  0
  -23.4210  -30.4320   21.5840 C   0  0  0  0  0  3  0  0  0  0  0  0
  -24.8770  -28.8430   20.1770 C   0  0  0  0  0  0  0  0  0  0  0  0
  -25.9710  -30.7090   21.4140 C   0  0  0  0  0  2  0  0  0  0  0  0
  -26.0520  -29.3100   20.7790 C   0  0  0  0  0  0  0  0  0  0  0  0
  -27.2280  -28.4680   20.7740 C   0  0  0  0  0  3  0  0  0  0  0  0
  -26.0170  -26.7450   19.6000 C   0  0  0  0  0  3  0  0  0  0  0  0
  -24.8710  -27.5750   19.5710 C   0  0  0  0  0  3  0  0  0  0  0  0
  -23.6450  -29.7360   20.2130 C   0  0  0  0  0  2  0  0  0  0  0  0
  -24.6900  -31.0180   22.1260 N   0  0  0  0  0  0  0  0  0  0  0  0
  -23.5290  -32.1270   23.7430 O   0  0  0  0  0  0  0  0  0  0  0  0
  -22.7410  -29.4340   22.5550 C   0  0  0  0  0  0  0  0  0  0  0  0
  -21.4110  -29.2700   22.4340 N   0  0  0  0  0  0  0  0  0  0  0  0
  -23.4120  -28.8090   23.3790 O   0  0  0  0  0  0  0  0  0  0  0  0
  -20.9230  -29.8310   21.7490 H   0  0  0  0  0  0  0  0  0  0  0  0
  -18.0270  -28.0780   22.9450 C   0  0  0  0  0  0  0  0  0  0  0  0
  -20.5880  -28.3370   23.2070 C   0  0  0  0  0  3  0  0  0  0  0  0
  -20.6830  -26.9020   22.6360 C   0  0  0  0  0  2  0  0  0  0  0  0
  -19.5800  -26.5790   21.6240 C   0  0  0  0  0  2  0  0  0  0  0  0
  -18.1990  -26.7270   22.2700 C   0  0  0  0  0  2  0  0  0  0  0  0
  -19.1480  -28.8410   23.3690 C   0  0  0  0  0  0  0  0  0  0  0  0
  -18.9300  -30.1050   23.9600 C   0  0  0  0  0  3  0  0  0  0  0  0
  -17.6260  -30.6060   24.1290 C   0  0  0  0  0  3  0  0  0  0  0  0
  -16.5210  -29.8400   23.7200 C   0  0  0  0  0  3  0  0  0  0  0  0
  -16.7220  -28.5770   23.1330 C   0  0  0  0  0  3  0  0  0  0  0  0
  -25.8920  -32.4860   23.8440 C   0  0  0  0  0  3  0  0  0  0  0  0
  -26.4030  -31.7220   25.1280 C   0  0  1  0  0  0  0  0  0  0  0  0
  -25.3090  -31.4920   26.1970 C   0  0  0  0  0  1  0  0  0  0  0  0
  -26.9840  -30.3390   24.7500 C   0  0  0  0  0  1  0  0  0  0  0  0
  -27.5520  -32.5200   25.7890 C   0  0  0  0  0  1  0  0  0  0  0  0
  -25.5760  -33.8860   24.1730 N   0  0  0  0  0  0  0  0  0  0  0  0
  -25.9100  -34.9430   23.4190 C   0  0  0  0  0  0  0  0  0  0  0  0
  -26.5820  -34.8410   22.3900 O   0  0  0  0  0  0  0  0  0  0  0  0
  -24.9830  -34.0390   24.9750 H   0  0  0  0  0  0  0  0  0  0  0  0
  -24.1830  -36.7420   23.0670 C   0  0  0  0  0  1  0  0  0  0  0  0
  -25.4230  -36.3320   23.8790 C   0  0  0  0  0  3  0  0  0  0  0  0
  -27.5590  -37.2160   24.7110 C   0  0  0  0  0  1  0  0  0  0  0  0
  -26.4560  -37.3860   23.7690 N   0  0  0  0  0  0  0  0  0  0  0  0
  -26.0480  -38.3050   23.9170 H   0  0  0  0  0  0  0  0  0  0  0  0
  1  2  1  0
  1  3  1  0
  2  4  1  0
  3  5  1  0
  4  5  1  0
  4  7  1  0
  5 46  1  0
  5  6  1  1
  9 14  1  0
 10 11  1  0
 10  9  1  0
 12 11  1  0
 12 21  1  0
 12 13  1  0
 14  8  1  0
 14 13  1  0
 15  8  2  0
 16  8  1  0
 16  7  1  0
 17 16  1  0
 18 19  2  0
 19 38  1  0
 20 19  1  0
 20 23  1  0
 21 18  1  0
 21 22  1  0
 22 20  2  0
 23 24  1  0
 24 25  2  0
 26 29  1  0
 26 25  1  0
 27 26  2  0
 28 27  1  0
 28 23  2  0
 29 30  1  0
 30 31  1  0
 31 32  2  0
 33 32  1  0
 33 37  1  0
 34 33  2  0
 35 30  2  0
 35 34  1  0
 36 35  1  0
 38 39  1  0
 39 42  1  0
 39 41  1  0
 40 38  2  0
 43 44  1  0
 43 18  1  0
 45 43  1  0
 47 46  1  0
 47 48  1  0
 49 51  1  0
 49 48  1  0
 50 61  2  0
 51 56  1  0
 52 60  1  0
 52 62  1  0
 53 59  1  0
 53 55  1  0
 54 60  1  0
 55 54  1  0
 56 55  2  0
 57 51  2  0
 58 57  1  0
 58 53  2  0
 59 52  1  0
 60 50  1  0
 62 64  2  0
 63 62  1  0
 65 63  1  0
 66 75  2  0
 66 71  1  0
 67 63  1  0
 67 71  1  0
 68 67  1  0
 69 70  1  0
 69 68  1  0
 70 66  1  0
 71 72  2  0
 72 73  1  0
 74 73  2  0
 75 74  1  0
 76 50  1  0
 76 81  1  0
 76 77  1  0
 77 80  1  1
 77 78  1  0
 79 77  1  0
 81 84  1  0
 82 86  1  0
 82 81  1  0
 83 82  2  0
 86 85  1  0
 88 86  1  0
 88 89  1  0
 88 87  1  0
M  ISO  4   8 100  16 100  48 101  49 101
M  END
>  <TORSDO>  (76) 
F 20

>  <SCORE>  (76) 
-14.998

>  <name>  (76) 
76

>  <ligand_id>  (76) 
76

>  <original_smiles>  (76) 
[H]c1c([H])c([H])c2c(c1[H])C([H])([H])C([H])([H])C([H])([H])C2([H])N([H])C(=O)C1([H])N(C(=O)C([H])(N([H])C(=O)C([H])(N([H])C([H])([H])[H])C([H])([H])[H])C(C([H])([H])[H])(C([H])([H])[H])C([H])([H])[H])C([H])([H])c2c([H])c(OC([H])([H])C([H])([H])C([H])([H])[N+]3([H])C([H])([H])C([H])([H])C([H])([H])C3([H])C([H])([H])N([H])C(=O)N3C([H])([H])C([H])([H])C([H])([H])C([H])(n4nc(-c5c([H])c([H])c(Oc6c([H])c([H])c(F)c([H])c6F)c([H])c5[H])c(C(=O)N([H])[H])c4N([H])[H])C3([H])[H])c([H])c([H])c2C1([H])[H]

>  <smiles>  (76) 
[H]c1c([H])c([H])c2c(c1[H])C([H])([H])C([H])([H])C([H])([H])C2([H])N([H])C(=O)C1([H])N(C(=O)C([H])(N([H])C(=O)C([H])(N([H])C([H])([H])[H])C([H])([H])[H])C(C([H])([H])[H])(C([H])([H])[H])C([H])([H])[H])C([H])([H])c2c([H])c(OC([H])([H])C([H])([H])C([H])([H])[N+]3([H])C([H])([H])C([H])([H])C([H])([H])C3([H])C([H])([H])N([H])C(=O)N3C([H])([H])C([H])([H])C([H])([H])C([H])(n4nc(-c5c([H])c([H])c(Oc6c([H])c([H])c(F)c([H])c6F)c([H])c5[H])c(C(=O)N([H])[H])c4N([H])[H])C3([H])[H])c([H])c([H])c2C1([H])[H]

$$$$
77:0:0
     RDKit          3D

104113  0  0  1  0  0  0  0  0999 V2000
  -29.4110  -19.6260   19.8410 C   0  0  0  0  0  3  0  0  0  0  0  0
  -30.7280  -21.6950   22.8760 C   0  0  0  0  0  2  0  0  0  0  0  0
  -32.2230  -19.7070   22.4850 C   0  0  0  0  0  2  0  0  0  0  0  0
  -29.8570  -21.3540   21.6320 C   0  0  0  0  0  2  0  0  0  0  0  0
  -31.6480  -19.7480   21.0430 C   0  0  0  0  0  2  0  0  0  0  0  0
  -31.3410  -20.4340   23.5300 C   0  0  0  0  0  3  0  0  0  0  0  0
  -30.1850  -20.0230   21.0530 N   0  0  2  0  0  4  0  0  0  0  0  0
  -29.8160  -19.3620   21.7230 H   0  0  0  0  0  0  0  0  0  0  0  0
  -32.0790  -20.7260   24.7780 N   0  0  0  0  0  4  0  0  0  0  0  0
  -32.8210  -21.3860   24.6320 H   0  0  0  0  0  0  0  0  0  0  0  0
  -32.4850  -19.8860   25.1530 H   0  0  0  0  0  0  0  0  0  0  0  0
  -31.4660  -21.0990   25.4810 H   0  0  0  0  0  0  0  0  0  0  0  0
  -29.0670  -20.8690   18.7740 C   0  0  0  0  0  2  0  0  0  0  0  0
  -29.0280  -23.3340   17.8570 C   0  0  0  0  0  3  0  0  0  0  0  0
  -27.7200  -23.1080   19.8120 C   0  0  0  0  0  3  0  0  0  0  0  0
  -28.6420  -24.7150   17.7430 C   0  0  0  0  0  3  0  0  0  0  0  0
  -27.3370  -24.5130   19.6960 C   0  0  0  0  0  3  0  0  0  0  0  0
  -28.6200  -22.4450   18.9020 C   0  0  0  0  0  0  0  0  0  0  0  0
  -27.7870  -25.3960   18.6530 C   0  0  0  0  0  0  0  0  0  0  0  0
  -27.6020  -26.8320   18.5120 O   0  0  0  0  0  0  0  0  0  0  0  0
  -24.4290  -31.7570   22.9090 C   0  0  0  0  0  0  0  0  0  0  0  0
  -26.4860  -27.6580   18.8290 C   0  0  0  0  0  0  0  0  0  0  0  0
  -22.9770  -30.5890   21.2910 C   0  0  0  0  0  3  0  0  0  0  0  0
  -24.1740  -29.2810   19.4350 C   0  0  0  0  0  0  0  0  0  0  0  0
  -25.4620  -30.9530   20.7610 C   0  0  0  0  0  2  0  0  0  0  0  0
  -25.4290  -29.6750   19.9130 C   0  0  0  0  0  0  0  0  0  0  0  0
  -26.5820  -28.8770   19.5980 C   0  0  0  0  0  3  0  0  0  0  0  0
  -25.2030  -27.3380   18.3420 C   0  0  0  0  0  3  0  0  0  0  0  0
  -24.0670  -28.1270   18.6390 C   0  0  0  0  0  3  0  0  0  0  0  0
  -22.9730  -30.1360   19.8060 C   0  0  0  0  0  2  0  0  0  0  0  0
  -24.3170  -31.1130   21.7080 N   0  0  0  0  0  0  0  0  0  0  0  0
  -23.4460  -31.9340   23.6440 O   0  0  0  0  0  0  0  0  0  0  0  0
  -22.4720  -29.4280   22.1810 C   0  0  0  0  0  0  0  0  0  0  0  0
  -21.1590  -29.1490   22.1320 N   0  0  0  0  0  0  0  0  0  0  0  0
  -23.2620  -28.7870   22.8830 O   0  0  0  0  0  0  0  0  0  0  0  0
  -20.5750  -29.7290   21.5460 H   0  0  0  0  0  0  0  0  0  0  0  0
  -17.9750  -27.4950   22.6110 C   0  0  0  0  0  0  0  0  0  0  0  0
  -20.4830  -28.0680   22.8550 C   0  0  0  0  0  3  0  0  0  0  0  0
  -20.7540  -26.6980   22.1900 C   0  0  0  0  0  2  0  0  0  0  0  0
  -19.6780  -26.2980   21.1730 C   0  0  0  0  0  2  0  0  0  0  0  0
  -18.3050  -26.2240   21.8460 C   0  0  0  0  0  2  0  0  0  0  0  0
  -18.9970  -28.3680   23.0740 C   0  0  0  0  0  0  0  0  0  0  0  0
  -18.6320  -29.5520   23.7500 C   0  0  0  0  0  3  0  0  0  0  0  0
  -17.2790  -29.8690   23.9660 C   0  0  0  0  0  3  0  0  0  0  0  0
  -16.2720  -28.9950   23.5180 C   0  0  0  0  0  3  0  0  0  0  0  0
  -16.6210  -27.8090   22.8490 C   0  0  0  0  0  3  0  0  0  0  0  0
  -25.7950  -32.3220   23.4100 C   0  0  0  0  0  3  0  0  0  0  0  0
  -26.5050  -31.3910   24.4710 C   0  0  1  0  0  0  0  0  0  0  0  0
  -25.5940  -30.9920   25.6570 C   0  0  0  0  0  1  0  0  0  0  0  0
  -27.0110  -30.0870   23.8070 C   0  0  0  0  0  1  0  0  0  0  0  0
  -27.7480  -32.1050   25.0500 C   0  0  0  0  0  1  0  0  0  0  0  0
  -25.5440  -33.6500   23.9850 N   0  0  0  0  0  0  0  0  0  0  0  0
  -25.8310  -34.8110   23.3820 C   0  0  0  0  0  0  0  0  0  0  0  0
  -26.4100  -34.8730   22.2930 O   0  0  0  0  0  0  0  0  0  0  0  0
  -25.0210  -33.6760   24.8490 H   0  0  0  0  0  0  0  0  0  0  0  0
  -24.1440  -36.6760   23.4460 C   0  0  0  0  0  1  0  0  0  0  0  0
  -25.4160  -36.1120   24.0990 C   0  0  0  0  0  3  0  0  0  0  0  0
  -27.6140  -36.8010   24.9530 C   0  0  0  0  0  1  0  0  0  0  0  0
  -26.4760  -37.1440   24.1060 N   0  0  0  0  0  0  0  0  0  0  0  0
  -26.1050  -38.0360   24.4230 H   0  0  0  0  0  0  0  0  0  0  0  0
  -30.1590  -18.2410   19.2590 C   0  0  0  0  0  3  0  0  0  0  0  0
  -30.9800  -15.7420   19.9970 C   0  0  0  0  0  0  0  0  0  0  0  0
  -30.9580  -13.3570   19.2170 C   0  0  0  0  0  2  0  0  0  0  0  0
  -30.0290  -13.2340   17.9850 C   0  0  0  0  0  2  0  0  0  0  0  0
  -28.5610  -13.0310   18.4150 C   0  0  0  0  0  2  0  0  0  0  0  0
  -28.1260  -13.9890   19.5580 C   0  0  0  0  0  3  0  0  0  0  0  0
  -29.1810  -14.0550   20.6830 C   0  0  0  0  0  2  0  0  0  0  0  0
  -30.4490  -14.4630   20.0680 N   0  0  0  0  0  0  0  0  0  0  0  0
  -32.1580  -15.8770   19.6640 O   0  0  0  0  0  0  0  0  0  0  0  0
  -30.1060  -16.8500   19.9960 N   0  0  0  0  0  0  0  0  0  0  0  0
  -29.1900  -16.6100   20.3430 H   0  0  0  0  0  0  0  0  0  0  0  0
  -25.7530  -14.5320   20.3580 C   0  0  0  0  0  0  0  0  0  0  0  0
  -24.7000  -13.7390   20.7270 C   0  0  0  0  0  0  0  0  0  0  0  0
  -25.1750  -12.3920   20.6420 C   0  0  0  0  0  0  0  0  0  0  0  0
  -26.7970  -13.6690   20.0690 N   0  0  0  0  0  0  0  0  0  0  0  0
  -26.4580  -12.3760   20.3040 N   0  0  0  0  0  0  0  0  0  0  0  0
  -24.4600  -11.1200   20.8040 C   0  0  0  0  0  0  0  0  0  0  0  0
  -24.8440  -10.1750   21.7800 C   0  0  0  0  0  3  0  0  0  0  0  0
  -24.1260   -8.9690   21.9280 C   0  0  0  0  0  3  0  0  0  0  0  0
  -23.0090   -8.7010   21.1020 C   0  0  0  0  0  0  0  0  0  0  0  0
  -22.6460   -9.6340   20.1170 C   0  0  0  0  0  3  0  0  0  0  0  0
  -23.3650  -10.8320   19.9640 C   0  0  0  0  0  3  0  0  0  0  0  0
  -22.2690   -7.5440   21.1590 O   0  0  0  0  0  0  0  0  0  0  0  0
  -22.0600   -6.8830   22.3420 C   0  0  0  0  0  0  0  0  0  0  0  0
  -21.3730   -7.4820   23.4210 C   0  0  0  0  0  3  0  0  0  0  0  0
  -21.1190   -6.7410   24.5930 C   0  0  0  0  0  3  0  0  0  0  0  0
  -21.5380   -5.4000   24.6850 C   0  0  0  0  0  0  0  0  0  0  0  0
  -22.2140   -4.7980   23.6090 C   0  0  0  0  0  3  0  0  0  0  0  0
  -22.4720   -5.5370   22.4390 C   0  0  0  0  0  0  0  0  0  0  0  0
  -23.1060   -4.9470   21.3980 F   0  0  0  0  0  0  0  0  0  0  0  0
  -21.2860   -4.6860   25.8060 F   0  0  0  0  0  0  0  0  0  0  0  0
  -23.3070  -14.1980   21.0380 C   0  0  0  0  0  0  0  0  0  0  0  0
  -22.6010  -13.4720   21.8990 N   0  0  0  0  0  0  0  0  0  0  0  0
  -22.8530  -15.2360   20.5560 O   0  0  0  0  0  0  0  0  0  0  0  0
  -22.9820  -12.6340   22.3130 H   0  0  0  0  0  0  0  0  0  0  0  0
  -21.6640  -13.7570   22.1460 H   0  0  0  0  0  0  0  0  0  0  0  0
  -25.8980  -15.9090   20.2160 N   0  0  0  0  0  0  0  0  0  0  0  0
  -25.1040  -16.5290   20.3390 H   0  0  0  0  0  0  0  0  0  0  0  0
  -26.6890  -16.3660   19.7860 H   0  0  0  0  0  0  0  0  0  0  0  0
  -29.7700  -18.0590   17.7610 C   0  0  0  0  0  2  0  0  0  0  0  0
  -30.6400  -17.1380   17.0080 N   0  0  0  0  0  4  0  0  0  0  0  0
  -31.6100  -17.3220   17.1960 H   0  0  0  0  0  0  0  0  0  0  0  0
  -30.4900  -17.2830   16.0230 H   0  0  0  0  0  0  0  0  0  0  0  0
  -30.4240  -16.1820   17.2080 H   0  0  0  0  0  0  0  0  0  0  0  0
  1 13  1  0
  1  7  1  0
  2  6  1  0
  3  6  1  0
  4  2  1  0
  5  7  1  0
  5  3  1  0
  6  9  1  0
  7  4  1  0
  7  8  1  1
  9 11  1  0
  9 12  1  0
 10  9  1  0
 13 18  1  0
 14 18  1  0
 16 14  2  0
 16 19  1  0
 17 15  1  0
 18 15  2  0
 19 17  2  0
 20 19  1  0
 20 22  1  0
 21 32  2  0
 22 27  1  0
 23 31  1  0
 23 33  1  0
 24 30  1  0
 24 26  1  0
 25 31  1  0
 26 25  1  0
 27 26  2  0
 28 29  1  0
 28 22  2  0
 29 24  2  0
 30 23  1  0
 31 21  1  0
 33 35  2  0
 34 33  1  0
 36 34  1  0
 37 46  2  0
 37 42  1  0
 38 34  1  0
 38 42  1  0
 39 38  1  0
 40 41  1  0
 40 39  1  0
 41 37  1  0
 42 43  2  0
 43 44  1  0
 45 44  2  0
 46 45  1  0
 47 21  1  0
 47 52  1  0
 47 48  1  0
 48 51  1  1
 48 49  1  0
 50 48  1  0
 52 55  1  0
 53 52  1  0
 53 57  1  0
 54 53  2  0
 57 56  1  0
 57 59  1  0
 59 60  1  0
 59 58  1  0
 61100  1  0
 61  1  1  0
 61 70  1  0
 62 68  1  0
 63 68  1  0
 64 65  1  0
 64 63  1  0
 66 65  1  0
 66 75  1  0
 66 67  1  0
 68 67  1  0
 69 62  2  0
 70 62  1  0
 70 71  1  0
 72 73  2  0
 73 92  1  0
 74 73  1  0
 74 77  1  0
 75 76  1  0
 75 72  1  0
 76 74  2  0
 77 78  1  0
 78 79  2  0
 80 83  1  0
 80 79  1  0
 81 80  2  0
 82 81  1  0
 82 77  2  0
 83 84  1  0
 84 89  2  0
 84 85  1  0
 85 86  2  0
 86 87  1  0
 87 91  1  0
 88 87  2  0
 89 88  1  0
 90 89  1  0
 92 93  1  0
 93 96  1  0
 93 95  1  0
 94 92  2  0
 97 98  1  0
 97 72  1  0
 99 97  1  0
101102  1  0
101104  1  0
101100  1  0
103101  1  0
M  ISO  4  19 101  20 101  62 100  70 100
M  END
>  <TORSDO>  (77) 
F 23

>  <SCORE>  (77) 
-10.882

>  <name>  (77) 
77

>  <ligand_id>  (77) 
77

>  <original_smiles>  (77) 
[H]c1c([H])c([H])c2c(c1[H])C([H])([H])C([H])([H])C([H])([H])C2([H])N([H])C(=O)C1([H])N(C(=O)C([H])(N([H])C(=O)C([H])(N([H])C([H])([H])[H])C([H])([H])[H])C(C([H])([H])[H])(C([H])([H])[H])C([H])([H])[H])C([H])([H])c2c([H])c(Oc3c([H])c([H])c(C([H])([H])C([H])(C([H])(N([H])C(=O)N4C([H])([H])C([H])([H])C([H])([H])C([H])(n5nc(-c6c([H])c([H])c(Oc7c([H])c([H])c(F)c([H])c7F)c([H])c6[H])c(C(=O)N([H])[H])c5N([H])[H])C4([H])[H])C([H])([H])[N+]([H])([H])[H])[N+]4([H])C([H])([H])C([H])([H])C([H])([N+]([H])([H])[H])C([H])([H])C4([H])[H])c([H])c3[H])c([H])c([H])c2C1([H])[H]

>  <smiles>  (77) 
[H]c1c([H])c([H])c2c(c1[H])C([H])([H])C([H])([H])C([H])([H])C2([H])N([H])C(=O)C1([H])N(C(=O)C([H])(N([H])C(=O)C([H])(N([H])C([H])([H])[H])C([H])([H])[H])C(C([H])([H])[H])(C([H])([H])[H])C([H])([H])[H])C([H])([H])c2c([H])c(Oc3c([H])c([H])c(C([H])([H])C([H])(C([H])(N([H])C(=O)N4C([H])([H])C([H])([H])C([H])([H])C([H])(n5nc(-c6c([H])c([H])c(Oc7c([H])c([H])c(F)c([H])c7F)c([H])c6[H])c(C(=O)N([H])[H])c5N([H])[H])C4([H])[H])C([H])([H])[N+]([H])([H])[H])[N+]4([H])C([H])([H])C([H])([H])C([H])([N+]([H])([H])[H])C([H])([H])C4([H])[H])c([H])c3[H])c([H])c([H])c2C1([H])[H]

$$$$
78:0:0
     RDKit          3D

107115  0  0  1  0  0  0  0  0999 V2000
  -30.7540  -20.3500   19.9950 C   0  0  0  0  0  3  0  0  0  0  0  0
  -31.3360  -20.7060   18.6000 C   0  0  0  0  0  2  0  0  0  0  0  0
  -32.8610  -20.9650   18.6190 C   0  0  0  0  0  2  0  0  0  0  0  0
  -33.3930  -21.6580   17.3510 C   0  0  0  0  0  2  0  0  0  0  0  0
  -32.8720  -21.3020   14.9650 C   0  0  0  0  0  2  0  0  0  0  0  0
  -32.8130  -20.5510   13.8560 N   0  0  0  0  0  0  0  0  0  0  0  0
  -33.2780  -20.8200   16.1510 N   0  0  0  0  0  0  0  0  0  0  0  0
  -33.0530  -19.5700   13.8410 H   0  0  0  0  0  0  0  0  0  0  0  0
  -32.5170  -20.9640   12.9830 H   0  0  0  0  0  0  0  0  0  0  0  0
  -33.6610  -19.8870   16.2110 H   0  0  0  0  0  0  0  0  0  0  0  0
  -29.3330  -21.0860   20.2950 C   0  0  0  0  0  2  0  0  0  0  0  0
  -27.0240  -23.0400   18.7130 C   0  0  0  0  0  2  0  0  0  0  0  0
  -26.7740  -22.8960   20.2130 C   0  0  0  0  0  2  0  0  0  0  0  0
  -28.5260  -22.7120   18.5490 C   0  0  0  0  0  2  0  0  0  0  0  0
  -28.1090  -23.3630   20.7740 C   0  0  0  0  0  3  0  0  0  0  0  0
  -29.1080  -22.5790   19.9200 N   0  0  1  0  0  4  0  0  0  0  0  0
  -30.0040  -23.0440   19.9620 H   0  0  0  0  0  0  0  0  0  0  0  0
  -28.2580  -24.9840   20.9170 C   0  0  0  0  0  2  0  0  0  0  0  0
  -28.0670  -26.0260   19.8660 O   0  0  0  0  0  0  0  0  0  0  0  0
  -24.2750  -31.2890   23.1350 C   0  0  0  0  0  0  0  0  0  0  0  0
  -26.9550  -26.8790   19.9290 C   0  0  0  0  0  0  0  0  0  0  0  0
  -23.0850  -29.9050   21.4740 C   0  0  0  0  0  3  0  0  0  0  0  0
  -24.5580  -28.4390   19.9870 C   0  0  0  0  0  0  0  0  0  0  0  0
  -25.6150  -30.2870   21.2770 C   0  0  0  0  0  2  0  0  0  0  0  0
  -25.7200  -28.9260   20.6000 C   0  0  0  0  0  0  0  0  0  0  0  0
  -26.9210  -28.1550   20.5750 C   0  0  0  0  0  3  0  0  0  0  0  0
  -25.7930  -26.4840   19.2390 C   0  0  0  0  0  3  0  0  0  0  0  0
  -24.5980  -27.2230   19.2960 C   0  0  0  0  0  3  0  0  0  0  0  0
  -23.3040  -29.2810   20.0720 C   0  0  0  0  0  2  0  0  0  0  0  0
  -24.3440  -30.5110   22.0180 N   0  0  0  0  0  0  0  0  0  0  0  0
  -23.1910  -31.5230   23.6910 O   0  0  0  0  0  0  0  0  0  0  0  0
  -22.4700  -28.8380   22.4110 C   0  0  0  0  0  0  0  0  0  0  0  0
  -21.1580  -28.5880   22.2590 N   0  0  0  0  0  0  0  0  0  0  0  0
  -23.1700  -28.2430   23.2340 O   0  0  0  0  0  0  0  0  0  0  0  0
  -20.6500  -29.1290   21.5770 H   0  0  0  0  0  0  0  0  0  0  0  0
  -17.8500  -27.1710   22.6490 C   0  0  0  0  0  0  0  0  0  0  0  0
  -20.3770  -27.5980   23.0060 C   0  0  0  0  0  3  0  0  0  0  0  0
  -20.5930  -26.1730   22.4420 C   0  0  0  0  0  2  0  0  0  0  0  0
  -19.5510  -25.7730   21.3940 C   0  0  0  0  0  2  0  0  0  0  0  0
  -18.1400  -25.8320   21.9900 C   0  0  0  0  0  2  0  0  0  0  0  0
  -18.9020  -28.0060   23.1120 C   0  0  0  0  0  0  0  0  0  0  0  0
  -18.5810  -29.2550   23.6840 C   0  0  0  0  0  3  0  0  0  0  0  0
  -17.2400  -29.6680   23.8050 C   0  0  0  0  0  3  0  0  0  0  0  0
  -16.2050  -28.8270   23.3640 C   0  0  0  0  0  3  0  0  0  0  0  0
  -16.5080  -27.5820   22.7880 C   0  0  0  0  0  3  0  0  0  0  0  0
  -25.5510  -31.9390   23.7530 C   0  0  0  0  0  3  0  0  0  0  0  0
  -26.1170  -31.1390   24.9910 C   0  0  1  0  0  0  0  0  0  0  0  0
  -25.0540  -30.8340   26.0740 C   0  0  0  0  0  1  0  0  0  0  0  0
  -26.7330  -29.7930   24.5390 C   0  0  0  0  0  1  0  0  0  0  0  0
  -27.2570  -31.9460   25.6560 C   0  0  0  0  0  1  0  0  0  0  0  0
  -25.2020  -33.3140   24.1420 N   0  0  0  0  0  0  0  0  0  0  0  0
  -25.5350  -34.4090   23.4450 C   0  0  0  0  0  0  0  0  0  0  0  0
  -26.2380  -34.3680   22.4310 O   0  0  0  0  0  0  0  0  0  0  0  0
  -24.5870  -33.4200   24.9340 H   0  0  0  0  0  0  0  0  0  0  0  0
  -23.7890  -36.1870   23.1260 C   0  0  0  0  0  1  0  0  0  0  0  0
  -25.0090  -35.7630   23.9570 C   0  0  0  0  0  3  0  0  0  0  0  0
  -27.0940  -36.6500   24.9060 C   0  0  0  0  0  1  0  0  0  0  0  0
  -26.0230  -36.8390   23.9290 N   0  0  0  0  0  0  0  0  0  0  0  0
  -25.5950  -37.7430   24.1030 H   0  0  0  0  0  0  0  0  0  0  0  0
  -31.0860  -18.7900   20.4310 C   0  0  0  0  0  3  0  0  0  0  0  0
  -30.4650  -18.3580   21.7850 C   0  0  0  0  0  2  0  0  0  0  0  0
  -31.1540  -18.9790   23.0240 C   0  0  0  0  0  2  0  0  0  0  0  0
  -30.9940  -20.5110   23.1120 C   0  0  0  0  0  2  0  0  0  0  0  0
  -31.2960  -21.1000   24.5040 C   0  0  0  0  0  2  0  0  0  0  0  0
  -30.2550  -20.8020   25.5050 N   0  0  0  0  0  4  0  0  0  0  0  0
  -29.3610  -21.1590   25.2160 H   0  0  0  0  0  0  0  0  0  0  0  0
  -30.4940  -21.2380   26.3770 H   0  0  0  0  0  0  0  0  0  0  0  0
  -30.1770  -19.8150   25.6680 H   0  0  0  0  0  0  0  0  0  0  0  0
  -31.0570  -17.5590   19.3720 C   0  0  0  0  0  2  0  0  0  0  0  0
  -31.4270  -14.9550   19.6220 C   0  0  0  0  0  0  0  0  0  0  0  0
  -31.0280  -12.6600   18.7210 C   0  0  0  0  0  2  0  0  0  0  0  0
  -30.0300  -12.7630   17.5460 C   0  0  0  0  0  2  0  0  0  0  0  0
  -28.5790  -12.7020   18.0610 C   0  0  0  0  0  2  0  0  0  0  0  0
  -28.3300  -13.6560   19.2590 C   0  0  0  0  0  3  0  0  0  0  0  0
  -29.4440  -13.5350   20.3260 C   0  0  0  0  0  2  0  0  0  0  0  0
  -30.7270  -13.7700   19.6540 N   0  0  0  0  0  0  0  0  0  0  0  0
  -32.5880  -14.9760   19.2060 O   0  0  0  0  0  0  0  0  0  0  0  0
  -30.7280  -16.1330   19.8260 N   0  0  0  0  0  0  0  0  0  0  0  0
  -29.7770  -15.9950   20.1310 H   0  0  0  0  0  0  0  0  0  0  0  0
  -26.0250  -14.4190   20.0920 C   0  0  0  0  0  0  0  0  0  0  0  0
  -24.9350  -13.7250   20.5430 C   0  0  0  0  0  0  0  0  0  0  0  0
  -25.3150  -12.3470   20.5360 C   0  0  0  0  0  0  0  0  0  0  0  0
  -27.0010  -13.4700   19.8330 N   0  0  0  0  0  0  0  0  0  0  0  0
  -26.5840  -12.2210   20.1640 N   0  0  0  0  0  0  0  0  0  0  0  0
  -24.5250  -11.1380   20.8060 C   0  0  0  0  0  0  0  0  0  0  0  0
  -24.8930  -10.2210   21.8160 C   0  0  0  0  0  3  0  0  0  0  0  0
  -24.1030   -9.0790   22.0690 C   0  0  0  0  0  3  0  0  0  0  0  0
  -22.9300   -8.8440   21.3120 C   0  0  0  0  0  0  0  0  0  0  0  0
  -22.5820   -9.7460   20.2900 C   0  0  0  0  0  3  0  0  0  0  0  0
  -23.3740  -10.8810   20.0360 C   0  0  0  0  0  3  0  0  0  0  0  0
  -22.1150   -7.7480   21.4700 O   0  0  0  0  0  0  0  0  0  0  0  0
  -21.9300   -7.1620   22.6970 C   0  0  0  0  0  0  0  0  0  0  0  0
  -21.4000   -7.8800   23.7930 C   0  0  0  0  0  3  0  0  0  0  0  0
  -21.1610   -7.2210   25.0160 C   0  0  0  0  0  3  0  0  0  0  0  0
  -21.4390   -5.8470   25.1420 C   0  0  0  0  0  0  0  0  0  0  0  0
  -21.9590   -5.1300   24.0500 C   0  0  0  0  0  3  0  0  0  0  0  0
  -22.2020   -5.7860   22.8310 C   0  0  0  0  0  0  0  0  0  0  0  0
  -22.6830   -5.0870   21.7750 F   0  0  0  0  0  0  0  0  0  0  0  0
  -21.2010   -5.2110   26.3130 F   0  0  0  0  0  0  0  0  0  0  0  0
  -23.5850  -14.2950   20.8690 C   0  0  0  0  0  0  0  0  0  0  0  0
  -22.8870  -13.7070   21.8330 N   0  0  0  0  0  0  0  0  0  0  0  0
  -23.1630  -15.3000   20.2970 O   0  0  0  0  0  0  0  0  0  0  0  0
  -23.2390  -12.8900   22.3120 H   0  0  0  0  0  0  0  0  0  0  0  0
  -21.9860  -14.0780   22.0980 H   0  0  0  0  0  0  0  0  0  0  0  0
  -26.2610  -15.7700   19.8560 N   0  0  0  0  0  0  0  0  0  0  0  0
  -25.5330  -16.4670   19.9710 H   0  0  0  0  0  0  0  0  0  0  0  0
  -27.0980  -16.1460   19.4360 H   0  0  0  0  0  0  0  0  0  0  0  0
  1  2  1  0
  1 11  1  0
  1 60  1  0
  2  3  1  0
  4  3  1  0
  5  7  1  0
  6  5  1  0
  7 10  1  0
  7  4  1  0
  8  6  1  0
  9  6  1  0
 12 13  1  0
 13 15  1  0
 14 12  1  0
 14 16  1  0
 15 18  1  0
 16 17  1  6
 16 11  1  0
 16 15  1  0
 19 21  1  0
 19 18  1  0
 20 31  2  0
 21 26  1  0
 22 30  1  0
 22 32  1  0
 23 29  1  0
 23 25  1  0
 24 30  1  0
 25 24  1  0
 26 25  2  0
 27 28  1  0
 27 21  2  0
 28 23  2  0
 29 22  1  0
 30 20  1  0
 32 34  2  0
 33 32  1  0
 35 33  1  0
 36 45  2  0
 36 41  1  0
 37 33  1  0
 37 41  1  0
 38 37  1  0
 39 40  1  0
 39 38  1  0
 40 36  1  0
 41 42  2  0
 42 43  1  0
 44 43  2  0
 45 44  1  0
 46 20  1  0
 46 51  1  0
 46 47  1  0
 47 50  1  1
 47 48  1  0
 49 47  1  0
 51 54  1  0
 52 56  1  0
 52 51  1  0
 53 52  2  0
 56 55  1  0
 58 56  1  0
 58 59  1  0
 58 57  1  0
 60 69  1  0
 60 61  1  0
 61 62  1  0
 62 63  1  0
 63 64  1  0
 64 65  1  0
 65 68  1  0
 65 67  1  0
 66 65  1  0
 69 78  1  0
 70 76  1  0
 70 78  1  0
 71 76  1  0
 72 73  1  0
 72 71  1  0
 74 73  1  0
 74 83  1  0
 74 75  1  0
 76 75  1  0
 77 70  2  0
 78 79  1  0
 80 81  2  0
 81100  1  0
 82 81  1  0
 82 85  1  0
 83 80  1  0
 83 84  1  0
 84 82  2  0
 85 86  1  0
 86 87  2  0
 88 91  1  0
 88 87  1  0
 89 88  2  0
 90 89  1  0
 90 85  2  0
 91 92  1  0
 92 97  2  0
 92 93  1  0
 93 94  2  0
 94 95  1  0
 95 99  1  0
 96 95  2  0
 97 96  1  0
 98 97  1  0
100101  1  0
101104  1  0
101103  1  0
102100  2  0
105106  1  0
105 80  1  0
107105  1  0
M  ISO  4  18 101  19 101  70 100  78 100
M  END
>  <TORSDO>  (78) 
F 30

>  <SCORE>  (78) 
-8.021

>  <name>  (78) 
78

>  <ligand_id>  (78) 
78

>  <original_smiles>  (78) 
[H]C(N([H])[H])=[N+]([H])C([H])([H])C([H])([H])C([H])([H])C([H])(C([H])(C([H])([H])N([H])C(=O)N1C([H])([H])C([H])([H])C([H])([H])C([H])(n2nc(-c3c([H])c([H])c(Oc4c([H])c([H])c(F)c([H])c4F)c([H])c3[H])c(C(=O)N([H])[H])c2N([H])[H])C1([H])[H])C([H])([H])C([H])([H])C([H])([H])C([H])([H])[N+]([H])([H])[H])C([H])([H])[N+]1([H])C([H])([H])C([H])([H])C([H])([H])C1([H])C([H])([H])Oc1c([H])c([H])c2c(c1[H])C([H])([H])N(C(=O)C([H])(N([H])C(=O)C([H])(N([H])C([H])([H])[H])C([H])([H])[H])C(C([H])([H])[H])(C([H])([H])[H])C([H])([H])[H])C([H])(C(=O)N([H])C1([H])c3c([H])c([H])c([H])c([H])c3C([H])([H])C([H])([H])C1([H])[H])C2([H])[H]

>  <smiles>  (78) 
[H]C(N([H])[H])=[N+]([H])C([H])([H])C([H])([H])C([H])([H])C([H])(C([H])(C([H])([H])N([H])C(=O)N1C([H])([H])C([H])([H])C([H])([H])C([H])(n2nc(-c3c([H])c([H])c(Oc4c([H])c([H])c(F)c([H])c4F)c([H])c3[H])c(C(=O)N([H])[H])c2N([H])[H])C1([H])[H])C([H])([H])C([H])([H])C([H])([H])C([H])([H])[N+]([H])([H])[H])C([H])([H])[N+]1([H])C([H])([H])C([H])([H])C([H])([H])C1([H])C([H])([H])Oc1c([H])c([H])c2c(c1[H])C([H])([H])N(C(=O)C([H])(N([H])C(=O)C([H])(N([H])C([H])([H])[H])C([H])([H])[H])C(C([H])([H])[H])(C([H])([H])[H])C([H])([H])[H])C([H])(C(=O)N([H])C1([H])c3c([H])c([H])c([H])c([H])c3C([H])([H])C([H])([H])C1([H])[H])C2([H])[H]

$$$$
79:0:0
     RDKit          3D

 97106  0  0  1  0  0  0  0  0999 V2000
  -31.4330  -23.2760   20.9060 N   0  0  1  0  0  4  0  0  0  0  0  0
  -31.7620  -23.9570   21.5750 H   0  0  0  0  0  0  0  0  0  0  0  0
  -31.4330  -22.0080   21.6940 C   0  0  0  0  0  2  0  0  0  0  0  0
  -30.8510  -14.4950   20.0510 C   0  0  0  0  0  0  0  0  0  0  0  0
  -30.4900  -12.4090   18.7870 C   0  0  0  0  0  2  0  0  0  0  0  0
  -29.4650  -12.6700   17.6610 C   0  0  0  0  0  2  0  0  0  0  0  0
  -28.0140  -12.5340   18.1730 C   0  0  0  0  0  2  0  0  0  0  0  0
  -27.7650  -13.3010   19.4990 C   0  0  0  0  0  3  0  0  0  0  0  0
  -28.8830  -12.9780   20.5120 C   0  0  0  0  0  2  0  0  0  0  0  0
  -30.1760  -13.3230   19.8960 N   0  0  0  0  0  0  0  0  0  0  0  0
  -31.9320  -14.7250   19.4970 O   0  0  0  0  0  0  0  0  0  0  0  0
  -30.3830  -17.0940   22.4270 C   0  0  0  0  0  2  0  0  0  0  0  0
  -31.2060  -20.3280   19.6880 C   0  0  0  0  0  2  0  0  0  0  0  0
  -30.7870  -19.5820   22.0310 C   0  0  0  0  0  2  0  0  0  0  0  0
  -29.7720  -15.7740   21.8990 C   0  0  0  0  0  2  0  0  0  0  0  0
  -30.4580  -19.0880   19.1760 C   0  0  0  0  0  2  0  0  0  0  0  0
  -29.9390  -16.7200   19.6350 C   0  0  0  0  0  2  0  0  0  0  0  0
  -30.6890  -20.7870   21.0700 C   0  0  0  0  0  3  0  0  0  0  0  0
  -30.1190  -18.2960   21.4930 C   0  0  0  0  0  3  0  0  0  0  0  0
  -30.0910  -15.5300   20.4830 N   0  0  0  0  0  0  0  0  0  0  0  0
  -30.5910  -17.9560   20.1250 N   0  0  2  0  0  4  0  0  0  0  0  0
  -31.5760  -17.7470   20.1870 H   0  0  0  0  0  0  0  0  0  0  0  0
  -25.4100  -13.9080   20.3520 C   0  0  0  0  0  0  0  0  0  0  0  0
  -24.3650  -13.1340   20.7810 C   0  0  0  0  0  0  0  0  0  0  0  0
  -24.8220  -11.7840   20.7150 C   0  0  0  0  0  0  0  0  0  0  0  0
  -26.4390  -13.0260   20.0540 N   0  0  0  0  0  0  0  0  0  0  0  0
  -26.0900  -11.7430   20.3260 N   0  0  0  0  0  0  0  0  0  0  0  0
  -24.1070  -10.5210   20.9440 C   0  0  0  0  0  0  0  0  0  0  0  0
  -24.5440   -9.5970   21.9220 C   0  0  0  0  0  3  0  0  0  0  0  0
  -23.8350   -8.3950   22.1330 C   0  0  0  0  0  3  0  0  0  0  0  0
  -22.6780   -8.1090   21.3710 C   0  0  0  0  0  0  0  0  0  0  0  0
  -22.2630   -9.0200   20.3830 C   0  0  0  0  0  3  0  0  0  0  0  0
  -22.9720  -10.2140   20.1680 C   0  0  0  0  0  3  0  0  0  0  0  0
  -21.9430   -6.9540   21.4880 O   0  0  0  0  0  0  0  0  0  0  0  0
  -21.8160   -6.3010   22.6890 C   0  0  0  0  0  0  0  0  0  0  0  0
  -21.2750   -6.9360   23.8290 C   0  0  0  0  0  3  0  0  0  0  0  0
  -21.0990   -6.2070   25.0210 C   0  0  0  0  0  3  0  0  0  0  0  0
  -21.4510   -4.8460   25.0760 C   0  0  0  0  0  0  0  0  0  0  0  0
  -21.9880   -4.2130   23.9410 C   0  0  0  0  0  3  0  0  0  0  0  0
  -22.1660   -4.9380   22.7500 C   0  0  0  0  0  0  0  0  0  0  0  0
  -22.6630   -4.3170   21.6520 F   0  0  0  0  0  0  0  0  0  0  0  0
  -21.2750   -4.1430   26.2200 F   0  0  0  0  0  0  0  0  0  0  0  0
  -22.9850  -13.6090   21.1370 C   0  0  0  0  0  0  0  0  0  0  0  0
  -22.3280  -12.9320   22.0740 N   0  0  0  0  0  0  0  0  0  0  0  0
  -22.4980  -14.6100   20.6160 O   0  0  0  0  0  0  0  0  0  0  0  0
  -22.7350  -12.1270   22.5260 H   0  0  0  0  0  0  0  0  0  0  0  0
  -21.3980  -13.2210   22.3370 H   0  0  0  0  0  0  0  0  0  0  0  0
  -25.5640  -15.2790   20.1740 N   0  0  0  0  0  0  0  0  0  0  0  0
  -24.7980  -15.9290   20.3050 H   0  0  0  0  0  0  0  0  0  0  0  0
  -26.3800  -15.7140   19.7650 H   0  0  0  0  0  0  0  0  0  0  0  0
  -32.4820  -23.3020   19.8520 C   0  0  0  0  0  2  0  0  0  0  0  0
  -34.4520  -24.5700   18.8810 C   0  0  0  0  0  1  0  0  0  0  0  0
  -33.4030  -24.5180   19.9990 C   0  0  0  0  0  2  0  0  0  0  0  0
  -30.0710  -23.7590   20.5100 C   0  0  0  0  0  2  0  0  0  0  0  0
  -30.0570  -25.0690   19.6770 C   0  0  0  0  0  2  0  0  0  0  0  0
  -28.6370  -25.5950   19.3630 C   0  0  0  0  0  2  0  0  0  0  0  0
  -28.3920  -26.7360   20.1830 O   0  0  0  0  0  0  0  0  0  0  0  0
  -24.5250  -31.8200   23.2370 C   0  0  0  0  0  0  0  0  0  0  0  0
  -27.1820  -27.3990   20.1390 C   0  0  0  0  0  0  0  0  0  0  0  0
  -23.3140  -30.4190   21.5940 C   0  0  0  0  0  3  0  0  0  0  0  0
  -24.7670  -28.8780   20.1630 C   0  0  0  0  0  0  0  0  0  0  0  0
  -25.8340  -30.7820   21.3870 C   0  0  0  0  0  2  0  0  0  0  0  0
  -25.9180  -29.4060   20.7590 C   0  0  0  0  0  0  0  0  0  0  0  0
  -27.1170  -28.6640   20.7620 C   0  0  0  0  0  3  0  0  0  0  0  0
  -26.0150  -26.8830   19.5290 C   0  0  0  0  0  3  0  0  0  0  0  0
  -24.8090  -27.6110   19.5530 C   0  0  0  0  0  3  0  0  0  0  0  0
  -23.5240  -29.7410   20.2110 C   0  0  0  0  0  2  0  0  0  0  0  0
  -24.5760  -31.0210   22.1330 N   0  0  0  0  0  0  0  0  0  0  0  0
  -23.4470  -32.0900   23.7820 O   0  0  0  0  0  0  0  0  0  0  0  0
  -22.6660  -29.3980   22.5570 C   0  0  0  0  0  0  0  0  0  0  0  0
  -21.3450  -29.2010   22.4220 N   0  0  0  0  0  0  0  0  0  0  0  0
  -23.3490  -28.7860   23.3820 O   0  0  0  0  0  0  0  0  0  0  0  0
  -20.8520  -29.7510   21.7310 H   0  0  0  0  0  0  0  0  0  0  0  0
  -17.9820  -27.9640   22.8930 C   0  0  0  0  0  0  0  0  0  0  0  0
  -20.5320  -28.2620   23.1940 C   0  0  0  0  0  3  0  0  0  0  0  0
  -20.6620  -26.8240   22.6400 C   0  0  0  0  0  2  0  0  0  0  0  0
  -19.5800  -26.4730   21.6140 C   0  0  0  0  0  2  0  0  0  0  0  0
  -18.1880  -26.6080   22.2360 C   0  0  0  0  0  2  0  0  0  0  0  0
  -19.0840  -28.7460   23.3290 C   0  0  0  0  0  0  0  0  0  0  0  0
  -18.8390  -30.0130   23.8990 C   0  0  0  0  0  3  0  0  0  0  0  0
  -17.5260  -30.4990   24.0390 C   0  0  0  0  0  3  0  0  0  0  0  0
  -16.4390  -29.7140   23.6180 C   0  0  0  0  0  3  0  0  0  0  0  0
  -16.6680  -28.4480   23.0500 C   0  0  0  0  0  3  0  0  0  0  0  0
  -25.8140  -32.4520   23.8510 C   0  0  0  0  0  3  0  0  0  0  0  0
  -26.3350  -31.6890   25.1290 C   0  0  1  0  0  0  0  0  0  0  0  0
  -25.2500  -31.4560   26.2080 C   0  0  0  0  0  1  0  0  0  0  0  0
  -26.9140  -30.3100   24.7370 C   0  0  0  0  0  1  0  0  0  0  0  0
  -27.4860  -32.4880   25.7850 C   0  0  0  0  0  1  0  0  0  0  0  0
  -25.5140  -33.8540   24.1670 N   0  0  0  0  0  0  0  0  0  0  0  0
  -25.8670  -34.8990   23.4050 C   0  0  0  0  0  0  0  0  0  0  0  0
  -26.5490  -34.7810   22.3830 O   0  0  0  0  0  0  0  0  0  0  0  0
  -24.9100  -34.0200   24.9590 H   0  0  0  0  0  0  0  0  0  0  0  0
  -24.1760  -36.7150   22.9950 C   0  0  0  0  0  1  0  0  0  0  0  0
  -25.3860  -36.2940   23.8450 C   0  0  0  0  0  3  0  0  0  0  0  0
  -27.5070  -37.1490   24.7380 C   0  0  0  0  0  1  0  0  0  0  0  0
  -26.4360  -37.3330   23.7630 N   0  0  0  0  0  0  0  0  0  0  0  0
  -26.0390  -38.2590   23.9000 H   0  0  0  0  0  0  0  0  0  0  0  0
  1  2  1  1
  1  3  1  0
  4 20  1  0
  5 10  1  0
  6  7  1  0
  6  5  1  0
  8  7  1  0
  8 26  1  0
  8  9  1  0
 10  4  1  0
 10  9  1  0
 11  4  2  0
 13 18  1  0
 15 12  1  0
 16 13  1  0
 16 21  1  0
 17 21  1  0
 17 20  1  0
 18  3  1  0
 18 14  1  0
 19 14  1  0
 19 12  1  0
 20 15  1  0
 21 22  1  1
 21 19  1  0
 23 24  2  0
 24 43  1  0
 25 24  1  0
 25 28  1  0
 26 27  1  0
 26 23  1  0
 27 25  2  0
 28 29  1  0
 29 30  2  0
 31 34  1  0
 31 30  1  0
 32 31  2  0
 33 32  1  0
 33 28  2  0
 34 35  1  0
 35 40  2  0
 35 36  1  0
 36 37  2  0
 37 38  1  0
 38 42  1  0
 39 38  2  0
 40 39  1  0
 41 40  1  0
 43 44  1  0
 44 47  1  0
 44 46  1  0
 45 43  2  0
 48 49  1  0
 48 23  1  0
 50 48  1  0
 51 53  1  0
 51  1  1  0
 52 53  1  0
 54  1  1  0
 55 54  1  0
 56 55  1  0
 56 57  1  0
 58 69  2  0
 59 57  1  0
 59 64  1  0
 60 68  1  0
 60 70  1  0
 61 67  1  0
 61 63  1  0
 62 68  1  0
 63 64  2  0
 63 62  1  0
 65 66  1  0
 65 59  2  0
 66 61  2  0
 67 60  1  0
 68 58  1  0
 70 72  2  0
 71 70  1  0
 73 71  1  0
 74 83  2  0
 74 79  1  0
 75 71  1  0
 75 79  1  0
 76 75  1  0
 77 78  1  0
 77 76  1  0
 78 74  1  0
 79 80  2  0
 80 81  1  0
 82 81  2  0
 83 82  1  0
 84 58  1  0
 84 89  1  0
 84 85  1  0
 85 88  1  1
 85 86  1  0
 87 85  1  0
 89 92  1  0
 90 94  1  0
 90 89  1  0
 91 90  2  0
 94 93  1  0
 96 94  1  0
 96 97  1  0
 96 95  1  0
M  ISO  4   4 100  20 100  56 101  57 101
M  END
>  <TORSDO>  (79) 
F 22

>  <SCORE>  (79) 
-12.360

>  <name>  (79) 
79

>  <ligand_id>  (79) 
79

>  <original_smiles>  (79) 
[H]c1c([H])c([H])c2c(c1[H])C([H])([H])C([H])([H])C([H])([H])C2([H])N([H])C(=O)C1([H])N(C(=O)C([H])(N([H])C(=O)C([H])(N([H])C([H])([H])[H])C([H])([H])[H])C(C([H])([H])[H])(C([H])([H])[H])C([H])([H])[H])C([H])([H])c2c([H])c(OC([H])([H])C([H])([H])C([H])([H])[N+]([H])(C([H])([H])C([H])([H])C([H])([H])[H])C([H])([H])C3([H])C([H])([H])C([H])([H])[N+]4([H])C([H])([H])N(C(=O)N5C([H])([H])C([H])([H])C([H])([H])C([H])(n6nc(-c7c([H])c([H])c(Oc8c([H])c([H])c(F)c([H])c8F)c([H])c7[H])c(C(=O)N([H])[H])c6N([H])[H])C5([H])[H])C([H])([H])C([H])([H])C4([H])C3([H])[H])c([H])c([H])c2C1([H])[H]

>  <smiles>  (79) 
[H]c1c([H])c([H])c2c(c1[H])C([H])([H])C([H])([H])C([H])([H])C2([H])N([H])C(=O)C1([H])N(C(=O)C([H])(N([H])C(=O)C([H])(N([H])C([H])([H])[H])C([H])([H])[H])C(C([H])([H])[H])(C([H])([H])[H])C([H])([H])[H])C([H])([H])c2c([H])c(OC([H])([H])C([H])([H])C([H])([H])[N+]([H])(C([H])([H])C([H])([H])C([H])([H])[H])C([H])([H])C3([H])C([H])([H])C([H])([H])[N+]4([H])C([H])([H])N(C(=O)N5C([H])([H])C([H])([H])C([H])([H])C([H])(n6nc(-c7c([H])c([H])c(Oc8c([H])c([H])c(F)c([H])c8F)c([H])c7[H])c(C(=O)N([H])[H])c6N([H])[H])C5([H])[H])C([H])([H])C([H])([H])C4([H])C3([H])[H])c([H])c([H])c2C1([H])[H]

$$$$
80:0:0
     RDKit          3D

104111  0  0  1  0  0  0  0  0999 V2000
  -29.6380  -18.3530   21.5510 N   0  0  0  0  0  4  0  0  0  0  0  0
  -29.4070  -17.9760   20.6470 H   0  0  0  0  0  0  0  0  0  0  0  0
  -28.9530  -18.0200   22.2100 H   0  0  0  0  0  0  0  0  0  0  0  0
  -30.9780  -17.8380   21.9120 C   0  0  0  0  0  2  0  0  0  0  0  0
  -31.4920  -16.7540   20.9400 C   0  0  0  0  0  3  0  0  0  0  0  0
  -31.6460  -14.2800   21.0910 C   0  0  0  0  0  0  0  0  0  0  0  0
  -31.3490  -11.9610   20.3490 C   0  0  0  0  0  2  0  0  0  0  0  0
  -30.5790  -11.9590   19.0130 C   0  0  0  0  0  2  0  0  0  0  0  0
  -29.0600  -11.9490   19.2690 C   0  0  0  0  0  2  0  0  0  0  0  0
  -28.6130  -13.0330   20.2870 C   0  0  0  0  0  3  0  0  0  0  0  0
  -29.5120  -13.0190   21.5450 C   0  0  0  0  0  2  0  0  0  0  0  0
  -30.9120  -13.1410   21.1070 N   0  0  0  0  0  0  0  0  0  0  0  0
  -32.8340  -14.3070   20.7630 O   0  0  0  0  0  0  0  0  0  0  0  0
  -30.9510  -15.4180   21.2410 N   0  0  0  0  0  0  0  0  0  0  0  0
  -29.9750  -15.3190   21.4710 H   0  0  0  0  0  0  0  0  0  0  0  0
  -26.2290  -13.8670   20.7890 C   0  0  0  0  0  0  0  0  0  0  0  0
  -25.0600  -13.2000   21.0360 C   0  0  0  0  0  0  0  0  0  0  0  0
  -25.3850  -11.8090   21.0050 C   0  0  0  0  0  0  0  0  0  0  0  0
  -27.2000  -12.8900   20.6290 N   0  0  0  0  0  0  0  0  0  0  0  0
  -26.6880  -11.6460   20.8160 N   0  0  0  0  0  0  0  0  0  0  0  0
  -24.5220  -10.6240   21.0870 C   0  0  0  0  0  0  0  0  0  0  0  0
  -24.7270   -9.6270   22.0640 C   0  0  0  0  0  3  0  0  0  0  0  0
  -23.8730   -8.5040   22.1340 C   0  0  0  0  0  3  0  0  0  0  0  0
  -22.7990   -8.3740   21.2220 C   0  0  0  0  0  0  0  0  0  0  0  0
  -22.6140   -9.3580   20.2340 C   0  0  0  0  0  3  0  0  0  0  0  0
  -23.4680  -10.4700   20.1640 C   0  0  0  0  0  3  0  0  0  0  0  0
  -21.9350   -7.3050   21.1980 O   0  0  0  0  0  0  0  0  0  0  0  0
  -21.5430   -6.6700   22.3490 C   0  0  0  0  0  0  0  0  0  0  0  0
  -20.9280   -7.3660   23.4130 C   0  0  0  0  0  3  0  0  0  0  0  0
  -20.4790   -6.6620   24.5480 C   0  0  0  0  0  3  0  0  0  0  0  0
  -20.6360   -5.2650   24.6190 C   0  0  0  0  0  0  0  0  0  0  0  0
  -21.2430   -4.5700   23.5590 C   0  0  0  0  0  3  0  0  0  0  0  0
  -21.6930   -5.2710   22.4260 C   0  0  0  0  0  0  0  0  0  0  0  0
  -22.2580   -4.5930   21.3970 F   0  0  0  0  0  0  0  0  0  0  0  0
  -20.1970   -4.5870   25.7050 F   0  0  0  0  0  0  0  0  0  0  0  0
  -23.6970  -13.8110   21.1930 C   0  0  0  0  0  0  0  0  0  0  0  0
  -22.8400  -13.2000   22.0020 N   0  0  0  0  0  0  0  0  0  0  0  0
  -23.4020  -14.8670   20.6320 O   0  0  0  0  0  0  0  0  0  0  0  0
  -23.0890  -12.3460   22.4780 H   0  0  0  0  0  0  0  0  0  0  0  0
  -21.9210  -13.5940   22.1480 H   0  0  0  0  0  0  0  0  0  0  0  0
  -26.5470  -15.2170   20.6620 N   0  0  0  0  0  0  0  0  0  0  0  0
  -25.8230  -15.9270   20.6650 H   0  0  0  0  0  0  0  0  0  0  0  0
  -27.4290  -15.5540   20.3020 H   0  0  0  0  0  0  0  0  0  0  0  0
  -31.3100  -17.1340   19.4420 C   0  0  0  0  0  2  0  0  0  0  0  0
  -32.2060  -16.3400   18.4650 C   0  0  0  0  0  2  0  0  0  0  0  0
  -33.0070  -17.2150   17.4860 C   0  0  0  0  0  2  0  0  0  0  0  0
  -32.1040  -18.2320   16.8490 C   0  0  0  0  0  0  0  0  0  0  0  0
  -32.1340  -19.5040   17.2660 N   0  0  0  0  0  0  0  0  0  0  0  0
  -31.2520  -17.8500   15.8870 N   0  0  0  0  0  4  0  0  0  0  0  0
  -32.7960  -19.7930   17.9730 H   0  0  0  0  0  0  0  0  0  0  0  0
  -31.5590  -20.2330   16.8710 H   0  0  0  0  0  0  0  0  0  0  0  0
  -31.2610  -16.8980   15.5460 H   0  0  0  0  0  0  0  0  0  0  0  0
  -30.6300  -18.4890   15.4150 H   0  0  0  0  0  0  0  0  0  0  0  0
  -29.5630  -19.8290   21.4660 C   0  0  0  0  0  2  0  0  0  0  0  0
  -28.4600  -20.3070   20.5070 C   0  0  0  0  0  2  0  0  0  0  0  0
  -28.1720  -21.8080   20.6830 C   0  0  0  0  0  2  0  0  0  0  0  0
  -26.7470  -22.2080   20.2560 C   0  0  0  0  0  2  0  0  0  0  0  0
  -26.4000  -23.5820   20.6840 N   0  0  0  0  0  4  0  0  0  0  0  0
  -27.1030  -23.9460   21.3060 H   0  0  0  0  0  0  0  0  0  0  0  0
  -25.5550  -23.5030   21.2270 H   0  0  0  0  0  0  0  0  0  0  0  0
  -26.1080  -24.5400   19.5910 C   0  0  0  0  0  2  0  0  0  0  0  0
  -27.2180  -24.6450   18.5200 C   0  0  0  0  0  2  0  0  0  0  0  0
  -27.0400  -25.7800   17.4850 C   0  0  0  0  0  2  0  0  0  0  0  0
  -27.3860  -27.0760   17.9840 O   0  0  0  0  0  0  0  0  0  0  0  0
  -25.5420  -30.3920   23.9740 C   0  0  0  0  0  0  0  0  0  0  0  0
  -26.4260  -27.8530   18.5950 C   0  0  0  0  0  0  0  0  0  0  0  0
  -23.7700  -30.2260   22.2560 C   0  0  0  0  0  3  0  0  0  0  0  0
  -24.5320  -29.4550   19.9520 C   0  0  0  0  0  0  0  0  0  0  0  0
  -26.2390  -30.2680   21.5840 C   0  0  0  0  0  2  0  0  0  0  0  0
  -25.8630  -29.4270   20.3840 C   0  0  0  0  0  0  0  0  0  0  0  0
  -26.8120  -28.6310   19.7070 C   0  0  0  0  0  3  0  0  0  0  0  0
  -25.0810  -27.9110   18.1600 C   0  0  0  0  0  3  0  0  0  0  0  0
  -24.1350  -28.6950   18.8400 C   0  0  0  0  0  3  0  0  0  0  0  0
  -23.5740  -30.3340   20.7220 C   0  0  0  0  0  2  0  0  0  0  0  0
  -25.2150  -30.2750   22.6560 N   0  0  0  0  0  0  0  0  0  0  0  0
  -24.6670  -30.5020   24.8430 O   0  0  0  0  0  0  0  0  0  0  0  0
  -23.0370  -28.9620   22.7570 C   0  0  0  0  0  0  0  0  0  0  0  0
  -21.7060  -28.9360   22.5820 N   0  0  0  0  0  0  0  0  0  0  0  0
  -23.6620  -28.0250   23.2600 O   0  0  0  0  0  0  0  0  0  0  0  0
  -21.2690  -29.7480   22.1680 H   0  0  0  0  0  0  0  0  0  0  0  0
  -18.3670  -27.6350   22.1270 C   0  0  0  0  0  0  0  0  0  0  0  0
  -20.8100  -27.8390   22.9440 C   0  0  0  0  0  3  0  0  0  0  0  0
  -21.0950  -26.5840   22.0870 C   0  0  0  0  0  2  0  0  0  0  0  0
  -20.2200  -26.4980   20.8330 C   0  0  0  0  0  2  0  0  0  0  0  0
  -18.7370  -26.4810   21.2130 C   0  0  0  0  0  2  0  0  0  0  0  0
  -19.3430  -28.2820   22.9290 C   0  0  0  0  0  0  0  0  0  0  0  0
  -18.9510  -29.3730   23.7370 C   0  0  0  0  0  3  0  0  0  0  0  0
  -17.6150  -29.8130   23.7540 C   0  0  0  0  0  3  0  0  0  0  0  0
  -16.6480  -29.1580   22.9700 C   0  0  0  0  0  3  0  0  0  0  0  0
  -17.0250  -28.0700   22.1620 C   0  0  0  0  0  3  0  0  0  0  0  0
  -27.0290  -30.4170   24.4480 C   0  0  0  0  0  3  0  0  0  0  0  0
  -27.3090  -31.7690   24.9510 N   0  0  0  0  0  0  0  0  0  0  0  0
  -28.1010  -32.6580   24.3360 C   0  0  0  0  0  0  0  0  0  0  0  0
  -28.7350  -32.3930   23.3110 O   0  0  0  0  0  0  0  0  0  0  0  0
  -26.7810  -32.0740   25.7560 H   0  0  0  0  0  0  0  0  0  0  0  0
  -27.3150  -35.0390   24.1720 C   0  0  0  0  0  1  0  0  0  0  0  0
  -28.2030  -34.0630   24.9580 C   0  0  0  0  0  3  0  0  0  0  0  0
  -30.4430  -33.8400   25.9370 C   0  0  0  0  0  1  0  0  0  0  0  0
  -29.5870  -34.5820   25.0150 N   0  0  0  0  0  0  0  0  0  0  0  0
  -29.5950  -35.5600   25.2920 H   0  0  0  0  0  0  0  0  0  0  0  0
  -27.3510  -29.3340   25.5500 C   0  0  1  0  0  0  0  0  0  0  0  0
  -26.3890  -29.3750   26.7600 C   0  0  0  0  0  1  0  0  0  0  0  0
  -27.2900  -27.9110   24.9470 C   0  0  0  0  0  1  0  0  0  0  0  0
  -28.7960  -29.5280   26.0730 C   0  0  0  0  0  1  0  0  0  0  0  0
  1  4  1  0
  1  3  1  0
  2  1  1  0
  5 44  1  0
  5 14  1  0
  5  4  1  0
  6 12  1  0
  6 14  1  0
  7 12  1  0
  8  9  1  0
  8  7  1  0
 10  9  1  0
 10 19  1  0
 10 11  1  0
 12 11  1  0
 13  6  2  0
 14 15  1  0
 16 17  2  0
 17 36  1  0
 18 17  1  0
 18 21  1  0
 19 16  1  0
 19 20  1  0
 20 18  2  0
 21 22  1  0
 22 23  2  0
 24 23  1  0
 25 24  2  0
 26 25  1  0
 26 21  2  0
 27 24  1  0
 27 28  1  0
 28 33  2  0
 28 29  1  0
 29 30  2  0
 30 31  1  0
 31 35  1  0
 32 31  2  0
 33 32  1  0
 34 33  1  0
 36 37  1  0
 37 40  1  0
 37 39  1  0
 38 36  2  0
 41 42  1  0
 41 16  1  0
 43 41  1  0
 45 44  1  0
 46 45  1  0
 47 48  1  0
 47 46  1  0
 48 50  1  0
 49 47  2  0
 51 48  1  0
 52 49  1  0
 53 49  1  0
 54  1  1  0
 55 56  1  0
 55 54  1  0
 57 56  1  0
 57 58  1  0
 58 60  1  0
 58 59  1  0
 61 58  1  0
 62 61  1  0
 63 64  1  0
 63 62  1  0
 64 66  1  0
 65 76  2  0
 66 71  1  0
 67 75  1  0
 67 77  1  0
 68 70  1  0
 68 74  1  0
 69 75  1  0
 70 69  1  0
 71 70  2  0
 72 66  2  0
 72 73  1  0
 73 68  2  0
 74 67  1  0
 75 65  1  0
 77 79  2  0
 78 77  1  0
 80 78  1  0
 81 90  2  0
 81 86  1  0
 82 78  1  0
 83 82  1  0
 84 85  1  0
 84 83  1  0
 85 81  1  0
 86 82  1  0
 86 87  2  0
 87 88  1  0
 89 88  2  0
 90 89  1  0
 91 65  1  0
 91 92  1  0
 91101  1  0
 92 95  1  0
 93 92  1  0
 93 97  1  0
 94 93  2  0
 97 96  1  0
 97 99  1  0
 99100  1  0
 99 98  1  0
101104  1  1
101102  1  0
103101  1  0
M  ISO  4   6 100  14 100  63 101  64 101
M  END
>  <TORSDO>  (80) 
F 30

>  <SCORE>  (80) 
-8.284

>  <name>  (80) 
80

>  <ligand_id>  (80) 
80

>  <original_smiles>  (80) 
[H]c1c([H])c([H])c2c(c1[H])C([H])([H])C([H])([H])C([H])([H])C2([H])N([H])C(=O)C1([H])N(C(=O)C([H])(N([H])C(=O)C([H])(N([H])C([H])([H])[H])C([H])([H])[H])C(C([H])([H])[H])(C([H])([H])[H])C([H])([H])[H])C([H])([H])c2c([H])c(OC([H])([H])C([H])([H])C([H])([H])[N+]([H])([H])C([H])([H])C([H])([H])C([H])([H])C([H])([H])[N+]([H])([H])C([H])([H])C([H])(N([H])C(=O)N3C([H])([H])C([H])([H])C([H])([H])C([H])(n4nc(-c5c([H])c([H])c(Oc6c([H])c([H])c(F)c([H])c6F)c([H])c5[H])c(C(=O)N([H])[H])c4N([H])[H])C3([H])[H])C([H])([H])C([H])([H])C([H])([H])C(N([H])[H])=[N+]([H])[H])c([H])c([H])c2C1([H])[H]

>  <smiles>  (80) 
[H]c1c([H])c([H])c2c(c1[H])C([H])([H])C([H])([H])C([H])([H])C2([H])N([H])C(=O)C1([H])N(C(=O)C([H])(N([H])C(=O)C([H])(N([H])C([H])([H])[H])C([H])([H])[H])C(C([H])([H])[H])(C([H])([H])[H])C([H])([H])[H])C([H])([H])c2c([H])c(OC([H])([H])C([H])([H])C([H])([H])[N+]([H])([H])C([H])([H])C([H])([H])C([H])([H])C([H])([H])[N+]([H])([H])C([H])([H])C([H])(N([H])C(=O)N3C([H])([H])C([H])([H])C([H])([H])C([H])(n4nc(-c5c([H])c([H])c(Oc6c([H])c([H])c(F)c([H])c6F)c([H])c5[H])c(C(=O)N([H])[H])c4N([H])[H])C3([H])[H])C([H])([H])C([H])([H])C([H])([H])C(N([H])[H])=[N+]([H])[H])c([H])c([H])c2C1([H])[H]

$$$$
81:0:0
     RDKit          3D

 90 98  0  0  1  0  0  0  0  0999 V2000
  -28.6340  -20.8940   19.9910 N   0  0  0  0  0  0  0  0  0  0  0  0
  -30.4270  -15.5280   20.1470 C   0  0  0  0  0  0  0  0  0  0  0  0
  -30.4390  -13.0390   19.3130 C   0  0  0  0  0  2  0  0  0  0  0  0
  -29.5160  -12.7370   18.1040 C   0  0  0  0  0  2  0  0  0  0  0  0
  -28.0850  -12.4290   18.5740 C   0  0  0  0  0  2  0  0  0  0  0  0
  -27.6200  -13.4130   19.6760 C   0  0  0  0  0  3  0  0  0  0  0  0
  -28.6760  -13.6550   20.7750 C   0  0  0  0  0  2  0  0  0  0  0  0
  -29.8660  -14.2040   20.1000 N   0  0  0  0  0  0  0  0  0  0  0  0
  -31.6540  -15.4850   19.9530 O   0  0  0  0  0  0  0  0  0  0  0  0
  -29.1070  -17.8870   19.2500 C   0  0  0  0  0  2  0  0  0  0  0  0
  -29.8750  -18.1750   21.1150 C   0  0  0  0  0  2  0  0  0  0  0  0
  -29.4610  -19.3280   20.0000 C   0  0  0  0  0  3  0  0  0  0  0  0
  -29.7040  -16.8600   20.2630 N   0  0  0  0  0  0  0  0  0  0  0  0
  -25.2710  -13.9390   20.4980 C   0  0  0  0  0  0  0  0  0  0  0  0
  -24.2200  -13.1520   20.8760 C   0  0  0  0  0  0  0  0  0  0  0  0
  -24.6940  -11.8040   20.8170 C   0  0  0  0  0  0  0  0  0  0  0  0
  -26.3110  -13.0740   20.2190 N   0  0  0  0  0  0  0  0  0  0  0  0
  -25.9790  -11.7820   20.4790 N   0  0  0  0  0  0  0  0  0  0  0  0
  -23.9750  -10.5360   21.0040 C   0  0  0  0  0  0  0  0  0  0  0  0
  -24.4110   -9.5680   21.9360 C   0  0  0  0  0  3  0  0  0  0  0  0
  -23.6880   -8.3680   22.1130 C   0  0  0  0  0  3  0  0  0  0  0  0
  -22.5160   -8.1270   21.3590 C   0  0  0  0  0  0  0  0  0  0  0  0
  -22.0990   -9.0830   20.4160 C   0  0  0  0  0  3  0  0  0  0  0  0
  -22.8220  -10.2740   20.2360 C   0  0  0  0  0  3  0  0  0  0  0  0
  -21.7650   -6.9780   21.4460 O   0  0  0  0  0  0  0  0  0  0  0  0
  -21.6990   -6.2470   22.6050 C   0  0  0  0  0  0  0  0  0  0  0  0
  -21.1990   -6.7970   23.8060 C   0  0  0  0  0  3  0  0  0  0  0  0
  -21.0840   -5.9890   24.9540 C   0  0  0  0  0  3  0  0  0  0  0  0
  -21.4600   -4.6330   24.9040 C   0  0  0  0  0  0  0  0  0  0  0  0
  -21.9520   -4.0840   23.7080 C   0  0  0  0  0  3  0  0  0  0  0  0
  -22.0690   -4.8880   22.5610 C   0  0  0  0  0  0  0  0  0  0  0  0
  -22.5250   -4.3480   21.4040 F   0  0  0  0  0  0  0  0  0  0  0  0
  -21.3420   -3.8550   26.0050 F   0  0  0  0  0  0  0  0  0  0  0  0
  -22.8270  -13.6200   21.1740 C   0  0  0  0  0  0  0  0  0  0  0  0
  -22.1210  -12.9200   22.0550 N   0  0  0  0  0  0  0  0  0  0  0  0
  -22.3740  -14.6400   20.6590 O   0  0  0  0  0  0  0  0  0  0  0  0
  -22.5020  -12.0940   22.4940 H   0  0  0  0  0  0  0  0  0  0  0  0
  -21.1850  -13.2160   22.2960 H   0  0  0  0  0  0  0  0  0  0  0  0
  -25.4270  -15.3140   20.3390 N   0  0  0  0  0  0  0  0  0  0  0  0
  -24.6680  -15.9680   20.4910 H   0  0  0  0  0  0  0  0  0  0  0  0
  -26.2820  -15.7590   20.0320 H   0  0  0  0  0  0  0  0  0  0  0  0
  -27.8370  -20.9000   18.7600 C   0  0  0  0  0  2  0  0  0  0  0  0
  -26.3280  -20.9460   19.0790 C   0  0  0  0  0  2  0  0  0  0  0  0
  -25.5030  -20.9390   17.8590 N   0  0  0  0  0  4  0  0  0  0  0  0
  -25.6980  -21.7390   17.2850 H   0  0  0  0  0  0  0  0  0  0  0  0
  -24.5290  -20.9610   18.1060 H   0  0  0  0  0  0  0  0  0  0  0  0
  -25.6670  -20.1060   17.3200 H   0  0  0  0  0  0  0  0  0  0  0  0
  -28.9270  -22.5310   20.2910 C   0  0  0  0  0  3  0  0  0  0  0  0
  -27.9660  -24.1270   20.1210 C   0  0  0  0  0  3  0  0  0  0  0  0
  -28.1840  -25.7980   20.3350 O   0  0  0  0  0  0  0  0  0  0  0  0
  -24.6640  -31.9060   23.2810 C   0  0  0  0  0  0  0  0  0  0  0  0
  -27.1930  -26.9450   20.2710 C   0  0  0  0  0  0  0  0  0  0  0  0
  -23.4720  -30.5190   21.6370 C   0  0  0  0  0  3  0  0  0  0  0  0
  -24.9150  -28.8940   20.2180 C   0  0  0  0  0  0  0  0  0  0  0  0
  -26.0430  -30.6920   21.5090 C   0  0  0  0  0  2  0  0  0  0  0  0
  -26.1060  -29.2740   20.8480 C   0  0  0  0  0  0  0  0  0  0  0  0
  -27.2380  -28.3250   20.8440 C   0  0  0  0  0  3  0  0  0  0  0  0
  -25.9720  -26.7390   19.5910 C   0  0  0  0  0  3  0  0  0  0  0  0
  -24.8780  -27.6490   19.5670 C   0  0  0  0  0  3  0  0  0  0  0  0
  -23.7060  -29.8330   20.2630 C   0  0  0  0  0  2  0  0  0  0  0  0
  -24.7490  -31.0690   22.1960 N   0  0  0  0  0  0  0  0  0  0  0  0
  -23.5720  -32.2040   23.7950 O   0  0  0  0  0  0  0  0  0  0  0  0
  -22.7600  -29.5330   22.6010 C   0  0  0  0  0  0  0  0  0  0  0  0
  -21.4310  -29.3680   22.4620 N   0  0  0  0  0  0  0  0  0  0  0  0
  -23.4140  -28.9130   23.4440 O   0  0  0  0  0  0  0  0  0  0  0  0
  -20.9560  -29.9190   21.7600 H   0  0  0  0  0  0  0  0  0  0  0  0
  -18.0420  -28.1550   22.9430 C   0  0  0  0  0  0  0  0  0  0  0  0
  -20.5990  -28.4320   23.2280 C   0  0  0  0  0  3  0  0  0  0  0  0
  -20.7110  -26.9980   22.6590 C   0  0  0  0  0  2  0  0  0  0  0  0
  -19.6190  -26.6690   21.6350 C   0  0  0  0  0  2  0  0  0  0  0  0
  -18.2310  -26.8070   22.2660 C   0  0  0  0  0  2  0  0  0  0  0  0
  -19.1540  -28.9250   23.3790 C   0  0  0  0  0  0  0  0  0  0  0  0
  -18.9200  -30.1830   23.9760 C   0  0  0  0  0  3  0  0  0  0  0  0
  -17.6100  -30.6720   24.1380 C   0  0  0  0  0  3  0  0  0  0  0  0
  -16.5150  -29.9010   23.7140 C   0  0  0  0  0  3  0  0  0  0  0  0
  -16.7310  -28.6430   23.1220 C   0  0  0  0  0  3  0  0  0  0  0  0
  -25.9320  -32.5450   23.9240 C   0  0  0  0  0  3  0  0  0  0  0  0
  -25.6270  -33.9540   24.2340 N   0  0  0  0  0  0  0  0  0  0  0  0
  -25.9550  -35.0010   23.4630 C   0  0  0  0  0  0  0  0  0  0  0  0
  -26.6050  -34.8800   22.4230 O   0  0  0  0  0  0  0  0  0  0  0  0
  -25.0450  -34.1210   25.0420 H   0  0  0  0  0  0  0  0  0  0  0  0
  -24.2230  -36.8040   23.1440 C   0  0  0  0  0  1  0  0  0  0  0  0
  -25.4910  -36.4010   23.9160 C   0  0  0  0  0  3  0  0  0  0  0  0
  -27.6500  -37.3030   24.6670 C   0  0  0  0  0  1  0  0  0  0  0  0
  -26.5240  -37.4490   23.7490 N   0  0  0  0  0  0  0  0  0  0  0  0
  -26.1250  -38.3740   23.8810 H   0  0  0  0  0  0  0  0  0  0  0  0
  -26.4060  -31.7960   25.2320 C   0  0  1  0  0  0  0  0  0  0  0  0
  -25.2840  -31.5980   26.2790 C   0  0  0  0  0  1  0  0  0  0  0  0
  -26.9800  -30.4030   24.8960 C   0  0  0  0  0  1  0  0  0  0  0  0
  -27.5510  -32.5910   25.9040 C   0  0  0  0  0  1  0  0  0  0  0  0
  1 48  1  0
  2 13  1  0
  3  8  1  0
  4  5  1  0
  4  3  1  0
  6  5  1  0
  6 17  1  0
  6  7  1  0
  8  2  1  0
  8  7  1  0
  9  2  2  0
 10 12  1  0
 10 13  1  0
 12  1  1  0
 12 11  1  0
 13 11  1  0
 14 15  2  0
 15 34  1  0
 16 15  1  0
 16 19  1  0
 17 18  1  0
 17 14  1  0
 18 16  2  0
 19 20  1  0
 20 21  2  0
 22 25  1  0
 22 21  1  0
 23 22  2  0
 24 23  1  0
 24 19  2  0
 25 26  1  0
 26 27  1  0
 27 28  2  0
 29 28  1  0
 29 33  1  0
 30 29  2  0
 31 26  2  0
 31 30  1  0
 32 31  1  0
 34 35  1  0
 35 38  1  0
 35 37  1  0
 36 34  2  0
 39 40  1  0
 39 14  1  0
 41 39  1  0
 42 43  1  0
 42  1  1  0
 44 46  1  0
 44 43  1  0
 45 44  1  0
 47 44  1  0
 49 48  2  0
 49 50  1  0
 51 62  2  0
 52 50  1  0
 52 57  1  0
 53 61  1  0
 53 63  1  0
 54 60  1  0
 54 56  1  0
 55 61  1  0
 56 55  1  0
 57 56  2  0
 58 52  2  0
 59 58  1  0
 59 54  2  0
 60 53  1  0
 61 51  1  0
 63 65  2  0
 64 63  1  0
 66 64  1  0
 67 76  2  0
 67 72  1  0
 68 64  1  0
 68 72  1  0
 69 68  1  0
 70 71  1  0
 70 69  1  0
 71 67  1  0
 72 73  2  0
 73 74  1  0
 75 74  2  0
 76 75  1  0
 77 51  1  0
 77 78  1  0
 77 87  1  0
 78 81  1  0
 79 83  1  0
 79 78  1  0
 80 79  2  0
 83 82  1  0
 85 86  1  0
 85 83  1  0
 85 84  1  0
 87 90  1  1
 87 88  1  0
 89 87  1  0
M  ISO  4   2 100  13 100  49 101  50 101
M  END
>  <TORSDO>  (81) 
F 21

>  <SCORE>  (81) 
-15.381

>  <name>  (81) 
81

>  <ligand_id>  (81) 
81

>  <original_smiles>  (81) 
[H]c1c([H])c([H])c2c(c1[H])C([H])([H])C([H])([H])C([H])([H])C2([H])N([H])C(=O)C1([H])N(C(=O)C([H])(N([H])C(=O)C([H])(N([H])C([H])([H])[H])C([H])([H])[H])C(C([H])([H])[H])(C([H])([H])[H])C([H])([H])[H])C([H])([H])c2c([H])c(OC([H])([H])C([H])([H])N(C([H])([H])C([H])([H])[N+]([H])([H])[H])C3([H])C([H])([H])N(C(=O)N4C([H])([H])C([H])([H])C([H])([H])C([H])(n5nc(-c6c([H])c([H])c(Oc7c([H])c([H])c(F)c([H])c7F)c([H])c6[H])c(C(=O)N([H])[H])c5N([H])[H])C4([H])[H])C3([H])[H])c([H])c([H])c2C1([H])[H]

>  <smiles>  (81) 
[H]c1c([H])c([H])c2c(c1[H])C([H])([H])C([H])([H])C([H])([H])C2([H])N([H])C(=O)C1([H])N(C(=O)C([H])(N([H])C(=O)C([H])(N([H])C([H])([H])[H])C([H])([H])[H])C(C([H])([H])[H])(C([H])([H])[H])C([H])([H])[H])C([H])([H])c2c([H])c(OC([H])([H])C([H])([H])N(C([H])([H])C([H])([H])[N+]([H])([H])[H])C3([H])C([H])([H])N(C(=O)N4C([H])([H])C([H])([H])C([H])([H])C([H])(n5nc(-c6c([H])c([H])c(Oc7c([H])c([H])c(F)c([H])c7F)c([H])c6[H])c(C(=O)N([H])[H])c5N([H])[H])C4([H])[H])C3([H])[H])c([H])c([H])c2C1([H])[H]

$$$$
82:0:0
     RDKit          3D

 88 95  0  0  1  0  0  0  0  0999 V2000
  -29.0020  -22.4980   20.7500 C   0  0  0  0  0  3  0  0  0  0  0  0
  -28.8400  -21.1450   20.0520 N   0  0  0  0  0  4  0  0  0  0  0  0
  -27.8710  -20.8800   20.1330 H   0  0  0  0  0  0  0  0  0  0  0  0
  -29.0260  -21.2710   19.0700 H   0  0  0  0  0  0  0  0  0  0  0  0
  -29.7050  -19.9750   20.5270 C   0  0  0  0  0  3  0  0  0  0  0  0
  -29.2620  -18.4610   20.1830 C   0  0  0  0  0  3  0  0  0  0  0  0
  -30.3770  -17.2990   20.2700 C   0  0  0  0  0  2  0  0  0  0  0  0
  -30.6230  -14.7320   20.0800 C   0  0  0  0  0  0  0  0  0  0  0  0
  -30.3220  -12.5250   18.9310 C   0  0  0  0  0  2  0  0  0  0  0  0
  -29.3070  -12.6540   17.7720 C   0  0  0  0  0  2  0  0  0  0  0  0
  -27.8610  -12.4770   18.2800 C   0  0  0  0  0  2  0  0  0  0  0  0
  -27.5790  -13.3060   19.5600 C   0  0  0  0  0  3  0  0  0  0  0  0
  -28.6980  -13.0950   20.5970 C   0  0  0  0  0  2  0  0  0  0  0  0
  -29.9620  -13.5220   19.9710 N   0  0  0  0  0  0  0  0  0  0  0  0
  -31.7220  -14.8610   19.5270 O   0  0  0  0  0  0  0  0  0  0  0  0
  -29.4330  -15.8210   21.9550 C   0  0  0  0  0  1  0  0  0  0  0  0
  -29.9700  -15.8610   20.5860 N   0  0  0  0  0  0  0  0  0  0  0  0
  -25.2440  -13.8990   20.4450 C   0  0  0  0  0  0  0  0  0  0  0  0
  -24.2000  -13.1220   20.8680 C   0  0  0  0  0  0  0  0  0  0  0  0
  -24.6530  -11.7690   20.7790 C   0  0  0  0  0  0  0  0  0  0  0  0
  -26.2640  -13.0180   20.1220 N   0  0  0  0  0  0  0  0  0  0  0  0
  -25.9190  -11.7310   20.3840 N   0  0  0  0  0  0  0  0  0  0  0  0
  -23.9350  -10.5060   20.9910 C   0  0  0  0  0  0  0  0  0  0  0  0
  -24.4080   -9.5290   21.8920 C   0  0  0  0  0  3  0  0  0  0  0  0
  -23.6900   -8.3300   22.0910 C   0  0  0  0  0  3  0  0  0  0  0  0
  -22.4820   -8.1020   21.3880 C   0  0  0  0  0  0  0  0  0  0  0  0
  -22.0280   -9.0680   20.4730 C   0  0  0  0  0  3  0  0  0  0  0  0
  -22.7470  -10.2580   20.2730 C   0  0  0  0  0  3  0  0  0  0  0  0
  -21.7300   -6.9570   21.4980 O   0  0  0  0  0  0  0  0  0  0  0  0
  -21.7090   -6.2160   22.6520 C   0  0  0  0  0  0  0  0  0  0  0  0
  -21.3300   -6.7790   23.8910 C   0  0  0  0  0  3  0  0  0  0  0  0
  -21.2560   -5.9660   25.0400 C   0  0  0  0  0  3  0  0  0  0  0  0
  -21.5520   -4.5920   24.9520 C   0  0  0  0  0  0  0  0  0  0  0  0
  -21.9240   -4.0300   23.7180 C   0  0  0  0  0  3  0  0  0  0  0  0
  -22.0000   -4.8400   22.5710 C   0  0  0  0  0  0  0  0  0  0  0  0
  -22.3390   -4.2890   21.3810 F   0  0  0  0  0  0  0  0  0  0  0  0
  -21.4740   -3.8090   26.0530 F   0  0  0  0  0  0  0  0  0  0  0  0
  -22.8260  -13.5990   21.2380 C   0  0  0  0  0  0  0  0  0  0  0  0
  -22.1530  -12.8930   22.1420 N   0  0  0  0  0  0  0  0  0  0  0  0
  -22.3580  -14.6320   20.7620 O   0  0  0  0  0  0  0  0  0  0  0  0
  -22.5450  -12.0560   22.5480 H   0  0  0  0  0  0  0  0  0  0  0  0
  -21.2340  -13.1940   22.4310 H   0  0  0  0  0  0  0  0  0  0  0  0
  -25.4070  -15.2720   20.2880 N   0  0  0  0  0  0  0  0  0  0  0  0
  -24.6600  -15.9330   20.4690 H   0  0  0  0  0  0  0  0  0  0  0  0
  -26.2490  -15.7110   19.9340 H   0  0  0  0  0  0  0  0  0  0  0  0
  -28.5220  -23.8420   19.9970 C   0  0  0  0  0  3  0  0  0  0  0  0
  -28.3840  -25.1890   20.8610 C   0  0  0  0  0  2  0  0  0  0  0  0
  -28.4380  -26.5430   20.2530 O   0  0  0  0  0  0  0  0  0  0  0  0
  -24.6160  -31.9110   23.2570 C   0  0  0  0  0  0  0  0  0  0  0  0
  -27.2970  -27.3560   20.2660 C   0  0  0  0  0  0  0  0  0  0  0  0
  -23.4380  -30.4860   21.6180 C   0  0  0  0  0  3  0  0  0  0  0  0
  -24.9140  -28.9320   20.2200 C   0  0  0  0  0  0  0  0  0  0  0  0
  -25.9720  -30.8330   21.4470 C   0  0  0  0  0  2  0  0  0  0  0  0
  -26.0720  -29.4460   20.8170 C   0  0  0  0  0  0  0  0  0  0  0  0
  -27.2690  -28.6710   20.8260 C   0  0  0  0  0  3  0  0  0  0  0  0
  -26.1170  -26.8830   19.6580 C   0  0  0  0  0  3  0  0  0  0  0  0
  -24.9390  -27.6560   19.6280 C   0  0  0  0  0  3  0  0  0  0  0  0
  -23.6690  -29.7960   20.2470 C   0  0  0  0  0  2  0  0  0  0  0  0
  -24.6940  -31.0950   22.1640 N   0  0  0  0  0  0  0  0  0  0  0  0
  -23.5260  -32.1790   23.7830 O   0  0  0  0  0  0  0  0  0  0  0  0
  -22.7780  -29.4720   22.5830 C   0  0  0  0  0  0  0  0  0  0  0  0
  -21.4570  -29.2690   22.4380 N   0  0  0  0  0  0  0  0  0  0  0  0
  -23.4550  -28.8700   23.4200 O   0  0  0  0  0  0  0  0  0  0  0  0
  -20.9690  -29.8070   21.7360 H   0  0  0  0  0  0  0  0  0  0  0  0
  -18.1010  -27.9970   22.8810 C   0  0  0  0  0  0  0  0  0  0  0  0
  -20.6450  -28.3270   23.2090 C   0  0  0  0  0  3  0  0  0  0  0  0
  -20.7970  -26.8870   22.6670 C   0  0  0  0  0  2  0  0  0  0  0  0
  -19.7300  -26.5160   21.6320 C   0  0  0  0  0  2  0  0  0  0  0  0
  -18.3290  -26.6400   22.2390 C   0  0  0  0  0  2  0  0  0  0  0  0
  -19.1880  -28.7960   23.3230 C   0  0  0  0  0  0  0  0  0  0  0  0
  -18.9220  -30.0660   23.8810 C   0  0  0  0  0  3  0  0  0  0  0  0
  -17.6010  -30.5360   24.0050 C   0  0  0  0  0  3  0  0  0  0  0  0
  -16.5280  -29.7340   23.5800 C   0  0  0  0  0  3  0  0  0  0  0  0
  -16.7790  -28.4670   23.0230 C   0  0  0  0  0  3  0  0  0  0  0  0
  -25.8880  -32.5620   23.8850 C   0  0  0  0  0  3  0  0  0  0  0  0
  -26.3920  -31.8150   25.1800 C   0  0  1  0  0  0  0  0  0  0  0  0
  -25.2870  -31.5930   26.2410 C   0  0  0  0  0  1  0  0  0  0  0  0
  -26.9840  -30.4340   24.8200 C   0  0  0  0  0  1  0  0  0  0  0  0
  -27.5330  -32.6250   25.8400 C   0  0  0  0  0  1  0  0  0  0  0  0
  -25.5680  -33.9640   24.1880 N   0  0  0  0  0  0  0  0  0  0  0  0
  -25.8950  -35.0060   23.4110 C   0  0  0  0  0  0  0  0  0  0  0  0
  -26.5700  -34.8880   22.3840 O   0  0  0  0  0  0  0  0  0  0  0  0
  -24.9730  -34.1300   24.9870 H   0  0  0  0  0  0  0  0  0  0  0  0
  -24.1520  -36.7770   23.0270 C   0  0  0  0  0  1  0  0  0  0  0  0
  -25.3990  -36.3990   23.8430 C   0  0  0  0  0  3  0  0  0  0  0  0
  -27.5300  -37.3160   24.6480 C   0  0  0  0  0  1  0  0  0  0  0  0
  -26.4220  -37.4590   23.7040 N   0  0  0  0  0  0  0  0  0  0  0  0
  -26.0090  -38.3790   23.8380 H   0  0  0  0  0  0  0  0  0  0  0  0
  2  3  1  0
  2  5  1  0
  2  1  1  0
  4  2  1  0
  6  7  1  0
  6  5  2  0
  7 17  1  0
  8 17  1  0
  9 14  1  0
 10 11  1  0
 10  9  1  0
 12 11  1  0
 12 21  1  0
 12 13  1  0
 14  8  1  0
 14 13  1  0
 15  8  2  0
 17 16  1  0
 18 19  2  0
 19 38  1  0
 20 19  1  0
 20 23  1  0
 21 22  1  0
 21 18  1  0
 22 20  2  0
 23 24  1  0
 24 25  2  0
 26 29  1  0
 26 25  1  0
 27 26  2  0
 28 27  1  0
 28 23  2  0
 29 30  1  0
 30 31  1  0
 31 32  2  0
 33 32  1  0
 33 37  1  0
 34 33  2  0
 35 30  2  0
 35 34  1  0
 36 35  1  0
 38 39  1  0
 39 42  1  0
 39 41  1  0
 40 38  2  0
 43 18  1  0
 43 44  1  0
 45 43  1  0
 46  1  2  0
 46 47  1  0
 48 50  1  0
 48 47  1  0
 49 60  2  0
 50 55  1  0
 51 59  1  0
 51 61  1  0
 52 58  1  0
 52 54  1  0
 53 59  1  0
 54 55  2  0
 54 53  1  0
 56 50  2  0
 57 56  1  0
 57 52  2  0
 58 51  1  0
 59 49  1  0
 61 63  2  0
 62 61  1  0
 64 62  1  0
 65 74  2  0
 65 70  1  0
 66 62  1  0
 66 70  1  0
 67 66  1  0
 68 69  1  0
 68 67  1  0
 69 65  1  0
 70 71  2  0
 71 72  1  0
 73 72  2  0
 74 73  1  0
 75 49  1  0
 75 80  1  0
 75 76  1  0
 76 79  1  1
 76 77  1  0
 78 76  1  0
 80 83  1  0
 81 85  1  0
 81 80  1  0
 82 81  2  0
 85 84  1  0
 87 88  1  0
 87 85  1  0
 87 86  1  0
M  ISO  4   8 100  17 100  47 101  48 101
M  END
>  <TORSDO>  (82) 
F 22

>  <SCORE>  (82) 
-12.158

>  <name>  (82) 
82

>  <ligand_id>  (82) 
82

>  <original_smiles>  (82) 
[H]c1c([H])c([H])c2c(c1[H])C([H])([H])C([H])([H])C([H])([H])C2([H])N([H])C(=O)C1([H])N(C(=O)C([H])(N([H])C(=O)C([H])(N([H])C([H])([H])[H])C([H])([H])[H])C(C([H])([H])[H])(C([H])([H])[H])C([H])([H])[H])C([H])([H])c2c([H])c(OC([H])([H])C([H])([H])C([H])([H])[N+]([H])([H])C([H])([H])C([H])([H])C([H])([H])N(C(=O)N3C([H])([H])C([H])([H])C([H])([H])C([H])(n4nc(-c5c([H])c([H])c(Oc6c([H])c([H])c(F)c([H])c6F)c([H])c5[H])c(C(=O)N([H])[H])c4N([H])[H])C3([H])[H])C([H])([H])[H])c([H])c([H])c2C1([H])[H]

>  <smiles>  (82) 
[H]c1c([H])c([H])c2c(c1[H])C([H])([H])C([H])([H])C([H])([H])C2([H])N([H])C(=O)C1([H])N(C(=O)C([H])(N([H])C(=O)C([H])(N([H])C([H])([H])[H])C([H])([H])[H])C(C([H])([H])[H])(C([H])([H])[H])C([H])([H])[H])C([H])([H])c2c([H])c(OC([H])([H])C([H])([H])C([H])([H])[N+]([H])([H])C([H])([H])C([H])([H])C([H])([H])N(C(=O)N3C([H])([H])C([H])([H])C([H])([H])C([H])(n4nc(-c5c([H])c([H])c(Oc6c([H])c([H])c(F)c([H])c6F)c([H])c5[H])c(C(=O)N([H])[H])c4N([H])[H])C3([H])[H])C([H])([H])[H])c([H])c([H])c2C1([H])[H]

$$$$
83:0:0
     RDKit          3D

103111  0  0  1  0  0  0  0  0999 V2000
  -29.8110  -18.7490   20.5030 C   0  0  0  0  0  3  0  0  0  0  0  0
  -30.9210  -14.8360   21.0000 C   0  0  0  0  0  0  0  0  0  0  0  0
  -30.7990  -12.4390   20.3280 C   0  0  0  0  0  2  0  0  0  0  0  0
  -30.0220  -12.2750   19.0020 C   0  0  0  0  0  2  0  0  0  0  0  0
  -28.4930  -12.2540   19.2450 C   0  0  0  0  0  2  0  0  0  0  0  0
  -27.9640  -13.2520   20.3220 C   0  0  0  0  0  3  0  0  0  0  0  0
  -28.9090  -13.3410   21.5420 C   0  0  0  0  0  2  0  0  0  0  0  0
  -30.2600  -13.6250   21.0290 N   0  0  0  0  0  0  0  0  0  0  0  0
  -32.1480  -14.8540   21.1150 O   0  0  0  0  0  0  0  0  0  0  0  0
  -30.5630  -16.2710   17.9220 C   0  0  0  0  0  3  0  0  0  0  0  0
  -32.0320  -17.5930   19.6090 C   0  0  0  0  0  2  0  0  0  0  0  0
  -29.7040  -15.8050   19.1150 C   0  0  0  0  0  3  0  0  0  0  0  0
  -31.9510  -16.8830   18.2340 C   0  0  0  0  0  3  0  0  0  0  0  0
  -30.8010  -17.4300   20.5470 C   0  0  0  0  0  3  0  0  0  0  0  0
  -30.2850  -15.9760   20.4630 N   0  0  0  0  0  0  0  0  0  0  0  0
  -25.5170  -13.8960   20.7250 C   0  0  0  0  0  0  0  0  0  0  0  0
  -24.4110  -13.1360   20.9740 C   0  0  0  0  0  0  0  0  0  0  0  0
  -24.8690  -11.7840   21.0670 C   0  0  0  0  0  0  0  0  0  0  0  0
  -26.5780  -13.0000   20.6740 N   0  0  0  0  0  0  0  0  0  0  0  0
  -26.1860  -11.7300   20.9460 N   0  0  0  0  0  0  0  0  0  0  0  0
  -24.1220  -10.5340   21.2080 C   0  0  0  0  0  0  0  0  0  0  0  0
  -24.4680   -9.5830   22.1910 C   0  0  0  0  0  3  0  0  0  0  0  0
  -23.7180   -8.3980   22.3270 C   0  0  0  0  0  3  0  0  0  0  0  0
  -22.6160   -8.1550   21.4730 C   0  0  0  0  0  0  0  0  0  0  0  0
  -22.2940   -9.0970   20.4800 C   0  0  0  0  0  3  0  0  0  0  0  0
  -23.0430  -10.2740   20.3410 C   0  0  0  0  0  3  0  0  0  0  0  0
  -21.8380   -7.0220   21.5170 O   0  0  0  0  0  0  0  0  0  0  0  0
  -21.7190   -6.2760   22.6630 C   0  0  0  0  0  0  0  0  0  0  0  0
  -21.2340   -6.8320   23.8680 C   0  0  0  0  0  3  0  0  0  0  0  0
  -21.0540   -6.0110   24.9980 C   0  0  0  0  0  3  0  0  0  0  0  0
  -21.3550   -4.6380   24.9280 C   0  0  0  0  0  0  0  0  0  0  0  0
  -21.8350   -4.0840   23.7280 C   0  0  0  0  0  3  0  0  0  0  0  0
  -22.0110   -4.9000   22.5980 C   0  0  0  0  0  0  0  0  0  0  0  0
  -22.4490   -4.3550   21.4400 F   0  0  0  0  0  0  0  0  0  0  0  0
  -21.1790   -3.8480   26.0140 F   0  0  0  0  0  0  0  0  0  0  0  0
  -22.9910  -13.6200   21.0460 C   0  0  0  0  0  0  0  0  0  0  0  0
  -22.1620  -12.9670   21.8530 N   0  0  0  0  0  0  0  0  0  0  0  0
  -22.6270  -14.6170   20.4180 O   0  0  0  0  0  0  0  0  0  0  0  0
  -22.4820  -12.1710   22.3910 H   0  0  0  0  0  0  0  0  0  0  0  0
  -21.2020  -13.2700   21.9450 H   0  0  0  0  0  0  0  0  0  0  0  0
  -25.6840  -15.2630   20.5120 N   0  0  0  0  0  0  0  0  0  0  0  0
  -24.8700  -15.8650   20.5470 H   0  0  0  0  0  0  0  0  0  0  0  0
  -26.5490  -15.7690   20.3580 H   0  0  0  0  0  0  0  0  0  0  0  0
  -33.0430  -15.9040   18.0450 N   0  0  0  0  0  4  0  0  0  0  0  0
  -32.9990  -15.1470   18.7010 H   0  0  0  0  0  0  0  0  0  0  0  0
  -33.9390  -16.3560   18.1500 H   0  0  0  0  0  0  0  0  0  0  0  0
  -33.0090  -15.5230   17.1150 H   0  0  0  0  0  0  0  0  0  0  0  0
  -29.2380  -19.2340   19.1330 C   0  0  0  0  0  2  0  0  0  0  0  0
  -30.1240  -20.1150   18.2090 C   0  0  0  0  0  2  0  0  0  0  0  0
  -29.2870  -21.2040   17.5070 C   0  0  0  0  0  2  0  0  0  0  0  0
  -30.1460  -22.3230   16.8880 C   0  0  0  0  0  2  0  0  0  0  0  0
  -29.3780  -23.5570   16.6430 N   0  0  0  0  0  4  0  0  0  0  0  0
  -28.6530  -23.4150   15.9630 H   0  0  0  0  0  0  0  0  0  0  0  0
  -29.9920  -24.2690   16.2910 H   0  0  0  0  0  0  0  0  0  0  0  0
  -28.9630  -23.8950   17.4920 H   0  0  0  0  0  0  0  0  0  0  0  0
  -30.3220  -20.0730   21.2790 C   0  0  0  0  0  2  0  0  0  0  0  0
  -29.4000  -21.2860   21.4470 N   0  0  0  0  0  4  0  0  0  0  0  0
  -28.4430  -20.9860   21.5100 H   0  0  0  0  0  0  0  0  0  0  0  0
  -29.6370  -21.6270   22.3630 H   0  0  0  0  0  0  0  0  0  0  0  0
  -29.5260  -22.5170   20.5510 C   0  0  0  0  0  2  0  0  0  0  0  0
  -28.8920  -23.8990   21.0800 C   0  0  0  0  0  3  0  0  0  0  0  0
  -28.9710  -25.2060   20.1520 C   0  0  0  0  0  3  0  0  0  0  0  0
  -28.7240  -26.5510   20.7220 O   0  0  0  0  0  0  0  0  0  0  0  0
  -24.6960  -31.9250   23.2850 C   0  0  0  0  0  0  0  0  0  0  0  0
  -27.5460  -27.3020   20.5610 C   0  0  0  0  0  0  0  0  0  0  0  0
  -23.5920  -30.4340   21.6490 C   0  0  0  0  0  3  0  0  0  0  0  0
  -25.1370  -28.8450   20.3640 C   0  0  0  0  0  0  0  0  0  0  0  0
  -26.1270  -30.8000   21.5670 C   0  0  0  0  0  2  0  0  0  0  0  0
  -26.2620  -29.3930   20.9900 C   0  0  0  0  0  0  0  0  0  0  0  0
  -27.4620  -28.6310   21.0790 C   0  0  0  0  0  3  0  0  0  0  0  0
  -26.3900  -26.7900   19.9280 C   0  0  0  0  0  3  0  0  0  0  0  0
  -25.2050  -27.5480   19.8240 C   0  0  0  0  0  3  0  0  0  0  0  0
  -23.8800  -29.6900   20.3160 C   0  0  0  0  0  2  0  0  0  0  0  0
  -24.8220  -31.0750   22.2240 N   0  0  0  0  0  0  0  0  0  0  0  0
  -23.5890  -32.2080   23.7610 O   0  0  0  0  0  0  0  0  0  0  0  0
  -22.9020  -29.4540   22.6280 C   0  0  0  0  0  0  0  0  0  0  0  0
  -21.5810  -29.2610   22.4600 N   0  0  0  0  0  0  0  0  0  0  0  0
  -23.5530  -28.8690   23.4980 O   0  0  0  0  0  0  0  0  0  0  0  0
  -21.1170  -29.7850   21.7310 H   0  0  0  0  0  0  0  0  0  0  0  0
  -18.1890  -28.0910   22.9070 C   0  0  0  0  0  0  0  0  0  0  0  0
  -20.7400  -28.3470   23.2350 C   0  0  0  0  0  3  0  0  0  0  0  0
  -20.8500  -26.9000   22.6980 C   0  0  0  0  0  2  0  0  0  0  0  0
  -19.7710  -26.5570   21.6660 C   0  0  0  0  0  2  0  0  0  0  0  0
  -18.3750  -26.7240   22.2710 C   0  0  0  0  0  2  0  0  0  0  0  0
  -19.3000  -28.8590   23.3450 C   0  0  0  0  0  0  0  0  0  0  0  0
  -19.0730  -30.1380   23.8980 C   0  0  0  0  0  3  0  0  0  0  0  0
  -17.7650  -30.6480   24.0200 C   0  0  0  0  0  3  0  0  0  0  0  0
  -16.6680  -29.8770   23.5980 C   0  0  0  0  0  3  0  0  0  0  0  0
  -16.8800  -28.6000   23.0460 C   0  0  0  0  0  3  0  0  0  0  0  0
  -25.9420  -32.6040   23.9360 C   0  0  0  0  0  3  0  0  0  0  0  0
  -25.5870  -34.0000   24.2310 N   0  0  0  0  0  0  0  0  0  0  0  0
  -25.9210  -35.0480   23.4660 C   0  0  0  0  0  0  0  0  0  0  0  0
  -26.6290  -34.9430   22.4590 O   0  0  0  0  0  0  0  0  0  0  0  0
  -24.9600  -34.1520   25.0080 H   0  0  0  0  0  0  0  0  0  0  0  0
  -24.1570  -36.7870   23.0300 C   0  0  0  0  0  1  0  0  0  0  0  0
  -25.3850  -36.4320   23.8820 C   0  0  0  0  0  3  0  0  0  0  0  0
  -27.4710  -37.3910   24.7520 C   0  0  0  0  0  1  0  0  0  0  0  0
  -26.3920  -37.5090   23.7750 N   0  0  0  0  0  0  0  0  0  0  0  0
  -25.9590  -38.4210   23.8910 H   0  0  0  0  0  0  0  0  0  0  0  0
  -26.4370  -31.8700   25.2430 C   0  0  1  0  0  0  0  0  0  0  0  0
  -25.3110  -31.5980   26.2690 C   0  0  0  0  0  1  0  0  0  0  0  0
  -27.0970  -30.5150   24.8950 C   0  0  0  0  0  1  0  0  0  0  0  0
  -27.5260  -32.7220   25.9420 C   0  0  0  0  0  1  0  0  0  0  0  0
  1 48  1  0
  1 56  1  0
  2  8  1  0
  2  9  2  0
  3  8  1  0
  4  5  1  0
  4  3  1  0
  6  5  1  0
  6 19  1  0
  6  7  1  0
  8  7  1  0
 10 13  1  0
 10 12  2  0
 11 14  1  0
 12 15  1  0
 13 44  1  0
 13 11  1  0
 14  1  1  0
 15 14  1  0
 15  2  1  0
 16 17  2  0
 17 36  1  0
 17 18  1  0
 18 21  1  0
 19 16  1  0
 19 20  1  0
 20 18  2  0
 21 22  1  0
 22 23  2  0
 24 27  1  0
 24 23  1  0
 25 24  2  0
 26 25  1  0
 26 21  2  0
 27 28  1  0
 28 29  1  0
 29 30  2  0
 31 30  1  0
 31 35  1  0
 32 31  2  0
 33 28  2  0
 33 32  1  0
 34 33  1  0
 36 37  1  0
 37 40  1  0
 37 39  1  0
 38 36  2  0
 41 42  1  0
 41 16  1  0
 43 41  1  0
 44 46  1  0
 44 45  1  0
 47 44  1  0
 49 48  1  0
 50 49  1  0
 51 50  1  0
 52 51  1  0
 52 55  1  0
 53 52  1  0
 54 52  1  0
 56 57  1  0
 57 58  1  0
 57 59  1  0
 60 61  1  0
 60 57  1  0
 62 63  1  0
 62 61  2  0
 64 75  2  0
 65 63  1  0
 65 70  1  0
 66 74  1  0
 66 76  1  0
 67 69  1  0
 68 74  1  0
 69 70  2  0
 69 68  1  0
 71 65  2  0
 72 71  1  0
 72 67  2  0
 73 67  1  0
 73 66  1  0
 74 64  1  0
 76 78  2  0
 77 76  1  0
 79 77  1  0
 80 89  2  0
 80 85  1  0
 81 77  1  0
 81 85  1  0
 82 81  1  0
 83 84  1  0
 83 82  1  0
 84 80  1  0
 85 86  2  0
 86 87  1  0
 88 87  2  0
 89 88  1  0
 90 64  1  0
 90 91  1  0
 90100  1  0
 91 94  1  0
 92 96  1  0
 92 91  1  0
 93 92  2  0
 96 95  1  0
 98 96  1  0
 98 99  1  0
 98 97  1  0
100103  1  1
100101  1  0
102100  1  0
M  ISO  4   2 100  15 100  62 101  63 101
M  END
>  <TORSDO>  (83) 
F 27

>  <SCORE>  (83) 
-11.270

>  <name>  (83) 
83

>  <ligand_id>  (83) 
83

>  <original_smiles>  (83) 
[H]c1c([H])c([H])c2c(c1[H])C([H])([H])C([H])([H])C([H])([H])C2([H])N([H])C(=O)C1([H])N(C(=O)C([H])(N([H])C(=O)C([H])(N([H])C([H])([H])[H])C([H])([H])[H])C(C([H])([H])[H])(C([H])([H])[H])C([H])([H])[H])C([H])([H])c2c([H])c(OC([H])([H])C([H])([H])C([H])([H])[N+]([H])([H])C([H])([H])C([H])(C([H])([H])C([H])([H])C([H])([H])C([H])([H])[N+]([H])([H])[H])C3([H])N(C(=O)N4C([H])([H])C([H])([H])C([H])([H])C([H])(n5nc(-c6c([H])c([H])c(Oc7c([H])c([H])c(F)c([H])c7F)c([H])c6[H])c(C(=O)N([H])[H])c5N([H])[H])C4([H])[H])C([H])([H])C([H])([H])C([H])([N+]([H])([H])[H])C3([H])[H])c([H])c([H])c2C1([H])[H]

>  <smiles>  (83) 
[H]c1c([H])c([H])c2c(c1[H])C([H])([H])C([H])([H])C([H])([H])C2([H])N([H])C(=O)C1([H])N(C(=O)C([H])(N([H])C(=O)C([H])(N([H])C([H])([H])[H])C([H])([H])[H])C(C([H])([H])[H])(C([H])([H])[H])C([H])([H])[H])C([H])([H])c2c([H])c(OC([H])([H])C([H])([H])C([H])([H])[N+]([H])([H])C([H])([H])C([H])(C([H])([H])C([H])([H])C([H])([H])C([H])([H])[N+]([H])([H])[H])C3([H])N(C(=O)N4C([H])([H])C([H])([H])C([H])([H])C([H])(n5nc(-c6c([H])c([H])c(Oc7c([H])c([H])c(F)c([H])c7F)c([H])c6[H])c(C(=O)N([H])[H])c5N([H])[H])C4([H])[H])C([H])([H])C([H])([H])C([H])([N+]([H])([H])[H])C3([H])[H])c([H])c([H])c2C1([H])[H]

$$$$
84:0:0
     RDKit          3D

 92100  0  0  1  0  0  0  0  0999 V2000
  -29.7320  -20.6570   20.2900 C   0  0  0  0  0  2  0  0  0  0  0  0
  -29.6250  -20.0690   22.5620 C   0  0  0  0  0  2  0  0  0  0  0  0
  -30.8030  -19.5830   20.0120 C   0  0  0  0  0  2  0  0  0  0  0  0
  -30.6970  -18.9660   22.3770 C   0  0  0  0  0  2  0  0  0  0  0  0
  -29.9060  -21.1850   21.6500 N   0  0  0  0  0  0  0  0  0  0  0  0
  -30.7390  -18.4520   20.9790 N   0  0  2  0  0  4  0  0  0  0  0  0
  -29.8730  -17.9660   20.8080 H   0  0  0  0  0  0  0  0  0  0  0  0
  -29.0080  -22.3180   21.8950 C   0  0  0  0  0  2  0  0  0  0  0  0
  -29.6930  -23.6410   21.4910 C   0  0  0  0  0  2  0  0  0  0  0  0
  -28.7040  -24.8070   21.2830 C   0  0  0  0  0  2  0  0  0  0  0  0
  -29.3990  -26.1800   21.1430 C   0  0  0  0  0  2  0  0  0  0  0  0
  -28.9710  -26.8800   19.9790 O   0  0  0  0  0  0  0  0  0  0  0  0
  -24.8510  -31.7810   23.1540 C   0  0  0  0  0  0  0  0  0  0  0  0
  -27.7690  -27.5350   20.0640 C   0  0  0  0  0  0  0  0  0  0  0  0
  -23.7480  -30.3580   21.4550 C   0  0  0  0  0  3  0  0  0  0  0  0
  -25.3060  -28.9090   20.0460 C   0  0  0  0  0  0  0  0  0  0  0  0
  -26.2560  -30.8330   21.3300 C   0  0  0  0  0  2  0  0  0  0  0  0
  -26.4200  -29.4760   20.6800 C   0  0  0  0  0  0  0  0  0  0  0  0
  -27.6560  -28.7910   20.6990 C   0  0  0  0  0  3  0  0  0  0  0  0
  -26.6460  -26.9770   19.4230 C   0  0  0  0  0  3  0  0  0  0  0  0
  -25.4110  -27.6530   19.4200 C   0  0  0  0  0  3  0  0  0  0  0  0
  -24.0240  -29.7100   20.0720 C   0  0  0  0  0  2  0  0  0  0  0  0
  -24.9680  -31.0050   22.0400 N   0  0  0  0  0  0  0  0  0  0  0  0
  -23.7450  -31.9980   23.6690 O   0  0  0  0  0  0  0  0  0  0  0  0
  -23.1200  -29.2900   22.3800 C   0  0  0  0  0  0  0  0  0  0  0  0
  -21.8090  -29.0550   22.2150 N   0  0  0  0  0  0  0  0  0  0  0  0
  -23.8110  -28.6790   23.1980 O   0  0  0  0  0  0  0  0  0  0  0  0
  -21.3140  -29.6050   21.5280 H   0  0  0  0  0  0  0  0  0  0  0  0
  -18.4740  -27.7200   22.6080 C   0  0  0  0  0  0  0  0  0  0  0  0
  -21.0130  -28.0680   22.9430 C   0  0  0  0  0  3  0  0  0  0  0  0
  -21.1830  -26.6580   22.3360 C   0  0  0  0  0  2  0  0  0  0  0  0
  -20.1170  -26.3180   21.2900 C   0  0  0  0  0  2  0  0  0  0  0  0
  -18.7170  -26.3940   21.9060 C   0  0  0  0  0  2  0  0  0  0  0  0
  -19.5530  -28.5130   23.0800 C   0  0  0  0  0  0  0  0  0  0  0  0
  -19.2750  -29.7540   23.6920 C   0  0  0  0  0  3  0  0  0  0  0  0
  -17.9490  -30.2030   23.8400 C   0  0  0  0  0  3  0  0  0  0  0  0
  -16.8840  -29.4070   23.3850 C   0  0  0  0  0  3  0  0  0  0  0  0
  -17.1470  -28.1670   22.7750 C   0  0  0  0  0  3  0  0  0  0  0  0
  -26.0930  -32.4520   23.8190 C   0  0  0  0  0  3  0  0  0  0  0  0
  -25.7200  -33.8310   24.1580 N   0  0  0  0  0  0  0  0  0  0  0  0
  -26.0260  -34.9050   23.4160 C   0  0  0  0  0  0  0  0  0  0  0  0
  -26.7260  -34.8400   22.4010 O   0  0  0  0  0  0  0  0  0  0  0  0
  -25.0960  -33.9510   24.9420 H   0  0  0  0  0  0  0  0  0  0  0  0
  -24.2290  -36.6210   23.0450 C   0  0  0  0  0  1  0  0  0  0  0  0
  -25.4720  -36.2660   23.8760 C   0  0  0  0  0  3  0  0  0  0  0  0
  -27.5490  -37.2340   24.7570 C   0  0  0  0  0  1  0  0  0  0  0  0
  -26.4610  -37.3620   23.7900 N   0  0  0  0  0  0  0  0  0  0  0  0
  -26.0120  -38.2630   23.9380 H   0  0  0  0  0  0  0  0  0  0  0  0
  -26.6090  -31.6800   25.0950 C   0  0  1  0  0  0  0  0  0  0  0  0
  -25.4990  -31.3770   26.1280 C   0  0  0  0  0  1  0  0  0  0  0  0
  -27.2610  -30.3360   24.6940 C   0  0  0  0  0  1  0  0  0  0  0  0
  -27.7090  -32.5120   25.8000 C   0  0  0  0  0  1  0  0  0  0  0  0
  -31.8560  -17.4970   20.7280 C   0  0  0  0  0  2  0  0  0  0  0  0
  -31.7670  -16.1380   21.4660 C   0  0  0  0  0  2  0  0  0  0  0  0
  -31.2010  -14.3510   19.8280 C   0  0  0  0  0  0  0  0  0  0  0  0
  -30.7300  -12.2310   18.6540 C   0  0  0  0  0  2  0  0  0  0  0  0
  -29.7120  -12.4090   17.5120 C   0  0  0  0  0  2  0  0  0  0  0  0
  -28.2710  -12.2970   18.0450 C   0  0  0  0  0  2  0  0  0  0  0  0
  -28.0280  -13.1890   19.2910 C   0  0  0  0  0  3  0  0  0  0  0  0
  -29.1420  -12.9820   20.3390 C   0  0  0  0  0  2  0  0  0  0  0  0
  -30.4430  -13.2340   19.6910 N   0  0  0  0  0  0  0  0  0  0  0  0
  -32.1760  -14.6010   19.1130 O   0  0  0  0  0  0  0  0  0  0  0  0
  -30.8740  -15.1450   20.8590 N   0  0  0  0  0  0  0  0  0  0  0  0
  -30.0720  -14.8540   21.3990 H   0  0  0  0  0  0  0  0  0  0  0  0
  -25.7040  -13.8720   20.1670 C   0  0  0  0  0  0  0  0  0  0  0  0
  -24.6400  -13.1320   20.6090 C   0  0  0  0  0  0  0  0  0  0  0  0
  -25.0530  -11.7660   20.5400 C   0  0  0  0  0  0  0  0  0  0  0  0
  -26.7020  -12.9590   19.8600 N   0  0  0  0  0  0  0  0  0  0  0  0
  -26.3170  -11.6870   20.1400 N   0  0  0  0  0  0  0  0  0  0  0  0
  -24.3040  -10.5260   20.7790 C   0  0  0  0  0  0  0  0  0  0  0  0
  -24.7250   -9.5820   21.7410 C   0  0  0  0  0  3  0  0  0  0  0  0
  -23.9770   -8.4070   21.9650 C   0  0  0  0  0  3  0  0  0  0  0  0
  -22.7950   -8.1650   21.2260 C   0  0  0  0  0  0  0  0  0  0  0  0
  -22.3930   -9.0970   20.2520 C   0  0  0  0  0  3  0  0  0  0  0  0
  -23.1400  -10.2660   20.0270 C   0  0  0  0  0  3  0  0  0  0  0  0
  -22.0180   -7.0390   21.3570 O   0  0  0  0  0  0  0  0  0  0  0  0
  -21.9020   -6.3800   22.5540 C   0  0  0  0  0  0  0  0  0  0  0  0
  -21.4160   -7.0220   23.7140 C   0  0  0  0  0  3  0  0  0  0  0  0
  -21.2480   -6.2880   24.9060 C   0  0  0  0  0  3  0  0  0  0  0  0
  -21.5570   -4.9150   24.9380 C   0  0  0  0  0  0  0  0  0  0  0  0
  -22.0370   -4.2740   23.7830 C   0  0  0  0  0  3  0  0  0  0  0  0
  -22.2080   -5.0040   22.5930 C   0  0  0  0  0  0  0  0  0  0  0  0
  -22.6500   -4.3760   21.4770 F   0  0  0  0  0  0  0  0  0  0  0  0
  -21.3880   -4.2090   26.0800 F   0  0  0  0  0  0  0  0  0  0  0  0
  -23.2820  -13.6510   20.9840 C   0  0  0  0  0  0  0  0  0  0  0  0
  -22.6030  -12.9810   21.9090 N   0  0  0  0  0  0  0  0  0  0  0  0
  -22.8340  -14.6860   20.4900 O   0  0  0  0  0  0  0  0  0  0  0  0
  -22.9790  -12.1440   22.3290 H   0  0  0  0  0  0  0  0  0  0  0  0
  -21.6940  -13.3110   22.2010 H   0  0  0  0  0  0  0  0  0  0  0  0
  -25.9010  -15.2380   19.9800 N   0  0  0  0  0  0  0  0  0  0  0  0
  -25.1650  -15.9170   20.1360 H   0  0  0  0  0  0  0  0  0  0  0  0
  -26.7410  -15.6440   19.5870 H   0  0  0  0  0  0  0  0  0  0  0  0
  1  5  1  0
  3  1  1  0
  3  6  1  0
  4  2  1  0
  5  8  1  0
  5  2  1  0
  6  4  1  0
  6  7  1  6
  9  8  1  0
 10  9  1  0
 11 10  1  0
 12 14  1  0
 12 11  1  0
 13 24  2  0
 14 19  1  0
 15 23  1  0
 15 25  1  0
 16 22  1  0
 16 18  1  0
 17 23  1  0
 18 19  2  0
 18 17  1  0
 20 14  2  0
 21 20  1  0
 21 16  2  0
 22 15  1  0
 23 13  1  0
 25 27  2  0
 26 25  1  0
 28 26  1  0
 29 38  2  0
 29 34  1  0
 30 26  1  0
 30 34  1  0
 31 30  1  0
 32 33  1  0
 32 31  1  0
 33 29  1  0
 34 35  2  0
 35 36  1  0
 37 36  2  0
 38 37  1  0
 39 13  1  0
 39 40  1  0
 39 49  1  0
 40 43  1  0
 41 45  1  0
 41 40  1  0
 42 41  2  0
 45 44  1  0
 47 45  1  0
 47 48  1  0
 47 46  1  0
 49 52  1  1
 49 50  1  0
 51 49  1  0
 53  6  1  0
 53 54  1  0
 55 63  1  0
 56 61  1  0
 57 58  1  0
 57 56  1  0
 59 58  1  0
 59 68  1  0
 59 60  1  0
 61 55  1  0
 61 60  1  0
 62 55  2  0
 63 64  1  0
 63 54  1  0
 65 66  2  0
 66 85  1  0
 67 66  1  0
 67 70  1  0
 68 69  1  0
 68 65  1  0
 69 67  2  0
 70 71  1  0
 71 72  2  0
 73 76  1  0
 73 72  1  0
 74 73  2  0
 75 74  1  0
 75 70  2  0
 76 77  1  0
 77 82  2  0
 77 78  1  0
 78 79  2  0
 79 80  1  0
 80 84  1  0
 81 80  2  0
 82 81  1  0
 83 82  1  0
 85 86  1  0
 86 89  1  0
 86 88  1  0
 87 85  2  0
 90 91  1  0
 90 65  1  0
 92 90  1  0
M  ISO  4  11 101  12 101  55 100  63 100
M  END
>  <TORSDO>  (84) 
F 22

>  <SCORE>  (84) 
-10.750

>  <name>  (84) 
84

>  <ligand_id>  (84) 
84

>  <original_smiles>  (84) 
[H]c1c([H])c([H])c2c(c1[H])C([H])([H])C([H])([H])C([H])([H])C2([H])N([H])C(=O)C1([H])N(C(=O)C([H])(N([H])C(=O)C([H])(N([H])C([H])([H])[H])C([H])([H])[H])C(C([H])([H])[H])(C([H])([H])[H])C([H])([H])[H])C([H])([H])c2c([H])c(OC([H])([H])C([H])([H])C([H])([H])C([H])([H])N3C([H])([H])C([H])([H])[N+]([H])(C([H])([H])C([H])([H])N([H])C(=O)N4C([H])([H])C([H])([H])C([H])([H])C([H])(n5nc(-c6c([H])c([H])c(Oc7c([H])c([H])c(F)c([H])c7F)c([H])c6[H])c(C(=O)N([H])[H])c5N([H])[H])C4([H])[H])C([H])([H])C3([H])[H])c([H])c([H])c2C1([H])[H]

>  <smiles>  (84) 
[H]c1c([H])c([H])c2c(c1[H])C([H])([H])C([H])([H])C([H])([H])C2([H])N([H])C(=O)C1([H])N(C(=O)C([H])(N([H])C(=O)C([H])(N([H])C([H])([H])[H])C([H])([H])[H])C(C([H])([H])[H])(C([H])([H])[H])C([H])([H])[H])C([H])([H])c2c([H])c(OC([H])([H])C([H])([H])C([H])([H])C([H])([H])N3C([H])([H])C([H])([H])[N+]([H])(C([H])([H])C([H])([H])N([H])C(=O)N4C([H])([H])C([H])([H])C([H])([H])C([H])(n5nc(-c6c([H])c([H])c(Oc7c([H])c([H])c(F)c([H])c7F)c([H])c6[H])c(C(=O)N([H])[H])c5N([H])[H])C4([H])[H])C([H])([H])C3([H])[H])c([H])c([H])c2C1([H])[H]

$$$$
85:0:0
     RDKit          3D

 89 97  0  0  1  0  0  0  0  0999 V2000
  -29.7500  -21.0250   20.0100 C   0  0  0  0  0  3  0  0  0  0  0  0
  -30.7400  -14.7720   19.8410 C   0  0  0  0  0  0  0  0  0  0  0  0
  -30.3990  -12.5570   18.7230 C   0  0  0  0  0  2  0  0  0  0  0  0
  -29.3570  -12.6690   17.5870 C   0  0  0  0  0  2  0  0  0  0  0  0
  -27.9360  -12.4690   18.1480 C   0  0  0  0  0  2  0  0  0  0  0  0
  -27.6740  -13.3180   19.4230 C   0  0  0  0  0  3  0  0  0  0  0  0
  -28.8270  -13.2040   20.4410 C   0  0  0  0  0  2  0  0  0  0  0  0
  -30.0650  -13.5760   19.7480 N   0  0  0  0  0  0  0  0  0  0  0  0
  -31.8700  -14.8610   19.3480 O   0  0  0  0  0  0  0  0  0  0  0  0
  -29.6630  -17.6920   22.1800 C   0  0  0  0  0  2  0  0  0  0  0  0
  -30.5710  -16.5510   21.5830 C   0  0  0  0  0  2  0  0  0  0  0  0
  -29.5220  -17.0010   19.4230 C   0  0  0  0  0  2  0  0  0  0  0  0
  -29.9320  -19.1840   21.7690 C   0  0  0  0  0  2  0  0  0  0  0  0
  -30.0950  -18.5090   19.4310 C   0  0  0  0  0  2  0  0  0  0  0  0
  -30.1020  -15.9280   20.3210 N   0  0  0  0  0  0  0  0  0  0  0  0
  -29.4970  -19.5390   20.3870 N   0  0  2  0  0  4  0  0  0  0  0  0
  -28.4960  -19.4210   20.3410 H   0  0  0  0  0  0  0  0  0  0  0  0
  -25.3670  -13.8740   20.3960 C   0  0  0  0  0  0  0  0  0  0  0  0
  -24.3370  -13.0860   20.8300 C   0  0  0  0  0  0  0  0  0  0  0  0
  -24.7920  -11.7370   20.7050 C   0  0  0  0  0  0  0  0  0  0  0  0
  -26.3810  -13.0060   20.0260 N   0  0  0  0  0  0  0  0  0  0  0  0
  -26.0490  -11.7140   20.2770 N   0  0  0  0  0  0  0  0  0  0  0  0
  -24.0840  -10.4680   20.9150 C   0  0  0  0  0  0  0  0  0  0  0  0
  -24.5550   -9.4960   21.8250 C   0  0  0  0  0  3  0  0  0  0  0  0
  -23.8420   -8.2950   22.0220 C   0  0  0  0  0  3  0  0  0  0  0  0
  -22.6420   -8.0570   21.3110 C   0  0  0  0  0  0  0  0  0  0  0  0
  -22.1910   -9.0170   20.3880 C   0  0  0  0  0  3  0  0  0  0  0  0
  -22.9070  -10.2100   20.1880 C   0  0  0  0  0  3  0  0  0  0  0  0
  -21.8970   -6.9060   21.4150 O   0  0  0  0  0  0  0  0  0  0  0  0
  -21.8370   -6.1920   22.5840 C   0  0  0  0  0  0  0  0  0  0  0  0
  -21.3890   -6.7750   23.7900 C   0  0  0  0  0  3  0  0  0  0  0  0
  -21.2740   -5.9870   24.9530 C   0  0  0  0  0  3  0  0  0  0  0  0
  -21.6020   -4.6180   24.9130 C   0  0  0  0  0  0  0  0  0  0  0  0
  -22.0430   -4.0370   23.7110 C   0  0  0  0  0  3  0  0  0  0  0  0
  -22.1580   -4.8210   22.5500 C   0  0  0  0  0  0  0  0  0  0  0  0
  -22.5640   -4.2510   21.3910 F   0  0  0  0  0  0  0  0  0  0  0  0
  -21.4890   -3.8600   26.0280 F   0  0  0  0  0  0  0  0  0  0  0  0
  -22.9720  -13.5530   21.2440 C   0  0  0  0  0  0  0  0  0  0  0  0
  -22.3240  -12.8340   22.1540 N   0  0  0  0  0  0  0  0  0  0  0  0
  -22.4890  -14.5900   20.7940 O   0  0  0  0  0  0  0  0  0  0  0  0
  -22.7260  -11.9960   22.5460 H   0  0  0  0  0  0  0  0  0  0  0  0
  -21.4100  -13.1290   22.4650 H   0  0  0  0  0  0  0  0  0  0  0  0
  -25.5200  -15.2500   20.2600 N   0  0  0  0  0  0  0  0  0  0  0  0
  -24.7840  -15.9040   20.5000 H   0  0  0  0  0  0  0  0  0  0  0  0
  -26.3570  -15.7030   19.9200 H   0  0  0  0  0  0  0  0  0  0  0  0
  -28.8110  -22.2350   20.5470 C   0  0  0  0  0  3  0  0  0  0  0  0
  -29.0920  -23.7660   20.0710 C   0  0  0  0  0  3  0  0  0  0  0  0
  -28.2210  -24.9790   20.6820 C   0  0  0  0  0  3  0  0  0  0  0  0
  -28.4660  -26.4080   20.3030 O   0  0  0  0  0  0  0  0  0  0  0  0
  -24.6680  -31.8380   23.2460 C   0  0  0  0  0  0  0  0  0  0  0  0
  -27.3610  -27.2770   20.2560 C   0  0  0  0  0  0  0  0  0  0  0  0
  -23.5010  -30.4240   21.5910 C   0  0  0  0  0  3  0  0  0  0  0  0
  -24.9880  -28.8820   20.1940 C   0  0  0  0  0  0  0  0  0  0  0  0
  -26.0390  -30.7670   21.4400 C   0  0  0  0  0  2  0  0  0  0  0  0
  -26.1450  -29.3830   20.8040 C   0  0  0  0  0  0  0  0  0  0  0  0
  -27.3390  -28.5950   20.8210 C   0  0  0  0  0  3  0  0  0  0  0  0
  -26.1840  -26.8400   19.6130 C   0  0  0  0  0  3  0  0  0  0  0  0
  -25.0100  -27.6160   19.5880 C   0  0  0  0  0  3  0  0  0  0  0  0
  -23.7430  -29.7450   20.2170 C   0  0  0  0  0  2  0  0  0  0  0  0
  -24.7540  -31.0280   22.1490 N   0  0  0  0  0  0  0  0  0  0  0  0
  -23.5760  -32.1050   23.7640 O   0  0  0  0  0  0  0  0  0  0  0  0
  -22.8330  -29.4040   22.5460 C   0  0  0  0  0  0  0  0  0  0  0  0
  -21.5110  -29.2070   22.3960 N   0  0  0  0  0  0  0  0  0  0  0  0
  -23.5040  -28.7920   23.3810 O   0  0  0  0  0  0  0  0  0  0  0  0
  -21.0270  -29.7570   21.6990 H   0  0  0  0  0  0  0  0  0  0  0  0
  -18.1480  -27.9410   22.8080 C   0  0  0  0  0  0  0  0  0  0  0  0
  -20.6900  -28.2630   23.1570 C   0  0  0  0  0  3  0  0  0  0  0  0
  -20.8420  -26.8230   22.6120 C   0  0  0  0  0  2  0  0  0  0  0  0
  -19.7820  -26.4590   21.5670 C   0  0  0  0  0  2  0  0  0  0  0  0
  -18.3760  -26.5840   22.1630 C   0  0  0  0  0  2  0  0  0  0  0  0
  -19.2350  -28.7360   23.2600 C   0  0  0  0  0  0  0  0  0  0  0  0
  -18.9680  -30.0050   23.8210 C   0  0  0  0  0  3  0  0  0  0  0  0
  -17.6470  -30.4770   23.9360 C   0  0  0  0  0  3  0  0  0  0  0  0
  -16.5750  -29.6800   23.5010 C   0  0  0  0  0  3  0  0  0  0  0  0
  -16.8260  -28.4140   22.9420 C   0  0  0  0  0  3  0  0  0  0  0  0
  -25.9370  -32.4850   23.8830 C   0  0  0  0  0  3  0  0  0  0  0  0
  -26.4390  -31.7250   25.1720 C   0  0  1  0  0  0  0  0  0  0  0  0
  -25.3330  -31.4880   26.2270 C   0  0  0  0  0  1  0  0  0  0  0  0
  -27.0380  -30.3490   24.7970 C   0  0  0  0  0  1  0  0  0  0  0  0
  -27.5720  -32.5330   25.8490 C   0  0  0  0  0  1  0  0  0  0  0  0
  -25.6130  -33.8830   24.2000 N   0  0  0  0  0  0  0  0  0  0  0  0
  -25.9490  -34.9330   23.4390 C   0  0  0  0  0  0  0  0  0  0  0  0
  -26.6320  -34.8260   22.4160 O   0  0  0  0  0  0  0  0  0  0  0  0
  -25.0120  -34.0390   24.9950 H   0  0  0  0  0  0  0  0  0  0  0  0
  -24.2100  -36.7100   23.0540 C   0  0  0  0  0  1  0  0  0  0  0  0
  -25.4480  -36.3210   23.8790 C   0  0  0  0  0  3  0  0  0  0  0  0
  -27.5690  -37.2300   24.7170 C   0  0  0  0  0  1  0  0  0  0  0  0
  -26.4720  -37.3820   23.7660 N   0  0  0  0  0  0  0  0  0  0  0  0
  -26.0560  -38.2990   23.9070 H   0  0  0  0  0  0  0  0  0  0  0  0
  1 16  1  0
  1 46  2  0
  2 15  1  0
  3  8  1  0
  4  5  1  0
  4  3  1  0
  6  5  1  0
  6 21  1  0
  6  7  1  0
  8  2  1  0
  8  7  1  0
  9  2  2  0
 11 10  1  0
 12 14  1  0
 12 15  1  0
 13 10  1  0
 14 16  1  0
 15 11  1  0
 16 13  1  0
 16 17  1  1
 18 19  2  0
 19 38  1  0
 20 19  1  0
 20 23  1  0
 21 22  1  0
 21 18  1  0
 22 20  2  0
 23 24  1  0
 24 25  2  0
 26 29  1  0
 26 25  1  0
 27 26  2  0
 28 27  1  0
 28 23  2  0
 29 30  1  0
 30 31  1  0
 31 32  2  0
 33 32  1  0
 33 37  1  0
 34 33  2  0
 35 30  2  0
 35 34  1  0
 36 35  1  0
 38 39  1  0
 39 42  1  0
 39 41  1  0
 40 38  2  0
 43 18  1  0
 43 44  1  0
 45 43  1  0
 47 46  1  0
 47 48  2  0
 49 48  1  0
 50 61  2  0
 51 49  1  0
 51 56  1  0
 52 60  1  0
 52 62  1  0
 53 59  1  0
 53 55  1  0
 54 60  1  0
 55 56  2  0
 55 54  1  0
 57 51  2  0
 58 57  1  0
 58 53  2  0
 59 52  1  0
 60 50  1  0
 62 64  2  0
 63 62  1  0
 65 63  1  0
 66 75  2  0
 66 71  1  0
 67 63  1  0
 67 71  1  0
 68 67  1  0
 69 70  1  0
 69 68  1  0
 70 66  1  0
 71 72  2  0
 72 73  1  0
 74 73  2  0
 75 74  1  0
 76 50  1  0
 76 81  1  0
 76 77  1  0
 77 80  1  1
 77 78  1  0
 79 77  1  0
 81 84  1  0
 82 86  1  0
 82 81  1  0
 83 82  2  0
 86 85  1  0
 88 86  1  0
 88 89  1  0
 88 87  1  0
M  ISO  4   2 100  15 100  48 101  49 101
M  END
>  <TORSDO>  (85) 
F 19

>  <SCORE>  (85) 
-12.698

>  <name>  (85) 
85

>  <ligand_id>  (85) 
85

>  <original_smiles>  (85) 
[H]c1c([H])c([H])c2c(c1[H])C([H])([H])C([H])([H])C([H])([H])C2([H])N([H])C(=O)C1([H])N(C(=O)C([H])(N([H])C(=O)C([H])(N([H])C([H])([H])[H])C([H])([H])[H])C(C([H])([H])[H])(C([H])([H])[H])C([H])([H])[H])C([H])([H])c2c([H])c(OC([H])([H])C([H])([H])C([H])([H])C([H])([H])[N+]3([H])C([H])([H])C([H])([H])N(C(=O)N4C([H])([H])C([H])([H])C([H])([H])C([H])(n5nc(-c6c([H])c([H])c(Oc7c([H])c([H])c(F)c([H])c7F)c([H])c6[H])c(C(=O)N([H])[H])c5N([H])[H])C4([H])[H])C([H])([H])C([H])([H])C3([H])[H])c([H])c([H])c2C1([H])[H]

>  <smiles>  (85) 
[H]c1c([H])c([H])c2c(c1[H])C([H])([H])C([H])([H])C([H])([H])C2([H])N([H])C(=O)C1([H])N(C(=O)C([H])(N([H])C(=O)C([H])(N([H])C([H])([H])[H])C([H])([H])[H])C(C([H])([H])[H])(C([H])([H])[H])C([H])([H])[H])C([H])([H])c2c([H])c(OC([H])([H])C([H])([H])C([H])([H])C([H])([H])[N+]3([H])C([H])([H])C([H])([H])N(C(=O)N4C([H])([H])C([H])([H])C([H])([H])C([H])(n5nc(-c6c([H])c([H])c(Oc7c([H])c([H])c(F)c([H])c7F)c([H])c6[H])c(C(=O)N([H])[H])c5N([H])[H])C4([H])[H])C([H])([H])C([H])([H])C3([H])[H])c([H])c([H])c2C1([H])[H]

$$$$
86:0:0
     RDKit          3D

 93101  0  0  1  0  0  0  0  0999 V2000
  -29.3580  -20.8350   21.9960 C   0  0  0  0  0  2  0  0  0  0  0  0
  -28.7930  -22.2630   21.9910 C   0  0  0  0  0  2  0  0  0  0  0  0
  -28.1910  -22.2700   19.6390 C   0  0  0  0  0  2  0  0  0  0  0  0
  -28.5170  -19.8490   21.1650 C   0  0  0  0  0  2  0  0  0  0  0  0
  -28.9980  -21.1080   19.0300 C   0  0  0  0  0  2  0  0  0  0  0  0
  -28.9640  -22.9320   20.6990 N   0  0  0  0  0  0  0  0  0  0  0  0
  -28.8990  -19.7980   19.7280 N   0  0  1  0  0  4  0  0  0  0  0  0
  -28.1300  -19.3350   19.2680 H   0  0  0  0  0  0  0  0  0  0  0  0
  -28.5530  -24.3320   20.8290 C   0  0  0  0  0  2  0  0  0  0  0  0
  -29.7420  -25.2220   21.2420 C   0  0  0  0  0  2  0  0  0  0  0  0
  -29.3620  -26.7090   21.2510 C   0  0  0  0  0  2  0  0  0  0  0  0
  -28.7570  -26.9980   19.9950 O   0  0  0  0  0  0  0  0  0  0  0  0
  -24.6550  -31.8610   23.1940 C   0  0  0  0  0  0  0  0  0  0  0  0
  -27.5620  -27.6650   20.0540 C   0  0  0  0  0  0  0  0  0  0  0  0
  -23.5390  -30.4530   21.4890 C   0  0  0  0  0  3  0  0  0  0  0  0
  -25.0890  -29.0160   20.0620 C   0  0  0  0  0  0  0  0  0  0  0  0
  -26.0440  -30.9330   21.3540 C   0  0  0  0  0  2  0  0  0  0  0  0
  -26.2020  -29.5850   20.6920 C   0  0  0  0  0  0  0  0  0  0  0  0
  -27.4400  -28.9130   20.6990 C   0  0  0  0  0  3  0  0  0  0  0  0
  -26.4400  -27.0970   19.4180 C   0  0  0  0  0  3  0  0  0  0  0  0
  -25.1980  -27.7640   19.4290 C   0  0  0  0  0  3  0  0  0  0  0  0
  -23.8050  -29.8140   20.0990 C   0  0  0  0  0  2  0  0  0  0  0  0
  -24.7610  -31.0970   22.0720 N   0  0  0  0  0  0  0  0  0  0  0  0
  -23.5530  -32.0750   23.7190 O   0  0  0  0  0  0  0  0  0  0  0  0
  -22.9150  -29.3810   22.4110 C   0  0  0  0  0  0  0  0  0  0  0  0
  -21.5970  -29.1710   22.2710 N   0  0  0  0  0  0  0  0  0  0  0  0
  -23.6140  -28.7430   23.2030 O   0  0  0  0  0  0  0  0  0  0  0  0
  -21.0940  -29.7410   21.6050 H   0  0  0  0  0  0  0  0  0  0  0  0
  -18.2420  -27.9240   22.7540 C   0  0  0  0  0  0  0  0  0  0  0  0
  -20.8010  -28.1870   23.0040 C   0  0  0  0  0  3  0  0  0  0  0  0
  -20.9070  -26.7890   22.3520 C   0  0  0  0  0  2  0  0  0  0  0  0
  -19.7920  -26.5110   21.3380 C   0  0  0  0  0  2  0  0  0  0  0  0
  -18.4180  -26.6120   22.0080 C   0  0  0  0  0  2  0  0  0  0  0  0
  -19.3610  -28.6700   23.2080 C   0  0  0  0  0  0  0  0  0  0  0  0
  -19.1430  -29.9000   23.8660 C   0  0  0  0  0  3  0  0  0  0  0  0
  -17.8370  -30.3840   24.0740 C   0  0  0  0  0  3  0  0  0  0  0  0
  -16.7320  -29.6320   23.6380 C   0  0  0  0  0  3  0  0  0  0  0  0
  -16.9350  -28.4040   22.9840 C   0  0  0  0  0  3  0  0  0  0  0  0
  -25.9030  -32.5250   23.8560 C   0  0  0  0  0  3  0  0  0  0  0  0
  -25.5470  -33.9130   24.1790 N   0  0  0  0  0  0  0  0  0  0  0  0
  -25.8740  -34.9740   23.4310 C   0  0  0  0  0  0  0  0  0  0  0  0
  -26.5800  -34.8930   22.4210 O   0  0  0  0  0  0  0  0  0  0  0  0
  -24.9230  -34.0500   24.9600 H   0  0  0  0  0  0  0  0  0  0  0  0
  -24.1070  -36.7160   23.0210 C   0  0  0  0  0  1  0  0  0  0  0  0
  -25.3320  -36.3470   23.8730 C   0  0  0  0  0  3  0  0  0  0  0  0
  -27.4110  -37.2920   24.7760 C   0  0  0  0  0  1  0  0  0  0  0  0
  -26.3380  -37.4290   23.7940 N   0  0  0  0  0  0  0  0  0  0  0  0
  -25.9010  -38.3370   23.9290 H   0  0  0  0  0  0  0  0  0  0  0  0
  -26.4070  -31.7630   25.1410 C   0  0  1  0  0  0  0  0  0  0  0  0
  -25.2890  -31.4740   26.1690 C   0  0  0  0  0  1  0  0  0  0  0  0
  -27.0540  -30.4110   24.7550 C   0  0  0  0  0  1  0  0  0  0  0  0
  -27.5050  -32.5920   25.8480 C   0  0  0  0  0  1  0  0  0  0  0  0
  -30.1010  -18.9670   19.4510 C   0  0  0  0  0  2  0  0  0  0  0  0
  -29.9280  -17.4800   19.8030 C   0  0  0  0  0  2  0  0  0  0  0  0
  -30.7960  -17.0070   20.9850 C   0  0  0  0  0  2  0  0  0  0  0  0
  -31.2260  -14.6360   20.4610 C   0  0  0  0  0  0  0  0  0  0  0  0
  -30.8810  -12.5070   19.2810 C   0  0  0  0  0  2  0  0  0  0  0  0
  -29.9570  -12.7510   18.0720 C   0  0  0  0  0  2  0  0  0  0  0  0
  -28.4730  -12.6620   18.4830 C   0  0  0  0  0  2  0  0  0  0  0  0
  -28.1490  -13.5040   19.7460 C   0  0  0  0  0  3  0  0  0  0  0  0
  -29.1810  -13.2240   20.8640 C   0  0  0  0  0  2  0  0  0  0  0  0
  -30.5300  -13.4810   20.3220 N   0  0  0  0  0  0  0  0  0  0  0  0
  -32.2900  -14.8700   19.8810 O   0  0  0  0  0  0  0  0  0  0  0  0
  -30.5970  -15.5770   21.1710 N   0  0  0  0  0  0  0  0  0  0  0  0
  -29.7610  -15.2830   21.6570 H   0  0  0  0  0  0  0  0  0  0  0  0
  -25.7500  -14.1780   20.4070 C   0  0  0  0  0  0  0  0  0  0  0  0
  -24.6590  -13.4320   20.7740 C   0  0  0  0  0  0  0  0  0  0  0  0
  -25.0880  -12.0710   20.7510 C   0  0  0  0  0  0  0  0  0  0  0  0
  -26.7800  -13.2710   20.2030 N   0  0  0  0  0  0  0  0  0  0  0  0
  -26.3790  -11.9990   20.4560 N   0  0  0  0  0  0  0  0  0  0  0  0
  -24.3280  -10.8270   20.9340 C   0  0  0  0  0  0  0  0  0  0  0  0
  -24.7010   -9.8730   21.9070 C   0  0  0  0  0  3  0  0  0  0  0  0
  -23.9450   -8.6930   22.0760 C   0  0  0  0  0  3  0  0  0  0  0  0
  -22.8050   -8.4590   21.2730 C   0  0  0  0  0  0  0  0  0  0  0  0
  -22.4540   -9.4010   20.2900 C   0  0  0  0  0  3  0  0  0  0  0  0
  -23.2080  -10.5730   20.1180 C   0  0  0  0  0  3  0  0  0  0  0  0
  -22.0260   -7.3300   21.3490 O   0  0  0  0  0  0  0  0  0  0  0  0
  -21.8640   -6.6480   22.5290 C   0  0  0  0  0  0  0  0  0  0  0  0
  -21.3200   -7.2630   23.6770 C   0  0  0  0  0  3  0  0  0  0  0  0
  -21.1060   -6.5060   24.8460 C   0  0  0  0  0  3  0  0  0  0  0  0
  -21.4240   -5.1340   24.8680 C   0  0  0  0  0  0  0  0  0  0  0  0
  -21.9590   -4.5190   23.7220 C   0  0  0  0  0  3  0  0  0  0  0  0
  -22.1740   -5.2730   22.5560 C   0  0  0  0  0  0  0  0  0  0  0  0
  -22.6710   -4.6690   21.4480 F   0  0  0  0  0  0  0  0  0  0  0  0
  -21.2120   -4.4040   25.9890 F   0  0  0  0  0  0  0  0  0  0  0  0
  -23.2710  -13.9420   21.0310 C   0  0  0  0  0  0  0  0  0  0  0  0
  -22.5270  -13.2750   21.9050 N   0  0  0  0  0  0  0  0  0  0  0  0
  -22.8560  -14.9670   20.4930 O   0  0  0  0  0  0  0  0  0  0  0  0
  -22.8750  -12.4450   22.3630 H   0  0  0  0  0  0  0  0  0  0  0  0
  -21.5950  -13.6020   22.1230 H   0  0  0  0  0  0  0  0  0  0  0  0
  -25.9420  -15.5410   20.2060 N   0  0  0  0  0  0  0  0  0  0  0  0
  -25.1550  -16.1820   20.1990 H   0  0  0  0  0  0  0  0  0  0  0  0
  -26.7700  -15.9210   19.7640 H   0  0  0  0  0  0  0  0  0  0  0  0
  2  1  1  0
  3  6  1  0
  4  1  1  0
  5  3  1  0
  5  7  1  0
  6  9  1  0
  6  2  1  0
  7  4  1  0
  7  8  1  6
  9 10  1  0
 10 11  1  0
 12 14  1  0
 12 11  1  0
 13 24  2  0
 14 19  1  0
 15 23  1  0
 15 25  1  0
 16 22  1  0
 16 18  1  0
 17 23  1  0
 18 19  2  0
 18 17  1  0
 20 21  1  0
 20 14  2  0
 21 16  2  0
 22 15  1  0
 23 13  1  0
 25 27  2  0
 26 25  1  0
 28 26  1  0
 29 38  2  0
 29 34  1  0
 30 26  1  0
 30 34  1  0
 31 30  1  0
 32 33  1  0
 32 31  1  0
 33 29  1  0
 34 35  2  0
 35 36  1  0
 37 36  2  0
 38 37  1  0
 39 13  1  0
 39 40  1  0
 39 49  1  0
 40 43  1  0
 41 45  1  0
 41 40  1  0
 42 41  2  0
 45 44  1  0
 47 45  1  0
 47 48  1  0
 47 46  1  0
 49 52  1  1
 49 50  1  0
 51 49  1  0
 53  7  1  0
 53 54  1  0
 54 55  1  0
 55 64  1  0
 56 64  1  0
 57 62  1  0
 58 59  1  0
 58 57  1  0
 60 59  1  0
 60 69  1  0
 60 61  1  0
 62 56  1  0
 62 61  1  0
 63 56  2  0
 64 65  1  0
 66 67  2  0
 67 86  1  0
 68 67  1  0
 68 71  1  0
 69 66  1  0
 69 70  1  0
 70 68  2  0
 71 72  1  0
 72 73  2  0
 74 77  1  0
 74 73  1  0
 75 74  2  0
 76 75  1  0
 76 71  2  0
 77 78  1  0
 78 83  2  0
 78 79  1  0
 79 80  2  0
 80 81  1  0
 81 85  1  0
 82 81  2  0
 83 82  1  0
 84 83  1  0
 86 87  1  0
 87 90  1  0
 87 89  1  0
 88 86  2  0
 91 66  1  0
 92 91  1  0
 93 91  1  0
M  ISO  4  11 101  12 101  56 100  64 100
M  END
>  <TORSDO>  (86) 
F 22

>  <SCORE>  (86) 
-12.267

>  <name>  (86) 
86

>  <ligand_id>  (86) 
86

>  <original_smiles>  (86) 
[H]c1c([H])c([H])c2c(c1[H])C([H])([H])C([H])([H])C([H])([H])C2([H])N([H])C(=O)C1([H])N(C(=O)C([H])(N([H])C(=O)C([H])(N([H])C([H])([H])[H])C([H])([H])[H])C(C([H])([H])[H])(C([H])([H])[H])C([H])([H])[H])C([H])([H])c2c([H])c(OC([H])([H])C([H])([H])C([H])([H])N3C([H])([H])C([H])([H])C([H])([H])[N+]([H])(C([H])([H])C([H])([H])C([H])([H])N([H])C(=O)N4C([H])([H])C([H])([H])C([H])([H])C([H])(n5nc(-c6c([H])c([H])c(Oc7c([H])c([H])c(F)c([H])c7F)c([H])c6[H])c(C(=O)N([H])[H])c5N([H])[H])C4([H])[H])C([H])([H])C3([H])[H])c([H])c([H])c2C1([H])[H]

>  <smiles>  (86) 
[H]c1c([H])c([H])c2c(c1[H])C([H])([H])C([H])([H])C([H])([H])C2([H])N([H])C(=O)C1([H])N(C(=O)C([H])(N([H])C(=O)C([H])(N([H])C([H])([H])[H])C([H])([H])[H])C(C([H])([H])[H])(C([H])([H])[H])C([H])([H])[H])C([H])([H])c2c([H])c(OC([H])([H])C([H])([H])C([H])([H])N3C([H])([H])C([H])([H])C([H])([H])[N+]([H])(C([H])([H])C([H])([H])C([H])([H])N([H])C(=O)N4C([H])([H])C([H])([H])C([H])([H])C([H])(n5nc(-c6c([H])c([H])c(Oc7c([H])c([H])c(F)c([H])c7F)c([H])c6[H])c(C(=O)N([H])[H])c5N([H])[H])C4([H])[H])C([H])([H])C3([H])[H])c([H])c([H])c2C1([H])[H]

$$$$
87:0:0
     RDKit          3D

104112  0  0  1  0  0  0  0  0999 V2000
  -28.5830  -22.1410   20.6330 N   0  0  1  0  0  4  0  0  0  0  0  0
  -29.0270  -22.3940   19.7650 H   0  0  0  0  0  0  0  0  0  0  0  0
  -27.0980  -22.1770   20.4380 C   0  0  0  0  0  2  0  0  0  0  0  0
  -24.9870  -24.1750   17.1170 C   0  0  0  0  0  2  0  0  0  0  0  0
  -24.5130  -22.7800   17.5440 C   0  0  0  0  0  2  0  0  0  0  0  0
  -26.5180  -24.2370   17.1100 C   0  0  0  0  0  2  0  0  0  0  0  0
  -25.0710  -22.4080   18.9280 C   0  0  0  0  0  2  0  0  0  0  0  0
  -27.0790  -23.8770   18.4940 C   0  0  0  0  0  2  0  0  0  0  0  0
  -26.6130  -22.4920   18.9940 C   0  0  0  0  0  3  0  0  0  0  0  0
  -29.0320  -23.1680   21.6370 C   0  0  0  0  0  2  0  0  0  0  0  0
  -29.4330  -24.5750   21.0890 C   0  0  0  0  0  2  0  0  0  0  0  0
  -28.3230  -25.3930   20.4020 C   0  0  0  0  0  2  0  0  0  0  0  0
  -28.5370  -26.8140   20.3950 O   0  0  0  0  0  0  0  0  0  0  0  0
  -24.6700  -31.9810   23.3800 C   0  0  0  0  0  0  0  0  0  0  0  0
  -27.3780  -27.5680   20.3220 C   0  0  0  0  0  0  0  0  0  0  0  0
  -23.4960  -30.5830   21.7140 C   0  0  0  0  0  3  0  0  0  0  0  0
  -24.9780  -29.0710   20.3000 C   0  0  0  0  0  0  0  0  0  0  0  0
  -26.0250  -30.9560   21.5570 C   0  0  0  0  0  2  0  0  0  0  0  0
  -26.1270  -29.5930   20.9060 C   0  0  0  0  0  0  0  0  0  0  0  0
  -27.3320  -28.8510   20.9110 C   0  0  0  0  0  3  0  0  0  0  0  0
  -26.2110  -27.0730   19.6940 C   0  0  0  0  0  3  0  0  0  0  0  0
  -25.0150  -27.8080   19.6880 C   0  0  0  0  0  3  0  0  0  0  0  0
  -23.7280  -29.9170   20.3320 C   0  0  0  0  0  2  0  0  0  0  0  0
  -24.7480  -31.1870   22.2750 N   0  0  0  0  0  0  0  0  0  0  0  0
  -23.5800  -32.2450   23.9040 O   0  0  0  0  0  0  0  0  0  0  0  0
  -22.8370  -29.5500   22.6570 C   0  0  0  0  0  0  0  0  0  0  0  0
  -21.5200  -29.3470   22.4950 N   0  0  0  0  0  0  0  0  0  0  0  0
  -23.5090  -28.9350   23.4900 O   0  0  0  0  0  0  0  0  0  0  0  0
  -21.0400  -29.8930   21.7930 H   0  0  0  0  0  0  0  0  0  0  0  0
  -18.1490  -28.1130   22.9200 C   0  0  0  0  0  0  0  0  0  0  0  0
  -20.6980  -28.3980   23.2470 C   0  0  0  0  0  3  0  0  0  0  0  0
  -20.8300  -26.9700   22.6710 C   0  0  0  0  0  2  0  0  0  0  0  0
  -19.7530  -26.6380   21.6320 C   0  0  0  0  0  2  0  0  0  0  0  0
  -18.3560  -26.7680   22.2450 C   0  0  0  0  0  2  0  0  0  0  0  0
  -19.2500  -28.8860   23.3760 C   0  0  0  0  0  0  0  0  0  0  0  0
  -19.0080  -30.1450   23.9640 C   0  0  0  0  0  3  0  0  0  0  0  0
  -17.6950  -30.6330   24.1040 C   0  0  0  0  0  3  0  0  0  0  0  0
  -16.6070  -29.8590   23.6640 C   0  0  0  0  0  3  0  0  0  0  0  0
  -16.8350  -28.6000   23.0780 C   0  0  0  0  0  3  0  0  0  0  0  0
  -25.9460  -32.6130   24.0200 C   0  0  0  0  0  3  0  0  0  0  0  0
  -25.6360  -34.0160   24.3240 N   0  0  0  0  0  0  0  0  0  0  0  0
  -25.9760  -35.0550   23.5490 C   0  0  0  0  0  0  0  0  0  0  0  0
  -26.6550  -34.9330   22.5260 O   0  0  0  0  0  0  0  0  0  0  0  0
  -25.0340  -34.1850   25.1150 H   0  0  0  0  0  0  0  0  0  0  0  0
  -24.2400  -36.8330   23.1590 C   0  0  0  0  0  1  0  0  0  0  0  0
  -25.4840  -36.4500   23.9770 C   0  0  0  0  0  3  0  0  0  0  0  0
  -27.6140  -37.3590   24.7870 C   0  0  0  0  0  1  0  0  0  0  0  0
  -26.5120  -37.5050   23.8410 N   0  0  0  0  0  0  0  0  0  0  0  0
  -26.1020  -38.4260   23.9720 H   0  0  0  0  0  0  0  0  0  0  0  0
  -26.4330  -31.8550   25.3150 C   0  0  1  0  0  0  0  0  0  0  0  0
  -25.3060  -31.6020   26.3420 C   0  0  0  0  0  1  0  0  0  0  0  0
  -27.0590  -30.4870   24.9510 C   0  0  0  0  0  1  0  0  0  0  0  0
  -27.5420  -32.6750   26.0140 C   0  0  0  0  0  1  0  0  0  0  0  0
  -29.0990  -20.7790   21.0200 C   0  0  0  0  0  2  0  0  0  0  0  0
  -28.8560  -19.5980   20.0270 C   0  0  0  0  0  3  0  0  0  0  0  0
  -29.5750  -19.7980   18.6700 C   0  0  0  0  0  2  0  0  0  0  0  0
  -29.3540  -18.6330   17.7390 C   0  0  0  0  0  0  0  0  0  0  0  0
  -30.4100  -18.0460   17.1620 N   0  0  0  0  0  4  0  0  0  0  0  0
  -28.1150  -18.1890   17.4750 N   0  0  0  0  0  0  0  0  0  0  0  0
  -31.3480  -18.3850   17.3350 H   0  0  0  0  0  0  0  0  0  0  0  0
  -30.3330  -17.2940   16.4930 H   0  0  0  0  0  0  0  0  0  0  0  0
  -27.2990  -18.6260   17.8800 H   0  0  0  0  0  0  0  0  0  0  0  0
  -27.9330  -17.4430   16.8180 H   0  0  0  0  0  0  0  0  0  0  0  0
  -29.1900  -18.2170   20.6590 C   0  0  0  0  0  2  0  0  0  0  0  0
  -30.6860  -17.9290   20.9140 C   0  0  0  0  0  2  0  0  0  0  0  0
  -30.9430  -16.7640   21.8930 C   0  0  0  0  0  2  0  0  0  0  0  0
  -30.9360  -14.6170   20.6180 C   0  0  0  0  0  0  0  0  0  0  0  0
  -30.6340  -12.5100   19.3730 C   0  0  0  0  0  2  0  0  0  0  0  0
  -29.6950  -12.7160   18.1680 C   0  0  0  0  0  2  0  0  0  0  0  0
  -28.2200  -12.5670   18.5880 C   0  0  0  0  0  2  0  0  0  0  0  0
  -27.8710  -13.3900   19.8550 C   0  0  0  0  0  3  0  0  0  0  0  0
  -28.9150  -13.1470   20.9680 C   0  0  0  0  0  2  0  0  0  0  0  0
  -30.2480  -13.4640   20.4220 N   0  0  0  0  0  0  0  0  0  0  0  0
  -32.0050  -14.8730   20.0530 O   0  0  0  0  0  0  0  0  0  0  0  0
  -30.3650  -15.4930   21.4570 N   0  0  0  0  0  0  0  0  0  0  0  0
  -29.4870  -15.2150   21.8690 H   0  0  0  0  0  0  0  0  0  0  0  0
  -25.4640  -13.9830   20.5520 C   0  0  0  0  0  0  0  0  0  0  0  0
  -24.3940  -13.2020   20.9010 C   0  0  0  0  0  0  0  0  0  0  0  0
  -24.8590  -11.8520   20.8530 C   0  0  0  0  0  0  0  0  0  0  0  0
  -26.5130  -13.1070   20.3190 N   0  0  0  0  0  0  0  0  0  0  0  0
  -26.1510  -11.8210   20.5540 N   0  0  0  0  0  0  0  0  0  0  0  0
  -24.1360  -10.5850   21.0190 C   0  0  0  0  0  0  0  0  0  0  0  0
  -24.5560   -9.6100   21.9510 C   0  0  0  0  0  3  0  0  0  0  0  0
  -23.8340   -8.4080   22.1040 C   0  0  0  0  0  3  0  0  0  0  0  0
  -22.6770   -8.1700   21.3250 C   0  0  0  0  0  0  0  0  0  0  0  0
  -22.2770   -9.1320   20.3820 C   0  0  0  0  0  3  0  0  0  0  0  0
  -22.9990  -10.3280   20.2260 C   0  0  0  0  0  3  0  0  0  0  0  0
  -21.9280   -7.0200   21.3870 O   0  0  0  0  0  0  0  0  0  0  0  0
  -21.8410   -6.2800   22.5380 C   0  0  0  0  0  0  0  0  0  0  0  0
  -21.3670   -6.8340   23.7470 C   0  0  0  0  0  3  0  0  0  0  0  0
  -21.2270   -6.0190   24.8880 C   0  0  0  0  0  3  0  0  0  0  0  0
  -21.5510   -4.6520   24.8220 C   0  0  0  0  0  0  0  0  0  0  0  0
  -22.0170   -4.0960   23.6180 C   0  0  0  0  0  3  0  0  0  0  0  0
  -22.1580   -4.9080   22.4780 C   0  0  0  0  0  0  0  0  0  0  0  0
  -22.5880   -4.3620   21.3140 F   0  0  0  0  0  0  0  0  0  0  0  0
  -21.4100   -3.8670   25.9160 F   0  0  0  0  0  0  0  0  0  0  0  0
  -22.9940  -13.6710   21.1710 C   0  0  0  0  0  0  0  0  0  0  0  0
  -22.2680  -12.9690   22.0360 N   0  0  0  0  0  0  0  0  0  0  0  0
  -22.5490  -14.6940   20.6510 O   0  0  0  0  0  0  0  0  0  0  0  0
  -22.6400  -12.1420   22.4790 H   0  0  0  0  0  0  0  0  0  0  0  0
  -21.3270  -13.2640   22.2570 H   0  0  0  0  0  0  0  0  0  0  0  0
  -25.6300  -15.3560   20.4010 N   0  0  0  0  0  0  0  0  0  0  0  0
  -24.8690  -16.0110   20.5410 H   0  0  0  0  0  0  0  0  0  0  0  0
  -26.4970  -15.8010   20.1330 H   0  0  0  0  0  0  0  0  0  0  0  0
  1 54  1  0
  1 10  1  0
  1  2  1  6
  3  1  1  0
  4  5  1  0
  5  7  1  0
  6  4  1  0
  6  8  1  0
  7  9  1  0
  8  9  1  0
  9  3  1  0
 11 10  1  0
 12 11  1  0
 13 12  1  0
 14 25  2  0
 15 13  1  0
 15 20  1  0
 16 24  1  0
 16 26  1  0
 17 23  1  0
 17 19  1  0
 18 24  1  0
 19 20  2  0
 19 18  1  0
 21 15  2  0
 22 21  1  0
 22 17  2  0
 23 16  1  0
 24 14  1  0
 26 28  2  0
 27 26  1  0
 29 27  1  0
 30 39  2  0
 30 35  1  0
 31 27  1  0
 31 35  1  0
 32 31  1  0
 33 34  1  0
 33 32  1  0
 34 30  1  0
 35 36  2  0
 36 37  1  0
 38 37  2  0
 39 38  1  0
 40 14  1  0
 40 41  1  0
 40 50  1  0
 41 44  1  0
 42 46  1  0
 42 41  1  0
 43 42  2  0
 46 45  1  0
 48 49  1  0
 48 46  1  0
 48 47  1  0
 50 53  1  1
 50 51  1  0
 52 50  1  0
 55 56  1  0
 55 64  1  0
 55 54  1  0
 57 56  1  0
 58 60  1  0
 58 57  2  0
 59 57  1  0
 59 62  1  0
 61 58  1  0
 63 59  1  0
 64 65  1  0
 65 66  1  0
 67 75  1  0
 68 73  1  0
 69 70  1  0
 69 68  1  0
 71 70  1  0
 71 80  1  0
 71 72  1  0
 73 67  1  0
 73 72  1  0
 74 67  2  0
 75 76  1  0
 75 66  1  0
 77 78  2  0
 78 97  1  0
 79 78  1  0
 79 82  1  0
 80 77  1  0
 80 81  1  0
 81 79  2  0
 82 83  1  0
 83 84  2  0
 85 88  1  0
 85 84  1  0
 86 85  2  0
 87 86  1  0
 87 82  2  0
 88 89  1  0
 89 90  1  0
 90 91  2  0
 92 91  1  0
 92 96  1  0
 93 92  2  0
 94 89  2  0
 94 93  1  0
 95 94  1  0
 97 98  1  0
 98101  1  0
 98100  1  0
 99 97  2  0
102103  1  0
102 77  1  0
104102  1  0
M  ISO  4  12 101  13 101  67 100  75 100
M  END
>  <TORSDO>  (87) 
F 28

>  <SCORE>  (87) 
-11.883

>  <name>  (87) 
87

>  <ligand_id>  (87) 
87

>  <original_smiles>  (87) 
[H]c1c([H])c([H])c2c(c1[H])C([H])([H])C([H])([H])C([H])([H])C2([H])N([H])C(=O)C1([H])N(C(=O)C([H])(N([H])C(=O)C([H])(N([H])C([H])([H])[H])C([H])([H])[H])C(C([H])([H])[H])(C([H])([H])[H])C([H])([H])[H])C([H])([H])c2c([H])c(OC([H])([H])C([H])([H])C([H])([H])[N+]([H])(C([H])([H])C([H])(C([H])([H])C(N([H])[H])=[N+]([H])[H])C([H])([H])C([H])([H])C([H])([H])N([H])C(=O)N3C([H])([H])C([H])([H])C([H])([H])C([H])(n4nc(-c5c([H])c([H])c(Oc6c([H])c([H])c(F)c([H])c6F)c([H])c5[H])c(C(=O)N([H])[H])c4N([H])[H])C3([H])[H])C([H])([H])C3([H])C([H])([H])C([H])([H])C([H])([H])C([H])([H])C3([H])[H])c([H])c([H])c2C1([H])[H]

>  <smiles>  (87) 
[H]c1c([H])c([H])c2c(c1[H])C([H])([H])C([H])([H])C([H])([H])C2([H])N([H])C(=O)C1([H])N(C(=O)C([H])(N([H])C(=O)C([H])(N([H])C([H])([H])[H])C([H])([H])[H])C(C([H])([H])[H])(C([H])([H])[H])C([H])([H])[H])C([H])([H])c2c([H])c(OC([H])([H])C([H])([H])C([H])([H])[N+]([H])(C([H])([H])C([H])(C([H])([H])C(N([H])[H])=[N+]([H])[H])C([H])([H])C([H])([H])C([H])([H])N([H])C(=O)N3C([H])([H])C([H])([H])C([H])([H])C([H])(n4nc(-c5c([H])c([H])c(Oc6c([H])c([H])c(F)c([H])c6F)c([H])c5[H])c(C(=O)N([H])[H])c4N([H])[H])C3([H])[H])C([H])([H])C3([H])C([H])([H])C([H])([H])C([H])([H])C([H])([H])C3([H])[H])c([H])c([H])c2C1([H])[H]

$$$$
88:0:0
     RDKit          3D

 99109  0  0  1  0  0  0  0  0999 V2000
  -28.5790  -21.7230   16.7320 C   0  0  0  0  0  2  0  0  0  0  0  0
  -30.2450  -22.1560   20.0410 C   0  0  0  0  0  2  0  0  0  0  0  0
  -29.2840  -23.0830   16.6910 C   0  0  0  0  0  2  0  0  0  0  0  0
  -30.3750  -20.6810   20.4480 C   0  0  0  0  0  2  0  0  0  0  0  0
  -30.2810  -20.2180   17.9780 C   0  0  0  0  0  2  0  0  0  0  0  0
  -29.0090  -21.1100   18.0630 C   0  0  0  0  0  3  0  0  0  0  0  0
  -29.1630  -22.3550   18.9690 C   0  0  0  0  0  3  0  0  0  0  0  0
  -30.8480  -19.8330   19.3090 N   0  0  2  0  0  4  0  0  0  0  0  0
  -29.4300  -23.5340   18.0960 N   0  0  2  0  0  4  0  0  0  0  0  0
  -31.8120  -20.1240   19.2220 H   0  0  0  0  0  0  0  0  0  0  0  0
  -30.4050  -23.7800   18.1930 H   0  0  0  0  0  0  0  0  0  0  0  0
  -31.0190  -18.3510   19.5070 C   0  0  0  0  0  2  0  0  0  0  0  0
  -29.2050  -16.8910   22.7240 C   0  0  0  0  0  2  0  0  0  0  0  0
  -30.4980  -16.9520   23.5510 C   0  0  0  0  0  2  0  0  0  0  0  0
  -29.3760  -17.5800   21.3490 C   0  0  0  0  0  2  0  0  0  0  0  0
  -31.6800  -16.2790   22.8070 C   0  0  0  0  0  2  0  0  0  0  0  0
  -30.8610  -17.8010   20.9500 C   0  0  0  0  0  3  0  0  0  0  0  0
  -31.6930  -16.5250   21.2660 C   0  0  0  0  0  3  0  0  0  0  0  0
  -31.7190  -14.4360   19.7810 C   0  0  0  0  0  0  0  0  0  0  0  0
  -31.1730  -12.3570   18.5390 C   0  0  0  0  0  2  0  0  0  0  0  0
  -30.1580  -12.6440   17.4130 C   0  0  0  0  0  2  0  0  0  0  0  0
  -28.7080  -12.6460   17.9500 C   0  0  0  0  0  2  0  0  0  0  0  0
  -28.5530  -13.5000   19.2370 C   0  0  0  0  0  3  0  0  0  0  0  0
  -29.6390  -13.1000   20.2540 C   0  0  0  0  0  2  0  0  0  0  0  0
  -30.9470  -13.3300   19.6160 N   0  0  0  0  0  0  0  0  0  0  0  0
  -32.7860  -14.6290   19.1890 O   0  0  0  0  0  0  0  0  0  0  0  0
  -31.1570  -15.3280   20.6170 N   0  0  0  0  0  0  0  0  0  0  0  0
  -30.2410  -15.0560   20.9370 H   0  0  0  0  0  0  0  0  0  0  0  0
  -26.3140  -14.3720   20.1630 C   0  0  0  0  0  0  0  0  0  0  0  0
  -25.1910  -13.7210   20.5990 C   0  0  0  0  0  0  0  0  0  0  0  0
  -25.4730  -12.3280   20.4780 C   0  0  0  0  0  0  0  0  0  0  0  0
  -27.2160  -13.3810   19.8130 N   0  0  0  0  0  0  0  0  0  0  0  0
  -26.7170  -12.1430   20.0560 N   0  0  0  0  0  0  0  0  0  0  0  0
  -24.6090  -11.1580   20.6770 C   0  0  0  0  0  0  0  0  0  0  0  0
  -25.0050  -10.0880   21.5100 C   0  0  0  0  0  3  0  0  0  0  0  0
  -24.1530   -8.9800   21.7050 C   0  0  0  0  0  3  0  0  0  0  0  0
  -22.8920   -8.9340   21.0640 C   0  0  0  0  0  0  0  0  0  0  0  0
  -22.5130   -9.9920   20.2190 C   0  0  0  0  0  3  0  0  0  0  0  0
  -23.3630  -11.0920   20.0220 C   0  0  0  0  0  3  0  0  0  0  0  0
  -22.0080   -7.8890   21.1710 O   0  0  0  0  0  0  0  0  0  0  0  0
  -21.9560   -7.1000   22.2940 C   0  0  0  0  0  0  0  0  0  0  0  0
  -21.7460   -7.6490   23.5760 C   0  0  0  0  0  3  0  0  0  0  0  0
  -21.6240   -6.7990   24.6940 C   0  0  0  0  0  3  0  0  0  0  0  0
  -21.7060   -5.4030   24.5290 C   0  0  0  0  0  0  0  0  0  0  0  0
  -21.9130   -4.8560   23.2510 C   0  0  0  0  0  3  0  0  0  0  0  0
  -22.0340   -5.7030   22.1360 C   0  0  0  0  0  0  0  0  0  0  0  0
  -22.2090   -5.1690   20.9030 F   0  0  0  0  0  0  0  0  0  0  0  0
  -21.5850   -4.5860   25.6010 F   0  0  0  0  0  0  0  0  0  0  0  0
  -23.8910  -14.3550   21.0030 C   0  0  0  0  0  0  0  0  0  0  0  0
  -23.1810  -13.7380   21.9400 N   0  0  0  0  0  0  0  0  0  0  0  0
  -23.5180  -15.4210   20.5200 O   0  0  0  0  0  0  0  0  0  0  0  0
  -23.4900  -12.8630   22.3340 H   0  0  0  0  0  0  0  0  0  0  0  0
  -22.3130  -14.1490   22.2510 H   0  0  0  0  0  0  0  0  0  0  0  0
  -26.6350  -15.7150   20.0120 N   0  0  0  0  0  0  0  0  0  0  0  0
  -25.9510  -16.4480   20.1580 H   0  0  0  0  0  0  0  0  0  0  0  0
  -27.4690  -16.0390   19.5430 H   0  0  0  0  0  0  0  0  0  0  0  0
  -28.6530  -24.7750   18.3940 C   0  0  0  0  0  2  0  0  0  0  0  0
  -28.8000  -25.2760   19.8550 C   0  0  0  0  0  2  0  0  0  0  0  0
  -28.7260  -26.7020   19.9850 O   0  0  0  0  0  0  0  0  0  0  0  0
  -24.7100  -31.6500   23.1420 C   0  0  0  0  0  0  0  0  0  0  0  0
  -27.5030  -27.3410   20.0020 C   0  0  0  0  0  0  0  0  0  0  0  0
  -23.5630  -30.2680   21.4440 C   0  0  0  0  0  3  0  0  0  0  0  0
  -25.0740  -28.7940   20.0130 C   0  0  0  0  0  0  0  0  0  0  0  0
  -26.0840  -30.6780   21.3050 C   0  0  0  0  0  2  0  0  0  0  0  0
  -26.2080  -29.3260   20.6380 C   0  0  0  0  0  0  0  0  0  0  0  0
  -27.4240  -28.6070   20.6230 C   0  0  0  0  0  3  0  0  0  0  0  0
  -26.3420  -26.8080   19.3940 C   0  0  0  0  0  3  0  0  0  0  0  0
  -25.1370  -27.5410   19.3840 C   0  0  0  0  0  3  0  0  0  0  0  0
  -23.8150  -29.6320   20.0510 C   0  0  0  0  0  2  0  0  0  0  0  0
  -24.8020  -30.8850   22.0210 N   0  0  0  0  0  0  0  0  0  0  0  0
  -23.6140  -31.8890   23.6690 O   0  0  0  0  0  0  0  0  0  0  0  0
  -22.9160  -29.2110   22.3690 C   0  0  0  0  0  0  0  0  0  0  0  0
  -21.5920  -29.0240   22.2290 N   0  0  0  0  0  0  0  0  0  0  0  0
  -23.6020  -28.5650   23.1660 O   0  0  0  0  0  0  0  0  0  0  0  0
  -21.1060  -29.5840   21.5440 H   0  0  0  0  0  0  0  0  0  0  0  0
  -18.2140  -27.8350   22.7180 C   0  0  0  0  0  0  0  0  0  0  0  0
  -20.7780  -28.0680   22.9780 C   0  0  0  0  0  3  0  0  0  0  0  0
  -20.8610  -26.6580   22.3550 C   0  0  0  0  0  2  0  0  0  0  0  0
  -19.7570  -26.4150   21.3220 C   0  0  0  0  0  2  0  0  0  0  0  0
  -18.3870  -26.5060   22.0020 C   0  0  0  0  0  2  0  0  0  0  0  0
  -19.3400  -28.5740   23.1680 C   0  0  0  0  0  0  0  0  0  0  0  0
  -19.1350  -29.8190   23.8040 C   0  0  0  0  0  3  0  0  0  0  0  0
  -17.8360  -30.3240   23.9910 C   0  0  0  0  0  3  0  0  0  0  0  0
  -16.7250  -29.5810   23.5620 C   0  0  0  0  0  3  0  0  0  0  0  0
  -16.9130  -28.3370   22.9290 C   0  0  0  0  0  3  0  0  0  0  0  0
  -25.9720  -32.2890   23.8050 C   0  0  0  0  0  3  0  0  0  0  0  0
  -26.4650  -31.5080   25.0860 C   0  0  1  0  0  0  0  0  0  0  0  0
  -25.3530  -31.2600   26.1320 C   0  0  0  0  0  1  0  0  0  0  0  0
  -27.0610  -30.1350   24.6950 C   0  0  0  0  0  1  0  0  0  0  0  0
  -27.6020  -32.3010   25.7750 C   0  0  0  0  0  1  0  0  0  0  0  0
  -25.6430  -33.6820   24.1380 N   0  0  0  0  0  0  0  0  0  0  0  0
  -25.9830  -34.7420   23.3920 C   0  0  0  0  0  0  0  0  0  0  0  0
  -26.6770  -34.6510   22.3760 O   0  0  0  0  0  0  0  0  0  0  0  0
  -25.0320  -33.8260   24.9280 H   0  0  0  0  0  0  0  0  0  0  0  0
  -24.2450  -36.5190   23.0100 C   0  0  0  0  0  1  0  0  0  0  0  0
  -25.4710  -36.1220   23.8470 C   0  0  0  0  0  3  0  0  0  0  0  0
  -27.5730  -37.0270   24.7330 C   0  0  0  0  0  1  0  0  0  0  0  0
  -26.4920  -37.1880   23.7650 N   0  0  0  0  0  0  0  0  0  0  0  0
  -26.0740  -38.1050   23.9080 H   0  0  0  0  0  0  0  0  0  0  0  0
  2  4  1  0
  3  1  1  0
  3  9  1  0
  5  6  1  0
  5  8  1  0
  6  1  1  0
  6  7  1  0
  7  2  1  0
  8 12  1  0
  8  4  1  0
  9 11  1  6
  9 57  1  0
  9  7  1  0
  8 10  1  6
 13 14  1  0
 15 13  1  0
 16 14  1  0
 17 12  1  0
 17 18  1  0
 17 15  1  0
 18 27  1  0
 18 16  1  0
 19 27  1  0
 20 25  1  0
 21 22  1  0
 21 20  1  0
 23 22  1  0
 23 32  1  0
 23 24  1  0
 25 19  1  0
 25 24  1  0
 26 19  2  0
 27 28  1  0
 29 30  2  0
 30 49  1  0
 31 30  1  0
 31 34  1  0
 32 33  1  0
 32 29  1  0
 33 31  2  0
 34 35  1  0
 35 36  2  0
 37 40  1  0
 37 36  1  0
 38 37  2  0
 39 38  1  0
 39 34  2  0
 40 41  1  0
 41 42  1  0
 42 43  2  0
 44 43  1  0
 44 48  1  0
 45 44  2  0
 46 41  2  0
 46 45  1  0
 47 46  1  0
 49 50  1  0
 50 53  1  0
 50 52  1  0
 51 49  2  0
 54 55  1  0
 54 29  1  0
 56 54  1  0
 57 58  1  0
 58 59  1  0
 59 61  1  0
 60 71  2  0
 61 66  1  0
 62 70  1  0
 62 72  1  0
 63 69  1  0
 63 65  1  0
 64 70  1  0
 65 64  1  0
 66 65  2  0
 67 61  2  0
 68 67  1  0
 68 63  2  0
 69 62  1  0
 70 60  1  0
 72 74  2  0
 73 72  1  0
 75 73  1  0
 76 85  2  0
 76 81  1  0
 77 73  1  0
 77 81  1  0
 78 77  1  0
 79 80  1  0
 79 78  1  0
 80 76  1  0
 81 82  2  0
 82 83  1  0
 84 83  2  0
 85 84  1  0
 86 60  1  0
 86 91  1  0
 86 87  1  0
 87 90  1  1
 87 88  1  0
 89 87  1  0
 91 94  1  0
 92 96  1  0
 92 91  1  0
 93 92  2  0
 96 95  1  0
 98 96  1  0
 98 99  1  0
 98 97  1  0
M  ISO  4  19 100  27 100  58 101  59 101
M  END
>  <TORSDO>  (88) 
F 20

>  <SCORE>  (88) 
-6.568

>  <name>  (88) 
88

>  <ligand_id>  (88) 
88

>  <original_smiles>  (88) 
[H]c1c([H])c([H])c2c(c1[H])C([H])([H])C([H])([H])C([H])([H])C2([H])N([H])C(=O)C1([H])N(C(=O)C([H])(N([H])C(=O)C([H])(N([H])C([H])([H])[H])C([H])([H])[H])C(C([H])([H])[H])(C([H])([H])[H])C([H])([H])[H])C([H])([H])c2c([H])c(OC([H])([H])C([H])([H])[N+]3([H])C([H])([H])C([H])([H])C4([H])C([H])([H])[N+]([H])(C([H])([H])C5([H])C([H])([H])C([H])([H])C([H])([H])C([H])([H])C5([H])N([H])C(=O)N5C([H])([H])C([H])([H])C([H])([H])C([H])(n6nc(-c7c([H])c([H])c(Oc8c([H])c([H])c(F)c([H])c8F)c([H])c7[H])c(C(=O)N([H])[H])c6N([H])[H])C5([H])[H])C([H])([H])C([H])([H])C43[H])c([H])c([H])c2C1([H])[H]

>  <smiles>  (88) 
[H]c1c([H])c([H])c2c(c1[H])C([H])([H])C([H])([H])C([H])([H])C2([H])N([H])C(=O)C1([H])N(C(=O)C([H])(N([H])C(=O)C([H])(N([H])C([H])([H])[H])C([H])([H])[H])C(C([H])([H])[H])(C([H])([H])[H])C([H])([H])[H])C([H])([H])c2c([H])c(OC([H])([H])C([H])([H])[N+]3([H])C([H])([H])C([H])([H])C4([H])C([H])([H])[N+]([H])(C([H])([H])C5([H])C([H])([H])C([H])([H])C([H])([H])C([H])([H])C5([H])N([H])C(=O)N5C([H])([H])C([H])([H])C([H])([H])C([H])(n6nc(-c7c([H])c([H])c(Oc8c([H])c([H])c(F)c([H])c8F)c([H])c7[H])c(C(=O)N([H])[H])c6N([H])[H])C5([H])[H])C([H])([H])C([H])([H])C43[H])c([H])c([H])c2C1([H])[H]

$$$$
89:0:0
     RDKit          3D

 94102  0  0  1  0  0  0  0  0999 V2000
  -30.7830  -14.5840   20.4210 C   0  0  0  0  0  0  0  0  0  0  0  0
  -30.4060  -12.3140   19.5180 C   0  0  0  0  0  2  0  0  0  0  0  0
  -29.5310  -12.4160   18.2560 C   0  0  0  0  0  2  0  0  0  0  0  0
  -28.0470  -12.3120   18.6490 C   0  0  0  0  0  2  0  0  0  0  0  0
  -27.6620  -13.2610   19.8190 C   0  0  0  0  0  3  0  0  0  0  0  0
  -28.6940  -13.2200   20.9720 C   0  0  0  0  0  2  0  0  0  0  0  0
  -30.0240  -13.4430   20.3940 N   0  0  0  0  0  0  0  0  0  0  0  0
  -31.9770  -14.5310   20.1080 O   0  0  0  0  0  0  0  0  0  0  0  0
  -30.8050  -17.1290   20.2130 C   0  0  0  0  0  0  0  0  0  0  0  0
  -28.3030  -20.0370   20.7130 C   0  0  0  0  0  2  0  0  0  0  0  0
  -30.3280  -20.8720   19.5990 C   0  0  0  0  0  2  0  0  0  0  0  0
  -29.0390  -18.7150   21.1380 C   0  0  0  0  0  2  0  0  0  0  0  0
  -31.1160  -19.6380   20.1250 C   0  0  0  0  0  2  0  0  0  0  0  0
  -29.2030  -21.3110   20.5590 C   0  0  0  0  0  3  0  0  0  0  0  0
  -30.2800  -18.4100   20.3740 N   0  0  0  0  0  0  0  0  0  0  0  0
  -30.1730  -15.9300   20.5390 N   0  0  0  0  0  0  0  0  0  0  0  0
  -32.0500  -17.1010   19.6940 N   0  0  0  0  0  4  0  0  0  0  0  0
  -29.2060  -16.0260   20.7910 H   0  0  0  0  0  0  0  0  0  0  0  0
  -32.5400  -17.9190   19.3640 H   0  0  0  0  0  0  0  0  0  0  0  0
  -32.5200  -16.1940   19.6680 H   0  0  0  0  0  0  0  0  0  0  0  0
  -25.2690  -13.9060   20.4860 C   0  0  0  0  0  0  0  0  0  0  0  0
  -24.1820  -13.1560   20.8380 C   0  0  0  0  0  0  0  0  0  0  0  0
  -24.6170  -11.7960   20.8300 C   0  0  0  0  0  0  0  0  0  0  0  0
  -26.3030  -13.0050   20.2870 N   0  0  0  0  0  0  0  0  0  0  0  0
  -25.9140  -11.7310   20.5560 N   0  0  0  0  0  0  0  0  0  0  0  0
  -23.8610  -10.5490   21.0120 C   0  0  0  0  0  0  0  0  0  0  0  0
  -24.2710   -9.5680   21.9410 C   0  0  0  0  0  3  0  0  0  0  0  0
  -23.5120   -8.3910   22.1180 C   0  0  0  0  0  3  0  0  0  0  0  0
  -22.3300   -8.1840   21.3700 C   0  0  0  0  0  0  0  0  0  0  0  0
  -21.9400   -9.1520   20.4300 C   0  0  0  0  0  3  0  0  0  0  0  0
  -22.6970  -10.3220   20.2490 C   0  0  0  0  0  3  0  0  0  0  0  0
  -21.5520   -7.0550   21.4530 O   0  0  0  0  0  0  0  0  0  0  0  0
  -21.5090   -6.2960   22.5930 C   0  0  0  0  0  0  0  0  0  0  0  0
  -21.1510   -6.8450   23.8440 C   0  0  0  0  0  3  0  0  0  0  0  0
  -21.0520   -6.0110   24.9750 C   0  0  0  0  0  3  0  0  0  0  0  0
  -21.3010   -4.6310   24.8590 C   0  0  0  0  0  0  0  0  0  0  0  0
  -21.6540   -4.0840   23.6140 C   0  0  0  0  0  3  0  0  0  0  0  0
  -21.7550   -4.9130   22.4830 C   0  0  0  0  0  0  0  0  0  0  0  0
  -22.0740   -4.3770   21.2790 F   0  0  0  0  0  0  0  0  0  0  0  0
  -21.1990   -3.8260   25.9430 F   0  0  0  0  0  0  0  0  0  0  0  0
  -22.7910  -13.6640   21.0730 C   0  0  0  0  0  0  0  0  0  0  0  0
  -22.0370  -12.9920   21.9380 N   0  0  0  0  0  0  0  0  0  0  0  0
  -22.3840  -14.6880   20.5270 O   0  0  0  0  0  0  0  0  0  0  0  0
  -22.3920  -12.1660   22.3980 H   0  0  0  0  0  0  0  0  0  0  0  0
  -21.0990  -13.3090   22.1390 H   0  0  0  0  0  0  0  0  0  0  0  0
  -25.4560  -15.2720   20.2990 N   0  0  0  0  0  0  0  0  0  0  0  0
  -24.6700  -15.9110   20.3530 H   0  0  0  0  0  0  0  0  0  0  0  0
  -26.2880  -15.7090   19.9280 H   0  0  0  0  0  0  0  0  0  0  0  0
  -28.4340  -22.5290   20.0840 N   0  0  0  0  0  4  0  0  0  0  0  0
  -27.5630  -22.5200   20.5950 H   0  0  0  0  0  0  0  0  0  0  0  0
  -28.1960  -22.3840   19.1150 H   0  0  0  0  0  0  0  0  0  0  0  0
  -29.0060  -23.9330   20.2310 C   0  0  0  0  0  2  0  0  0  0  0  0
  -27.9980  -25.0580   19.7590 C   0  0  0  0  0  2  0  0  0  0  0  0
  -28.3250  -26.4990   19.8330 O   0  0  0  0  0  0  0  0  0  0  0  0
  -24.6140  -31.7390   23.0420 C   0  0  0  0  0  0  0  0  0  0  0  0
  -27.2200  -27.3600   19.7820 C   0  0  0  0  0  0  0  0  0  0  0  0
  -23.3970  -30.3890   21.3720 C   0  0  0  0  0  3  0  0  0  0  0  0
  -24.8420  -28.9320   19.8540 C   0  0  0  0  0  0  0  0  0  0  0  0
  -25.9260  -30.7590   21.1550 C   0  0  0  0  0  2  0  0  0  0  0  0
  -26.0110  -29.4130   20.4540 C   0  0  0  0  0  0  0  0  0  0  0  0
  -27.2060  -28.6380   20.4140 C   0  0  0  0  0  3  0  0  0  0  0  0
  -26.0320  -26.9490   19.1290 C   0  0  0  0  0  3  0  0  0  0  0  0
  -24.8540  -27.7070   19.1810 C   0  0  0  0  0  3  0  0  0  0  0  0
  -23.5900  -29.7750   19.9620 C   0  0  0  0  0  2  0  0  0  0  0  0
  -24.6640  -30.9760   21.9120 N   0  0  0  0  0  0  0  0  0  0  0  0
  -23.5410  -31.9780   23.6100 O   0  0  0  0  0  0  0  0  0  0  0  0
  -22.7740  -29.3210   22.3040 C   0  0  0  0  0  0  0  0  0  0  0  0
  -21.4440  -29.1460   22.2160 N   0  0  0  0  0  0  0  0  0  0  0  0
  -23.4830  -28.6540   23.0650 O   0  0  0  0  0  0  0  0  0  0  0  0
  -20.9300  -29.7290   21.5700 H   0  0  0  0  0  0  0  0  0  0  0  0
  -18.0850  -27.9500   22.8060 C   0  0  0  0  0  0  0  0  0  0  0  0
  -20.6540  -28.1740   22.9750 C   0  0  0  0  0  3  0  0  0  0  0  0
  -20.7190  -26.7760   22.3190 C   0  0  0  0  0  2  0  0  0  0  0  0
  -19.5710  -26.5170   21.3390 C   0  0  0  0  0  2  0  0  0  0  0  0
  -18.2210  -26.6380   22.0520 C   0  0  0  0  0  2  0  0  0  0  0  0
  -19.2300  -28.6790   23.2260 C   0  0  0  0  0  0  0  0  0  0  0  0
  -19.0500  -29.9100   23.8950 C   0  0  0  0  0  3  0  0  0  0  0  0
  -17.7600  -30.4110   24.1440 C   0  0  0  0  0  3  0  0  0  0  0  0
  -16.6310  -29.6790   23.7400 C   0  0  0  0  0  3  0  0  0  0  0  0
  -16.7950  -28.4490   23.0770 C   0  0  0  0  0  3  0  0  0  0  0  0
  -25.9040  -32.3650   23.6600 C   0  0  0  0  0  3  0  0  0  0  0  0
  -25.5750  -33.7380   24.0640 N   0  0  0  0  0  0  0  0  0  0  0  0
  -25.8570  -34.8310   23.3440 C   0  0  0  0  0  0  0  0  0  0  0  0
  -26.4930  -34.7920   22.2880 O   0  0  0  0  0  0  0  0  0  0  0  0
  -24.9930  -33.8440   24.8830 H   0  0  0  0  0  0  0  0  0  0  0  0
  -24.0670  -36.5870   23.1440 C   0  0  0  0  0  1  0  0  0  0  0  0
  -25.3540  -36.1850   23.8810 C   0  0  0  0  0  3  0  0  0  0  0  0
  -27.5010  -37.0910   24.6560 C   0  0  0  0  0  1  0  0  0  0  0  0
  -26.3520  -37.2700   23.7730 N   0  0  0  0  0  0  0  0  0  0  0  0
  -25.9290  -38.1700   23.9830 H   0  0  0  0  0  0  0  0  0  0  0  0
  -26.4700  -31.5430   24.8840 C   0  0  1  0  0  0  0  0  0  0  0  0
  -25.4090  -31.2350   25.9650 C   0  0  0  0  0  1  0  0  0  0  0  0
  -27.0670  -30.1940   24.4150 C   0  0  0  0  0  1  0  0  0  0  0  0
  -27.6270  -32.3230   25.5500 C   0  0  0  0  0  1  0  0  0  0  0  0
  1 16  1  0
  2  7  1  0
  3  4  1  0
  3  2  1  0
  5  4  1  0
  5 24  1  0
  5  6  1  0
  7  1  1  0
  7  6  1  0
  8  1  2  0
  9 15  1  0
  9 16  1  0
 10 12  1  0
 11 13  1  0
 11 14  1  0
 13 15  1  0
 14 49  1  0
 14 10  1  0
 15 12  1  0
 16 18  1  0
 17  9  2  0
 19 17  1  0
 20 17  1  0
 21 22  2  0
 22 41  1  0
 23 22  1  0
 23 26  1  0
 24 21  1  0
 24 25  1  0
 25 23  2  0
 26 27  1  0
 27 28  2  0
 29 32  1  0
 29 28  1  0
 30 29  2  0
 31 30  1  0
 31 26  2  0
 32 33  1  0
 33 34  1  0
 34 35  2  0
 36 35  1  0
 36 40  1  0
 37 36  2  0
 38 33  2  0
 38 37  1  0
 39 38  1  0
 41 42  1  0
 42 45  1  0
 42 44  1  0
 43 41  2  0
 46 47  1  0
 46 21  1  0
 48 46  1  0
 49 52  1  0
 49 50  1  0
 51 49  1  0
 53 54  1  0
 53 52  1  0
 55 66  2  0
 56 54  1  0
 56 61  1  0
 57 65  1  0
 57 67  1  0
 58 64  1  0
 58 60  1  0
 59 65  1  0
 60 59  1  0
 61 60  2  0
 62 63  1  0
 62 56  2  0
 63 58  2  0
 64 57  1  0
 65 55  1  0
 67 69  2  0
 68 67  1  0
 70 68  1  0
 71 80  2  0
 71 76  1  0
 72 68  1  0
 72 76  1  0
 73 72  1  0
 74 75  1  0
 74 73  1  0
 75 71  1  0
 76 77  2  0
 77 78  1  0
 79 78  2  0
 80 79  1  0
 81 55  1  0
 81 82  1  0
 81 91  1  0
 82 85  1  0
 83 87  1  0
 83 82  1  0
 84 83  2  0
 87 86  1  0
 89 87  1  0
 89 90  1  0
 89 88  1  0
 91 94  1  1
 91 92  1  0
 93 91  1  0
M  ISO  4   1 100  16 100  53 101  54 101
M  END
>  <TORSDO>  (89) 
F 18

>  <SCORE>  (89) 
-13.804

>  <name>  (89) 
89

>  <ligand_id>  (89) 
89

>  <original_smiles>  (89) 
[H]c1c([H])c([H])c2c(c1[H])C([H])([H])C([H])([H])C([H])([H])C2([H])N([H])C(=O)C1([H])N(C(=O)C([H])(N([H])C(=O)C([H])(N([H])C([H])([H])[H])C([H])([H])[H])C(C([H])([H])[H])(C([H])([H])[H])C([H])([H])[H])C([H])([H])c2c([H])c(OC([H])([H])C([H])([H])[N+]([H])([H])C3([H])C([H])([H])C([H])([H])N(C(N([H])C(=O)N4C([H])([H])C([H])([H])C([H])([H])C([H])(n5nc(-c6c([H])c([H])c(Oc7c([H])c([H])c(F)c([H])c7F)c([H])c6[H])c(C(=O)N([H])[H])c5N([H])[H])C4([H])[H])=[N+]([H])[H])C([H])([H])C3([H])[H])c([H])c([H])c2C1([H])[H]

>  <smiles>  (89) 
[H]c1c([H])c([H])c2c(c1[H])C([H])([H])C([H])([H])C([H])([H])C2([H])N([H])C(=O)C1([H])N(C(=O)C([H])(N([H])C(=O)C([H])(N([H])C([H])([H])[H])C([H])([H])[H])C(C([H])([H])[H])(C([H])([H])[H])C([H])([H])[H])C([H])([H])c2c([H])c(OC([H])([H])C([H])([H])[N+]([H])([H])C3([H])C([H])([H])C([H])([H])N(C(N([H])C(=O)N4C([H])([H])C([H])([H])C([H])([H])C([H])(n5nc(-c6c([H])c([H])c(Oc7c([H])c([H])c(F)c([H])c7F)c([H])c6[H])c(C(=O)N([H])[H])c5N([H])[H])C4([H])[H])=[N+]([H])[H])C([H])([H])C3([H])[H])c([H])c([H])c2C1([H])[H]

$$$$
90:0:0
     RDKit          3D

101109  0  0  1  0  0  0  0  0999 V2000
  -30.4990  -19.8000   21.6550 N   0  0  0  0  0  0  0  0  0  0  0  0
  -30.9360  -20.1360   23.0260 C   0  0  0  0  0  2  0  0  0  0  0  0
  -30.6550  -21.5900   23.4590 C   0  0  0  0  0  2  0  0  0  0  0  0
  -31.2150  -21.8820   24.7910 N   0  0  0  0  0  4  0  0  0  0  0  0
  -30.8270  -21.2750   25.4910 H   0  0  0  0  0  0  0  0  0  0  0  0
  -31.0090  -22.8280   25.0550 H   0  0  0  0  0  0  0  0  0  0  0  0
  -32.2150  -21.7720   24.7900 H   0  0  0  0  0  0  0  0  0  0  0  0
  -30.9190  -20.8570   20.6900 C   0  0  0  0  0  2  0  0  0  0  0  0
  -29.7860  -21.7590   20.0550 C   0  0  0  0  0  2  0  0  0  0  0  0
  -29.5140  -23.0830   20.7130 N   0  0  0  0  0  4  0  0  0  0  0  0
  -30.3710  -23.4040   21.1390 H   0  0  0  0  0  0  0  0  0  0  0  0
  -28.8440  -22.9240   21.4480 H   0  0  0  0  0  0  0  0  0  0  0  0
  -29.0020  -24.1850   19.8140 C   0  0  0  0  0  2  0  0  0  0  0  0
  -28.4300  -25.4440   20.5590 C   0  0  0  0  0  2  0  0  0  0  0  0
  -28.3830  -26.6730   19.7760 O   0  0  0  0  0  0  0  0  0  0  0  0
  -24.5420  -31.7490   23.0760 C   0  0  0  0  0  0  0  0  0  0  0  0
  -27.2090  -27.4110   19.8390 C   0  0  0  0  0  0  0  0  0  0  0  0
  -23.3260  -30.3490   21.4400 C   0  0  0  0  0  3  0  0  0  0  0  0
  -24.7800  -28.8800   19.9400 C   0  0  0  0  0  0  0  0  0  0  0  0
  -25.8360  -30.7770   21.1760 C   0  0  0  0  0  2  0  0  0  0  0  0
  -25.9430  -29.4180   20.5040 C   0  0  0  0  0  0  0  0  0  0  0  0
  -27.1620  -28.6930   20.4460 C   0  0  0  0  0  3  0  0  0  0  0  0
  -26.0280  -26.8990   19.2630 C   0  0  0  0  0  3  0  0  0  0  0  0
  -24.8210  -27.6210   19.3110 C   0  0  0  0  0  3  0  0  0  0  0  0
  -23.5170  -29.7060   20.0390 C   0  0  0  0  0  2  0  0  0  0  0  0
  -24.5890  -30.9730   21.9560 N   0  0  0  0  0  0  0  0  0  0  0  0
  -23.4710  -31.9780   23.6550 O   0  0  0  0  0  0  0  0  0  0  0  0
  -22.7300  -29.2900   22.3970 C   0  0  0  0  0  0  0  0  0  0  0  0
  -21.4140  -29.0500   22.2840 N   0  0  0  0  0  0  0  0  0  0  0  0
  -23.4490  -28.6880   23.1990 O   0  0  0  0  0  0  0  0  0  0  0  0
  -20.8910  -29.5960   21.6130 H   0  0  0  0  0  0  0  0  0  0  0  0
  -18.1100  -27.6650   22.7710 C   0  0  0  0  0  0  0  0  0  0  0  0
  -20.6480  -28.0670   23.0500 C   0  0  0  0  0  3  0  0  0  0  0  0
  -20.8330  -26.6440   22.4760 C   0  0  0  0  0  2  0  0  0  0  0  0
  -19.7540  -26.2600   21.4570 C   0  0  0  0  0  2  0  0  0  0  0  0
  -18.3640  -26.3280   22.0960 C   0  0  0  0  0  2  0  0  0  0  0  0
  -19.1820  -28.4890   23.2040 C   0  0  0  0  0  0  0  0  0  0  0  0
  -18.8910  -29.7370   23.7940 C   0  0  0  0  0  3  0  0  0  0  0  0
  -17.5600  -30.1660   23.9540 C   0  0  0  0  0  3  0  0  0  0  0  0
  -16.5020  -29.3400   23.5370 C   0  0  0  0  0  3  0  0  0  0  0  0
  -16.7770  -28.0910   22.9530 C   0  0  0  0  0  3  0  0  0  0  0  0
  -25.8280  -32.4050   23.6710 C   0  0  0  0  0  3  0  0  0  0  0  0
  -25.4910  -33.7860   24.0450 N   0  0  0  0  0  0  0  0  0  0  0  0
  -25.7890  -34.8640   23.3100 C   0  0  0  0  0  0  0  0  0  0  0  0
  -26.4470  -34.8050   22.2680 O   0  0  0  0  0  0  0  0  0  0  0  0
  -24.9050  -33.9040   24.8600 H   0  0  0  0  0  0  0  0  0  0  0  0
  -24.0130  -36.6220   23.0280 C   0  0  0  0  0  1  0  0  0  0  0  0
  -25.2750  -36.2280   23.8110 C   0  0  0  0  0  3  0  0  0  0  0  0
  -27.4010  -37.1390   24.6330 C   0  0  0  0  0  1  0  0  0  0  0  0
  -26.2800  -37.3100   23.7130 N   0  0  0  0  0  0  0  0  0  0  0  0
  -25.8540  -38.2140   23.8980 H   0  0  0  0  0  0  0  0  0  0  0  0
  -26.4080  -31.6210   24.9110 C   0  0  1  0  0  0  0  0  0  0  0  0
  -25.3600  -31.3250   26.0090 C   0  0  0  0  0  1  0  0  0  0  0  0
  -27.0210  -30.2730   24.4650 C   0  0  0  0  0  1  0  0  0  0  0  0
  -27.5550  -32.4350   25.5570 C   0  0  0  0  0  1  0  0  0  0  0  0
  -31.0600  -18.4410   21.3600 C   0  0  0  0  0  2  0  0  0  0  0  0
  -29.9400  -17.3460   21.2430 C   0  0  0  0  0  0  0  0  0  0  0  0
  -31.0510  -15.0410   20.7250 C   0  0  0  0  0  0  0  0  0  0  0  0
  -30.8230  -13.0490   19.2690 C   0  0  0  0  0  2  0  0  0  0  0  0
  -29.8990  -13.4180   18.0850 C   0  0  0  0  0  2  0  0  0  0  0  0
  -28.4140  -13.2360   18.4570 C   0  0  0  0  0  2  0  0  0  0  0  0
  -28.0560  -13.8880   19.8170 C   0  0  0  0  0  3  0  0  0  0  0  0
  -29.0800  -13.4710   20.8990 C   0  0  0  0  0  2  0  0  0  0  0  0
  -30.4260  -13.8610   20.4320 N   0  0  0  0  0  0  0  0  0  0  0  0
  -32.1580  -15.3440   20.2690 O   0  0  0  0  0  0  0  0  0  0  0  0
  -30.2790  -15.9080   21.4210 N   0  0  0  0  0  4  0  0  0  0  0  0
  -29.5260  -15.4180   21.8800 H   0  0  0  0  0  0  0  0  0  0  0  0
  -25.6000  -14.4360   20.3690 C   0  0  0  0  0  0  0  0  0  0  0  0
  -24.5360  -13.6420   20.7010 C   0  0  0  0  0  0  0  0  0  0  0  0
  -25.0390  -12.3050   20.7310 C   0  0  0  0  0  0  0  0  0  0  0  0
  -26.6830  -13.5830   20.2200 N   0  0  0  0  0  0  0  0  0  0  0  0
  -26.3440  -12.2980   20.4930 N   0  0  0  0  0  0  0  0  0  0  0  0
  -24.3430  -11.0260   20.9150 C   0  0  0  0  0  0  0  0  0  0  0  0
  -24.7020  -10.1310   21.9470 C   0  0  0  0  0  3  0  0  0  0  0  0
  -24.0050   -8.9140   22.1140 C   0  0  0  0  0  3  0  0  0  0  0  0
  -22.9370   -8.5830   21.2480 C   0  0  0  0  0  0  0  0  0  0  0  0
  -22.5970   -9.4680   20.2090 C   0  0  0  0  0  3  0  0  0  0  0  0
  -23.2950  -10.6760   20.0400 C   0  0  0  0  0  3  0  0  0  0  0  0
  -22.2220   -7.4120   21.3180 O   0  0  0  0  0  0  0  0  0  0  0  0
  -22.0050   -6.7720   22.5120 C   0  0  0  0  0  0  0  0  0  0  0  0
  -21.3770   -7.4180   23.5980 C   0  0  0  0  0  3  0  0  0  0  0  0
  -21.1100   -6.7030   24.7830 C   0  0  0  0  0  3  0  0  0  0  0  0
  -21.4600   -5.3430   24.8790 C   0  0  0  0  0  0  0  0  0  0  0  0
  -22.0790   -4.6970   23.7960 C   0  0  0  0  0  3  0  0  0  0  0  0
  -22.3480   -5.4100   22.6140 C   0  0  0  0  0  0  0  0  0  0  0  0
  -22.9270   -4.7770   21.5650 F   0  0  0  0  0  0  0  0  0  0  0  0
  -21.1960   -4.6530   26.0150 F   0  0  0  0  0  0  0  0  0  0  0  0
  -23.1110  -14.0830   20.8820 C   0  0  0  0  0  0  0  0  0  0  0  0
  -22.3640  -13.4100   21.7490 N   0  0  0  0  0  0  0  0  0  0  0  0
  -22.6650  -15.0630   20.2880 O   0  0  0  0  0  0  0  0  0  0  0  0
  -22.7330  -12.6200   22.2570 H   0  0  0  0  0  0  0  0  0  0  0  0
  -21.4070  -13.6940   21.9090 H   0  0  0  0  0  0  0  0  0  0  0  0
  -25.7320  -15.8050   20.1620 N   0  0  0  0  0  0  0  0  0  0  0  0
  -24.9280  -16.4230   20.1740 H   0  0  0  0  0  0  0  0  0  0  0  0
  -26.5610  -16.2400   19.7770 H   0  0  0  0  0  0  0  0  0  0  0  0
  -27.2210  -18.0640   17.9110 C   0  0  0  0  0  3  0  0  0  0  0  0
  -26.8250  -18.3660   19.2280 C   0  0  0  0  0  3  0  0  0  0  0  0
  -28.5080  -17.5550   17.6650 C   0  0  0  0  0  3  0  0  0  0  0  0
  -27.7120  -18.1440   20.3000 C   0  0  0  0  0  3  0  0  0  0  0  0
  -29.3950  -17.3410   18.7370 C   0  0  0  0  0  3  0  0  0  0  0  0
  -29.0000  -17.6130   20.0660 C   0  0  0  0  0  0  0  0  0  0  0  0
  1  2  1  0
  2  3  1  0
  3  4  1  0
  4  6  1  0
  4  5  1  0
  7  4  1  0
  8  1  1  0
  9  8  1  0
  9 10  1  0
 10 11  1  0
 10 12  1  0
 13 14  1  0
 13 10  1  0
 15 17  1  0
 15 14  1  0
 16 27  2  0
 17 22  1  0
 18 26  1  0
 18 28  1  0
 19 25  1  0
 19 21  1  0
 20 26  1  0
 21 20  1  0
 22 21  2  0
 23 24  1  0
 23 17  2  0
 24 19  2  0
 25 18  1  0
 26 16  1  0
 28 30  2  0
 29 28  1  0
 31 29  1  0
 32 41  2  0
 32 37  1  0
 33 29  1  0
 33 37  1  0
 34 33  1  0
 35 36  1  0
 35 34  1  0
 36 32  1  0
 37 38  2  0
 38 39  1  0
 40 39  2  0
 41 40  1  0
 42 16  1  0
 42 43  1  0
 42 52  1  0
 43 46  1  0
 44 48  1  0
 44 43  1  0
 45 44  2  0
 48 47  1  0
 50 48  1  0
 50 51  1  0
 50 49  1  0
 52 55  1  1
 52 53  1  0
 54 52  1  0
 56  1  1  0
 57 56  1  0
 57 66  2  3
 58 66  1  0
 59 64  1  0
 60 61  1  0
 60 59  1  0
 62 61  1  0
 62 71  1  0
 62 63  1  0
 64 58  1  0
 64 63  1  0
 65 58  2  0
 66 67  1  0
 68 69  2  0
 69 70  1  0
 69 88  1  0
 70 73  1  0
 71 68  1  0
 71 72  1  0
 72 70  2  0
 73 74  1  0
 74 75  2  0
 76 79  1  0
 76 75  1  0
 77 76  2  0
 78 77  1  0
 78 73  2  0
 79 80  1  0
 80 85  2  0
 80 81  1  0
 81 82  2  0
 82 83  1  0
 83 87  1  0
 84 83  2  0
 85 84  1  0
 86 85  1  0
 88 89  1  0
 89 92  1  0
 89 91  1  0
 90 88  2  0
 93 94  1  0
 93 68  1  0
 95 93  1  0
 96 97  1  0
 97 99  2  0
 98 96  2  0
 98100  1  0
100101  2  0
101 99  1  0
101 57  1  0
M  ISO  4  14 101  15 101  58 100  66 100
M  END
>  <TORSDO>  (90) 
F 27

>  <SCORE>  (90) 
-10.754

>  <name>  (90) 
90

>  <ligand_id>  (90) 
90

>  <original_smiles>  (90) 
[H]c1c([H])c([H])c(C([H])(N([H])C(=O)N2C([H])([H])C([H])([H])C([H])([H])C([H])(n3nc(-c4c([H])c([H])c(Oc5c([H])c([H])c(F)c([H])c5F)c([H])c4[H])c(C(=O)N([H])[H])c3N([H])[H])C2([H])[H])C([H])([H])N(C([H])([H])C([H])([H])[N+]([H])([H])[H])C([H])([H])C([H])([H])[N+]([H])([H])C([H])([H])C([H])([H])Oc2c([H])c([H])c3c(c2[H])C([H])([H])N(C(=O)C([H])(N([H])C(=O)C([H])(N([H])C([H])([H])[H])C([H])([H])[H])C(C([H])([H])[H])(C([H])([H])[H])C([H])([H])[H])C([H])(C(=O)N([H])C2([H])c4c([H])c([H])c([H])c([H])c4C([H])([H])C([H])([H])C2([H])[H])C3([H])[H])c([H])c1[H]

>  <smiles>  (90) 
[H]c1c([H])c([H])c(C([H])(N([H])C(=O)N2C([H])([H])C([H])([H])C([H])([H])C([H])(n3nc(-c4c([H])c([H])c(Oc5c([H])c([H])c(F)c([H])c5F)c([H])c4[H])c(C(=O)N([H])[H])c3N([H])[H])C2([H])[H])C([H])([H])N(C([H])([H])C([H])([H])[N+]([H])([H])[H])C([H])([H])C([H])([H])[N+]([H])([H])C([H])([H])C([H])([H])Oc2c([H])c([H])c3c(c2[H])C([H])([H])N(C(=O)C([H])(N([H])C(=O)C([H])(N([H])C([H])([H])[H])C([H])([H])[H])C(C([H])([H])[H])(C([H])([H])[H])C([H])([H])[H])C([H])(C(=O)N([H])C2([H])c4c([H])c([H])c([H])c([H])c4C([H])([H])C([H])([H])C2([H])[H])C3([H])[H])c([H])c1[H]

$$$$
91:0:0
     RDKit          3D

101108  0  0  1  0  0  0  0  0999 V2000
  -31.0930  -19.7800   19.6940 C   0  0  0  0  0  2  0  0  0  0  0  0
  -31.7410  -18.6500   18.9570 N   0  0  2  0  0  4  0  0  0  0  0  0
  -32.5650  -18.4010   19.4870 H   0  0  0  0  0  0  0  0  0  0  0  0
  -32.1980  -19.0480   17.5900 C   0  0  0  0  0  2  0  0  0  0  0  0
  -33.7210  -18.6110   15.5920 C   0  0  0  0  0  1  0  0  0  0  0  0
  -33.3490  -18.1860   17.0210 C   0  0  0  0  0  2  0  0  0  0  0  0
  -30.8830  -17.4140   18.8790 C   0  0  0  0  0  2  0  0  0  0  0  0
  -30.0870  -17.0010   20.1710 C   0  0  0  0  0  3  0  0  0  0  0  0
  -30.8940  -14.5290   20.1100 C   0  0  0  0  0  0  0  0  0  0  0  0
  -30.5460  -12.3560   19.0150 C   0  0  0  0  0  2  0  0  0  0  0  0
  -29.5890  -12.6120   17.8300 C   0  0  0  0  0  2  0  0  0  0  0  0
  -28.1110  -12.5370   18.2720 C   0  0  0  0  0  2  0  0  0  0  0  0
  -27.8290  -13.3700   19.5490 C   0  0  0  0  0  3  0  0  0  0  0  0
  -28.8970  -13.0910   20.6340 C   0  0  0  0  0  2  0  0  0  0  0  0
  -30.2290  -13.3460   20.0480 N   0  0  0  0  0  0  0  0  0  0  0  0
  -32.0390  -14.7110   19.6850 O   0  0  0  0  0  0  0  0  0  0  0  0
  -30.0800  -15.5440   20.4250 N   0  0  0  0  0  0  0  0  0  0  0  0
  -29.1920  -15.2000   20.7580 H   0  0  0  0  0  0  0  0  0  0  0  0
  -25.4550  -14.0730   20.2740 C   0  0  0  0  0  0  0  0  0  0  0  0
  -24.3670  -13.3440   20.6730 C   0  0  0  0  0  0  0  0  0  0  0  0
  -24.7870  -11.9780   20.6620 C   0  0  0  0  0  0  0  0  0  0  0  0
  -26.4720  -13.1550   20.0510 N   0  0  0  0  0  0  0  0  0  0  0  0
  -26.0710  -11.8910   20.3390 N   0  0  0  0  0  0  0  0  0  0  0  0
  -24.0210  -10.7450   20.8820 C   0  0  0  0  0  0  0  0  0  0  0  0
  -24.4350   -9.7780   21.8250 C   0  0  0  0  0  3  0  0  0  0  0  0
  -23.6750   -8.6060   22.0320 C   0  0  0  0  0  3  0  0  0  0  0  0
  -22.4870   -8.3940   21.2920 C   0  0  0  0  0  0  0  0  0  0  0  0
  -22.0940   -9.3480   20.3360 C   0  0  0  0  0  3  0  0  0  0  0  0
  -22.8540  -10.5100   20.1300 C   0  0  0  0  0  3  0  0  0  0  0  0
  -21.6960   -7.2780   21.4100 O   0  0  0  0  0  0  0  0  0  0  0  0
  -21.6380   -6.5560   22.5750 C   0  0  0  0  0  0  0  0  0  0  0  0
  -21.2330   -7.1390   23.7960 C   0  0  0  0  0  3  0  0  0  0  0  0
  -21.1240   -6.3430   24.9540 C   0  0  0  0  0  3  0  0  0  0  0  0
  -21.4060   -4.9650   24.8910 C   0  0  0  0  0  0  0  0  0  0  0  0
  -21.8020   -4.3820   23.6750 C   0  0  0  0  0  3  0  0  0  0  0  0
  -21.9160   -5.1760   22.5200 C   0  0  0  0  0  0  0  0  0  0  0  0
  -22.2770   -4.6040   21.3460 F   0  0  0  0  0  0  0  0  0  0  0  0
  -21.2930   -4.1980   25.9990 F   0  0  0  0  0  0  0  0  0  0  0  0
  -22.9860  -13.8680   20.9550 C   0  0  0  0  0  0  0  0  0  0  0  0
  -22.2540  -13.2220   21.8570 N   0  0  0  0  0  0  0  0  0  0  0  0
  -22.5640  -14.8850   20.4070 O   0  0  0  0  0  0  0  0  0  0  0  0
  -22.5990  -12.3970   22.3210 H   0  0  0  0  0  0  0  0  0  0  0  0
  -21.3280  -13.5570   22.0840 H   0  0  0  0  0  0  0  0  0  0  0  0
  -25.6520  -15.4310   20.0610 N   0  0  0  0  0  0  0  0  0  0  0  0
  -24.9020  -16.1080   20.1530 H   0  0  0  0  0  0  0  0  0  0  0  0
  -26.4980  -15.8320   19.6820 H   0  0  0  0  0  0  0  0  0  0  0  0
  -28.5410  -17.2260   20.0500 C   0  0  0  0  0  2  0  0  0  0  0  0
  -28.0170  -19.7790   20.3920 C   0  0  0  0  0  1  0  0  0  0  0  0
  -27.8010  -18.5010   19.5630 C   0  0  0  0  0  3  0  0  0  0  0  0
  -26.4870  -19.5280   17.5970 C   0  0  0  0  0  1  0  0  0  0  0  0
  -27.7120  -18.7000   18.0290 C   0  0  0  0  0  2  0  0  0  0  0  0
  -31.8960  -21.1020   19.8430 C   0  0  0  0  0  2  0  0  0  0  0  0
  -31.1840  -22.2910   19.1480 C   0  0  0  0  0  2  0  0  0  0  0  0
  -31.9860  -23.6080   19.0770 C   0  0  0  0  0  2  0  0  0  0  0  0
  -32.0250  -24.4630   20.3660 C   0  0  0  0  0  2  0  0  0  0  0  0
  -31.0040  -25.5370   20.3880 N   0  0  0  0  0  4  0  0  0  0  0  0
  -30.7430  -25.7850   19.4470 H   0  0  0  0  0  0  0  0  0  0  0  0
  -31.4480  -26.3520   20.7870 H   0  0  0  0  0  0  0  0  0  0  0  0
  -29.7940  -25.2570   21.1980 C   0  0  0  0  0  2  0  0  0  0  0  0
  -28.9050  -26.5060   21.3410 C   0  0  0  0  0  2  0  0  0  0  0  0
  -28.2540  -26.7270   20.0940 O   0  0  0  0  0  0  0  0  0  0  0  0
  -24.5330  -31.9700   23.2020 C   0  0  0  0  0  0  0  0  0  0  0  0
  -27.1150  -27.4920   20.1530 C   0  0  0  0  0  0  0  0  0  0  0  0
  -23.2980  -30.5600   21.5890 C   0  0  0  0  0  3  0  0  0  0  0  0
  -24.7270  -28.9910   20.1720 C   0  0  0  0  0  0  0  0  0  0  0  0
  -25.8210  -30.9010   21.3600 C   0  0  0  0  0  2  0  0  0  0  0  0
  -25.8910  -29.5210   20.7460 C   0  0  0  0  0  0  0  0  0  0  0  0
  -27.0890  -28.7750   20.7430 C   0  0  0  0  0  3  0  0  0  0  0  0
  -25.9410  -26.9730   19.5700 C   0  0  0  0  0  3  0  0  0  0  0  0
  -24.7440  -27.7160   19.5850 C   0  0  0  0  0  3  0  0  0  0  0  0
  -23.4860  -29.8580   20.2170 C   0  0  0  0  0  2  0  0  0  0  0  0
  -24.5700  -31.1590   22.1100 N   0  0  0  0  0  0  0  0  0  0  0  0
  -23.4590  -32.2600   23.7490 O   0  0  0  0  0  0  0  0  0  0  0  0
  -22.6490  -29.5550   22.5680 C   0  0  0  0  0  0  0  0  0  0  0  0
  -21.3220  -29.3800   22.4520 N   0  0  0  0  0  0  0  0  0  0  0  0
  -23.3360  -28.9350   23.3830 O   0  0  0  0  0  0  0  0  0  0  0  0
  -20.8300  -29.9330   21.7660 H   0  0  0  0  0  0  0  0  0  0  0  0
  -17.9410  -28.2360   22.9960 C   0  0  0  0  0  0  0  0  0  0  0  0
  -20.5040  -28.4600   23.2410 C   0  0  0  0  0  3  0  0  0  0  0  0
  -20.5810  -27.0220   22.6760 C   0  0  0  0  0  2  0  0  0  0  0  0
  -19.4640  -26.7050   21.6770 C   0  0  0  0  0  2  0  0  0  0  0  0
  -18.0920  -26.8780   22.3330 C   0  0  0  0  0  2  0  0  0  0  0  0
  -19.0730  -28.9860   23.4090 C   0  0  0  0  0  0  0  0  0  0  0  0
  -18.8780  -30.2600   23.9860 C   0  0  0  0  0  3  0  0  0  0  0  0
  -17.5820  -30.7800   24.1570 C   0  0  0  0  0  3  0  0  0  0  0  0
  -16.4630  -30.0260   23.7610 C   0  0  0  0  0  3  0  0  0  0  0  0
  -16.6450  -28.7550   23.1850 C   0  0  0  0  0  3  0  0  0  0  0  0
  -25.8320  -32.5950   23.8020 C   0  0  0  0  0  3  0  0  0  0  0  0
  -25.5390  -33.9970   24.1230 N   0  0  0  0  0  0  0  0  0  0  0  0
  -25.8910  -35.0400   23.3590 C   0  0  0  0  0  0  0  0  0  0  0  0
  -26.5650  -34.9230   22.3320 O   0  0  0  0  0  0  0  0  0  0  0  0
  -24.9440  -34.1650   24.9210 H   0  0  0  0  0  0  0  0  0  0  0  0
  -24.2060  -36.8630   22.9580 C   0  0  0  0  0  1  0  0  0  0  0  0
  -25.4150  -36.4360   23.8040 C   0  0  0  0  0  3  0  0  0  0  0  0
  -27.5390  -37.2870   24.6980 C   0  0  0  0  0  1  0  0  0  0  0  0
  -26.4700  -37.4700   23.7200 N   0  0  0  0  0  0  0  0  0  0  0  0
  -26.0740  -38.3970   23.8500 H   0  0  0  0  0  0  0  0  0  0  0  0
  -26.3620  -31.8290   25.0760 C   0  0  1  0  0  0  0  0  0  0  0  0
  -25.2800  -31.6050   26.1590 C   0  0  0  0  0  1  0  0  0  0  0  0
  -26.9320  -30.4460   24.6810 C   0  0  0  0  0  1  0  0  0  0  0  0
  -27.5240  -32.6210   25.7190 C   0  0  0  0  0  1  0  0  0  0  0  0
  1 52  1  0
  2  3  1  1
  2  1  1  0
  4  2  1  0
  5  6  1  0
  6  4  1  0
  7  2  1  0
  8  7  1  0
  8 17  1  0
  9 17  1  0
 10 15  1  0
 11 12  1  0
 11 10  1  0
 13 12  1  0
 13 22  1  0
 13 14  1  0
 15  9  1  0
 15 14  1  0
 16  9  2  0
 17 18  1  0
 19 20  2  0
 20 39  1  0
 21 20  1  0
 21 24  1  0
 22 19  1  0
 22 23  1  0
 23 21  2  0
 24 25  1  0
 25 26  2  0
 27 30  1  0
 27 26  1  0
 28 27  2  0
 29 28  1  0
 29 24  2  0
 30 31  1  0
 31 32  1  0
 32 33  2  0
 34 33  1  0
 34 38  1  0
 35 34  2  0
 36 31  2  0
 36 35  1  0
 37 36  1  0
 39 40  1  0
 40 43  1  0
 40 42  1  0
 41 39  2  0
 44 45  1  0
 44 19  1  0
 46 44  1  0
 47  8  1  0
 49 47  1  0
 49 48  1  0
 50 51  1  0
 51 49  1  0
 53 52  1  0
 54 53  1  0
 54 55  1  0
 55 56  1  0
 56 58  1  0
 56 59  1  0
 57 56  1  0
 59 60  1  0
 61 63  1  0
 61 60  1  0
 62 73  2  0
 63 68  1  0
 64 72  1  0
 64 74  1  0
 65 71  1  0
 65 67  1  0
 66 72  1  0
 67 66  1  0
 68 67  2  0
 69 70  1  0
 69 63  2  0
 70 65  2  0
 71 64  1  0
 72 62  1  0
 74 76  2  0
 75 74  1  0
 77 75  1  0
 78 87  2  0
 78 83  1  0
 79 75  1  0
 79 83  1  0
 80 79  1  0
 81 82  1  0
 81 80  1  0
 82 78  1  0
 83 84  2  0
 84 85  1  0
 86 85  2  0
 87 86  1  0
 88 62  1  0
 88 89  1  0
 88 98  1  0
 89 92  1  0
 90 94  1  0
 90 89  1  0
 91 90  2  0
 94 93  1  0
 96 94  1  0
 96 97  1  0
 96 95  1  0
 98101  1  1
 98 99  1  0
100 98  1  0
M  ISO  4   9 100  17 100  60 101  61 101
M  END
>  <TORSDO>  (91) 
F 31

>  <SCORE>  (91) 
-10.399

>  <name>  (91) 
91

>  <ligand_id>  (91) 
91

>  <original_smiles>  (91) 
[H]c1c([H])c([H])c2c(c1[H])C([H])([H])C([H])([H])C([H])([H])C2([H])N([H])C(=O)C1([H])N(C(=O)C([H])(N([H])C(=O)C([H])(N([H])C([H])([H])[H])C([H])([H])[H])C(C([H])([H])[H])(C([H])([H])[H])C([H])([H])[H])C([H])([H])c2c([H])c(OC([H])([H])C([H])([H])[N+]([H])([H])C([H])([H])C([H])([H])C([H])([H])C([H])([H])C([H])([H])[N+]([H])(C([H])([H])C([H])([H])C([H])([H])[H])C([H])([H])C([H])(N([H])C(=O)N3C([H])([H])C([H])([H])C([H])([H])C([H])(n4nc(-c5c([H])c([H])c(Oc6c([H])c([H])c(F)c([H])c6F)c([H])c5[H])c(C(=O)N([H])[H])c4N([H])[H])C3([H])[H])C([H])([H])C([H])(C([H])([H])[H])C([H])([H])C([H])([H])[H])c([H])c([H])c2C1([H])[H]

>  <smiles>  (91) 
[H]c1c([H])c([H])c2c(c1[H])C([H])([H])C([H])([H])C([H])([H])C2([H])N([H])C(=O)C1([H])N(C(=O)C([H])(N([H])C(=O)C([H])(N([H])C([H])([H])[H])C([H])([H])[H])C(C([H])([H])[H])(C([H])([H])[H])C([H])([H])[H])C([H])([H])c2c([H])c(OC([H])([H])C([H])([H])[N+]([H])([H])C([H])([H])C([H])([H])C([H])([H])C([H])([H])C([H])([H])[N+]([H])(C([H])([H])C([H])([H])C([H])([H])[H])C([H])([H])C([H])(N([H])C(=O)N3C([H])([H])C([H])([H])C([H])([H])C([H])(n4nc(-c5c([H])c([H])c(Oc6c([H])c([H])c(F)c([H])c6F)c([H])c5[H])c(C(=O)N([H])[H])c4N([H])[H])C3([H])[H])C([H])([H])C([H])(C([H])([H])[H])C([H])([H])C([H])([H])[H])c([H])c([H])c2C1([H])[H]

$$$$
92:0:0
     RDKit          3D

 97102  0  0  1  0  0  0  0  0999 V2000
  -23.6510  -29.9760   24.4760 C   0  0  0  0  0  2  0  0  0  0  0  0
  -22.6760  -28.3610   25.3600 C   0  0  0  0  0  2  0  0  0  0  0  0
  -22.2410  -30.4110   23.3520 C   0  0  0  0  0  3  0  0  0  0  0  0
  -21.4550  -29.1140   24.4210 C   0  0  0  0  0  3  0  0  0  0  0  0
  -24.1270  -28.6140   25.0390 N   0  0  0  0  0  0  0  0  0  0  0  0
  -21.3580  -29.3270   22.5850 N   0  0  0  0  0  0  0  0  0  0  0  0
  -20.4460  -29.7390   22.4210 H   0  0  0  0  0  0  0  0  0  0  0  0
  -25.2480  -27.4280   24.6310 C   0  0  0  0  0  2  0  0  0  0  0  0
  -26.7330  -27.1750   23.5210 C   0  0  0  0  0  2  0  0  0  0  0  0
  -27.2040  -26.7220   21.9740 O   0  0  0  0  0  0  0  0  0  0  0  0
  -24.7650  -32.0020   22.9040 C   0  0  0  0  0  0  0  0  0  0  0  0
  -27.0130  -27.4400   20.7840 C   0  0  0  0  0  0  0  0  0  0  0  0
  -23.6870  -29.8370   21.4270 C   0  0  0  0  0  3  0  0  0  0  0  0
  -25.2000  -29.1800   19.6360 C   0  0  0  0  0  0  0  0  0  0  0  0
  -26.0400  -30.9250   21.2390 C   0  0  0  0  0  2  0  0  0  0  0  0
  -26.2400  -29.6600   20.4530 C   0  0  0  0  0  0  0  0  0  0  0  0
  -27.2330  -28.7990   20.9140 C   0  0  0  0  0  3  0  0  0  0  0  0
  -26.1650  -26.9480   19.7560 C   0  0  0  0  0  3  0  0  0  0  0  0
  -25.1980  -27.8260   19.2140 C   0  0  0  0  0  3  0  0  0  0  0  0
  -23.8860  -29.9330   19.8760 C   0  0  0  0  0  2  0  0  0  0  0  0
  -24.7820  -30.9190   21.9680 N   0  0  0  0  0  0  0  0  0  0  0  0
  -23.7350  -32.5350   23.3350 O   0  0  0  0  0  0  0  0  0  0  0  0
  -23.6660  -28.3530   22.3330 C   0  0  0  0  0  0  0  0  0  0  0  0
  -22.6040  -27.3700   23.0310 N   0  0  0  0  0  0  0  0  0  0  0  0
  -24.7540  -28.1390   22.4140 O   0  0  0  0  0  0  0  0  0  0  0  0
  -23.1330  -26.6490   23.5040 H   0  0  0  0  0  0  0  0  0  0  0  0
  -17.9830  -27.7540   22.7720 C   0  0  0  0  0  0  0  0  0  0  0  0
  -20.7550  -27.0890   23.2600 C   0  0  0  0  0  3  0  0  0  0  0  0
  -20.3520  -25.8930   22.4740 C   0  0  0  0  0  2  0  0  0  0  0  0
  -19.2210  -25.9580   21.4460 C   0  0  0  0  0  2  0  0  0  0  0  0
  -17.9220  -26.4540   22.0450 C   0  0  0  0  0  2  0  0  0  0  0  0
  -19.2270  -28.1940   23.2920 C   0  0  0  0  0  0  0  0  0  0  0  0
  -18.9490  -29.6090   23.7470 C   0  0  0  0  0  3  0  0  0  0  0  0
  -17.7350  -30.3030   23.9070 C   0  0  0  0  0  3  0  0  0  0  0  0
  -16.5670  -29.6740   23.5290 C   0  0  0  0  0  3  0  0  0  0  0  0
  -16.7230  -28.4250   22.9060 C   0  0  0  0  0  3  0  0  0  0  0  0
  -26.0290  -32.5170   23.7360 C   0  0  0  0  0  3  0  0  0  0  0  0
  -25.7120  -33.8780   24.1930 N   0  0  0  0  0  0  0  0  0  0  0  0
  -25.9480  -34.9760   23.4770 C   0  0  0  0  0  0  0  0  0  0  0  0
  -26.5620  -34.9390   22.4080 O   0  0  0  0  0  0  0  0  0  0  0  0
  -25.1500  -33.9630   25.0260 H   0  0  0  0  0  0  0  0  0  0  0  0
  -24.1610  -36.7140   23.2680 C   0  0  0  0  0  1  0  0  0  0  0  0
  -25.4310  -36.3100   24.0330 C   0  0  0  0  0  3  0  0  0  0  0  0
  -27.5670  -37.1760   24.8510 C   0  0  0  0  0  1  0  0  0  0  0  0
  -26.4360  -37.3900   23.9530 N   0  0  0  0  0  0  0  0  0  0  0  0
  -26.0120  -38.2870   24.1660 H   0  0  0  0  0  0  0  0  0  0  0  0
  -26.5040  -31.7060   25.0460 C   0  0  1  0  0  0  0  0  0  0  0  0
  -25.4740  -31.5900   26.2100 C   0  0  0  0  0  1  0  0  0  0  0  0
  -27.0820  -30.3230   24.6750 C   0  0  0  0  0  1  0  0  0  0  0  0
  -27.6950  -32.4400   25.6900 C   0  0  0  0  0  1  0  0  0  0  0  0
  -21.5960  -27.8560   21.0050 C   0  0  0  0  0 15  0  0  0  0  0  0
  -23.0030  -25.9220   20.7180 C   0  0  0  0  0 15  0  0  0  0  0  0
  -23.8170  -23.7470   20.9680 C   0  0  0  0  0 15  0  0  0  0  0  0
  -29.1970  -16.3560   20.4070 C   0  0  0  0  0  0  0  0  0  0  0  0
  -30.1310  -13.7540   19.5880 C   0  0  0  0  0  2  0  0  0  0  0  0
  -29.4870  -12.8810   18.4400 C   0  0  0  0  0  2  0  0  0  0  0  0
  -28.1550  -12.2760   18.8820 C   0  0  0  0  0  2  0  0  0  0  0  0
  -27.4580  -13.2940   19.7940 C   0  0  0  0  0  3  0  0  0  0  0  0
  -28.3040  -13.8320   20.9520 C   0  0  0  0  0  2  0  0  0  0  0  0
  -29.1520  -14.8190   20.2800 N   0  0  0  0  0  0  0  0  0  0  0  0
  -30.4770  -16.3840   20.2590 O   0  0  0  0  0  0  0  0  0  0  0  0
  -27.2300  -20.5330   19.2970 C   0  0  0  0  0  2  0  0  0  0  0  0
  -28.3600  -19.2580   19.8310 C   0  0  0  0  0  2  0  0  0  0  0  0
  -26.7730  -18.8240   21.1960 C   0  0  0  0  0  1  0  0  0  0  0  0
  -26.5160  -22.0720   19.8660 C   0  0  0  0  0  2  0  0  0  0  0  0
  -25.3960  -20.4170   21.0320 C   0  0  0  0  0  1  0  0  0  0  0  0
  -28.0930  -17.7600   20.3890 N   0  0  0  0  0  0  0  0  0  0  0  0
  -25.2180  -22.2390   20.7890 N   0  0  0  0  0  0  0  0  0  0  0  0
  -25.6780  -22.5050   21.6460 H   0  0  0  0  0  0  0  0  0  0  0  0
  -25.1650  -13.8100   20.5730 C   0  0  0  0  0  0  0  0  0  0  0  0
  -24.1200  -13.0300   20.9360 C   0  0  0  0  0  0  0  0  0  0  0  0
  -24.5940  -11.6800   20.8860 C   0  0  0  0  0  0  0  0  0  0  0  0
  -26.1810  -12.9270   20.2880 N   0  0  0  0  0  0  0  0  0  0  0  0
  -25.8760  -11.6420   20.5580 N   0  0  0  0  0  0  0  0  0  0  0  0
  -23.8800  -10.4180   21.0500 C   0  0  0  0  0  0  0  0  0  0  0  0
  -24.3460   -9.4120   21.9240 C   0  0  0  0  0  3  0  0  0  0  0  0
  -23.6210   -8.2130   22.0750 C   0  0  0  0  0  3  0  0  0  0  0  0
  -22.4190   -8.0160   21.3530 C   0  0  0  0  0  0  0  0  0  0  0  0
  -21.9780   -9.0110   20.4630 C   0  0  0  0  0  3  0  0  0  0  0  0
  -22.7030  -10.2010   20.3080 C   0  0  0  0  0  3  0  0  0  0  0  0
  -21.6590   -6.8770   21.4220 O   0  0  0  0  0  0  0  0  0  0  0  0
  -21.6820   -6.0670   22.5280 C   0  0  0  0  0  0  0  0  0  0  0  0
  -21.3980   -6.5600   23.8200 C   0  0  0  0  0  3  0  0  0  0  0  0
  -21.3650   -5.6770   24.9180 C   0  0  0  0  0  3  0  0  0  0  0  0
  -21.6050   -4.3030   24.7240 C   0  0  0  0  0  0  0  0  0  0  0  0
  -21.8820   -3.8110   23.4370 C   0  0  0  0  0  3  0  0  0  0  0  0
  -21.9180   -4.6910   22.3420 C   0  0  0  0  0  0  0  0  0  0  0  0
  -22.1660   -4.2100   21.1000 F   0  0  0  0  0  0  0  0  0  0  0  0
  -21.5640   -3.4530   25.7770 F   0  0  0  0  0  0  0  0  0  0  0  0
  -22.7290  -13.5050   21.2050 C   0  0  0  0  0  0  0  0  0  0  0  0
  -22.0000  -12.8080   22.0630 N   0  0  0  0  0  0  0  0  0  0  0  0
  -22.3050  -14.5410   20.6900 O   0  0  0  0  0  0  0  0  0  0  0  0
  -22.3630  -11.9710   22.4970 H   0  0  0  0  0  0  0  0  0  0  0  0
  -21.0620  -13.1080   22.2900 H   0  0  0  0  0  0  0  0  0  0  0  0
  -25.3420  -15.1880   20.4170 N   0  0  0  0  0  0  0  0  0  0  0  0
  -24.5740  -15.8390   20.5250 H   0  0  0  0  0  0  0  0  0  0  0  0
  -26.1660  -15.6100   20.0150 H   0  0  0  0  0  0  0  0  0  0  0  0
  1  5  1  0
  3  4  1  0
  3  1  1  0
  4  2  1  0
  5  2  1  0
  6  3  1  0
  6  4  1  0
  7  6  1  0
  8  5  1  0
  9  8  1  0
 10  9  1  0
 11 22  2  0
 12 17  1  0
 12 10  1  0
 13 21  1  0
 13 23  1  0
 14 20  1  0
 14 16  1  0
 15 21  1  0
 16 17  2  0
 16 15  1  0
 18 12  2  0
 19 14  2  0
 19 18  1  0
 20 13  1  0
 21 11  1  0
 23 25  2  0
 23 24  1  0
 24 26  1  0
 27 36  2  0
 27 32  1  0
 28 24  1  0
 28 32  1  0
 29 28  1  0
 30 31  1  0
 30 29  1  0
 31 27  1  0
 32 33  2  0
 33 34  1  0
 35 34  2  0
 36 35  1  0
 37 11  1  0
 37 38  1  0
 37 47  1  0
 38 41  1  0
 39 43  1  0
 39 38  1  0
 40 39  2  0
 43 42  1  0
 45 43  1  0
 45 46  1  0
 45 44  1  0
 47 50  1  1
 47 48  1  0
 49 47  1  0
 55 60  1  0
 56 57  1  0
 56 55  1  0
 58 57  1  0
 58 73  1  0
 58 59  1  0
 60 54  1  0
 60 59  1  0
 61 54  2  0
 62 63  1  0
 62 65  1  0
 63 67  1  0
 65 68  1  0
 67 54  1  0
 67 64  1  0
 68 66  1  0
 68 69  1  0
 70 71  2  0
 71 90  1  0
 72 71  1  0
 72 75  1  0
 73 74  1  0
 73 70  1  0
 74 72  2  0
 75 76  1  0
 76 77  2  0
 78 81  1  0
 78 77  1  0
 79 78  2  0
 80 79  1  0
 80 75  2  0
 81 82  1  0
 82 83  1  0
 83 84  2  0
 85 84  1  0
 85 89  1  0
 86 85  2  0
 87 82  2  0
 87 86  1  0
 88 87  1  0
 90 91  1  0
 91 94  1  0
 91 93  1  0
 92 90  2  0
 95 96  1  0
 95 70  1  0
 97 95  1  0
M  ISO  4   9 101  10 101  54 100  67 100
M  END
>  <TORSDO>  (92) 
F 21

>  <SCORE>  (92) 
-2.979

>  <name>  (92) 
92

>  <ligand_id>  (92) 
92

>  <original_smiles>  (92) 
[H]c1c([H])c([H])c2c(c1[H])C([H])([H])C([H])([H])C([H])([H])C2([H])N([H])C(=O)C1([H])N(C(=O)C([H])(N([H])C(=O)C([H])(N([H])C([H])([H])[H])C([H])([H])[H])C(C([H])([H])[H])(C([H])([H])[H])C([H])([H])[H])C([H])([H])c2c([H])c(OC([H])([H])C([H])([H])N3C([H])([H])C([H])([H])[N+]([H])(C([H])([H])C([H])([H])C([H])([H])[N+]4([H])C([H])([H])C([H])([H])N(C(=O)N5C([H])([H])C([H])([H])C([H])([H])C([H])(n6nc(-c7c([H])c([H])c(Oc8c([H])c([H])c(F)c([H])c8F)c([H])c7[H])c(C(=O)N([H])[H])c6N([H])[H])C5([H])[H])C([H])([H])C([H])([H])C4([H])[H])C([H])([H])C3([H])[H])c([H])c([H])c2C1([H])[H]

>  <smiles>  (92) 
[H]c1c([H])c([H])c2c(c1[H])C([H])([H])C([H])([H])C([H])([H])C2([H])N([H])C(=O)C1([H])N(C(=O)C([H])(N([H])C(=O)C([H])(N([H])C([H])([H])[H])C([H])([H])[H])C(C([H])([H])[H])(C([H])([H])[H])C([H])([H])[H])C([H])([H])c2c([H])c(OC([H])([H])C([H])([H])N3C([H])([H])C([H])([H])[N+]([H])(C([H])([H])C([H])([H])C([H])([H])[N+]4([H])C([H])([H])C([H])([H])N(C(=O)N5C([H])([H])C([H])([H])C([H])([H])C([H])(n6nc(-c7c([H])c([H])c(Oc8c([H])c([H])c(F)c([H])c8F)c([H])c7[H])c(C(=O)N([H])[H])c6N([H])[H])C5([H])[H])C([H])([H])C([H])([H])C4([H])[H])C([H])([H])C3([H])[H])c([H])c([H])c2C1([H])[H]

$$$$
93:0:0
     RDKit          3D

101109  0  0  1  0  0  0  0  0999 V2000
  -27.5400  -18.8760   19.1040 C   0  0  0  0  0  2  0  0  0  0  0  0
  -28.1060  -20.2540   18.7260 C   0  0  0  0  0  2  0  0  0  0  0  0
  -28.1160  -18.5700   20.4960 C   0  0  0  0  0  2  0  0  0  0  0  0
  -29.1350  -20.6400   19.8220 C   0  0  0  0  0  3  0  0  0  0  0  0
  -29.3430  -19.3800   20.6340 N   0  0  2  0  0  4  0  0  0  0  0  0
  -29.2900  -19.7680   21.5680 H   0  0  0  0  0  0  0  0  0  0  0  0
  -28.5600  -21.8180   20.6740 C   0  0  0  0  0  0  0  0  0  0  0  0
  -28.4240  -23.0480   20.1060 N   0  0  0  0  0  0  0  0  0  0  0  0
  -28.2080  -21.5930   21.8390 O   0  0  0  0  0  0  0  0  0  0  0  0
  -28.7830  -23.1590   19.1660 H   0  0  0  0  0  0  0  0  0  0  0  0
  -27.6110  -24.1840   20.6150 C   0  0  0  0  0  2  0  0  0  0  0  0
  -28.3420  -25.5500   20.8950 C   0  0  0  0  0  2  0  0  0  0  0  0
  -28.2540  -26.6560   19.9530 O   0  0  0  0  0  0  0  0  0  0  0  0
  -24.5640  -31.8950   23.2040 C   0  0  0  0  0  0  0  0  0  0  0  0
  -27.1250  -27.4500   20.0170 C   0  0  0  0  0  0  0  0  0  0  0  0
  -23.3300  -30.5250   21.5570 C   0  0  0  0  0  3  0  0  0  0  0  0
  -24.7490  -29.0000   20.0830 C   0  0  0  0  0  0  0  0  0  0  0  0
  -25.8520  -30.8600   21.3310 C   0  0  0  0  0  2  0  0  0  0  0  0
  -25.9210  -29.4920   20.6780 C   0  0  0  0  0  0  0  0  0  0  0  0
  -27.1090  -28.7200   20.6590 C   0  0  0  0  0  3  0  0  0  0  0  0
  -25.9550  -27.0070   19.3790 C   0  0  0  0  0  3  0  0  0  0  0  0
  -24.7660  -27.7560   19.4320 C   0  0  0  0  0  3  0  0  0  0  0  0
  -23.5210  -29.8750   20.1580 C   0  0  0  0  0  2  0  0  0  0  0  0
  -24.6020  -31.1080   22.0890 N   0  0  0  0  0  0  0  0  0  0  0  0
  -23.4930  -32.1610   23.7650 O   0  0  0  0  0  0  0  0  0  0  0  0
  -22.6880  -29.4880   22.5090 C   0  0  0  0  0  0  0  0  0  0  0  0
  -21.3630  -29.3030   22.3950 N   0  0  0  0  0  0  0  0  0  0  0  0
  -23.3840  -28.8470   23.3030 O   0  0  0  0  0  0  0  0  0  0  0  0
  -20.8550  -29.8730   21.7300 H   0  0  0  0  0  0  0  0  0  0  0  0
  -18.0040  -28.0780   22.9200 C   0  0  0  0  0  0  0  0  0  0  0  0
  -20.5630  -28.3480   23.1610 C   0  0  0  0  0  3  0  0  0  0  0  0
  -20.6680  -26.9260   22.5620 C   0  0  0  0  0  2  0  0  0  0  0  0
  -19.5520  -26.6110   21.5610 C   0  0  0  0  0  2  0  0  0  0  0  0
  -18.1770  -26.7390   22.2220 C   0  0  0  0  0  2  0  0  0  0  0  0
  -19.1250  -28.8400   23.3440 C   0  0  0  0  0  0  0  0  0  0  0  0
  -18.9050  -30.0950   23.9520 C   0  0  0  0  0  3  0  0  0  0  0  0
  -17.6000  -30.5840   24.1470 C   0  0  0  0  0  3  0  0  0  0  0  0
  -16.4930  -29.8210   23.7310 C   0  0  0  0  0  3  0  0  0  0  0  0
  -16.6990  -28.5710   23.1200 C   0  0  0  0  0  3  0  0  0  0  0  0
  -25.8600  -32.5180   23.8060 C   0  0  0  0  0  3  0  0  0  0  0  0
  -26.3910  -31.7370   25.0700 C   0  0  1  0  0  0  0  0  0  0  0  0
  -25.3130  -31.5020   26.1520 C   0  0  0  0  0  1  0  0  0  0  0  0
  -26.9610  -30.3580   24.6600 C   0  0  0  0  0  1  0  0  0  0  0  0
  -27.5500  -32.5230   25.7270 C   0  0  0  0  0  1  0  0  0  0  0  0
  -25.5640  -33.9160   24.1490 N   0  0  0  0  0  0  0  0  0  0  0  0
  -25.8890  -34.9730   23.3930 C   0  0  0  0  0  0  0  0  0  0  0  0
  -26.5500  -34.8730   22.3560 O   0  0  0  0  0  0  0  0  0  0  0  0
  -25.0070  -34.0720   24.9770 H   0  0  0  0  0  0  0  0  0  0  0  0
  -24.1850  -36.7850   23.0390 C   0  0  0  0  0  1  0  0  0  0  0  0
  -25.4130  -36.3620   23.8650 C   0  0  0  0  0  3  0  0  0  0  0  0
  -27.5520  -37.2140   24.7220 C   0  0  0  0  0  1  0  0  0  0  0  0
  -26.4570  -37.4060   23.7740 N   0  0  0  0  0  0  0  0  0  0  0  0
  -26.0620  -38.3300   23.9220 H   0  0  0  0  0  0  0  0  0  0  0  0
  -30.6740  -18.6140   20.6440 C   0  0  0  0  0  3  0  0  0  0  0  0
  -31.9130  -19.5290   20.3110 C   0  0  0  0  0  2  0  0  0  0  0  0
  -33.2680  -21.6650   20.7690 C   0  0  0  0  0  1  0  0  0  0  0  0
  -32.2240  -20.6720   21.3070 C   0  0  0  0  0  2  0  0  0  0  0  0
  -30.8090  -17.1910   19.8920 C   0  0  0  0  0  0  0  0  0  0  0  0
  -30.9140  -14.7060   20.4150 C   0  0  0  0  0  0  0  0  0  0  0  0
  -30.5510  -12.5070   19.3690 C   0  0  0  0  0  2  0  0  0  0  0  0
  -29.6350  -12.6360   18.1340 C   0  0  0  0  0  2  0  0  0  0  0  0
  -28.1530  -12.5370   18.5480 C   0  0  0  0  0  2  0  0  0  0  0  0
  -27.7910  -13.4140   19.7800 C   0  0  0  0  0  3  0  0  0  0  0  0
  -28.8500  -13.2970   20.9030 C   0  0  0  0  0  2  0  0  0  0  0  0
  -30.1710  -13.5660   20.3250 N   0  0  0  0  0  0  0  0  0  0  0  0
  -32.0880  -14.7240   20.0440 O   0  0  0  0  0  0  0  0  0  0  0  0
  -30.2740  -15.9100   20.5060 N   0  0  0  0  0  4  0  0  0  0  0  0
  -29.3010  -15.8860   20.7660 H   0  0  0  0  0  0  0  0  0  0  0  0
  -25.3840  -13.9940   20.4680 C   0  0  0  0  0  0  0  0  0  0  0  0
  -24.3140  -13.2200   20.8310 C   0  0  0  0  0  0  0  0  0  0  0  0
  -24.7810  -11.8710   20.8220 C   0  0  0  0  0  0  0  0  0  0  0  0
  -26.4390  -13.1220   20.2630 N   0  0  0  0  0  0  0  0  0  0  0  0
  -26.0820  -11.8390   20.5370 N   0  0  0  0  0  0  0  0  0  0  0  0
  -24.0580  -10.6070   21.0100 C   0  0  0  0  0  0  0  0  0  0  0  0
  -24.4740   -9.6500   21.9590 C   0  0  0  0  0  3  0  0  0  0  0  0
  -23.7500   -8.4510   22.1370 C   0  0  0  0  0  3  0  0  0  0  0  0
  -22.5930   -8.2000   21.3620 C   0  0  0  0  0  0  0  0  0  0  0  0
  -22.1900   -9.1460   20.4050 C   0  0  0  0  0  3  0  0  0  0  0  0
  -22.9170  -10.3380   20.2270 C   0  0  0  0  0  3  0  0  0  0  0  0
  -21.8380   -7.0540   21.4450 O   0  0  0  0  0  0  0  0  0  0  0  0
  -21.7630   -6.3260   22.6080 C   0  0  0  0  0  0  0  0  0  0  0  0
  -21.3020   -6.8920   23.8140 C   0  0  0  0  0  3  0  0  0  0  0  0
  -21.1800   -6.0910   24.9680 C   0  0  0  0  0  3  0  0  0  0  0  0
  -21.5030   -4.7210   24.9120 C   0  0  0  0  0  0  0  0  0  0  0  0
  -21.9590   -4.1550   23.7070 C   0  0  0  0  0  3  0  0  0  0  0  0
  -22.0850   -4.9550   22.5590 C   0  0  0  0  0  0  0  0  0  0  0  0
  -22.5020   -4.3970   21.3960 F   0  0  0  0  0  0  0  0  0  0  0  0
  -21.3820   -3.9510   26.0170 F   0  0  0  0  0  0  0  0  0  0  0  0
  -22.9060  -13.6940   21.0650 C   0  0  0  0  0  0  0  0  0  0  0  0
  -22.1560  -13.0160   21.9250 N   0  0  0  0  0  0  0  0  0  0  0  0
  -22.4780  -14.7070   20.5220 O   0  0  0  0  0  0  0  0  0  0  0  0
  -22.5030  -12.1940   22.3960 H   0  0  0  0  0  0  0  0  0  0  0  0
  -21.2150  -13.3270   22.1180 H   0  0  0  0  0  0  0  0  0  0  0  0
  -25.5440  -15.3610   20.2600 N   0  0  0  0  0  0  0  0  0  0  0  0
  -24.7520  -15.9940   20.2680 H   0  0  0  0  0  0  0  0  0  0  0  0
  -26.3630  -15.7580   19.8180 H   0  0  0  0  0  0  0  0  0  0  0  0
  -30.5180  -17.1850   18.3680 C   0  0  0  0  0  2  0  0  0  0  0  0
  -31.4590  -16.3480   17.5940 N   0  0  0  0  0  4  0  0  0  0  0  0
  -32.2890  -16.8580   17.3520 H   0  0  0  0  0  0  0  0  0  0  0  0
  -31.0180  -16.0390   16.7420 H   0  0  0  0  0  0  0  0  0  0  0  0
  -31.7450  -15.5380   18.1240 H   0  0  0  0  0  0  0  0  0  0  0  0
  1  3  1  0
  2  1  1  0
  2  4  1  0
  3  5  1  0
  4  5  1  0
  4  7  1  0
  5 54  1  0
  5  6  1  1
  7  9  2  0
  8 11  1  0
  8  7  1  0
 10  8  1  0
 11 12  1  0
 13 15  1  0
 13 12  1  0
 14 25  2  0
 15 20  1  0
 16 24  1  0
 16 26  1  0
 17 23  1  0
 17 19  1  0
 18 24  1  0
 19 18  1  0
 20 19  2  0
 21 22  1  0
 21 15  2  0
 22 17  2  0
 23 16  1  0
 24 14  1  0
 26 28  2  0
 27 26  1  0
 29 27  1  0
 30 39  2  0
 30 35  1  0
 31 27  1  0
 31 35  1  0
 32 31  1  0
 33 34  1  0
 33 32  1  0
 34 30  1  0
 35 36  2  0
 36 37  1  0
 38 37  2  0
 39 38  1  0
 40 14  1  0
 40 45  1  0
 40 41  1  0
 41 44  1  1
 41 42  1  0
 43 41  1  0
 45 48  1  0
 46 50  1  0
 46 45  1  0
 47 46  2  0
 50 49  1  0
 52 50  1  0
 52 53  1  0
 52 51  1  0
 54 55  1  0
 55 57  1  0
 56 57  1  0
 58 67  2  3
 58 54  1  0
 59 67  1  0
 60 65  1  0
 61 62  1  0
 61 60  1  0
 63 62  1  0
 63 72  1  0
 63 64  1  0
 65 59  1  0
 65 64  1  0
 66 59  2  0
 67 68  1  0
 69 70  2  0
 70 89  1  0
 71 70  1  0
 71 74  1  0
 72 69  1  0
 72 73  1  0
 73 71  2  0
 74 75  1  0
 75 76  2  0
 77 80  1  0
 77 76  1  0
 78 77  2  0
 79 78  1  0
 79 74  2  0
 80 81  1  0
 81 82  1  0
 82 83  2  0
 84 83  1  0
 84 88  1  0
 85 84  2  0
 86 81  2  0
 86 85  1  0
 87 86  1  0
 89 90  1  0
 90 93  1  0
 90 92  1  0
 91 89  2  0
 94 95  1  0
 94 69  1  0
 96 94  1  0
 97 58  1  0
 98101  1  0
 98 97  1  0
 99 98  1  0
100 98  1  0
M  ISO  4  12 101  13 101  59 100  67 100
M  END
>  <TORSDO>  (93) 
F 25

>  <SCORE>  (93) 
-12.789

>  <name>  (93) 
93

>  <ligand_id>  (93) 
93

>  <original_smiles>  (93) 
[H]c1c([H])c([H])c2c(c1[H])C([H])([H])C([H])([H])C([H])([H])C2([H])N([H])C(=O)C1([H])N(C(=O)C([H])(N([H])C(=O)C([H])(N([H])C([H])([H])[H])C([H])([H])[H])C(C([H])([H])[H])(C([H])([H])[H])C([H])([H])[H])C([H])([H])c2c([H])c(OC([H])([H])C([H])([H])N([H])C(=O)C3([H])C([H])([H])C([H])([H])C([H])([H])[N+]3([H])C([H])(C([H])([H])C([H])([H])C([H])([H])[H])C([H])(N([H])C(=O)N3C([H])([H])C([H])([H])C([H])([H])C([H])(n4nc(-c5c([H])c([H])c(Oc6c([H])c([H])c(F)c([H])c6F)c([H])c5[H])c(C(=O)N([H])[H])c4N([H])[H])C3([H])[H])C([H])([H])[N+]([H])([H])[H])c([H])c([H])c2C1([H])[H]

>  <smiles>  (93) 
[H]c1c([H])c([H])c2c(c1[H])C([H])([H])C([H])([H])C([H])([H])C2([H])N([H])C(=O)C1([H])N(C(=O)C([H])(N([H])C(=O)C([H])(N([H])C([H])([H])[H])C([H])([H])[H])C(C([H])([H])[H])(C([H])([H])[H])C([H])([H])[H])C([H])([H])c2c([H])c(OC([H])([H])C([H])([H])N([H])C(=O)C3([H])C([H])([H])C([H])([H])C([H])([H])[N+]3([H])C([H])(C([H])([H])C([H])([H])C([H])([H])[H])C([H])(N([H])C(=O)N3C([H])([H])C([H])([H])C([H])([H])C([H])(n4nc(-c5c([H])c([H])c(Oc6c([H])c([H])c(F)c([H])c6F)c([H])c5[H])c(C(=O)N([H])[H])c4N([H])[H])C3([H])[H])C([H])([H])[N+]([H])([H])[H])c([H])c([H])c2C1([H])[H]

$$$$
94:0:0
     RDKit          3D

 97105  0  0  1  0  0  0  0  0999 V2000
  -30.3890  -20.8730   20.3020 C   0  0  0  0  0  2  0  0  0  0  0  0
  -27.7390  -21.5970   20.2790 C   0  0  0  0  0  2  0  0  0  0  0  0
  -28.6770  -22.9130   20.5050 C   0  0  0  0  0  3  0  0  0  0  0  0
  -29.4380  -19.5650   20.1290 C   0  0  0  0  0  3  0  0  0  0  0  0
  -29.9490  -22.3130   19.9140 N   0  0  0  0  0  0  0  0  0  0  0  0
  -28.1980  -20.1820   20.7580 N   0  0  0  0  0  4  0  0  0  0  0  0
  -27.4330  -19.5460   20.6090 H   0  0  0  0  0  0  0  0  0  0  0  0
  -28.3450  -20.2410   21.7510 H   0  0  0  0  0  0  0  0  0  0  0  0
  -28.0310  -24.4870   20.0020 C   0  0  0  0  0  2  0  0  0  0  0  0
  -28.2400  -26.0410   20.3790 O   0  0  0  0  0  0  0  0  0  0  0  0
  -24.6410  -31.9040   23.2830 C   0  0  0  0  0  0  0  0  0  0  0  0
  -27.2160  -27.0960   20.2770 C   0  0  0  0  0  0  0  0  0  0  0  0
  -23.4520  -30.5140   21.6340 C   0  0  0  0  0  3  0  0  0  0  0  0
  -24.9070  -28.9230   20.2140 C   0  0  0  0  0  0  0  0  0  0  0  0
  -26.0150  -30.7430   21.4940 C   0  0  0  0  0  2  0  0  0  0  0  0
  -26.0860  -29.3420   20.8420 C   0  0  0  0  0  0  0  0  0  0  0  0
  -27.2360  -28.4470   20.8560 C   0  0  0  0  0  3  0  0  0  0  0  0
  -26.0140  -26.8140   19.5900 C   0  0  0  0  0  3  0  0  0  0  0  0
  -24.8900  -27.6760   19.5700 C   0  0  0  0  0  3  0  0  0  0  0  0
  -23.6850  -29.8350   20.2570 C   0  0  0  0  0  2  0  0  0  0  0  0
  -24.7240  -31.0810   22.1910 N   0  0  0  0  0  0  0  0  0  0  0  0
  -23.5510  -32.1910   23.8020 O   0  0  0  0  0  0  0  0  0  0  0  0
  -22.7560  -29.5150   22.5930 C   0  0  0  0  0  0  0  0  0  0  0  0
  -21.4280  -29.3440   22.4580 N   0  0  0  0  0  0  0  0  0  0  0  0
  -23.4190  -28.8910   23.4270 O   0  0  0  0  0  0  0  0  0  0  0  0
  -20.9460  -29.9020   21.7650 H   0  0  0  0  0  0  0  0  0  0  0  0
  -18.0450  -28.1320   22.9360 C   0  0  0  0  0  0  0  0  0  0  0  0
  -20.6020  -28.4080   23.2250 C   0  0  0  0  0  3  0  0  0  0  0  0
  -20.7140  -26.9740   22.6590 C   0  0  0  0  0  2  0  0  0  0  0  0
  -19.6240  -26.6410   21.6360 C   0  0  0  0  0  2  0  0  0  0  0  0
  -18.2340  -26.7830   22.2630 C   0  0  0  0  0  2  0  0  0  0  0  0
  -19.1560  -28.9020   23.3740 C   0  0  0  0  0  0  0  0  0  0  0  0
  -18.9220  -30.1630   23.9630 C   0  0  0  0  0  3  0  0  0  0  0  0
  -17.6130  -30.6550   24.1180 C   0  0  0  0  0  3  0  0  0  0  0  0
  -16.5180  -29.8840   23.6950 C   0  0  0  0  0  3  0  0  0  0  0  0
  -16.7340  -28.6240   23.1090 C   0  0  0  0  0  3  0  0  0  0  0  0
  -25.9120  -32.5430   23.9220 C   0  0  0  0  0  3  0  0  0  0  0  0
  -26.3980  -31.7920   25.2230 C   0  0  1  0  0  0  0  0  0  0  0  0
  -25.2810  -31.5890   26.2740 C   0  0  0  0  0  1  0  0  0  0  0  0
  -26.9750  -30.4020   24.8730 C   0  0  0  0  0  1  0  0  0  0  0  0
  -27.5390  -32.5900   25.8930 C   0  0  0  0  0  1  0  0  0  0  0  0
  -25.6060  -33.9500   24.2310 N   0  0  0  0  0  0  0  0  0  0  0  0
  -25.9410  -34.9950   23.4630 C   0  0  0  0  0  0  0  0  0  0  0  0
  -26.6030  -34.8770   22.4290 O   0  0  0  0  0  0  0  0  0  0  0  0
  -25.0290  -34.1200   25.0410 H   0  0  0  0  0  0  0  0  0  0  0  0
  -24.2140  -36.7930   23.1120 C   0  0  0  0  0  1  0  0  0  0  0  0
  -25.4650  -36.3920   23.9120 C   0  0  0  0  0  3  0  0  0  0  0  0
  -27.6090  -37.2830   24.7090 C   0  0  0  0  0  1  0  0  0  0  0  0
  -26.4970  -37.4420   23.7760 N   0  0  0  0  0  0  0  0  0  0  0  0
  -26.0920  -38.3620   23.9160 H   0  0  0  0  0  0  0  0  0  0  0  0
  -30.0900  -18.0050   20.6460 C   0  0  0  0  0  2  0  0  0  0  0  0
  -30.4440  -15.1900   20.3170 C   0  0  0  0  0  0  0  0  0  0  0  0
  -30.3670  -12.7960   19.3820 C   0  0  0  0  0  2  0  0  0  0  0  0
  -29.4340  -12.6440   18.1570 C   0  0  0  0  0  2  0  0  0  0  0  0
  -27.9850  -12.3880   18.6090 C   0  0  0  0  0  2  0  0  0  0  0  0
  -27.5490  -13.3500   19.7420 C   0  0  0  0  0  3  0  0  0  0  0  0
  -28.6020  -13.4500   20.8660 C   0  0  0  0  0  2  0  0  0  0  0  0
  -29.8460  -13.9160   20.2350 N   0  0  0  0  0  0  0  0  0  0  0  0
  -31.6650  -15.2040   20.1200 O   0  0  0  0  0  0  0  0  0  0  0  0
  -29.6940  -16.4380   20.4200 N   0  0  0  0  0  0  0  0  0  0  0  0
  -28.6980  -16.2760   20.4560 H   0  0  0  0  0  0  0  0  0  0  0  0
  -25.1740  -13.9200   20.4900 C   0  0  0  0  0  0  0  0  0  0  0  0
  -24.1130  -13.1420   20.8590 C   0  0  0  0  0  0  0  0  0  0  0  0
  -24.5820  -11.7930   20.8320 C   0  0  0  0  0  0  0  0  0  0  0  0
  -26.2190  -13.0440   20.2510 N   0  0  0  0  0  0  0  0  0  0  0  0
  -25.8730  -11.7590   20.5250 N   0  0  0  0  0  0  0  0  0  0  0  0
  -23.8570  -10.5290   21.0180 C   0  0  0  0  0  0  0  0  0  0  0  0
  -24.2820   -9.5670   21.9600 C   0  0  0  0  0  3  0  0  0  0  0  0
  -23.5570   -8.3690   22.1360 C   0  0  0  0  0  3  0  0  0  0  0  0
  -22.3910   -8.1260   21.3700 C   0  0  0  0  0  0  0  0  0  0  0  0
  -21.9870   -9.0760   20.4170 C   0  0  0  0  0  3  0  0  0  0  0  0
  -22.7140  -10.2650   20.2380 C   0  0  0  0  0  3  0  0  0  0  0  0
  -21.6380   -6.9790   21.4550 O   0  0  0  0  0  0  0  0  0  0  0  0
  -21.5700   -6.2490   22.6150 C   0  0  0  0  0  0  0  0  0  0  0  0
  -21.0960   -6.8080   23.8220 C   0  0  0  0  0  3  0  0  0  0  0  0
  -20.9770   -6.0020   24.9730 C   0  0  0  0  0  3  0  0  0  0  0  0
  -21.3210   -4.6370   24.9160 C   0  0  0  0  0  0  0  0  0  0  0  0
  -21.7880   -4.0780   23.7120 C   0  0  0  0  0  3  0  0  0  0  0  0
  -21.9100   -4.8820   22.5650 C   0  0  0  0  0  0  0  0  0  0  0  0
  -22.3400   -4.3340   21.4020 F   0  0  0  0  0  0  0  0  0  0  0  0
  -21.2010   -3.8600   26.0170 F   0  0  0  0  0  0  0  0  0  0  0  0
  -22.7140  -13.6170   21.1200 C   0  0  0  0  0  0  0  0  0  0  0  0
  -21.9820  -12.9190   21.9820 N   0  0  0  0  0  0  0  0  0  0  0  0
  -22.2790  -14.6420   20.5960 O   0  0  0  0  0  0  0  0  0  0  0  0
  -22.3500  -12.0900   22.4240 H   0  0  0  0  0  0  0  0  0  0  0  0
  -21.0410  -13.2140   22.1990 H   0  0  0  0  0  0  0  0  0  0  0  0
  -25.3350  -15.2900   20.3070 N   0  0  0  0  0  0  0  0  0  0  0  0
  -24.5560  -15.9330   20.3860 H   0  0  0  0  0  0  0  0  0  0  0  0
  -26.1670  -15.7190   19.9240 H   0  0  0  0  0  0  0  0  0  0  0  0
  -31.0070  -23.2780   20.2550 C   0  0  0  0  0  2  0  0  0  0  0  0
  -32.4200  -22.9930   19.6960 C   0  0  0  0  0  2  0  0  0  0  0  0
  -32.5160  -23.0300   18.1590 C   0  0  0  0  0  2  0  0  0  0  0  0
  -33.9630  -23.1740   17.6330 C   0  0  0  0  0  2  0  0  0  0  0  0
  -34.7920  -21.9790   17.8610 N   0  0  0  0  0  4  0  0  0  0  0  0
  -34.8270  -21.7380   18.8360 H   0  0  0  0  0  0  0  0  0  0  0  0
  -35.7340  -22.1640   17.5570 H   0  0  0  0  0  0  0  0  0  0  0  0
  -34.4490  -21.1940   17.3370 H   0  0  0  0  0  0  0  0  0  0  0  0
  2  3  1  0
  2  6  1  0
  3  9  1  0
  4  1  1  0
  4 51  1  0
  4  6  1  0
  5 90  1  0
  5  1  1  0
  5  3  1  0
  6  8  1  0
  7  6  1  0
  9 10  1  0
 11 22  2  0
 12 10  1  0
 12 17  1  0
 13 21  1  0
 13 23  1  0
 14 20  1  0
 14 16  1  0
 15 21  1  0
 16 17  2  0
 16 15  1  0
 18 12  2  0
 19 18  1  0
 19 14  2  0
 20 13  1  0
 21 11  1  0
 23 25  2  0
 24 23  1  0
 26 24  1  0
 27 36  2  0
 27 32  1  0
 28 24  1  0
 28 32  1  0
 29 28  1  0
 30 31  1  0
 30 29  1  0
 31 27  1  0
 32 33  2  0
 33 34  1  0
 35 34  2  0
 36 35  1  0
 37 11  1  0
 37 42  1  0
 37 38  1  0
 38 41  1  1
 38 39  1  0
 40 38  1  0
 42 45  1  0
 43 47  1  0
 43 42  1  0
 44 43  2  0
 47 46  1  0
 49 47  1  0
 49 50  1  0
 49 48  1  0
 52 60  1  0
 53 58  1  0
 54 55  1  0
 54 53  1  0
 56 55  1  0
 56 65  1  0
 56 57  1  0
 58 52  1  0
 58 57  1  0
 59 52  2  0
 60 61  1  0
 60 51  1  0
 62 63  2  0
 63 82  1  0
 64 63  1  0
 64 67  1  0
 65 62  1  0
 65 66  1  0
 66 64  2  0
 67 68  1  0
 68 69  2  0
 70 73  1  0
 70 69  1  0
 71 70  2  0
 72 71  1  0
 72 67  2  0
 73 74  1  0
 74 75  1  0
 75 76  2  0
 77 76  1  0
 77 81  1  0
 78 77  2  0
 79 74  2  0
 79 78  1  0
 80 79  1  0
 82 83  1  0
 83 86  1  0
 83 85  1  0
 84 82  2  0
 87 88  1  0
 87 62  1  0
 89 87  1  0
 91 90  1  0
 92 91  1  0
 93 94  1  0
 93 92  1  0
 94 95  1  0
 96 94  1  0
 97 94  1  0
M  ISO  4   9 101  10 101  52 100  60 100
M  END
>  <TORSDO>  (94) 
F 23

>  <SCORE>  (94) 
-14.119

>  <name>  (94) 
94

>  <ligand_id>  (94) 
94

>  <original_smiles>  (94) 
[H]c1c([H])c([H])c2c(c1[H])C([H])([H])C([H])([H])C([H])([H])C2([H])N([H])C(=O)C1([H])N(C(=O)C([H])(N([H])C(=O)C([H])(N([H])C([H])([H])[H])C([H])([H])[H])C(C([H])([H])[H])(C([H])([H])[H])C([H])([H])[H])C([H])([H])c2c([H])c(OC([H])([H])C3([H])N(C([H])([H])C([H])([H])C([H])([H])C([H])([H])[N+]([H])([H])[H])C([H])([H])C([H])(C([H])([H])N([H])C(=O)N4C([H])([H])C([H])([H])C([H])([H])C([H])(n5nc(-c6c([H])c([H])c(Oc7c([H])c([H])c(F)c([H])c7F)c([H])c6[H])c(C(=O)N([H])[H])c5N([H])[H])C4([H])[H])[N+]([H])([H])C3([H])[H])c([H])c([H])c2C1([H])[H]

>  <smiles>  (94) 
[H]c1c([H])c([H])c2c(c1[H])C([H])([H])C([H])([H])C([H])([H])C2([H])N([H])C(=O)C1([H])N(C(=O)C([H])(N([H])C(=O)C([H])(N([H])C([H])([H])[H])C([H])([H])[H])C(C([H])([H])[H])(C([H])([H])[H])C([H])([H])[H])C([H])([H])c2c([H])c(OC([H])([H])C3([H])N(C([H])([H])C([H])([H])C([H])([H])C([H])([H])[N+]([H])([H])[H])C([H])([H])C([H])(C([H])([H])N([H])C(=O)N4C([H])([H])C([H])([H])C([H])([H])C([H])(n5nc(-c6c([H])c([H])c(Oc7c([H])c([H])c(F)c([H])c7F)c([H])c6[H])c(C(=O)N([H])[H])c5N([H])[H])C4([H])[H])[N+]([H])([H])C3([H])[H])c([H])c([H])c2C1([H])[H]

$$$$
95:0:0
     RDKit          3D

 94102  0  0  1  0  0  0  0  0999 V2000
  -28.1710  -22.4890   20.9510 N   0  0  0  0  0  4  0  0  0  0  0  0
  -27.2050  -22.7720   20.9570 H   0  0  0  0  0  0  0  0  0  0  0  0
  -28.4490  -22.3850   19.9890 H   0  0  0  0  0  0  0  0  0  0  0  0
  -28.2510  -21.1650   21.6200 C   0  0  0  0  0  2  0  0  0  0  0  0
  -28.2570  -18.6630   18.7030 C   0  0  0  0  0  3  0  0  0  0  0  0
  -29.3280  -17.8160   19.0480 C   0  0  0  0  0  3  0  0  0  0  0  0
  -27.9180  -19.7520   19.5300 C   0  0  0  0  0  3  0  0  0  0  0  0
  -29.7450  -19.1600   21.0350 C   0  0  0  0  0  3  0  0  0  0  0  0
  -30.0690  -18.0420   20.2270 C   0  0  0  0  0  0  0  0  0  0  0  0
  -28.6670  -20.0170   20.6960 C   0  0  0  0  0  0  0  0  0  0  0  0
  -31.2050  -17.0920   20.6240 C   0  0  0  0  0  2  0  0  0  0  0  0
  -31.4260  -14.6640   19.9900 C   0  0  0  0  0  0  0  0  0  0  0  0
  -31.0400  -12.4520   18.9640 C   0  0  0  0  0  2  0  0  0  0  0  0
  -30.0750  -12.6020   17.7690 C   0  0  0  0  0  2  0  0  0  0  0  0
  -28.6100  -12.5210   18.2390 C   0  0  0  0  0  2  0  0  0  0  0  0
  -28.3200  -13.4600   19.4380 C   0  0  0  0  0  3  0  0  0  0  0  0
  -29.3870  -13.2850   20.5420 C   0  0  0  0  0  2  0  0  0  0  0  0
  -30.7140  -13.5070   19.9370 N   0  0  0  0  0  0  0  0  0  0  0  0
  -32.5080  -14.8180   19.4150 O   0  0  0  0  0  0  0  0  0  0  0  0
  -30.8160  -15.6760   20.6280 N   0  0  0  0  0  0  0  0  0  0  0  0
  -29.9440  -15.4520   21.0820 H   0  0  0  0  0  0  0  0  0  0  0  0
  -25.9860  -14.2020   20.2310 C   0  0  0  0  0  0  0  0  0  0  0  0
  -24.8900  -13.4890   20.6330 C   0  0  0  0  0  0  0  0  0  0  0  0
  -25.2750  -12.1130   20.5850 C   0  0  0  0  0  0  0  0  0  0  0  0
  -26.9710  -13.2640   19.9610 N   0  0  0  0  0  0  0  0  0  0  0  0
  -26.5480  -12.0040   20.2310 N   0  0  0  0  0  0  0  0  0  0  0  0
  -24.4890  -10.8920   20.8010 C   0  0  0  0  0  0  0  0  0  0  0  0
  -24.8530   -9.9410   21.7800 C   0  0  0  0  0  3  0  0  0  0  0  0
  -24.0690   -8.7840   21.9800 C   0  0  0  0  0  3  0  0  0  0  0  0
  -22.9090   -8.5690   21.1980 C   0  0  0  0  0  0  0  0  0  0  0  0
  -22.5640   -9.5090   20.2100 C   0  0  0  0  0  3  0  0  0  0  0  0
  -23.3480  -10.6570   20.0100 C   0  0  0  0  0  3  0  0  0  0  0  0
  -22.1020   -7.4620   21.3050 O   0  0  0  0  0  0  0  0  0  0  0  0
  -21.9180   -6.8190   22.5020 C   0  0  0  0  0  0  0  0  0  0  0  0
  -21.3980   -7.4830   23.6340 C   0  0  0  0  0  3  0  0  0  0  0  0
  -21.1590   -6.7660   24.8230 C   0  0  0  0  0  3  0  0  0  0  0  0
  -21.4310   -5.3860   24.8810 C   0  0  0  0  0  0  0  0  0  0  0  0
  -21.9450   -4.7220   23.7530 C   0  0  0  0  0  3  0  0  0  0  0  0
  -22.1850   -5.4360   22.5670 C   0  0  0  0  0  0  0  0  0  0  0  0
  -22.6600   -4.7870   21.4760 F   0  0  0  0  0  0  0  0  0  0  0  0
  -21.1950   -4.6950   26.0210 F   0  0  0  0  0  0  0  0  0  0  0  0
  -23.5310  -14.0400   20.9580 C   0  0  0  0  0  0  0  0  0  0  0  0
  -22.8060  -13.3890   21.8610 N   0  0  0  0  0  0  0  0  0  0  0  0
  -23.1250  -15.0830   20.4470 O   0  0  0  0  0  0  0  0  0  0  0  0
  -23.1480  -12.5420   22.2920 H   0  0  0  0  0  0  0  0  0  0  0  0
  -21.8960  -13.7410   22.1220 H   0  0  0  0  0  0  0  0  0  0  0  0
  -26.2210  -15.5610   20.0550 N   0  0  0  0  0  0  0  0  0  0  0  0
  -25.5020  -16.2580   20.2140 H   0  0  0  0  0  0  0  0  0  0  0  0
  -27.1050  -15.9650   19.7720 H   0  0  0  0  0  0  0  0  0  0  0  0
  -28.9770  -23.5690   21.5720 C   0  0  0  0  0  2  0  0  0  0  0  0
  -28.3970  -24.9950   21.3800 C   0  0  0  0  0  2  0  0  0  0  0  0
  -28.4080  -25.4590   19.9950 N   0  0  0  0  0  0  0  0  0  0  0  0
  -29.2670  -25.1560   19.5440 H   0  0  0  0  0  0  0  0  0  0  0  0
  -28.5250  -26.9130   20.0520 O   0  0  0  0  0  0  0  0  0  0  0  0
  -24.6660  -31.9630   23.2660 C   0  0  0  0  0  0  0  0  0  0  0  0
  -27.3210  -27.5870   20.0990 C   0  0  0  0  0  0  0  0  0  0  0  0
  -23.4540  -30.5700   21.6180 C   0  0  0  0  0  3  0  0  0  0  0  0
  -24.9070  -29.0630   20.1590 C   0  0  0  0  0  0  0  0  0  0  0  0
  -25.9720  -30.9570   21.3940 C   0  0  0  0  0  2  0  0  0  0  0  0
  -26.0630  -29.5900   20.7450 C   0  0  0  0  0  0  0  0  0  0  0  0
  -27.2680  -28.8540   20.7230 C   0  0  0  0  0  3  0  0  0  0  0  0
  -26.1490  -27.0760   19.4970 C   0  0  0  0  0  3  0  0  0  0  0  0
  -24.9430  -27.8030   19.5340 C   0  0  0  0  0  3  0  0  0  0  0  0
  -23.6540  -29.9100   20.2270 C   0  0  0  0  0  2  0  0  0  0  0  0
  -24.7160  -31.1790   22.1520 N   0  0  0  0  0  0  0  0  0  0  0  0
  -23.5890  -32.2150   23.8220 O   0  0  0  0  0  0  0  0  0  0  0  0
  -22.8260  -29.5320   22.5720 C   0  0  0  0  0  0  0  0  0  0  0  0
  -21.5050  -29.3250   22.4460 N   0  0  0  0  0  0  0  0  0  0  0  0
  -23.5230  -28.9120   23.3810 O   0  0  0  0  0  0  0  0  0  0  0  0
  -21.0040  -29.8750   21.7610 H   0  0  0  0  0  0  0  0  0  0  0  0
  -18.1610  -28.0490   22.9180 C   0  0  0  0  0  0  0  0  0  0  0  0
  -20.7090  -28.3650   23.2080 C   0  0  0  0  0  3  0  0  0  0  0  0
  -20.8510  -26.9380   22.6280 C   0  0  0  0  0  2  0  0  0  0  0  0
  -19.7630  -26.5920   21.6060 C   0  0  0  0  0  2  0  0  0  0  0  0
  -18.3740  -26.7040   22.2410 C   0  0  0  0  0  2  0  0  0  0  0  0
  -19.2580  -28.8350   23.3590 C   0  0  0  0  0  0  0  0  0  0  0  0
  -19.0060  -30.0910   23.9510 C   0  0  0  0  0  3  0  0  0  0  0  0
  -17.6890  -30.5630   24.1070 C   0  0  0  0  0  3  0  0  0  0  0  0
  -16.6060  -29.7730   23.6850 C   0  0  0  0  0  3  0  0  0  0  0  0
  -16.8430  -28.5190   23.0950 C   0  0  0  0  0  3  0  0  0  0  0  0
  -25.9540  -32.5970   23.8790 C   0  0  0  0  0  3  0  0  0  0  0  0
  -25.6450  -33.9950   24.2040 N   0  0  0  0  0  0  0  0  0  0  0  0
  -25.9750  -35.0430   23.4380 C   0  0  0  0  0  0  0  0  0  0  0  0
  -26.6420  -34.9350   22.4060 O   0  0  0  0  0  0  0  0  0  0  0  0
  -25.0500  -34.1550   25.0040 H   0  0  0  0  0  0  0  0  0  0  0  0
  -24.2400  -36.8300   23.0850 C   0  0  0  0  0  1  0  0  0  0  0  0
  -25.4880  -36.4340   23.8900 C   0  0  0  0  0  3  0  0  0  0  0  0
  -27.6230  -37.3310   24.7040 C   0  0  0  0  0  1  0  0  0  0  0  0
  -26.5170  -37.4870   23.7630 N   0  0  0  0  0  0  0  0  0  0  0  0
  -26.1100  -38.4080   23.9000 H   0  0  0  0  0  0  0  0  0  0  0  0
  -26.4780  -31.8290   25.1550 C   0  0  1  0  0  0  0  0  0  0  0  0
  -25.3910  -31.5890   26.2280 C   0  0  0  0  0  1  0  0  0  0  0  0
  -27.0630  -30.4540   24.7580 C   0  0  0  0  0  1  0  0  0  0  0  0
  -27.6280  -32.6280   25.8140 C   0  0  0  0  0  1  0  0  0  0  0  0
  1  2  1  0
  1 50  1  0
  1  4  1  0
  3  1  1  0
  5  6  2  0
  5  7  1  0
  6  9  1  0
  7 10  2  0
  9 11  1  0
  9  8  2  0
 10  8  1  0
 10  4  1  0
 11 20  1  0
 12 20  1  0
 13 18  1  0
 14 15  1  0
 14 13  1  0
 16 15  1  0
 16 25  1  0
 16 17  1  0
 18 12  1  0
 18 17  1  0
 19 12  2  0
 20 21  1  0
 22 23  2  0
 23 42  1  0
 24 23  1  0
 24 27  1  0
 25 22  1  0
 25 26  1  0
 26 24  2  0
 27 28  1  0
 28 29  2  0
 30 33  1  0
 30 29  1  0
 31 30  2  0
 32 31  1  0
 32 27  2  0
 33 34  1  0
 34 39  2  0
 34 35  1  0
 35 36  2  0
 36 37  1  0
 37 41  1  0
 38 37  2  0
 39 38  1  0
 40 39  1  0
 42 43  1  0
 43 46  1  0
 43 45  1  0
 44 42  2  0
 47 48  1  0
 47 22  1  0
 49 47  1  0
 51 50  1  0
 52 54  1  0
 52 51  1  0
 53 52  1  0
 54 56  1  0
 55 66  2  0
 56 61  1  0
 57 65  1  0
 57 67  1  0
 58 64  1  0
 58 60  1  0
 59 65  1  0
 60 59  1  0
 61 60  2  0
 62 63  1  0
 62 56  2  0
 63 58  2  0
 64 57  1  0
 65 55  1  0
 67 69  2  0
 68 67  1  0
 70 68  1  0
 71 80  2  0
 71 76  1  0
 72 68  1  0
 72 76  1  0
 73 72  1  0
 74 75  1  0
 74 73  1  0
 75 71  1  0
 76 77  2  0
 77 78  1  0
 79 78  2  0
 80 79  1  0
 81 55  1  0
 81 82  1  0
 81 91  1  0
 82 85  1  0
 83 87  1  0
 83 82  1  0
 84 83  2  0
 87 86  1  0
 89 87  1  0
 89 90  1  0
 89 88  1  0
 91 94  1  1
 91 92  1  0
 93 91  1  0
M  ISO  4  12 100  20 100  52 101  54 101
M  END
>  <TORSDO>  (95) 
F 22

>  <SCORE>  (95) 
-12.206

>  <name>  (95) 
95

>  <ligand_id>  (95) 
95

>  <original_smiles>  (95) 
[H]c1c([H])c([H])c2c(c1[H])C([H])([H])C([H])([H])C([H])([H])C2([H])N([H])C(=O)C1([H])N(C(=O)C([H])(N([H])C(=O)C([H])(N([H])C([H])([H])[H])C([H])([H])[H])C(C([H])([H])[H])(C([H])([H])[H])C([H])([H])[H])C([H])([H])c2c([H])c(ON([H])C([H])([H])C([H])([H])[N+]([H])([H])C([H])([H])c3c([H])c([H])c([H])c(C([H])([H])N([H])C(=O)N4C([H])([H])C([H])([H])C([H])([H])C([H])(n5nc(-c6c([H])c([H])c(Oc7c([H])c([H])c(F)c([H])c7F)c([H])c6[H])c(C(=O)N([H])[H])c5N([H])[H])C4([H])[H])c3[H])c([H])c([H])c2C1([H])[H]

>  <smiles>  (95) 
[H]c1c([H])c([H])c2c(c1[H])C([H])([H])C([H])([H])C([H])([H])C2([H])N([H])C(=O)C1([H])N(C(=O)C([H])(N([H])C(=O)C([H])(N([H])C([H])([H])[H])C([H])([H])[H])C(C([H])([H])[H])(C([H])([H])[H])C([H])([H])[H])C([H])([H])c2c([H])c(ON([H])C([H])([H])C([H])([H])[N+]([H])([H])C([H])([H])c3c([H])c([H])c([H])c(C([H])([H])N([H])C(=O)N4C([H])([H])C([H])([H])C([H])([H])C([H])(n5nc(-c6c([H])c([H])c(Oc7c([H])c([H])c(F)c([H])c7F)c([H])c6[H])c(C(=O)N([H])[H])c5N([H])[H])C4([H])[H])c3[H])c([H])c([H])c2C1([H])[H]

$$$$
96:0:0
     RDKit          3D

 96104  0  0  1  0  0  0  0  0999 V2000
  -28.6010  -22.5110   20.0350 N   0  0  0  0  0  0  0  0  0  0  0  0
  -27.2510  -21.9250   20.1260 C   0  0  0  0  0  2  0  0  0  0  0  0
  -26.0480  -22.7140   19.5700 C   0  0  0  0  0  2  0  0  0  0  0  0
  -25.8210  -22.5790   18.0530 C   0  0  0  0  0  2  0  0  0  0  0  0
  -24.4820  -23.0540   17.6500 N   0  0  0  0  0  4  0  0  0  0  0  0
  -24.4000  -23.0440   16.6490 H   0  0  0  0  0  0  0  0  0  0  0  0
  -24.3040  -23.9900   17.9670 H   0  0  0  0  0  0  0  0  0  0  0  0
  -23.7680  -22.4500   18.0200 H   0  0  0  0  0  0  0  0  0  0  0  0
  -29.4670  -21.4990   20.7470 C   0  0  0  0  0  2  0  0  0  0  0  0
  -30.1690  -20.3200   19.9300 C   0  0  0  0  0  2  0  0  0  0  0  0
  -30.6830  -14.6620   20.1120 C   0  0  0  0  0  0  0  0  0  0  0  0
  -30.3740  -12.4440   19.0580 C   0  0  0  0  0  2  0  0  0  0  0  0
  -29.3990  -12.6010   17.8730 C   0  0  0  0  0  2  0  0  0  0  0  0
  -27.9450  -12.4400   18.3570 C   0  0  0  0  0  2  0  0  0  0  0  0
  -27.6300  -13.3040   19.6100 C   0  0  0  0  0  3  0  0  0  0  0  0
  -28.7260  -13.1690   20.6890 C   0  0  0  0  0  2  0  0  0  0  0  0
  -30.0120  -13.4730   20.0510 N   0  0  0  0  0  0  0  0  0  0  0  0
  -31.8690  -14.7460   19.7850 O   0  0  0  0  0  0  0  0  0  0  0  0
  -30.0000  -16.7110   21.3280 C   0  0  0  0  0  2  0  0  0  0  0  0
  -29.7760  -16.5730   18.8800 C   0  0  0  0  0  2  0  0  0  0  0  0
  -29.4260  -18.1860   21.2030 C   0  0  0  0  0  2  0  0  0  0  0  0
  -30.3160  -18.0340   18.9230 C   0  0  0  0  0  2  0  0  0  0  0  0
  -29.9250  -15.8130   20.1450 N   0  0  0  0  0  0  0  0  0  0  0  0
  -29.6010  -18.9050   19.8990 N   0  0  2  0  0  4  0  0  0  0  0  0
  -28.6710  -18.9980   19.5220 H   0  0  0  0  0  0  0  0  0  0  0  0
  -25.2640  -13.8980   20.4090 C   0  0  0  0  0  0  0  0  0  0  0  0
  -24.2070  -13.1240   20.7980 C   0  0  0  0  0  0  0  0  0  0  0  0
  -24.6680  -11.7730   20.7500 C   0  0  0  0  0  0  0  0  0  0  0  0
  -26.3000  -13.0210   20.1410 N   0  0  0  0  0  0  0  0  0  0  0  0
  -25.9490  -11.7370   20.4070 N   0  0  0  0  0  0  0  0  0  0  0  0
  -23.9520  -10.5090   20.9590 C   0  0  0  0  0  0  0  0  0  0  0  0
  -24.3990   -9.5480   21.8910 C   0  0  0  0  0  3  0  0  0  0  0  0
  -23.6800   -8.3480   22.0840 C   0  0  0  0  0  3  0  0  0  0  0  0
  -22.4980   -8.1030   21.3450 C   0  0  0  0  0  0  0  0  0  0  0  0
  -22.0710   -9.0520   20.4000 C   0  0  0  0  0  3  0  0  0  0  0  0
  -22.7920  -10.2430   20.2060 C   0  0  0  0  0  3  0  0  0  0  0  0
  -21.7500   -6.9550   21.4490 O   0  0  0  0  0  0  0  0  0  0  0  0
  -21.7020   -6.2280   22.6110 C   0  0  0  0  0  0  0  0  0  0  0  0
  -21.2650   -6.7950   23.8280 C   0  0  0  0  0  3  0  0  0  0  0  0
  -21.1680   -5.9930   24.9830 C   0  0  0  0  0  3  0  0  0  0  0  0
  -21.4950   -4.6260   24.9190 C   0  0  0  0  0  0  0  0  0  0  0  0
  -21.9220   -4.0570   23.7060 C   0  0  0  0  0  3  0  0  0  0  0  0
  -22.0220   -4.8570   22.5550 C   0  0  0  0  0  0  0  0  0  0  0  0
  -22.4160   -4.3000   21.3840 F   0  0  0  0  0  0  0  0  0  0  0  0
  -21.3910   -3.8530   26.0250 F   0  0  0  0  0  0  0  0  0  0  0  0
  -22.8170  -13.5990   21.1070 C   0  0  0  0  0  0  0  0  0  0  0  0
  -22.1140  -12.8980   21.9900 N   0  0  0  0  0  0  0  0  0  0  0  0
  -22.3650  -14.6250   20.6020 O   0  0  0  0  0  0  0  0  0  0  0  0
  -22.4940  -12.0660   22.4140 H   0  0  0  0  0  0  0  0  0  0  0  0
  -21.1810  -13.1950   22.2420 H   0  0  0  0  0  0  0  0  0  0  0  0
  -25.4290  -15.2710   20.2380 N   0  0  0  0  0  0  0  0  0  0  0  0
  -24.6810  -15.9340   20.3970 H   0  0  0  0  0  0  0  0  0  0  0  0
  -26.2880  -15.7030   19.9220 H   0  0  0  0  0  0  0  0  0  0  0  0
  -28.6440  -23.8940   20.6500 C   0  0  0  0  0  3  0  0  0  0  0  0
  -28.5160  -25.1570   19.6710 C   0  0  0  0  0  3  0  0  0  0  0  0
  -28.4080  -26.5330   20.2180 O   0  0  0  0  0  0  0  0  0  0  0  0
  -24.5820  -31.8720   23.1930 C   0  0  0  0  0  0  0  0  0  0  0  0
  -27.2500  -27.3280   20.1430 C   0  0  0  0  0  0  0  0  0  0  0  0
  -23.3990  -30.4770   21.5340 C   0  0  0  0  0  3  0  0  0  0  0  0
  -24.8700  -28.9290   20.1250 C   0  0  0  0  0  0  0  0  0  0  0  0
  -25.9410  -30.7980   21.3840 C   0  0  0  0  0  2  0  0  0  0  0  0
  -26.0310  -29.4210   20.7350 C   0  0  0  0  0  0  0  0  0  0  0  0
  -27.2190  -28.6300   20.7400 C   0  0  0  0  0  3  0  0  0  0  0  0
  -26.0600  -26.8870   19.5140 C   0  0  0  0  0  3  0  0  0  0  0  0
  -24.8880  -27.6680   19.5110 C   0  0  0  0  0  3  0  0  0  0  0  0
  -23.6300  -29.8000   20.1570 C   0  0  0  0  0  2  0  0  0  0  0  0
  -24.6580  -31.0630   22.0930 N   0  0  0  0  0  0  0  0  0  0  0  0
  -23.4900  -32.1420   23.7140 O   0  0  0  0  0  0  0  0  0  0  0  0
  -22.7300  -29.4550   22.4860 C   0  0  0  0  0  0  0  0  0  0  0  0
  -21.4040  -29.2790   22.3550 N   0  0  0  0  0  0  0  0  0  0  0  0
  -23.4060  -28.8220   23.3030 O   0  0  0  0  0  0  0  0  0  0  0  0
  -20.9150  -29.8430   21.6740 H   0  0  0  0  0  0  0  0  0  0  0  0
  -18.0230  -28.0880   22.8470 C   0  0  0  0  0  0  0  0  0  0  0  0
  -20.5830  -28.3370   23.1180 C   0  0  0  0  0  3  0  0  0  0  0  0
  -20.6800  -26.9100   22.5350 C   0  0  0  0  0  2  0  0  0  0  0  0
  -19.5830  -26.6020   21.5120 C   0  0  0  0  0  2  0  0  0  0  0  0
  -18.1960  -26.7500   22.1440 C   0  0  0  0  0  2  0  0  0  0  0  0
  -19.1440  -28.8420   23.2860 C   0  0  0  0  0  0  0  0  0  0  0  0
  -18.9290  -30.1010   23.8890 C   0  0  0  0  0  3  0  0  0  0  0  0
  -17.6260  -30.6070   24.0550 C   0  0  0  0  0  3  0  0  0  0  0  0
  -16.5190  -29.8500   23.6320 C   0  0  0  0  0  3  0  0  0  0  0  0
  -16.7200  -28.5910   23.0380 C   0  0  0  0  0  3  0  0  0  0  0  0
  -25.8530  -32.5100   23.8290 C   0  0  0  0  0  3  0  0  0  0  0  0
  -26.3650  -31.7390   25.1070 C   0  0  1  0  0  0  0  0  0  0  0  0
  -25.2650  -31.4980   26.1660 C   0  0  0  0  0  1  0  0  0  0  0  0
  -26.9600  -30.3650   24.7170 C   0  0  0  0  0  1  0  0  0  0  0  0
  -27.5030  -32.5410   25.7790 C   0  0  0  0  0  1  0  0  0  0  0  0
  -25.5310  -33.9060   24.1630 N   0  0  0  0  0  0  0  0  0  0  0  0
  -25.8620  -34.9640   23.4110 C   0  0  0  0  0  0  0  0  0  0  0  0
  -26.5400  -34.8690   22.3840 O   0  0  0  0  0  0  0  0  0  0  0  0
  -24.9260  -34.0570   24.9570 H   0  0  0  0  0  0  0  0  0  0  0  0
  -24.1250  -36.7520   23.0590 C   0  0  0  0  0  1  0  0  0  0  0  0
  -25.3630  -36.3470   23.8740 C   0  0  0  0  0  3  0  0  0  0  0  0
  -27.4900  -37.2410   24.7190 C   0  0  0  0  0  1  0  0  0  0  0  0
  -26.3910  -37.4050   23.7710 N   0  0  0  0  0  0  0  0  0  0  0  0
  -25.9790  -38.3230   23.9130 H   0  0  0  0  0  0  0  0  0  0  0  0
  1  2  1  0
  1 54  1  0
  1  9  1  0
  3  2  1  0
  4  3  1  0
  5  7  1  0
  5  8  1  0
  5  4  1  0
  6  5  1  0
 10  9  1  0
 11 23  1  0
 12 17  1  0
 13 14  1  0
 13 12  1  0
 15 14  1  0
 15 29  1  0
 15 16  1  0
 17 11  1  0
 17 16  1  0
 18 11  2  0
 20 22  1  0
 20 23  1  0
 21 19  1  0
 22 24  1  0
 23 19  1  0
 24 10  1  0
 24 21  1  0
 24 25  1  6
 26 27  2  0
 27 46  1  0
 28 27  1  0
 28 31  1  0
 29 30  1  0
 29 26  1  0
 30 28  2  0
 31 32  1  0
 32 33  2  0
 34 37  1  0
 34 33  1  0
 35 34  2  0
 36 35  1  0
 36 31  2  0
 37 38  1  0
 38 39  1  0
 39 40  2  0
 41 40  1  0
 41 45  1  0
 42 41  2  0
 43 38  2  0
 43 42  1  0
 44 43  1  0
 46 47  1  0
 47 50  1  0
 47 49  1  0
 48 46  2  0
 51 52  1  0
 51 26  1  0
 53 51  1  0
 55 56  1  0
 55 54  2  0
 57 68  2  0
 58 56  1  0
 58 63  1  0
 59 67  1  0
 59 69  1  0
 60 66  1  0
 60 62  1  0
 61 67  1  0
 62 63  2  0
 62 61  1  0
 64 58  2  0
 65 64  1  0
 65 60  2  0
 66 59  1  0
 67 57  1  0
 69 71  2  0
 70 69  1  0
 72 70  1  0
 73 82  2  0
 73 78  1  0
 74 70  1  0
 74 78  1  0
 75 74  1  0
 76 77  1  0
 76 75  1  0
 77 73  1  0
 78 79  2  0
 79 80  1  0
 81 80  2  0
 82 81  1  0
 83 57  1  0
 83 88  1  0
 83 84  1  0
 84 87  1  1
 84 85  1  0
 86 84  1  0
 88 91  1  0
 89 93  1  0
 89 88  1  0
 90 89  2  0
 93 92  1  0
 95 93  1  0
 95 96  1  0
 95 94  1  0
M  ISO  4  11 100  23 100  55 101  56 101
M  END
>  <TORSDO>  (96) 
F 24

>  <SCORE>  (96) 
-12.494

>  <name>  (96) 
96

>  <ligand_id>  (96) 
96

>  <original_smiles>  (96) 
[H]c1c([H])c([H])c2c(c1[H])C([H])([H])C([H])([H])C([H])([H])C2([H])N([H])C(=O)C1([H])N(C(=O)C([H])(N([H])C(=O)C([H])(N([H])C([H])([H])[H])C([H])([H])[H])C(C([H])([H])[H])(C([H])([H])[H])C([H])([H])[H])C([H])([H])c2c([H])c(OC([H])([H])C([H])([H])N(C([H])([H])C([H])([H])C([H])([H])[N+]([H])([H])[H])C([H])([H])C([H])([H])[N+]3([H])C([H])([H])C([H])([H])N(C(=O)N4C([H])([H])C([H])([H])C([H])([H])C([H])(n5nc(-c6c([H])c([H])c(Oc7c([H])c([H])c(F)c([H])c7F)c([H])c6[H])c(C(=O)N([H])[H])c5N([H])[H])C4([H])[H])C([H])([H])C3([H])[H])c([H])c([H])c2C1([H])[H]

>  <smiles>  (96) 
[H]c1c([H])c([H])c2c(c1[H])C([H])([H])C([H])([H])C([H])([H])C2([H])N([H])C(=O)C1([H])N(C(=O)C([H])(N([H])C(=O)C([H])(N([H])C([H])([H])[H])C([H])([H])[H])C(C([H])([H])[H])(C([H])([H])[H])C([H])([H])[H])C([H])([H])c2c([H])c(OC([H])([H])C([H])([H])N(C([H])([H])C([H])([H])C([H])([H])[N+]([H])([H])[H])C([H])([H])C([H])([H])[N+]3([H])C([H])([H])C([H])([H])N(C(=O)N4C([H])([H])C([H])([H])C([H])([H])C([H])(n5nc(-c6c([H])c([H])c(Oc7c([H])c([H])c(F)c([H])c7F)c([H])c6[H])c(C(=O)N([H])[H])c5N([H])[H])C4([H])[H])C([H])([H])C3([H])[H])c([H])c([H])c2C1([H])[H]

$$$$
97:0:0
     RDKit          3D

 90 99  0  0  1  0  0  0  0  0999 V2000
  -28.4480  -21.3610   20.2460 C   0  0  0  0  0  2  0  0  0  0  0  0
  -30.5310  -15.1940   19.9870 C   0  0  0  0  0  0  0  0  0  0  0  0
  -30.3430  -12.8160   19.0470 C   0  0  0  0  0  2  0  0  0  0  0  0
  -29.3560  -12.6920   17.8650 C   0  0  0  0  0  2  0  0  0  0  0  0
  -27.9330  -12.4370   18.3840 C   0  0  0  0  0  2  0  0  0  0  0  0
  -27.5620  -13.3690   19.5680 C   0  0  0  0  0  3  0  0  0  0  0  0
  -28.6770  -13.4790   20.6290 C   0  0  0  0  0  2  0  0  0  0  0  0
  -29.8800  -13.9460   19.9250 N   0  0  0  0  0  0  0  0  0  0  0  0
  -31.7370  -15.1110   19.7130 O   0  0  0  0  0  0  0  0  0  0  0  0
  -31.7380  -18.0700   20.4460 C   0  0  0  0  0  2  0  0  0  0  0  0
  -31.4120  -18.0370   18.9530 C   0  0  0  0  0  2  0  0  0  0  0  0
  -29.5120  -19.0240   21.3030 C   0  0  0  0  0  2  0  0  0  0  0  0
  -29.0120  -18.9480   19.0430 C   0  0  0  0  0  2  0  0  0  0  0  0
  -30.3900  -17.6320   21.0540 C   0  0  0  0  0  3  0  0  0  0  0  0
  -29.9400  -17.5740   18.9770 C   0  0  0  0  0  3  0  0  0  0  0  0
  -29.8940  -16.5230   20.1040 N   0  0  0  0  0  0  0  0  0  0  0  0
  -29.3450  -19.9910   20.1210 N   0  0  1  0  0  4  0  0  0  0  0  0
  -30.2730  -20.3170   19.9020 H   0  0  0  0  0  0  0  0  0  0  0  0
  -25.2410  -13.8930   20.4830 C   0  0  0  0  0  0  0  0  0  0  0  0
  -24.2040  -13.0980   20.8860 C   0  0  0  0  0  0  0  0  0  0  0  0
  -24.6730  -11.7520   20.7840 C   0  0  0  0  0  0  0  0  0  0  0  0
  -26.2690  -13.0320   20.1490 N   0  0  0  0  0  0  0  0  0  0  0  0
  -25.9450  -11.7360   20.3980 N   0  0  0  0  0  0  0  0  0  0  0  0
  -23.9620  -10.4800   20.9720 C   0  0  0  0  0  0  0  0  0  0  0  0
  -24.4130   -9.5090   21.8930 C   0  0  0  0  0  3  0  0  0  0  0  0
  -23.6970   -8.3050   22.0730 C   0  0  0  0  0  3  0  0  0  0  0  0
  -22.5180   -8.0630   21.3290 C   0  0  0  0  0  0  0  0  0  0  0  0
  -22.0870   -9.0220   20.3960 C   0  0  0  0  0  3  0  0  0  0  0  0
  -22.8030  -10.2170   20.2150 C   0  0  0  0  0  3  0  0  0  0  0  0
  -21.7730   -6.9110   21.4170 O   0  0  0  0  0  0  0  0  0  0  0  0
  -21.6900   -6.1960   22.5850 C   0  0  0  0  0  0  0  0  0  0  0  0
  -21.1850   -6.7670   23.7730 C   0  0  0  0  0  3  0  0  0  0  0  0
  -21.0500   -5.9780   24.9320 C   0  0  0  0  0  3  0  0  0  0  0  0
  -21.4100   -4.6170   24.9040 C   0  0  0  0  0  0  0  0  0  0  0  0
  -21.9090   -4.0450   23.7210 C   0  0  0  0  0  3  0  0  0  0  0  0
  -22.0440   -4.8310   22.5630 C   0  0  0  0  0  0  0  0  0  0  0  0
  -22.5050   -4.2700   21.4200 F   0  0  0  0  0  0  0  0  0  0  0  0
  -21.2750   -3.8550   26.0140 F   0  0  0  0  0  0  0  0  0  0  0  0
  -22.8220  -13.5590   21.2480 C   0  0  0  0  0  0  0  0  0  0  0  0
  -22.1490  -12.8380   22.1350 N   0  0  0  0  0  0  0  0  0  0  0  0
  -22.3530  -14.5950   20.7790 O   0  0  0  0  0  0  0  0  0  0  0  0
  -22.5440  -11.9990   22.5350 H   0  0  0  0  0  0  0  0  0  0  0  0
  -21.2250  -13.1290   22.4220 H   0  0  0  0  0  0  0  0  0  0  0  0
  -25.3890  -15.2700   20.3460 N   0  0  0  0  0  0  0  0  0  0  0  0
  -24.6320  -15.9170   20.5370 H   0  0  0  0  0  0  0  0  0  0  0  0
  -26.2230  -15.7270   19.9970 H   0  0  0  0  0  0  0  0  0  0  0  0
  -29.8590  -23.1870   18.9630 C   0  0  0  0  0  1  0  0  0  0  0  0
  -28.9370  -23.0440   20.1830 C   0  0  0  0  0  3  0  0  0  0  0  0
  -27.9130  -24.4690   20.1810 C   0  0  0  0  0  2  0  0  0  0  0  0
  -28.2100  -26.0500   20.2600 O   0  0  0  0  0  0  0  0  0  0  0  0
  -24.6580  -31.9050   23.2720 C   0  0  0  0  0  0  0  0  0  0  0  0
  -27.1850  -27.1010   20.2190 C   0  0  0  0  0  0  0  0  0  0  0  0
  -23.4480  -30.5240   21.6320 C   0  0  0  0  0  3  0  0  0  0  0  0
  -24.8820  -28.9330   20.1980 C   0  0  0  0  0  0  0  0  0  0  0  0
  -26.0110  -30.7470   21.4690 C   0  0  0  0  0  2  0  0  0  0  0  0
  -26.0730  -29.3480   20.8080 C   0  0  0  0  0  0  0  0  0  0  0  0
  -27.2220  -28.4530   20.7930 C   0  0  0  0  0  3  0  0  0  0  0  0
  -25.9650  -26.8160   19.5660 C   0  0  0  0  0  3  0  0  0  0  0  0
  -24.8490  -27.6850   19.5580 C   0  0  0  0  0  3  0  0  0  0  0  0
  -23.6650  -29.8490   20.2510 C   0  0  0  0  0  2  0  0  0  0  0  0
  -24.7280  -31.0830   22.1780 N   0  0  0  0  0  0  0  0  0  0  0  0
  -23.5740  -32.1950   23.8020 O   0  0  0  0  0  0  0  0  0  0  0  0
  -22.7590  -29.5220   22.5930 C   0  0  0  0  0  0  0  0  0  0  0  0
  -21.4310  -29.3500   22.4600 N   0  0  0  0  0  0  0  0  0  0  0  0
  -23.4250  -28.8990   23.4250 O   0  0  0  0  0  0  0  0  0  0  0  0
  -20.9480  -29.9010   21.7640 H   0  0  0  0  0  0  0  0  0  0  0  0
  -18.0510  -28.1310   22.9470 C   0  0  0  0  0  0  0  0  0  0  0  0
  -20.6070  -28.4130   23.2300 C   0  0  0  0  0  3  0  0  0  0  0  0
  -20.7230  -26.9780   22.6650 C   0  0  0  0  0  2  0  0  0  0  0  0
  -19.6300  -26.6440   21.6440 C   0  0  0  0  0  2  0  0  0  0  0  0
  -18.2410  -26.7820   22.2760 C   0  0  0  0  0  2  0  0  0  0  0  0
  -19.1610  -28.9040   23.3810 C   0  0  0  0  0  0  0  0  0  0  0  0
  -18.9270  -30.1640   23.9710 C   0  0  0  0  0  3  0  0  0  0  0  0
  -17.6170  -30.6550   24.1290 C   0  0  0  0  0  3  0  0  0  0  0  0
  -16.5210  -29.8800   23.7090 C   0  0  0  0  0  3  0  0  0  0  0  0
  -16.7390  -28.6200   23.1260 C   0  0  0  0  0  3  0  0  0  0  0  0
  -25.9370  -32.5370   23.9010 C   0  0  0  0  0  3  0  0  0  0  0  0
  -25.6310  -33.9380   24.2340 N   0  0  0  0  0  0  0  0  0  0  0  0
  -25.9390  -34.9920   23.4680 C   0  0  0  0  0  0  0  0  0  0  0  0
  -26.5750  -34.8860   22.4150 O   0  0  0  0  0  0  0  0  0  0  0  0
  -25.0590  -34.0910   25.0520 H   0  0  0  0  0  0  0  0  0  0  0  0
  -24.1860  -36.7810   23.1960 C   0  0  0  0  0  1  0  0  0  0  0  0
  -25.4710  -36.3840   23.9410 C   0  0  0  0  0  3  0  0  0  0  0  0
  -27.6380  -37.2910   24.6570 C   0  0  0  0  0  1  0  0  0  0  0  0
  -26.4910  -37.4410   23.7660 N   0  0  0  0  0  0  0  0  0  0  0  0
  -26.0870  -38.3610   23.9210 H   0  0  0  0  0  0  0  0  0  0  0  0
  -26.4380  -31.7670   25.1850 C   0  0  1  0  0  0  0  0  0  0  0  0
  -25.3360  -31.5400   26.2460 C   0  0  0  0  0  1  0  0  0  0  0  0
  -27.0140  -30.3820   24.8080 C   0  0  0  0  0  1  0  0  0  0  0  0
  -27.5910  -32.5560   25.8470 C   0  0  0  0  0  1  0  0  0  0  0  0
  2 16  1  0
  3  8  1  0
  4  5  1  0
  4  3  1  0
  6  5  1  0
  6 22  1  0
  6  7  1  0
  8  2  1  0
  8  7  1  0
  9  2  2  0
 11 10  1  0
 13 17  1  0
 14 10  1  0
 14 12  1  0
 15 11  1  0
 15 13  1  0
 15 16  1  0
 16 14  1  0
 17  1  1  0
 17 12  1  0
 17 18  1  6
 19 20  2  0
 20 39  1  0
 21 20  1  0
 21 24  1  0
 22 23  1  0
 22 19  1  0
 23 21  2  0
 24 25  1  0
 25 26  2  0
 27 30  1  0
 27 26  1  0
 28 27  2  0
 29 28  1  0
 29 24  2  0
 30 31  1  0
 31 32  1  0
 32 33  2  0
 34 33  1  0
 34 38  1  0
 35 34  2  0
 36 31  2  0
 36 35  1  0
 37 36  1  0
 39 40  1  0
 40 43  1  0
 40 42  1  0
 41 39  2  0
 44 19  1  0
 44 45  1  0
 46 44  1  0
 48 47  1  0
 48  1  1  0
 49 48  1  0
 49 50  1  0
 51 62  2  0
 52 50  1  0
 52 57  1  0
 53 61  1  0
 53 63  1  0
 54 60  1  0
 54 56  1  0
 55 61  1  0
 56 55  1  0
 57 56  2  0
 58 52  2  0
 59 58  1  0
 59 54  2  0
 60 53  1  0
 61 51  1  0
 63 65  2  0
 64 63  1  0
 66 64  1  0
 67 76  2  0
 67 72  1  0
 68 64  1  0
 68 72  1  0
 69 68  1  0
 70 71  1  0
 70 69  1  0
 71 67  1  0
 72 73  2  0
 73 74  1  0
 75 74  2  0
 76 75  1  0
 77 51  1  0
 77 78  1  0
 77 87  1  0
 78 81  1  0
 79 83  1  0
 79 78  1  0
 80 79  2  0
 83 82  1  0
 85 86  1  0
 85 83  1  0
 85 84  1  0
 87 90  1  1
 87 88  1  0
 89 87  1  0
M  ISO  4   2 100  16 100  49 101  50 101
M  END
>  <TORSDO>  (97) 
F 18

>  <SCORE>  (97) 
-15.751

>  <name>  (97) 
97

>  <ligand_id>  (97) 
97

>  <original_smiles>  (97) 
[H]c1c([H])c([H])c2c(c1[H])C([H])([H])C([H])([H])C([H])([H])C2([H])N([H])C(=O)C1([H])N(C(=O)C([H])(N([H])C(=O)C([H])(N([H])C([H])([H])[H])C([H])([H])[H])C(C([H])([H])[H])(C([H])([H])[H])C([H])([H])[H])C([H])([H])c2c([H])c(OC([H])([H])C([H])(C([H])([H])[H])C([H])([H])[N+]3([H])C([H])([H])C4([H])N(C(=O)N5C([H])([H])C([H])([H])C([H])([H])C([H])(n6nc(-c7c([H])c([H])c(Oc8c([H])c([H])c(F)c([H])c8F)c([H])c7[H])c(C(=O)N([H])[H])c6N([H])[H])C5([H])[H])C([H])(C([H])([H])C4([H])[H])C3([H])[H])c([H])c([H])c2C1([H])[H]

>  <smiles>  (97) 
[H]c1c([H])c([H])c2c(c1[H])C([H])([H])C([H])([H])C([H])([H])C2([H])N([H])C(=O)C1([H])N(C(=O)C([H])(N([H])C(=O)C([H])(N([H])C([H])([H])[H])C([H])([H])[H])C(C([H])([H])[H])(C([H])([H])[H])C([H])([H])[H])C([H])([H])c2c([H])c(OC([H])([H])C([H])(C([H])([H])[H])C([H])([H])[N+]3([H])C([H])([H])C4([H])N(C(=O)N5C([H])([H])C([H])([H])C([H])([H])C([H])(n6nc(-c7c([H])c([H])c(Oc8c([H])c([H])c(F)c([H])c8F)c([H])c7[H])c(C(=O)N([H])[H])c6N([H])[H])C5([H])[H])C([H])(C([H])([H])C4([H])[H])C3([H])[H])c([H])c([H])c2C1([H])[H]

$$$$
